
     RDKit          3D

  7  6  0  0  0  0  0  0  0  0999 V2000
   -1.2200   -1.6979   -1.2100 O   0  0  0  0  0  0  0  0  0  1  0  0
   -0.6698   -1.3889   -0.2219 C   0  0  0  0  0  0  0  0  0  2  0  0
    0.0151   -0.0221    0.0568 C   0  0  0  0  0  0  0  0  0  3  0  0
   -0.7966    0.6416    1.4819 Cl  0  0  0  0  0  0  0  0  0  4  0  0
   -0.1110    1.0815   -1.3075 Cl  0  0  0  0  0  0  0  0  0  5  0  0
    1.7078   -0.3952    0.4118 Cl  0  0  0  0  0  0  0  0  0  6  0  0
   -0.6225   -2.1137    0.5909 H   0  0  0  0  0  0  0  0  0  7  0  0
  1  2  1  0
  2  7  1  0
  2  3  1  0
  3  4  1  0
  3  5  1  0
  3  6  1  0
M  END
>  <rmg_smiles>  (1) 
O[CH]C(Cl)(Cl)Cl

>  <rmg_adjacency_list>  (1) 
1 Cl u0 p3 c0 {5,S}
2 Cl u0 p3 c0 {5,S}
3 Cl u0 p3 c0 {5,S}
4 O  u0 p2 c0 {6,S}
5 C  u0 p0 c0 {1,S} {2,S} {3,S} {6,S}
6 C  u0 p0 c0 {4,S} {5,S} {7,S}
7 H  u0 p0 c0 {6,S}


>  <multiplicity>  (1) 
1

>  <reaction>  (1) 
kfir_rxn_7125

>  <type>  (1) 
r1h

>  <role_mapnums>  (1) 
{"r1h_a": 2, "r1h_h": 7}

>  <role_mapidx>  (1) 
{"r1h_a": 1, "r1h_h": 6}

>  <ordered_mapped_smiles>  (1) 
[OH:1][CH:2]([C:3]([Cl:4])([Cl:5])[Cl:6])[H:7]

>  <mol_properties>  (1) 
{"1": {"label": "donator", "atom_type": "Cs"}, "6": {"label": "d_hydrogen", "atom_type": "H0"}}

>  <level_of_theory>  (1) 
wb97xd/def2tzvp

>  <lot_method>  (1) 
wb97xd

>  <lot_basis>  (1) 
def2tzvp

>  <spin_multiplicity>  (1) 
1.0

>  <optical_isomers>  (1) 
1.0

>  <modes>  (1) 
IdealGasTranslation(mass=(145.909, 'amu')),         NonlinearRotor(             inertia = ([273.278, 306.314, 329.392

>  <frequency_value>  (1) 
unknown

>  <frequency_units>  (1) 
unknown

>  <frequency_list>  (1) 
unknown

>  <arkane_path>  (1) 
/home/calvin/Dropbox/PersonalFolders/Calvin/Kfir_HAb_Converged/kfir_rxn_7125/output/Species/O=CC[Cl][Cl]Cl/arkane/output.py

>  <path_exists>  (1) 
True

>  <E0_value>  (1) 
-4019833.992973947

>  <E0_units>  (1) 
kJ/mol

>  <thermo_class>  (1) 
NASA

>  <Cp0_value>  (1) 
33.257888

>  <Cp0_units>  (1) 
J/(mol*K)

>  <CpInf_value>  (1) 
153.817732

>  <CpInf_units>  (1) 
J/(mol*K)

>  <Tmin_value>  (1) 
10.0

>  <Tmin_units>  (1) 
K

>  <Tmax_value>  (1) 
3000.0

>  <Tmax_units>  (1) 
K

>  <polynomials>  (1) 
[{"name": "polynomial1", "class": "NASAPolynomial", "Tmin_value": 10.0, "Tmin_units": "K", "Tmax_value": 392.2581887869959, "Tmax_units": "K", "coeffs": [3.7373084262740592, 0.02035764258876151, 0.00012122605582131573, -4.640599826056767e-07, 4.5049695500558086e-10, -483474357.3220684, 12.100844359914927]}, {"name": "polynomial2", "class": "NASAPolynomial", "Tmin_value": 392.2581887869959, "Tmin_units": "K", "Tmax_value": 3000.0, "Tmax_units": "K", "coeffs": [7.480156483897495, 0.01895868478815295, -1.4026466263912767e-05, 4.771828342710903e-09, -6.049905312972637e-13, -483474933.8245523, -6.059205589177282]}]

>  <H298_value>  (1) 
-960758.6487627336

>  <H298_units>  (1) 
kcal/mol

>  <S298_value>  (1) 
82.74033079105784

>  <S298_units>  (1) 
cal/(mol*K)

>  <Cp_T_value_list>  (1) 
[23.59678955265632, 26.05089622486369, 27.843841155203794, 29.327486954036896, 31.528100046832087, 32.94631949574581, 34.578964329832274, 35.34532769748381, 35.933016613207776]

>  <Cp_T_units>  (1) 
cal/(mol*K)

>  <T_list>  (1) 
[300.0, 400.0, 500.0, 600.0, 800.0, 1000.0, 1500.0, 2000.0, 2400.0]

>  <T_units>  (1) 
K

>  <yaml_path>  (1) 
/home/calvin/Dropbox/PersonalFolders/Calvin/Kfir_HAb_Converged/kfir_rxn_7125/output/Species/O=CC[Cl][Cl]Cl/O=CCClClCl.yml

>  <frequencies_cm1>  (1) 
[196.39995238511773, 243.7670319937604, 267.48278818072527, 316.0378229268397, 317.9111119232689, 446.2549760136967, 632.8733054771637, 743.8573752284025, 857.8822273400677, 1011.26742281135, 1032.9662081596734, 1375.4427419023455, 1859.166356325976, 2950.4577548871584]

>  <ZPE_kJmol>  (1) 
73.28186196203265

>  <E_elec_kJmol>  (1) 
-4019907.274835909

>  <E0_minus_Eelec_plus_ZPE_kJmol>  (1) 
0.0

>  <rxn>  (1) 
kfir_rxn_7125

>  <species_type>  (1) 
r1

>  <species_folder>  (1) 
O=CC[Cl][Cl]Cl

>  <frequencies_cm1_list>  (1) 
[196.39995238511773, 243.7670319937604, 267.48278818072527, 316.0378229268397, 317.9111119232689, 446.2549760136967, 632.8733054771637, 743.8573752284025, 857.8822273400677, 1011.26742281135, 1032.9662081596734, 1375.4427419023455, 1859.166356325976, 2950.4577548871584]

>  <E0_kJmol>  (1) 
-4.01983e+06

>  <H298_kJmol>  (1) 
-4.01981e+06

$$$$

     RDKit          3D

  8  8  0  0  0  0  0  0  0  0999 V2000
    0.5752    1.1379    0.2438 N   0  0  0  0  0  0  0  0  0  1  0  0
    0.5830    0.2339    1.1377 N   0  0  0  0  0  0  0  0  0  2  0  0
    0.0019   -0.9590    0.9335 N   0  0  0  0  0  0  0  0  0  3  0  0
   -0.5842   -1.1986   -0.2060 C   0  0  0  0  0  0  0  0  0  4  0  0
   -0.6372   -0.2372   -1.2613 C   0  0  0  0  0  2  0  0  0  5  0  0
   -0.0405    0.8452   -0.9136 N   0  0  0  0  0  0  0  0  0  6  0  0
   -1.0353   -2.1781   -0.3126 H   0  0  0  0  0  0  0  0  0  7  0  0
    0.0126    1.6505   -1.5695 H   0  0  0  0  0  0  0  0  0  8  0  0
  1  2  1  0
  1  6  1  0
  2  3  1  0
  3  4  1  0
  4  5  1  0
  4  7  1  0
  5  6  1  0
  6  8  1  0
M  RAD  1   5   3
M  END
>  <rmg_smiles>  (2) 
[C]1[CH][N][N][N]N1

>  <rmg_adjacency_list>  (2) 
1 N u0 p1 c0 {2,S} {6,S} {8,S}
2 N u0 p1 c0 {1,S} {4,S}
3 N u0 p1 c0 {4,S} {5,S}
4 N u0 p1 c0 {2,S} {3,S}
5 C u0 p0 c0 {3,S} {6,S} {7,S}
6 C u0 p1 c0 {1,S} {5,S}
7 H u0 p0 c0 {5,S}
8 H u0 p0 c0 {1,S}


>  <multiplicity>  (2) 
1

>  <reaction>  (2) 
kfir_rxn_7125

>  <type>  (2) 
r2h

>  <role_mapnums>  (2) 
{"r2h_a": 6, "r2h_h": 8}

>  <role_mapidx>  (2) 
{"r2h_a": 5, "r2h_h": 7}

>  <ordered_mapped_smiles>  (2) 
[NH:1]1[NH:2][NH:3][CH:4]([H:7])[C:5][N:6]1[H:8]

>  <mol_properties>  (2) 
{"5": {"label": "acceptor", "atom_type": "N3s"}, "7": {"label": "a_hydrogen", "atom_type": "H0"}}

>  <level_of_theory>  (2) 
wb97xd/def2tzvp

>  <lot_method>  (2) 
wb97xd

>  <lot_basis>  (2) 
def2tzvp

>  <spin_multiplicity>  (2) 
1.0

>  <optical_isomers>  (2) 
1.0

>  <modes>  (2) 
IdealGasTranslation(mass=(82.028, 'amu')),         NonlinearRotor(             inertia = ([76.2061, 77.5352, 153.741

>  <frequency_value>  (2) 
unknown

>  <frequency_units>  (2) 
unknown

>  <frequency_list>  (2) 
unknown

>  <arkane_path>  (2) 
/home/calvin/Dropbox/PersonalFolders/Calvin/Kfir_HAb_Converged/kfir_rxn_7125/output/Species/_N-_1N=NC=C=_NHp_1/arkane/output.py

>  <path_exists>  (2) 
True

>  <E0_value>  (2) 
-776677.5234324584

>  <E0_units>  (2) 
kJ/mol

>  <thermo_class>  (2) 
NASA

>  <Cp0_value>  (2) 
33.257888

>  <Cp0_units>  (2) 
J/(mol*K)

>  <CpInf_value>  (2) 
182.918384

>  <CpInf_units>  (2) 
J/(mol*K)

>  <Tmin_value>  (2) 
10.0

>  <Tmin_units>  (2) 
K

>  <Tmax_value>  (2) 
3000.0

>  <Tmax_units>  (2) 
K

>  <polynomials>  (2) 
[{"name": "polynomial1", "class": "NASAPolynomial", "Tmin_value": 10.0, "Tmin_units": "K", "Tmax_value": 629.4744097037965, "Tmax_units": "K", "coeffs": [4.024290488750609, -0.002649291033149291, 0.00010195931691251776, -1.671203532807581e-07, 8.535938388786647e-11, -93412727.90632282, 9.650502165856741]}, {"name": "polynomial2", "class": "NASAPolynomial", "Tmin_value": 629.4744097037965, "Tmin_units": "K", "Tmax_value": 3000.0, "Tmax_units": "K", "coeffs": [1.2573664455596918, 0.032021360238104014, -2.137896706043774e-05, 6.631451822139224e-09, -7.751464119606096e-13, -93412718.1147035, 19.02943700122389]}]

>  <H298_value>  (2) 
-185627.01852134304

>  <H298_units>  (2) 
kcal/mol

>  <S298_value>  (2) 
69.570227211326

>  <S298_units>  (2) 
cal/(mol*K)

>  <Cp_T_value_list>  (2) 
[17.06017411381582, 21.39736999885092, 25.10714499040333, 28.028851777442846, 32.3312915244227, 35.28496786577949, 39.036092527688176, 40.60556548822405, 41.57528743472866]

>  <Cp_T_units>  (2) 
cal/(mol*K)

>  <T_list>  (2) 
[300.0, 400.0, 500.0, 600.0, 800.0, 1000.0, 1500.0, 2000.0, 2400.0]

>  <T_units>  (2) 
K

>  <yaml_path>  (2) 
/home/calvin/Dropbox/PersonalFolders/Calvin/Kfir_HAb_Converged/kfir_rxn_7125/output/Species/_N-_1N=NC=C=_NHp_1/_N-_1N=NC=C=_NHp_1.yml

>  <frequencies_cm1>  (2) 
[196.17603662175998, 293.20653919335996, 661.51042984624, 701.2428069077599, 777.5830827101998, 827.5129329719199, 878.3629592665199, 1002.8545361328, 1067.5415378471998, 1098.97172965684, 1116.79155656224, 1231.51141331816, 1376.5078083499598, 1418.45135468452, 1558.1121021226797, 1601.3741096386796, 3154.2329679915597, 3538.31032392448]

>  <ZPE_kJmol>  (2) 
134.58144562004924

>  <E_elec_kJmol>  (2) 
-776812.1048780784

>  <E0_minus_Eelec_plus_ZPE_kJmol>  (2) 
0.0

>  <rxn>  (2) 
kfir_rxn_7125

>  <species_type>  (2) 
p0

>  <species_folder>  (2) 
_N-_1N=NC=C=_NHp_1

>  <frequencies_cm1_list>  (2) 
[196.17603662175998, 293.20653919335996, 661.51042984624, 701.2428069077599, 777.5830827101998, 827.5129329719199, 878.3629592665199, 1002.8545361328, 1067.5415378471998, 1098.97172965684, 1116.79155656224, 1231.51141331816, 1376.5078083499598, 1418.45135468452, 1558.1121021226797, 1601.3741096386796, 3154.2329679915597, 3538.31032392448]

>  <E0_kJmol>  (2) 
-776678

>  <H298_kJmol>  (2) 
-776663

$$$$

     RDKit          3D

 14 13  0  0  0  0  0  0  0  0999 V2000
    0.2836   -1.3364    1.7230 N   0  0  0  0  0  0  0  0  0  1  0  0
    0.2913   -2.2404    2.6169 N   0  0  0  0  0  0  0  0  0  2  0  0
   -0.2898   -3.4334    2.4128 N   0  0  0  0  0  0  0  0  0  3  0  0
   -0.8759   -3.6730    1.2732 C   0  0  0  0  0  0  0  0  0  4  0  0
   -0.9288   -2.7116    0.2180 C   0  0  0  0  0  0  0  0  0  5  0  0
   -0.3322   -1.6292    0.5656 N   0  0  0  0  0  0  0  0  0  6  0  0
   -1.3270   -4.6524    1.1666 H   0  0  0  0  0  0  0  0  0  7  0  0
   -0.8809   -0.0466   -2.2518 O   0  0  0  0  0  0  0  0  0  8  0  0
   -0.3308    0.2624   -1.2637 C   0  0  0  0  0  3  0  0  0  9  0  0
    0.3542    1.6292   -0.9850 C   0  0  0  0  0  0  0  0  0 10  0  0
   -0.4575    2.2929    0.4400 Cl  0  0  0  0  0  0  0  0  0 11  0  0
    0.2281    2.7328   -2.3494 Cl  0  0  0  0  0  0  0  0  0 12  0  0
    2.0468    1.2561   -0.6301 Cl  0  0  0  0  0  0  0  0  0 13  0  0
   -0.2694   -0.6785   -0.2087 H   0  0  0  0  0  0  0  0  0 14  0  0
  1  2  1  0
  1  6  1  0
  2  3  1  0
  3  4  1  0
  4  5  1  0
  4  7  1  0
  5  6  1  0
  6 14  1  0
  8  9  1  0
  9 10  1  0
 10 12  1  0
 10 13  1  0
 10 11  1  0
M  RAD  1   9   2
M  END
>  <rmg_smiles>  (3) 
[C]1[CH][N][N][N]N1.[O][C]C(Cl)(Cl)Cl

>  <rmg_adjacency_list>  (3) 
multiplicity 2
1  Cl u0 p3 c0 {9,S}
2  Cl u0 p3 c0 {9,S}
3  Cl u0 p3 c0 {9,S}
4  O  u0 p2 c0 {12,S}
5  N  u0 p1 c0 {6,S} {11,S} {14,S}
6  N  u0 p1 c0 {5,S} {8,S}
7  N  u0 p1 c0 {8,S} {10,S}
8  N  u0 p1 c0 {6,S} {7,S}
9  C  u0 p0 c0 {1,S} {2,S} {3,S} {12,S}
10 C  u0 p0 c0 {7,S} {11,S} {13,S}
11 C  u0 p1 c0 {5,S} {10,S}
12 C  u1 p1 c0 {4,S} {9,S}
13 H  u0 p0 c0 {10,S}
14 H  u0 p0 c0 {5,S}


>  <multiplicity>  (3) 
2

>  <reaction>  (3) 
kfir_rxn_7125

>  <type>  (3) 
ts

>  <role_mapnums>  (3) 
{"*2": 14, "*1": 9, "*3": 6, "*0": 1, "*4": 8}

>  <role_mapidx>  (3) 
{"*2": 13, "*1": 8, "*3": 5, "*0": 0, "*4": 7}

>  <ordered_mapped_smiles>  (3) 
[NH:1]1[NH:2][NH:3][CH:4]([H:7])[CH2:5][N:6]1[H:14].[OH:8][CH:9][C:10]([Cl:11])([Cl:12])[Cl:13]

>  <mol_properties>  (3) 
{"0": {"label": "*0", "atom_type": "N3s"}, "5": {"label": "*3", "atom_type": "N3s"}, "7": {"label": "*4", "atom_type": "O2s"}, "8": {"label": "*1", "atom_type": "C2s"}, "13": {"label": "*2", "atom_type": "H0"}}

>  <level_of_theory>  (3) 
wb97xd/def2tzvp

>  <lot_method>  (3) 
wb97xd

>  <lot_basis>  (3) 
def2tzvp

>  <spin_multiplicity>  (3) 
2.0

>  <optical_isomers>  (3) 
1.0

>  <modes>  (3) 
IdealGasTranslation(mass=(226.929, 'amu')),         NonlinearRotor(             inertia = ([399.329, 1606.16, 1708.52

>  <frequency_value>  (3) 
-2123.27

>  <frequency_units>  (3) 
cm^-1

>  <frequency_list>  (3) 
unknown

>  <arkane_path>  (3) 
/home/calvin/Dropbox/PersonalFolders/Calvin/Kfir_HAb_Converged/kfir_rxn_7125/output/rxns/TS0/arkane/output.py

>  <path_exists>  (3) 
True

>  <E0_value>  (3) 
-4794780.0

>  <E0_units>  (3) 
kJ/mol

>  <thermo_class>  (3) 
unknown

>  <Cp0_value>  (3) 
unknown

>  <Cp0_units>  (3) 
unknown

>  <CpInf_value>  (3) 
unknown

>  <CpInf_units>  (3) 
unknown

>  <Tmin_value>  (3) 
unknown

>  <Tmin_units>  (3) 
unknown

>  <Tmax_value>  (3) 
unknown

>  <Tmax_units>  (3) 
unknown

>  <polynomials>  (3) 
unknown

>  <H298_value>  (3) 
unknown

>  <H298_units>  (3) 
unknown

>  <S298_value>  (3) 
unknown

>  <S298_units>  (3) 
unknown

>  <Cp_T_value_list>  (3) 
unknown

>  <Cp_T_units>  (3) 
unknown

>  <T_list>  (3) 
unknown

>  <T_units>  (3) 
unknown

>  <yaml_path>  (3) 
unknown

>  <frequencies_cm1>  (3) 
unknown

>  <ZPE_kJmol>  (3) 
unknown

>  <E_elec_kJmol>  (3) 
unknown

>  <E0_minus_Eelec_plus_ZPE_kJmol>  (3) 
unknown

>  <rxn>  (3) 
unknown

>  <species_type>  (3) 
unknown

>  <species_folder>  (3) 
unknown

>  <frequencies_cm1_list>  (3) 
[]

>  <ts_imag_freq_cm1>  (3) 
-2149.0583

>  <ts_freq_out_path>  (3) 
/home/calvin/Dropbox/PersonalFolders/Calvin/Kfir_HAb_Converged/kfir_rxn_7125/output/rxns/TS0/geometry/freq.out

>  <E0_kJmol>  (3) 
-4.79478e+06

>  <H298_kJmol>  (3) 
unknown

$$$$

     RDKit          3D

  6  5  0  0  0  0  0  0  0  0999 V2000
    2.0226    0.3485   -0.2250 O   0  0  0  0  0  0  0  0  0  1  0  0
    1.1426   -0.2224    0.2768 C   0  0  0  0  0  3  0  0  0  2  0  0
   -0.3802   -0.0566    0.0338 C   0  0  0  0  0  0  0  0  0  3  0  0
   -0.7412    1.1812   -1.1785 Cl  0  0  0  0  0  0  0  0  0  4  0  0
   -1.0794    0.3853    1.5956 Cl  0  0  0  0  0  0  0  0  0  5  0  0
   -0.9645   -1.6360   -0.5027 Cl  0  0  0  0  0  0  0  0  0  6  0  0
  1  2  1  0
  2  3  1  0
  3  4  1  0
  3  5  1  0
  3  6  1  0
M  RAD  1   2   2
M  END
>  <rmg_smiles>  (4) 
O[C]C(Cl)(Cl)Cl

>  <rmg_adjacency_list>  (4) 
multiplicity 2
1 Cl u0 p3 c0 {5,S}
2 Cl u0 p3 c0 {5,S}
3 Cl u0 p3 c0 {5,S}
4 O  u0 p2 c0 {6,S}
5 C  u0 p0 c0 {1,S} {2,S} {3,S} {6,S}
6 C  u1 p1 c0 {4,S} {5,S}


>  <multiplicity>  (4) 
2

>  <reaction>  (4) 
kfir_rxn_7125

>  <type>  (4) 
r1

>  <role_mapnums>  (4) 
{}

>  <role_mapidx>  (4) 
{}

>  <ordered_mapped_smiles>  (4) 
[OH:1][CH:2][C:3]([Cl:4])([Cl:5])[Cl:6]

>  <level_of_theory>  (4) 
wb97xd/def2tzvp

>  <lot_method>  (4) 
wb97xd

>  <lot_basis>  (4) 
def2tzvp

>  <spin_multiplicity>  (4) 
2.0

>  <optical_isomers>  (4) 
1.0

>  <modes>  (4) 
IdealGasTranslation(mass=(144.901, 'amu')),         NonlinearRotor(             inertia = ([274.842, 303.378, 325.828

>  <frequency_value>  (4) 
unknown

>  <frequency_units>  (4) 
unknown

>  <frequency_list>  (4) 
unknown

>  <arkane_path>  (4) 
/home/calvin/Dropbox/PersonalFolders/Calvin/Kfir_HAb_Converged/kfir_rxn_7125/output/Species/O=_C_C[Cl][Cl]Cl/arkane/output.py

>  <path_exists>  (4) 
True

>  <E0_value>  (4) 
-4018137.9537932007

>  <E0_units>  (4) 
kJ/mol

>  <thermo_class>  (4) 
NASA

>  <Cp0_value>  (4) 
33.257888

>  <Cp0_units>  (4) 
J/(mol*K)

>  <CpInf_value>  (4) 
128.874316

>  <CpInf_units>  (4) 
J/(mol*K)

>  <Tmin_value>  (4) 
10.0

>  <Tmin_units>  (4) 
K

>  <Tmax_value>  (4) 
3000.0

>  <Tmax_units>  (4) 
K

>  <polynomials>  (4) 
[{"name": "polynomial1", "class": "NASAPolynomial", "Tmin_value": 10.0, "Tmin_units": "K", "Tmax_value": 385.8069471265021, "Tmax_units": "K", "coeffs": [3.711877119047737, 0.022805600059874618, 0.00010175680127156508, -4.4284663724137326e-07, 4.517290734699594e-10, -483270371.4181099, 12.870715978509697]}, {"name": "polynomial2", "class": "NASAPolynomial", "Tmin_value": 385.8069471265021, "Tmin_units": "K", "Tmax_value": 3000.0, "Tmax_units": "K", "coeffs": [8.102587650004354, 0.014636043091212907, -1.1706336273655392e-05, 4.1630150233655466e-09, -5.419935314517002e-13, -483270988.20405763, -7.732874340678791]}]

>  <H298_value>  (4) 
-960353.3427360674

>  <H298_units>  (4) 
kcal/mol

>  <S298_value>  (4) 
84.09075851638019

>  <S298_units>  (4) 
cal/(mol*K)

>  <Cp_T_value_list>  (4) 
[22.68160844386871, 24.515270391626984, 25.794988453801338, 26.825104477919137, 28.275623574998708, 29.119164735232786, 29.855252179808073, 30.168879666620917, 30.539527074189383]

>  <Cp_T_units>  (4) 
cal/(mol*K)

>  <T_list>  (4) 
[300.0, 400.0, 500.0, 600.0, 800.0, 1000.0, 1500.0, 2000.0, 2400.0]

>  <T_units>  (4) 
K

>  <yaml_path>  (4) 
/home/calvin/Dropbox/PersonalFolders/Calvin/Kfir_HAb_Converged/kfir_rxn_7125/output/Species/O=_C_C[Cl][Cl]Cl/O=_C_CClClCl.yml

>  <frequencies_cm1>  (4) 
[179.5717131093316, 255.20475358096846, 262.079840388929, 312.12676914554424, 383.09845366510245, 444.0998834550917, 588.417387129075, 785.4792386763042, 821.8981407265794, 834.021925121616, 1972.784933524119]

>  <ZPE_kJmol>  (4) 
40.90501815180674

>  <E_elec_kJmol>  (4) 
-4018178.858811352

>  <E0_minus_Eelec_plus_ZPE_kJmol>  (4) 
0.0

>  <rxn>  (4) 
kfir_rxn_7125

>  <species_type>  (4) 
p1

>  <species_folder>  (4) 
O=_C_C[Cl][Cl]Cl

>  <frequencies_cm1_list>  (4) 
[179.5717131093316, 255.20475358096846, 262.079840388929, 312.12676914554424, 383.09845366510245, 444.0998834550917, 588.417387129075, 785.4792386763042, 821.8981407265794, 834.021925121616, 1972.784933524119]

>  <E0_kJmol>  (4) 
-4.01814e+06

>  <H298_kJmol>  (4) 
-4.01812e+06

$$$$

     RDKit          3D

  7  7  0  0  0  0  0  0  0  0999 V2000
   -1.6593    0.0222    0.2207 N   0  0  0  0  0  2  0  0  0  1  0  0
   -1.0243   -1.0789    0.0349 N   0  0  0  0  0  0  0  0  0  2  0  0
    0.2818   -1.1356   -0.1424 N   0  0  0  0  0  0  0  0  0  3  0  0
    0.9942   -0.0298   -0.1337 C   0  0  0  0  0  0  0  0  0  4  0  0
    0.2985    1.1587    0.0681 C   0  0  0  0  0  0  0  0  0  5  0  0
   -0.9530    1.1776    0.2348 N   0  0  0  0  0  0  0  0  0  6  0  0
    2.0621   -0.1142   -0.2823 H   0  0  0  0  0  0  0  0  0  7  0  0
  1  2  1  0
  1  6  1  0
  2  3  1  0
  3  4  1  0
  4  5  1  0
  4  7  1  0
  5  6  1  0
M  RAD  1   1   2
M  END
>  <rmg_smiles>  (5) 
[C]1[CH][N][N][N][N]1

>  <rmg_adjacency_list>  (5) 
multiplicity 2
1 N u0 p1 c0 {2,S} {5,S}
2 N u0 p1 c0 {1,S} {4,S}
3 N u0 p1 c0 {4,S} {6,S}
4 N u1 p1 c0 {2,S} {3,S}
5 C u0 p0 c0 {1,S} {6,S} {7,S}
6 C u0 p1 c0 {3,S} {5,S}
7 H u0 p0 c0 {5,S}


>  <multiplicity>  (5) 
2

>  <reaction>  (5) 
kfir_rxn_7125

>  <type>  (5) 
r2

>  <role_mapnums>  (5) 
{}

>  <role_mapidx>  (5) 
{}

>  <ordered_mapped_smiles>  (5) 
[N:1]1[NH:2][NH:3][CH:4]([H:7])[CH2:5][NH:6]1

>  <level_of_theory>  (5) 
wb97xd/def2tzvp

>  <lot_method>  (5) 
wb97xd

>  <lot_basis>  (5) 
def2tzvp

>  <spin_multiplicity>  (5) 
2.0

>  <optical_isomers>  (5) 
1.0

>  <modes>  (5) 
IdealGasTranslation(mass=(81.0201, 'amu')),         NonlinearRotor(             inertia = ([69.1246, 76.3469, 145.471

>  <frequency_value>  (5) 
unknown

>  <frequency_units>  (5) 
unknown

>  <frequency_list>  (5) 
unknown

>  <arkane_path>  (5) 
/home/calvin/Dropbox/PersonalFolders/Calvin/Kfir_HAb_Converged/kfir_rxn_7125/output/Species/_N-_1N=NC=C=_Np_1/arkane/output.py

>  <path_exists>  (5) 
True

>  <E0_value>  (5) 
-775069.204882763

>  <E0_units>  (5) 
kJ/mol

>  <thermo_class>  (5) 
NASA

>  <Cp0_value>  (5) 
33.257888

>  <Cp0_units>  (5) 
J/(mol*K)

>  <CpInf_value>  (5) 
157.97496800000002

>  <CpInf_units>  (5) 
J/(mol*K)

>  <Tmin_value>  (5) 
10.0

>  <Tmin_units>  (5) 
K

>  <Tmax_value>  (5) 
3000.0

>  <Tmax_units>  (5) 
K

>  <polynomials>  (5) 
[{"name": "polynomial1", "class": "NASAPolynomial", "Tmin_value": 10.0, "Tmin_units": "K", "Tmax_value": 604.1540064166949, "Tmax_units": "K", "coeffs": [4.049777406768175, -0.005040883612894741, 0.00011375934092195722, -1.9790239988348584e-07, 1.0742194044826697e-10, -93219291.50320889, 10.12222584922144]}, {"name": "polynomial2", "class": "NASAPolynomial", "Tmin_value": 604.1540064166949, "Tmin_units": "K", "Tmax_value": 3000.0, "Tmax_units": "K", "coeffs": [2.2917158420111132, 0.02753714937736595, -1.9111354676876516e-05, 6.0812445118214385e-09, -7.244401341212595e-13, -93219461.19969699, 14.555447749489792]}]

>  <H298_value>  (5) 
-185242.70951867657

>  <H298_units>  (5) 
kcal/mol

>  <S298_value>  (5) 
69.9679422845638

>  <S298_units>  (5) 
cal/(mol*K)

>  <Cp_T_value_list>  (5) 
[16.498992472320342, 20.50631493618184, 23.737662803096455, 26.13886990620896, 29.623356587385604, 31.94298310783728, 34.68393507382059, 35.728998833814686, 36.428298209656326]

>  <Cp_T_units>  (5) 
cal/(mol*K)

>  <T_list>  (5) 
[300.0, 400.0, 500.0, 600.0, 800.0, 1000.0, 1500.0, 2000.0, 2400.0]

>  <T_units>  (5) 
K

>  <yaml_path>  (5) 
/home/calvin/Dropbox/PersonalFolders/Calvin/Kfir_HAb_Converged/kfir_rxn_7125/output/Species/_N-_1N=NC=C=_Np_1/_N-_1N=NC=C=_Np_1.yml

>  <frequencies_cm1>  (5) 
[277.33693611884, 336.98357060836, 556.1708750374399, 710.53383804572, 785.39771200436, 801.52139353572, 944.9315149585999, 1000.78757355148, 1070.27459800456, 1139.1435937788399, 1194.05887538288, 1339.6458311521997, 1455.44380460336, 1661.4533642033598, 3194.8031172621195]

>  <ZPE_kJmol>  (5) 
98.50345294469771

>  <E_elec_kJmol>  (5) 
-775167.7083357077

>  <E0_minus_Eelec_plus_ZPE_kJmol>  (5) 
0.0

>  <rxn>  (5) 
kfir_rxn_7125

>  <species_type>  (5) 
r0

>  <species_folder>  (5) 
_N-_1N=NC=C=_Np_1

>  <frequencies_cm1_list>  (5) 
[277.33693611884, 336.98357060836, 556.1708750374399, 710.53383804572, 785.39771200436, 801.52139353572, 944.9315149585999, 1000.78757355148, 1070.27459800456, 1139.1435937788399, 1194.05887538288, 1339.6458311521997, 1455.44380460336, 1661.4533642033598, 3194.8031172621195]

>  <E0_kJmol>  (5) 
-775069

>  <H298_kJmol>  (5) 
-775055

$$$$
