
     RDKit          3D

  7  7  0  0  0  0  0  0  0  0999 V2000
   -0.2481   -0.9564   -0.5846 C   0  0  0  0  0  0  0  0  0  1  0  0
   -0.2773   -0.8218    0.7563 C   0  0  0  0  0  0  0  0  0  2  0  0
    0.0859    0.4457    1.0586 N   0  0  0  0  0  0  0  0  0  3  0  0
    0.3161    1.0827    0.0020 N   0  0  0  0  0  0  0  0  0  4  0  0
    0.1108    0.2173   -1.0839 O   0  0  0  0  0  0  0  0  0  5  0  0
   -0.4529   -1.7737   -1.2521 H   0  0  0  0  0  0  0  0  0  6  0  0
   -0.5671   -1.5638    1.5003 H   0  0  0  0  0  0  0  0  0  7  0  0
  1  5  1  0
  1  6  1  0
  1  2  1  0
  2  3  1  0
  2  7  1  0
  3  4  1  0
  4  5  1  0
M  END
>  <rmg_smiles>  (1) 
[CH]1[CH][N][N]O1

>  <rmg_adjacency_list>  (1) 
1 O u0 p2 c0 {3,S} {4,S}
2 N u0 p1 c0 {3,S} {5,S}
3 N u0 p1 c0 {1,S} {2,S}
4 C u0 p0 c0 {1,S} {5,S} {6,S}
5 C u0 p0 c0 {2,S} {4,S} {7,S}
6 H u0 p0 c0 {4,S}
7 H u0 p0 c0 {5,S}


>  <multiplicity>  (1) 
1

>  <reaction>  (1) 
kfir_rxn_8057

>  <type>  (1) 
r1h

>  <role_mapnums>  (1) 
{"r1h_a": 2, "r1h_h": 7}

>  <role_mapidx>  (1) 
{"r1h_a": 1, "r1h_h": 6}

>  <ordered_mapped_smiles>  (1) 
[CH:1]1([H:6])[CH:2]([H:7])[NH:3][NH:4][O:5]1

>  <mol_properties>  (1) 
{"1": {"label": "donator", "atom_type": "Cs"}, "6": {"label": "d_hydrogen", "atom_type": "H0"}}

>  <level_of_theory>  (1) 
wb97xd/def2tzvp

>  <lot_method>  (1) 
wb97xd

>  <lot_basis>  (1) 
def2tzvp

>  <spin_multiplicity>  (1) 
1.0

>  <optical_isomers>  (1) 
1.0

>  <modes>  (1) 
IdealGasTranslation(mass=(70.0167, 'amu')),         NonlinearRotor(             inertia = ([47.9204, 50.131, 98.0515

>  <frequency_value>  (1) 
unknown

>  <frequency_units>  (1) 
unknown

>  <frequency_list>  (1) 
unknown

>  <arkane_path>  (1) 
/home/calvin/Dropbox/PersonalFolders/Calvin/Kfir_HAb_Converged/kfir_rxn_8057/output/Species/c1cnno1/arkane/output.py

>  <path_exists>  (1) 
True

>  <E0_value>  (1) 
-687959.8752202529

>  <E0_units>  (1) 
kJ/mol

>  <thermo_class>  (1) 
NASA

>  <Cp0_value>  (1) 
33.257888

>  <Cp0_units>  (1) 
J/(mol*K)

>  <CpInf_value>  (1) 
157.97496800000002

>  <CpInf_units>  (1) 
J/(mol*K)

>  <Tmin_value>  (1) 
10.0

>  <Tmin_units>  (1) 
K

>  <Tmax_value>  (1) 
3000.0

>  <Tmax_units>  (1) 
K

>  <polynomials>  (1) 
[{"name": "polynomial1", "class": "NASAPolynomial", "Tmin_value": 10.0, "Tmin_units": "K", "Tmax_value": 669.8598169077402, "Tmax_units": "K", "coeffs": [4.180153139723595, -0.01392578844591285, 0.00012362431829660388, -1.842494042463724e-07, 8.836917462926416e-11, -82742462.7573681, 8.642616438081282]}, {"name": "polynomial2", "class": "NASAPolynomial", "Tmin_value": 669.8598169077402, "Tmin_units": "K", "Tmax_value": 3000.0, "Tmax_units": "K", "coeffs": [0.8742819187988194, 0.027639386752753504, -1.8322564953612285e-05, 5.658917048820619e-09, -6.593052701905011e-13, -82742509.50925875, 19.612076147772548]}]

>  <H298_value>  (1) 
-164423.5854632564

>  <H298_units>  (1) 
kcal/mol

>  <S298_value>  (1) 
64.27727627661855

>  <S298_units>  (1) 
cal/(mol*K)

>  <Cp_T_value_list>  (1) 
[13.651436295194586, 17.606684747297436, 21.094666732493078, 23.81509678900734, 27.595668661457704, 30.187088588957614, 33.52159628760949, 34.94551850539866, 35.82046777377004]

>  <Cp_T_units>  (1) 
cal/(mol*K)

>  <T_list>  (1) 
[300.0, 400.0, 500.0, 600.0, 800.0, 1000.0, 1500.0, 2000.0, 2400.0]

>  <T_units>  (1) 
K

>  <yaml_path>  (1) 
/home/calvin/Dropbox/PersonalFolders/Calvin/Kfir_HAb_Converged/kfir_rxn_8057/output/Species/c1cnno1/c1cnno1.yml

>  <frequencies_cm1>  (1) 
[632.1334666472799, 706.8600008995198, 707.986186492, 814.64420248224, 898.8540434614, 953.0208236655599, 992.1832409455199, 1104.5889236485998, 1145.6191609356, 1165.16946814164, 1382.6400262407199, 1456.87900453524, 1567.44433517256, 3259.6961285361194, 3281.88335810504]

>  <ZPE_kJmol>  (1) 
120.04291474320804

>  <E_elec_kJmol>  (1) 
-688079.9181349961

>  <E0_minus_Eelec_plus_ZPE_kJmol>  (1) 
0.0

>  <rxn>  (1) 
kfir_rxn_8057

>  <species_type>  (1) 
r1

>  <species_folder>  (1) 
c1cnno1

>  <frequencies_cm1_list>  (1) 
[632.1334666472799, 706.8600008995198, 707.986186492, 814.64420248224, 898.8540434614, 953.0208236655599, 992.1832409455199, 1104.5889236485998, 1145.6191609356, 1165.16946814164, 1382.6400262407199, 1456.87900453524, 1567.44433517256, 3259.6961285361194, 3281.88335810504]

>  <E0_kJmol>  (1) 
-687960

>  <H298_kJmol>  (1) 
-687948

$$$$

     RDKit          3D

  8  7  0  0  0  0  0  0  0  0999 V2000
   -0.5182    1.4854    0.3185 N   0  0  0  0  0  0  0  0  0  1  0  0
   -0.1942    0.3210   -0.3385 C   0  0  0  0  0  0  0  0  0  2  0  0
   -0.4257    0.1360   -1.5722 N   0  0  0  0  0  0  0  0  0  3  0  0
    0.3753   -0.7081    0.5249 C   0  0  0  0  0  2  0  0  0  4  0  0
    0.8347   -1.5282    1.1825 N   0  0  0  0  0  0  0  0  0  5  0  0
    0.1079    1.7161    1.0838 H   0  0  0  0  0  0  0  0  0  6  0  0
   -0.1938   -0.8079   -1.8609 H   0  0  0  0  0  0  0  0  0  7  0  0
   -0.5473    2.2630   -0.3336 H   0  0  0  0  0  0  0  0  0  8  0  0
  1  2  1  0
  1  8  1  0
  1  6  1  0
  2  3  1  0
  2  4  1  0
  3  7  1  0
  4  5  1  0
M  RAD  1   4   3
M  END
>  <rmg_smiles>  (2) 
[N][C][C](N)[NH]

>  <rmg_adjacency_list>  (2) 
1 N u0 p1 c0 {4,S} {6,S} {7,S}
2 N u0 p1 c0 {4,S} {8,S}
3 N u0 p2 c0 {5,S}
4 C u0 p0 c0 {1,S} {2,S} {5,S}
5 C u0 p1 c0 {3,S} {4,S}
6 H u0 p0 c0 {1,S}
7 H u0 p0 c0 {1,S}
8 H u0 p0 c0 {2,S}


>  <multiplicity>  (2) 
1

>  <reaction>  (2) 
kfir_rxn_8057

>  <type>  (2) 
r2h

>  <role_mapnums>  (2) 
{"r2h_a": 1, "r2h_h": 8}

>  <role_mapidx>  (2) 
{"r2h_a": 0, "r2h_h": 7}

>  <ordered_mapped_smiles>  (2) 
[N:1]([CH:2]([NH:3][H:7])[C:4][NH2:5])([H:6])[H:8]

>  <mol_properties>  (2) 
{"0": {"label": "acceptor", "atom_type": "N3s"}, "7": {"label": "a_hydrogen", "atom_type": "H0"}}

>  <level_of_theory>  (2) 
wb97xd/def2tzvp

>  <lot_method>  (2) 
wb97xd

>  <lot_basis>  (2) 
def2tzvp

>  <spin_multiplicity>  (2) 
1.0

>  <optical_isomers>  (2) 
2.0

>  <modes>  (2) 
IdealGasTranslation(mass=(69.0327, 'amu')),         NonlinearRotor(             inertia = ([46.6175, 116.797, 163.287

>  <frequency_value>  (2) 
unknown

>  <frequency_units>  (2) 
unknown

>  <frequency_list>  (2) 
unknown

>  <arkane_path>  (2) 
/home/calvin/Dropbox/PersonalFolders/Calvin/Kfir_HAb_Converged/kfir_rxn_8057/output/Species/NC[=N]CtN/arkane/output.py

>  <path_exists>  (2) 
True

>  <E0_value>  (2) 
-635884.7532585264

>  <E0_units>  (2) 
kJ/mol

>  <thermo_class>  (2) 
NASA

>  <Cp0_value>  (2) 
33.257888

>  <Cp0_units>  (2) 
J/(mol*K)

>  <CpInf_value>  (2) 
182.918384

>  <CpInf_units>  (2) 
J/(mol*K)

>  <Tmin_value>  (2) 
10.0

>  <Tmin_units>  (2) 
K

>  <Tmax_value>  (2) 
3000.0

>  <Tmax_units>  (2) 
K

>  <polynomials>  (2) 
[{"name": "polynomial1", "class": "NASAPolynomial", "Tmin_value": 10.0, "Tmin_units": "K", "Tmax_value": 482.4060172086648, "Tmax_units": "K", "coeffs": [3.8932574298809484, 0.007018265938798659, 0.00010126817024787153, -2.4630865107407723e-07, 1.7645657677036953e-10, -76479267.87740654, 9.824031309423749]}, {"name": "polynomial2", "class": "NASAPolynomial", "Tmin_value": 482.4060172086648, "Tmin_units": "K", "Tmax_value": 3000.0, "Tmax_units": "K", "coeffs": [4.488911281080139, 0.023185186975495053, -1.4628602792732031e-05, 4.550431369692799e-09, -5.48500235680113e-13, -76479570.93091585, 4.83915023718555]}]

>  <H298_value>  (2) 
-151976.19851564566

>  <H298_units>  (2) 
kcal/mol

>  <S298_value>  (2) 
73.06439436476808

>  <S298_units>  (2) 
cal/(mol*K)

>  <Cp_T_value_list>  (2) 
[19.657123243235215, 23.164877591469438, 25.75196407723299, 27.911376486724496, 31.357940211196535, 33.876756959829756, 37.62429515100465, 39.68912662281564, 40.89641125455259]

>  <Cp_T_units>  (2) 
cal/(mol*K)

>  <T_list>  (2) 
[300.0, 400.0, 500.0, 600.0, 800.0, 1000.0, 1500.0, 2000.0, 2400.0]

>  <T_units>  (2) 
K

>  <yaml_path>  (2) 
/home/calvin/Dropbox/PersonalFolders/Calvin/Kfir_HAb_Converged/kfir_rxn_8057/output/Species/NC[=N]CtN/NC=NCtN.yml

>  <frequencies_cm1>  (2) 
[198.4902106746, 274.7824175798, 289.86918432783995, 467.0923414664, 489.05982750508, 614.64325503724, 713.97419769104, 788.7144659139199, 829.3532850376799, 1117.8765402428, 1141.0663496684401, 1410.0667656088, 1614.9020707190798, 1716.12143433588, 2357.779409622, 3538.5025995134397, 3586.50969388556, 3715.8836973143593]

>  <ZPE_kJmol>  (2) 
148.72390275664324

>  <E_elec_kJmol>  (2) 
-636033.4771612831

>  <E0_minus_Eelec_plus_ZPE_kJmol>  (2) 
0.0

>  <rxn>  (2) 
kfir_rxn_8057

>  <species_type>  (2) 
p0

>  <species_folder>  (2) 
NC[=N]CtN

>  <frequencies_cm1_list>  (2) 
[198.4902106746, 274.7824175798, 289.86918432783995, 467.0923414664, 489.05982750508, 614.64325503724, 713.97419769104, 788.7144659139199, 829.3532850376799, 1117.8765402428, 1141.0663496684401, 1410.0667656088, 1614.9020707190798, 1716.12143433588, 2357.779409622, 3538.5025995134397, 3586.50969388556, 3715.8836973143593]

>  <E0_kJmol>  (2) 
-635885

>  <H298_kJmol>  (2) 
-635868

$$$$

     RDKit          3D

 14 13  0  0  0  0  0  0  0  0999 V2000
   -0.4760   -0.6137    1.3776 N   0  0  0  0  0  0  0  0  0  1  0  0
   -0.1519   -1.7780    0.7206 C   0  0  0  0  0  0  0  0  0  2  0  0
   -0.3835   -1.9630   -0.5131 N   0  0  0  0  0  0  0  0  0  3  0  0
    0.4175   -2.8071    1.5840 C   0  0  0  0  0  0  0  0  0  4  0  0
    0.8769   -3.6272    2.2416 N   0  0  0  0  0  0  0  0  0  5  0  0
    0.1501   -0.3829    2.1429 H   0  0  0  0  0  0  0  0  0  6  0  0
   -0.1515   -2.9070   -0.8019 H   0  0  0  0  0  0  0  0  0  7  0  0
   -0.1237    1.0877   -1.6532 C   0  0  0  0  0  0  0  0  0  8  0  0
   -0.1529    1.2223   -0.3122 C   0  0  0  0  0  0  0  0  0  9  0  0
    0.2103    2.4898   -0.0100 N   0  0  0  0  0  0  0  0  0 10  0  0
    0.4405    3.1269   -1.0666 N   0  0  0  0  0  2  0  0  0 11  0  0
    0.2351    2.2614   -2.1525 O   0  0  0  0  0  0  0  0  0 12  0  0
   -0.3285    0.2704   -2.3207 H   0  0  0  0  0  0  0  0  0 13  0  0
   -0.5104    0.3069    0.6057 H   0  0  0  0  0  0  0  0  0 14  0  0
  1  2  1  0
  1 14  1  0
  1  6  1  0
  2  3  1  0
  2  4  1  0
  3  7  1  0
  4  5  1  0
  8  9  1  0
  8 13  1  0
  8 12  1  0
  9 10  1  0
 10 11  1  0
 11 12  1  0
M  RAD  1  11   2
M  END
>  <rmg_smiles>  (3) 
[CH]1[C][N][N]O1.[N][C][C](N)[NH]

>  <rmg_adjacency_list>  (3) 
multiplicity 2
1  O u0 p2 c0 {3,S} {8,S}
2  N u0 p1 c0 {7,S} {11,S} {13,S}
3  N u1 p1 c0 {1,S} {5,S}
4  N u0 p1 c0 {7,S} {14,S}
5  N u0 p1 c0 {3,S} {9,S}
6  N u0 p2 c0 {10,S}
7  C u0 p0 c0 {2,S} {4,S} {10,S}
8  C u0 p0 c0 {1,S} {9,S} {12,S}
9  C u0 p1 c0 {5,S} {8,S}
10 C u0 p1 c0 {6,S} {7,S}
11 H u0 p0 c0 {2,S}
12 H u0 p0 c0 {8,S}
13 H u0 p0 c0 {2,S}
14 H u0 p0 c0 {4,S}


>  <multiplicity>  (3) 
2

>  <reaction>  (3) 
kfir_rxn_8057

>  <type>  (3) 
ts

>  <role_mapnums>  (3) 
{"*2": 14, "*1": 1, "*3": 9, "*0": 2, "*4": 8}

>  <role_mapidx>  (3) 
{"*2": 13, "*1": 0, "*3": 8, "*0": 1, "*4": 7}

>  <ordered_mapped_smiles>  (3) 
[N:1]([CH:2]([NH:3][H:7])[CH2:4][NH2:5])([H:6])[H:14].[CH:8]1([H:13])[CH2:9][NH:10][N:11][O:12]1

>  <mol_properties>  (3) 
{"0": {"label": "*1", "atom_type": "N3s"}, "1": {"label": "*0", "atom_type": "Cs"}, "7": {"label": "*4", "atom_type": "Cs"}, "8": {"label": "*3", "atom_type": "C2s"}, "13": {"label": "*2", "atom_type": "H0"}}

>  <level_of_theory>  (3) 
wb97xd/def2tzvp

>  <lot_method>  (3) 
wb97xd

>  <lot_basis>  (3) 
def2tzvp

>  <spin_multiplicity>  (3) 
2.0

>  <optical_isomers>  (3) 
2.0

>  <modes>  (3) 
IdealGasTranslation(mass=(138.042, 'amu')),         NonlinearRotor(             inertia = ([119.507, 917.87, 996.253

>  <frequency_value>  (3) 
-1747.66

>  <frequency_units>  (3) 
cm^-1

>  <frequency_list>  (3) 
unknown

>  <arkane_path>  (3) 
/home/calvin/Dropbox/PersonalFolders/Calvin/Kfir_HAb_Converged/kfir_rxn_8057/output/rxns/TS0/arkane/output.py

>  <path_exists>  (3) 
True

>  <E0_value>  (3) 
-1322010.0

>  <E0_units>  (3) 
kJ/mol

>  <thermo_class>  (3) 
unknown

>  <Cp0_value>  (3) 
unknown

>  <Cp0_units>  (3) 
unknown

>  <CpInf_value>  (3) 
unknown

>  <CpInf_units>  (3) 
unknown

>  <Tmin_value>  (3) 
unknown

>  <Tmin_units>  (3) 
unknown

>  <Tmax_value>  (3) 
unknown

>  <Tmax_units>  (3) 
unknown

>  <polynomials>  (3) 
unknown

>  <H298_value>  (3) 
unknown

>  <H298_units>  (3) 
unknown

>  <S298_value>  (3) 
unknown

>  <S298_units>  (3) 
unknown

>  <Cp_T_value_list>  (3) 
unknown

>  <Cp_T_units>  (3) 
unknown

>  <T_list>  (3) 
unknown

>  <T_units>  (3) 
unknown

>  <yaml_path>  (3) 
unknown

>  <frequencies_cm1>  (3) 
unknown

>  <ZPE_kJmol>  (3) 
unknown

>  <E_elec_kJmol>  (3) 
unknown

>  <E0_minus_Eelec_plus_ZPE_kJmol>  (3) 
unknown

>  <rxn>  (3) 
unknown

>  <species_type>  (3) 
unknown

>  <species_folder>  (3) 
unknown

>  <frequencies_cm1_list>  (3) 
[]

>  <ts_imag_freq_cm1>  (3) 
-1768.8839

>  <ts_freq_out_path>  (3) 
/home/calvin/Dropbox/PersonalFolders/Calvin/Kfir_HAb_Converged/kfir_rxn_8057/output/rxns/TS0/geometry/freq.out

>  <E0_kJmol>  (3) 
-1.32201e+06

>  <H298_kJmol>  (3) 
unknown

$$$$

     RDKit          3D

  6  6  0  0  0  0  0  0  0  0999 V2000
    0.0386   -1.0088    0.4815 O   0  0  0  0  0  0  0  0  0  1  0  0
    0.7697    0.0937    0.3366 C   0  0  0  0  0  0  0  0  0  2  0  0
   -0.0658    1.0411   -0.1302 C   0  0  0  0  0  0  0  0  0  3  0  0
   -1.2887    0.5155   -0.2655 N   0  0  0  0  0  0  0  0  0  4  0  0
   -1.2664   -0.6950    0.0866 N   0  0  0  0  0  2  0  0  0  5  0  0
    1.8127    0.0534    0.5920 H   0  0  0  0  0  0  0  0  0  6  0  0
  1  5  1  0
  1  2  1  0
  2  6  1  0
  2  3  1  0
  3  4  1  0
  4  5  1  0
M  RAD  1   5   2
M  END
>  <rmg_smiles>  (4) 
[CH]1[C][N][N]O1

>  <rmg_adjacency_list>  (4) 
multiplicity 2
1 O u0 p2 c0 {2,S} {4,S}
2 N u1 p1 c0 {1,S} {3,S}
3 N u0 p1 c0 {2,S} {5,S}
4 C u0 p0 c0 {1,S} {5,S} {6,S}
5 C u0 p1 c0 {3,S} {4,S}
6 H u0 p0 c0 {4,S}


>  <multiplicity>  (4) 
2

>  <reaction>  (4) 
kfir_rxn_8057

>  <type>  (4) 
r1

>  <role_mapnums>  (4) 
{}

>  <role_mapidx>  (4) 
{}

>  <ordered_mapped_smiles>  (4) 
[O:1]1[CH:2]([H:6])[CH2:3][NH:4][N:5]1

>  <level_of_theory>  (4) 
wb97xd/def2tzvp

>  <lot_method>  (4) 
wb97xd

>  <lot_basis>  (4) 
def2tzvp

>  <spin_multiplicity>  (4) 
2.0

>  <optical_isomers>  (4) 
1.0

>  <modes>  (4) 
IdealGasTranslation(mass=(69.0089, 'amu')),         NonlinearRotor(             inertia = ([42.1346, 50.3399, 92.4744

>  <frequency_value>  (4) 
unknown

>  <frequency_units>  (4) 
unknown

>  <frequency_list>  (4) 
unknown

>  <arkane_path>  (4) 
/home/calvin/Dropbox/PersonalFolders/Calvin/Kfir_HAb_Converged/kfir_rxn_8057/output/Species/O1C=_C_N=N1/arkane/output.py

>  <path_exists>  (4) 
True

>  <E0_value>  (4) 
-686138.0887165358

>  <E0_units>  (4) 
kJ/mol

>  <thermo_class>  (4) 
NASA

>  <Cp0_value>  (4) 
33.257888

>  <Cp0_units>  (4) 
J/(mol*K)

>  <CpInf_value>  (4) 
133.031552

>  <CpInf_units>  (4) 
J/(mol*K)

>  <Tmin_value>  (4) 
10.0

>  <Tmin_units>  (4) 
K

>  <Tmax_value>  (4) 
3000.0

>  <Tmax_units>  (4) 
K

>  <polynomials>  (4) 
[{"name": "polynomial1", "class": "NASAPolynomial", "Tmin_value": 10.0, "Tmin_units": "K", "Tmax_value": 666.8255712486186, "Tmax_units": "K", "coeffs": [4.1499134977691625, -0.011726259839366971, 0.00010765691927606585, -1.634883163863059e-07, 7.943745583062247e-11, -82523351.89212316, 9.22429220532935]}, {"name": "polynomial2", "class": "NASAPolynomial", "Tmin_value": 666.8255712486186, "Tmin_units": "K", "Tmax_value": 3000.0, "Tmax_units": "K", "coeffs": [1.6601719184838861, 0.023203413633293226, -1.5893660526287337e-05, 4.999646064428933e-09, -5.890145143684456e-13, -82523464.38782533, 16.893687869675343]}]

>  <H298_value>  (4) 
-163988.1976621321

>  <H298_units>  (4) 
kcal/mol

>  <S298_value>  (4) 
65.3134081445058

>  <S298_units>  (4) 
cal/(mol*K)

>  <Cp_T_value_list>  (4) 
[13.017031505907541, 16.404117948155424, 19.335151299624677, 21.565694478772972, 24.580787632928793, 26.589929013343344, 29.00621134790465, 29.937848914646434, 30.551112534101613]

>  <Cp_T_units>  (4) 
cal/(mol*K)

>  <T_list>  (4) 
[300.0, 400.0, 500.0, 600.0, 800.0, 1000.0, 1500.0, 2000.0, 2400.0]

>  <T_units>  (4) 
K

>  <yaml_path>  (4) 
/home/calvin/Dropbox/PersonalFolders/Calvin/Kfir_HAb_Converged/kfir_rxn_8057/output/Species/O1C=_C_N=N1/O1C=_C_N=N1.yml

>  <frequencies_cm1>  (4) 
[591.95473553996, 695.1861258555199, 732.7554025412398, 841.83059736412, 900.5364548648, 976.8629966965999, 1120.6645362827198, 1169.3102602896, 1306.1761447025199, 1384.70012183672, 1506.70585001716, 3281.87649111972]

>  <ZPE_kJmol>  (4) 
86.78048349274563

>  <E_elec_kJmol>  (4) 
-686224.8692000286

>  <E0_minus_Eelec_plus_ZPE_kJmol>  (4) 
0.0

>  <rxn>  (4) 
kfir_rxn_8057

>  <species_type>  (4) 
p1

>  <species_folder>  (4) 
O1C=_C_N=N1

>  <frequencies_cm1_list>  (4) 
[591.95473553996, 695.1861258555199, 732.7554025412398, 841.83059736412, 900.5364548648, 976.8629966965999, 1120.6645362827198, 1169.3102602896, 1306.1761447025199, 1384.70012183672, 1506.70585001716, 3281.87649111972]

>  <E0_kJmol>  (4) 
-686138

>  <H298_kJmol>  (4) 
-686127

$$$$

     RDKit          3D

  7  6  0  0  0  0  0  0  0  0999 V2000
   -0.7275    1.0670   -0.1727 N   0  0  0  0  0  0  0  0  0  1  0  0
   -0.1657   -0.1205   -0.0568 C   0  0  0  0  0  0  0  0  0  2  0  0
   -0.8152   -1.2421   -0.3106 N   0  0  0  0  0  2  0  0  0  3  0  0
    1.2245   -0.2499    0.3650 C   0  0  0  0  0  0  0  0  0  4  0  0
    2.3205   -0.2835    0.7007 N   0  0  0  0  0  0  0  0  0  5  0  0
   -0.0719    1.8120    0.0648 H   0  0  0  0  0  0  0  0  0  6  0  0
   -1.7647   -0.9830   -0.5904 H   0  0  0  0  0  0  0  0  0  7  0  0
  1  2  1  0
  1  6  1  0
  2  3  1  0
  2  4  1  0
  3  7  1  0
  4  5  1  0
M  RAD  1   3   2
M  END
>  <rmg_smiles>  (5) 
[N][C][C]([NH])[NH]

>  <rmg_adjacency_list>  (5) 
multiplicity 2
1 N u1 p1 c0 {4,S} {7,S}
2 N u0 p1 c0 {4,S} {6,S}
3 N u0 p2 c0 {5,S}
4 C u0 p0 c0 {1,S} {2,S} {5,S}
5 C u0 p1 c0 {3,S} {4,S}
6 H u0 p0 c0 {2,S}
7 H u0 p0 c0 {1,S}


>  <multiplicity>  (5) 
2

>  <reaction>  (5) 
kfir_rxn_8057

>  <type>  (5) 
r2

>  <role_mapnums>  (5) 
{}

>  <role_mapidx>  (5) 
{}

>  <ordered_mapped_smiles>  (5) 
[NH:1]([CH:2]([N:3][H:7])[CH2:4][NH2:5])[H:6]

>  <level_of_theory>  (5) 
wb97xd/def2tzvp

>  <lot_method>  (5) 
wb97xd

>  <lot_basis>  (5) 
def2tzvp

>  <spin_multiplicity>  (5) 
2.0

>  <optical_isomers>  (5) 
1.0

>  <modes>  (5) 
IdealGasTranslation(mass=(68.0249, 'amu')),         NonlinearRotor(             inertia = ([42.2596, 116.84, 159.099

>  <frequency_value>  (5) 
unknown

>  <frequency_units>  (5) 
unknown

>  <frequency_list>  (5) 
unknown

>  <arkane_path>  (5) 
/home/calvin/Dropbox/PersonalFolders/Calvin/Kfir_HAb_Converged/kfir_rxn_8057/output/Species/_NH_C[=N]CtN/arkane/output.py

>  <path_exists>  (5) 
True

>  <E0_value>  (5) 
-634143.5071034838

>  <E0_units>  (5) 
kJ/mol

>  <thermo_class>  (5) 
NASA

>  <Cp0_value>  (5) 
33.257888

>  <Cp0_units>  (5) 
J/(mol*K)

>  <CpInf_value>  (5) 
149.660496

>  <CpInf_units>  (5) 
J/(mol*K)

>  <Tmin_value>  (5) 
10.0

>  <Tmin_units>  (5) 
K

>  <Tmax_value>  (5) 
3000.0

>  <Tmax_units>  (5) 
K

>  <polynomials>  (5) 
[{"name": "polynomial1", "class": "NASAPolynomial", "Tmin_value": 10.0, "Tmin_units": "K", "Tmax_value": 587.4502545349342, "Tmax_units": "K", "coeffs": [3.9147139289985002, 0.004907564028706929, 8.98431212674876e-05, -1.771914159075919e-07, 1.0227028175931317e-10, -76269842.56129368, 9.514961864583602]}, {"name": "polynomial2", "class": "NASAPolynomial", "Tmin_value": 587.4502545349342, "Tmin_units": "K", "Tmax_value": 3000.0, "Tmax_units": "K", "coeffs": [3.380869717082675, 0.028549843597974005, -2.1612019877003915e-05, 7.2689163720733554e-09, -9.027247246012522e-13, -76270125.06346154, 8.868144272973334]}]

>  <H298_value>  (5) 
-151560.1994754292

>  <H298_units>  (5) 
kcal/mol

>  <S298_value>  (5) 
71.35603614315792

>  <S298_units>  (5) 
cal/(mol*K)

>  <Cp_T_value_list>  (5) 
[18.91241338967486, 22.91349953929671, 25.97724404944733, 28.185625939377907, 31.28057979347242, 33.15631210965921, 34.857865908530485, 35.25346618062066, 35.67138997056379]

>  <Cp_T_units>  (5) 
cal/(mol*K)

>  <T_list>  (5) 
[300.0, 400.0, 500.0, 600.0, 800.0, 1000.0, 1500.0, 2000.0, 2400.0]

>  <T_units>  (5) 
K

>  <yaml_path>  (5) 
/home/calvin/Dropbox/PersonalFolders/Calvin/Kfir_HAb_Converged/kfir_rxn_8057/output/Species/_NH_C[=N]CtN/_NH_C=NCtN.yml

>  <frequencies_cm1>  (5) 
[208.56113164841304, 338.66630168904203, 492.6269663867833, 618.7554385159925, 682.0664203263558, 802.6686044212348, 1092.0943256865937, 1181.4196113164, 1264.1096769143348, 1462.8979937620793, 2360.975391911744, 3428.156780585902, 3453.318265268821]

>  <ZPE_kJmol>  (5) 
103.99329891392172

>  <E_elec_kJmol>  (5) 
-634247.5004023977

>  <E0_minus_Eelec_plus_ZPE_kJmol>  (5) 
0.0

>  <rxn>  (5) 
kfir_rxn_8057

>  <species_type>  (5) 
r0

>  <species_folder>  (5) 
_NH_C[=N]CtN

>  <frequencies_cm1_list>  (5) 
[208.56113164841304, 338.66630168904203, 492.6269663867833, 618.7554385159925, 682.0664203263558, 802.6686044212348, 1092.0943256865937, 1181.4196113164, 1264.1096769143348, 1462.8979937620793, 2360.975391911744, 3428.156780585902, 3453.318265268821]

>  <E0_kJmol>  (5) 
-634144

>  <H298_kJmol>  (5) 
-634128

$$$$
