
     RDKit          3D

  7  6  0  0  0  0  0  0  0  0999 V2000
    1.5053   -1.7182   -0.7875 O   0  0  0  0  0  0  0  0  0  1  0  0
    0.7012   -1.3868   -0.0026 C   0  0  0  0  0  0  0  0  0  2  0  0
   -0.0315   -0.0189    0.0506 C   0  0  0  0  0  0  0  0  0  3  0  0
   -1.7556   -0.3929   -0.0762 Cl  0  0  0  0  0  0  0  0  0  4  0  0
    0.4759    1.0575   -1.2429 Cl  0  0  0  0  0  0  0  0  0  5  0  0
    0.3516    0.6693    1.6343 Cl  0  0  0  0  0  0  0  0  0  6  0  0
    0.4175   -2.0880    0.7823 H   0  0  0  0  0  0  0  0  0  7  0  0
  1  2  1  0
  2  7  1  0
  2  3  1  0
  3  4  1  0
  3  5  1  0
  3  6  1  0
M  END
>  <rmg_smiles>  (1) 
O[CH]C(Cl)(Cl)Cl

>  <rmg_adjacency_list>  (1) 
1 Cl u0 p3 c0 {5,S}
2 Cl u0 p3 c0 {5,S}
3 Cl u0 p3 c0 {5,S}
4 O  u0 p2 c0 {6,S}
5 C  u0 p0 c0 {1,S} {2,S} {3,S} {6,S}
6 C  u0 p0 c0 {4,S} {5,S} {7,S}
7 H  u0 p0 c0 {6,S}


>  <multiplicity>  (1) 
1

>  <reaction>  (1) 
kfir_rxn_11797

>  <type>  (1) 
r1h

>  <role_mapnums>  (1) 
{"r1h_a": 2, "r1h_h": 7}

>  <role_mapidx>  (1) 
{"r1h_a": 1, "r1h_h": 6}

>  <ordered_mapped_smiles>  (1) 
[OH:1][CH:2]([C:3]([Cl:4])([Cl:5])[Cl:6])[H:7]

>  <mol_properties>  (1) 
{"1": {"label": "donator", "atom_type": "Cs"}, "6": {"label": "d_hydrogen", "atom_type": "H0"}}

>  <level_of_theory>  (1) 
wb97xd/def2tzvp

>  <lot_method>  (1) 
wb97xd

>  <lot_basis>  (1) 
def2tzvp

>  <spin_multiplicity>  (1) 
1.0

>  <optical_isomers>  (1) 
1.0

>  <modes>  (1) 
IdealGasTranslation(mass=(145.909, 'amu')),         NonlinearRotor(             inertia = ([273.278, 306.314, 329.392

>  <frequency_value>  (1) 
unknown

>  <frequency_units>  (1) 
unknown

>  <frequency_list>  (1) 
unknown

>  <arkane_path>  (1) 
/home/calvin/Dropbox/PersonalFolders/Calvin/Kfir_HAb_Converged/kfir_rxn_11797/output/Species/O=CC[Cl][Cl]Cl/arkane/output.py

>  <path_exists>  (1) 
True

>  <E0_value>  (1) 
-4019833.992973947

>  <E0_units>  (1) 
kJ/mol

>  <thermo_class>  (1) 
NASA

>  <Cp0_value>  (1) 
33.257888

>  <Cp0_units>  (1) 
J/(mol*K)

>  <CpInf_value>  (1) 
153.817732

>  <CpInf_units>  (1) 
J/(mol*K)

>  <Tmin_value>  (1) 
10.0

>  <Tmin_units>  (1) 
K

>  <Tmax_value>  (1) 
3000.0

>  <Tmax_units>  (1) 
K

>  <polynomials>  (1) 
[{"name": "polynomial1", "class": "NASAPolynomial", "Tmin_value": 10.0, "Tmin_units": "K", "Tmax_value": 392.2581887869959, "Tmax_units": "K", "coeffs": [3.7373084262740592, 0.02035764258876151, 0.00012122605582131573, -4.640599826056767e-07, 4.5049695500558086e-10, -483474357.3220684, 12.100844359914927]}, {"name": "polynomial2", "class": "NASAPolynomial", "Tmin_value": 392.2581887869959, "Tmin_units": "K", "Tmax_value": 3000.0, "Tmax_units": "K", "coeffs": [7.480156483897495, 0.01895868478815295, -1.4026466263912767e-05, 4.771828342710903e-09, -6.049905312972637e-13, -483474933.8245523, -6.059205589177282]}]

>  <H298_value>  (1) 
-960758.6487627336

>  <H298_units>  (1) 
kcal/mol

>  <S298_value>  (1) 
82.74033079105784

>  <S298_units>  (1) 
cal/(mol*K)

>  <Cp_T_value_list>  (1) 
[23.59678955265632, 26.05089622486369, 27.843841155203794, 29.327486954036896, 31.528100046832087, 32.94631949574581, 34.578964329832274, 35.34532769748381, 35.933016613207776]

>  <Cp_T_units>  (1) 
cal/(mol*K)

>  <T_list>  (1) 
[300.0, 400.0, 500.0, 600.0, 800.0, 1000.0, 1500.0, 2000.0, 2400.0]

>  <T_units>  (1) 
K

>  <yaml_path>  (1) 
/home/calvin/Dropbox/PersonalFolders/Calvin/Kfir_HAb_Converged/kfir_rxn_11797/output/Species/O=CC[Cl][Cl]Cl/O=CCClClCl.yml

>  <frequencies_cm1>  (1) 
[196.39995238511773, 243.7670319937604, 267.48278818072527, 316.0378229268397, 317.9111119232689, 446.2549760136967, 632.8733054771637, 743.8573752284025, 857.8822273400677, 1011.26742281135, 1032.9662081596734, 1375.4427419023455, 1859.166356325976, 2950.4577548871584]

>  <ZPE_kJmol>  (1) 
73.28186196203265

>  <E_elec_kJmol>  (1) 
-4019907.274835909

>  <E0_minus_Eelec_plus_ZPE_kJmol>  (1) 
0.0

>  <rxn>  (1) 
kfir_rxn_11797

>  <species_type>  (1) 
r1

>  <species_folder>  (1) 
O=CC[Cl][Cl]Cl

>  <frequencies_cm1_list>  (1) 
[196.39995238511773, 243.7670319937604, 267.48278818072527, 316.0378229268397, 317.9111119232689, 446.2549760136967, 632.8733054771637, 743.8573752284025, 857.8822273400677, 1011.26742281135, 1032.9662081596734, 1375.4427419023455, 1859.166356325976, 2950.4577548871584]

>  <E0_kJmol>  (1) 
-4.01983e+06

>  <H298_kJmol>  (1) 
-4.01981e+06

$$$$

     RDKit          3D

  8  8  0  0  0  0  0  0  0  0999 V2000
    0.9633   -1.9307    0.0122 F   0  0  0  0  0  0  0  0  0  1  0  0
    0.3916   -0.7556   -0.0132 C   0  0  0  0  0  0  0  0  0  2  0  0
    0.7567    0.1626   -1.0333 C   0  0  0  0  0  2  0  0  0  3  0  0
    0.0889    1.2463   -0.8836 N   0  0  0  0  0  0  0  0  0  4  0  0
   -0.8298    1.5637    0.0511 N   0  0  0  0  0  0  0  0  0  5  0  0
   -1.0891    0.6776    0.9210 N   0  0  0  0  0  0  0  0  0  6  0  0
   -0.4797   -0.5182    0.9128 N   0  0  0  0  0  0  0  0  0  7  0  0
    0.2300    2.0347   -1.5470 H   0  0  0  0  0  0  0  0  0  8  0  0
  1  2  1  0
  2  7  1  0
  2  3  1  0
  3  4  1  0
  4  8  1  0
  4  5  1  0
  5  6  1  0
  6  7  1  0
M  RAD  1   3   3
M  END
>  <rmg_smiles>  (2) 
F[C]1[C]N[N][N][N]1

>  <rmg_adjacency_list>  (2) 
1 F u0 p3 c0 {6,S}
2 N u0 p1 c0 {3,S} {7,S} {8,S}
3 N u0 p1 c0 {2,S} {5,S}
4 N u0 p1 c0 {5,S} {6,S}
5 N u0 p1 c0 {3,S} {4,S}
6 C u0 p0 c0 {1,S} {4,S} {7,S}
7 C u0 p1 c0 {2,S} {6,S}
8 H u0 p0 c0 {2,S}


>  <multiplicity>  (2) 
1

>  <reaction>  (2) 
kfir_rxn_11797

>  <type>  (2) 
r2h

>  <role_mapnums>  (2) 
{"r2h_a": 4, "r2h_h": 8}

>  <role_mapidx>  (2) 
{"r2h_a": 3, "r2h_h": 7}

>  <ordered_mapped_smiles>  (2) 
[F:1][CH:2]1[C:3][N:4]([H:8])[NH:5][NH:6][NH:7]1

>  <mol_properties>  (2) 
{"3": {"label": "acceptor", "atom_type": "N3s"}, "7": {"label": "a_hydrogen", "atom_type": "H0"}}

>  <level_of_theory>  (2) 
wb97xd/def2tzvp

>  <lot_method>  (2) 
wb97xd

>  <lot_basis>  (2) 
def2tzvp

>  <spin_multiplicity>  (2) 
1.0

>  <optical_isomers>  (2) 
1.0

>  <modes>  (2) 
IdealGasTranslation(mass=(100.019, 'amu')),         NonlinearRotor(             inertia = ([77.3742, 177.857, 255.232

>  <frequency_value>  (2) 
unknown

>  <frequency_units>  (2) 
unknown

>  <frequency_list>  (2) 
unknown

>  <arkane_path>  (2) 
/home/calvin/Dropbox/PersonalFolders/Calvin/Kfir_HAb_Converged/kfir_rxn_11797/output/Species/FC1=C=_NHp__N-_N=N1/arkane/output.py

>  <path_exists>  (2) 
True

>  <E0_value>  (2) 
-1037101.6307276562

>  <E0_units>  (2) 
kJ/mol

>  <thermo_class>  (2) 
NASA

>  <Cp0_value>  (2) 
33.257888

>  <Cp0_units>  (2) 
J/(mol*K)

>  <CpInf_value>  (2) 
182.918384

>  <CpInf_units>  (2) 
J/(mol*K)

>  <Tmin_value>  (2) 
10.0

>  <Tmin_units>  (2) 
K

>  <Tmax_value>  (2) 
3000.0

>  <Tmax_units>  (2) 
K

>  <polynomials>  (2) 
[{"name": "polynomial1", "class": "NASAPolynomial", "Tmin_value": 10.0, "Tmin_units": "K", "Tmax_value": 595.3654199333845, "Tmax_units": "K", "coeffs": [3.929367665478656, 0.003990657856205917, 9.391922338076052e-05, -1.7184801237732224e-07, 9.432769548077467e-11, -124734510.95069154, 10.514101784928702]}, {"name": "polynomial2", "class": "NASAPolynomial", "Tmin_value": 595.3654199333845, "Tmin_units": "K", "Tmax_value": 3000.0, "Tmax_units": "K", "coeffs": [1.8568696450384465, 0.03455527631819567, -2.5012008877726927e-05, 8.272288748170334e-09, -1.019674921545422e-12, -124734559.08993722, 16.96116967248643]}]

>  <H298_value>  (2) 
-247869.490823478

>  <H298_units>  (2) 
kcal/mol

>  <S298_value>  (2) 
73.38666068788528

>  <S298_units>  (2) 
cal/(mol*K)

>  <Cp_T_value_list>  (2) 
[19.28276513334251, 23.785317282133292, 27.46117058710593, 30.28577573424352, 34.40084573465701, 37.0668678733023, 40.08122856620907, 41.29991003647917, 42.22041715381329]

>  <Cp_T_units>  (2) 
cal/(mol*K)

>  <T_list>  (2) 
[300.0, 400.0, 500.0, 600.0, 800.0, 1000.0, 1500.0, 2000.0, 2400.0]

>  <T_units>  (2) 
K

>  <yaml_path>  (2) 
/home/calvin/Dropbox/PersonalFolders/Calvin/Kfir_HAb_Converged/kfir_rxn_11797/output/Species/FC1=C=_NHp__N-_N=N1/FC1=C=_NHp__N-_N=N1.yml

>  <frequencies_cm1>  (2) 
[134.48304050688, 327.89168204467995, 458.4742748898, 574.70486841612, 586.0628621354, 664.73104596132, 767.6534219374801, 822.0399456718799, 926.47992540376, 956.5847890466399, 1091.43177977548, 1140.7092664318002, 1278.41979003908, 1357.0879738649999, 1444.22315059048, 1548.9240757645198, 1609.52522121352, 3538.90775164732]

>  <ZPE_kJmol>  (2) 
115.01101618011106

>  <E_elec_kJmol>  (2) 
-1037216.6417438363

>  <E0_minus_Eelec_plus_ZPE_kJmol>  (2) 
0.0

>  <rxn>  (2) 
kfir_rxn_11797

>  <species_type>  (2) 
p0

>  <species_folder>  (2) 
FC1=C=_NHp__N-_N=N1

>  <frequencies_cm1_list>  (2) 
[134.48304050688, 327.89168204467995, 458.4742748898, 574.70486841612, 586.0628621354, 664.73104596132, 767.6534219374801, 822.0399456718799, 926.47992540376, 956.5847890466399, 1091.43177977548, 1140.7092664318002, 1278.41979003908, 1357.0879738649999, 1444.22315059048, 1548.9240757645198, 1609.52522121352, 3538.90775164732]

>  <E0_kJmol>  (2) 
-1.0371e+06

>  <H298_kJmol>  (2) 
-1.03709e+06

$$$$

     RDKit          3D

 14 13  0  0  0  0  0  0  0  0999 V2000
    0.8718   -4.5511    1.3516 F   0  0  0  0  0  0  0  0  0  1  0  0
    0.3001   -3.3760    1.3262 C   0  0  0  0  0  0  0  0  0  2  0  0
    0.6652   -2.4578    0.3061 C   0  0  0  0  0  0  0  0  0  3  0  0
   -0.0025   -1.3742    0.4558 N   0  0  0  0  0  0  0  0  0  4  0  0
   -0.9212   -1.0567    1.3905 N   0  0  0  0  0  0  0  0  0  5  0  0
   -1.1806   -1.9428    2.2604 N   0  0  0  0  0  0  0  0  0  6  0  0
   -0.5712   -3.1387    2.2522 N   0  0  0  0  0  0  0  0  0  7  0  0
    1.3314    0.1348   -2.1247 O   0  0  0  0  0  0  0  0  0  8  0  0
    0.5273    0.4662   -1.3398 C   0  0  0  0  0  3  0  0  0  9  0  0
   -0.2054    1.8342   -1.2867 C   0  0  0  0  0  0  0  0  0 10  0  0
   -1.9296    1.4602   -1.4134 Cl  0  0  0  0  0  0  0  0  0 11  0  0
    0.3020    2.9105   -2.5802 Cl  0  0  0  0  0  0  0  0  0 12  0  0
    0.1777    2.5224    0.2970 Cl  0  0  0  0  0  0  0  0  0 13  0  0
    0.1677   -0.4225   -0.3449 H   0  0  0  0  0  0  0  0  0 14  0  0
  1  2  1  0
  2  7  1  0
  2  3  1  0
  3  4  1  0
  4  5  1  0
  4 14  1  0
  5  6  1  0
  6  7  1  0
  8  9  1  0
  9 10  1  0
 10 11  1  0
 10 12  1  0
 10 13  1  0
M  RAD  1   9   2
M  END
>  <rmg_smiles>  (3) 
F[C]1[C]N[N][N][N]1.[O][C]C(Cl)(Cl)Cl

>  <rmg_adjacency_list>  (3) 
multiplicity 2
1  Cl u0 p3 c0 {10,S}
2  Cl u0 p3 c0 {10,S}
3  Cl u0 p3 c0 {10,S}
4  F  u0 p3 c0 {11,S}
5  O  u0 p2 c0 {13,S}
6  N  u0 p1 c0 {7,S} {12,S} {14,S}
7  N  u0 p1 c0 {6,S} {9,S}
8  N  u0 p1 c0 {9,S} {11,S}
9  N  u0 p1 c0 {7,S} {8,S}
10 C  u0 p0 c0 {1,S} {2,S} {3,S} {13,S}
11 C  u0 p0 c0 {4,S} {8,S} {12,S}
12 C  u0 p1 c0 {6,S} {11,S}
13 C  u1 p1 c0 {5,S} {10,S}
14 H  u0 p0 c0 {6,S}


>  <multiplicity>  (3) 
2

>  <reaction>  (3) 
kfir_rxn_11797

>  <type>  (3) 
ts

>  <role_mapnums>  (3) 
{"*2": 14, "*1": 9, "*3": 4, "*0": 5, "*4": 8}

>  <role_mapidx>  (3) 
{"*2": 13, "*1": 8, "*3": 3, "*0": 4, "*4": 7}

>  <ordered_mapped_smiles>  (3) 
[F:1][CH:2]1[CH2:3][N:4]([H:14])[NH:5][NH:6][NH:7]1.[OH:8][CH:9][C:10]([Cl:11])([Cl:12])[Cl:13]

>  <mol_properties>  (3) 
{"3": {"label": "*3", "atom_type": "N3s"}, "4": {"label": "*0", "atom_type": "N3s"}, "7": {"label": "*4", "atom_type": "O2s"}, "8": {"label": "*1", "atom_type": "C2s"}, "13": {"label": "*2", "atom_type": "H0"}}

>  <level_of_theory>  (3) 
wb97xd/def2tzvp

>  <lot_method>  (3) 
wb97xd

>  <lot_basis>  (3) 
def2tzvp

>  <spin_multiplicity>  (3) 
2.0

>  <optical_isomers>  (3) 
1.0

>  <modes>  (3) 
IdealGasTranslation(mass=(244.92, 'amu')),         NonlinearRotor(             inertia = ([439.804, 2033.23, 2176.01

>  <frequency_value>  (3) 
-2117.42

>  <frequency_units>  (3) 
cm^-1

>  <frequency_list>  (3) 
unknown

>  <arkane_path>  (3) 
/home/calvin/Dropbox/PersonalFolders/Calvin/Kfir_HAb_Converged/kfir_rxn_11797/output/rxns/TS0/arkane/output.py

>  <path_exists>  (3) 
True

>  <E0_value>  (3) 
-5055200.0

>  <E0_units>  (3) 
kJ/mol

>  <thermo_class>  (3) 
unknown

>  <Cp0_value>  (3) 
unknown

>  <Cp0_units>  (3) 
unknown

>  <CpInf_value>  (3) 
unknown

>  <CpInf_units>  (3) 
unknown

>  <Tmin_value>  (3) 
unknown

>  <Tmin_units>  (3) 
unknown

>  <Tmax_value>  (3) 
unknown

>  <Tmax_units>  (3) 
unknown

>  <polynomials>  (3) 
unknown

>  <H298_value>  (3) 
unknown

>  <H298_units>  (3) 
unknown

>  <S298_value>  (3) 
unknown

>  <S298_units>  (3) 
unknown

>  <Cp_T_value_list>  (3) 
unknown

>  <Cp_T_units>  (3) 
unknown

>  <T_list>  (3) 
unknown

>  <T_units>  (3) 
unknown

>  <yaml_path>  (3) 
unknown

>  <frequencies_cm1>  (3) 
unknown

>  <ZPE_kJmol>  (3) 
unknown

>  <E_elec_kJmol>  (3) 
unknown

>  <E0_minus_Eelec_plus_ZPE_kJmol>  (3) 
unknown

>  <rxn>  (3) 
unknown

>  <species_type>  (3) 
unknown

>  <species_folder>  (3) 
unknown

>  <frequencies_cm1_list>  (3) 
[]

>  <ts_imag_freq_cm1>  (3) 
-2143.1401

>  <ts_freq_out_path>  (3) 
/home/calvin/Dropbox/PersonalFolders/Calvin/Kfir_HAb_Converged/kfir_rxn_11797/output/rxns/TS0/geometry/freq.out

>  <E0_kJmol>  (3) 
-5.0552e+06

>  <H298_kJmol>  (3) 
unknown

$$$$

     RDKit          3D

  6  5  0  0  0  0  0  0  0  0999 V2000
    2.0226    0.3485   -0.2250 O   0  0  0  0  0  0  0  0  0  1  0  0
    1.1426   -0.2224    0.2768 C   0  0  0  0  0  3  0  0  0  2  0  0
   -0.3802   -0.0566    0.0337 C   0  0  0  0  0  0  0  0  0  3  0  0
   -0.7412    1.1812   -1.1785 Cl  0  0  0  0  0  0  0  0  0  4  0  0
   -1.0794    0.3853    1.5956 Cl  0  0  0  0  0  0  0  0  0  5  0  0
   -0.9645   -1.6360   -0.5027 Cl  0  0  0  0  0  0  0  0  0  6  0  0
  1  2  1  0
  2  3  1  0
  3  4  1  0
  3  5  1  0
  3  6  1  0
M  RAD  1   2   2
M  END
>  <rmg_smiles>  (4) 
O[C]C(Cl)(Cl)Cl

>  <rmg_adjacency_list>  (4) 
multiplicity 2
1 Cl u0 p3 c0 {5,S}
2 Cl u0 p3 c0 {5,S}
3 Cl u0 p3 c0 {5,S}
4 O  u0 p2 c0 {6,S}
5 C  u0 p0 c0 {1,S} {2,S} {3,S} {6,S}
6 C  u1 p1 c0 {4,S} {5,S}


>  <multiplicity>  (4) 
2

>  <reaction>  (4) 
kfir_rxn_11797

>  <type>  (4) 
r1

>  <role_mapnums>  (4) 
{}

>  <role_mapidx>  (4) 
{}

>  <ordered_mapped_smiles>  (4) 
[OH:1][CH:2][C:3]([Cl:4])([Cl:5])[Cl:6]

>  <level_of_theory>  (4) 
wb97xd/def2tzvp

>  <lot_method>  (4) 
wb97xd

>  <lot_basis>  (4) 
def2tzvp

>  <spin_multiplicity>  (4) 
2.0

>  <optical_isomers>  (4) 
1.0

>  <modes>  (4) 
IdealGasTranslation(mass=(144.901, 'amu')),         NonlinearRotor(             inertia = ([274.842, 303.378, 325.828

>  <frequency_value>  (4) 
unknown

>  <frequency_units>  (4) 
unknown

>  <frequency_list>  (4) 
unknown

>  <arkane_path>  (4) 
/home/calvin/Dropbox/PersonalFolders/Calvin/Kfir_HAb_Converged/kfir_rxn_11797/output/Species/O=_C_C[Cl][Cl]Cl/arkane/output.py

>  <path_exists>  (4) 
True

>  <E0_value>  (4) 
-4018137.9536828985

>  <E0_units>  (4) 
kJ/mol

>  <thermo_class>  (4) 
NASA

>  <Cp0_value>  (4) 
33.257888

>  <Cp0_units>  (4) 
J/(mol*K)

>  <CpInf_value>  (4) 
128.874316

>  <CpInf_units>  (4) 
J/(mol*K)

>  <Tmin_value>  (4) 
10.0

>  <Tmin_units>  (4) 
K

>  <Tmax_value>  (4) 
3000.0

>  <Tmax_units>  (4) 
K

>  <polynomials>  (4) 
[{"name": "polynomial1", "class": "NASAPolynomial", "Tmin_value": 10.0, "Tmin_units": "K", "Tmax_value": 385.80036793535754, "Tmax_units": "K", "coeffs": [3.711865625423999, 0.02280685357702156, 0.00010175306133094247, -4.4285070795519916e-07, 4.517440637848405e-10, -483270371.4053037, 12.870571779617515]}, {"name": "polynomial2", "class": "NASAPolynomial", "Tmin_value": 385.80036793535754, "Tmin_units": "K", "Tmax_value": 3000.0, "Tmax_units": "K", "coeffs": [8.102600609003872, 0.014636056485051506, -1.1706371911203395e-05, 4.16303299748799e-09, -5.419962310929496e-13, -483270988.17631453, -7.732956623976047]}]

>  <H298_value>  (4) 
-960353.3426743269

>  <H298_units>  (4) 
kcal/mol

>  <S298_value>  (4) 
84.0907415327689

>  <S298_units>  (4) 
cal/(mol*K)

>  <Cp_T_value_list>  (4) 
[22.681686897075448, 24.515297607930883, 25.795013938869307, 26.825127724901343, 28.275641386364978, 29.119176638145266, 29.85525190359398, 30.168875285236496, 30.539524567500862]

>  <Cp_T_units>  (4) 
cal/(mol*K)

>  <T_list>  (4) 
[300.0, 400.0, 500.0, 600.0, 800.0, 1000.0, 1500.0, 2000.0, 2400.0]

>  <T_units>  (4) 
K

>  <yaml_path>  (4) 
/home/calvin/Dropbox/PersonalFolders/Calvin/Kfir_HAb_Converged/kfir_rxn_11797/output/Species/O=_C_C[Cl][Cl]Cl/O=_C_CClClCl.yml

>  <frequencies_cm1>  (4) 
[179.5718110452967, 255.2038239664777, 262.0790585499345, 312.12677282188014, 383.0967412837594, 444.0995500175247, 588.4165514329612, 785.4789757871064, 821.8982968685588, 834.0211699470397, 1972.788524306137]

>  <ZPE_kJmol>  (4) 
40.90500760973664

>  <E_elec_kJmol>  (4) 
-4018178.858690508

>  <E0_minus_Eelec_plus_ZPE_kJmol>  (4) 
0.0

>  <rxn>  (4) 
kfir_rxn_11797

>  <species_type>  (4) 
p1

>  <species_folder>  (4) 
O=_C_C[Cl][Cl]Cl

>  <frequencies_cm1_list>  (4) 
[179.5718110452967, 255.2038239664777, 262.0790585499345, 312.12677282188014, 383.0967412837594, 444.0995500175247, 588.4165514329612, 785.4789757871064, 821.8982968685588, 834.0211699470397, 1972.788524306137]

>  <E0_kJmol>  (4) 
-4.01814e+06

>  <H298_kJmol>  (4) 
-4.01812e+06

$$$$

     RDKit          3D

  7  7  0  0  0  0  0  0  0  0999 V2000
    2.1173    0.2159   -0.7465 F   0  0  0  0  0  0  0  0  0  1  0  0
    0.8958    0.1038   -0.3131 C   0  0  0  0  0  0  0  0  0  2  0  0
    0.1698    1.1809    0.1961 C   0  0  0  0  0  0  0  0  0  3  0  0
   -1.0053    0.9932    0.5955 N   0  0  0  0  0  0  0  0  0  4  0  0
   -1.5959   -0.2293    0.5481 N   0  0  0  0  0  2  0  0  0  5  0  0
   -0.9111   -1.2019    0.0773 N   0  0  0  0  0  0  0  0  0  6  0  0
    0.3295   -1.0627   -0.3573 N   0  0  0  0  0  0  0  0  0  7  0  0
  1  2  1  0
  2  7  1  0
  2  3  1  0
  3  4  1  0
  4  5  1  0
  5  6  1  0
  6  7  1  0
M  RAD  1   5   2
M  END
>  <rmg_smiles>  (5) 
F[C]1[C][N][N][N][N]1

>  <rmg_adjacency_list>  (5) 
multiplicity 2
1 F u0 p3 c0 {6,S}
2 N u0 p1 c0 {4,S} {6,S}
3 N u0 p1 c0 {5,S} {7,S}
4 N u0 p1 c0 {2,S} {5,S}
5 N u1 p1 c0 {3,S} {4,S}
6 C u0 p0 c0 {1,S} {2,S} {7,S}
7 C u0 p1 c0 {3,S} {6,S}


>  <multiplicity>  (5) 
2

>  <reaction>  (5) 
kfir_rxn_11797

>  <type>  (5) 
r2

>  <role_mapnums>  (5) 
{}

>  <role_mapidx>  (5) 
{}

>  <ordered_mapped_smiles>  (5) 
[F:1][CH:2]1[CH2:3][NH:4][N:5][NH:6][NH:7]1

>  <level_of_theory>  (5) 
wb97xd/def2tzvp

>  <lot_method>  (5) 
wb97xd

>  <lot_basis>  (5) 
def2tzvp

>  <spin_multiplicity>  (5) 
2.0

>  <optical_isomers>  (5) 
1.0

>  <modes>  (5) 
IdealGasTranslation(mass=(99.0107, 'amu')),         NonlinearRotor(             inertia = ([70.325, 178.526, 248.851

>  <frequency_value>  (5) 
unknown

>  <frequency_units>  (5) 
unknown

>  <frequency_list>  (5) 
unknown

>  <arkane_path>  (5) 
/home/calvin/Dropbox/PersonalFolders/Calvin/Kfir_HAb_Converged/kfir_rxn_11797/output/Species/FC1=C=_Np__N-_N=N1/arkane/output.py

>  <path_exists>  (5) 
True

>  <E0_value>  (5) 
-1035474.2057846324

>  <E0_units>  (5) 
kJ/mol

>  <thermo_class>  (5) 
NASA

>  <Cp0_value>  (5) 
33.257888

>  <Cp0_units>  (5) 
J/(mol*K)

>  <CpInf_value>  (5) 
157.97496800000002

>  <CpInf_units>  (5) 
J/(mol*K)

>  <Tmin_value>  (5) 
10.0

>  <Tmin_units>  (5) 
K

>  <Tmax_value>  (5) 
3000.0

>  <Tmax_units>  (5) 
K

>  <polynomials>  (5) 
[{"name": "polynomial1", "class": "NASAPolynomial", "Tmin_value": 10.0, "Tmin_units": "K", "Tmax_value": 595.7926431890862, "Tmax_units": "K", "coeffs": [3.919476969989215, 0.0045832265262294915, 8.875356926114785e-05, -1.7059511560449932e-07, 9.645506169470612e-11, -124538776.5098197, 10.904202749321374]}, {"name": "polynomial2", "class": "NASAPolynomial", "Tmin_value": 595.7926431890862, "Tmin_units": "K", "Tmax_value": 3000.0, "Tmax_units": "K", "coeffs": [3.083757565048008, 0.029385419468341913, -2.200706006544465e-05, 7.4063071123496855e-09, -9.221078018834112e-13, -124539017.54395507, 11.6447563567132]}]

>  <H298_value>  (5) 
-247480.56329729312

>  <H298_units>  (5) 
kcal/mol

>  <S298_value>  (5) 
73.97530914780805

>  <S298_units>  (5) 
cal/(mol*K)

>  <Cp_T_value_list>  (5) 
[18.793973766512824, 22.861818865386518, 26.03942885198854, 28.362851484347473, 31.64012024517315, 33.675829875716296, 35.71828290142685, 36.41176020447329, 37.04066280638489]

>  <Cp_T_units>  (5) 
cal/(mol*K)

>  <T_list>  (5) 
[300.0, 400.0, 500.0, 600.0, 800.0, 1000.0, 1500.0, 2000.0, 2400.0]

>  <T_units>  (5) 
K

>  <yaml_path>  (5) 
/home/calvin/Dropbox/PersonalFolders/Calvin/Kfir_HAb_Converged/kfir_rxn_11797/output/Species/FC1=C=_Np__N-_N=N1/FC1=C=_Np__N-_N=N1.yml

>  <frequencies_cm1>  (5) 
[180.17596082615998, 377.2378385542, 437.99692466556, 561.62326138152, 582.32722212132, 590.65000832916, 764.59074648476, 792.4638398986399, 945.9478287859599, 991.88796057676, 1178.0862675285598, 1192.7610151574, 1435.05572518828, 1489.4422489226797, 1693.5359196184]

>  <ZPE_kJmol>  (5) 
79.03599528395686

>  <E_elec_kJmol>  (5) 
-1035553.2417799165

>  <E0_minus_Eelec_plus_ZPE_kJmol>  (5) 
0.0

>  <rxn>  (5) 
kfir_rxn_11797

>  <species_type>  (5) 
r0

>  <species_folder>  (5) 
FC1=C=_Np__N-_N=N1

>  <frequencies_cm1_list>  (5) 
[180.17596082615998, 377.2378385542, 437.99692466556, 561.62326138152, 582.32722212132, 590.65000832916, 764.59074648476, 792.4638398986399, 945.9478287859599, 991.88796057676, 1178.0862675285598, 1192.7610151574, 1435.05572518828, 1489.4422489226797, 1693.5359196184]

>  <E0_kJmol>  (5) 
-1.03547e+06

>  <H298_kJmol>  (5) 
-1.03546e+06

$$$$
