
     RDKit          3D

  7  7  0  0  0  0  0  0  0  0999 V2000
    0.0962   -0.6686    0.4416 C   0  0  0  0  0  0  0  0  0  1  0  0
    0.0324   -0.0447   -0.8663 C   0  0  0  0  0  0  0  0  0  2  0  0
   -0.1504    0.6716    0.3839 O   0  0  0  0  0  0  0  0  0  3  0  0
    1.1107   -0.8545    0.7880 H   0  0  0  0  0  0  0  0  0  4  0  0
   -0.6217   -1.3284    0.9242 H   0  0  0  0  0  0  0  0  0  5  0  0
    0.9608    0.1789   -1.3780 H   0  0  0  0  0  0  0  0  0  6  0  0
   -0.8700   -0.1102   -1.4639 H   0  0  0  0  0  0  0  0  0  7  0  0
  1  3  1  0
  1  5  1  0
  1  4  1  0
  1  2  1  0
  2  7  1  0
  2  3  1  0
  2  6  1  0
M  END
>  <rmg_smiles>  (1) 
C1CO1

>  <rmg_adjacency_list>  (1) 
1 O u0 p2 c0 {2,S} {3,S}
2 C u0 p0 c0 {1,S} {3,S} {4,S} {5,S}
3 C u0 p0 c0 {1,S} {2,S} {6,S} {7,S}
4 H u0 p0 c0 {2,S}
5 H u0 p0 c0 {2,S}
6 H u0 p0 c0 {3,S}
7 H u0 p0 c0 {3,S}


>  <multiplicity>  (1) 
1

>  <reaction>  (1) 
kfir_rxn_10218

>  <type>  (1) 
r1h

>  <role_mapnums>  (1) 
{"r1h_a": 1, "r1h_h": 4}

>  <role_mapidx>  (1) 
{"r1h_a": 0, "r1h_h": 3}

>  <ordered_mapped_smiles>  (1) 
[C:1]1([H:4])([H:5])[C:2]([H:6])([H:7])[O:3]1

>  <mol_properties>  (1) 
{"0": {"label": "donator", "atom_type": "Cs"}, "3": {"label": "d_hydrogen", "atom_type": "H0"}}

>  <level_of_theory>  (1) 
wb97xd/def2tzvp

>  <lot_method>  (1) 
wb97xd

>  <lot_basis>  (1) 
def2tzvp

>  <spin_multiplicity>  (1) 
1.0

>  <optical_isomers>  (1) 
1.0

>  <modes>  (1) 
IdealGasTranslation(mass=(44.0262, 'amu')),         NonlinearRotor(             inertia = ([19.3349, 22.6213, 35.1481

>  <frequency_value>  (1) 
unknown

>  <frequency_units>  (1) 
unknown

>  <frequency_list>  (1) 
unknown

>  <arkane_path>  (1) 
/home/calvin/Dropbox/PersonalFolders/Calvin/Kfir_HAb_Converged/kfir_rxn_10218/output/Species/C1CO1/arkane/output.py

>  <path_exists>  (1) 
True

>  <E0_value>  (1) 
-403134.82876721246

>  <E0_units>  (1) 
kJ/mol

>  <thermo_class>  (1) 
NASA

>  <Cp0_value>  (1) 
33.257888

>  <Cp0_units>  (1) 
J/(mol*K)

>  <CpInf_value>  (1) 
157.97496800000002

>  <CpInf_units>  (1) 
J/(mol*K)

>  <Tmin_value>  (1) 
10.0

>  <Tmin_units>  (1) 
K

>  <Tmax_value>  (1) 
3000.0

>  <Tmax_units>  (1) 
K

>  <polynomials>  (1) 
[{"name": "polynomial1", "class": "NASAPolynomial", "Tmin_value": 10.0, "Tmin_units": "K", "Tmax_value": 765.3196649017267, "Tmax_units": "K", "coeffs": [4.157632094553427, -0.010713228354430716, 7.905647872829959e-05, -9.802046937249177e-08, 3.962688743524427e-11, -48485924.512081616, 5.894523543063067]}, {"name": "polynomial2", "class": "NASAPolynomial", "Tmin_value": 765.3196649017267, "Tmin_units": "K", "Tmax_value": 3000.0, "Tmax_units": "K", "coeffs": [-0.3695677459692966, 0.024993906623418535, -1.4536812451109882e-05, 4.073545795554596e-09, -4.411138126492809e-13, -48485584.31883677, 24.220150073627728]}]

>  <H298_value>  (1) 
-96348.98878298597

>  <H298_units>  (1) 
kcal/mol

>  <S298_value>  (1) 
57.85182190726364

>  <S298_units>  (1) 
cal/(mol*K)

>  <Cp_T_value_list>  (1) 
[11.392996250077998, 14.43211826888243, 17.466073403472617, 20.176605699964774, 24.297519862432992, 27.264390543697267, 31.653303321259223, 33.78557291767529, 34.89806441490107]

>  <Cp_T_units>  (1) 
cal/(mol*K)

>  <T_list>  (1) 
[300.0, 400.0, 500.0, 600.0, 800.0, 1000.0, 1500.0, 2000.0, 2400.0]

>  <T_units>  (1) 
K

>  <yaml_path>  (1) 
/home/calvin/Dropbox/PersonalFolders/Calvin/Kfir_HAb_Converged/kfir_rxn_10218/output/Species/C1CO1/C1CO1.yml

>  <frequencies_cm1>  (1) 
[819.6227668392398, 892.4265452018799, 910.7133271090399, 1047.24272924128, 1160.0535640782398, 1160.20463775528, 1167.0922240312398, 1171.85791184332, 1311.1135071475999, 1493.8439865128, 1537.13346197008, 3070.72355951504, 3078.44891800004, 3154.15056416772, 3169.1961290038394]

>  <ZPE_kJmol>  (1) 
150.3935078035486

>  <E_elec_kJmol>  (1) 
-403285.222275016

>  <E0_minus_Eelec_plus_ZPE_kJmol>  (1) 
0.0

>  <rxn>  (1) 
kfir_rxn_10218

>  <species_type>  (1) 
r1

>  <species_folder>  (1) 
C1CO1

>  <frequencies_cm1_list>  (1) 
[819.6227668392398, 892.4265452018799, 910.7133271090399, 1047.24272924128, 1160.0535640782398, 1160.20463775528, 1167.0922240312398, 1171.85791184332, 1311.1135071475999, 1493.8439865128, 1537.13346197008, 3070.72355951504, 3078.44891800004, 3154.15056416772, 3169.1961290038394]

>  <E0_kJmol>  (1) 
-403135

>  <H298_kJmol>  (1) 
-403124

$$$$

     RDKit          3D

  8  7  0  0  0  0  0  0  0  0999 V2000
   -0.4350   -1.5213   -0.1200 O   0  0  0  0  0  0  0  0  0  1  0  0
   -0.0438   -0.2523    0.0186 C   0  0  0  0  0  0  0  0  0  2  0  0
   -0.0254    0.2851    1.2551 C   0  0  0  0  0  2  0  0  0  3  0  0
    0.0263    0.7305    2.3095 O   0  0  0  0  0  0  0  0  0  4  0  0
    0.3338    0.6205   -1.0876 C   0  0  0  0  0  0  0  0  0  5  0  0
    0.2619    0.2956   -2.2471 O   0  0  0  0  0  0  0  0  0  6  0  0
    0.6902    1.6267   -0.7884 H   0  0  0  0  0  0  0  0  0  7  0  0
   -1.3368   -1.5428   -0.4486 H   0  0  0  0  0  0  0  0  0  8  0  0
  1  8  1  0
  1  2  1  0
  2  3  1  0
  2  5  1  0
  3  4  1  0
  5  7  1  0
  5  6  1  0
M  RAD  1   3   3
M  END
>  <rmg_smiles>  (2) 
O[C]C(O)[CH]O

>  <rmg_adjacency_list>  (2) 
1 O u0 p2 c0 {4,S} {8,S}
2 O u0 p2 c0 {5,S}
3 O u0 p2 c0 {6,S}
4 C u0 p0 c0 {1,S} {5,S} {6,S}
5 C u0 p0 c0 {2,S} {4,S} {7,S}
6 C u0 p1 c0 {3,S} {4,S}
7 H u0 p0 c0 {5,S}
8 H u0 p0 c0 {1,S}


>  <multiplicity>  (2) 
1

>  <reaction>  (2) 
kfir_rxn_10218

>  <type>  (2) 
r2h

>  <role_mapnums>  (2) 
{"r2h_a": 1, "r2h_h": 8}

>  <role_mapidx>  (2) 
{"r2h_a": 0, "r2h_h": 7}

>  <ordered_mapped_smiles>  (2) 
[O:1]([CH:2]([C:3][OH:4])[CH:5]([OH:6])[H:7])[H:8]

>  <mol_properties>  (2) 
{"0": {"label": "acceptor", "atom_type": "O2s"}, "7": {"label": "a_hydrogen", "atom_type": "H0"}}

>  <level_of_theory>  (2) 
wb97xd/def2tzvp

>  <lot_method>  (2) 
wb97xd

>  <lot_basis>  (2) 
def2tzvp

>  <spin_multiplicity>  (2) 
1.0

>  <optical_isomers>  (2) 
1.0

>  <modes>  (2) 
IdealGasTranslation(mass=(86.0004, 'amu')),         NonlinearRotor(             inertia = ([59.7071, 202.859, 262.566

>  <frequency_value>  (2) 
unknown

>  <frequency_units>  (2) 
unknown

>  <frequency_list>  (2) 
unknown

>  <arkane_path>  (2) 
/home/calvin/Dropbox/PersonalFolders/Calvin/Kfir_HAb_Converged/kfir_rxn_10218/output/Species/O=C=C[O]C=O/arkane/output.py

>  <path_exists>  (2) 
True

>  <E0_value>  (2) 
-894539.2697518263

>  <E0_units>  (2) 
kJ/mol

>  <thermo_class>  (2) 
NASA

>  <Cp0_value>  (2) 
33.257888

>  <Cp0_units>  (2) 
J/(mol*K)

>  <CpInf_value>  (2) 
178.76114800000002

>  <CpInf_units>  (2) 
J/(mol*K)

>  <Tmin_value>  (2) 
10.0

>  <Tmin_units>  (2) 
K

>  <Tmax_value>  (2) 
3000.0

>  <Tmax_units>  (2) 
K

>  <polynomials>  (2) 
[{"name": "polynomial1", "class": "NASAPolynomial", "Tmin_value": 10.0, "Tmin_units": "K", "Tmax_value": 374.3546662353648, "Tmax_units": "K", "coeffs": [3.827047054953878, 0.013824482091530695, 0.00011548703257111531, -3.780771344492246e-07, 3.5283211078917844e-10, -107588225.06839073, 10.177505595756495]}, {"name": "polynomial2", "class": "NASAPolynomial", "Tmin_value": 374.3546662353648, "Tmin_units": "K", "Tmax_value": 3000.0, "Tmax_units": "K", "coeffs": [4.51076853641627, 0.026893725695886814, -1.8519932603490998e-05, 5.955900484692071e-09, -7.235080973579536e-13, -107588419.02723685, 5.643881765539597]}]

>  <H298_value>  (2) 
-213795.6614013553

>  <H298_units>  (2) 
kcal/mol

>  <S298_value>  (2) 
76.68357658320957

>  <S298_units>  (2) 
cal/(mol*K)

>  <Cp_T_value_list>  (2) 
[21.895204339582776, 25.17338631080577, 27.87437973265843, 30.15096231820357, 33.63558512856483, 36.00212879840705, 38.98881889102151, 40.319553152556985, 41.157042704075074]

>  <Cp_T_units>  (2) 
cal/(mol*K)

>  <T_list>  (2) 
[300.0, 400.0, 500.0, 600.0, 800.0, 1000.0, 1500.0, 2000.0, 2400.0]

>  <T_units>  (2) 
K

>  <yaml_path>  (2) 
/home/calvin/Dropbox/PersonalFolders/Calvin/Kfir_HAb_Converged/kfir_rxn_10218/output/Species/O=C=C[O]C=O/O=C=COC=O.yml

>  <frequencies_cm1>  (2) 
[163.65152024601605, 181.6639891694157, 279.5265667820029, 416.74398542345017, 479.916678356268, 582.1030794442727, 668.4654760541036, 879.0562031930345, 976.9866128976305, 1196.4086324731213, 1336.6787672818505, 1377.3814555830606, 1511.0627978020811, 1728.2067976613737, 2227.0373229516968, 2965.6589957601254, 3693.573447118429]

>  <ZPE_kJmol>  (2) 
123.59893480532014

>  <E_elec_kJmol>  (2) 
-894662.8686866317

>  <E0_minus_Eelec_plus_ZPE_kJmol>  (2) 
0.0

>  <rxn>  (2) 
kfir_rxn_10218

>  <species_type>  (2) 
p0

>  <species_folder>  (2) 
O=C=C[O]C=O

>  <frequencies_cm1_list>  (2) 
[163.65152024601605, 181.6639891694157, 279.5265667820029, 416.74398542345017, 479.916678356268, 582.1030794442727, 668.4654760541036, 879.0562031930345, 976.9866128976305, 1196.4086324731213, 1336.6787672818505, 1377.3814555830606, 1511.0627978020811, 1728.2067976613737, 2227.0373229516968, 2965.6589957601254, 3693.573447118429]

>  <E0_kJmol>  (2) 
-894539

>  <H298_kJmol>  (2) 
-894521

$$$$

     RDKit          3D

 14 13  0  0  0  0  0  0  0  0999 V2000
    0.5019   -1.3194    0.3236 O   0  0  0  0  0  0  0  0  0  1  0  0
    0.8932   -0.0504    0.4622 C   0  0  0  0  0  0  0  0  0  2  0  0
    0.9116    0.4870    1.6988 C   0  0  0  0  0  0  0  0  0  3  0  0
    0.9632    0.9323    2.7531 O   0  0  0  0  0  0  0  0  0  4  0  0
    1.2708    0.8224   -0.6440 C   0  0  0  0  0  0  0  0  0  5  0  0
    1.1988    0.4975   -1.8034 O   0  0  0  0  0  0  0  0  0  6  0  0
    1.6271    1.8286   -0.3448 H   0  0  0  0  0  0  0  0  0  7  0  0
   -1.8651   -1.1085   -0.5093 C   0  0  0  0  0  3  0  0  0  8  0  0
   -1.9290   -0.4846   -1.8172 C   0  0  0  0  0  0  0  0  0  9  0  0
   -2.1118    0.2317   -0.5669 O   0  0  0  0  0  0  0  0  0 10  0  0
   -0.5743   -1.3450   -0.0686 H   0  0  0  0  0  0  0  0  0 11  0  0
   -2.5831   -1.7683   -0.0266 H   0  0  0  0  0  0  0  0  0 12  0  0
   -1.0005   -0.2610   -2.3288 H   0  0  0  0  0  0  0  0  0 13  0  0
   -2.8314   -0.5502   -2.4148 H   0  0  0  0  0  0  0  0  0 14  0  0
  1 11  1  0
  1  2  1  0
  2  3  1  0
  2  5  1  0
  3  4  1  0
  5  7  1  0
  5  6  1  0
  8  9  1  0
  8 10  1  0
  8 12  1  0
  9 13  1  0
  9 10  1  0
  9 14  1  0
M  RAD  1   8   2
M  END
>  <rmg_smiles>  (3) 
OCC(O)[CH]O.[CH]1CO1

>  <rmg_adjacency_list>  (3) 
multiplicity 2
1  O u0 p2 c0 {5,S} {6,S}
2  O u0 p2 c0 {7,S} {14,S}
3  O u0 p2 c0 {8,S}
4  O u0 p2 c0 {9,S}
5  C u0 p0 c0 {1,S} {6,S} {10,S} {11,S}
6  C u1 p0 c0 {1,S} {5,S} {12,S}
7  C u0 p0 c0 {2,S} {8,S} {9,S}
8  C u0 p0 c0 {3,S} {7,S} {13,S}
9  C u0 p1 c0 {4,S} {7,S}
10 H u0 p0 c0 {5,S}
11 H u0 p0 c0 {5,S}
12 H u0 p0 c0 {6,S}
13 H u0 p0 c0 {8,S}
14 H u0 p0 c0 {2,S}


>  <multiplicity>  (3) 
2

>  <reaction>  (3) 
kfir_rxn_10218

>  <type>  (3) 
ts

>  <role_mapnums>  (3) 
{"*2": 11, "*1": 8, "*3": 1, "*0": 2, "*4": 10}

>  <role_mapidx>  (3) 
{"*2": 10, "*1": 7, "*3": 0, "*0": 1, "*4": 9}

>  <ordered_mapped_smiles>  (3) 
[O:1]([CH:2]([CH2:3][OH:4])[CH:5]([OH:6])[H:7])[H:11].[C:8]1([H:12])[C:9]([H:13])([H:14])[O:10]1

>  <mol_properties>  (3) 
{"0": {"label": "*3", "atom_type": "O2s"}, "1": {"label": "*0", "atom_type": "Cs"}, "7": {"label": "*1", "atom_type": "Cs"}, "9": {"label": "*4", "atom_type": "O2s"}, "10": {"label": "*2", "atom_type": "H0"}}

>  <level_of_theory>  (3) 
wb97xd/def2tzvp

>  <lot_method>  (3) 
wb97xd

>  <lot_basis>  (3) 
def2tzvp

>  <spin_multiplicity>  (3) 
2.0

>  <optical_isomers>  (3) 
2.0

>  <modes>  (3) 
IdealGasTranslation(mass=(129.019, 'amu')),         NonlinearRotor(             inertia = ([225.814, 451.131, 557.647

>  <frequency_value>  (3) 
-1788.27

>  <frequency_units>  (3) 
cm^-1

>  <frequency_list>  (3) 
unknown

>  <arkane_path>  (3) 
/home/calvin/Dropbox/PersonalFolders/Calvin/Kfir_HAb_Converged/kfir_rxn_10218/output/rxns/TS0/arkane/output.py

>  <path_exists>  (3) 
True

>  <E0_value>  (3) 
-1295920.0

>  <E0_units>  (3) 
kJ/mol

>  <thermo_class>  (3) 
unknown

>  <Cp0_value>  (3) 
unknown

>  <Cp0_units>  (3) 
unknown

>  <CpInf_value>  (3) 
unknown

>  <CpInf_units>  (3) 
unknown

>  <Tmin_value>  (3) 
unknown

>  <Tmin_units>  (3) 
unknown

>  <Tmax_value>  (3) 
unknown

>  <Tmax_units>  (3) 
unknown

>  <polynomials>  (3) 
unknown

>  <H298_value>  (3) 
unknown

>  <H298_units>  (3) 
unknown

>  <S298_value>  (3) 
unknown

>  <S298_units>  (3) 
unknown

>  <Cp_T_value_list>  (3) 
unknown

>  <Cp_T_units>  (3) 
unknown

>  <T_list>  (3) 
unknown

>  <T_units>  (3) 
unknown

>  <yaml_path>  (3) 
unknown

>  <frequencies_cm1>  (3) 
unknown

>  <ZPE_kJmol>  (3) 
unknown

>  <E_elec_kJmol>  (3) 
unknown

>  <E0_minus_Eelec_plus_ZPE_kJmol>  (3) 
unknown

>  <rxn>  (3) 
unknown

>  <species_type>  (3) 
unknown

>  <species_folder>  (3) 
unknown

>  <frequencies_cm1_list>  (3) 
[]

>  <ts_imag_freq_cm1>  (3) 
-1809.9947

>  <ts_freq_out_path>  (3) 
/home/calvin/Dropbox/PersonalFolders/Calvin/Kfir_HAb_Converged/kfir_rxn_10218/output/rxns/TS0/geometry/freq.out

>  <E0_kJmol>  (3) 
-1.29592e+06

>  <H298_kJmol>  (3) 
unknown

$$$$

     RDKit          3D

  6  6  0  0  0  0  0  0  0  0999 V2000
    0.8244   -0.2363   -0.2765 C   0  0  0  0  0  3  0  0  0  1  0  0
   -0.5734    0.0492   -0.0604 C   0  0  0  0  0  0  0  0  0  2  0  0
    0.2695   -0.6651    0.8832 O   0  0  0  0  0  0  0  0  0  3  0  0
    1.7087    0.3935   -0.2928 H   0  0  0  0  0  0  0  0  0  4  0  0
   -0.9043    1.0205    0.2951 H   0  0  0  0  0  0  0  0  0  5  0  0
   -1.3249   -0.5618   -0.5486 H   0  0  0  0  0  0  0  0  0  6  0  0
  1  3  1  0
  1  4  1  0
  1  2  1  0
  2  5  1  0
  2  3  1  0
  2  6  1  0
M  RAD  1   1   2
M  END
>  <rmg_smiles>  (4) 
[CH]1CO1

>  <rmg_adjacency_list>  (4) 
multiplicity 2
1 O u0 p2 c0 {2,S} {3,S}
2 C u0 p0 c0 {1,S} {3,S} {4,S} {5,S}
3 C u1 p0 c0 {1,S} {2,S} {6,S}
4 H u0 p0 c0 {2,S}
5 H u0 p0 c0 {2,S}
6 H u0 p0 c0 {3,S}


>  <multiplicity>  (4) 
2

>  <reaction>  (4) 
kfir_rxn_10218

>  <type>  (4) 
r1

>  <role_mapnums>  (4) 
{}

>  <role_mapidx>  (4) 
{}

>  <ordered_mapped_smiles>  (4) 
[C:1]1([H:4])[C:2]([H:5])([H:6])[O:3]1

>  <level_of_theory>  (4) 
wb97xd/def2tzvp

>  <lot_method>  (4) 
wb97xd

>  <lot_basis>  (4) 
def2tzvp

>  <spin_multiplicity>  (4) 
2.0

>  <optical_isomers>  (4) 
2.0

>  <modes>  (4) 
IdealGasTranslation(mass=(43.0184, 'amu')),         NonlinearRotor(             inertia = ([16.6256, 21.0054, 33.2991

>  <frequency_value>  (4) 
unknown

>  <frequency_units>  (4) 
unknown

>  <frequency_list>  (4) 
unknown

>  <arkane_path>  (4) 
/home/calvin/Dropbox/PersonalFolders/Calvin/Kfir_HAb_Converged/kfir_rxn_10218/output/Species/_CH_1CO1/arkane/output.py

>  <path_exists>  (4) 
True

>  <E0_value>  (4) 
-401393.6935984024

>  <E0_units>  (4) 
kJ/mol

>  <thermo_class>  (4) 
NASA

>  <Cp0_value>  (4) 
33.257888

>  <Cp0_units>  (4) 
J/(mol*K)

>  <CpInf_value>  (4) 
133.031552

>  <CpInf_units>  (4) 
J/(mol*K)

>  <Tmin_value>  (4) 
10.0

>  <Tmin_units>  (4) 
K

>  <Tmax_value>  (4) 
3000.0

>  <Tmax_units>  (4) 
K

>  <polynomials>  (4) 
[{"name": "polynomial1", "class": "NASAPolynomial", "Tmin_value": 10.0, "Tmin_units": "K", "Tmax_value": 721.5513458630669, "Tmax_units": "K", "coeffs": [4.131880489467827, -0.009415725856436158, 7.31226071463409e-05, -9.711807937437085e-08, 4.203251087642512e-11, -48276512.98126936, 7.809877910253214]}, {"name": "polynomial2", "class": "NASAPolynomial", "Tmin_value": 721.5513458630669, "Tmin_units": "K", "Tmax_value": 3000.0, "Tmax_units": "K", "coeffs": [0.8212225728670555, 0.020286402452183078, -1.2216968009151599e-05, 3.5287271120022773e-09, -3.918358614694587e-13, -48276330.657774836, 20.654204905665793]}]

>  <H298_value>  (4) 
-95932.84382672553

>  <H298_units>  (4) 
kcal/mol

>  <S298_value>  (4) 
61.63651229301641

>  <S298_units>  (4) 
cal/(mol*K)

>  <Cp_T_value_list>  (4) 
[11.141218739924065, 13.762761265270155, 16.27907911772644, 18.434304836877708, 21.61623083220754, 23.90122210561473, 27.201743412874084, 28.78786282152739, 29.648729205023308]

>  <Cp_T_units>  (4) 
cal/(mol*K)

>  <T_list>  (4) 
[300.0, 400.0, 500.0, 600.0, 800.0, 1000.0, 1500.0, 2000.0, 2400.0]

>  <T_units>  (4) 
K

>  <yaml_path>  (4) 
/home/calvin/Dropbox/PersonalFolders/Calvin/Kfir_HAb_Converged/kfir_rxn_10218/output/Species/_CH_1CO1/_CH_1CO1.yml

>  <frequencies_cm1>  (4) 
[797.9024922720799, 825.04081825672, 955.9667603678399, 1045.97233695708, 1074.21624757824, 1129.33067175656, 1192.11551853732, 1366.2622662525198, 1518.46899587032, 3079.02574476692, 3123.4345388313595, 3172.04592791164]

>  <ZPE_kJmol>  (4) 
115.31874038024918

>  <E_elec_kJmol>  (4) 
-401509.0123387826

>  <E0_minus_Eelec_plus_ZPE_kJmol>  (4) 
0.0

>  <rxn>  (4) 
kfir_rxn_10218

>  <species_type>  (4) 
p1

>  <species_folder>  (4) 
_CH_1CO1

>  <frequencies_cm1_list>  (4) 
[797.9024922720799, 825.04081825672, 955.9667603678399, 1045.97233695708, 1074.21624757824, 1129.33067175656, 1192.11551853732, 1366.2622662525198, 1518.46899587032, 3079.02574476692, 3123.4345388313595, 3172.04592791164]

>  <E0_kJmol>  (4) 
-401394

>  <H298_kJmol>  (4) 
-401383

$$$$

     RDKit          3D

  7  6  0  0  0  0  0  0  0  0999 V2000
    0.2957    1.7744   -0.2652 O   0  0  0  0  0  1  0  0  0  1  0  0
    0.1775    0.5509   -0.0655 C   0  0  0  0  0  0  0  0  0  2  0  0
    1.3133   -0.2016    0.2938 C   0  0  0  0  0  0  0  0  0  3  0  0
    2.2819   -0.7248    0.5787 O   0  0  0  0  0  0  0  0  0  4  0  0
   -1.0599   -0.2683   -0.1587 C   0  0  0  0  0  0  0  0  0  5  0  0
   -1.0578   -1.4528    0.0574 O   0  0  0  0  0  0  0  0  0  6  0  0
   -1.9632    0.3007   -0.4391 H   0  0  0  0  0  0  0  0  0  7  0  0
  1  2  1  0
  2  3  1  0
  2  5  1  0
  3  4  1  0
  5  7  1  0
  5  6  1  0
M  RAD  1   1   2
M  END
>  <rmg_smiles>  (5) 
OCC([O])[CH]O

>  <rmg_adjacency_list>  (5) 
multiplicity 2
1 O u1 p2 c0 {4,S}
2 O u0 p2 c0 {5,S}
3 O u0 p2 c0 {6,S}
4 C u0 p0 c0 {1,S} {5,S} {6,S}
5 C u0 p0 c0 {2,S} {4,S} {7,S}
6 C u0 p1 c0 {3,S} {4,S}
7 H u0 p0 c0 {5,S}


>  <multiplicity>  (5) 
2

>  <reaction>  (5) 
kfir_rxn_10218

>  <type>  (5) 
r2

>  <role_mapnums>  (5) 
{}

>  <role_mapidx>  (5) 
{}

>  <ordered_mapped_smiles>  (5) 
[O:1][CH:2]([CH2:3][OH:4])[CH:5]([OH:6])[H:7]

>  <level_of_theory>  (5) 
wb97xd/def2tzvp

>  <lot_method>  (5) 
wb97xd

>  <lot_basis>  (5) 
def2tzvp

>  <spin_multiplicity>  (5) 
2.0

>  <optical_isomers>  (5) 
1.0

>  <modes>  (5) 
IdealGasTranslation(mass=(84.9926, 'amu')),         NonlinearRotor(             inertia = ([99.47, 137.588, 237.058

>  <frequency_value>  (5) 
unknown

>  <frequency_units>  (5) 
unknown

>  <frequency_list>  (5) 
unknown

>  <arkane_path>  (5) 
/home/calvin/Dropbox/PersonalFolders/Calvin/Kfir_HAb_Converged/kfir_rxn_10218/output/Species/_O_C[=C=O]C=O/arkane/output.py

>  <path_exists>  (5) 
True

>  <E0_value>  (5) 
-892906.1838948453

>  <E0_units>  (5) 
kJ/mol

>  <thermo_class>  (5) 
NASA

>  <Cp0_value>  (5) 
33.257888

>  <Cp0_units>  (5) 
J/(mol*K)

>  <CpInf_value>  (5) 
149.660496

>  <CpInf_units>  (5) 
J/(mol*K)

>  <Tmin_value>  (5) 
10.0

>  <Tmin_units>  (5) 
K

>  <Tmax_value>  (5) 
3000.0

>  <Tmax_units>  (5) 
K

>  <polynomials>  (5) 
[{"name": "polynomial1", "class": "NASAPolynomial", "Tmin_value": 10.0, "Tmin_units": "K", "Tmax_value": 407.6489170530302, "Tmax_units": "K", "coeffs": [3.628896791102539, 0.03606138585847559, -9.424541904986229e-05, 1.913530999638966e-07, -1.5187163130597305e-10, -107391807.52419764, 11.945000120740307]}, {"name": "polynomial2", "class": "NASAPolynomial", "Tmin_value": 407.6489170530302, "Tmin_units": "K", "Tmax_value": 3000.0, "Tmax_units": "K", "coeffs": [3.6761177126273545, 0.025472545856230305, -1.8024201907941865e-05, 5.7696349288741e-09, -6.905629850838907e-13, -107391727.24259877, 12.791471484466037]}]

>  <H298_value>  (5) 
-213405.41139991063

>  <H298_units>  (5) 
kcal/mol

>  <S298_value>  (5) 
80.61960671545428

>  <S298_units>  (5) 
cal/(mol*K)

>  <Cp_T_value_list>  (5) 
[19.676520550573166, 22.52075040037227, 25.00777037753209, 27.08100777344752, 30.18539581661342, 32.19976731773115, 34.39263254663483, 35.03936589355064, 35.449847397207364]

>  <Cp_T_units>  (5) 
cal/(mol*K)

>  <T_list>  (5) 
[300.0, 400.0, 500.0, 600.0, 800.0, 1000.0, 1500.0, 2000.0, 2400.0]

>  <T_units>  (5) 
K

>  <yaml_path>  (5) 
/home/calvin/Dropbox/PersonalFolders/Calvin/Kfir_HAb_Converged/kfir_rxn_10218/output/Species/_O_C[=C=O]C=O/_O_C=C=OC=O.yml

>  <frequencies_cm1>  (5) 
[126.38299008096831, 241.59071450382075, 468.39968619099716, 491.13475573499613, 717.414681567668, 756.5942536554695, 992.8994219662385, 1159.902315830254, 1347.1714403296908, 1512.6553428274274, 1767.3525118720358, 2183.1124648643367, 2956.990430262711]

>  <ZPE_kJmol>  (5) 
88.05475376726883

>  <E_elec_kJmol>  (5) 
-892994.2386486126

>  <E0_minus_Eelec_plus_ZPE_kJmol>  (5) 
0.0

>  <rxn>  (5) 
kfir_rxn_10218

>  <species_type>  (5) 
r0

>  <species_folder>  (5) 
_O_C[=C=O]C=O

>  <frequencies_cm1_list>  (5) 
[126.38299008096831, 241.59071450382075, 468.39968619099716, 491.13475573499613, 717.414681567668, 756.5942536554695, 992.8994219662385, 1159.902315830254, 1347.1714403296908, 1512.6553428274274, 1767.3525118720358, 2183.1124648643367, 2956.990430262711]

>  <E0_kJmol>  (5) 
-892906

>  <H298_kJmol>  (5) 
-892888

$$$$
