
     RDKit          3D

  7  7  0  0  0  0  0  0  0  0999 V2000
    0.6747   -1.6757    0.6854 O   0  0  0  0  0  0  0  0  0  1  0  0
    0.2489   -0.6653    0.2584 C   0  0  0  0  0  0  0  0  0  2  0  0
   -0.8333   -0.4835   -0.5094 O   0  0  0  0  0  0  0  0  0  3  0  0
   -0.9778    0.9160   -0.7910 N   0  0  0  0  0  0  0  0  0  4  0  0
    0.0031    1.4221   -0.1874 C   0  0  0  0  0  0  0  0  0  5  0  0
    0.8066    0.5966    0.4740 O   0  0  0  0  0  0  0  0  0  6  0  0
    0.1983    2.4944   -0.1762 H   0  0  0  0  0  0  0  0  0  7  0  0
  1  2  1  0
  2  3  1  0
  2  6  1  0
  3  4  1  0
  4  5  1  0
  5  7  1  0
  5  6  1  0
M  END
>  <rmg_smiles>  (1) 
[O][C]1O[N][CH]O1

>  <rmg_adjacency_list>  (1) 
1 O u0 p2 c0 {5,S} {6,S}
2 O u0 p2 c0 {4,S} {5,S}
3 O u0 p2 c0 {5,S}
4 N u0 p1 c0 {2,S} {6,S}
5 C u0 p0 c0 {1,S} {2,S} {3,S}
6 C u0 p0 c0 {1,S} {4,S} {7,S}
7 H u0 p0 c0 {6,S}


>  <multiplicity>  (1) 
1

>  <reaction>  (1) 
kfir_rxn_7531

>  <type>  (1) 
r1h

>  <role_mapnums>  (1) 
{"r1h_a": 5, "r1h_h": 7}

>  <role_mapidx>  (1) 
{"r1h_a": 4, "r1h_h": 6}

>  <ordered_mapped_smiles>  (1) 
[OH:1][CH:2]1[O:3][NH:4][CH:5]([H:7])[O:6]1

>  <mol_properties>  (1) 
{"4": {"label": "donator", "atom_type": "Cs"}, "6": {"label": "d_hydrogen", "atom_type": "H0"}}

>  <level_of_theory>  (1) 
wb97xd/def2tzvp

>  <lot_method>  (1) 
wb97xd

>  <lot_basis>  (1) 
def2tzvp

>  <spin_multiplicity>  (1) 
1.0

>  <optical_isomers>  (1) 
1.0

>  <modes>  (1) 
IdealGasTranslation(mass=(86.9956, 'amu')),         NonlinearRotor(             inertia = ([50.2839, 119.232, 169.516

>  <frequency_value>  (1) 
unknown

>  <frequency_units>  (1) 
unknown

>  <frequency_list>  (1) 
unknown

>  <arkane_path>  (1) 
/home/calvin/Dropbox/PersonalFolders/Calvin/Kfir_HAb_Converged/kfir_rxn_7531/output/Species/O=c1onco1/arkane/output.py

>  <path_exists>  (1) 
True

>  <E0_value>  (1) 
-936707.2903129028

>  <E0_units>  (1) 
kJ/mol

>  <thermo_class>  (1) 
NASA

>  <Cp0_value>  (1) 
33.257888

>  <Cp0_units>  (1) 
J/(mol*K)

>  <CpInf_value>  (1) 
157.97496800000002

>  <CpInf_units>  (1) 
J/(mol*K)

>  <Tmin_value>  (1) 
10.0

>  <Tmin_units>  (1) 
K

>  <Tmax_value>  (1) 
3000.0

>  <Tmax_units>  (1) 
K

>  <polynomials>  (1) 
[{"name": "polynomial1", "class": "NASAPolynomial", "Tmin_value": 10.0, "Tmin_units": "K", "Tmax_value": 608.8052119367155, "Tmax_units": "K", "coeffs": [4.0808003118904725, -0.0074123095756523346, 0.00012052449958569588, -2.0531762841179853e-07, 1.1013790928921035e-10, -112659863.2371936, 9.709907909150276]}, {"name": "polynomial2", "class": "NASAPolynomial", "Tmin_value": 608.8052119367155, "Tmin_units": "K", "Tmax_value": 3000.0, "Tmax_units": "K", "coeffs": [2.0843669733044474, 0.02743865544681618, -1.8891698254612702e-05, 5.987084496003086e-09, -7.115743174908312e-13, -112660022.92626612, 15.042871930194538]}]

>  <H298_value>  (1) 
-223875.2388492694

>  <H298_units>  (1) 
kcal/mol

>  <S298_value>  (1) 
68.57305751555727

>  <S298_units>  (1) 
cal/(mol*K)

>  <Cp_T_value_list>  (1) 
[16.00268282650895, 20.02905168966895, 23.299372637492834, 25.72935562322103, 29.248760228023873, 31.610164618067433, 34.45834804535843, 35.58365832362076, 36.32233151472089]

>  <Cp_T_units>  (1) 
cal/(mol*K)

>  <T_list>  (1) 
[300.0, 400.0, 500.0, 600.0, 800.0, 1000.0, 1500.0, 2000.0, 2400.0]

>  <T_units>  (1) 
K

>  <yaml_path>  (1) 
/home/calvin/Dropbox/PersonalFolders/Calvin/Kfir_HAb_Converged/kfir_rxn_7531/output/Species/O=c1onco1/O=c1onco1.yml

>  <frequencies_cm1>  (1) 
[243.02261047479996, 520.5518221826, 611.07242267084, 751.5503413620801, 775.625991894, 893.18191358708, 894.34243410616, 944.34095422108, 979.918805164, 1107.3082498353199, 1207.5937034485999, 1306.54009492448, 1681.80024170652, 1945.8014923339197, 3258.90642522432]

>  <ZPE_kJmol>  (1) 
102.40968554023124

>  <E_elec_kJmol>  (1) 
-936809.6999984428

>  <E0_minus_Eelec_plus_ZPE_kJmol>  (1) 
0.0

>  <rxn>  (1) 
kfir_rxn_7531

>  <species_type>  (1) 
r1

>  <species_folder>  (1) 
O=c1onco1

>  <frequencies_cm1_list>  (1) 
[243.02261047479996, 520.5518221826, 611.07242267084, 751.5503413620801, 775.625991894, 893.18191358708, 894.34243410616, 944.34095422108, 979.918805164, 1107.3082498353199, 1207.5937034485999, 1306.54009492448, 1681.80024170652, 1945.8014923339197, 3258.90642522432]

>  <E0_kJmol>  (1) 
-936707

>  <H298_kJmol>  (1) 
-936694

$$$$

     RDKit          3D

  8  7  0  0  0  0  0  0  0  0999 V2000
   -0.4687    1.0439    0.9565 C   0  0  0  0  0  0  0  0  0  1  0  0
   -0.4978   -0.3566    0.6333 O   0  0  0  0  0  0  0  0  0  2  0  0
    0.1728   -0.7130   -0.4406 C   0  0  0  0  0  0  0  0  0  3  0  0
    0.8053   -0.0341   -1.1816 O   0  0  0  0  0  0  0  0  0  4  0  0
   -1.0656    1.1465    1.8571 H   0  0  0  0  0  0  0  0  0  5  0  0
    0.5568    1.3644    1.1340 H   0  0  0  0  0  0  0  0  0  6  0  0
   -0.8983    1.6234    0.1405 H   0  0  0  0  0  0  0  0  0  7  0  0
    0.0597   -1.7903   -0.5627 H   0  0  0  0  0  0  0  0  0  8  0  0
  1  5  1  0
  1  7  1  0
  1  2  1  0
  1  6  1  0
  2  3  1  0
  3  4  1  0
  3  8  1  0
M  END
>  <rmg_smiles>  (2) 
CO[CH]O

>  <rmg_adjacency_list>  (2) 
1 O u0 p2 c0 {3,S} {4,S}
2 O u0 p2 c0 {4,S}
3 C u0 p0 c0 {1,S} {5,S} {6,S} {7,S}
4 C u0 p0 c0 {1,S} {2,S} {8,S}
5 H u0 p0 c0 {3,S}
6 H u0 p0 c0 {3,S}
7 H u0 p0 c0 {3,S}
8 H u0 p0 c0 {4,S}


>  <multiplicity>  (2) 
1

>  <reaction>  (2) 
kfir_rxn_7531

>  <type>  (2) 
r2h

>  <role_mapnums>  (2) 
{"r2h_a": 3, "r2h_h": 8}

>  <role_mapidx>  (2) 
{"r2h_a": 2, "r2h_h": 7}

>  <ordered_mapped_smiles>  (2) 
[C:1]([O:2][CH:3]([OH:4])[H:8])([H:5])([H:6])[H:7]

>  <mol_properties>  (2) 
{"2": {"label": "acceptor", "atom_type": "Cs"}, "7": {"label": "a_hydrogen", "atom_type": "H0"}}

>  <level_of_theory>  (2) 
wb97xd/def2tzvp

>  <lot_method>  (2) 
wb97xd

>  <lot_basis>  (2) 
def2tzvp

>  <spin_multiplicity>  (2) 
1.0

>  <optical_isomers>  (2) 
1.0

>  <modes>  (2) 
IdealGasTranslation(mass=(60.0211, 'amu')),         NonlinearRotor(inertia=([24.729, 73.0958, 94.65

>  <frequency_value>  (2) 
unknown

>  <frequency_units>  (2) 
unknown

>  <frequency_list>  (2) 
unknown

>  <arkane_path>  (2) 
/home/calvin/Dropbox/PersonalFolders/Calvin/Kfir_HAb_Converged/kfir_rxn_7531/output/Species/COC=O/arkane/output.py

>  <path_exists>  (2) 
True

>  <E0_value>  (2) 
-600592.1582630116

>  <E0_units>  (2) 
kJ/mol

>  <thermo_class>  (2) 
NASA

>  <Cp0_value>  (2) 
33.257888

>  <Cp0_units>  (2) 
J/(mol*K)

>  <CpInf_value>  (2) 
178.76114800000002

>  <CpInf_units>  (2) 
J/(mol*K)

>  <Tmin_value>  (2) 
10.0

>  <Tmin_units>  (2) 
K

>  <Tmax_value>  (2) 
3000.0

>  <Tmax_units>  (2) 
K

>  <polynomials>  (2) 
[{"name": "polynomial1", "class": "NASAPolynomial", "Tmin_value": 10.0, "Tmin_units": "K", "Tmax_value": 446.8682424165434, "Tmax_units": "K", "coeffs": [3.8303909482582164, 0.017962586672145387, -5.0807266950393285e-05, 1.526375522622236e-07, -1.366400501699918e-10, -72234551.5846075, 8.264578046885093]}, {"name": "polynomial2", "class": "NASAPolynomial", "Tmin_value": 446.8682424165434, "Tmin_units": "K", "Tmax_value": 3000.0, "Tmax_units": "K", "coeffs": [0.79642382642141, 0.02617572291823835, -1.4785486749267448e-05, 4.029175028229061e-09, -4.2699428447430336e-13, -72234091.27574773, 22.574300603898823]}]

>  <H298_value>  (2) 
-143541.5374876723

>  <H298_units>  (2) 
kcal/mol

>  <S298_value>  (2) 
68.08295640414251

>  <S298_units>  (2) 
cal/(mol*K)

>  <Cp_T_value_list>  (2) 
[15.223874598496813, 18.197010824390393, 21.193305621143107, 23.834645576790027, 28.143477020838876, 31.37568695939235, 36.22572163686708, 38.56653994333812, 39.7171540328222]

>  <Cp_T_units>  (2) 
cal/(mol*K)

>  <T_list>  (2) 
[300.0, 400.0, 500.0, 600.0, 800.0, 1000.0, 1500.0, 2000.0, 2400.0]

>  <T_units>  (2) 
K

>  <yaml_path>  (2) 
/home/calvin/Dropbox/PersonalFolders/Calvin/Kfir_HAb_Converged/kfir_rxn_7531/output/Species/COC=O/COC=O.yml

>  <frequencies_cm1>  (2) 
[305.6202873462506, 342.64773671596265, 779.8614552342975, 956.2610052631659, 1045.3232489890886, 1171.1215868145941, 1188.9303685144246, 1251.3480632706967, 1390.8777569640272, 1462.376880894096, 1475.4613740322854, 1484.420210371538, 1813.1621864178442, 3025.767310085416, 3034.142853477751, 3111.9709369656907, 3146.9237720728865]

>  <ZPE_kJmol>  (2) 
161.41346952856597

>  <E_elec_kJmol>  (2) 
-600753.5717325401

>  <E0_minus_Eelec_plus_ZPE_kJmol>  (2) 
0.0

>  <rxn>  (2) 
kfir_rxn_7531

>  <species_type>  (2) 
p0

>  <species_folder>  (2) 
COC=O

>  <frequencies_cm1_list>  (2) 
[305.6202873462506, 342.64773671596265, 779.8614552342975, 956.2610052631659, 1045.3232489890886, 1171.1215868145941, 1188.9303685144246, 1251.3480632706967, 1390.8777569640272, 1462.376880894096, 1475.4613740322854, 1484.420210371538, 1813.1621864178442, 3025.767310085416, 3034.142853477751, 3111.9709369656907, 3146.9237720728865]

>  <E0_kJmol>  (2) 
-600592

>  <H298_kJmol>  (2) 
-600578

$$$$

     RDKit          3D

 14 13  0  0  0  0  0  0  0  0999 V2000
   -0.2297    3.9078    1.2086 C   0  0  0  0  0  0  0  0  0  1  0  0
   -0.2588    2.5072    0.8854 O   0  0  0  0  0  0  0  0  0  2  0  0
    0.4118    2.1508   -0.1885 C   0  0  0  0  0  0  0  0  0  3  0  0
    1.0443    2.8298   -0.9295 O   0  0  0  0  0  0  0  0  0  4  0  0
   -0.8266    4.0104    2.1092 H   0  0  0  0  0  0  0  0  0  5  0  0
    0.7958    4.2283    1.3861 H   0  0  0  0  0  0  0  0  0  6  0  0
   -0.6593    4.4873    0.3927 H   0  0  0  0  0  0  0  0  0  7  0  0
    0.6635   -3.7441    0.5359 O   0  0  0  0  0  0  0  0  0  8  0  0
    0.2377   -2.7337    0.1089 C   0  0  0  0  0  0  0  0  0  9  0  0
   -0.8445   -2.5519   -0.6589 O   0  0  0  0  0  0  0  0  0 10  0  0
   -0.9890   -1.1523   -0.9406 N   0  0  0  0  0  0  0  0  0 11  0  0
   -0.0081   -0.6463   -0.3369 C   0  0  0  0  0  3  0  0  0 12  0  0
    0.7954   -1.4717    0.3245 O   0  0  0  0  0  0  0  0  0 13  0  0
    0.2901    0.9919   -0.3199 H   0  0  0  0  0  0  0  0  0 14  0  0
  1  5  1  0
  1  7  1  0
  1  2  1  0
  1  6  1  0
  2  3  1  0
  3 14  1  0
  3  4  1  0
  8  9  1  0
  9 10  1  0
  9 13  1  0
 10 11  1  0
 11 12  1  0
 12 13  1  0
M  RAD  1  12   2
M  END
>  <rmg_smiles>  (3) 
[O][C]1O[N][C]O1.CO[CH][O]

>  <rmg_adjacency_list>  (3) 
multiplicity 2
1  O u0 p2 c0 {7,S} {9,S}
2  O u0 p2 c0 {6,S} {8,S}
3  O u0 p2 c0 {8,S} {10,S}
4  O u0 p2 c0 {8,S}
5  O u0 p2 c0 {9,S}
6  N u0 p1 c0 {2,S} {10,S}
7  C u0 p0 c0 {1,S} {11,S} {12,S} {13,S}
8  C u0 p0 c0 {2,S} {3,S} {4,S}
9  C u0 p0 c0 {1,S} {5,S} {14,S}
10 C u1 p1 c0 {3,S} {6,S}
11 H u0 p0 c0 {7,S}
12 H u0 p0 c0 {7,S}
13 H u0 p0 c0 {7,S}
14 H u0 p0 c0 {9,S}


>  <multiplicity>  (3) 
2

>  <reaction>  (3) 
kfir_rxn_7531

>  <type>  (3) 
ts

>  <role_mapnums>  (3) 
{"*2": 14, "*1": 12, "*3": 3, "*0": 2, "*4": 13}

>  <role_mapidx>  (3) 
{"*2": 13, "*1": 11, "*3": 2, "*0": 1, "*4": 12}

>  <ordered_mapped_smiles>  (3) 
[C:1]([O:2][CH:3]([OH:4])[H:14])([H:5])([H:6])[H:7].[OH:8][CH:9]1[O:10][NH:11][CH:12][O:13]1

>  <mol_properties>  (3) 
{"1": {"label": "*0", "atom_type": "O2s"}, "2": {"label": "*3", "atom_type": "Cs"}, "11": {"label": "*1", "atom_type": "C2s"}, "12": {"label": "*4", "atom_type": "O2s"}, "13": {"label": "*2", "atom_type": "H0"}}

>  <level_of_theory>  (3) 
wb97xd/def2tzvp

>  <lot_method>  (3) 
wb97xd

>  <lot_basis>  (3) 
def2tzvp

>  <spin_multiplicity>  (3) 
2.0

>  <optical_isomers>  (3) 
2.0

>  <modes>  (3) 
IdealGasTranslation(mass=(146.009, 'amu')),         NonlinearRotor(             inertia = ([138.209, 1064.7, 1080.12

>  <frequency_value>  (3) 
-202.591

>  <frequency_units>  (3) 
cm^-1

>  <frequency_list>  (3) 
unknown

>  <arkane_path>  (3) 
/home/calvin/Dropbox/PersonalFolders/Calvin/Kfir_HAb_Converged/kfir_rxn_7531/output/rxns/TS0/arkane/output.py

>  <path_exists>  (3) 
True

>  <E0_value>  (3) 
-1535470.0

>  <E0_units>  (3) 
kJ/mol

>  <thermo_class>  (3) 
unknown

>  <Cp0_value>  (3) 
unknown

>  <Cp0_units>  (3) 
unknown

>  <CpInf_value>  (3) 
unknown

>  <CpInf_units>  (3) 
unknown

>  <Tmin_value>  (3) 
unknown

>  <Tmin_units>  (3) 
unknown

>  <Tmax_value>  (3) 
unknown

>  <Tmax_units>  (3) 
unknown

>  <polynomials>  (3) 
unknown

>  <H298_value>  (3) 
unknown

>  <H298_units>  (3) 
unknown

>  <S298_value>  (3) 
unknown

>  <S298_units>  (3) 
unknown

>  <Cp_T_value_list>  (3) 
unknown

>  <Cp_T_units>  (3) 
unknown

>  <T_list>  (3) 
unknown

>  <T_units>  (3) 
unknown

>  <yaml_path>  (3) 
unknown

>  <frequencies_cm1>  (3) 
unknown

>  <ZPE_kJmol>  (3) 
unknown

>  <E_elec_kJmol>  (3) 
unknown

>  <E0_minus_Eelec_plus_ZPE_kJmol>  (3) 
unknown

>  <rxn>  (3) 
unknown

>  <species_type>  (3) 
unknown

>  <species_folder>  (3) 
unknown

>  <frequencies_cm1_list>  (3) 
[]

>  <ts_imag_freq_cm1>  (3) 
-205.0516

>  <ts_freq_out_path>  (3) 
/home/calvin/Dropbox/PersonalFolders/Calvin/Kfir_HAb_Converged/kfir_rxn_7531/output/rxns/TS0/geometry/freq.out

>  <E0_kJmol>  (3) 
-1.53547e+06

>  <H298_kJmol>  (3) 
unknown

$$$$

     RDKit          3D

  6  6  0  0  0  0  0  0  0  0999 V2000
    1.9541    0.0501   -0.0228 O   0  0  0  0  0  0  0  0  0  1  0  0
    0.7820   -0.0012   -0.0063 C   0  0  0  0  0  0  0  0  0  2  0  0
   -0.0015   -1.0746    0.1445 O   0  0  0  0  0  0  0  0  0  3  0  0
   -1.3876   -0.6598    0.1002 N   0  0  0  0  0  0  0  0  0  4  0  0
   -1.2725    0.5741   -0.0667 C   0  0  0  0  0  3  0  0  0  5  0  0
   -0.0744    1.1115   -0.1488 O   0  0  0  0  0  0  0  0  0  6  0  0
  1  2  1  0
  2  3  1  0
  2  6  1  0
  3  4  1  0
  4  5  1  0
  5  6  1  0
M  RAD  1   5   2
M  END
>  <rmg_smiles>  (4) 
[O][C]1O[N][C]O1

>  <rmg_adjacency_list>  (4) 
multiplicity 2
1 O u0 p2 c0 {4,S} {5,S}
2 O u0 p2 c0 {5,S} {6,S}
3 O u0 p2 c0 {5,S}
4 N u0 p1 c0 {1,S} {6,S}
5 C u0 p0 c0 {1,S} {2,S} {3,S}
6 C u1 p1 c0 {2,S} {4,S}


>  <multiplicity>  (4) 
2

>  <reaction>  (4) 
kfir_rxn_7531

>  <type>  (4) 
r1

>  <role_mapnums>  (4) 
{}

>  <role_mapidx>  (4) 
{}

>  <ordered_mapped_smiles>  (4) 
[OH:1][CH:2]1[O:3][NH:4][CH:5][O:6]1

>  <level_of_theory>  (4) 
wb97xd/def2tzvp

>  <lot_method>  (4) 
wb97xd

>  <lot_basis>  (4) 
def2tzvp

>  <spin_multiplicity>  (4) 
2.0

>  <optical_isomers>  (4) 
1.0

>  <modes>  (4) 
IdealGasTranslation(mass=(85.9878, 'amu')),         NonlinearRotor(             inertia = ([48.8815, 114.954, 163.836

>  <frequency_value>  (4) 
unknown

>  <frequency_units>  (4) 
unknown

>  <frequency_list>  (4) 
unknown

>  <arkane_path>  (4) 
/home/calvin/Dropbox/PersonalFolders/Calvin/Kfir_HAb_Converged/kfir_rxn_7531/output/Species/O=C1ON=_C_O1/arkane/output.py

>  <path_exists>  (4) 
True

>  <E0_value>  (4) 
-934896.9464513744

>  <E0_units>  (4) 
kJ/mol

>  <thermo_class>  (4) 
NASA

>  <Cp0_value>  (4) 
33.257888

>  <Cp0_units>  (4) 
J/(mol*K)

>  <CpInf_value>  (4) 
133.031552

>  <CpInf_units>  (4) 
J/(mol*K)

>  <Tmin_value>  (4) 
10.0

>  <Tmin_units>  (4) 
K

>  <Tmax_value>  (4) 
3000.0

>  <Tmax_units>  (4) 
K

>  <polynomials>  (4) 
[{"name": "polynomial1", "class": "NASAPolynomial", "Tmin_value": 10.0, "Tmin_units": "K", "Tmax_value": 618.1691231188026, "Tmax_units": "K", "coeffs": [3.9494574698410436, 0.002790151676142514, 6.517929017976075e-05, -1.1658111218497629e-07, 6.200179398355891e-11, -112442127.74360716, 9.90895870836399]}, {"name": "polynomial2", "class": "NASAPolynomial", "Tmin_value": 618.1691231188026, "Tmin_units": "K", "Tmax_value": 3000.0, "Tmax_units": "K", "coeffs": [2.4119163150663327, 0.025087231568001106, -1.8887897423174338e-05, 6.395002588728779e-09, -8.004673105851855e-13, -112442173.58199395, 14.678858735866598]}]

>  <H298_value>  (4) 
-223442.39849616357

>  <H298_units>  (4) 
kcal/mol

>  <S298_value>  (4) 
70.00689451764389

>  <S298_units>  (4) 
cal/(mol*K)

>  <Cp_T_value_list>  (4) 
[15.911887542521315, 19.117441852048962, 21.74367362914721, 23.731230384890747, 26.508971329552, 28.229829769814874, 29.958653131706154, 30.577809161270157, 31.147304717694034]

>  <Cp_T_units>  (4) 
cal/(mol*K)

>  <T_list>  (4) 
[300.0, 400.0, 500.0, 600.0, 800.0, 1000.0, 1500.0, 2000.0, 2400.0]

>  <T_units>  (4) 
K

>  <yaml_path>  (4) 
/home/calvin/Dropbox/PersonalFolders/Calvin/Kfir_HAb_Converged/kfir_rxn_7531/output/Species/O=C1ON=_C_O1/O=C1ON=_C_O1.yml

>  <frequencies_cm1>  (4) 
[243.64750613892, 512.44191251968, 550.60861692824, 696.3329124039599, 758.6645381536, 772.20623320464, 860.3989256694, 938.2774061835198, 1064.4170595265998, 1261.4995382106, 1645.00006737664, 1961.8496370267599]

>  <ZPE_kJmol>  (4) 
67.38174214097845

>  <E_elec_kJmol>  (4) 
-934964.3281935152

>  <E0_minus_Eelec_plus_ZPE_kJmol>  (4) 
0.0

>  <rxn>  (4) 
kfir_rxn_7531

>  <species_type>  (4) 
p1

>  <species_folder>  (4) 
O=C1ON=_C_O1

>  <frequencies_cm1_list>  (4) 
[243.64750613892, 512.44191251968, 550.60861692824, 696.3329124039599, 758.6645381536, 772.20623320464, 860.3989256694, 938.2774061835198, 1064.4170595265998, 1261.4995382106, 1645.00006737664, 1961.8496370267599]

>  <E0_kJmol>  (4) 
-934897

>  <H298_kJmol>  (4) 
-934883

$$$$

     RDKit          3D

  7  6  0  0  0  0  0  0  0  0999 V2000
   -0.8091   -0.2139    0.0047 C   0  0  0  0  0  0  0  0  0  1  0  0
    0.4816   -0.7996   -0.2919 O   0  0  0  0  0  0  0  0  0  2  0  0
    0.7879   -1.8806    0.3763 C   0  0  0  0  0  3  0  0  0  3  0  0
    0.1844   -2.4785    1.1986 O   0  0  0  0  0  0  0  0  0  4  0  0
   -0.8513    0.0697    1.0553 H   0  0  0  0  0  0  0  0  0  5  0  0
   -0.8872    0.6598   -0.6347 H   0  0  0  0  0  0  0  0  0  6  0  0
   -1.5981   -0.9302   -0.2198 H   0  0  0  0  0  0  0  0  0  7  0  0
  1  6  1  0
  1  5  1  0
  1  7  1  0
  1  2  1  0
  2  3  1  0
  3  4  1  0
M  RAD  1   3   2
M  END
>  <rmg_smiles>  (5) 
CO[C]O

>  <rmg_adjacency_list>  (5) 
multiplicity 2
1 O u0 p2 c0 {3,S} {4,S}
2 O u0 p2 c0 {4,S}
3 C u0 p0 c0 {1,S} {5,S} {6,S} {7,S}
4 C u1 p1 c0 {1,S} {2,S}
5 H u0 p0 c0 {3,S}
6 H u0 p0 c0 {3,S}
7 H u0 p0 c0 {3,S}


>  <multiplicity>  (5) 
2

>  <reaction>  (5) 
kfir_rxn_7531

>  <type>  (5) 
r2

>  <role_mapnums>  (5) 
{}

>  <role_mapidx>  (5) 
{}

>  <ordered_mapped_smiles>  (5) 
[C:1]([O:2][CH:3][OH:4])([H:5])([H:6])[H:7]

>  <level_of_theory>  (5) 
wb97xd/def2tzvp

>  <lot_method>  (5) 
wb97xd

>  <lot_basis>  (5) 
def2tzvp

>  <spin_multiplicity>  (5) 
2.0

>  <optical_isomers>  (5) 
1.0

>  <modes>  (5) 
IdealGasTranslation(mass=(59.0133, 'amu')),         NonlinearRotor(             inertia = ([21.6292, 74.414, 92.835

>  <frequency_value>  (5) 
unknown

>  <frequency_units>  (5) 
unknown

>  <frequency_list>  (5) 
unknown

>  <arkane_path>  (5) 
/home/calvin/Dropbox/PersonalFolders/Calvin/Kfir_HAb_Converged/kfir_rxn_7531/output/Species/CO_C_=O/arkane/output.py

>  <path_exists>  (5) 
True

>  <E0_value>  (5) 
-598869.8022730364

>  <E0_units>  (5) 
kJ/mol

>  <thermo_class>  (5) 
NASA

>  <Cp0_value>  (5) 
33.257888

>  <Cp0_units>  (5) 
J/(mol*K)

>  <CpInf_value>  (5) 
149.660496

>  <CpInf_units>  (5) 
J/(mol*K)

>  <Tmin_value>  (5) 
10.0

>  <Tmin_units>  (5) 
K

>  <Tmax_value>  (5) 
3000.0

>  <Tmax_units>  (5) 
K

>  <polynomials>  (5) 
[{"name": "polynomial1", "class": "NASAPolynomial", "Tmin_value": 10.0, "Tmin_units": "K", "Tmax_value": 421.14526784985065, "Tmax_units": "K", "coeffs": [3.731649637365627, 0.028612369849040538, -0.0001249509619801376, 3.223904626896669e-07, -2.7386687030034987e-10, -72027399.3348211, 8.888856586088835]}, {"name": "polynomial2", "class": "NASAPolynomial", "Tmin_value": 421.14526784985065, "Tmin_units": "K", "Tmax_value": 3000.0, "Tmax_units": "K", "coeffs": [1.7228249232568404, 0.022496147980447544, -1.3426210859273218e-05, 3.790571746807964e-09, -4.1148428429239077e-13, -72027006.69233628, 19.49586749532218]}]

>  <H298_value>  (5) 
-143129.7647800471

>  <H298_units>  (5) 
kcal/mol

>  <S298_value>  (5) 
70.40823280369055

>  <S298_units>  (5) 
cal/(mol*K)

>  <Cp_T_value_list>  (5) 
[15.01532210112714, 17.500217585681906, 19.996165855324, 22.162346208918574, 25.633368392258575, 28.16239147077497, 31.731937796284797, 33.28790052709973, 34.0356972459687]

>  <Cp_T_units>  (5) 
cal/(mol*K)

>  <T_list>  (5) 
[300.0, 400.0, 500.0, 600.0, 800.0, 1000.0, 1500.0, 2000.0, 2400.0]

>  <T_units>  (5) 
K

>  <yaml_path>  (5) 
/home/calvin/Dropbox/PersonalFolders/Calvin/Kfir_HAb_Converged/kfir_rxn_7531/output/Species/CO_C_=O/CO_C_=O.yml

>  <frequencies_cm1>  (5) 
[278.0167073736397, 760.1482218798358, 918.782379593141, 1148.9029537482318, 1161.5444899978206, 1199.7602712163923, 1448.642542564231, 1473.4339872064775, 1477.524697661026, 1857.5602237751632, 3038.883954271377, 3125.8378708136024, 3159.908979643554]

>  <ZPE_kJmol>  (5) 
125.90069983275411

>  <E_elec_kJmol>  (5) 
-598995.7029728692

>  <E0_minus_Eelec_plus_ZPE_kJmol>  (5) 
0.0

>  <rxn>  (5) 
kfir_rxn_7531

>  <species_type>  (5) 
r0

>  <species_folder>  (5) 
CO_C_=O

>  <frequencies_cm1_list>  (5) 
[278.0167073736397, 760.1482218798358, 918.782379593141, 1148.9029537482318, 1161.5444899978206, 1199.7602712163923, 1448.642542564231, 1473.4339872064775, 1477.524697661026, 1857.5602237751632, 3038.883954271377, 3125.8378708136024, 3159.908979643554]

>  <E0_kJmol>  (5) 
-598870

>  <H298_kJmol>  (5) 
-598855

$$$$
