
     RDKit          3D

  7  6  0  0  0  0  0  0  0  0999 V2000
   -2.2255   -0.9050   -0.3160 O   0  0  0  0  0  0  0  0  0  1  0  0
   -1.1045   -1.0877   -0.0432 C   0  0  0  0  0  0  0  0  0  2  0  0
    0.0364   -0.0416    0.0244 C   0  0  0  0  0  0  0  0  0  3  0  0
    0.7373   -0.1811    1.6383 Cl  0  0  0  0  0  0  0  0  0  4  0  0
   -0.5369    1.5930   -0.2805 Cl  0  0  0  0  0  0  0  0  0  5  0  0
    1.2019   -0.5402   -1.2171 Cl  0  0  0  0  0  0  0  0  0  6  0  0
   -0.7497   -2.0758    0.2498 H   0  0  0  0  0  0  0  0  0  7  0  0
  1  2  1  0
  2  7  1  0
  2  3  1  0
  3  4  1  0
  3  5  1  0
  3  6  1  0
M  END
>  <rmg_smiles>  (1) 
O[CH]C(Cl)(Cl)Cl

>  <rmg_adjacency_list>  (1) 
1 Cl u0 p3 c0 {5,S}
2 Cl u0 p3 c0 {5,S}
3 Cl u0 p3 c0 {5,S}
4 O  u0 p2 c0 {6,S}
5 C  u0 p0 c0 {1,S} {2,S} {3,S} {6,S}
6 C  u0 p0 c0 {4,S} {5,S} {7,S}
7 H  u0 p0 c0 {6,S}


>  <multiplicity>  (1) 
1

>  <reaction>  (1) 
kfir_rxn_13503

>  <type>  (1) 
r1h

>  <role_mapnums>  (1) 
{"r1h_a": 2, "r1h_h": 7}

>  <role_mapidx>  (1) 
{"r1h_a": 1, "r1h_h": 6}

>  <ordered_mapped_smiles>  (1) 
[OH:1][CH:2]([C:3]([Cl:4])([Cl:5])[Cl:6])[H:7]

>  <mol_properties>  (1) 
{"1": {"label": "donator", "atom_type": "Cs"}, "6": {"label": "d_hydrogen", "atom_type": "H0"}}

>  <level_of_theory>  (1) 
wb97xd/def2tzvp

>  <lot_method>  (1) 
wb97xd

>  <lot_basis>  (1) 
def2tzvp

>  <spin_multiplicity>  (1) 
1.0

>  <optical_isomers>  (1) 
1.0

>  <modes>  (1) 
IdealGasTranslation(mass=(145.909, 'amu')),         NonlinearRotor(             inertia = ([273.278, 306.314, 329.392

>  <frequency_value>  (1) 
unknown

>  <frequency_units>  (1) 
unknown

>  <frequency_list>  (1) 
unknown

>  <arkane_path>  (1) 
/home/calvin/Dropbox/PersonalFolders/Calvin/Kfir_HAb_Converged/kfir_rxn_13503/output/Species/O=CC[Cl][Cl]Cl/arkane/output.py

>  <path_exists>  (1) 
True

>  <E0_value>  (1) 
-4023892.994687522

>  <E0_units>  (1) 
kJ/mol

>  <thermo_class>  (1) 
NASA

>  <Cp0_value>  (1) 
33.257888

>  <Cp0_units>  (1) 
J/(mol*K)

>  <CpInf_value>  (1) 
153.817732

>  <CpInf_units>  (1) 
J/(mol*K)

>  <Tmin_value>  (1) 
10.0

>  <Tmin_units>  (1) 
K

>  <Tmax_value>  (1) 
3000.0

>  <Tmax_units>  (1) 
K

>  <polynomials>  (1) 
[{"name": "polynomial1", "class": "NASAPolynomial", "Tmin_value": 10.0, "Tmin_units": "K", "Tmax_value": 392.2581887869959, "Tmax_units": "K", "coeffs": [3.7373084262740592, 0.02035764258876151, 0.00012122605582131573, -4.640599826056767e-07, 4.5049695500558086e-10, -483962542.46642566, 12.100844359914927]}, {"name": "polynomial2", "class": "NASAPolynomial", "Tmin_value": 392.2581887869959, "Tmin_units": "K", "Tmax_value": 3000.0, "Tmax_units": "K", "coeffs": [7.480156483897495, 0.01895868478815295, -1.4026466263912767e-05, 4.771828342710903e-09, -6.049905312972637e-13, -483963118.9689096, -6.059205589177282]}]

>  <H298_value>  (1) 
-961728.7734552704

>  <H298_units>  (1) 
kcal/mol

>  <S298_value>  (1) 
82.74033079105784

>  <S298_units>  (1) 
cal/(mol*K)

>  <Cp_T_value_list>  (1) 
[23.59678955265632, 26.05089622486369, 27.843841155203794, 29.327486954036896, 31.528100046832087, 32.94631949574581, 34.578964329832274, 35.34532769748381, 35.933016613207776]

>  <Cp_T_units>  (1) 
cal/(mol*K)

>  <T_list>  (1) 
[300.0, 400.0, 500.0, 600.0, 800.0, 1000.0, 1500.0, 2000.0, 2400.0]

>  <T_units>  (1) 
K

>  <yaml_path>  (1) 
/home/calvin/Dropbox/PersonalFolders/Calvin/Kfir_HAb_Converged/kfir_rxn_13503/output/Species/O=CC[Cl][Cl]Cl/O=CCClClCl.yml

>  <frequencies_cm1>  (1) 
[196.39995238511773, 243.7670319937604, 267.48278818072527, 316.0378229268397, 317.9111119232689, 446.2549760136967, 632.8733054771637, 743.8573752284025, 857.8822273400677, 1011.26742281135, 1032.9662081596734, 1375.4427419023455, 1859.166356325976, 2950.4577548871584]

>  <ZPE_kJmol>  (1) 
73.28186196203265

>  <E_elec_kJmol>  (1) 
-4023966.276549483

>  <E0_minus_Eelec_plus_ZPE_kJmol>  (1) 
0.0

>  <rxn>  (1) 
kfir_rxn_13503

>  <species_type>  (1) 
r1

>  <species_folder>  (1) 
O=CC[Cl][Cl]Cl

>  <frequencies_cm1_list>  (1) 
[196.39995238511773, 243.7670319937604, 267.48278818072527, 316.0378229268397, 317.9111119232689, 446.2549760136967, 632.8733054771637, 743.8573752284025, 857.8822273400677, 1011.26742281135, 1032.9662081596734, 1375.4427419023455, 1859.166356325976, 2950.4577548871584]

>  <E0_kJmol>  (1) 
-4.02389e+06

>  <H298_kJmol>  (1) 
-4.02387e+06

$$$$

     RDKit          3D

  8  8  0  0  0  0  0  0  0  0999 V2000
   -0.5725    0.2186   -1.0984 C   0  0  0  0  0  0  0  0  0  1  0  0
    0.8803    0.1269   -1.1196 C   0  0  0  0  0  0  0  0  0  2  0  0
    1.4918   -0.0070    0.0159 N   0  0  0  0  0  0  0  0  0  3  0  0
    0.6428   -0.2536    1.0737 C   0  0  0  0  0  2  0  0  0  4  0  0
   -0.9933   -0.0736    0.5900 S   0  0  0  0  0  0  0  0  0  5  0  0
   -1.1473   -0.3283   -1.8431 H   0  0  0  0  0  0  0  0  0  6  0  0
    1.4467    0.2439   -2.0384 H   0  0  0  0  0  0  0  0  0  7  0  0
   -0.7964    1.2452   -1.3810 H   0  0  0  0  0  0  0  0  0  8  0  0
  1  8  1  0
  1  5  1  0
  1  6  1  0
  1  2  1  0
  2  3  1  0
  2  7  1  0
  3  4  1  0
  4  5  1  0
M  RAD  1   4   3
M  END
>  <rmg_smiles>  (2) 
[C]1[N][CH]CS1

>  <rmg_adjacency_list>  (2) 
1 S u0 p2 c0 {3,S} {5,S}
2 N u0 p1 c0 {4,S} {5,S}
3 C u0 p0 c0 {1,S} {4,S} {6,S} {7,S}
4 C u0 p0 c0 {2,S} {3,S} {8,S}
5 C u0 p1 c0 {1,S} {2,S}
6 H u0 p0 c0 {3,S}
7 H u0 p0 c0 {3,S}
8 H u0 p0 c0 {4,S}


>  <multiplicity>  (2) 
1

>  <reaction>  (2) 
kfir_rxn_13503

>  <type>  (2) 
r2h

>  <role_mapnums>  (2) 
{"r2h_a": 1, "r2h_h": 8}

>  <role_mapidx>  (2) 
{"r2h_a": 0, "r2h_h": 7}

>  <ordered_mapped_smiles>  (2) 
[C:1]1([H:6])([H:8])[CH:2]([H:7])[NH:3][C:4][S:5]1

>  <mol_properties>  (2) 
{"0": {"label": "acceptor", "atom_type": "Cs"}, "7": {"label": "a_hydrogen", "atom_type": "H0"}}

>  <level_of_theory>  (2) 
wb97xd/def2tzvp

>  <lot_method>  (2) 
wb97xd

>  <lot_basis>  (2) 
def2tzvp

>  <spin_multiplicity>  (2) 
1.0

>  <optical_isomers>  (2) 
1.0

>  <modes>  (2) 
IdealGasTranslation(mass=(84.9986, 'amu')),         NonlinearRotor(             inertia = ([61.6145, 94.1009, 152.56

>  <frequency_value>  (2) 
unknown

>  <frequency_units>  (2) 
unknown

>  <frequency_list>  (2) 
unknown

>  <arkane_path>  (2) 
/home/calvin/Dropbox/PersonalFolders/Calvin/Kfir_HAb_Converged/kfir_rxn_13503/output/Species/C1C=NCtS1/arkane/output.py

>  <path_exists>  (2) 
True

>  <E0_value>  (2) 
-1493676.45722279

>  <E0_units>  (2) 
kJ/mol

>  <thermo_class>  (2) 
NASA

>  <Cp0_value>  (2) 
33.257888

>  <Cp0_units>  (2) 
J/(mol*K)

>  <CpInf_value>  (2) 
182.918384

>  <CpInf_units>  (2) 
J/(mol*K)

>  <Tmin_value>  (2) 
10.0

>  <Tmin_units>  (2) 
K

>  <Tmax_value>  (2) 
3000.0

>  <Tmax_units>  (2) 
K

>  <polynomials>  (2) 
[{"name": "polynomial1", "class": "NASAPolynomial", "Tmin_value": 10.0, "Tmin_units": "K", "Tmax_value": 560.2984470429758, "Tmax_units": "K", "coeffs": [4.104795854366674, -0.010292209942027558, 0.00015587830851039605, -2.833619513024055e-07, 1.6426034232086792e-10, -179647780.3037932, 9.59568038640112]}, {"name": "polynomial2", "class": "NASAPolynomial", "Tmin_value": 560.2984470429758, "Tmin_units": "K", "Tmax_value": 3000.0, "Tmax_units": "K", "coeffs": [1.9288221828614363, 0.03038509280676351, -2.0331930011159815e-05, 6.3901194199366265e-09, -7.596517622552408e-13, -179647931.1260551, 15.31110137893669]}]

>  <H298_value>  (2) 
-356993.93850926554

>  <H298_units>  (2) 
kcal/mol

>  <S298_value>  (2) 
68.87572273697654

>  <S298_units>  (2) 
cal/(mol*K)

>  <Cp_T_value_list>  (2) 
[17.34019844337296, 21.85597497196374, 25.38516304923113, 28.063723651966143, 32.16303459569766, 34.99958037633039, 38.7118455233764, 40.415438014643044, 41.48237255025988]

>  <Cp_T_units>  (2) 
cal/(mol*K)

>  <T_list>  (2) 
[300.0, 400.0, 500.0, 600.0, 800.0, 1000.0, 1500.0, 2000.0, 2400.0]

>  <T_units>  (2) 
K

>  <yaml_path>  (2) 
/home/calvin/Dropbox/PersonalFolders/Calvin/Kfir_HAb_Converged/kfir_rxn_13503/output/Species/C1C=NCtS1/C1C=NCtS1.yml

>  <frequencies_cm1>  (2) 
[274.3017286074, 427.00974815356, 598.8354548305999, 662.48554176168, 689.0470409794399, 807.9488917952399, 831.9696064446, 902.5622155341999, 932.3992667495999, 1015.8949412554799, 1107.83014071964, 1203.4323103446798, 1314.2379854682, 1392.44608127768, 1578.4864475671197, 3041.33286234544, 3092.5949077592395, 3128.9006591460793]

>  <ZPE_kJmol>  (2) 
137.58085294987936

>  <E_elec_kJmol>  (2) 
-1493814.03807574

>  <E0_minus_Eelec_plus_ZPE_kJmol>  (2) 
0.0

>  <rxn>  (2) 
kfir_rxn_13503

>  <species_type>  (2) 
p0

>  <species_folder>  (2) 
C1C=NCtS1

>  <frequencies_cm1_list>  (2) 
[274.3017286074, 427.00974815356, 598.8354548305999, 662.48554176168, 689.0470409794399, 807.9488917952399, 831.9696064446, 902.5622155341999, 932.3992667495999, 1015.8949412554799, 1107.83014071964, 1203.4323103446798, 1314.2379854682, 1392.44608127768, 1578.4864475671197, 3041.33286234544, 3092.5949077592395, 3128.9006591460793]

>  <E0_kJmol>  (2) 
-1.49368e+06

>  <H298_kJmol>  (2) 
-1.49366e+06

$$$$

     RDKit          3D

 14 13  0  0  0  0  0  0  0  0999 V2000
   -0.4644   -2.4260   -0.0777 C   0  0  0  0  0  0  0  0  0  1  0  0
    0.9884   -2.5176   -0.0989 C   0  0  0  0  0  0  0  0  0  2  0  0
    1.5999   -2.6515    1.0366 N   0  0  0  0  0  0  0  0  0  3  0  0
    0.7509   -2.8981    2.0944 C   0  0  0  0  0  0  0  0  0  4  0  0
   -0.8852   -2.7181    1.6107 S   0  0  0  0  0  0  0  0  0  5  0  0
   -1.0392   -2.9728   -0.8224 H   0  0  0  0  0  0  0  0  0  6  0  0
    1.5548   -2.4006   -1.0177 H   0  0  0  0  0  0  0  0  0  7  0  0
   -2.3327    0.3106   -1.0822 O   0  0  0  0  0  0  0  0  0  8  0  0
   -1.2116    0.1280   -0.8094 C   0  0  0  0  0  3  0  0  0  9  0  0
   -0.0708    1.1741   -0.7418 C   0  0  0  0  0  0  0  0  0 10  0  0
    0.6302    1.0346    0.8721 Cl  0  0  0  0  0  0  0  0  0 11  0  0
   -0.6441    2.8087   -1.0467 Cl  0  0  0  0  0  0  0  0  0 12  0  0
    1.0947    0.6755   -1.9833 Cl  0  0  0  0  0  0  0  0  0 13  0  0
   -0.7273   -1.2210   -0.4094 H   0  0  0  0  0  0  0  0  0 14  0  0
  1  5  1  0
  1 14  1  0
  1  6  1  0
  1  2  1  0
  2  3  1  0
  2  7  1  0
  3  4  1  0
  4  5  1  0
  8  9  1  0
  9 10  1  0
 10 12  1  0
 10 13  1  0
 10 11  1  0
M  RAD  1   9   2
M  END
>  <rmg_smiles>  (3) 
[C]1[N][CH]CS1.[O][C]C(Cl)(Cl)Cl

>  <rmg_adjacency_list>  (3) 
multiplicity 2
1  Cl u0 p3 c0 {8,S}
2  Cl u0 p3 c0 {8,S}
3  Cl u0 p3 c0 {8,S}
4  S  u0 p2 c0 {7,S} {11,S}
5  O  u0 p2 c0 {10,S}
6  N  u0 p1 c0 {9,S} {11,S}
7  C  u0 p0 c0 {4,S} {9,S} {12,S} {13,S}
8  C  u0 p0 c0 {1,S} {2,S} {3,S} {10,S}
9  C  u0 p0 c0 {6,S} {7,S} {14,S}
10 C  u1 p1 c0 {5,S} {8,S}
11 C  u0 p1 c0 {4,S} {6,S}
12 H  u0 p0 c0 {7,S}
13 H  u0 p0 c0 {7,S}
14 H  u0 p0 c0 {9,S}


>  <multiplicity>  (3) 
2

>  <reaction>  (3) 
kfir_rxn_13503

>  <type>  (3) 
ts

>  <role_mapnums>  (3) 
{"*2": 14, "*1": 9, "*3": 1, "*0": 5, "*4": 8}

>  <role_mapidx>  (3) 
{"*2": 13, "*1": 8, "*3": 0, "*0": 4, "*4": 7}

>  <ordered_mapped_smiles>  (3) 
[C:1]1([H:6])([H:14])[CH:2]([H:7])[NH:3][CH2:4][S:5]1.[OH:8][CH:9][C:10]([Cl:11])([Cl:12])[Cl:13]

>  <mol_properties>  (3) 
{"0": {"label": "*3", "atom_type": "Cs"}, "4": {"label": "*0", "atom_type": "S2s"}, "7": {"label": "*4", "atom_type": "O2s"}, "8": {"label": "*1", "atom_type": "C2s"}, "13": {"label": "*2", "atom_type": "H0"}}

>  <level_of_theory>  (3) 
wb97xd/def2tzvp

>  <lot_method>  (3) 
wb97xd

>  <lot_basis>  (3) 
def2tzvp

>  <spin_multiplicity>  (3) 
2.0

>  <optical_isomers>  (3) 
2.0

>  <modes>  (3) 
IdealGasTranslation(mass=(229.9, 'amu')),         NonlinearRotor(             inertia = ([448.636, 1323.67, 1394.15

>  <frequency_value>  (3) 
-2128.86

>  <frequency_units>  (3) 
cm^-1

>  <frequency_list>  (3) 
unknown

>  <arkane_path>  (3) 
/home/calvin/Dropbox/PersonalFolders/Calvin/Kfir_HAb_Converged/kfir_rxn_13503/output/rxns/TS0/arkane/output.py

>  <path_exists>  (3) 
True

>  <E0_value>  (3) 
-5515850.0

>  <E0_units>  (3) 
kJ/mol

>  <thermo_class>  (3) 
unknown

>  <Cp0_value>  (3) 
unknown

>  <Cp0_units>  (3) 
unknown

>  <CpInf_value>  (3) 
unknown

>  <CpInf_units>  (3) 
unknown

>  <Tmin_value>  (3) 
unknown

>  <Tmin_units>  (3) 
unknown

>  <Tmax_value>  (3) 
unknown

>  <Tmax_units>  (3) 
unknown

>  <polynomials>  (3) 
unknown

>  <H298_value>  (3) 
unknown

>  <H298_units>  (3) 
unknown

>  <S298_value>  (3) 
unknown

>  <S298_units>  (3) 
unknown

>  <Cp_T_value_list>  (3) 
unknown

>  <Cp_T_units>  (3) 
unknown

>  <T_list>  (3) 
unknown

>  <T_units>  (3) 
unknown

>  <yaml_path>  (3) 
unknown

>  <frequencies_cm1>  (3) 
unknown

>  <ZPE_kJmol>  (3) 
unknown

>  <E_elec_kJmol>  (3) 
unknown

>  <E0_minus_Eelec_plus_ZPE_kJmol>  (3) 
unknown

>  <rxn>  (3) 
unknown

>  <species_type>  (3) 
unknown

>  <species_folder>  (3) 
unknown

>  <frequencies_cm1_list>  (3) 
[]

>  <ts_imag_freq_cm1>  (3) 
-2154.7126

>  <ts_freq_out_path>  (3) 
/home/calvin/Dropbox/PersonalFolders/Calvin/Kfir_HAb_Converged/kfir_rxn_13503/output/rxns/TS0/geometry/freq.out

>  <E0_kJmol>  (3) 
-5.51585e+06

>  <H298_kJmol>  (3) 
unknown

$$$$

     RDKit          3D

  6  5  0  0  0  0  0  0  0  0999 V2000
    2.0226    0.3485   -0.2250 O   0  0  0  0  0  0  0  0  0  1  0  0
    1.1426   -0.2224    0.2768 C   0  0  0  0  0  3  0  0  0  2  0  0
   -0.3802   -0.0566    0.0337 C   0  0  0  0  0  0  0  0  0  3  0  0
   -0.7412    1.1812   -1.1785 Cl  0  0  0  0  0  0  0  0  0  4  0  0
   -1.0794    0.3853    1.5956 Cl  0  0  0  0  0  0  0  0  0  5  0  0
   -0.9645   -1.6360   -0.5027 Cl  0  0  0  0  0  0  0  0  0  6  0  0
  1  2  1  0
  2  3  1  0
  3  4  1  0
  3  5  1  0
  3  6  1  0
M  RAD  1   2   2
M  END
>  <rmg_smiles>  (4) 
O[C]C(Cl)(Cl)Cl

>  <rmg_adjacency_list>  (4) 
multiplicity 2
1 Cl u0 p3 c0 {5,S}
2 Cl u0 p3 c0 {5,S}
3 Cl u0 p3 c0 {5,S}
4 O  u0 p2 c0 {6,S}
5 C  u0 p0 c0 {1,S} {2,S} {3,S} {6,S}
6 C  u1 p1 c0 {4,S} {5,S}


>  <multiplicity>  (4) 
2

>  <reaction>  (4) 
kfir_rxn_13503

>  <type>  (4) 
r1

>  <role_mapnums>  (4) 
{}

>  <role_mapidx>  (4) 
{}

>  <ordered_mapped_smiles>  (4) 
[OH:1][CH:2][C:3]([Cl:4])([Cl:5])[Cl:6]

>  <level_of_theory>  (4) 
wb97xd/def2tzvp

>  <lot_method>  (4) 
wb97xd

>  <lot_basis>  (4) 
def2tzvp

>  <spin_multiplicity>  (4) 
2.0

>  <optical_isomers>  (4) 
1.0

>  <modes>  (4) 
IdealGasTranslation(mass=(144.901, 'amu')),         NonlinearRotor(             inertia = ([274.842, 303.378, 325.828

>  <frequency_value>  (4) 
unknown

>  <frequency_units>  (4) 
unknown

>  <frequency_list>  (4) 
unknown

>  <arkane_path>  (4) 
/home/calvin/Dropbox/PersonalFolders/Calvin/Kfir_HAb_Converged/kfir_rxn_13503/output/Species/O=_C_C[Cl][Cl]Cl/arkane/output.py

>  <path_exists>  (4) 
True

>  <E0_value>  (4) 
-4022197.2752773953

>  <E0_units>  (4) 
kJ/mol

>  <thermo_class>  (4) 
NASA

>  <Cp0_value>  (4) 
33.257888

>  <Cp0_units>  (4) 
J/(mol*K)

>  <CpInf_value>  (4) 
128.874316

>  <CpInf_units>  (4) 
J/(mol*K)

>  <Tmin_value>  (4) 
10.0

>  <Tmin_units>  (4) 
K

>  <Tmax_value>  (4) 
3000.0

>  <Tmax_units>  (4) 
K

>  <polynomials>  (4) 
[{"name": "polynomial1", "class": "NASAPolynomial", "Tmin_value": 10.0, "Tmin_units": "K", "Tmax_value": 385.80091419461377, "Tmax_units": "K", "coeffs": [3.7118782518324016, 0.022805756752940377, 0.00010176062797622597, -4.4286865234312286e-07, 4.5175835254821564e-10, -483758595.02270967, 12.87061592795585]}, {"name": "polynomial2", "class": "NASAPolynomial", "Tmin_value": 385.80091419461377, "Tmin_units": "K", "Tmax_value": 3000.0, "Tmax_units": "K", "coeffs": [8.102592282809981, 0.014636102048562876, -1.1706432626844423e-05, 4.163063064896697e-09, -5.420011857095286e-13, -483759211.7997761, -7.732925679397551]}]

>  <H298_value>  (4) 
-961323.543834376

>  <H298_units>  (4) 
kcal/mol

>  <S298_value>  (4) 
84.09073176092436

>  <S298_units>  (4) 
cal/(mol*K)

>  <Cp_T_value_list>  (4) 
[22.681678586118736, 24.515301546939945, 25.79501935482991, 26.825133699883082, 28.27564661611074, 29.11917988617185, 29.85525151338374, 30.16887767717562, 30.539529681998143]

>  <Cp_T_units>  (4) 
cal/(mol*K)

>  <T_list>  (4) 
[300.0, 400.0, 500.0, 600.0, 800.0, 1000.0, 1500.0, 2000.0, 2400.0]

>  <T_units>  (4) 
K

>  <yaml_path>  (4) 
/home/calvin/Dropbox/PersonalFolders/Calvin/Kfir_HAb_Converged/kfir_rxn_13503/output/Species/O=_C_C[Cl][Cl]Cl/O=_C_CClClCl.yml

>  <frequencies_cm1>  (4) 
[179.5722683331396, 255.20466122062643, 262.079208735603, 312.1262770221216, 383.09751181389134, 444.0995238912038, 588.4151923797168, 785.478906053681, 821.8965965162026, 834.0201652718349, 1972.7937918168607]

>  <ZPE_kJmol>  (4) 
40.90502451912526

>  <E_elec_kJmol>  (4) 
-4022238.1803019145

>  <E0_minus_Eelec_plus_ZPE_kJmol>  (4) 
0.0

>  <rxn>  (4) 
kfir_rxn_13503

>  <species_type>  (4) 
p1

>  <species_folder>  (4) 
O=_C_C[Cl][Cl]Cl

>  <frequencies_cm1_list>  (4) 
[179.5722683331396, 255.20466122062643, 262.079208735603, 312.1262770221216, 383.09751181389134, 444.0995238912038, 588.4151923797168, 785.478906053681, 821.8965965162026, 834.0201652718349, 1972.7937918168607]

>  <E0_kJmol>  (4) 
-4.0222e+06

>  <H298_kJmol>  (4) 
-4.02218e+06

$$$$

     RDKit          3D

  7  7  0  0  0  0  0  0  0  0999 V2000
   -0.6974   -0.5128    0.1087 C   0  0  0  0  0  0  0  0  0  1  0  0
   -0.2270    0.7561    0.0879 C   0  0  0  0  0  0  0  0  0  2  0  0
    1.1544    0.8516    0.0891 N   0  0  0  0  0  0  0  0  0  3  0  0
    1.6899   -0.2788    0.1096 C   0  0  0  0  0  3  0  0  0  4  0  0
    0.6275   -1.6248    0.1306 S   0  0  0  0  0  0  0  0  0  5  0  0
   -1.7227   -0.8458    0.1123 H   0  0  0  0  0  0  0  0  0  6  0  0
   -0.8247    1.6546    0.0713 H   0  0  0  0  0  0  0  0  0  7  0  0
  1  5  1  0
  1  6  1  0
  1  2  1  0
  2  3  1  0
  2  7  1  0
  3  4  1  0
  4  5  1  0
M  RAD  1   4   2
M  END
>  <rmg_smiles>  (5) 
[C]1[N][CH][CH]S1

>  <rmg_adjacency_list>  (5) 
multiplicity 2
1 S u0 p2 c0 {3,S} {5,S}
2 N u0 p1 c0 {4,S} {5,S}
3 C u0 p0 c0 {1,S} {4,S} {6,S}
4 C u0 p0 c0 {2,S} {3,S} {7,S}
5 C u1 p1 c0 {1,S} {2,S}
6 H u0 p0 c0 {3,S}
7 H u0 p0 c0 {4,S}


>  <multiplicity>  (5) 
2

>  <reaction>  (5) 
kfir_rxn_13503

>  <type>  (5) 
r2

>  <role_mapnums>  (5) 
{}

>  <role_mapidx>  (5) 
{}

>  <ordered_mapped_smiles>  (5) 
[CH:1]1([H:6])[CH:2]([H:7])[NH:3][CH:4][S:5]1

>  <level_of_theory>  (5) 
wb97xd/def2tzvp

>  <lot_method>  (5) 
wb97xd

>  <lot_basis>  (5) 
def2tzvp

>  <spin_multiplicity>  (5) 
2.0

>  <optical_isomers>  (5) 
1.0

>  <modes>  (5) 
IdealGasTranslation(mass=(83.9908, 'amu')),         NonlinearRotor(             inertia = ([53.6897, 90.4117, 144.101

>  <frequency_value>  (5) 
unknown

>  <frequency_units>  (5) 
unknown

>  <frequency_list>  (5) 
unknown

>  <arkane_path>  (5) 
/home/calvin/Dropbox/PersonalFolders/Calvin/Kfir_HAb_Converged/kfir_rxn_13503/output/Species/_CH_1C=NCtS1/arkane/output.py

>  <path_exists>  (5) 
True

>  <E0_value>  (5) 
-1492159.0245196335

>  <E0_units>  (5) 
kJ/mol

>  <thermo_class>  (5) 
NASA

>  <Cp0_value>  (5) 
33.257888

>  <Cp0_units>  (5) 
J/(mol*K)

>  <CpInf_value>  (5) 
157.97496800000002

>  <CpInf_units>  (5) 
J/(mol*K)

>  <Tmin_value>  (5) 
10.0

>  <Tmin_units>  (5) 
K

>  <Tmax_value>  (5) 
3000.0

>  <Tmax_units>  (5) 
K

>  <polynomials>  (5) 
[{"name": "polynomial1", "class": "NASAPolynomial", "Tmin_value": 10.0, "Tmin_units": "K", "Tmax_value": 567.794763564878, "Tmax_units": "K", "coeffs": [4.149684494198024, -0.013904450227506306, 0.00015735208187194716, -2.812439734422047e-07, 1.6137096427278702e-10, -179465275.7995825, 10.169716330448722]}, {"name": "polynomial2", "class": "NASAPolynomial", "Tmin_value": 567.794763564878, "Tmin_units": "K", "Tmax_value": 3000.0, "Tmax_units": "K", "coeffs": [2.1477445845452867, 0.0263383332960197, -1.8016661303561284e-05, 5.742488510660462e-09, -6.887661386199247e-13, -179465469.81853035, 14.98436014083598]}]

>  <H298_value>  (5) 
-356631.5250852101

>  <H298_units>  (5) 
kcal/mol

>  <S298_value>  (5) 
68.54137163552518

>  <S298_units>  (5) 
cal/(mol*K)

>  <Cp_T_value_list>  (5) 
[15.606634204471352, 19.6648388926547, 22.784650852246177, 25.070318847404614, 28.508034220904864, 30.847682634784356, 33.805913335066606, 35.12867565689159, 36.000886995105844]

>  <Cp_T_units>  (5) 
cal/(mol*K)

>  <T_list>  (5) 
[300.0, 400.0, 500.0, 600.0, 800.0, 1000.0, 1500.0, 2000.0, 2400.0]

>  <T_units>  (5) 
K

>  <yaml_path>  (5) 
/home/calvin/Dropbox/PersonalFolders/Calvin/Kfir_HAb_Converged/kfir_rxn_13503/output/Species/_CH_1C=NCtS1/_CH_1C=NCtS1.yml

>  <frequencies_cm1>  (5) 
[456.16010083695994, 567.63874052184, 582.7529752111599, 704.33295030176, 747.58122384712, 793.37028196088, 859.05299654668, 906.0987129739999, 1059.32175641916, 1148.42089094616, 1309.6920411863598, 1495.75987541708, 1638.8472485299199, 3211.9156446795596, 3238.4359419853995]

>  <ZPE_kJmol>  (5) 
111.96679743779418

>  <E_elec_kJmol>  (5) 
-1492270.9913170715

>  <E0_minus_Eelec_plus_ZPE_kJmol>  (5) 
0.0

>  <rxn>  (5) 
kfir_rxn_13503

>  <species_type>  (5) 
r0

>  <species_folder>  (5) 
_CH_1C=NCtS1

>  <frequencies_cm1_list>  (5) 
[456.16010083695994, 567.63874052184, 582.7529752111599, 704.33295030176, 747.58122384712, 793.37028196088, 859.05299654668, 906.0987129739999, 1059.32175641916, 1148.42089094616, 1309.6920411863598, 1495.75987541708, 1638.8472485299199, 3211.9156446795596, 3238.4359419853995]

>  <E0_kJmol>  (5) 
-1.49216e+06

>  <H298_kJmol>  (5) 
-1.49215e+06

$$$$
