
     RDKit          3D

  7  6  0  0  0  0  0  0  0  0999 V2000
   -0.7230   -0.6063   -1.5178 O   0  0  0  0  0  0  0  0  0  1  0  0
   -0.2078   -0.2039   -0.4944 C   0  0  0  0  0  0  0  0  0  2  0  0
   -0.1726    1.2101   -0.1318 C   0  0  0  0  0  2  0  0  0  3  0  0
   -0.1669    2.3116    0.1909 N   0  0  0  0  0  0  0  0  0  4  0  0
    0.5806   -1.1259    0.3765 C   0  0  0  0  0  0  0  0  0  5  0  0
    0.6621   -1.1978    1.5613 O   0  0  0  0  0  0  0  0  0  6  0  0
    0.8647   -1.9482   -0.2802 H   0  0  0  0  0  0  0  0  0  7  0  0
  1  2  1  0
  2  3  1  0
  2  5  1  0
  3  4  1  0
  5  7  1  0
  5  6  1  0
M  RAD  1   3   3
M  END
>  <rmg_smiles>  (1) 
[N][C][C]([CH][O])[O]

>  <rmg_adjacency_list>  (1) 
1 O u0 p2 c0 {4,S}
2 O u0 p2 c0 {5,S}
3 N u0 p2 c0 {6,S}
4 C u0 p0 c0 {1,S} {5,S} {6,S}
5 C u0 p0 c0 {2,S} {4,S} {7,S}
6 C u0 p1 c0 {3,S} {4,S}
7 H u0 p0 c0 {5,S}


>  <multiplicity>  (1) 
1

>  <reaction>  (1) 
kfir_rxn_12959

>  <type>  (1) 
r1h

>  <role_mapnums>  (1) 
{"r1h_a": 5, "r1h_h": 7}

>  <role_mapidx>  (1) 
{"r1h_a": 4, "r1h_h": 6}

>  <ordered_mapped_smiles>  (1) 
[OH:1][CH:2]([C:3][NH2:4])[CH:5]([OH:6])[H:7]

>  <mol_properties>  (1) 
{"4": {"label": "donator", "atom_type": "Cs"}, "6": {"label": "d_hydrogen", "atom_type": "H0"}}

>  <level_of_theory>  (1) 
wb97xd/def2tzvp

>  <lot_method>  (1) 
wb97xd

>  <lot_basis>  (1) 
def2tzvp

>  <spin_multiplicity>  (1) 
1.0

>  <optical_isomers>  (1) 
1.0

>  <modes>  (1) 
IdealGasTranslation(mass=(83.0007, 'amu')),         NonlinearRotor(             inertia = ([96.3434, 140.528, 236.871

>  <frequency_value>  (1) 
unknown

>  <frequency_units>  (1) 
unknown

>  <frequency_list>  (1) 
unknown

>  <arkane_path>  (1) 
/home/calvin/Dropbox/PersonalFolders/Calvin/Kfir_HAb_Converged/kfir_rxn_12959/output/Species/O=C[CtN]C=O/arkane/output.py

>  <path_exists>  (1) 
True

>  <E0_value>  (1) 
-840239.3569175528

>  <E0_units>  (1) 
kJ/mol

>  <thermo_class>  (1) 
NASA

>  <Cp0_value>  (1) 
33.257888

>  <Cp0_units>  (1) 
J/(mol*K)

>  <CpInf_value>  (1) 
153.817732

>  <CpInf_units>  (1) 
J/(mol*K)

>  <Tmin_value>  (1) 
10.0

>  <Tmin_units>  (1) 
K

>  <Tmax_value>  (1) 
3000.0

>  <Tmax_units>  (1) 
K

>  <polynomials>  (1) 
[{"name": "polynomial1", "class": "NASAPolynomial", "Tmin_value": 10.0, "Tmin_units": "K", "Tmax_value": 533.4188485442659, "Tmax_units": "K", "coeffs": [3.717147186695462, 0.024455316105905855, 8.386622970591572e-06, -6.610874242077667e-08, 5.2473835147923e-11, -101057448.19892596, 10.610610218276395]}, {"name": "polynomial2", "class": "NASAPolynomial", "Tmin_value": 533.4188485442659, "Tmin_units": "K", "Tmax_value": 3000.0, "Tmax_units": "K", "coeffs": [5.8718154481541, 0.02038466056225707, -1.4155072541588014e-05, 4.542772163174781e-09, -5.47551005847165e-13, -101057850.02285644, -0.04214811780581773]}]

>  <H298_value>  (1) 
-200817.721924056

>  <H298_units>  (1) 
kcal/mol

>  <S298_value>  (1) 
77.43728041139019

>  <S298_units>  (1) 
cal/(mol*K)

>  <Cp_T_value_list>  (1) 
[20.763605543119137, 23.754080796816897, 25.947914858192235, 27.65607577740924, 30.249098235755618, 31.98731710053562, 34.100010784480496, 34.97922140998477, 35.560339157809516]

>  <Cp_T_units>  (1) 
cal/(mol*K)

>  <T_list>  (1) 
[300.0, 400.0, 500.0, 600.0, 800.0, 1000.0, 1500.0, 2000.0, 2400.0]

>  <T_units>  (1) 
K

>  <yaml_path>  (1) 
/home/calvin/Dropbox/PersonalFolders/Calvin/Kfir_HAb_Converged/kfir_rxn_12959/output/Species/O=C[CtN]C=O/O=CCtNC=O.yml

>  <frequencies_cm1>  (1) 
[143.34569333731324, 249.35030935507206, 295.9135498261808, 495.250162813563, 588.5690434467874, 671.0571971514019, 715.9124856896553, 1009.4353249544273, 1182.2702380539533, 1348.9653779154573, 1812.7024448278446, 1838.7757991964377, 2353.2571621440543, 2954.100020605422]

>  <ZPE_kJmol>  (1) 
93.66107710311546

>  <E_elec_kJmol>  (1) 
-840333.0179946559

>  <E0_minus_Eelec_plus_ZPE_kJmol>  (1) 
0.0

>  <rxn>  (1) 
kfir_rxn_12959

>  <species_type>  (1) 
r1

>  <species_folder>  (1) 
O=C[CtN]C=O

>  <frequencies_cm1_list>  (1) 
[143.34569333731324, 249.35030935507206, 295.9135498261808, 495.250162813563, 588.5690434467874, 671.0571971514019, 715.9124856896553, 1009.4353249544273, 1182.2702380539533, 1348.9653779154573, 1812.7024448278446, 1838.7757991964377, 2353.2571621440543, 2954.100020605422]

>  <E0_kJmol>  (1) 
-840239

>  <H298_kJmol>  (1) 
-840221

$$$$

     RDKit          3D

  7  6  0  0  0  0  0  0  0  0999 V2000
   -1.1336   -0.3759    0.4909 C   0  0  0  0  0  0  0  0  0  1  0  0
    0.1571    0.2755    0.1481 C   0  0  0  0  0  0  0  0  0  2  0  0
    0.9759    0.0819   -0.6574 O   0  0  0  0  0  0  0  0  0  3  0  0
   -1.2845   -1.2685   -0.1162 H   0  0  0  0  0  0  0  0  0  4  0  0
   -1.1356   -0.6192    1.5537 H   0  0  0  0  0  0  0  0  0  5  0  0
   -1.9206    0.3571    0.3076 H   0  0  0  0  0  0  0  0  0  6  0  0
    0.3886    1.1031    0.8186 H   0  0  0  0  0  0  0  0  0  7  0  0
  1  5  1  0
  1  4  1  0
  1  6  1  0
  1  2  1  0
  2  7  1  0
  2  3  1  0
M  END
>  <rmg_smiles>  (2) 
C[CH]O

>  <rmg_adjacency_list>  (2) 
1 O u0 p2 c0 {3,S}
2 C u0 p0 c0 {3,S} {4,S} {5,S} {6,S}
3 C u0 p0 c0 {1,S} {2,S} {7,S}
4 H u0 p0 c0 {2,S}
5 H u0 p0 c0 {2,S}
6 H u0 p0 c0 {2,S}
7 H u0 p0 c0 {3,S}


>  <multiplicity>  (2) 
1

>  <reaction>  (2) 
kfir_rxn_12959

>  <type>  (2) 
r2h

>  <role_mapnums>  (2) 
{"r2h_a": 2, "r2h_h": 7}

>  <role_mapidx>  (2) 
{"r2h_a": 1, "r2h_h": 6}

>  <ordered_mapped_smiles>  (2) 
[C:1]([CH:2]([OH:3])[H:7])([H:4])([H:5])[H:6]

>  <mol_properties>  (2) 
{"1": {"label": "acceptor", "atom_type": "Cs"}, "6": {"label": "a_hydrogen", "atom_type": "H0"}}

>  <level_of_theory>  (2) 
wb97xd/def2tzvp

>  <lot_method>  (2) 
wb97xd

>  <lot_basis>  (2) 
def2tzvp

>  <spin_multiplicity>  (2) 
1.0

>  <optical_isomers>  (2) 
1.0

>  <modes>  (2) 
IdealGasTranslation(mass=(44.0262, 'amu')),         NonlinearRotor(             inertia = ([8.78933, 49.4181, 55.1019

>  <frequency_value>  (2) 
unknown

>  <frequency_units>  (2) 
unknown

>  <frequency_list>  (2) 
unknown

>  <arkane_path>  (2) 
/home/calvin/Dropbox/PersonalFolders/Calvin/Kfir_HAb_Converged/kfir_rxn_12959/output/Species/CC=O/arkane/output.py

>  <path_exists>  (2) 
True

>  <E0_value>  (2) 
-403769.9498189406

>  <E0_units>  (2) 
kJ/mol

>  <thermo_class>  (2) 
NASA

>  <Cp0_value>  (2) 
33.257888

>  <Cp0_units>  (2) 
J/(mol*K)

>  <CpInf_value>  (2) 
153.817732

>  <CpInf_units>  (2) 
J/(mol*K)

>  <Tmin_value>  (2) 
10.0

>  <Tmin_units>  (2) 
K

>  <Tmax_value>  (2) 
3000.0

>  <Tmax_units>  (2) 
K

>  <polynomials>  (2) 
[{"name": "polynomial1", "class": "NASAPolynomial", "Tmin_value": 10.0, "Tmin_units": "K", "Tmax_value": 559.340457104048, "Tmax_units": "K", "coeffs": [3.973855086737095, 0.001366782198898162, 3.885307812246203e-05, -5.559834226824692e-08, 2.5675947833216267e-11, -48562306.346028514, 7.333648264861573]}, {"name": "polynomial2", "class": "NASAPolynomial", "Tmin_value": 559.340457104048, "Tmin_units": "K", "Tmax_value": 3000.0, "Tmax_units": "K", "coeffs": [1.439657769760981, 0.019489859834032428, -9.748989186566677e-06, 2.3305222684552757e-09, -2.1610932019923673e-13, -48562022.855280705, 18.087279202338166]}]

>  <H298_value>  (2) 
-96500.3697732079

>  <H298_units>  (2) 
kcal/mol

>  <S298_value>  (2) 
62.92629446375544

>  <S298_units>  (2) 
cal/(mol*K)

>  <Cp_T_value_list>  (2) 
[13.090696422295927, 15.571890885894227, 17.93547200806266, 20.06943953611668, 23.641600163950535, 26.41979391131651, 30.82292626363898, 33.00720133556468, 33.997714873568974]

>  <Cp_T_units>  (2) 
cal/(mol*K)

>  <T_list>  (2) 
[300.0, 400.0, 500.0, 600.0, 800.0, 1000.0, 1500.0, 2000.0, 2400.0]

>  <T_units>  (2) 
K

>  <yaml_path>  (2) 
/home/calvin/Dropbox/PersonalFolders/Calvin/Kfir_HAb_Converged/kfir_rxn_12959/output/Species/CC=O/CC=O.yml

>  <frequencies_cm1>  (2) 
[509.85966404219545, 767.314750516829, 887.0397075930329, 1124.5693362194925, 1131.9199667947084, 1368.1468608800276, 1416.206279274924, 1447.6526744657767, 1455.988621111524, 1831.4980474887643, 2863.5487909397893, 3014.381465085892, 3081.3331394822376, 3132.271335244577]

>  <ZPE_kJmol>  (2) 
143.7417114238059

>  <E_elec_kJmol>  (2) 
-403913.6915303644

>  <E0_minus_Eelec_plus_ZPE_kJmol>  (2) 
0.0

>  <rxn>  (2) 
kfir_rxn_12959

>  <species_type>  (2) 
p0

>  <species_folder>  (2) 
CC=O

>  <frequencies_cm1_list>  (2) 
[509.85966404219545, 767.314750516829, 887.0397075930329, 1124.5693362194925, 1131.9199667947084, 1368.1468608800276, 1416.206279274924, 1447.6526744657767, 1455.988621111524, 1831.4980474887643, 2863.5487909397893, 3014.381465085892, 3081.3331394822376, 3132.271335244577]

>  <E0_kJmol>  (2) 
-403770

>  <H298_kJmol>  (2) 
-403758

$$$$

     RDKit          3D

 13 11  0  0  0  0  0  0  0  0999 V2000
   -0.8504   -2.8786   -0.4167 C   0  0  0  0  0  0  0  0  0  1  0  0
    0.4402   -2.2273   -0.7595 C   0  0  0  0  0  3  0  0  0  2  0  0
    1.2591   -2.4209   -1.5650 O   0  0  0  0  0  0  0  0  0  3  0  0
   -1.0013   -3.7712   -1.0238 H   0  0  0  0  0  0  0  0  0  4  0  0
   -0.8524   -3.1219    0.6461 H   0  0  0  0  0  0  0  0  0  5  0  0
   -1.6374   -2.1457   -0.6000 H   0  0  0  0  0  0  0  0  0  6  0  0
   -0.8640    0.3794   -0.9738 O   0  0  0  0  0  0  0  0  0  7  0  0
   -0.3489    0.7817    0.0496 C   0  0  0  0  0  0  0  0  0  8  0  0
   -0.3137    2.1957    0.4121 C   0  0  0  0  0  0  0  0  0  9  0  0
   -0.3079    3.2972    0.7349 N   0  0  0  0  0  0  0  0  0 10  0  0
    0.4396   -0.1403    0.9205 C   0  0  0  0  0  0  0  0  0 11  0  0
    0.5211   -0.2121    2.1052 O   0  0  0  0  0  0  0  0  0 12  0  0
    0.7626   -1.0753    0.1738 H   0  0  0  0  0  0  0  0  0 13  0  0
  1  5  1  0
  1  4  1  0
  1  6  1  0
  1  2  1  0
  2  3  1  0
  7  8  1  0
  8  9  1  0
  8 11  1  0
  9 10  1  0
 11 12  1  0
 11 13  1  0
M  RAD  1   2   2
M  END
>  <rmg_smiles>  (3) 
[N][C][C]([CH][O])[O].C[C][O]

>  <rmg_adjacency_list>  (3) 
multiplicity 2
1  O u0 p2 c0 {6,S}
2  O u0 p2 c0 {7,S}
3  O u0 p2 c0 {8,S}
4  N u0 p2 c0 {9,S}
5  C u0 p0 c0 {8,S} {10,S} {11,S} {12,S}
6  C u0 p0 c0 {1,S} {7,S} {9,S}
7  C u0 p0 c0 {2,S} {6,S} {13,S}
8  C u1 p1 c0 {3,S} {5,S}
9  C u0 p1 c0 {4,S} {6,S}
10 H u0 p0 c0 {5,S}
11 H u0 p0 c0 {5,S}
12 H u0 p0 c0 {5,S}
13 H u0 p0 c0 {7,S}


>  <multiplicity>  (3) 
2

>  <reaction>  (3) 
kfir_rxn_12959

>  <type>  (3) 
ts

>  <role_mapnums>  (3) 
{"*2": 13, "*1": 11, "*3": 2, "*0": 8, "*4": 3}

>  <role_mapidx>  (3) 
{"*2": 12, "*1": 10, "*3": 1, "*0": 7, "*4": 2}

>  <ordered_mapped_smiles>  (3) 
[C:1]([CH:2][OH:3])([H:4])([H:5])[H:6].[OH:7][CH:8]([CH2:9][NH2:10])[CH:11]([OH:12])[H:13]

>  <mol_properties>  (3) 
{"1": {"label": "*3", "atom_type": "C2s"}, "2": {"label": "*4", "atom_type": "O2s"}, "7": {"label": "*0", "atom_type": "Cs"}, "10": {"label": "*1", "atom_type": "Cs"}, "12": {"label": "*2", "atom_type": "H0"}}

>  <level_of_theory>  (3) 
wb97xd/def2tzvp

>  <lot_method>  (3) 
wb97xd

>  <lot_basis>  (3) 
def2tzvp

>  <spin_multiplicity>  (3) 
2.0

>  <optical_isomers>  (3) 
2.0

>  <modes>  (3) 
IdealGasTranslation(mass=(126.019, 'amu')),         NonlinearRotor(             inertia = ([170.199, 599.302, 664.719

>  <frequency_value>  (3) 
-1182.73

>  <frequency_units>  (3) 
cm^-1

>  <frequency_list>  (3) 
unknown

>  <arkane_path>  (3) 
/home/calvin/Dropbox/PersonalFolders/Calvin/Kfir_HAb_Converged/kfir_rxn_12959/output/rxns/TS0/arkane/output.py

>  <path_exists>  (3) 
True

>  <E0_value>  (3) 
-1242290.0

>  <E0_units>  (3) 
kJ/mol

>  <thermo_class>  (3) 
unknown

>  <Cp0_value>  (3) 
unknown

>  <Cp0_units>  (3) 
unknown

>  <CpInf_value>  (3) 
unknown

>  <CpInf_units>  (3) 
unknown

>  <Tmin_value>  (3) 
unknown

>  <Tmin_units>  (3) 
unknown

>  <Tmax_value>  (3) 
unknown

>  <Tmax_units>  (3) 
unknown

>  <polynomials>  (3) 
unknown

>  <H298_value>  (3) 
unknown

>  <H298_units>  (3) 
unknown

>  <S298_value>  (3) 
unknown

>  <S298_units>  (3) 
unknown

>  <Cp_T_value_list>  (3) 
unknown

>  <Cp_T_units>  (3) 
unknown

>  <T_list>  (3) 
unknown

>  <T_units>  (3) 
unknown

>  <yaml_path>  (3) 
unknown

>  <frequencies_cm1>  (3) 
unknown

>  <ZPE_kJmol>  (3) 
unknown

>  <E_elec_kJmol>  (3) 
unknown

>  <E0_minus_Eelec_plus_ZPE_kJmol>  (3) 
unknown

>  <rxn>  (3) 
unknown

>  <species_type>  (3) 
unknown

>  <species_folder>  (3) 
unknown

>  <frequencies_cm1_list>  (3) 
[]

>  <ts_imag_freq_cm1>  (3) 
-1197.0906

>  <ts_freq_out_path>  (3) 
/home/calvin/Dropbox/PersonalFolders/Calvin/Kfir_HAb_Converged/kfir_rxn_12959/output/rxns/TS0/geometry/freq.out

>  <E0_kJmol>  (3) 
-1.24229e+06

>  <H298_kJmol>  (3) 
unknown

$$$$

     RDKit          3D

  6  5  0  0  0  0  0  0  0  0999 V2000
   -0.6991    1.5872    0.3918 O   0  0  0  0  0  1  0  0  0  1  0  0
   -0.1736    0.4606    0.3299 C   0  0  0  0  0  0  0  0  0  2  0  0
    1.2463    0.1827    0.2916 C   0  0  0  0  0  0  0  0  0  3  0  0
    2.3715   -0.0461    0.2609 N   0  0  0  0  0  0  0  0  0  4  0  0
   -0.9996   -0.6616    0.2923 C   0  0  0  0  0  0  0  0  0  5  0  0
   -1.7457   -1.5229    0.2654 O   0  0  0  0  0  0  0  0  0  6  0  0
  1  2  1  0
  2  3  1  0
  2  5  1  0
  3  4  1  0
  5  6  1  0
M  RAD  1   1   2
M  END
>  <rmg_smiles>  (4) 
[N][C][C]([C][O])[O]

>  <rmg_adjacency_list>  (4) 
multiplicity 2
1 O u1 p2 c0 {4,S}
2 O u0 p2 c0 {6,S}
3 N u0 p2 c0 {5,S}
4 C u0 p0 c0 {1,S} {5,S} {6,S}
5 C u0 p1 c0 {3,S} {4,S}
6 C u0 p1 c0 {2,S} {4,S}


>  <multiplicity>  (4) 
2

>  <reaction>  (4) 
kfir_rxn_12959

>  <type>  (4) 
r1

>  <role_mapnums>  (4) 
{}

>  <role_mapidx>  (4) 
{}

>  <ordered_mapped_smiles>  (4) 
[O:1][CH:2]([CH2:3][NH2:4])[CH2:5][OH:6]

>  <level_of_theory>  (4) 
wb97xd/def2tzvp

>  <lot_method>  (4) 
wb97xd

>  <lot_basis>  (4) 
def2tzvp

>  <spin_multiplicity>  (4) 
2.0

>  <optical_isomers>  (4) 
1.0

>  <modes>  (4) 
IdealGasTranslation(mass=(81.9929, 'amu')),         NonlinearRotor(             inertia = ([74.011, 177.789, 251.799

>  <frequency_value>  (4) 
unknown

>  <frequency_units>  (4) 
unknown

>  <frequency_list>  (4) 
unknown

>  <arkane_path>  (4) 
/home/calvin/Dropbox/PersonalFolders/Calvin/Kfir_HAb_Converged/kfir_rxn_12959/output/Species/O=C[CtN]_C_=O/arkane/output.py

>  <path_exists>  (4) 
True

>  <E0_value>  (4) 
-838587.3310510492

>  <E0_units>  (4) 
kJ/mol

>  <thermo_class>  (4) 
NASA

>  <Cp0_value>  (4) 
33.257888

>  <Cp0_units>  (4) 
J/(mol*K)

>  <CpInf_value>  (4) 
128.874316

>  <CpInf_units>  (4) 
J/(mol*K)

>  <Tmin_value>  (4) 
10.0

>  <Tmin_units>  (4) 
K

>  <Tmax_value>  (4) 
3000.0

>  <Tmax_units>  (4) 
K

>  <polynomials>  (4) 
[{"name": "polynomial1", "class": "NASAPolynomial", "Tmin_value": 10.0, "Tmin_units": "K", "Tmax_value": 446.29006128486634, "Tmax_units": "K", "coeffs": [3.7394966823340505, 0.02320374558598425, -4.3913732143466165e-06, -5.231496996350145e-08, 5.648267354558336e-11, -100858757.96938667, 11.5974446843829]}, {"name": "polynomial2", "class": "NASAPolynomial", "Tmin_value": 446.29006128486634, "Tmin_units": "K", "Tmax_value": 3000.0, "Tmax_units": "K", "coeffs": [5.537750975416479, 0.016176387311133005, -1.1324003058521088e-05, 3.6792737164034058e-09, -4.492166532589084e-13, -100859009.00295359, 3.3585196605897436]}]

>  <H298_value>  (4) 
-200423.14681277247

>  <H298_units>  (4) 
kcal/mol

>  <S298_value>  (4) 
78.04021117464693

>  <S298_units>  (4) 
cal/(mol*K)

>  <Cp_T_value_list>  (4) 
[18.581180109024416, 20.699087828492104, 22.30992431881977, 23.654607074413278, 25.69713931800321, 27.066134665289887, 28.748349193647552, 29.4926019385661, 29.99325016518803]

>  <Cp_T_units>  (4) 
cal/(mol*K)

>  <T_list>  (4) 
[300.0, 400.0, 500.0, 600.0, 800.0, 1000.0, 1500.0, 2000.0, 2400.0]

>  <T_units>  (4) 
K

>  <yaml_path>  (4) 
/home/calvin/Dropbox/PersonalFolders/Calvin/Kfir_HAb_Converged/kfir_rxn_12959/output/Species/O=C[CtN]_C_=O/O=CCtN_C_=O.yml

>  <frequencies_cm1>  (4) 
[121.10108415639233, 245.9883444777502, 310.1746372701595, 550.0776118768748, 566.6759382267055, 633.9234571348305, 759.0780010159928, 1164.629599637894, 1477.4397078769312, 2199.330377401139, 2338.440350196065]

>  <ZPE_kJmol>  (4) 
62.00760539605433

>  <E_elec_kJmol>  (4) 
-838649.3386564453

>  <E0_minus_Eelec_plus_ZPE_kJmol>  (4) 
0.0

>  <rxn>  (4) 
kfir_rxn_12959

>  <species_type>  (4) 
p1

>  <species_folder>  (4) 
O=C[CtN]_C_=O

>  <frequencies_cm1_list>  (4) 
[121.10108415639233, 245.9883444777502, 310.1746372701595, 550.0776118768748, 566.6759382267055, 633.9234571348305, 759.0780010159928, 1164.629599637894, 1477.4397078769312, 2199.330377401139, 2338.440350196065]

>  <E0_kJmol>  (4) 
-838587

>  <H298_kJmol>  (4) 
-838570

$$$$

     RDKit          3D

  6  5  0  0  0  0  0  0  0  0999 V2000
   -0.4438    0.0161   -0.1392 C   0  0  0  0  0  0  0  0  0  1  0  0
    1.0624    0.0236   -0.1405 C   0  0  0  0  0  3  0  0  0  2  0  0
    1.7977   -0.0922    0.7680 O   0  0  0  0  0  0  0  0  0  3  0  0
   -0.8370   -0.1185    0.8708 H   0  0  0  0  0  0  0  0  0  4  0  0
   -0.7939    0.9566   -0.5651 H   0  0  0  0  0  0  0  0  0  5  0  0
   -0.7855   -0.7857   -0.7940 H   0  0  0  0  0  0  0  0  0  6  0  0
  1  5  1  0
  1  4  1  0
  1  6  1  0
  1  2  1  0
  2  3  1  0
M  RAD  1   2   2
M  END
>  <rmg_smiles>  (5) 
C[C]O

>  <rmg_adjacency_list>  (5) 
multiplicity 2
1 O u0 p2 c0 {3,S}
2 C u0 p0 c0 {3,S} {4,S} {5,S} {6,S}
3 C u1 p1 c0 {1,S} {2,S}
4 H u0 p0 c0 {2,S}
5 H u0 p0 c0 {2,S}
6 H u0 p0 c0 {2,S}


>  <multiplicity>  (5) 
2

>  <reaction>  (5) 
kfir_rxn_12959

>  <type>  (5) 
r2

>  <role_mapnums>  (5) 
{}

>  <role_mapidx>  (5) 
{}

>  <ordered_mapped_smiles>  (5) 
[C:1]([CH:2][OH:3])([H:4])([H:5])[H:6]

>  <level_of_theory>  (5) 
wb97xd/def2tzvp

>  <lot_method>  (5) 
wb97xd

>  <lot_basis>  (5) 
def2tzvp

>  <spin_multiplicity>  (5) 
2.0

>  <optical_isomers>  (5) 
1.0

>  <modes>  (5) 
IdealGasTranslation(mass=(43.0184, 'amu')),         NonlinearRotor(             inertia = ([5.94607, 50.3608, 53.1944

>  <frequency_value>  (5) 
unknown

>  <frequency_units>  (5) 
unknown

>  <frequency_list>  (5) 
unknown

>  <arkane_path>  (5) 
/home/calvin/Dropbox/PersonalFolders/Calvin/Kfir_HAb_Converged/kfir_rxn_12959/output/Species/C_C_=O/arkane/output.py

>  <path_exists>  (5) 
True

>  <E0_value>  (5) 
-402090.5907729089

>  <E0_units>  (5) 
kJ/mol

>  <thermo_class>  (5) 
NASA

>  <Cp0_value>  (5) 
33.257888

>  <Cp0_units>  (5) 
J/(mol*K)

>  <CpInf_value>  (5) 
128.874316

>  <CpInf_units>  (5) 
J/(mol*K)

>  <Tmin_value>  (5) 
10.0

>  <Tmin_units>  (5) 
K

>  <Tmax_value>  (5) 
3000.0

>  <Tmax_units>  (5) 
K

>  <polynomials>  (5) 
[{"name": "polynomial1", "class": "NASAPolynomial", "Tmin_value": 10.0, "Tmin_units": "K", "Tmax_value": 413.7048441079222, "Tmax_units": "K", "coeffs": [3.902147799788778, 0.01201961917687439, -5.275847397109942e-05, 1.7081178052654628e-07, -1.6130229340665142e-10, -48360327.13332869, 7.44102788545342]}, {"name": "polynomial2", "class": "NASAPolynomial", "Tmin_value": 413.7048441079222, "Tmin_units": "K", "Tmax_value": 3000.0, "Tmax_units": "K", "coeffs": [1.6727412223811877, 0.016782593971488804, -9.141949476643917e-06, 2.410696885732639e-09, -2.4779266567729087e-13, -48359998.96636966, 17.965736233846695]}]

>  <H298_value>  (5) 
-96098.99137738589

>  <H298_units>  (5) 
kcal/mol

>  <S298_value>  (5) 
63.78921806934718

>  <S298_units>  (5) 
cal/(mol*K)

>  <Cp_T_value_list>  (5) 
[12.052686418329648, 14.052043662785676, 16.025629910844998, 17.765213557643886, 20.62869321740352, 22.80575797022183, 26.14944661075823, 27.803053239364182, 28.611094879295027]

>  <Cp_T_units>  (5) 
cal/(mol*K)

>  <T_list>  (5) 
[300.0, 400.0, 500.0, 600.0, 800.0, 1000.0, 1500.0, 2000.0, 2400.0]

>  <T_units>  (5) 
K

>  <yaml_path>  (5) 
/home/calvin/Dropbox/PersonalFolders/Calvin/Kfir_HAb_Converged/kfir_rxn_12959/output/Species/C_C_=O/C_C_=O.yml

>  <frequencies_cm1>  (5) 
[469.6863951046265, 856.5278551828376, 941.3296145260099, 1046.10206497147, 1345.9753465007495, 1441.4999875592703, 1444.3271675266787, 1945.5127584241066, 3011.210229139651, 3109.3137644112676, 3115.9253869358467]

>  <ZPE_kJmol>  (5) 
112.01482266634792

>  <E_elec_kJmol>  (5) 
-402202.6055955752

>  <E0_minus_Eelec_plus_ZPE_kJmol>  (5) 
0.0

>  <rxn>  (5) 
kfir_rxn_12959

>  <species_type>  (5) 
r0

>  <species_folder>  (5) 
C_C_=O

>  <frequencies_cm1_list>  (5) 
[469.6863951046265, 856.5278551828376, 941.3296145260099, 1046.10206497147, 1345.9753465007495, 1441.4999875592703, 1444.3271675266787, 1945.5127584241066, 3011.210229139651, 3109.3137644112676, 3115.9253869358467]

>  <E0_kJmol>  (5) 
-402091

>  <H298_kJmol>  (5) 
-402078

$$$$
