
     RDKit          3D

  4  3  0  0  0  0  0  0  0  0999 V2000
    0.0925   -0.1487    0.5601 C   0  0  0  0  0  0  0  0  0  1  0  0
   -0.0936    0.1339   -0.5714 O   0  0  0  0  0  0  0  0  0  2  0  0
    0.1210    0.6649    1.3245 H   0  0  0  0  0  0  0  0  0  3  0  0
    0.2565   -1.1961    0.9110 H   0  0  0  0  0  0  0  0  0  4  0  0
  1  3  1  0
  1  2  1  0
  1  4  1  0
M  END
>  <rmg_smiles>  (1) 
[CH2]O

>  <rmg_adjacency_list>  (1) 
1 O u0 p2 c0 {2,S}
2 C u0 p0 c0 {1,S} {3,S} {4,S}
3 H u0 p0 c0 {2,S}
4 H u0 p0 c0 {2,S}


>  <multiplicity>  (1) 
1

>  <reaction>  (1) 
kfir_rxn_5172

>  <type>  (1) 
r1h

>  <role_mapnums>  (1) 
{"r1h_a": 1, "r1h_h": 3}

>  <role_mapidx>  (1) 
{"r1h_a": 0, "r1h_h": 2}

>  <ordered_mapped_smiles>  (1) 
[CH:1]([OH:2])([H:3])[H:4]

>  <mol_properties>  (1) 
{"0": {"label": "donator", "atom_type": "Cs"}, "2": {"label": "d_hydrogen", "atom_type": "H0"}}

>  <level_of_theory>  (1) 
wb97xd/def2tzvp

>  <lot_method>  (1) 
wb97xd

>  <lot_basis>  (1) 
def2tzvp

>  <spin_multiplicity>  (1) 
1.0

>  <optical_isomers>  (1) 
1.0

>  <modes>  (1) 
IdealGasTranslation(mass=(30.0106, 'amu')),         NonlinearRotor(             inertia = ([1.77806, 12.8193, 14.5973

>  <frequency_value>  (1) 
unknown

>  <frequency_units>  (1) 
unknown

>  <frequency_list>  (1) 
unknown

>  <arkane_path>  (1) 
/home/calvin/Dropbox/PersonalFolders/Calvin/Kfir_HAb_Converged/kfir_rxn_5172/output/Species/C=O/arkane/output.py

>  <path_exists>  (1) 
True

>  <E0_value>  (1) 
-300229.4768566671

>  <E0_units>  (1) 
kJ/mol

>  <thermo_class>  (1) 
NASA

>  <Cp0_value>  (1) 
33.257888

>  <Cp0_units>  (1) 
J/(mol*K)

>  <CpInf_value>  (1) 
83.14472

>  <CpInf_units>  (1) 
J/(mol*K)

>  <Tmin_value>  (1) 
10.0

>  <Tmin_units>  (1) 
K

>  <Tmax_value>  (1) 
3000.0

>  <Tmax_units>  (1) 
K

>  <polynomials>  (1) 
[{"name": "polynomial1", "class": "NASAPolynomial", "Tmin_value": 10.0, "Tmin_units": "K", "Tmax_value": 596.0286707159722, "Tmax_units": "K", "coeffs": [4.032087237459498, -0.001955116715920283, 9.152121596291731e-06, 2.76879197618042e-09, -7.981720554007688e-12, -36109266.82813086, 3.4661236096212407]}, {"name": "polynomial2", "class": "NASAPolynomial", "Tmin_value": 596.0286707159722, "Tmin_units": "K", "Tmax_value": 3000.0, "Tmax_units": "K", "coeffs": [1.4201278959810038, 0.009518116592628526, -4.481571691319731e-06, 9.71550009167024e-10, -7.775238711903862e-14, -36108847.90047695, 15.618081440774104]}]

>  <H298_value>  (1) 
-71754.19072022193

>  <H298_units>  (1) 
kcal/mol

>  <S298_value>  (1) 
52.2033922782014

>  <S298_units>  (1) 
cal/(mol*K)

>  <Cp_T_value_list>  (1) 
[8.503949384046091, 9.31453495691342, 10.3132057711207, 11.361674589485045, 13.17915652410122, 14.606902602392989, 16.88951903700454, 18.000983295975754, 18.482658918862466]

>  <Cp_T_units>  (1) 
cal/(mol*K)

>  <T_list>  (1) 
[300.0, 400.0, 500.0, 600.0, 800.0, 1000.0, 1500.0, 2000.0, 2400.0]

>  <T_units>  (1) 
K

>  <yaml_path>  (1) 
/home/calvin/Dropbox/PersonalFolders/Calvin/Kfir_HAb_Converged/kfir_rxn_5172/output/Species/C=O/C=O.yml

>  <frequencies_cm1>  (1) 
[1198.0829287804, 1259.87892967508, 1521.5866072056, 1834.858477504, 2871.3269067782003, 2932.0447909776403]

>  <ZPE_kJmol>  (1) 
69.48976791829953

>  <E_elec_kJmol>  (1) 
-300298.9666245854

>  <E0_minus_Eelec_plus_ZPE_kJmol>  (1) 
0.0

>  <rxn>  (1) 
kfir_rxn_5172

>  <species_type>  (1) 
r1

>  <species_folder>  (1) 
C=O

>  <frequencies_cm1_list>  (1) 
[1198.0829287804, 1259.87892967508, 1521.5866072056, 1834.858477504, 2871.3269067782003, 2932.0447909776403]

>  <E0_kJmol>  (1) 
-300229

>  <H298_kJmol>  (1) 
-300220

$$$$

     RDKit          3D

  8  7  0  0  0  0  0  0  0  0999 V2000
    0.3195   -1.5492    1.0626 C   0  0  0  0  0  0  0  0  0  1  0  0
    0.3273   -0.4524    0.4151 C   0  0  0  0  0  2  0  0  0  2  0  0
    0.3377    0.5899   -0.3987 C   0  0  0  0  0  0  0  0  0  3  0  0
   -0.7596    1.2240   -0.8796 O   0  0  0  0  0  0  0  0  0  4  0  0
    0.3195   -1.7419    2.1273 H   0  0  0  0  0  0  0  0  0  5  0  0
    1.2586    1.0506   -0.7296 H   0  0  0  0  0  0  0  0  0  6  0  0
   -1.5471    0.7542   -0.5927 H   0  0  0  0  0  0  0  0  0  7  0  0
    0.3063   -2.4487    0.4615 H   0  0  0  0  0  0  0  0  0  8  0  0
  1  5  1  0
  1  8  1  0
  1  2  1  0
  2  3  1  0
  3  4  1  0
  3  6  1  0
  4  7  1  0
M  RAD  1   2   3
M  END
>  <rmg_smiles>  (2) 
[CH2][C][CH]O

>  <rmg_adjacency_list>  (2) 
1 O u0 p2 c0 {2,S} {8,S}
2 C u0 p0 c0 {1,S} {4,S} {5,S}
3 C u0 p0 c0 {4,S} {6,S} {7,S}
4 C u0 p1 c0 {2,S} {3,S}
5 H u0 p0 c0 {2,S}
6 H u0 p0 c0 {3,S}
7 H u0 p0 c0 {3,S}
8 H u0 p0 c0 {1,S}


>  <multiplicity>  (2) 
1

>  <reaction>  (2) 
kfir_rxn_5172

>  <type>  (2) 
r2h

>  <role_mapnums>  (2) 
{"r2h_a": 1, "r2h_h": 8}

>  <role_mapidx>  (2) 
{"r2h_a": 0, "r2h_h": 7}

>  <ordered_mapped_smiles>  (2) 
[CH:1]([C:2][CH:3]([O:4][H:7])[H:6])([H:5])[H:8]

>  <mol_properties>  (2) 
{"0": {"label": "acceptor", "atom_type": "Cs"}, "7": {"label": "a_hydrogen", "atom_type": "H0"}}

>  <level_of_theory>  (2) 
wb97xd/def2tzvp

>  <lot_method>  (2) 
wb97xd

>  <lot_basis>  (2) 
def2tzvp

>  <spin_multiplicity>  (2) 
1.0

>  <optical_isomers>  (2) 
1.0

>  <modes>  (2) 
IdealGasTranslation(mass=(56.0262, 'amu')),         NonlinearRotor(             inertia = ([11.461, 114.76, 122.768

>  <frequency_value>  (2) 
unknown

>  <frequency_units>  (2) 
unknown

>  <frequency_list>  (2) 
unknown

>  <arkane_path>  (2) 
/home/calvin/Dropbox/PersonalFolders/Calvin/Kfir_HAb_Converged/kfir_rxn_5172/output/Species/C=C=CO/arkane/output.py

>  <path_exists>  (2) 
True

>  <E0_value>  (2) 
-502958.55782174447

>  <E0_units>  (2) 
kJ/mol

>  <thermo_class>  (2) 
NASA

>  <Cp0_value>  (2) 
33.257888

>  <Cp0_units>  (2) 
J/(mol*K)

>  <CpInf_value>  (2) 
178.76114800000002

>  <CpInf_units>  (2) 
J/(mol*K)

>  <Tmin_value>  (2) 
10.0

>  <Tmin_units>  (2) 
K

>  <Tmax_value>  (2) 
3000.0

>  <Tmax_units>  (2) 
K

>  <polynomials>  (2) 
[{"name": "polynomial1", "class": "NASAPolynomial", "Tmin_value": 10.0, "Tmin_units": "K", "Tmax_value": 545.6240580961056, "Tmax_units": "K", "coeffs": [3.9092554215853443, 0.005498186581752687, 8.855497377213463e-05, -1.8952771012280488e-07, 1.1961444841648975e-10, -60491938.05563273, 7.8889048941666156]}, {"name": "polynomial2", "class": "NASAPolynomial", "Tmin_value": 545.6240580961056, "Tmin_units": "K", "Tmax_value": 3000.0, "Tmax_units": "K", "coeffs": [4.3201479094962565, 0.02276284336477125, -1.4652321945288254e-05, 4.686032432004802e-09, -5.802260780842719e-13, -60492284.72202476, 3.389619620194551]}]

>  <H298_value>  (2) 
-120206.25090132256

>  <H298_units>  (2) 
kcal/mol

>  <S298_value>  (2) 
68.15072847274126

>  <S298_units>  (2) 
cal/(mol*K)

>  <Cp_T_value_list>  (2) 
[18.640569084712187, 22.275953519208052, 25.003094625456562, 27.105504092570822, 30.433122764547377, 32.86139197995964, 36.51423092272913, 38.63365729544017, 39.90867308589651]

>  <Cp_T_units>  (2) 
cal/(mol*K)

>  <T_list>  (2) 
[300.0, 400.0, 500.0, 600.0, 800.0, 1000.0, 1500.0, 2000.0, 2400.0]

>  <T_units>  (2) 
K

>  <yaml_path>  (2) 
/home/calvin/Dropbox/PersonalFolders/Calvin/Kfir_HAb_Converged/kfir_rxn_5172/output/Species/C=C=CO/C=C=CO.yml

>  <frequencies_cm1>  (2) 
[215.714575844056, 273.24272420517934, 632.6328551744618, 638.4219849391783, 902.3992228856712, 934.2032330833748, 998.8642703296395, 1031.3305399448707, 1194.6778646760674, 1286.5512178655945, 1406.7508384961723, 1498.025973683924, 2065.942007676478, 3089.408957140027, 3164.5826995471334, 3175.037248130302, 3827.5439142116206]

>  <ZPE_kJmol>  (2) 
157.52030015351585

>  <E_elec_kJmol>  (2) 
-503116.078121898

>  <E0_minus_Eelec_plus_ZPE_kJmol>  (2) 
0.0

>  <rxn>  (2) 
kfir_rxn_5172

>  <species_type>  (2) 
p0

>  <species_folder>  (2) 
C=C=CO

>  <frequencies_cm1_list>  (2) 
[215.714575844056, 273.24272420517934, 632.6328551744618, 638.4219849391783, 902.3992228856712, 934.2032330833748, 998.8642703296395, 1031.3305399448707, 1194.6778646760674, 1286.5512178655945, 1406.7508384961723, 1498.025973683924, 2065.942007676478, 3089.408957140027, 3164.5826995471334, 3175.037248130302, 3827.5439142116206]

>  <E0_kJmol>  (2) 
-502959

>  <H298_kJmol>  (2) 
-502943

$$$$

     RDKit          3D

 11  9  0  0  0  0  0  0  0  0999 V2000
    0.2292   -0.2855    1.4956 C   0  0  0  0  0  0  0  0  0  1  0  0
    0.2370    0.8112    0.8481 C   0  0  0  0  0  0  0  0  0  2  0  0
    0.2474    1.8535    0.0344 C   0  0  0  0  0  3  0  0  0  3  0  0
   -0.8499    2.4877   -0.4466 O   0  0  0  0  0  0  0  0  0  4  0  0
    0.2292   -0.4782    2.5603 H   0  0  0  0  0  0  0  0  0  5  0  0
    1.1683    2.3143   -0.2965 H   0  0  0  0  0  0  0  0  0  6  0  0
   -1.6374    2.0178   -0.1597 H   0  0  0  0  0  0  0  0  0  7  0  0
    0.1779   -2.4051   -0.1892 C   0  0  0  0  0  0  0  0  0  8  0  0
   -0.0081   -2.1225   -1.3207 O   0  0  0  0  0  0  0  0  0  9  0  0
    0.2127   -1.4157    0.7405 H   0  0  0  0  0  0  0  0  0 10  0  0
    0.3419   -3.4525    0.1618 H   0  0  0  0  0  0  0  0  0 11  0  0
  1  5  1  0
  1  2  1  0
  2  3  1  0
  3  4  1  0
  3  6  1  0
  4  7  1  0
  8 11  1  0
  8 10  1  0
  8  9  1  0
M  RAD  1   3   2
M  END
>  <rmg_smiles>  (3) 
[CH2]O.[CH]C[CH]O

>  <rmg_adjacency_list>  (3) 
multiplicity 2
1  O u0 p2 c0 {3,S} {10,S}
2  O u0 p2 c0 {4,S}
3  C u1 p0 c0 {1,S} {5,S} {7,S}
4  C u0 p0 c0 {2,S} {8,S} {9,S}
5  C u0 p1 c0 {3,S} {6,S}
6  C u0 p1 c0 {5,S} {11,S}
7  H u0 p0 c0 {3,S}
8  H u0 p0 c0 {4,S}
9  H u0 p0 c0 {4,S}
10 H u0 p0 c0 {1,S}
11 H u0 p0 c0 {6,S}


>  <multiplicity>  (3) 
2

>  <reaction>  (3) 
kfir_rxn_5172

>  <type>  (3) 
ts

>  <role_mapnums>  (3) 
{"*2": 10, "*1": 8, "*3": 1, "*0": 9, "*4": 2}

>  <role_mapidx>  (3) 
{"*2": 9, "*1": 7, "*3": 0, "*0": 8, "*4": 1}

>  <ordered_mapped_smiles>  (3) 
[CH2:1]([CH2:2][C:3]([O:4][H:7])[H:6])[H:5].[CH:8]([OH:9])([H:10])[H:11]

>  <mol_properties>  (3) 
{"0": {"label": "*3", "atom_type": "C2s"}, "1": {"label": "*4", "atom_type": "C2s"}, "7": {"label": "*1", "atom_type": "Cs"}, "8": {"label": "*0", "atom_type": "O2s"}, "9": {"label": "*2", "atom_type": "H0"}}

>  <level_of_theory>  (3) 
wb97xd/def2tzvp

>  <lot_method>  (3) 
wb97xd

>  <lot_basis>  (3) 
def2tzvp

>  <spin_multiplicity>  (3) 
2.0

>  <optical_isomers>  (3) 
2.0

>  <modes>  (3) 
IdealGasTranslation(mass=(85.0289, 'amu')),         NonlinearRotor(             inertia = ([84.8297, 331.533, 396.746

>  <frequency_value>  (3) 
-1845.19

>  <frequency_units>  (3) 
cm^-1

>  <frequency_list>  (3) 
unknown

>  <arkane_path>  (3) 
/home/calvin/Dropbox/PersonalFolders/Calvin/Kfir_HAb_Converged/kfir_rxn_5172/output/rxns/TS0/arkane/output.py

>  <path_exists>  (3) 
True

>  <E0_value>  (3) 
-801435.0

>  <E0_units>  (3) 
kJ/mol

>  <thermo_class>  (3) 
unknown

>  <Cp0_value>  (3) 
unknown

>  <Cp0_units>  (3) 
unknown

>  <CpInf_value>  (3) 
unknown

>  <CpInf_units>  (3) 
unknown

>  <Tmin_value>  (3) 
unknown

>  <Tmin_units>  (3) 
unknown

>  <Tmax_value>  (3) 
unknown

>  <Tmax_units>  (3) 
unknown

>  <polynomials>  (3) 
unknown

>  <H298_value>  (3) 
unknown

>  <H298_units>  (3) 
unknown

>  <S298_value>  (3) 
unknown

>  <S298_units>  (3) 
unknown

>  <Cp_T_value_list>  (3) 
unknown

>  <Cp_T_units>  (3) 
unknown

>  <T_list>  (3) 
unknown

>  <T_units>  (3) 
unknown

>  <yaml_path>  (3) 
unknown

>  <frequencies_cm1>  (3) 
unknown

>  <ZPE_kJmol>  (3) 
unknown

>  <E_elec_kJmol>  (3) 
unknown

>  <E0_minus_Eelec_plus_ZPE_kJmol>  (3) 
unknown

>  <rxn>  (3) 
unknown

>  <species_type>  (3) 
unknown

>  <species_folder>  (3) 
unknown

>  <frequencies_cm1_list>  (3) 
[]

>  <ts_imag_freq_cm1>  (3) 
-1867.6021

>  <ts_freq_out_path>  (3) 
/home/calvin/Dropbox/PersonalFolders/Calvin/Kfir_HAb_Converged/kfir_rxn_5172/output/rxns/TS0/geometry/freq.out

>  <E0_kJmol>  (3) 
-801435

>  <H298_kJmol>  (3) 
unknown

$$$$

     RDKit          3D

  3  2  0  0  0  0  0  0  0  0999 V2000
   -0.0494   -0.2484    0.2507 C   0  0  0  0  0  3  0  0  0  1  0  0
    1.0305   -0.0025   -0.1225 O   0  0  0  0  0  0  0  0  0  2  0  0
   -0.9811    0.2509   -0.1282 H   0  0  0  0  0  0  0  0  0  3  0  0
  1  3  1  0
  1  2  1  0
M  RAD  1   1   2
M  END
>  <rmg_smiles>  (4) 
[CH]O

>  <rmg_adjacency_list>  (4) 
multiplicity 2
1 O u0 p2 c0 {2,S}
2 C u1 p1 c0 {1,S} {3,S}
3 H u0 p0 c0 {2,S}


>  <multiplicity>  (4) 
2

>  <reaction>  (4) 
kfir_rxn_5172

>  <type>  (4) 
r1

>  <role_mapnums>  (4) 
{}

>  <role_mapidx>  (4) 
{}

>  <ordered_mapped_smiles>  (4) 
[CH:1]([OH:2])[H:3]

>  <level_of_theory>  (4) 
wb97xd/def2tzvp

>  <lot_method>  (4) 
wb97xd

>  <lot_basis>  (4) 
def2tzvp

>  <spin_multiplicity>  (4) 
2.0

>  <optical_isomers>  (4) 
1.0

>  <modes>  (4) 
IdealGasTranslation(mass=(29.0027, 'amu')),         NonlinearRotor(             inertia = ([0.700875, 11.1487, 11.8495

>  <frequency_value>  (4) 
unknown

>  <frequency_units>  (4) 
unknown

>  <frequency_list>  (4) 
unknown

>  <arkane_path>  (4) 
/home/calvin/Dropbox/PersonalFolders/Calvin/Kfir_HAb_Converged/kfir_rxn_5172/output/Species/_CH_=O/arkane/output.py

>  <path_exists>  (4) 
True

>  <E0_value>  (4) 
-298554.4072964871

>  <E0_units>  (4) 
kJ/mol

>  <thermo_class>  (4) 
NASA

>  <Cp0_value>  (4) 
33.257888

>  <Cp0_units>  (4) 
J/(mol*K)

>  <CpInf_value>  (4) 
58.201304

>  <CpInf_units>  (4) 
J/(mol*K)

>  <Tmin_value>  (4) 
10.0

>  <Tmin_units>  (4) 
K

>  <Tmax_value>  (4) 
3000.0

>  <Tmax_units>  (4) 
K

>  <polynomials>  (4) 
[{"name": "polynomial1", "class": "NASAPolynomial", "Tmin_value": 10.0, "Tmin_units": "K", "Tmax_value": 629.0312677249469, "Tmax_units": "K", "coeffs": [4.014102868795665, -0.0008324774619089197, 4.565570691034393e-06, 1.8757839670525886e-10, -2.6565852656017716e-12, -35907801.79541003, 4.13319583939891]}, {"name": "polynomial2", "class": "NASAPolynomial", "Tmin_value": 629.0312677249469, "Tmin_units": "K", "Tmax_value": 3000.0, "Tmax_units": "K", "coeffs": [2.7179933946072192, 0.0046960047777740085, -2.1471908242184673e-06, 4.442677802812522e-10, -3.310194374451813e-14, -35907585.053641215, 10.212044197407785]}]

>  <H298_value>  (4) 
-71353.83522965231

>  <H298_units>  (4) 
kcal/mol

>  <S298_value>  (4) 
53.56112603095627

>  <S298_units>  (4) 
cal/(mol*K)

>  <Cp_T_value_list>  (4) 
[8.264408840138174, 8.655475898682708, 9.134527600511248, 9.646785305770427, 10.561012201737716, 11.283305224888808, 12.445171589626993, 13.007758534692325, 13.242546315033742]

>  <Cp_T_units>  (4) 
cal/(mol*K)

>  <T_list>  (4) 
[300.0, 400.0, 500.0, 600.0, 800.0, 1000.0, 1500.0, 2000.0, 2400.0]

>  <T_units>  (4) 
K

>  <yaml_path>  (4) 
/home/calvin/Dropbox/PersonalFolders/Calvin/Kfir_HAb_Converged/kfir_rxn_5172/output/Species/_CH_=O/_CH_=O.yml

>  <frequencies_cm1>  (4) 
[1103.9502940138398, 1953.2453044207998, 2665.0701357066796]

>  <ZPE_kJmol>  (4) 
34.2267597035915

>  <E_elec_kJmol>  (4) 
-298588.63405619067

>  <E0_minus_Eelec_plus_ZPE_kJmol>  (4) 
0.0

>  <rxn>  (4) 
kfir_rxn_5172

>  <species_type>  (4) 
p1

>  <species_folder>  (4) 
_CH_=O

>  <frequencies_cm1_list>  (4) 
[1103.9502940138398, 1953.2453044207998, 2665.0701357066796]

>  <E0_kJmol>  (4) 
-298554

>  <H298_kJmol>  (4) 
-298544

$$$$

     RDKit          3D

  7  6  0  0  0  0  0  0  0  0999 V2000
    1.7224   -0.1968    0.0913 C   0  0  0  0  0  0  0  0  0  1  0  0
    0.5629    0.1599    0.0147 C   0  0  0  0  0  0  0  0  0  2  0  0
   -0.7537    0.5416   -0.0706 C   0  0  0  0  0  3  0  0  0  3  0  0
   -1.7777   -0.3424   -0.0575 O   0  0  0  0  0  0  0  0  0  4  0  0
    2.7397   -0.4988    0.1577 H   0  0  0  0  0  0  0  0  0  5  0  0
   -1.0677    1.5700   -0.1541 H   0  0  0  0  0  0  0  0  0  6  0  0
   -1.4259   -1.2335    0.0185 H   0  0  0  0  0  0  0  0  0  7  0  0
  1  5  1  0
  1  2  1  0
  2  3  1  0
  3  4  1  0
  3  6  1  0
  4  7  1  0
M  RAD  1   3   2
M  END
>  <rmg_smiles>  (5) 
[CH]C[CH]O

>  <rmg_adjacency_list>  (5) 
multiplicity 2
1 O u0 p2 c0 {2,S} {6,S}
2 C u1 p0 c0 {1,S} {3,S} {5,S}
3 C u0 p1 c0 {2,S} {4,S}
4 C u0 p1 c0 {3,S} {7,S}
5 H u0 p0 c0 {2,S}
6 H u0 p0 c0 {1,S}
7 H u0 p0 c0 {4,S}


>  <multiplicity>  (5) 
2

>  <reaction>  (5) 
kfir_rxn_5172

>  <type>  (5) 
r2

>  <role_mapnums>  (5) 
{}

>  <role_mapidx>  (5) 
{}

>  <ordered_mapped_smiles>  (5) 
[CH2:1]([CH2:2][C:3]([O:4][H:7])[H:6])[H:5]

>  <level_of_theory>  (5) 
wb97xd/def2tzvp

>  <lot_method>  (5) 
wb97xd

>  <lot_basis>  (5) 
def2tzvp

>  <spin_multiplicity>  (5) 
2.0

>  <optical_isomers>  (5) 
1.0

>  <modes>  (5) 
IdealGasTranslation(mass=(55.0184, 'amu')),         NonlinearRotor(             inertia = ([10.4758, 105.997, 116.473

>  <frequency_value>  (5) 
unknown

>  <frequency_units>  (5) 
unknown

>  <frequency_list>  (5) 
unknown

>  <arkane_path>  (5) 
/home/calvin/Dropbox/PersonalFolders/Calvin/Kfir_HAb_Converged/kfir_rxn_5172/output/Species/_CH_=C=CO/arkane/output.py

>  <path_exists>  (5) 
True

>  <E0_value>  (5) 
-501291.1739303416

>  <E0_units>  (5) 
kJ/mol

>  <thermo_class>  (5) 
NASA

>  <Cp0_value>  (5) 
33.257888

>  <Cp0_units>  (5) 
J/(mol*K)

>  <CpInf_value>  (5) 
153.817732

>  <CpInf_units>  (5) 
J/(mol*K)

>  <Tmin_value>  (5) 
10.0

>  <Tmin_units>  (5) 
K

>  <Tmax_value>  (5) 
3000.0

>  <Tmax_units>  (5) 
K

>  <polynomials>  (5) 
[{"name": "polynomial1", "class": "NASAPolynomial", "Tmin_value": 10.0, "Tmin_units": "K", "Tmax_value": 532.6315298802218, "Tmax_units": "K", "coeffs": [3.8836103633031027, 0.007225330499182665, 8.862904650905401e-05, -2.104735391937709e-07, 1.4155927787368917e-10, -60291397.53185359, 8.370428327238274]}, {"name": "polynomial2", "class": "NASAPolynomial", "Tmin_value": 532.6315298802218, "Tmin_units": "K", "Tmax_value": 3000.0, "Tmax_units": "K", "coeffs": [5.754051686632457, 0.01816154752849342, -1.2526891182415895e-05, 4.2004934277591644e-09, -5.354538411222784e-13, -60291951.16250388, -2.801816153594874]}]

>  <H298_value>  (5) 
-119807.65852665772

>  <H298_units>  (5) 
kcal/mol

>  <S298_value>  (5) 
69.56541435925844

>  <S298_units>  (5) 
cal/(mol*K)

>  <Cp_T_value_list>  (5) 
[18.861904933623663, 22.073891818883148, 24.2276236381751, 25.792372755971215, 28.213185636270783, 29.91490513291734, 32.3453589333765, 33.79496628302606, 34.75508977857358]

>  <Cp_T_units>  (5) 
cal/(mol*K)

>  <T_list>  (5) 
[300.0, 400.0, 500.0, 600.0, 800.0, 1000.0, 1500.0, 2000.0, 2400.0]

>  <T_units>  (5) 
K

>  <yaml_path>  (5) 
/home/calvin/Dropbox/PersonalFolders/Calvin/Kfir_HAb_Converged/kfir_rxn_5172/output/Species/_CH_=C=CO/_CH_=C=CO.yml

>  <frequencies_cm1>  (5) 
[214.89033226290016, 375.9855940144871, 409.5320406732856, 558.4484776431889, 606.4185244705749, 717.0386133016555, 983.236915974688, 1202.2879116548627, 1316.0245787925044, 1444.7088140406047, 2040.4479614034876, 3216.058096600127, 3428.746560801265, 3819.0572143930644]

>  <ZPE_kJmol>  (5) 
121.61767491601556

>  <E_elec_kJmol>  (5) 
-501412.7916052576

>  <E0_minus_Eelec_plus_ZPE_kJmol>  (5) 
0.0

>  <rxn>  (5) 
kfir_rxn_5172

>  <species_type>  (5) 
r0

>  <species_folder>  (5) 
_CH_=C=CO

>  <frequencies_cm1_list>  (5) 
[214.89033226290016, 375.9855940144871, 409.5320406732856, 558.4484776431889, 606.4185244705749, 717.0386133016555, 983.236915974688, 1202.2879116548627, 1316.0245787925044, 1444.7088140406047, 2040.4479614034876, 3216.058096600127, 3428.746560801265, 3819.0572143930644]

>  <E0_kJmol>  (5) 
-501291

>  <H298_kJmol>  (5) 
-501275

$$$$
