
     RDKit          3D

  7  6  0  0  0  0  0  0  0  0999 V2000
    1.1742   -0.0983   -0.6469 C   0  0  0  0  0  2  0  0  0  1  0  0
    0.1009   -0.0662   -0.0950 C   0  0  0  0  0  2  0  0  0  2  0  0
   -1.1027    0.1011    0.6135 C   0  0  0  0  0  0  0  0  0  3  0  0
    2.1072   -0.1411   -1.1563 H   0  0  0  0  0  0  0  0  0  4  0  0
   -0.9211    1.0070    1.1872 H   0  0  0  0  0  0  0  0  0  5  0  0
   -1.3038   -0.6421    1.3815 H   0  0  0  0  0  0  0  0  0  6  0  0
   -1.9683    0.3630    0.0094 H   0  0  0  0  0  0  0  0  0  7  0  0
  1  4  1  0
  1  2  1  0
  2  3  1  0
  3  6  1  0
  3  7  1  0
  3  5  1  0
M  RAD  2   1   3   2   3
M  END
>  <rmg_smiles>  (1) 
[CH][C]C

>  <rmg_adjacency_list>  (1) 
1 C u0 p0 c0 {2,S} {4,S} {5,S} {6,S}
2 C u0 p1 c0 {1,S} {3,S}
3 C u0 p1 c0 {2,S} {7,S}
4 H u0 p0 c0 {1,S}
5 H u0 p0 c0 {1,S}
6 H u0 p0 c0 {1,S}
7 H u0 p0 c0 {3,S}


>  <multiplicity>  (1) 
1

>  <reaction>  (1) 
kfir_rxn_10391

>  <type>  (1) 
r1h

>  <role_mapnums>  (1) 
{"r1h_a": 3, "r1h_h": 5}

>  <role_mapidx>  (1) 
{"r1h_a": 2, "r1h_h": 4}

>  <ordered_mapped_smiles>  (1) 
[C:1]([C:2][C:3]([H:5])([H:6])[H:7])[H:4]

>  <mol_properties>  (1) 
{"2": {"label": "donator", "atom_type": "Cs"}, "4": {"label": "d_hydrogen", "atom_type": "H0"}}

>  <level_of_theory>  (1) 
wb97xd/def2tzvp

>  <lot_method>  (1) 
wb97xd

>  <lot_basis>  (1) 
def2tzvp

>  <spin_multiplicity>  (1) 
1.0

>  <optical_isomers>  (1) 
1.0

>  <modes>  (1) 
IdealGasTranslation(mass=(40.0313, 'amu')),         NonlinearRotor(             inertia = ([3.14896, 58.5628, 58.5628

>  <frequency_value>  (1) 
unknown

>  <frequency_units>  (1) 
unknown

>  <frequency_list>  (1) 
unknown

>  <arkane_path>  (1) 
/home/calvin/Dropbox/PersonalFolders/Calvin/Kfir_HAb_Converged/kfir_rxn_10391/output/Species/CtCC/arkane/output.py

>  <path_exists>  (1) 
True

>  <E0_value>  (1) 
-306134.272071366

>  <E0_units>  (1) 
kJ/mol

>  <thermo_class>  (1) 
NASA

>  <Cp0_value>  (1) 
33.257888

>  <Cp0_units>  (1) 
J/(mol*K)

>  <CpInf_value>  (1) 
157.97496800000002

>  <CpInf_units>  (1) 
J/(mol*K)

>  <Tmin_value>  (1) 
10.0

>  <Tmin_units>  (1) 
K

>  <Tmax_value>  (1) 
3000.0

>  <Tmax_units>  (1) 
K

>  <polynomials>  (1) 
[{"name": "polynomial1", "class": "NASAPolynomial", "Tmin_value": 10.0, "Tmin_units": "K", "Tmax_value": 431.2097180749653, "Tmax_units": "K", "coeffs": [3.979824244418846, 0.0012502679060560694, 5.649222862543357e-05, -1.0249564733389337e-07, 6.104734048640429e-11, -36819447.469936095, 4.8793113987325825]}, {"name": "polynomial2", "class": "NASAPolynomial", "Tmin_value": 431.2097180749653, "Tmin_units": "K", "Tmax_value": 3000.0, "Tmax_units": "K", "coeffs": [1.8580648669911648, 0.020937827345734038, -1.2012234416907578e-05, 3.445164612172472e-09, -3.909269230984794e-13, -36819264.53766353, 13.330225890521797]}]

>  <H298_value>  (1) 
-73164.73251377915

>  <H298_units>  (1) 
kcal/mol

>  <S298_value>  (1) 
58.92049936348175

>  <S298_units>  (1) 
cal/(mol*K)

>  <Cp_T_value_list>  (1) 
[14.240930213732804, 16.93453358322682, 19.33578271706531, 21.441656708625306, 24.888365075053336, 27.49875586712662, 31.568049991991277, 33.76515826611373, 34.923800510105]

>  <Cp_T_units>  (1) 
cal/(mol*K)

>  <T_list>  (1) 
[300.0, 400.0, 500.0, 600.0, 800.0, 1000.0, 1500.0, 2000.0, 2400.0]

>  <T_units>  (1) 
K

>  <yaml_path>  (1) 
/home/calvin/Dropbox/PersonalFolders/Calvin/Kfir_HAb_Converged/kfir_rxn_10391/output/Species/CtCC/CtCC.yml

>  <frequencies_cm1>  (1) 
[349.98964080443994, 351.7269880904, 682.36546426308, 684.3225550792799, 939.0877104512799, 1047.6066794632397, 1048.12170336224, 1402.15599852016, 1465.4009333173599, 1465.7236816273999, 2229.1813755343596, 3023.21775507128, 3095.5957803440792, 3095.92539563944, 3438.2308798707995]

>  <ZPE_kJmol>  (1) 
145.45788600568434

>  <E_elec_kJmol>  (1) 
-306279.72995737166

>  <E0_minus_Eelec_plus_ZPE_kJmol>  (1) 
0.0

>  <rxn>  (1) 
kfir_rxn_10391

>  <species_type>  (1) 
r1

>  <species_folder>  (1) 
CtCC

>  <frequencies_cm1_list>  (1) 
[349.98964080443994, 351.7269880904, 682.36546426308, 684.3225550792799, 939.0877104512799, 1047.6066794632397, 1048.12170336224, 1402.15599852016, 1465.4009333173599, 1465.7236816273999, 2229.1813755343596, 3023.21775507128, 3095.5957803440792, 3095.92539563944, 3438.2308798707995]

>  <E0_kJmol>  (1) 
-306134

>  <H298_kJmol>  (1) 
-306121

$$$$

     RDKit          3D

  8  8  0  0  0  0  0  0  0  0999 V2000
   -1.9512    0.0286   -0.0168 O   0  0  0  0  0  0  0  0  0  1  0  0
   -0.6668    0.0082    0.0047 C   0  0  0  0  0  0  0  0  0  2  0  0
    0.0733    0.5564   -0.9506 N   0  0  0  0  0  0  0  0  0  3  0  0
    1.3604    0.3342   -0.5337 O   0  0  0  0  0  0  0  0  0  4  0  0
    1.2799   -0.3352    0.6194 C   0  0  0  0  0  0  0  0  0  5  0  0
    0.0868   -0.5758    1.0108 N   0  0  0  0  0  0  0  0  0  6  0  0
    2.2121   -0.5992    1.0955 H   0  0  0  0  0  0  0  0  0  7  0  0
   -2.2621   -0.7523   -0.4806 H   0  0  0  0  0  0  0  0  0  8  0  0
  1  8  1  0
  1  2  1  0
  2  3  1  0
  2  6  1  0
  3  4  1  0
  4  5  1  0
  5  6  1  0
  5  7  1  0
M  END
>  <rmg_smiles>  (2) 
O[C]1[N]O[CH][N]1

>  <rmg_adjacency_list>  (2) 
1 O u0 p2 c0 {4,S} {6,S}
2 O u0 p2 c0 {5,S} {8,S}
3 N u0 p1 c0 {5,S} {6,S}
4 N u0 p1 c0 {1,S} {5,S}
5 C u0 p0 c0 {2,S} {3,S} {4,S}
6 C u0 p0 c0 {1,S} {3,S} {7,S}
7 H u0 p0 c0 {6,S}
8 H u0 p0 c0 {2,S}


>  <multiplicity>  (2) 
1

>  <reaction>  (2) 
kfir_rxn_10391

>  <type>  (2) 
r2h

>  <role_mapnums>  (2) 
{"r2h_a": 1, "r2h_h": 8}

>  <role_mapidx>  (2) 
{"r2h_a": 0, "r2h_h": 7}

>  <ordered_mapped_smiles>  (2) 
[O:1]([CH:2]1[NH:3][O:4][CH:5]([H:7])[NH:6]1)[H:8]

>  <mol_properties>  (2) 
{"0": {"label": "acceptor", "atom_type": "O2s"}, "7": {"label": "a_hydrogen", "atom_type": "H0"}}

>  <level_of_theory>  (2) 
wb97xd/def2tzvp

>  <lot_method>  (2) 
wb97xd

>  <lot_basis>  (2) 
def2tzvp

>  <spin_multiplicity>  (2) 
1.0

>  <optical_isomers>  (2) 
1.0

>  <modes>  (2) 
IdealGasTranslation(mass=(86.0116, 'amu')),         NonlinearRotor(             inertia = ([49.9707, 126.651, 176.622

>  <frequency_value>  (2) 
unknown

>  <frequency_units>  (2) 
unknown

>  <frequency_list>  (2) 
unknown

>  <arkane_path>  (2) 
/home/calvin/Dropbox/PersonalFolders/Calvin/Kfir_HAb_Converged/kfir_rxn_10391/output/Species/Oc1nocn1/arkane/output.py

>  <path_exists>  (2) 
True

>  <E0_value>  (2) 
-885550.4932680624

>  <E0_units>  (2) 
kJ/mol

>  <thermo_class>  (2) 
NASA

>  <Cp0_value>  (2) 
33.257888

>  <Cp0_units>  (2) 
J/(mol*K)

>  <CpInf_value>  (2) 
178.76114800000002

>  <CpInf_units>  (2) 
J/(mol*K)

>  <Tmin_value>  (2) 
10.0

>  <Tmin_units>  (2) 
K

>  <Tmax_value>  (2) 
3000.0

>  <Tmax_units>  (2) 
K

>  <polynomials>  (2) 
[{"name": "polynomial1", "class": "NASAPolynomial", "Tmin_value": 10.0, "Tmin_units": "K", "Tmax_value": 617.0770083895839, "Tmax_units": "K", "coeffs": [4.059502853122302, -0.005810821754854509, 0.00012719391613972046, -2.1733216377210024e-07, 1.157282611976764e-10, -106507121.20610926, 10.152258696961992]}, {"name": "polynomial2", "class": "NASAPolynomial", "Tmin_value": 617.0770083895839, "Tmin_units": "K", "Tmax_value": 3000.0, "Tmax_units": "K", "coeffs": [2.072854775307755, 0.03123345764032274, -2.1598117541950435e-05, 6.88218593812173e-09, -8.209735460614426e-13, -106507336.13367598, 15.049464972502852]}]

>  <H298_value>  (2) 
-211648.26612758325

>  <H298_units>  (2) 
kcal/mol

>  <S298_value>  (2) 
70.559141205771

>  <S298_units>  (2) 
cal/(mol*K)

>  <Cp_T_value_list>  (2) 
[17.553271787344865, 22.136657198064334, 25.871574308457177, 28.650460078595515, 32.638344769925936, 35.3114816366144, 38.54877708054193, 39.88166588494176, 40.79616222247959]

>  <Cp_T_units>  (2) 
cal/(mol*K)

>  <T_list>  (2) 
[300.0, 400.0, 500.0, 600.0, 800.0, 1000.0, 1500.0, 2000.0, 2400.0]

>  <T_units>  (2) 
K

>  <yaml_path>  (2) 
/home/calvin/Dropbox/PersonalFolders/Calvin/Kfir_HAb_Converged/kfir_rxn_10391/output/Species/Oc1nocn1/Oc1nocn1.yml

>  <frequencies_cm1>  (2) 
[345.0271191659805, 452.00303589781515, 617.7011064102679, 736.9337718159109, 778.238717025863, 925.9098514582051, 967.5824167558319, 980.8957679917546, 1038.007195154923, 1174.9532546565456, 1222.2337036279862, 1316.879297557162, 1465.7964419129835, 1577.7977897557316, 1650.1080080141571, 3240.720083288435, 3813.9574981891656]

>  <ZPE_kJmol>  (2) 
133.41204076182677

>  <E_elec_kJmol>  (2) 
-885683.9053088241

>  <E0_minus_Eelec_plus_ZPE_kJmol>  (2) 
0.0

>  <rxn>  (2) 
kfir_rxn_10391

>  <species_type>  (2) 
p0

>  <species_folder>  (2) 
Oc1nocn1

>  <frequencies_cm1_list>  (2) 
[345.0271191659805, 452.00303589781515, 617.7011064102679, 736.9337718159109, 778.238717025863, 925.9098514582051, 967.5824167558319, 980.8957679917546, 1038.007195154923, 1174.9532546565456, 1222.2337036279862, 1316.879297557162, 1465.7964419129835, 1577.7977897557316, 1650.1080080141571, 3240.720083288435, 3813.9574981891656]

>  <E0_kJmol>  (2) 
-885550

>  <H298_kJmol>  (2) 
-885536

$$$$

     RDKit          3D

 14 13  0  0  0  0  0  0  0  0999 V2000
   -1.5030    0.7443    0.4936 O   0  0  0  0  0  0  0  0  0  1  0  0
   -0.2186    0.7239    0.5151 C   0  0  0  0  0  0  0  0  0  2  0  0
    0.5215    1.2721   -0.4402 N   0  0  0  0  0  0  0  0  0  3  0  0
    1.8086    1.0499   -0.0233 O   0  0  0  0  0  0  0  0  0  4  0  0
    1.7281    0.3805    1.1297 C   0  0  0  0  0  0  0  0  0  5  0  0
    0.5350    0.1399    1.5212 N   0  0  0  0  0  0  0  0  0  6  0  0
    2.6603    0.1165    1.6058 H   0  0  0  0  0  0  0  0  0  7  0  0
    0.1505   -1.5538   -2.0555 C   0  0  0  0  0  0  0  0  0  8  0  0
   -0.9227   -1.5217   -1.5036 C   0  0  0  0  0  0  0  0  0  9  0  0
   -2.1263   -1.3544   -0.7952 C   0  0  0  0  0  3  0  0  0 10  0  0
    1.0836   -1.5966   -2.5650 H   0  0  0  0  0  0  0  0  0 11  0  0
   -1.9110   -0.2805   -0.1151 H   0  0  0  0  0  0  0  0  0 12  0  0
   -2.3275   -2.0976   -0.0271 H   0  0  0  0  0  0  0  0  0 13  0  0
   -2.9920   -1.0925   -1.3993 H   0  0  0  0  0  0  0  0  0 14  0  0
  1  2  1  0
  1 12  1  0
  2  3  1  0
  2  6  1  0
  3  4  1  0
  4  5  1  0
  5  6  1  0
  5  7  1  0
  8  9  1  0
  8 11  1  0
  9 10  1  0
 10 13  1  0
 10 14  1  0
M  RAD  1  10   2
M  END
>  <rmg_smiles>  (3) 
O[C]1[N]O[CH][N]1.[CH][C][CH2]

>  <rmg_adjacency_list>  (3) 
multiplicity 2
1  O u0 p2 c0 {4,S} {6,S}
2  O u0 p2 c0 {5,S} {13,S}
3  N u0 p1 c0 {5,S} {6,S}
4  N u0 p1 c0 {1,S} {5,S}
5  C u0 p0 c0 {2,S} {3,S} {4,S}
6  C u0 p0 c0 {1,S} {3,S} {10,S}
7  C u1 p0 c0 {8,S} {11,S} {12,S}
8  C u0 p1 c0 {7,S} {9,S}
9  C u0 p1 c0 {8,S} {14,S}
10 H u0 p0 c0 {6,S}
11 H u0 p0 c0 {7,S}
12 H u0 p0 c0 {7,S}
13 H u0 p0 c0 {2,S}
14 H u0 p0 c0 {9,S}


>  <multiplicity>  (3) 
2

>  <reaction>  (3) 
kfir_rxn_10391

>  <type>  (3) 
ts

>  <role_mapnums>  (3) 
{"*2": 12, "*1": 10, "*3": 1, "*0": 2, "*4": 9}

>  <role_mapidx>  (3) 
{"*2": 11, "*1": 9, "*3": 0, "*0": 1, "*4": 8}

>  <ordered_mapped_smiles>  (3) 
[O:1]([CH:2]1[NH:3][O:4][CH:5]([H:7])[NH:6]1)[H:12].[CH2:8]([CH2:9][C:10]([H:13])[H:14])[H:11]

>  <mol_properties>  (3) 
{"0": {"label": "*3", "atom_type": "O2s"}, "1": {"label": "*0", "atom_type": "Cs"}, "8": {"label": "*4", "atom_type": "C2s"}, "9": {"label": "*1", "atom_type": "Cs"}, "11": {"label": "*2", "atom_type": "H0"}}

>  <level_of_theory>  (3) 
wb97xd/def2tzvp

>  <lot_method>  (3) 
wb97xd

>  <lot_basis>  (3) 
def2tzvp

>  <spin_multiplicity>  (3) 
2.0

>  <optical_isomers>  (3) 
2.0

>  <modes>  (3) 
IdealGasTranslation(mass=(125.035, 'amu')),         NonlinearRotor(             inertia = ([186.311, 384.365, 471.823

>  <frequency_value>  (3) 
-1864.76

>  <frequency_units>  (3) 
cm^-1

>  <frequency_list>  (3) 
unknown

>  <arkane_path>  (3) 
/home/calvin/Dropbox/PersonalFolders/Calvin/Kfir_HAb_Converged/kfir_rxn_10391/output/rxns/TS0/arkane/output.py

>  <path_exists>  (3) 
True

>  <E0_value>  (3) 
-1189930.0

>  <E0_units>  (3) 
kJ/mol

>  <thermo_class>  (3) 
unknown

>  <Cp0_value>  (3) 
unknown

>  <Cp0_units>  (3) 
unknown

>  <CpInf_value>  (3) 
unknown

>  <CpInf_units>  (3) 
unknown

>  <Tmin_value>  (3) 
unknown

>  <Tmin_units>  (3) 
unknown

>  <Tmax_value>  (3) 
unknown

>  <Tmax_units>  (3) 
unknown

>  <polynomials>  (3) 
unknown

>  <H298_value>  (3) 
unknown

>  <H298_units>  (3) 
unknown

>  <S298_value>  (3) 
unknown

>  <S298_units>  (3) 
unknown

>  <Cp_T_value_list>  (3) 
unknown

>  <Cp_T_units>  (3) 
unknown

>  <T_list>  (3) 
unknown

>  <T_units>  (3) 
unknown

>  <yaml_path>  (3) 
unknown

>  <frequencies_cm1>  (3) 
unknown

>  <ZPE_kJmol>  (3) 
unknown

>  <E_elec_kJmol>  (3) 
unknown

>  <E0_minus_Eelec_plus_ZPE_kJmol>  (3) 
unknown

>  <rxn>  (3) 
unknown

>  <species_type>  (3) 
unknown

>  <species_folder>  (3) 
unknown

>  <frequencies_cm1_list>  (3) 
[]

>  <ts_imag_freq_cm1>  (3) 
-1887.4123

>  <ts_freq_out_path>  (3) 
/home/calvin/Dropbox/PersonalFolders/Calvin/Kfir_HAb_Converged/kfir_rxn_10391/output/rxns/TS0/geometry/freq.out

>  <E0_kJmol>  (3) 
-1.18993e+06

>  <H298_kJmol>  (3) 
unknown

$$$$

     RDKit          3D

  6  5  0  0  0  0  0  0  0  0999 V2000
    1.4968   -0.0097    0.1113 C   0  0  0  0  0  0  0  0  0  1  0  0
    0.2829   -0.0018    0.0210 C   0  0  0  0  0  0  0  0  0  2  0  0
   -1.0795    0.0070   -0.0803 C   0  0  0  0  0  3  0  0  0  3  0  0
    2.5571   -0.0165    0.1902 H   0  0  0  0  0  0  0  0  0  4  0  0
   -1.6181    0.9389   -0.1832 H   0  0  0  0  0  0  0  0  0  5  0  0
   -1.6393   -0.9179   -0.0591 H   0  0  0  0  0  0  0  0  0  6  0  0
  1  4  1  0
  1  2  1  0
  2  3  1  0
  3  6  1  0
  3  5  1  0
M  RAD  1   3   2
M  END
>  <rmg_smiles>  (4) 
[CH]C[CH2]

>  <rmg_adjacency_list>  (4) 
multiplicity 2
1 C u1 p0 c0 {2,S} {4,S} {5,S}
2 C u0 p1 c0 {1,S} {3,S}
3 C u0 p1 c0 {2,S} {6,S}
4 H u0 p0 c0 {1,S}
5 H u0 p0 c0 {1,S}
6 H u0 p0 c0 {3,S}


>  <multiplicity>  (4) 
2

>  <reaction>  (4) 
kfir_rxn_10391

>  <type>  (4) 
r1

>  <role_mapnums>  (4) 
{}

>  <role_mapidx>  (4) 
{}

>  <ordered_mapped_smiles>  (4) 
[CH2:1]([CH2:2][C:3]([H:5])[H:6])[H:4]

>  <level_of_theory>  (4) 
wb97xd/def2tzvp

>  <lot_method>  (4) 
wb97xd

>  <lot_basis>  (4) 
def2tzvp

>  <spin_multiplicity>  (4) 
2.0

>  <optical_isomers>  (4) 
1.0

>  <modes>  (4) 
IdealGasTranslation(mass=(39.0235, 'amu')),         NonlinearRotor(             inertia = ([1.74527, 52.5377, 54.2829

>  <frequency_value>  (4) 
unknown

>  <frequency_units>  (4) 
unknown

>  <frequency_list>  (4) 
unknown

>  <arkane_path>  (4) 
/home/calvin/Dropbox/PersonalFolders/Calvin/Kfir_HAb_Converged/kfir_rxn_10391/output/Species/CtC_CH2_/arkane/output.py

>  <path_exists>  (4) 
True

>  <E0_value>  (4) 
-304448.4655664103

>  <E0_units>  (4) 
kJ/mol

>  <thermo_class>  (4) 
NASA

>  <Cp0_value>  (4) 
33.257888

>  <Cp0_units>  (4) 
J/(mol*K)

>  <CpInf_value>  (4) 
133.031552

>  <CpInf_units>  (4) 
J/(mol*K)

>  <Tmin_value>  (4) 
10.0

>  <Tmin_units>  (4) 
K

>  <Tmax_value>  (4) 
3000.0

>  <Tmax_units>  (4) 
K

>  <polynomials>  (4) 
[{"name": "polynomial1", "class": "NASAPolynomial", "Tmin_value": 10.0, "Tmin_units": "K", "Tmax_value": 545.501025130927, "Tmax_units": "K", "coeffs": [3.9499372348707107, 0.003018645725890373, 5.565403418790293e-05, -1.1456121295578871e-07, 7.085113250655795e-11, -36616690.41719287, 5.464709235855503]}, {"name": "polynomial2", "class": "NASAPolynomial", "Tmin_value": 545.501025130927, "Tmin_units": "K", "Tmax_value": 3000.0, "Tmax_units": "K", "coeffs": [3.789878700165733, 0.015458571066094471, -9.532428379841963e-06, 2.965049912743031e-09, -3.618276714770435e-13, -36616840.580635294, 4.603456101464725]}]

>  <H298_value>  (4) 
-72761.72685205254

>  <H298_units>  (4) 
kcal/mol

>  <S298_value>  (4) 
60.54560432912814

>  <S298_units>  (4) 
cal/(mol*K)

>  <Cp_T_value_list>  (4) 
[14.596300922695397, 16.978518181989873, 18.840332844373627, 20.322972176190156, 22.70558764738115, 24.48088102379516, 27.23478892503335, 28.831313723929725, 29.74438376203547]

>  <Cp_T_units>  (4) 
cal/(mol*K)

>  <T_list>  (4) 
[300.0, 400.0, 500.0, 600.0, 800.0, 1000.0, 1500.0, 2000.0, 2400.0]

>  <T_units>  (4) 
K

>  <yaml_path>  (4) 
/home/calvin/Dropbox/PersonalFolders/Calvin/Kfir_HAb_Converged/kfir_rxn_10391/output/Species/CtC_CH2_/CtC_CH2_.yml

>  <frequencies_cm1>  (4) 
[355.94331707688, 407.51437683008004, 504.51054447508, 653.44172209524, 683.5053838262, 1024.2589293752399, 1075.37676809732, 1445.76135530216, 1997.3313501752, 3133.58394313432, 3230.4359040876, 3427.03082681388]

>  <ZPE_kJmol>  (4) 
107.29725110288972

>  <E_elec_kJmol>  (4) 
-304555.76281751314

>  <E0_minus_Eelec_plus_ZPE_kJmol>  (4) 
0.0

>  <rxn>  (4) 
kfir_rxn_10391

>  <species_type>  (4) 
p1

>  <species_folder>  (4) 
CtC_CH2_

>  <frequencies_cm1_list>  (4) 
[355.94331707688, 407.51437683008004, 504.51054447508, 653.44172209524, 683.5053838262, 1024.2589293752399, 1075.37676809732, 1445.76135530216, 1997.3313501752, 3133.58394313432, 3230.4359040876, 3427.03082681388]

>  <E0_kJmol>  (4) 
-304448

>  <H298_kJmol>  (4) 
-304435

$$$$

     RDKit          3D

  7  7  0  0  0  0  0  0  0  0999 V2000
    2.2415   -0.3638    0.0188 O   0  0  0  0  0  1  0  0  0  1  0  0
    1.0665   -0.1070    0.0046 C   0  0  0  0  0  0  0  0  0  2  0  0
    0.5711    1.2135   -0.0799 N   0  0  0  0  0  0  0  0  0  3  0  0
   -0.7552    1.0761   -0.0681 O   0  0  0  0  0  0  0  0  0  4  0  0
   -1.0291   -0.2708    0.0198 C   0  0  0  0  0  0  0  0  0  5  0  0
   -0.0170   -1.0196    0.0661 N   0  0  0  0  0  0  0  0  0  6  0  0
   -2.0778   -0.5284    0.0387 H   0  0  0  0  0  0  0  0  0  7  0  0
  1  2  1  0
  2  3  1  0
  2  6  1  0
  3  4  1  0
  4  5  1  0
  5  6  1  0
  5  7  1  0
M  RAD  1   1   2
M  END
>  <rmg_smiles>  (5) 
[O][C]1[N]O[CH][N]1

>  <rmg_adjacency_list>  (5) 
multiplicity 2
1 O u0 p2 c0 {4,S} {6,S}
2 O u1 p2 c0 {5,S}
3 N u0 p1 c0 {5,S} {6,S}
4 N u0 p1 c0 {1,S} {5,S}
5 C u0 p0 c0 {2,S} {3,S} {4,S}
6 C u0 p0 c0 {1,S} {3,S} {7,S}
7 H u0 p0 c0 {6,S}


>  <multiplicity>  (5) 
2

>  <reaction>  (5) 
kfir_rxn_10391

>  <type>  (5) 
r2

>  <role_mapnums>  (5) 
{}

>  <role_mapidx>  (5) 
{}

>  <ordered_mapped_smiles>  (5) 
[O:1][CH:2]1[NH:3][O:4][CH:5]([H:7])[NH:6]1

>  <level_of_theory>  (5) 
wb97xd/def2tzvp

>  <lot_method>  (5) 
wb97xd

>  <lot_basis>  (5) 
def2tzvp

>  <spin_multiplicity>  (5) 
2.0

>  <optical_isomers>  (5) 
1.0

>  <modes>  (5) 
IdealGasTranslation(mass=(85.0038, 'amu')),         NonlinearRotor(             inertia = ([52.1542, 118.49, 170.644

>  <frequency_value>  (5) 
unknown

>  <frequency_units>  (5) 
unknown

>  <frequency_list>  (5) 
unknown

>  <arkane_path>  (5) 
/home/calvin/Dropbox/PersonalFolders/Calvin/Kfir_HAb_Converged/kfir_rxn_10391/output/Species/_O_c1nocn1/arkane/output.py

>  <path_exists>  (5) 
True

>  <E0_value>  (5) 
-883854.4978539922

>  <E0_units>  (5) 
kJ/mol

>  <thermo_class>  (5) 
NASA

>  <Cp0_value>  (5) 
33.257888

>  <Cp0_units>  (5) 
J/(mol*K)

>  <CpInf_value>  (5) 
157.97496800000002

>  <CpInf_units>  (5) 
J/(mol*K)

>  <Tmin_value>  (5) 
10.0

>  <Tmin_units>  (5) 
K

>  <Tmax_value>  (5) 
3000.0

>  <Tmax_units>  (5) 
K

>  <polynomials>  (5) 
[{"name": "polynomial1", "class": "NASAPolynomial", "Tmin_value": 10.0, "Tmin_units": "K", "Tmax_value": 602.477011912422, "Tmax_units": "K", "coeffs": [4.085142218506546, -0.007943613271969605, 0.00012745606968260484, -2.204953065038327e-07, 1.200000966339685e-10, -106303140.34316385, 10.373077066768879]}, {"name": "polynomial2", "class": "NASAPolynomial", "Tmin_value": 602.477011912422, "Tmin_units": "K", "Tmax_value": 3000.0, "Tmax_units": "K", "coeffs": [2.2447634146472604, 0.02762317139996191, -1.9225428856223713e-05, 6.1375251367203904e-09, -7.332612876579859e-13, -106303342.32779105, 14.802646665374294]}]

>  <H298_value>  (5) 
-211243.09084355805

>  <H298_units>  (5) 
kcal/mol

>  <S298_value>  (5) 
70.00963067448515

>  <S298_units>  (5) 
cal/(mol*K)

>  <Cp_T_value_list>  (5) 
[16.278663115254943, 20.390668111428784, 23.678451216080816, 26.088415889303633, 29.571808950315305, 31.888245280705224, 34.62571732022828, 35.6850844377685, 36.40403801283738]

>  <Cp_T_units>  (5) 
cal/(mol*K)

>  <T_list>  (5) 
[300.0, 400.0, 500.0, 600.0, 800.0, 1000.0, 1500.0, 2000.0, 2400.0]

>  <T_units>  (5) 
K

>  <yaml_path>  (5) 
/home/calvin/Dropbox/PersonalFolders/Calvin/Kfir_HAb_Converged/kfir_rxn_10391/output/Species/_O_c1nocn1/_O_c1nocn1.yml

>  <frequencies_cm1>  (5) 
[259.20122788872, 512.9569364186799, 538.77680122188, 747.73229752416, 753.4524962957199, 869.4015434239199, 894.5965125629999, 946.21564121344, 987.3076813683199, 1085.8626546809598, 1174.2201547934, 1309.1907512579999, 1613.3363980661197, 1722.5077306834798, 3235.18785792904]

>  <ZPE_kJmol>  (5) 
99.58882560735796

>  <E_elec_kJmol>  (5) 
-883954.0866795995

>  <E0_minus_Eelec_plus_ZPE_kJmol>  (5) 
0.0

>  <rxn>  (5) 
kfir_rxn_10391

>  <species_type>  (5) 
r0

>  <species_folder>  (5) 
_O_c1nocn1

>  <frequencies_cm1_list>  (5) 
[259.20122788872, 512.9569364186799, 538.77680122188, 747.73229752416, 753.4524962957199, 869.4015434239199, 894.5965125629999, 946.21564121344, 987.3076813683199, 1085.8626546809598, 1174.2201547934, 1309.1907512579999, 1613.3363980661197, 1722.5077306834798, 3235.18785792904]

>  <E0_kJmol>  (5) 
-883854

>  <H298_kJmol>  (5) 
-883841

$$$$
