
     RDKit          3D

  7  6  0  0  0  0  0  0  0  0999 V2000
    0.2411   -1.2605   -0.9970 O   0  0  0  0  0  0  0  0  0  1  0  0
    0.3458   -0.7063    0.2543 C   0  0  0  0  0  0  0  0  0  2  0  0
   -0.0949    0.6606    0.3985 C   0  0  0  0  0  2  0  0  0  3  0  0
   -0.5056    1.7245    0.5492 N   0  0  0  0  0  0  0  0  0  4  0  0
   -0.6579   -1.1436   -1.3211 H   0  0  0  0  0  0  0  0  0  5  0  0
   -0.3145   -1.2576    0.9204 H   0  0  0  0  0  0  0  0  0  6  0  0
    1.3390   -0.8802    0.6631 H   0  0  0  0  0  0  0  0  0  7  0  0
  1  5  1  0
  1  2  1  0
  2  7  1  0
  2  6  1  0
  2  3  1  0
  3  4  1  0
M  RAD  1   3   3
M  END
>  <rmg_smiles>  (1) 
[N][C]CO

>  <rmg_adjacency_list>  (1) 
1 O u0 p2 c0 {3,S} {7,S}
2 N u0 p2 c0 {4,S}
3 C u0 p0 c0 {1,S} {4,S} {5,S} {6,S}
4 C u0 p1 c0 {2,S} {3,S}
5 H u0 p0 c0 {3,S}
6 H u0 p0 c0 {3,S}
7 H u0 p0 c0 {1,S}


>  <multiplicity>  (1) 
1

>  <reaction>  (1) 
kfir_rxn_9248

>  <type>  (1) 
r1h

>  <role_mapnums>  (1) 
{"r1h_a": 2, "r1h_h": 6}

>  <role_mapidx>  (1) 
{"r1h_a": 1, "r1h_h": 5}

>  <ordered_mapped_smiles>  (1) 
[O:1]([C:2]([C:3][NH2:4])([H:6])[H:7])[H:5]

>  <mol_properties>  (1) 
{"1": {"label": "donator", "atom_type": "Cs"}, "5": {"label": "d_hydrogen", "atom_type": "H0"}}

>  <level_of_theory>  (1) 
wb97xd/def2tzvp

>  <lot_method>  (1) 
wb97xd

>  <lot_basis>  (1) 
def2tzvp

>  <spin_multiplicity>  (1) 
1.0

>  <optical_isomers>  (1) 
2.0

>  <modes>  (1) 
IdealGasTranslation(mass=(57.0215, 'amu')),         NonlinearRotor(             inertia = ([14.7791, 103.904, 114.462

>  <frequency_value>  (1) 
unknown

>  <frequency_units>  (1) 
unknown

>  <frequency_list>  (1) 
unknown

>  <arkane_path>  (1) 
/home/calvin/Dropbox/PersonalFolders/Calvin/Kfir_HAb_Converged/kfir_rxn_9248/output/Species/OCCtN/arkane/output.py

>  <path_exists>  (1) 
True

>  <E0_value>  (1) 
-545230.988218396

>  <E0_units>  (1) 
kJ/mol

>  <thermo_class>  (1) 
NASA

>  <Cp0_value>  (1) 
33.257888

>  <Cp0_units>  (1) 
J/(mol*K)

>  <CpInf_value>  (1) 
153.817732

>  <CpInf_units>  (1) 
J/(mol*K)

>  <Tmin_value>  (1) 
10.0

>  <Tmin_units>  (1) 
K

>  <Tmax_value>  (1) 
3000.0

>  <Tmax_units>  (1) 
K

>  <polynomials>  (1) 
[{"name": "polynomial1", "class": "NASAPolynomial", "Tmin_value": 10.0, "Tmin_units": "K", "Tmax_value": 332.2575504632808, "Tmax_units": "K", "coeffs": [3.942687154308257, 0.004659197116581881, 9.174825731730119e-05, -2.832060638723386e-07, 2.759140226973854e-10, -65576142.36188438, 9.427383269625023]}, {"name": "polynomial2", "class": "NASAPolynomial", "Tmin_value": 332.2575504632808, "Tmin_units": "K", "Tmax_value": 3000.0, "Tmax_units": "K", "coeffs": [3.5442600548524266, 0.018389529812021906, -1.0570229565889055e-05, 3.018531543993337e-09, -3.397775147983283e-13, -65576165.19777824, 10.168484284142737]}]

>  <H298_value>  (1) 
-130309.8340369266

>  <H298_units>  (1) 
kcal/mol

>  <S298_value>  (1) 
70.3416368379696

>  <S298_units>  (1) 
cal/(mol*K)

>  <Cp_T_value_list>  (1) 
[16.267529376806507, 18.666472458757337, 20.771371173638357, 22.61572739134183, 25.62950354103469, 27.904978325402183, 31.423614013902945, 33.29408204624171, 34.278888654620644]

>  <Cp_T_units>  (1) 
cal/(mol*K)

>  <T_list>  (1) 
[300.0, 400.0, 500.0, 600.0, 800.0, 1000.0, 1500.0, 2000.0, 2400.0]

>  <T_units>  (1) 
K

>  <yaml_path>  (1) 
/home/calvin/Dropbox/PersonalFolders/Calvin/Kfir_HAb_Converged/kfir_rxn_9248/output/Species/OCCtN/OCCtN.yml

>  <frequencies_cm1>  (1) 
[234.92076160477288, 362.149180661042, 587.3140681705061, 893.0836166314298, 985.4430337051184, 1102.383845597593, 1221.3665598786372, 1363.0483426466053, 1405.526862374445, 1474.9160260540098, 2362.6274912627537, 3007.900731721513, 3091.279232681576, 3838.7364016152746]

>  <ZPE_kJmol>  (1) 
131.1747308304252

>  <E_elec_kJmol>  (1) 
-545362.1629492264

>  <E0_minus_Eelec_plus_ZPE_kJmol>  (1) 
0.0

>  <rxn>  (1) 
kfir_rxn_9248

>  <species_type>  (1) 
r1

>  <species_folder>  (1) 
OCCtN

>  <frequencies_cm1_list>  (1) 
[234.92076160477288, 362.149180661042, 587.3140681705061, 893.0836166314298, 985.4430337051184, 1102.383845597593, 1221.3665598786372, 1363.0483426466053, 1405.526862374445, 1474.9160260540098, 2362.6274912627537, 3007.900731721513, 3091.279232681576, 3838.7364016152746]

>  <E0_kJmol>  (1) 
-545231

>  <H298_kJmol>  (1) 
-545216

$$$$

     RDKit          3D

  8  8  0  0  0  0  0  0  0  0999 V2000
    0.0650    0.5194   -0.9893 N   0  0  0  0  0  0  0  0  0  1  0  0
    0.9725    0.4088   -0.0621 N   0  0  0  0  0  0  0  0  0  2  0  0
    0.5452   -0.2925    1.0166 C   0  0  0  0  0  0  0  0  0  3  0  0
   -0.7523   -0.6684    0.7451 C   0  0  0  0  0  2  0  0  0  4  0  0
   -0.9596   -0.1330   -0.4827 N   0  0  0  0  0  0  0  0  0  5  0  0
    1.1782   -0.4680    1.8670 H   0  0  0  0  0  0  0  0  0  6  0  0
   -1.8045   -0.1884   -1.0261 H   0  0  0  0  0  0  0  0  0  7  0  0
    1.8058    0.9216   -0.4145 H   0  0  0  0  0  0  0  0  0  8  0  0
  1  5  1  0
  1  2  1  0
  2  3  1  0
  2  8  1  0
  3  4  1  0
  3  6  1  0
  4  5  1  0
  5  7  1  0
M  RAD  1   4   3
M  END
>  <rmg_smiles>  (2) 
[C]1[CH]N[N]N1

>  <rmg_adjacency_list>  (2) 
1 N u0 p1 c0 {3,S} {4,S} {7,S}
2 N u0 p1 c0 {3,S} {5,S} {8,S}
3 N u0 p1 c0 {1,S} {2,S}
4 C u0 p0 c0 {1,S} {5,S} {6,S}
5 C u0 p1 c0 {2,S} {4,S}
6 H u0 p0 c0 {4,S}
7 H u0 p0 c0 {1,S}
8 H u0 p0 c0 {2,S}


>  <multiplicity>  (2) 
1

>  <reaction>  (2) 
kfir_rxn_9248

>  <type>  (2) 
r2h

>  <role_mapnums>  (2) 
{"r2h_a": 2, "r2h_h": 8}

>  <role_mapidx>  (2) 
{"r2h_a": 1, "r2h_h": 7}

>  <ordered_mapped_smiles>  (2) 
[NH:1]1[N:2]([H:8])[CH:3]([H:6])[C:4][N:5]1[H:7]

>  <mol_properties>  (2) 
{"1": {"label": "acceptor", "atom_type": "N3s"}, "7": {"label": "a_hydrogen", "atom_type": "H0"}}

>  <level_of_theory>  (2) 
wb97xd/def2tzvp

>  <lot_method>  (2) 
wb97xd

>  <lot_basis>  (2) 
def2tzvp

>  <spin_multiplicity>  (2) 
1.0

>  <optical_isomers>  (2) 
1.0

>  <modes>  (2) 
IdealGasTranslation(mass=(69.0327, 'amu')),         NonlinearRotor(             inertia = ([49.7068, 49.9694, 99.6761

>  <frequency_value>  (2) 
unknown

>  <frequency_units>  (2) 
unknown

>  <frequency_list>  (2) 
unknown

>  <arkane_path>  (2) 
/home/calvin/Dropbox/PersonalFolders/Calvin/Kfir_HAb_Converged/kfir_rxn_9248/output/Species/_N-_1NC=C=_NHp_1/arkane/output.py

>  <path_exists>  (2) 
True

>  <E0_value>  (2) 
-634830.192059435

>  <E0_units>  (2) 
kJ/mol

>  <thermo_class>  (2) 
NASA

>  <Cp0_value>  (2) 
33.257888

>  <Cp0_units>  (2) 
J/(mol*K)

>  <CpInf_value>  (2) 
182.918384

>  <CpInf_units>  (2) 
J/(mol*K)

>  <Tmin_value>  (2) 
10.0

>  <Tmin_units>  (2) 
K

>  <Tmax_value>  (2) 
3000.0

>  <Tmax_units>  (2) 
K

>  <polynomials>  (2) 
[{"name": "polynomial1", "class": "NASAPolynomial", "Tmin_value": 10.0, "Tmin_units": "K", "Tmax_value": 677.9814373684835, "Tmax_units": "K", "coeffs": [4.2080514167464145, -0.015845847043326377, 0.00013737756571080358, -2.009235070982329e-07, 9.482951526173329e-11, -76352438.52607243, 8.646455808337581]}, {"name": "polynomial2", "class": "NASAPolynomial", "Tmin_value": 677.9814373684835, "Tmin_units": "K", "Tmax_value": 3000.0, "Tmax_units": "K", "coeffs": [0.21130720008997478, 0.03161748062679684, -2.047276893947045e-05, 6.2507315674382185e-09, -7.234299640506577e-13, -76352445.48559876, 22.32709058880369]}]

>  <H298_value>  (2) 
-151725.25887122948

>  <H298_units>  (2) 
kcal/mol

>  <S298_value>  (2) 
64.41026797539645

>  <S298_units>  (2) 
cal/(mol*K)

>  <Cp_T_value_list>  (2) 
[14.23130503445456, 18.716810954978534, 22.735481807497273, 25.92687355048256, 30.417727219186926, 33.550644237049596, 37.772131358282195, 39.7166386278048, 40.89383793056962]

>  <Cp_T_units>  (2) 
cal/(mol*K)

>  <T_list>  (2) 
[300.0, 400.0, 500.0, 600.0, 800.0, 1000.0, 1500.0, 2000.0, 2400.0]

>  <T_units>  (2) 
K

>  <yaml_path>  (2) 
/home/calvin/Dropbox/PersonalFolders/Calvin/Kfir_HAb_Converged/kfir_rxn_9248/output/Species/_N-_1NC=C=_NHp_1/_N-_1NC=C=_NHp_1.yml

>  <frequencies_cm1>  (2) 
[650.90093752684, 686.3345817780399, 728.4498027455999, 786.1462134042399, 823.53008148632, 942.13665193336, 1001.33006539176, 1083.1570624648798, 1109.9589061688398, 1180.1188951832798, 1223.2641639488397, 1304.9606883008798, 1379.59108475864, 1432.7278171648, 1535.9660744656796, 3250.6111069577596, 3618.9081306253197, 3626.81889771396]

>  <ZPE_kJmol>  (2) 
157.69723408071934

>  <E_elec_kJmol>  (2) 
-634987.8892935157

>  <E0_minus_Eelec_plus_ZPE_kJmol>  (2) 
0.0

>  <rxn>  (2) 
kfir_rxn_9248

>  <species_type>  (2) 
p0

>  <species_folder>  (2) 
_N-_1NC=C=_NHp_1

>  <frequencies_cm1_list>  (2) 
[650.90093752684, 686.3345817780399, 728.4498027455999, 786.1462134042399, 823.53008148632, 942.13665193336, 1001.33006539176, 1083.1570624648798, 1109.9589061688398, 1180.1188951832798, 1223.2641639488397, 1304.9606883008798, 1379.59108475864, 1432.7278171648, 1535.9660744656796, 3250.6111069577596, 3618.9081306253197, 3626.81889771396]

>  <E0_kJmol>  (2) 
-634830

>  <H298_kJmol>  (2) 
-634818

$$$$

     RDKit          3D

 14 13  0  0  0  0  0  0  0  0999 V2000
   -1.0958   -0.5413   -0.3219 N   0  0  0  0  0  0  0  0  0  1  0  0
   -0.1883   -0.6520    0.6053 N   0  0  0  0  0  0  0  0  0  2  0  0
   -0.6156   -1.3533    1.6841 C   0  0  0  0  0  0  0  0  0  3  0  0
   -1.9131   -1.7291    1.4125 C   0  0  0  0  0  0  0  0  0  4  0  0
   -2.1203   -1.1937    0.1848 N   0  0  0  0  0  0  0  0  0  5  0  0
    0.0175   -1.5288    2.5344 H   0  0  0  0  0  0  0  0  0  6  0  0
   -2.9653   -1.2492   -0.3587 H   0  0  0  0  0  0  0  0  0  7  0  0
    1.5617    0.1142   -1.9085 O   0  0  0  0  0  0  0  0  0  8  0  0
    1.6665    0.6684   -0.6572 C   0  0  0  0  0  0  0  0  0  9  0  0
    1.2257    2.0354   -0.5130 C   0  0  0  0  0  0  0  0  0 10  0  0
    0.8151    3.0992   -0.3623 N   0  0  0  0  0  2  0  0  0 11  0  0
    0.6627    0.2311   -2.2326 H   0  0  0  0  0  0  0  0  0 12  0  0
    0.8502   -0.0130    0.1662 H   0  0  0  0  0  0  0  0  0 13  0  0
    2.6596    0.4946   -0.2484 H   0  0  0  0  0  0  0  0  0 14  0  0
  1  5  1  0
  1  2  1  0
  2  3  1  0
  2 13  1  0
  3  4  1  0
  3  6  1  0
  4  5  1  0
  5  7  1  0
  8 12  1  0
  8  9  1  0
  9 10  1  0
  9 14  1  0
 10 11  1  0
M  RAD  1  11   2
M  END
>  <rmg_smiles>  (3) 
[C]1[CH]N[N]N1.[N][C][CH]O

>  <rmg_adjacency_list>  (3) 
multiplicity 2
1  O u0 p2 c0 {7,S} {14,S}
2  N u0 p1 c0 {4,S} {6,S} {11,S}
3  N u0 p1 c0 {4,S} {8,S} {12,S}
4  N u0 p1 c0 {2,S} {3,S}
5  N u1 p2 c0 {9,S}
6  C u0 p0 c0 {2,S} {8,S} {10,S}
7  C u0 p0 c0 {1,S} {9,S} {13,S}
8  C u0 p1 c0 {3,S} {6,S}
9  C u0 p1 c0 {5,S} {7,S}
10 H u0 p0 c0 {6,S}
11 H u0 p0 c0 {2,S}
12 H u0 p0 c0 {3,S}
13 H u0 p0 c0 {7,S}
14 H u0 p0 c0 {1,S}


>  <multiplicity>  (3) 
2

>  <reaction>  (3) 
kfir_rxn_9248

>  <type>  (3) 
ts

>  <role_mapnums>  (3) 
{"*2": 13, "*1": 9, "*3": 2, "*0": 3, "*4": 10}

>  <role_mapidx>  (3) 
{"*2": 12, "*1": 8, "*3": 1, "*0": 2, "*4": 9}

>  <ordered_mapped_smiles>  (3) 
[NH:1]1[N:2]([H:13])[CH:3]([H:6])[CH2:4][N:5]1[H:7].[O:8]([CH:9]([CH2:10][NH:11])[H:14])[H:12]

>  <mol_properties>  (3) 
{"1": {"label": "*3", "atom_type": "N3s"}, "2": {"label": "*0", "atom_type": "Cs"}, "8": {"label": "*1", "atom_type": "Cs"}, "9": {"label": "*4", "atom_type": "C2s"}, "12": {"label": "*2", "atom_type": "H0"}}

>  <level_of_theory>  (3) 
wb97xd/def2tzvp

>  <lot_method>  (3) 
wb97xd

>  <lot_basis>  (3) 
def2tzvp

>  <spin_multiplicity>  (3) 
2.0

>  <optical_isomers>  (3) 
2.0

>  <modes>  (3) 
IdealGasTranslation(mass=(125.046, 'amu')),         NonlinearRotor(             inertia = ([157.719, 574.66, 611.351

>  <frequency_value>  (3) 
-3129.3

>  <frequency_units>  (3) 
cm^-1

>  <frequency_list>  (3) 
unknown

>  <arkane_path>  (3) 
/home/calvin/Dropbox/PersonalFolders/Calvin/Kfir_HAb_Converged/kfir_rxn_9248/output/rxns/TS0/arkane/output.py

>  <path_exists>  (3) 
True

>  <E0_value>  (3) 
-1178290.0

>  <E0_units>  (3) 
kJ/mol

>  <thermo_class>  (3) 
unknown

>  <Cp0_value>  (3) 
unknown

>  <Cp0_units>  (3) 
unknown

>  <CpInf_value>  (3) 
unknown

>  <CpInf_units>  (3) 
unknown

>  <Tmin_value>  (3) 
unknown

>  <Tmin_units>  (3) 
unknown

>  <Tmax_value>  (3) 
unknown

>  <Tmax_units>  (3) 
unknown

>  <polynomials>  (3) 
unknown

>  <H298_value>  (3) 
unknown

>  <H298_units>  (3) 
unknown

>  <S298_value>  (3) 
unknown

>  <S298_units>  (3) 
unknown

>  <Cp_T_value_list>  (3) 
unknown

>  <Cp_T_units>  (3) 
unknown

>  <T_list>  (3) 
unknown

>  <T_units>  (3) 
unknown

>  <yaml_path>  (3) 
unknown

>  <frequencies_cm1>  (3) 
unknown

>  <ZPE_kJmol>  (3) 
unknown

>  <E_elec_kJmol>  (3) 
unknown

>  <E0_minus_Eelec_plus_ZPE_kJmol>  (3) 
unknown

>  <rxn>  (3) 
unknown

>  <species_type>  (3) 
unknown

>  <species_folder>  (3) 
unknown

>  <frequencies_cm1_list>  (3) 
[]

>  <ts_imag_freq_cm1>  (3) 
-3167.3054

>  <ts_freq_out_path>  (3) 
/home/calvin/Dropbox/PersonalFolders/Calvin/Kfir_HAb_Converged/kfir_rxn_9248/output/rxns/TS0/geometry/freq.out

>  <E0_kJmol>  (3) 
-1.17829e+06

>  <H298_kJmol>  (3) 
unknown

$$$$

     RDKit          3D

  6  5  0  0  0  0  0  0  0  0999 V2000
   -1.3694    0.1235    0.0213 O   0  0  0  0  0  0  0  0  0  1  0  0
   -0.0928    0.5362    0.0705 C   0  0  0  0  0  0  0  0  0  2  0  0
    0.9758   -0.3386   -0.0479 C   0  0  0  0  0  0  0  0  0  3  0  0
    1.8567   -1.0882   -0.1493 N   0  0  0  0  0  2  0  0  0  4  0  0
   -1.4112   -0.8292   -0.1032 H   0  0  0  0  0  0  0  0  0  5  0  0
    0.0408    1.5963    0.2086 H   0  0  0  0  0  0  0  0  0  6  0  0
  1  5  1  0
  1  2  1  0
  2  6  1  0
  2  3  1  0
  3  4  1  0
M  RAD  1   4   2
M  END
>  <rmg_smiles>  (4) 
[N][C][CH]O

>  <rmg_adjacency_list>  (4) 
multiplicity 2
1 O u0 p2 c0 {3,S} {6,S}
2 N u1 p2 c0 {4,S}
3 C u0 p0 c0 {1,S} {4,S} {5,S}
4 C u0 p1 c0 {2,S} {3,S}
5 H u0 p0 c0 {3,S}
6 H u0 p0 c0 {1,S}


>  <multiplicity>  (4) 
2

>  <reaction>  (4) 
kfir_rxn_9248

>  <type>  (4) 
r1

>  <role_mapnums>  (4) 
{}

>  <role_mapidx>  (4) 
{}

>  <ordered_mapped_smiles>  (4) 
[O:1]([CH:2]([CH2:3][NH:4])[H:6])[H:5]

>  <level_of_theory>  (4) 
wb97xd/def2tzvp

>  <lot_method>  (4) 
wb97xd

>  <lot_basis>  (4) 
def2tzvp

>  <spin_multiplicity>  (4) 
2.0

>  <optical_isomers>  (4) 
1.0

>  <modes>  (4) 
IdealGasTranslation(mass=(56.0136, 'amu')),         NonlinearRotor(             inertia = ([10.2623, 101.896, 112.158

>  <frequency_value>  (4) 
unknown

>  <frequency_units>  (4) 
unknown

>  <frequency_list>  (4) 
unknown

>  <arkane_path>  (4) 
/home/calvin/Dropbox/PersonalFolders/Calvin/Kfir_HAb_Converged/kfir_rxn_9248/output/Species/O_CH_CtN/arkane/output.py

>  <path_exists>  (4) 
True

>  <E0_value>  (4) 
-543562.4367687994

>  <E0_units>  (4) 
kJ/mol

>  <thermo_class>  (4) 
NASA

>  <Cp0_value>  (4) 
33.257888

>  <Cp0_units>  (4) 
J/(mol*K)

>  <CpInf_value>  (4) 
128.874316

>  <CpInf_units>  (4) 
J/(mol*K)

>  <Tmin_value>  (4) 
10.0

>  <Tmin_units>  (4) 
K

>  <Tmax_value>  (4) 
3000.0

>  <Tmax_units>  (4) 
K

>  <polynomials>  (4) 
[{"name": "polynomial1", "class": "NASAPolynomial", "Tmin_value": 10.0, "Tmin_units": "K", "Tmax_value": 496.37765690090055, "Tmax_units": "K", "coeffs": [3.909387542927478, 0.005884538439362413, 7.23824296957536e-05, -1.8105256868008206e-07, 1.2945543088173087e-10, -65375458.04460707, 8.445498194658155]}, {"name": "polynomial2", "class": "NASAPolynomial", "Tmin_value": 496.37765690090055, "Tmin_units": "K", "Tmax_value": 3000.0, "Tmax_units": "K", "coeffs": [5.014310994115979, 0.015089377211788789, -1.0156250347023706e-05, 3.2980944583299117e-09, -4.0871687249610143e-13, -65375790.827702045, 1.6415972574235622]}]

>  <H298_value>  (4) 
-129911.02050388147

>  <H298_units>  (4) 
kcal/mol

>  <S298_value>  (4) 
68.24720401323832

>  <S298_units>  (4) 
cal/(mol*K)

>  <Cp_T_value_list>  (4) 
[16.59185752643869, 19.0197249265868, 20.680170513824475, 22.00057360251642, 24.059161714675145, 25.50940310331007, 27.540204376381507, 28.642302296528946, 29.33400406855792]

>  <Cp_T_units>  (4) 
cal/(mol*K)

>  <T_list>  (4) 
[300.0, 400.0, 500.0, 600.0, 800.0, 1000.0, 1500.0, 2000.0, 2400.0]

>  <T_units>  (4) 
K

>  <yaml_path>  (4) 
/home/calvin/Dropbox/PersonalFolders/Calvin/Kfir_HAb_Converged/kfir_rxn_9248/output/Species/O_CH_CtN/O_CH_CtN.yml

>  <frequencies_cm1>  (4) 
[229.1707047208569, 427.079645343693, 534.6717441319535, 628.5553237792923, 974.4003402915499, 1204.0641924443821, 1336.9862453626856, 1452.6366740691292, 2184.6781775435984, 3231.948404793271, 3814.0843254073598]

>  <ZPE_kJmol>  (4) 
95.81059345855346

>  <E_elec_kJmol>  (4) 
-543658.247362258

>  <E0_minus_Eelec_plus_ZPE_kJmol>  (4) 
0.0

>  <rxn>  (4) 
kfir_rxn_9248

>  <species_type>  (4) 
p1

>  <species_folder>  (4) 
O_CH_CtN

>  <frequencies_cm1_list>  (4) 
[229.1707047208569, 427.079645343693, 534.6717441319535, 628.5553237792923, 974.4003402915499, 1204.0641924443821, 1336.9862453626856, 1452.6366740691292, 2184.6781775435984, 3231.948404793271, 3814.0843254073598]

>  <E0_kJmol>  (4) 
-543562

>  <H298_kJmol>  (4) 
-543548

$$$$

     RDKit          3D

  7  7  0  0  0  0  0  0  0  0999 V2000
   -0.6451    1.1128   -0.1044 N   0  0  0  0  0  0  0  0  0  1  0  0
    0.6410    1.0758    0.0539 N   0  0  0  0  0  0  0  0  0  2  0  0
    1.0708   -0.2117    0.1359 C   0  0  0  0  0  0  0  0  0  3  0  0
   -0.0416   -0.9878    0.0175 C   0  0  0  0  0  3  0  0  0  4  0  0
   -1.0762   -0.1574   -0.1281 N   0  0  0  0  0  0  0  0  0  5  0  0
    2.1044   -0.4725    0.2684 H   0  0  0  0  0  0  0  0  0  6  0  0
   -2.0533   -0.3591   -0.2431 H   0  0  0  0  0  0  0  0  0  7  0  0
  1  5  1  0
  1  2  1  0
  2  3  1  0
  3  4  1  0
  3  6  1  0
  4  5  1  0
  5  7  1  0
M  RAD  1   4   2
M  END
>  <rmg_smiles>  (5) 
[C]1[CH][N][N]N1

>  <rmg_adjacency_list>  (5) 
multiplicity 2
1 N u0 p1 c0 {2,S} {5,S} {7,S}
2 N u0 p1 c0 {1,S} {3,S}
3 N u0 p1 c0 {2,S} {4,S}
4 C u0 p0 c0 {3,S} {5,S} {6,S}
5 C u1 p1 c0 {1,S} {4,S}
6 H u0 p0 c0 {4,S}
7 H u0 p0 c0 {1,S}


>  <multiplicity>  (5) 
2

>  <reaction>  (5) 
kfir_rxn_9248

>  <type>  (5) 
r2

>  <role_mapnums>  (5) 
{}

>  <role_mapidx>  (5) 
{}

>  <ordered_mapped_smiles>  (5) 
[NH:1]1[NH:2][CH:3]([H:6])[CH:4][N:5]1[H:7]

>  <level_of_theory>  (5) 
wb97xd/def2tzvp

>  <lot_method>  (5) 
wb97xd

>  <lot_basis>  (5) 
def2tzvp

>  <spin_multiplicity>  (5) 
2.0

>  <optical_isomers>  (5) 
1.0

>  <modes>  (5) 
IdealGasTranslation(mass=(68.0249, 'amu')),         NonlinearRotor(             inertia = ([43.9521, 50.9371, 94.8892

>  <frequency_value>  (5) 
unknown

>  <frequency_units>  (5) 
unknown

>  <frequency_list>  (5) 
unknown

>  <arkane_path>  (5) 
/home/calvin/Dropbox/PersonalFolders/Calvin/Kfir_HAb_Converged/kfir_rxn_9248/output/Species/_N-_1_N_C=C=_NHp_1/arkane/output.py

>  <path_exists>  (5) 
True

>  <E0_value>  (5) 
-633186.0329505915

>  <E0_units>  (5) 
kJ/mol

>  <thermo_class>  (5) 
NASA

>  <Cp0_value>  (5) 
33.257888

>  <Cp0_units>  (5) 
J/(mol*K)

>  <CpInf_value>  (5) 
157.97496800000002

>  <CpInf_units>  (5) 
J/(mol*K)

>  <Tmin_value>  (5) 
10.0

>  <Tmin_units>  (5) 
K

>  <Tmax_value>  (5) 
3000.0

>  <Tmax_units>  (5) 
K

>  <polynomials>  (5) 
[{"name": "polynomial1", "class": "NASAPolynomial", "Tmin_value": 10.0, "Tmin_units": "K", "Tmax_value": 665.2944968058035, "Tmax_units": "K", "coeffs": [4.167308340659873, -0.013043200425506066, 0.00012126778701878477, -1.8270775419247673e-07, 8.840268837494183e-11, -76154690.83838111, 9.23573656186623]}, {"name": "polynomial2", "class": "NASAPolynomial", "Tmin_value": 665.2944968058035, "Tmin_units": "K", "Tmax_value": 3000.0, "Tmax_units": "K", "coeffs": [1.0606060450989, 0.027189893675036728, -1.804088594759051e-05, 5.585979797176499e-09, -6.524112917848023e-13, -76154754.48170775, 19.372707210393926]}]

>  <H298_value>  (5) 
-151332.28724722474

>  <H298_units>  (5) 
kcal/mol

>  <S298_value>  (5) 
65.65239118908755

>  <S298_units>  (5) 
cal/(mol*K)

>  <Cp_T_value_list>  (5) 
[13.813870166778912, 17.731220911990974, 21.16246476844493, 23.826417002741895, 27.54098894311852, 30.092630267878075, 33.3916326141259, 34.82799439016892, 35.7220074658534]

>  <Cp_T_units>  (5) 
cal/(mol*K)

>  <T_list>  (5) 
[300.0, 400.0, 500.0, 600.0, 800.0, 1000.0, 1500.0, 2000.0, 2400.0]

>  <T_units>  (5) 
K

>  <yaml_path>  (5) 
/home/calvin/Dropbox/PersonalFolders/Calvin/Kfir_HAb_Converged/kfir_rxn_9248/output/Species/_N-_1_N_C=C=_NHp_1/_N-_1_N_C=C=_NHp_1.yml

>  <frequencies_cm1>  (5) 
[550.36140545672, 624.74459044296, 726.0669588395599, 833.7069537305598, 900.9141390574, 956.88693640072, 1051.61699889012, 1094.63866191992, 1185.756690131, 1270.05580191932, 1329.64063354096, 1436.5801959293199, 1490.00534171892, 3274.06186182556, 3653.41473185832]

>  <ZPE_kJmol>  (5) 
121.89024571296414

>  <E_elec_kJmol>  (5) 
-633307.9231963045

>  <E0_minus_Eelec_plus_ZPE_kJmol>  (5) 
0.0

>  <rxn>  (5) 
kfir_rxn_9248

>  <species_type>  (5) 
r0

>  <species_folder>  (5) 
_N-_1_N_C=C=_NHp_1

>  <frequencies_cm1_list>  (5) 
[550.36140545672, 624.74459044296, 726.0669588395599, 833.7069537305598, 900.9141390574, 956.88693640072, 1051.61699889012, 1094.63866191992, 1185.756690131, 1270.05580191932, 1329.64063354096, 1436.5801959293199, 1490.00534171892, 3274.06186182556, 3653.41473185832]

>  <E0_kJmol>  (5) 
-633186

>  <H298_kJmol>  (5) 
-633174

$$$$
