
     RDKit          3D

  7  7  0  0  0  0  0  0  0  0999 V2000
    1.4821   -1.2295    0.5722 N   0  0  0  0  0  0  0  0  0  1  0  0
    0.5523   -0.4772    0.2274 C   0  0  0  0  0  0  0  0  0  2  0  0
    0.6953    0.6258   -0.5595 O   0  0  0  0  0  0  0  0  0  3  0  0
   -0.5559    1.1802   -0.7106 N   0  0  0  0  0  0  0  0  0  4  0  0
   -1.3871    0.5236   -0.1044 N   0  0  0  0  0  0  0  0  0  5  0  0
   -0.7788   -0.5468    0.5202 O   0  0  0  0  0  0  0  0  0  6  0  0
    1.2027   -2.0243    1.1820 H   0  0  0  0  0  0  0  0  0  7  0  0
  1  2  1  0
  1  7  1  0
  2  3  1  0
  2  6  1  0
  3  4  1  0
  4  5  1  0
  5  6  1  0
M  END
>  <rmg_smiles>  (1) 
[NH][C]1O[N][N]O1

>  <rmg_adjacency_list>  (1) 
1 O u0 p2 c0 {3,S} {6,S}
2 O u0 p2 c0 {4,S} {6,S}
3 N u0 p1 c0 {1,S} {4,S}
4 N u0 p1 c0 {2,S} {3,S}
5 N u0 p1 c0 {6,S} {7,S}
6 C u0 p0 c0 {1,S} {2,S} {5,S}
7 H u0 p0 c0 {5,S}


>  <multiplicity>  (1) 
1

>  <reaction>  (1) 
kfir_rxn_8008

>  <type>  (1) 
r1h

>  <role_mapnums>  (1) 
{"r1h_a": 1, "r1h_h": 7}

>  <role_mapidx>  (1) 
{"r1h_a": 0, "r1h_h": 6}

>  <ordered_mapped_smiles>  (1) 
[NH:1]([CH:2]1[O:3][NH:4][NH:5][O:6]1)[H:7]

>  <mol_properties>  (1) 
{"0": {"label": "donator", "atom_type": "N3s"}, "6": {"label": "d_hydrogen", "atom_type": "H0"}}

>  <level_of_theory>  (1) 
wb97xd/def2tzvp

>  <lot_method>  (1) 
wb97xd

>  <lot_basis>  (1) 
def2tzvp

>  <spin_multiplicity>  (1) 
1.0

>  <optical_isomers>  (1) 
1.0

>  <modes>  (1) 
IdealGasTranslation(mass=(87.0069, 'amu')),         NonlinearRotor(             inertia = ([48.8575, 120.721, 169.578

>  <frequency_value>  (1) 
unknown

>  <frequency_units>  (1) 
unknown

>  <frequency_list>  (1) 
unknown

>  <arkane_path>  (1) 
/home/calvin/Dropbox/PersonalFolders/Calvin/Kfir_HAb_Converged/kfir_rxn_8008/output/Species/N=c1onno1/arkane/output.py

>  <path_exists>  (1) 
True

>  <E0_value>  (1) 
-927513.3956974592

>  <E0_units>  (1) 
kJ/mol

>  <thermo_class>  (1) 
NASA

>  <Cp0_value>  (1) 
33.257888

>  <Cp0_units>  (1) 
J/(mol*K)

>  <CpInf_value>  (1) 
157.97496800000002

>  <CpInf_units>  (1) 
J/(mol*K)

>  <Tmin_value>  (1) 
10.0

>  <Tmin_units>  (1) 
K

>  <Tmax_value>  (1) 
3000.0

>  <Tmax_units>  (1) 
K

>  <polynomials>  (1) 
[{"name": "polynomial1", "class": "NASAPolynomial", "Tmin_value": 10.0, "Tmin_units": "K", "Tmax_value": 594.5444576074173, "Tmax_units": "K", "coeffs": [4.064132331384431, -0.006464318285740491, 0.0001260927686818599, -2.245288884010203e-07, 1.2483214386195704e-10, -111554092.36130533, 9.737352080288133]}, {"name": "polynomial2", "class": "NASAPolynomial", "Tmin_value": 594.5444576074173, "Tmin_units": "K", "Tmax_value": 3000.0, "Tmax_units": "K", "coeffs": [2.6618231118848854, 0.027000979186583906, -1.8966399167901696e-05, 6.10976288698157e-09, -7.352069559300073e-13, -111554350.33811045, 12.201696490273036]}]

>  <H298_value>  (1) 
-221677.73393283132

>  <H298_units>  (1) 
kcal/mol

>  <S298_value>  (1) 
69.21240690289005

>  <S298_units>  (1) 
cal/(mol*K)

>  <Cp_T_value_list>  (1) 
[16.73634536833107, 20.824139680952957, 24.027439593675794, 26.34823762578554, 29.71105988132181, 31.9363143238467, 34.55227143459743, 35.59678357964536, 36.33939705849216]

>  <Cp_T_units>  (1) 
cal/(mol*K)

>  <T_list>  (1) 
[300.0, 400.0, 500.0, 600.0, 800.0, 1000.0, 1500.0, 2000.0, 2400.0]

>  <T_units>  (1) 
K

>  <yaml_path>  (1) 
/home/calvin/Dropbox/PersonalFolders/Calvin/Kfir_HAb_Converged/kfir_rxn_8008/output/Species/N=c1onno1/N=c1onno1.yml

>  <frequencies_cm1>  (1) 
[208.89369343439998, 445.44073675243993, 644.52150816456, 714.2214091625599, 757.75122910604, 783.81143839544, 819.0802749989599, 941.40875148944, 996.4545058145599, 1049.54316932348, 1062.20589025356, 1273.50302854996, 1598.9500638207198, 1829.7357064552798, 3558.0254387782]

>  <ZPE_kJmol>  (1) 
99.78979924741076

>  <E_elec_kJmol>  (1) 
-927613.1854967066

>  <E0_minus_Eelec_plus_ZPE_kJmol>  (1) 
0.0

>  <rxn>  (1) 
kfir_rxn_8008

>  <species_type>  (1) 
r1

>  <species_folder>  (1) 
N=c1onno1

>  <frequencies_cm1_list>  (1) 
[208.89369343439998, 445.44073675243993, 644.52150816456, 714.2214091625599, 757.75122910604, 783.81143839544, 819.0802749989599, 941.40875148944, 996.4545058145599, 1049.54316932348, 1062.20589025356, 1273.50302854996, 1598.9500638207198, 1829.7357064552798, 3558.0254387782]

>  <E0_kJmol>  (1) 
-927513

>  <H298_kJmol>  (1) 
-927500

$$$$

     RDKit          3D

  8  7  0  0  0  0  0  0  0  0999 V2000
    0.1999   -0.5970   -1.1780 N   0  0  0  0  0  0  0  0  0  1  0  0
   -0.0682   -0.0097    0.0594 C   0  0  0  0  0  0  0  0  0  2  0  0
   -1.0055   -0.3862    0.7334 O   0  0  0  0  0  0  0  0  0  3  0  0
    0.8210    0.9360    0.4509 N   0  0  0  0  0  0  0  0  0  4  0  0
   -0.6683   -0.9491   -1.5707 H   0  0  0  0  0  0  0  0  0  5  0  0
    0.7542    1.2722    1.3935 H   0  0  0  0  0  0  0  0  0  6  0  0
    1.6602    1.1077   -0.0724 H   0  0  0  0  0  0  0  0  0  7  0  0
    0.7183   -0.0274   -1.8404 H   0  0  0  0  0  0  0  0  0  8  0  0
  1  5  1  0
  1  2  1  0
  1  8  1  0
  2  4  1  0
  2  3  1  0
  4  6  1  0
  4  7  1  0
M  END
>  <rmg_smiles>  (2) 
N[C]([O])N

>  <rmg_adjacency_list>  (2) 
1 O u0 p2 c0 {4,S}
2 N u0 p1 c0 {4,S} {5,S} {8,S}
3 N u0 p1 c0 {4,S} {6,S} {7,S}
4 C u0 p0 c0 {1,S} {2,S} {3,S}
5 H u0 p0 c0 {2,S}
6 H u0 p0 c0 {3,S}
7 H u0 p0 c0 {3,S}
8 H u0 p0 c0 {2,S}


>  <multiplicity>  (2) 
1

>  <reaction>  (2) 
kfir_rxn_8008

>  <type>  (2) 
r2h

>  <role_mapnums>  (2) 
{"r2h_a": 1, "r2h_h": 8}

>  <role_mapidx>  (2) 
{"r2h_a": 0, "r2h_h": 7}

>  <ordered_mapped_smiles>  (2) 
[N:1]([CH:2]([OH:3])[N:4]([H:6])[H:7])([H:5])[H:8]

>  <mol_properties>  (2) 
{"0": {"label": "acceptor", "atom_type": "N3s"}, "7": {"label": "a_hydrogen", "atom_type": "H0"}}

>  <level_of_theory>  (2) 
wb97xd/def2tzvp

>  <lot_method>  (2) 
wb97xd

>  <lot_basis>  (2) 
def2tzvp

>  <spin_multiplicity>  (2) 
1.0

>  <optical_isomers>  (2) 
2.0

>  <modes>  (2) 
IdealGasTranslation(mass=(60.0324, 'amu')),         NonlinearRotor(             inertia = ([44.705, 48.4392, 92.4416

>  <frequency_value>  (2) 
unknown

>  <frequency_units>  (2) 
unknown

>  <frequency_list>  (2) 
unknown

>  <arkane_path>  (2) 
/home/calvin/Dropbox/PersonalFolders/Calvin/Kfir_HAb_Converged/kfir_rxn_8008/output/Species/NC[=O]N/arkane/output.py

>  <path_exists>  (2) 
True

>  <E0_value>  (2) 
-591350.2934562693

>  <E0_units>  (2) 
kJ/mol

>  <thermo_class>  (2) 
NASA

>  <Cp0_value>  (2) 
33.257888

>  <Cp0_units>  (2) 
J/(mol*K)

>  <CpInf_value>  (2) 
182.918384

>  <CpInf_units>  (2) 
J/(mol*K)

>  <Tmin_value>  (2) 
10.0

>  <Tmin_units>  (2) 
K

>  <Tmax_value>  (2) 
3000.0

>  <Tmax_units>  (2) 
K

>  <polynomials>  (2) 
[{"name": "polynomial1", "class": "NASAPolynomial", "Tmin_value": 10.0, "Tmin_units": "K", "Tmax_value": 573.2071693918926, "Tmax_units": "K", "coeffs": [3.937854735267164, 0.00361111519101088, 7.789053561542705e-05, -1.4819528816911476e-07, 8.544209099433657e-11, -71123009.0487241, 7.739903048358538]}, {"name": "polynomial2", "class": "NASAPolynomial", "Tmin_value": 573.2071693918926, "Tmin_units": "K", "Tmax_value": 3000.0, "Tmax_units": "K", "coeffs": [2.939995634136458, 0.025044081077366272, -1.6061338247075515e-05, 5.11378004251261e-09, -6.296369432355037e-13, -71123132.36441317, 9.925156420867104]}]

>  <H298_value>  (2) 
-141332.59078819025

>  <H298_units>  (2) 
kcal/mol

>  <S298_value>  (2) 
66.71058168501358

>  <S298_units>  (2) 
cal/(mol*K)

>  <Cp_T_value_list>  (2) 
[17.332704546802184, 20.960270411424485, 23.909603415724973, 26.245708039143, 29.92009668679281, 32.60386170380874, 36.64324691690901, 38.986714307281005, 40.41090651076646]

>  <Cp_T_units>  (2) 
cal/(mol*K)

>  <T_list>  (2) 
[300.0, 400.0, 500.0, 600.0, 800.0, 1000.0, 1500.0, 2000.0, 2400.0]

>  <T_units>  (2) 
K

>  <yaml_path>  (2) 
/home/calvin/Dropbox/PersonalFolders/Calvin/Kfir_HAb_Converged/kfir_rxn_8008/output/Species/NC[=O]N/NC=ON.yml

>  <frequencies_cm1>  (2) 
[368.72964374272004, 429.7359413256, 479.3499102625999, 532.2600321532, 532.2943670797999, 579.0654040943199, 786.0088736978398, 959.6199965580801, 1041.0761764239198, 1171.32228698836, 1417.5449126222798, 1621.3913718464798, 1622.28407993808, 1807.1639257084398, 3574.03924854444, 3578.7156655473595, 3689.974561702, 3690.6612602339997]

>  <ZPE_kJmol>  (2) 
166.76688324373345

>  <E_elec_kJmol>  (2) 
-591517.060339513

>  <E0_minus_Eelec_plus_ZPE_kJmol>  (2) 
0.0

>  <rxn>  (2) 
kfir_rxn_8008

>  <species_type>  (2) 
p0

>  <species_folder>  (2) 
NC[=O]N

>  <frequencies_cm1_list>  (2) 
[368.72964374272004, 429.7359413256, 479.3499102625999, 532.2600321532, 532.2943670797999, 579.0654040943199, 786.0088736978398, 959.6199965580801, 1041.0761764239198, 1171.32228698836, 1417.5449126222798, 1621.3913718464798, 1622.28407993808, 1807.1639257084398, 3574.03924854444, 3578.7156655473595, 3689.974561702, 3690.6612602339997]

>  <E0_kJmol>  (2) 
-591350

>  <H298_kJmol>  (2) 
-591336

$$$$

     RDKit          3D

 14 13  0  0  0  0  0  0  0  0999 V2000
    0.3509   -1.9814    0.8724 N   0  0  0  0  0  2  0  0  0  1  0  0
    0.0828   -1.3940    2.1098 C   0  0  0  0  0  0  0  0  0  2  0  0
   -0.8544   -1.7706    2.7838 O   0  0  0  0  0  0  0  0  0  3  0  0
    0.9721   -0.4484    2.5013 N   0  0  0  0  0  0  0  0  0  4  0  0
   -0.5173   -2.3335    0.4797 H   0  0  0  0  0  0  0  0  0  5  0  0
    0.9052   -0.1122    3.4439 H   0  0  0  0  0  0  0  0  0  6  0  0
    1.8112   -0.2767    1.9780 H   0  0  0  0  0  0  0  0  0  7  0  0
    1.3175   -0.3461   -0.6596 N   0  0  0  0  0  0  0  0  0  8  0  0
    0.3877    0.4062   -1.0044 C   0  0  0  0  0  0  0  0  0  9  0  0
    0.5307    1.5091   -1.7913 O   0  0  0  0  0  0  0  0  0 10  0  0
   -0.7206    2.0635   -1.9424 N   0  0  0  0  0  0  0  0  0 11  0  0
   -1.5517    1.4070   -1.3362 N   0  0  0  0  0  0  0  0  0 12  0  0
   -0.9434    0.3366   -0.7116 O   0  0  0  0  0  0  0  0  0 13  0  0
    0.9891   -1.2802    0.0570 H   0  0  0  0  0  0  0  0  0 14  0  0
  1  5  1  0
  1  2  1  0
  2  4  1  0
  2  3  1  0
  4  6  1  0
  4  7  1  0
  8 14  1  0
  8  9  1  0
  9 10  1  0
  9 13  1  0
 10 11  1  0
 11 12  1  0
 12 13  1  0
M  RAD  1   1   2
M  END
>  <rmg_smiles>  (3) 
[NH][C]1O[N][N]O1.[NH][C]([O])N

>  <rmg_adjacency_list>  (3) 
multiplicity 2
1  O u0 p2 c0 {5,S} {9,S}
2  O u0 p2 c0 {6,S} {9,S}
3  O u0 p2 c0 {10,S}
4  N u0 p1 c0 {10,S} {11,S} {12,S}
5  N u0 p1 c0 {1,S} {6,S}
6  N u0 p1 c0 {2,S} {5,S}
7  N u1 p1 c0 {10,S} {13,S}
8  N u0 p1 c0 {9,S} {14,S}
9  C u0 p0 c0 {1,S} {2,S} {8,S}
10 C u0 p0 c0 {3,S} {4,S} {7,S}
11 H u0 p0 c0 {4,S}
12 H u0 p0 c0 {4,S}
13 H u0 p0 c0 {7,S}
14 H u0 p0 c0 {8,S}


>  <multiplicity>  (3) 
2

>  <reaction>  (3) 
kfir_rxn_8008

>  <type>  (3) 
ts

>  <role_mapnums>  (3) 
{"*2": 14, "*1": 8, "*3": 1, "*0": 9, "*4": 2}

>  <role_mapidx>  (3) 
{"*2": 13, "*1": 7, "*3": 0, "*0": 8, "*4": 1}

>  <ordered_mapped_smiles>  (3) 
[N:1]([CH:2]([OH:3])[N:4]([H:6])[H:7])[H:5].[NH:8]([CH:9]1[O:10][NH:11][NH:12][O:13]1)[H:14]

>  <mol_properties>  (3) 
{"0": {"label": "*3", "atom_type": "N3s"}, "1": {"label": "*4", "atom_type": "Cs"}, "7": {"label": "*1", "atom_type": "N3s"}, "8": {"label": "*0", "atom_type": "Cs"}, "13": {"label": "*2", "atom_type": "H0"}}

>  <level_of_theory>  (3) 
wb97xd/def2tzvp

>  <lot_method>  (3) 
wb97xd

>  <lot_basis>  (3) 
def2tzvp

>  <spin_multiplicity>  (3) 
2.0

>  <optical_isomers>  (3) 
2.0

>  <modes>  (3) 
IdealGasTranslation(mass=(146.031, 'amu')),         NonlinearRotor(             inertia = ([168.357, 716.128, 776.968

>  <frequency_value>  (3) 
-1836.44

>  <frequency_units>  (3) 
cm^-1

>  <frequency_list>  (3) 
unknown

>  <arkane_path>  (3) 
/home/calvin/Dropbox/PersonalFolders/Calvin/Kfir_HAb_Converged/kfir_rxn_8008/output/rxns/TS0/arkane/output.py

>  <path_exists>  (3) 
True

>  <E0_value>  (3) 
-1517080.0

>  <E0_units>  (3) 
kJ/mol

>  <thermo_class>  (3) 
unknown

>  <Cp0_value>  (3) 
unknown

>  <Cp0_units>  (3) 
unknown

>  <CpInf_value>  (3) 
unknown

>  <CpInf_units>  (3) 
unknown

>  <Tmin_value>  (3) 
unknown

>  <Tmin_units>  (3) 
unknown

>  <Tmax_value>  (3) 
unknown

>  <Tmax_units>  (3) 
unknown

>  <polynomials>  (3) 
unknown

>  <H298_value>  (3) 
unknown

>  <H298_units>  (3) 
unknown

>  <S298_value>  (3) 
unknown

>  <S298_units>  (3) 
unknown

>  <Cp_T_value_list>  (3) 
unknown

>  <Cp_T_units>  (3) 
unknown

>  <T_list>  (3) 
unknown

>  <T_units>  (3) 
unknown

>  <yaml_path>  (3) 
unknown

>  <frequencies_cm1>  (3) 
unknown

>  <ZPE_kJmol>  (3) 
unknown

>  <E_elec_kJmol>  (3) 
unknown

>  <E0_minus_Eelec_plus_ZPE_kJmol>  (3) 
unknown

>  <rxn>  (3) 
unknown

>  <species_type>  (3) 
unknown

>  <species_folder>  (3) 
unknown

>  <frequencies_cm1_list>  (3) 
[]

>  <ts_imag_freq_cm1>  (3) 
-1858.742

>  <ts_freq_out_path>  (3) 
/home/calvin/Dropbox/PersonalFolders/Calvin/Kfir_HAb_Converged/kfir_rxn_8008/output/rxns/TS0/geometry/freq.out

>  <E0_kJmol>  (3) 
-1.51708e+06

>  <H298_kJmol>  (3) 
unknown

$$$$

     RDKit          3D

  6  6  0  0  0  0  0  0  0  0999 V2000
    1.9594    0.0134   -0.3734 N   0  0  0  0  0  2  0  0  0  1  0  0
    0.7437    0.0051   -0.0788 C   0  0  0  0  0  0  0  0  0  2  0  0
   -0.0745    1.0868    0.0233 O   0  0  0  0  0  0  0  0  0  3  0  0
   -1.3223    0.5972    0.3682 N   0  0  0  0  0  0  0  0  0  4  0  0
   -1.2899   -0.6150    0.4676 N   0  0  0  0  0  0  0  0  0  5  0  0
   -0.0165   -1.0874    0.2015 O   0  0  0  0  0  0  0  0  0  6  0  0
  1  2  1  0
  2  3  1  0
  2  6  1  0
  3  4  1  0
  4  5  1  0
  5  6  1  0
M  RAD  1   1   2
M  END
>  <rmg_smiles>  (4) 
[N][C]1O[N][N]O1

>  <rmg_adjacency_list>  (4) 
multiplicity 2
1 O u0 p2 c0 {3,S} {6,S}
2 O u0 p2 c0 {4,S} {6,S}
3 N u0 p1 c0 {1,S} {4,S}
4 N u0 p1 c0 {2,S} {3,S}
5 N u1 p2 c0 {6,S}
6 C u0 p0 c0 {1,S} {2,S} {5,S}


>  <multiplicity>  (4) 
2

>  <reaction>  (4) 
kfir_rxn_8008

>  <type>  (4) 
r1

>  <role_mapnums>  (4) 
{}

>  <role_mapidx>  (4) 
{}

>  <ordered_mapped_smiles>  (4) 
[NH:1][CH:2]1[O:3][NH:4][NH:5][O:6]1

>  <level_of_theory>  (4) 
wb97xd/def2tzvp

>  <lot_method>  (4) 
wb97xd

>  <lot_basis>  (4) 
def2tzvp

>  <spin_multiplicity>  (4) 
2.0

>  <optical_isomers>  (4) 
1.0

>  <modes>  (4) 
IdealGasTranslation(mass=(85.999, 'amu')),         NonlinearRotor(             inertia = ([48.4503, 114.569, 163.019

>  <frequency_value>  (4) 
unknown

>  <frequency_units>  (4) 
unknown

>  <frequency_list>  (4) 
unknown

>  <arkane_path>  (4) 
/home/calvin/Dropbox/PersonalFolders/Calvin/Kfir_HAb_Converged/kfir_rxn_8008/output/Species/_N_=c1onno1/arkane/output.py

>  <path_exists>  (4) 
True

>  <E0_value>  (4) 
-925766.123350724

>  <E0_units>  (4) 
kJ/mol

>  <thermo_class>  (4) 
NASA

>  <Cp0_value>  (4) 
33.257888

>  <Cp0_units>  (4) 
J/(mol*K)

>  <CpInf_value>  (4) 
133.031552

>  <CpInf_units>  (4) 
J/(mol*K)

>  <Tmin_value>  (4) 
10.0

>  <Tmin_units>  (4) 
K

>  <Tmax_value>  (4) 
3000.0

>  <Tmax_units>  (4) 
K

>  <polynomials>  (4) 
[{"name": "polynomial1", "class": "NASAPolynomial", "Tmin_value": 10.0, "Tmin_units": "K", "Tmax_value": 615.6012172942251, "Tmax_units": "K", "coeffs": [3.9482722177880523, 0.00286399391777489, 6.607304666914822e-05, -1.1888758586418805e-07, 6.356745631073056e-11, -111343943.33130501, 9.376822962946171]}, {"name": "polynomial2", "class": "NASAPolynomial", "Tmin_value": 615.6012172942251, "Tmin_units": "K", "Tmax_value": 3000.0, "Tmax_units": "K", "coeffs": [2.449527079036138, 0.025184330488228168, -1.8971272122591413e-05, 6.4121015114796695e-09, -8.006937785638129e-13, -111343997.21073204, 13.943915403155506]}]

>  <H298_value>  (4) 
-221260.06538606877

>  <H298_units>  (4) 
kcal/mol

>  <S298_value>  (4) 
69.02430482099071

>  <S298_units>  (4) 
cal/(mol*K)

>  <Cp_T_value_list>  (4) 
[16.014849838314646, 19.244264025617063, 21.880233817343235, 23.869508066662636, 26.649252170505203, 28.36537203710628, 30.062441828728026, 30.640361853540604, 31.1856016605508]

>  <Cp_T_units>  (4) 
cal/(mol*K)

>  <T_list>  (4) 
[300.0, 400.0, 500.0, 600.0, 800.0, 1000.0, 1500.0, 2000.0, 2400.0]

>  <T_units>  (4) 
K

>  <yaml_path>  (4) 
/home/calvin/Dropbox/PersonalFolders/Calvin/Kfir_HAb_Converged/kfir_rxn_8008/output/Species/_N_=c1onno1/_N_=c1onno1.yml

>  <frequencies_cm1>  (4) 
[203.66105062056, 421.06293886643994, 625.6235645639199, 691.3131461350399, 746.0704870767199, 784.21659052932, 934.89884940608, 1008.3206564475199, 1041.0761764239198, 1163.2398452667198, 1617.8480074213599, 1768.29678879724]

>  <ZPE_kJmol>  (4) 
65.82829353267302

>  <E_elec_kJmol>  (4) 
-925831.9516442568

>  <E0_minus_Eelec_plus_ZPE_kJmol>  (4) 
0.0

>  <rxn>  (4) 
kfir_rxn_8008

>  <species_type>  (4) 
p1

>  <species_folder>  (4) 
_N_=c1onno1

>  <frequencies_cm1_list>  (4) 
[203.66105062056, 421.06293886643994, 625.6235645639199, 691.3131461350399, 746.0704870767199, 784.21659052932, 934.89884940608, 1008.3206564475199, 1041.0761764239198, 1163.2398452667198, 1617.8480074213599, 1768.29678879724]

>  <E0_kJmol>  (4) 
-925766

>  <H298_kJmol>  (4) 
-925752

$$$$

     RDKit          3D

  7  6  0  0  0  0  0  0  0  0999 V2000
    1.5908   -0.4705   -0.0314 N   0  0  0  0  0  2  0  0  0  1  0  0
    0.4296    0.2954    0.0888 C   0  0  0  0  0  0  0  0  0  2  0  0
   -0.6441   -0.1234   -0.3027 O   0  0  0  0  0  0  0  0  0  3  0  0
    0.6092    1.4698    0.7362 N   0  0  0  0  0  0  0  0  0  4  0  0
    1.5173   -0.9809   -0.9127 H   0  0  0  0  0  0  0  0  0  5  0  0
   -0.1983    2.0227    0.9586 H   0  0  0  0  0  0  0  0  0  6  0  0
    1.4791    1.6542    1.2001 H   0  0  0  0  0  0  0  0  0  7  0  0
  1  5  1  0
  1  2  1  0
  2  4  1  0
  2  3  1  0
  4  6  1  0
  4  7  1  0
M  RAD  1   1   2
M  END
>  <rmg_smiles>  (5) 
[NH][C]([O])N

>  <rmg_adjacency_list>  (5) 
multiplicity 2
1 O u0 p2 c0 {4,S}
2 N u0 p1 c0 {4,S} {5,S} {6,S}
3 N u1 p1 c0 {4,S} {7,S}
4 C u0 p0 c0 {1,S} {2,S} {3,S}
5 H u0 p0 c0 {2,S}
6 H u0 p0 c0 {2,S}
7 H u0 p0 c0 {3,S}


>  <multiplicity>  (5) 
2

>  <reaction>  (5) 
kfir_rxn_8008

>  <type>  (5) 
r2

>  <role_mapnums>  (5) 
{}

>  <role_mapidx>  (5) 
{}

>  <ordered_mapped_smiles>  (5) 
[N:1]([CH:2]([OH:3])[N:4]([H:6])[H:7])[H:5]

>  <level_of_theory>  (5) 
wb97xd/def2tzvp

>  <lot_method>  (5) 
wb97xd

>  <lot_basis>  (5) 
def2tzvp

>  <spin_multiplicity>  (5) 
2.0

>  <optical_isomers>  (5) 
2.0

>  <modes>  (5) 
IdealGasTranslation(mass=(59.0245, 'amu')),         NonlinearRotor(             inertia = ([41.72, 47.1765, 88.3087

>  <frequency_value>  (5) 
unknown

>  <frequency_units>  (5) 
unknown

>  <frequency_list>  (5) 
unknown

>  <arkane_path>  (5) 
/home/calvin/Dropbox/PersonalFolders/Calvin/Kfir_HAb_Converged/kfir_rxn_8008/output/Species/_NH_C[=O]N/arkane/output.py

>  <path_exists>  (5) 
True

>  <E0_value>  (5) 
-589590.7032304746

>  <E0_units>  (5) 
kJ/mol

>  <thermo_class>  (5) 
NASA

>  <Cp0_value>  (5) 
33.257888

>  <Cp0_units>  (5) 
J/(mol*K)

>  <CpInf_value>  (5) 
153.817732

>  <CpInf_units>  (5) 
J/(mol*K)

>  <Tmin_value>  (5) 
10.0

>  <Tmin_units>  (5) 
K

>  <Tmax_value>  (5) 
3000.0

>  <Tmax_units>  (5) 
K

>  <polynomials>  (5) 
[{"name": "polynomial1", "class": "NASAPolynomial", "Tmin_value": 10.0, "Tmin_units": "K", "Tmax_value": 529.876675046189, "Tmax_units": "K", "coeffs": [3.928097952828341, 0.004427502617692329, 7.626611731736675e-05, -1.6390619596114176e-07, 1.0486337732302652e-10, -70911379.5015795, 10.002327550137213]}, {"name": "polynomial2", "class": "NASAPolynomial", "Tmin_value": 529.876675046189, "Tmin_units": "K", "Tmax_value": 3000.0, "Tmax_units": "K", "coeffs": [3.8221469804651327, 0.020706797771894995, -1.3638125639141252e-05, 4.3396017139477895e-09, -5.282107621465328e-13, -70911585.58150765, 8.395635394882998]}]

>  <H298_value>  (5) 
-140912.04480797198

>  <H298_units>  (5) 
kcal/mol

>  <S298_value>  (5) 
71.23683400402957

>  <S298_units>  (5) 
cal/(mol*K)

>  <Cp_T_value_list>  (5) 
[16.97914018512837, 20.06320186091228, 22.403895615041584, 24.25464678681445, 27.154592076794422, 29.21632741962908, 32.13044589775602, 33.68053002948171, 34.63451867219133]

>  <Cp_T_units>  (5) 
cal/(mol*K)

>  <T_list>  (5) 
[300.0, 400.0, 500.0, 600.0, 800.0, 1000.0, 1500.0, 2000.0, 2400.0]

>  <T_units>  (5) 
K

>  <yaml_path>  (5) 
/home/calvin/Dropbox/PersonalFolders/Calvin/Kfir_HAb_Converged/kfir_rxn_8008/output/Species/_NH_C[=O]N/_NH_C=ON.yml

>  <frequencies_cm1>  (5) 
[313.3103571869985, 410.6115014194143, 516.0366109341566, 555.4952852074488, 710.6702204253555, 924.7914649635361, 1057.9505276136101, 1156.8791419964687, 1394.9493366314894, 1593.2846097280408, 1702.4188883042073, 3457.2323466763255, 3592.7154254443954, 3724.183743303588]

>  <ZPE_kJmol>  (5) 
126.2690431739951

>  <E_elec_kJmol>  (5) 
-589716.9722736486

>  <E0_minus_Eelec_plus_ZPE_kJmol>  (5) 
0.0

>  <rxn>  (5) 
kfir_rxn_8008

>  <species_type>  (5) 
r0

>  <species_folder>  (5) 
_NH_C[=O]N

>  <frequencies_cm1_list>  (5) 
[313.3103571869985, 410.6115014194143, 516.0366109341566, 555.4952852074488, 710.6702204253555, 924.7914649635361, 1057.9505276136101, 1156.8791419964687, 1394.9493366314894, 1593.2846097280408, 1702.4188883042073, 3457.2323466763255, 3592.7154254443954, 3724.183743303588]

>  <E0_kJmol>  (5) 
-589591

>  <H298_kJmol>  (5) 
-589576

$$$$
