
     RDKit          3D

  7  6  0  0  0  0  0  0  0  0999 V2000
    1.0436   -0.2019   -0.8367 C   0  0  0  0  0  2  0  0  0  1  0  0
    0.1103   -0.0399   -0.1015 C   0  0  0  0  0  2  0  0  0  2  0  0
   -0.9903    0.1898    0.7927 C   0  0  0  0  0  0  0  0  0  3  0  0
    1.8647   -0.3594   -1.4941 H   0  0  0  0  0  0  0  0  0  4  0  0
   -0.8104    1.1200    1.3298 H   0  0  0  0  0  0  0  0  0  5  0  0
   -1.0809   -0.5709    1.5668 H   0  0  0  0  0  0  0  0  0  6  0  0
   -1.9383    0.3392    0.2778 H   0  0  0  0  0  0  0  0  0  7  0  0
  1  4  1  0
  1  2  1  0
  2  3  1  0
  3  6  1  0
  3  7  1  0
  3  5  1  0
M  RAD  2   1   3   2   3
M  END
>  <rmg_smiles>  (1) 
[CH][C]C

>  <rmg_adjacency_list>  (1) 
1 C u0 p0 c0 {2,S} {4,S} {5,S} {6,S}
2 C u0 p1 c0 {1,S} {3,S}
3 C u0 p1 c0 {2,S} {7,S}
4 H u0 p0 c0 {1,S}
5 H u0 p0 c0 {1,S}
6 H u0 p0 c0 {1,S}
7 H u0 p0 c0 {3,S}


>  <multiplicity>  (1) 
1

>  <reaction>  (1) 
kfir_rxn_13651

>  <type>  (1) 
r1h

>  <role_mapnums>  (1) 
{"r1h_a": 3, "r1h_h": 5}

>  <role_mapidx>  (1) 
{"r1h_a": 2, "r1h_h": 4}

>  <ordered_mapped_smiles>  (1) 
[C:1]([C:2][C:3]([H:5])([H:6])[H:7])[H:4]

>  <mol_properties>  (1) 
{"2": {"label": "donator", "atom_type": "Cs"}, "4": {"label": "d_hydrogen", "atom_type": "H0"}}

>  <level_of_theory>  (1) 
wb97xd/def2tzvp

>  <lot_method>  (1) 
wb97xd

>  <lot_basis>  (1) 
def2tzvp

>  <spin_multiplicity>  (1) 
1.0

>  <optical_isomers>  (1) 
1.0

>  <modes>  (1) 
IdealGasTranslation(mass=(40.0313, 'amu')),         NonlinearRotor(             inertia = ([3.14896, 58.5628, 58.5628

>  <frequency_value>  (1) 
unknown

>  <frequency_units>  (1) 
unknown

>  <frequency_list>  (1) 
unknown

>  <arkane_path>  (1) 
/home/calvin/Dropbox/PersonalFolders/Calvin/Kfir_HAb_Converged/kfir_rxn_13651/output/Species/CtCC/arkane/output.py

>  <path_exists>  (1) 
True

>  <E0_value>  (1) 
-305661.8561004724

>  <E0_units>  (1) 
kJ/mol

>  <thermo_class>  (1) 
NASA

>  <Cp0_value>  (1) 
33.257888

>  <Cp0_units>  (1) 
J/(mol*K)

>  <CpInf_value>  (1) 
157.97496800000002

>  <CpInf_units>  (1) 
J/(mol*K)

>  <Tmin_value>  (1) 
10.0

>  <Tmin_units>  (1) 
K

>  <Tmax_value>  (1) 
3000.0

>  <Tmax_units>  (1) 
K

>  <polynomials>  (1) 
[{"name": "polynomial1", "class": "NASAPolynomial", "Tmin_value": 10.0, "Tmin_units": "K", "Tmax_value": 431.2097180749653, "Tmax_units": "K", "coeffs": [3.979824244418846, 0.0012502679060560694, 5.649222862543357e-05, -1.0249564733389337e-07, 6.104734048640429e-11, -36762628.95266962, 4.8793113987325825]}, {"name": "polynomial2", "class": "NASAPolynomial", "Tmin_value": 431.2097180749653, "Tmin_units": "K", "Tmax_value": 3000.0, "Tmax_units": "K", "coeffs": [1.8580648669911648, 0.020937827345734038, -1.2012234416907578e-05, 3.445164612172472e-09, -3.909269230984794e-13, -36762446.02039706, 13.330225890521797]}]

>  <H298_value>  (1) 
-73051.82238689251

>  <H298_units>  (1) 
kcal/mol

>  <S298_value>  (1) 
58.92049936348175

>  <S298_units>  (1) 
cal/(mol*K)

>  <Cp_T_value_list>  (1) 
[14.240930213732804, 16.93453358322682, 19.33578271706531, 21.441656708625306, 24.888365075053336, 27.49875586712662, 31.568049991991277, 33.76515826611373, 34.923800510105]

>  <Cp_T_units>  (1) 
cal/(mol*K)

>  <T_list>  (1) 
[300.0, 400.0, 500.0, 600.0, 800.0, 1000.0, 1500.0, 2000.0, 2400.0]

>  <T_units>  (1) 
K

>  <yaml_path>  (1) 
/home/calvin/Dropbox/PersonalFolders/Calvin/Kfir_HAb_Converged/kfir_rxn_13651/output/Species/CtCC/CtCC.yml

>  <frequencies_cm1>  (1) 
[349.98964080443994, 351.7269880904, 682.36546426308, 684.3225550792799, 939.0877104512799, 1047.6066794632397, 1048.12170336224, 1402.15599852016, 1465.4009333173599, 1465.7236816273999, 2229.1813755343596, 3023.21775507128, 3095.5957803440792, 3095.92539563944, 3438.2308798707995]

>  <ZPE_kJmol>  (1) 
145.45788600568434

>  <E_elec_kJmol>  (1) 
-305807.313986478

>  <E0_minus_Eelec_plus_ZPE_kJmol>  (1) 
0.0

>  <rxn>  (1) 
kfir_rxn_13651

>  <species_type>  (1) 
r1

>  <species_folder>  (1) 
CtCC

>  <frequencies_cm1_list>  (1) 
[349.98964080443994, 351.7269880904, 682.36546426308, 684.3225550792799, 939.0877104512799, 1047.6066794632397, 1048.12170336224, 1402.15599852016, 1465.4009333173599, 1465.7236816273999, 2229.1813755343596, 3023.21775507128, 3095.5957803440792, 3095.92539563944, 3438.2308798707995]

>  <E0_kJmol>  (1) 
-305662

>  <H298_kJmol>  (1) 
-305649

$$$$

     RDKit          3D

  8  8  0  0  0  0  0  0  0  0999 V2000
   -0.9489   -0.4837    0.2896 O   0  0  0  0  0  0  0  0  0  1  0  0
   -0.0895   -0.9279   -0.5956 C   0  0  0  0  0  0  0  0  0  2  0  0
    0.9820   -0.1177   -0.7363 C   0  0  0  0  0  0  0  0  0  3  0  0
    0.6775    0.9113    0.1928 C   0  0  0  0  0  0  0  0  0  4  0  0
   -0.4540    0.7179    0.8089 N   0  0  0  0  0  0  0  0  0  5  0  0
    1.8329   -0.2309   -1.3822 H   0  0  0  0  0  0  0  0  0  6  0  0
    1.2511    1.7934    0.4341 H   0  0  0  0  0  0  0  0  0  7  0  0
   -0.3149   -1.8639   -1.1066 H   0  0  0  0  0  0  0  0  0  8  0  0
  1  5  1  0
  1  2  1  0
  2  8  1  0
  2  3  1  0
  3  4  1  0
  3  6  1  0
  4  5  1  0
  4  7  1  0
M  END
>  <rmg_smiles>  (2) 
[CH]1[CH][CH][N]O1

>  <rmg_adjacency_list>  (2) 
1 O u0 p2 c0 {2,S} {4,S}
2 N u0 p1 c0 {1,S} {5,S}
3 C u0 p0 c0 {4,S} {5,S} {6,S}
4 C u0 p0 c0 {1,S} {3,S} {8,S}
5 C u0 p0 c0 {2,S} {3,S} {7,S}
6 H u0 p0 c0 {3,S}
7 H u0 p0 c0 {5,S}
8 H u0 p0 c0 {4,S}


>  <multiplicity>  (2) 
1

>  <reaction>  (2) 
kfir_rxn_13651

>  <type>  (2) 
r2h

>  <role_mapnums>  (2) 
{"r2h_a": 2, "r2h_h": 8}

>  <role_mapidx>  (2) 
{"r2h_a": 1, "r2h_h": 7}

>  <ordered_mapped_smiles>  (2) 
[O:1]1[CH:2]([H:8])[CH:3]([H:6])[CH:4]([H:7])[NH:5]1

>  <mol_properties>  (2) 
{"1": {"label": "acceptor", "atom_type": "Cs"}, "7": {"label": "a_hydrogen", "atom_type": "H0"}}

>  <level_of_theory>  (2) 
wb97xd/def2tzvp

>  <lot_method>  (2) 
wb97xd

>  <lot_basis>  (2) 
def2tzvp

>  <spin_multiplicity>  (2) 
1.0

>  <optical_isomers>  (2) 
1.0

>  <modes>  (2) 
IdealGasTranslation(mass=(69.0215, 'amu')),         NonlinearRotor(             inertia = ([50.6966, 51.7647, 102.461

>  <frequency_value>  (2) 
unknown

>  <frequency_units>  (2) 
unknown

>  <frequency_list>  (2) 
unknown

>  <arkane_path>  (2) 
/home/calvin/Dropbox/PersonalFolders/Calvin/Kfir_HAb_Converged/kfir_rxn_13651/output/Species/c1ccno1/arkane/output.py

>  <path_exists>  (2) 
True

>  <E0_value>  (2) 
-645005.7504592004

>  <E0_units>  (2) 
kJ/mol

>  <thermo_class>  (2) 
NASA

>  <Cp0_value>  (2) 
33.257888

>  <Cp0_units>  (2) 
J/(mol*K)

>  <CpInf_value>  (2) 
182.918384

>  <CpInf_units>  (2) 
J/(mol*K)

>  <Tmin_value>  (2) 
10.0

>  <Tmin_units>  (2) 
K

>  <Tmax_value>  (2) 
3000.0

>  <Tmax_units>  (2) 
K

>  <polynomials>  (2) 
[{"name": "polynomial1", "class": "NASAPolynomial", "Tmin_value": 10.0, "Tmin_units": "K", "Tmax_value": 672.456972806197, "Tmax_units": "K", "coeffs": [4.208323299558697, -0.015971778112712148, 0.00013944825696274315, -2.050404981433422e-07, 9.736756175262173e-11, -77576275.36041379, 8.684287572652956]}, {"name": "polynomial2", "class": "NASAPolynomial", "Tmin_value": 672.456972806197, "Tmin_units": "K", "Tmax_value": 3000.0, "Tmax_units": "K", "coeffs": [0.10772208461759653, 0.03215311368063976, -2.0840132000781352e-05, 6.3516079191150474e-09, -7.338873016151619e-13, -77576260.46916792, 22.850250626822078]}]

>  <H298_value>  (2) 
-154157.2637961036

>  <H298_units>  (2) 
kcal/mol

>  <S298_value>  (2) 
64.53443488550246

>  <S298_units>  (2) 
cal/(mol*K)

>  <Cp_T_value_list>  (2) 
[14.347068145550447, 18.88114621316303, 22.932181838492255, 26.14511423464795, 30.690320949374005, 33.858867697910085, 38.09170395748807, 39.9907184394958, 41.119362624868955]

>  <Cp_T_units>  (2) 
cal/(mol*K)

>  <T_list>  (2) 
[300.0, 400.0, 500.0, 600.0, 800.0, 1000.0, 1500.0, 2000.0, 2400.0]

>  <T_units>  (2) 
K

>  <yaml_path>  (2) 
/home/calvin/Dropbox/PersonalFolders/Calvin/Kfir_HAb_Converged/kfir_rxn_13651/output/Species/c1ccno1/c1ccno1.yml

>  <frequencies_cm1>  (2) 
[611.55311164324, 654.61597658496, 787.69815208656, 891.13555196172, 921.7623064889199, 922.4833399475199, 925.0515924571998, 944.8010422375199, 1039.56543965352, 1129.66028705192, 1164.40723277112, 1254.30980458056, 1408.26761545496, 1476.3331739468, 1610.77501254176, 3225.5534775250794, 3243.4007723717596, 3268.45840180444]

>  <ZPE_kJmol>  (2) 
152.40328527778232

>  <E_elec_kJmol>  (2) 
-645158.1537444781

>  <E0_minus_Eelec_plus_ZPE_kJmol>  (2) 
0.0

>  <rxn>  (2) 
kfir_rxn_13651

>  <species_type>  (2) 
p0

>  <species_folder>  (2) 
c1ccno1

>  <frequencies_cm1_list>  (2) 
[611.55311164324, 654.61597658496, 787.69815208656, 891.13555196172, 921.7623064889199, 922.4833399475199, 925.0515924571998, 944.8010422375199, 1039.56543965352, 1129.66028705192, 1164.40723277112, 1254.30980458056, 1408.26761545496, 1476.3331739468, 1610.77501254176, 3225.5534775250794, 3243.4007723717596, 3268.45840180444]

>  <E0_kJmol>  (2) 
-645006

>  <H298_kJmol>  (2) 
-644994

$$$$

     RDKit          3D

 14 13  0  0  0  0  0  0  0  0999 V2000
   -1.2831    0.6635    1.7278 O   0  0  0  0  0  0  0  0  0  1  0  0
   -0.4237    0.2193    0.8426 C   0  0  0  0  0  3  0  0  0  2  0  0
    0.6478    1.0295    0.7019 C   0  0  0  0  0  0  0  0  0  3  0  0
    0.3432    2.0585    1.6310 C   0  0  0  0  0  0  0  0  0  4  0  0
   -0.7883    1.8651    2.2471 N   0  0  0  0  0  0  0  0  0  5  0  0
    1.4987    0.9163    0.0560 H   0  0  0  0  0  0  0  0  0  6  0  0
    0.9168    2.9406    1.8723 H   0  0  0  0  0  0  0  0  0  7  0  0
    1.0918   -2.5261   -2.1038 C   0  0  0  0  0  0  0  0  0  8  0  0
    0.1584   -2.3641   -1.3686 C   0  0  0  0  0  0  0  0  0  9  0  0
   -0.9422   -2.1344   -0.4744 C   0  0  0  0  0  0  0  0  0 10  0  0
    1.9129   -2.6836   -2.7612 H   0  0  0  0  0  0  0  0  0 11  0  0
   -0.7451   -1.1151    0.1142 H   0  0  0  0  0  0  0  0  0 12  0  0
   -1.0328   -2.8951    0.2997 H   0  0  0  0  0  0  0  0  0 13  0  0
   -1.8902   -1.9850   -0.9893 H   0  0  0  0  0  0  0  0  0 14  0  0
  1  5  1  0
  1  2  1  0
  2  3  1  0
  3  4  1  0
  3  6  1  0
  4  5  1  0
  4  7  1  0
  8  9  1  0
  8 11  1  0
  9 10  1  0
 10 12  1  0
 10 13  1  0
 10 14  1  0
M  RAD  1   2   2
M  END
>  <rmg_smiles>  (3) 
[C]1[CH][CH][N]O1.[CH][C]C

>  <rmg_adjacency_list>  (3) 
multiplicity 2
1  O u0 p2 c0 {2,S} {7,S}
2  N u0 p1 c0 {1,S} {5,S}
3  C u0 p0 c0 {6,S} {9,S} {10,S} {11,S}
4  C u0 p0 c0 {5,S} {7,S} {12,S}
5  C u0 p0 c0 {2,S} {4,S} {13,S}
6  C u0 p1 c0 {3,S} {8,S}
7  C u1 p1 c0 {1,S} {4,S}
8  C u0 p1 c0 {6,S} {14,S}
9  H u0 p0 c0 {3,S}
10 H u0 p0 c0 {3,S}
11 H u0 p0 c0 {3,S}
12 H u0 p0 c0 {4,S}
13 H u0 p0 c0 {5,S}
14 H u0 p0 c0 {8,S}


>  <multiplicity>  (3) 
2

>  <reaction>  (3) 
kfir_rxn_13651

>  <type>  (3) 
ts

>  <role_mapnums>  (3) 
{"*2": 12, "*1": 10, "*3": 2, "*0": 9, "*4": 1}

>  <role_mapidx>  (3) 
{"*2": 11, "*1": 9, "*3": 1, "*0": 8, "*4": 0}

>  <ordered_mapped_smiles>  (3) 
[O:1]1[CH:2][CH:3]([H:6])[CH:4]([H:7])[NH:5]1.[CH2:8]([CH2:9][C:10]([H:12])([H:13])[H:14])[H:11]

>  <mol_properties>  (3) 
{"0": {"label": "*4", "atom_type": "O2s"}, "1": {"label": "*3", "atom_type": "C2s"}, "8": {"label": "*0", "atom_type": "C2s"}, "9": {"label": "*1", "atom_type": "Cs"}, "11": {"label": "*2", "atom_type": "H0"}}

>  <level_of_theory>  (3) 
wb97xd/def2tzvp

>  <lot_method>  (3) 
wb97xd

>  <lot_basis>  (3) 
def2tzvp

>  <spin_multiplicity>  (3) 
2.0

>  <optical_isomers>  (3) 
1.0

>  <modes>  (3) 
IdealGasTranslation(mass=(108.045, 'amu')),         NonlinearRotor(             inertia = ([89.8765, 569.724, 656.345

>  <frequency_value>  (3) 
-789.256

>  <frequency_units>  (3) 
cm^-1

>  <frequency_list>  (3) 
unknown

>  <arkane_path>  (3) 
/home/calvin/Dropbox/PersonalFolders/Calvin/Kfir_HAb_Converged/kfir_rxn_13651/output/rxns/TS0/arkane/output.py

>  <path_exists>  (3) 
True

>  <E0_value>  (3) 
-948851.0

>  <E0_units>  (3) 
kJ/mol

>  <thermo_class>  (3) 
unknown

>  <Cp0_value>  (3) 
unknown

>  <Cp0_units>  (3) 
unknown

>  <CpInf_value>  (3) 
unknown

>  <CpInf_units>  (3) 
unknown

>  <Tmin_value>  (3) 
unknown

>  <Tmin_units>  (3) 
unknown

>  <Tmax_value>  (3) 
unknown

>  <Tmax_units>  (3) 
unknown

>  <polynomials>  (3) 
unknown

>  <H298_value>  (3) 
unknown

>  <H298_units>  (3) 
unknown

>  <S298_value>  (3) 
unknown

>  <S298_units>  (3) 
unknown

>  <Cp_T_value_list>  (3) 
unknown

>  <Cp_T_units>  (3) 
unknown

>  <T_list>  (3) 
unknown

>  <T_units>  (3) 
unknown

>  <yaml_path>  (3) 
unknown

>  <frequencies_cm1>  (3) 
unknown

>  <ZPE_kJmol>  (3) 
unknown

>  <E_elec_kJmol>  (3) 
unknown

>  <E0_minus_Eelec_plus_ZPE_kJmol>  (3) 
unknown

>  <rxn>  (3) 
unknown

>  <species_type>  (3) 
unknown

>  <species_folder>  (3) 
unknown

>  <frequencies_cm1_list>  (3) 
[]

>  <ts_imag_freq_cm1>  (3) 
-798.842

>  <ts_freq_out_path>  (3) 
/home/calvin/Dropbox/PersonalFolders/Calvin/Kfir_HAb_Converged/kfir_rxn_13651/output/rxns/TS0/geometry/freq.out

>  <E0_kJmol>  (3) 
-948851

>  <H298_kJmol>  (3) 
unknown

$$$$

     RDKit          3D

  6  5  0  0  0  0  0  0  0  0999 V2000
    1.4968   -0.0097    0.1113 C   0  0  0  0  0  0  0  0  0  1  0  0
    0.2829   -0.0018    0.0210 C   0  0  0  0  0  0  0  0  0  2  0  0
   -1.0795    0.0070   -0.0803 C   0  0  0  0  0  3  0  0  0  3  0  0
    2.5571   -0.0165    0.1902 H   0  0  0  0  0  0  0  0  0  4  0  0
   -1.6181    0.9389   -0.1832 H   0  0  0  0  0  0  0  0  0  5  0  0
   -1.6393   -0.9179   -0.0591 H   0  0  0  0  0  0  0  0  0  6  0  0
  1  4  1  0
  1  2  1  0
  2  3  1  0
  3  6  1  0
  3  5  1  0
M  RAD  1   3   2
M  END
>  <rmg_smiles>  (4) 
[CH]C[CH2]

>  <rmg_adjacency_list>  (4) 
multiplicity 2
1 C u1 p0 c0 {2,S} {4,S} {5,S}
2 C u0 p1 c0 {1,S} {3,S}
3 C u0 p1 c0 {2,S} {6,S}
4 H u0 p0 c0 {1,S}
5 H u0 p0 c0 {1,S}
6 H u0 p0 c0 {3,S}


>  <multiplicity>  (4) 
2

>  <reaction>  (4) 
kfir_rxn_13651

>  <type>  (4) 
r1

>  <role_mapnums>  (4) 
{}

>  <role_mapidx>  (4) 
{}

>  <ordered_mapped_smiles>  (4) 
[CH2:1]([CH2:2][C:3]([H:5])[H:6])[H:4]

>  <level_of_theory>  (4) 
wb97xd/def2tzvp

>  <lot_method>  (4) 
wb97xd

>  <lot_basis>  (4) 
def2tzvp

>  <spin_multiplicity>  (4) 
2.0

>  <optical_isomers>  (4) 
1.0

>  <modes>  (4) 
IdealGasTranslation(mass=(39.0235, 'amu')),         NonlinearRotor(             inertia = ([1.74527, 52.5377, 54.2829

>  <frequency_value>  (4) 
unknown

>  <frequency_units>  (4) 
unknown

>  <frequency_list>  (4) 
unknown

>  <arkane_path>  (4) 
/home/calvin/Dropbox/PersonalFolders/Calvin/Kfir_HAb_Converged/kfir_rxn_13651/output/Species/CtC_CH2_/arkane/output.py

>  <path_exists>  (4) 
True

>  <E0_value>  (4) 
-303974.19358251785

>  <E0_units>  (4) 
kJ/mol

>  <thermo_class>  (4) 
NASA

>  <Cp0_value>  (4) 
33.257888

>  <Cp0_units>  (4) 
J/(mol*K)

>  <CpInf_value>  (4) 
133.031552

>  <CpInf_units>  (4) 
J/(mol*K)

>  <Tmin_value>  (4) 
10.0

>  <Tmin_units>  (4) 
K

>  <Tmax_value>  (4) 
3000.0

>  <Tmax_units>  (4) 
K

>  <polynomials>  (4) 
[{"name": "polynomial1", "class": "NASAPolynomial", "Tmin_value": 10.0, "Tmin_units": "K", "Tmax_value": 545.501025130927, "Tmax_units": "K", "coeffs": [3.9499372348707107, 0.003018645725890373, 5.565403418790293e-05, -1.1456121295578871e-07, 7.085113250655795e-11, -36559648.67312394, 5.464709235855503]}, {"name": "polynomial2", "class": "NASAPolynomial", "Tmin_value": 545.501025130927, "Tmin_units": "K", "Tmax_value": 3000.0, "Tmax_units": "K", "coeffs": [3.789878700165733, 0.015458571066094471, -9.532428379841963e-06, 2.965049912743031e-09, -3.618276714770435e-13, -36559798.83656636, 4.603456101464725]}]

>  <H298_value>  (4) 
-72648.3731274129

>  <H298_units>  (4) 
kcal/mol

>  <S298_value>  (4) 
60.54560432912814

>  <S298_units>  (4) 
cal/(mol*K)

>  <Cp_T_value_list>  (4) 
[14.596300922695397, 16.978518181989873, 18.840332844373627, 20.322972176190156, 22.70558764738115, 24.48088102379516, 27.23478892503335, 28.831313723929725, 29.74438376203547]

>  <Cp_T_units>  (4) 
cal/(mol*K)

>  <T_list>  (4) 
[300.0, 400.0, 500.0, 600.0, 800.0, 1000.0, 1500.0, 2000.0, 2400.0]

>  <T_units>  (4) 
K

>  <yaml_path>  (4) 
/home/calvin/Dropbox/PersonalFolders/Calvin/Kfir_HAb_Converged/kfir_rxn_13651/output/Species/CtC_CH2_/CtC_CH2_.yml

>  <frequencies_cm1>  (4) 
[355.94331707688, 407.51437683008004, 504.51054447508, 653.44172209524, 683.5053838262, 1024.2589293752399, 1075.37676809732, 1445.76135530216, 1997.3313501752, 3133.58394313432, 3230.4359040876, 3427.03082681388]

>  <ZPE_kJmol>  (4) 
107.29725110288972

>  <E_elec_kJmol>  (4) 
-304081.4908336207

>  <E0_minus_Eelec_plus_ZPE_kJmol>  (4) 
0.0

>  <rxn>  (4) 
kfir_rxn_13651

>  <species_type>  (4) 
p1

>  <species_folder>  (4) 
CtC_CH2_

>  <frequencies_cm1_list>  (4) 
[355.94331707688, 407.51437683008004, 504.51054447508, 653.44172209524, 683.5053838262, 1024.2589293752399, 1075.37676809732, 1445.76135530216, 1997.3313501752, 3133.58394313432, 3230.4359040876, 3427.03082681388]

>  <E0_kJmol>  (4) 
-303974

>  <H298_kJmol>  (4) 
-303961

$$$$

     RDKit          3D

  7  7  0  0  0  0  0  0  0  0999 V2000
    1.6410   -0.1736   -0.2133 O   0  0  0  0  0  0  0  0  0  1  0  0
    0.7709   -1.1009    0.0372 C   0  0  0  0  0  3  0  0  0  2  0  0
   -0.5127   -0.6809    0.0426 C   0  0  0  0  0  0  0  0  0  3  0  0
   -0.3286    0.6963   -0.2510 C   0  0  0  0  0  0  0  0  0  4  0  0
    0.9226    1.0285   -0.4073 N   0  0  0  0  0  0  0  0  0  5  0  0
   -1.4145   -1.2355    0.2195 H   0  0  0  0  0  0  0  0  0  6  0  0
   -1.0786    1.4661   -0.3546 H   0  0  0  0  0  0  0  0  0  7  0  0
  1  5  1  0
  1  2  1  0
  2  3  1  0
  3  4  1  0
  3  6  1  0
  4  5  1  0
  4  7  1  0
M  RAD  1   2   2
M  END
>  <rmg_smiles>  (5) 
[C]1[CH][CH][N]O1

>  <rmg_adjacency_list>  (5) 
multiplicity 2
1 O u0 p2 c0 {2,S} {5,S}
2 N u0 p1 c0 {1,S} {4,S}
3 C u0 p0 c0 {4,S} {5,S} {6,S}
4 C u0 p0 c0 {2,S} {3,S} {7,S}
5 C u1 p1 c0 {1,S} {3,S}
6 H u0 p0 c0 {3,S}
7 H u0 p0 c0 {4,S}


>  <multiplicity>  (5) 
2

>  <reaction>  (5) 
kfir_rxn_13651

>  <type>  (5) 
r2

>  <role_mapnums>  (5) 
{}

>  <role_mapidx>  (5) 
{}

>  <ordered_mapped_smiles>  (5) 
[O:1]1[CH:2][CH:3]([H:6])[CH:4]([H:7])[NH:5]1

>  <level_of_theory>  (5) 
wb97xd/def2tzvp

>  <lot_method>  (5) 
wb97xd

>  <lot_basis>  (5) 
def2tzvp

>  <spin_multiplicity>  (5) 
2.0

>  <optical_isomers>  (5) 
1.0

>  <modes>  (5) 
IdealGasTranslation(mass=(68.0136, 'amu')),         NonlinearRotor(             inertia = ([46.3248, 51.6295, 97.9542

>  <frequency_value>  (5) 
unknown

>  <frequency_units>  (5) 
unknown

>  <frequency_list>  (5) 
unknown

>  <arkane_path>  (5) 
/home/calvin/Dropbox/PersonalFolders/Calvin/Kfir_HAb_Converged/kfir_rxn_13651/output/Species/O1_C_=CC=N1/arkane/output.py

>  <path_exists>  (5) 
True

>  <E0_value>  (5) 
-643201.9887792664

>  <E0_units>  (5) 
kJ/mol

>  <thermo_class>  (5) 
NASA

>  <Cp0_value>  (5) 
33.257888

>  <Cp0_units>  (5) 
J/(mol*K)

>  <CpInf_value>  (5) 
157.97496800000002

>  <CpInf_units>  (5) 
J/(mol*K)

>  <Tmin_value>  (5) 
10.0

>  <Tmin_units>  (5) 
K

>  <Tmax_value>  (5) 
3000.0

>  <Tmax_units>  (5) 
K

>  <polynomials>  (5) 
[{"name": "polynomial1", "class": "NASAPolynomial", "Tmin_value": 10.0, "Tmin_units": "K", "Tmax_value": 652.2510040217085, "Tmax_units": "K", "coeffs": [4.175183366860139, -0.013905920248177335, 0.00012855208045801946, -1.9730289938048125e-07, 9.740515044708372e-11, -77359331.76763916, 9.289480666520937]}, {"name": "polynomial2", "class": "NASAPolynomial", "Tmin_value": 652.2510040217085, "Tmin_units": "K", "Tmax_value": 3000.0, "Tmax_units": "K", "coeffs": [1.0969970678574774, 0.027465867406147197, -1.832296541136739e-05, 5.692803706013163e-09, -6.668395031755123e-13, -77359408.71041723, 19.156550519368967]}]

>  <H298_value>  (5) 
-153726.1500754308

>  <H298_units>  (5) 
kcal/mol

>  <S298_value>  (5) 
65.75961606658838

>  <S298_units>  (5) 
cal/(mol*K)

>  <Cp_T_value_list>  (5) 
[13.979794977513565, 17.978921799527814, 21.43242519312514, 24.07830833297382, 27.790230735107546, 30.336422723857535, 33.59663422400275, 34.99444383668587, 35.86506756593032]

>  <Cp_T_units>  (5) 
cal/(mol*K)

>  <T_list>  (5) 
[300.0, 400.0, 500.0, 600.0, 800.0, 1000.0, 1500.0, 2000.0, 2400.0]

>  <T_units>  (5) 
K

>  <yaml_path>  (5) 
/home/calvin/Dropbox/PersonalFolders/Calvin/Kfir_HAb_Converged/kfir_rxn_13651/output/Species/O1_C_=CC=N1/O1_C_=CC=N1.yml

>  <frequencies_cm1>  (5) 
[581.70919344252, 637.8742663748, 778.1118405798398, 795.0458263789599, 888.1827482741201, 903.1459092864, 923.7880671583199, 1024.35506716972, 1146.0105790988398, 1237.64363120892, 1359.8485019636398, 1413.9534792999198, 1584.5911975166, 3218.19206926204, 3280.7365715565998]

>  <ZPE_kJmol>  (5) 
118.26996825375764

>  <E_elec_kJmol>  (5) 
-643320.2587475202

>  <E0_minus_Eelec_plus_ZPE_kJmol>  (5) 
0.0

>  <rxn>  (5) 
kfir_rxn_13651

>  <species_type>  (5) 
r0

>  <species_folder>  (5) 
O1_C_=CC=N1

>  <frequencies_cm1_list>  (5) 
[581.70919344252, 637.8742663748, 778.1118405798398, 795.0458263789599, 888.1827482741201, 903.1459092864, 923.7880671583199, 1024.35506716972, 1146.0105790988398, 1237.64363120892, 1359.8485019636398, 1413.9534792999198, 1584.5911975166, 3218.19206926204, 3280.7365715565998]

>  <E0_kJmol>  (5) 
-643202

>  <H298_kJmol>  (5) 
-643190

$$$$
