
     RDKit          3D

  4  3  0  0  0  0  0  0  0  0999 V2000
   -0.0811   -0.0263   -0.0376 N   0  0  0  0  0  0  0  0  0  1  0  0
    0.1344    0.7465    0.5970 H   0  0  0  0  0  0  0  0  0  2  0  0
    0.5991    0.1602   -0.7789 H   0  0  0  0  0  0  0  0  0  3  0  0
    0.3180   -0.8100    0.4844 H   0  0  0  0  0  0  0  0  0  4  0  0
  1  3  1  0
  1  2  1  0
  1  4  1  0
M  END
>  <rmg_smiles>  (1) 
N

>  <rmg_adjacency_list>  (1) 
1 N u0 p1 c0 {2,S} {3,S} {4,S}
2 H u0 p0 c0 {1,S}
3 H u0 p0 c0 {1,S}
4 H u0 p0 c0 {1,S}


>  <multiplicity>  (1) 
1

>  <reaction>  (1) 
kfir_rxn_9652

>  <type>  (1) 
r1h

>  <role_mapnums>  (1) 
{"r1h_a": 1, "r1h_h": 2}

>  <role_mapidx>  (1) 
{"r1h_a": 0, "r1h_h": 1}

>  <ordered_mapped_smiles>  (1) 
[N:1]([H:2])([H:3])[H:4]

>  <mol_properties>  (1) 
{"0": {"label": "donator", "atom_type": "N3s"}, "1": {"label": "d_hydrogen", "atom_type": "H0"}}

>  <level_of_theory>  (1) 
wb97xd/def2tzvp

>  <lot_method>  (1) 
wb97xd

>  <lot_basis>  (1) 
def2tzvp

>  <spin_multiplicity>  (1) 
1.0

>  <optical_isomers>  (1) 
1.0

>  <modes>  (1) 
IdealGasTranslation(mass=(17.0266, 'amu')),         NonlinearRotor(             inertia = ([1.67808, 1.67808, 2.6816

>  <frequency_value>  (1) 
unknown

>  <frequency_units>  (1) 
unknown

>  <frequency_list>  (1) 
unknown

>  <arkane_path>  (1) 
/home/calvin/Dropbox/PersonalFolders/Calvin/Kfir_HAb_Converged/kfir_rxn_9652/output/Species/N/arkane/output.py

>  <path_exists>  (1) 
True

>  <E0_value>  (1) 
-148421.26364268985

>  <E0_units>  (1) 
kJ/mol

>  <thermo_class>  (1) 
NASA

>  <Cp0_value>  (1) 
33.257888

>  <Cp0_units>  (1) 
J/(mol*K)

>  <CpInf_value>  (1) 
83.14472

>  <CpInf_units>  (1) 
J/(mol*K)

>  <Tmin_value>  (1) 
10.0

>  <Tmin_units>  (1) 
K

>  <Tmax_value>  (1) 
3000.0

>  <Tmax_units>  (1) 
K

>  <polynomials>  (1) 
[{"name": "polynomial1", "class": "NASAPolynomial", "Tmin_value": 10.0, "Tmin_units": "K", "Tmax_value": 661.0840282867927, "Tmax_units": "K", "coeffs": [4.018066180041628, -0.0010594558724668145, 7.006951846844162e-06, -1.9450178277231155e-09, -1.690259773259874e-12, -17850955.574752882, 0.26302757549391453]}, {"name": "polynomial2", "class": "NASAPolynomial", "Tmin_value": 661.0840282867927, "Tmin_units": "K", "Tmax_value": 3000.0, "Tmax_units": "K", "coeffs": [2.4516463520951244, 0.005556487715444479, -1.5108778746433696e-06, 9.615490736155179e-11, 1.429454369866963e-14, -17850685.929684434, 7.644792990222567]}]

>  <H298_value>  (1) 
-35471.13537017315

>  <H298_units>  (1) 
kcal/mol

>  <S298_value>  (1) 
45.96257860853203

>  <S298_units>  (1) 
cal/(mol*K)

>  <Cp_T_value_list>  (1) 
[8.474737221516332, 9.037108387303435, 9.720038541539097, 10.464060703527908, 11.893353491320577, 13.130875612074071, 15.468001363271904, 16.9291358703087, 17.662419363748025]

>  <Cp_T_units>  (1) 
cal/(mol*K)

>  <T_list>  (1) 
[300.0, 400.0, 500.0, 600.0, 800.0, 1000.0, 1500.0, 2000.0, 2400.0]

>  <T_units>  (1) 
K

>  <yaml_path>  (1) 
/home/calvin/Dropbox/PersonalFolders/Calvin/Kfir_HAb_Converged/kfir_rxn_9652/output/Species/N/N.yml

>  <frequencies_cm1>  (1) 
[1006.65197901476, 1653.7074047623996, 1654.02328608712, 3472.52460455888, 3599.6737047439997, 3600.5252109236794]

>  <ZPE_kJmol>  (1) 
89.64282786797604

>  <E_elec_kJmol>  (1) 
-148510.90647055782

>  <E0_minus_Eelec_plus_ZPE_kJmol>  (1) 
0.0

>  <rxn>  (1) 
kfir_rxn_9652

>  <species_type>  (1) 
r1

>  <species_folder>  (1) 
N

>  <frequencies_cm1_list>  (1) 
[1006.65197901476, 1653.7074047623996, 1654.02328608712, 3472.52460455888, 3599.6737047439997, 3600.5252109236794]

>  <E0_kJmol>  (1) 
-148421

>  <H298_kJmol>  (1) 
-148411

$$$$

     RDKit          3D

  7  6  0  0  0  0  0  0  0  0999 V2000
   -1.1102   -0.4446    1.0952 O   0  0  0  0  0  0  0  0  0  1  0  0
    0.0311   -0.7500    0.3800 C   0  0  0  0  0  0  0  0  0  2  0  0
    0.5215    0.3066   -0.4938 C   0  0  0  0  0  2  0  0  0  3  0  0
    0.8835    1.1030   -1.2381 N   0  0  0  0  0  0  0  0  0  4  0  0
   -1.8151   -0.2051    0.4878 H   0  0  0  0  0  0  0  0  0  5  0  0
    0.8046   -1.0874    1.0665 H   0  0  0  0  0  0  0  0  0  6  0  0
   -0.1935   -1.5803   -0.2858 H   0  0  0  0  0  0  0  0  0  7  0  0
  1  5  1  0
  1  2  1  0
  2  7  1  0
  2  6  1  0
  2  3  1  0
  3  4  1  0
M  RAD  1   3   3
M  END
>  <rmg_smiles>  (2) 
[N][C]CO

>  <rmg_adjacency_list>  (2) 
1 O u0 p2 c0 {3,S} {7,S}
2 N u0 p2 c0 {4,S}
3 C u0 p0 c0 {1,S} {4,S} {5,S} {6,S}
4 C u0 p1 c0 {2,S} {3,S}
5 H u0 p0 c0 {3,S}
6 H u0 p0 c0 {3,S}
7 H u0 p0 c0 {1,S}


>  <multiplicity>  (2) 
1

>  <reaction>  (2) 
kfir_rxn_9652

>  <type>  (2) 
r2h

>  <role_mapnums>  (2) 
{"r2h_a": 2, "r2h_h": 7}

>  <role_mapidx>  (2) 
{"r2h_a": 1, "r2h_h": 6}

>  <ordered_mapped_smiles>  (2) 
[O:1]([C:2]([C:3][NH2:4])([H:6])[H:7])[H:5]

>  <mol_properties>  (2) 
{"1": {"label": "acceptor", "atom_type": "Cs"}, "6": {"label": "a_hydrogen", "atom_type": "H0"}}

>  <level_of_theory>  (2) 
wb97xd/def2tzvp

>  <lot_method>  (2) 
wb97xd

>  <lot_basis>  (2) 
def2tzvp

>  <spin_multiplicity>  (2) 
1.0

>  <optical_isomers>  (2) 
2.0

>  <modes>  (2) 
IdealGasTranslation(mass=(57.0215, 'amu')),         NonlinearRotor(             inertia = ([14.7791, 103.904, 114.462

>  <frequency_value>  (2) 
unknown

>  <frequency_units>  (2) 
unknown

>  <frequency_list>  (2) 
unknown

>  <arkane_path>  (2) 
/home/calvin/Dropbox/PersonalFolders/Calvin/Kfir_HAb_Converged/kfir_rxn_9652/output/Species/OCCtN/arkane/output.py

>  <path_exists>  (2) 
True

>  <E0_value>  (2) 
-545896.9404815827

>  <E0_units>  (2) 
kJ/mol

>  <thermo_class>  (2) 
NASA

>  <Cp0_value>  (2) 
33.257888

>  <Cp0_units>  (2) 
J/(mol*K)

>  <CpInf_value>  (2) 
153.817732

>  <CpInf_units>  (2) 
J/(mol*K)

>  <Tmin_value>  (2) 
10.0

>  <Tmin_units>  (2) 
K

>  <Tmax_value>  (2) 
3000.0

>  <Tmax_units>  (2) 
K

>  <polynomials>  (2) 
[{"name": "polynomial1", "class": "NASAPolynomial", "Tmin_value": 10.0, "Tmin_units": "K", "Tmax_value": 332.2575504632808, "Tmax_units": "K", "coeffs": [3.942687154308257, 0.004659197116581881, 9.174825731730119e-05, -2.832060638723386e-07, 2.759140226973854e-10, -65656237.91854591, 9.427383269625023]}, {"name": "polynomial2", "class": "NASAPolynomial", "Tmin_value": 332.2575504632808, "Tmin_units": "K", "Tmax_value": 3000.0, "Tmax_units": "K", "coeffs": [3.5442600548524266, 0.018389529812021906, -1.0570229565889055e-05, 3.018531543993337e-09, -3.397775147983283e-13, -65656260.75443976, 10.168484284142737]}]

>  <H298_value>  (2) 
-130469.00044782208

>  <H298_units>  (2) 
kcal/mol

>  <S298_value>  (2) 
70.3416368379696

>  <S298_units>  (2) 
cal/(mol*K)

>  <Cp_T_value_list>  (2) 
[16.267529376806507, 18.666472458757337, 20.771371173638357, 22.61572739134183, 25.62950354103469, 27.904978325402183, 31.423614013902945, 33.29408204624171, 34.278888654620644]

>  <Cp_T_units>  (2) 
cal/(mol*K)

>  <T_list>  (2) 
[300.0, 400.0, 500.0, 600.0, 800.0, 1000.0, 1500.0, 2000.0, 2400.0]

>  <T_units>  (2) 
K

>  <yaml_path>  (2) 
/home/calvin/Dropbox/PersonalFolders/Calvin/Kfir_HAb_Converged/kfir_rxn_9652/output/Species/OCCtN/OCCtN.yml

>  <frequencies_cm1>  (2) 
[234.92076160477288, 362.149180661042, 587.3140681705061, 893.0836166314298, 985.4430337051184, 1102.383845597593, 1221.3665598786372, 1363.0483426466053, 1405.526862374445, 1474.9160260540098, 2362.6274912627537, 3007.900731721513, 3091.279232681576, 3838.7364016152746]

>  <ZPE_kJmol>  (2) 
131.1747308304252

>  <E_elec_kJmol>  (2) 
-546028.1152124131

>  <E0_minus_Eelec_plus_ZPE_kJmol>  (2) 
0.0

>  <rxn>  (2) 
kfir_rxn_9652

>  <species_type>  (2) 
p0

>  <species_folder>  (2) 
OCCtN

>  <frequencies_cm1_list>  (2) 
[234.92076160477288, 362.149180661042, 587.3140681705061, 893.0836166314298, 985.4430337051184, 1102.383845597593, 1221.3665598786372, 1363.0483426466053, 1405.526862374445, 1474.9160260540098, 2362.6274912627537, 3007.900731721513, 3091.279232681576, 3838.7364016152746]

>  <E0_kJmol>  (2) 
-545897

>  <H298_kJmol>  (2) 
-545882

$$$$

     RDKit          3D

 10  8  0  0  0  0  0  0  0  0999 V2000
   -1.1897    0.1028    1.4132 O   0  0  0  0  0  0  0  0  0  1  0  0
   -0.0484   -0.2026    0.6980 C   0  0  0  0  0  0  0  0  0  2  0  0
    0.4420    0.8539   -0.1759 C   0  0  0  0  0  0  0  0  0  3  0  0
    0.8040    1.6504   -0.9201 N   0  0  0  0  0  0  0  0  0  4  0  0
   -1.8946    0.3423    0.8057 H   0  0  0  0  0  0  0  0  0  5  0  0
    0.7251   -0.5400    1.3844 H   0  0  0  0  0  0  0  0  0  6  0  0
   -0.5951   -2.1919   -0.9172 N   0  0  0  0  0  2  0  0  0  7  0  0
   -0.3048   -1.1504   -0.0620 H   0  0  0  0  0  0  0  0  0  8  0  0
    0.0850   -2.0054   -1.6585 H   0  0  0  0  0  0  0  0  0  9  0  0
   -0.1961   -2.9756   -0.3952 H   0  0  0  0  0  0  0  0  0 10  0  0
  1  5  1  0
  1  2  1  0
  2  8  1  0
  2  6  1  0
  2  3  1  0
  3  4  1  0
  7  9  1  0
  7 10  1  0
M  RAD  1   7   2
M  END
>  <rmg_smiles>  (3) 
[N][C]CO.[NH2]

>  <rmg_adjacency_list>  (3) 
multiplicity 2
1  O u0 p2 c0 {4,S} {8,S}
2  N u1 p1 c0 {9,S} {10,S}
3  N u0 p2 c0 {5,S}
4  C u0 p0 c0 {1,S} {5,S} {6,S} {7,S}
5  C u0 p1 c0 {3,S} {4,S}
6  H u0 p0 c0 {4,S}
7  H u0 p0 c0 {4,S}
8  H u0 p0 c0 {1,S}
9  H u0 p0 c0 {2,S}
10 H u0 p0 c0 {2,S}


>  <multiplicity>  (3) 
2

>  <reaction>  (3) 
kfir_rxn_9652

>  <type>  (3) 
ts

>  <role_mapnums>  (3) 
{"*2": 8, "*1": 7, "*3": 2, "*0": 3, "*4": 9}

>  <role_mapidx>  (3) 
{"*2": 7, "*1": 6, "*3": 1, "*0": 2, "*4": 8}

>  <ordered_mapped_smiles>  (3) 
[O:1]([C:2]([CH2:3][NH2:4])([H:6])[H:8])[H:5].[N:7]([H:9])[H:10]

>  <mol_properties>  (3) 
{"1": {"label": "*3", "atom_type": "Cs"}, "2": {"label": "*0", "atom_type": "C2s"}, "6": {"label": "*1", "atom_type": "N3s"}, "7": {"label": "*2", "atom_type": "H0"}, "8": {"label": "*4", "atom_type": "H0"}}

>  <level_of_theory>  (3) 
wb97xd/def2tzvp

>  <lot_method>  (3) 
wb97xd

>  <lot_basis>  (3) 
def2tzvp

>  <spin_multiplicity>  (3) 
2.0

>  <optical_isomers>  (3) 
2.0

>  <modes>  (3) 
IdealGasTranslation(mass=(73.0402, 'amu')),         NonlinearRotor(             inertia = ([93.7437, 152.279, 228.885

>  <frequency_value>  (3) 
-1510.31

>  <frequency_units>  (3) 
cm^-1

>  <frequency_list>  (3) 
unknown

>  <arkane_path>  (3) 
/home/calvin/Dropbox/PersonalFolders/Calvin/Kfir_HAb_Converged/kfir_rxn_9652/output/rxns/TS0/arkane/output.py

>  <path_exists>  (3) 
True

>  <E0_value>  (3) 
-692546.0

>  <E0_units>  (3) 
kJ/mol

>  <thermo_class>  (3) 
unknown

>  <Cp0_value>  (3) 
unknown

>  <Cp0_units>  (3) 
unknown

>  <CpInf_value>  (3) 
unknown

>  <CpInf_units>  (3) 
unknown

>  <Tmin_value>  (3) 
unknown

>  <Tmin_units>  (3) 
unknown

>  <Tmax_value>  (3) 
unknown

>  <Tmax_units>  (3) 
unknown

>  <polynomials>  (3) 
unknown

>  <H298_value>  (3) 
unknown

>  <H298_units>  (3) 
unknown

>  <S298_value>  (3) 
unknown

>  <S298_units>  (3) 
unknown

>  <Cp_T_value_list>  (3) 
unknown

>  <Cp_T_units>  (3) 
unknown

>  <T_list>  (3) 
unknown

>  <T_units>  (3) 
unknown

>  <yaml_path>  (3) 
unknown

>  <frequencies_cm1>  (3) 
unknown

>  <ZPE_kJmol>  (3) 
unknown

>  <E_elec_kJmol>  (3) 
unknown

>  <E0_minus_Eelec_plus_ZPE_kJmol>  (3) 
unknown

>  <rxn>  (3) 
unknown

>  <species_type>  (3) 
unknown

>  <species_folder>  (3) 
unknown

>  <frequencies_cm1_list>  (3) 
[]

>  <ts_imag_freq_cm1>  (3) 
-1528.6542

>  <ts_freq_out_path>  (3) 
/home/calvin/Dropbox/PersonalFolders/Calvin/Kfir_HAb_Converged/kfir_rxn_9652/output/rxns/TS0/geometry/freq.out

>  <E0_kJmol>  (3) 
-692546

>  <H298_kJmol>  (3) 
unknown

$$$$

     RDKit          3D

  3  2  0  0  0  0  0  0  0  0999 V2000
    0.0002    0.4233    0.0000 N   0  0  0  0  0  2  0  0  0  1  0  0
   -0.8051   -0.2112    0.0000 H   0  0  0  0  0  0  0  0  0  2  0  0
    0.8049   -0.2121    0.0000 H   0  0  0  0  0  0  0  0  0  3  0  0
  1  3  1  0
  1  2  1  0
M  RAD  1   1   2
M  END
>  <rmg_smiles>  (4) 
[NH2]

>  <rmg_adjacency_list>  (4) 
multiplicity 2
1 N u1 p1 c0 {2,S} {3,S}
2 H u0 p0 c0 {1,S}
3 H u0 p0 c0 {1,S}


>  <multiplicity>  (4) 
2

>  <reaction>  (4) 
kfir_rxn_9652

>  <type>  (4) 
r1

>  <role_mapnums>  (4) 
{}

>  <role_mapidx>  (4) 
{}

>  <ordered_mapped_smiles>  (4) 
[N:1]([H:2])[H:3]

>  <level_of_theory>  (4) 
wb97xd/def2tzvp

>  <lot_method>  (4) 
wb97xd

>  <lot_basis>  (4) 
def2tzvp

>  <spin_multiplicity>  (4) 
2.0

>  <optical_isomers>  (4) 
1.0

>  <modes>  (4) 
IdealGasTranslation(mass=(16.0187, 'amu')),         NonlinearRotor(             inertia = ([0.710442, 1.30616, 2.0166

>  <frequency_value>  (4) 
unknown

>  <frequency_units>  (4) 
unknown

>  <frequency_list>  (4) 
unknown

>  <arkane_path>  (4) 
/home/calvin/Dropbox/PersonalFolders/Calvin/Kfir_HAb_Converged/kfir_rxn_9652/output/Species/_NH2_/arkane/output.py

>  <path_exists>  (4) 
True

>  <E0_value>  (4) 
-146665.82219964213

>  <E0_units>  (4) 
kJ/mol

>  <thermo_class>  (4) 
NASA

>  <Cp0_value>  (4) 
33.257888

>  <Cp0_units>  (4) 
J/(mol*K)

>  <CpInf_value>  (4) 
58.201304

>  <CpInf_units>  (4) 
J/(mol*K)

>  <Tmin_value>  (4) 
10.0

>  <Tmin_units>  (4) 
K

>  <Tmax_value>  (4) 
3000.0

>  <Tmax_units>  (4) 
K

>  <polynomials>  (4) 
[{"name": "polynomial1", "class": "NASAPolynomial", "Tmin_value": 10.0, "Tmin_units": "K", "Tmax_value": 785.7865750647027, "Tmax_units": "K", "coeffs": [4.006151608375513, -0.0003084801043868945, 1.192087457245553e-06, 1.4831713626345916e-09, -1.3499457570330705e-12, -17639824.212463364, 0.5976382433244958]}, {"name": "polynomial2", "class": "NASAPolynomial", "Tmin_value": 785.7865750647027, "Tmin_units": "K", "Tmax_value": 3000.0, "Tmax_units": "K", "coeffs": [3.2706173092735047, 0.0018201245801067914, 2.127841353634995e-07, -3.024868389204131e-10, 5.0613927895422387e-14, -17639658.73974233, 4.2862278156336115]}]

>  <H298_value>  (4) 
-35051.60272998558

>  <H298_units>  (4) 
kcal/mol

>  <S298_value>  (4) 
46.48569697774424

>  <S298_units>  (4) 
cal/(mol*K)

>  <Cp_T_value_list>  (4) 
[8.048199274271719, 8.214829323925944, 8.44753183195203, 8.73501869836254, 9.397016698203402, 10.038677908156746, 11.356703149918278, 12.225157566575335, 12.64305192781627]

>  <Cp_T_units>  (4) 
cal/(mol*K)

>  <T_list>  (4) 
[300.0, 400.0, 500.0, 600.0, 800.0, 1000.0, 1500.0, 2000.0, 2400.0]

>  <T_units>  (4) 
K

>  <yaml_path>  (4) 
/home/calvin/Dropbox/PersonalFolders/Calvin/Kfir_HAb_Converged/kfir_rxn_9652/output/Species/_NH2_/_NH2_.yml

>  <frequencies_cm1>  (4) 
[1514.64408504708, 3360.6064778135196, 3454.89705324244]

>  <ZPE_kJmol>  (4) 
49.8253618406256

>  <E_elec_kJmol>  (4) 
-146715.64756148277

>  <E0_minus_Eelec_plus_ZPE_kJmol>  (4) 
0.0

>  <rxn>  (4) 
kfir_rxn_9652

>  <species_type>  (4) 
p1

>  <species_folder>  (4) 
_NH2_

>  <frequencies_cm1_list>  (4) 
[1514.64408504708, 3360.6064778135196, 3454.89705324244]

>  <E0_kJmol>  (4) 
-146666

>  <H298_kJmol>  (4) 
-146656

$$$$

     RDKit          3D

  6  5  0  0  0  0  0  0  0  0999 V2000
   -1.3694    0.1235    0.0213 O   0  0  0  0  0  0  0  0  0  1  0  0
   -0.0928    0.5362    0.0705 C   0  0  0  0  0  0  0  0  0  2  0  0
    0.9758   -0.3386   -0.0479 C   0  0  0  0  0  0  0  0  0  3  0  0
    1.8567   -1.0882   -0.1493 N   0  0  0  0  0  2  0  0  0  4  0  0
   -1.4112   -0.8292   -0.1032 H   0  0  0  0  0  0  0  0  0  5  0  0
    0.0408    1.5963    0.2086 H   0  0  0  0  0  0  0  0  0  6  0  0
  1  5  1  0
  1  2  1  0
  2  6  1  0
  2  3  1  0
  3  4  1  0
M  RAD  1   4   2
M  END
>  <rmg_smiles>  (5) 
[N][C][CH]O

>  <rmg_adjacency_list>  (5) 
multiplicity 2
1 O u0 p2 c0 {3,S} {6,S}
2 N u1 p2 c0 {4,S}
3 C u0 p0 c0 {1,S} {4,S} {5,S}
4 C u0 p1 c0 {2,S} {3,S}
5 H u0 p0 c0 {3,S}
6 H u0 p0 c0 {1,S}


>  <multiplicity>  (5) 
2

>  <reaction>  (5) 
kfir_rxn_9652

>  <type>  (5) 
r2

>  <role_mapnums>  (5) 
{}

>  <role_mapidx>  (5) 
{}

>  <ordered_mapped_smiles>  (5) 
[O:1]([CH:2]([CH2:3][NH:4])[H:6])[H:5]

>  <level_of_theory>  (5) 
wb97xd/def2tzvp

>  <lot_method>  (5) 
wb97xd

>  <lot_basis>  (5) 
def2tzvp

>  <spin_multiplicity>  (5) 
2.0

>  <optical_isomers>  (5) 
1.0

>  <modes>  (5) 
IdealGasTranslation(mass=(56.0136, 'amu')),         NonlinearRotor(             inertia = ([10.2623, 101.896, 112.158

>  <frequency_value>  (5) 
unknown

>  <frequency_units>  (5) 
unknown

>  <frequency_list>  (5) 
unknown

>  <arkane_path>  (5) 
/home/calvin/Dropbox/PersonalFolders/Calvin/Kfir_HAb_Converged/kfir_rxn_9652/output/Species/O_CH_CtN/arkane/output.py

>  <path_exists>  (5) 
True

>  <E0_value>  (5) 
-544236.0143678144

>  <E0_units>  (5) 
kJ/mol

>  <thermo_class>  (5) 
NASA

>  <Cp0_value>  (5) 
33.257888

>  <Cp0_units>  (5) 
J/(mol*K)

>  <CpInf_value>  (5) 
128.874316

>  <CpInf_units>  (5) 
J/(mol*K)

>  <Tmin_value>  (5) 
10.0

>  <Tmin_units>  (5) 
K

>  <Tmax_value>  (5) 
3000.0

>  <Tmax_units>  (5) 
K

>  <polynomials>  (5) 
[{"name": "polynomial1", "class": "NASAPolynomial", "Tmin_value": 10.0, "Tmin_units": "K", "Tmax_value": 496.37765690090055, "Tmax_units": "K", "coeffs": [3.909387542927478, 0.005884538439362413, 7.23824296957536e-05, -1.8105256868008206e-07, 1.2945543088173087e-10, -65456470.717331804, 8.445498194658155]}, {"name": "polynomial2", "class": "NASAPolynomial", "Tmin_value": 496.37765690090055, "Tmin_units": "K", "Tmax_value": 3000.0, "Tmax_units": "K", "coeffs": [5.014310994115979, 0.015089377211788789, -1.0156250347023706e-05, 3.2980944583299117e-09, -4.0871687249610143e-13, -65456803.50042677, 1.6415972574235622]}]

>  <H298_value>  (5) 
-130072.00941377992

>  <H298_units>  (5) 
kcal/mol

>  <S298_value>  (5) 
68.24720401323832

>  <S298_units>  (5) 
cal/(mol*K)

>  <Cp_T_value_list>  (5) 
[16.59185752643869, 19.0197249265868, 20.680170513824475, 22.00057360251642, 24.059161714675145, 25.50940310331007, 27.540204376381507, 28.642302296528946, 29.33400406855792]

>  <Cp_T_units>  (5) 
cal/(mol*K)

>  <T_list>  (5) 
[300.0, 400.0, 500.0, 600.0, 800.0, 1000.0, 1500.0, 2000.0, 2400.0]

>  <T_units>  (5) 
K

>  <yaml_path>  (5) 
/home/calvin/Dropbox/PersonalFolders/Calvin/Kfir_HAb_Converged/kfir_rxn_9652/output/Species/O_CH_CtN/O_CH_CtN.yml

>  <frequencies_cm1>  (5) 
[229.1707047208569, 427.079645343693, 534.6717441319535, 628.5553237792923, 974.4003402915499, 1204.0641924443821, 1336.9862453626856, 1452.6366740691292, 2184.6781775435984, 3231.948404793271, 3814.0843254073598]

>  <ZPE_kJmol>  (5) 
95.81059345855346

>  <E_elec_kJmol>  (5) 
-544331.824961273

>  <E0_minus_Eelec_plus_ZPE_kJmol>  (5) 
0.0

>  <rxn>  (5) 
kfir_rxn_9652

>  <species_type>  (5) 
r0

>  <species_folder>  (5) 
O_CH_CtN

>  <frequencies_cm1_list>  (5) 
[229.1707047208569, 427.079645343693, 534.6717441319535, 628.5553237792923, 974.4003402915499, 1204.0641924443821, 1336.9862453626856, 1452.6366740691292, 2184.6781775435984, 3231.948404793271, 3814.0843254073598]

>  <E0_kJmol>  (5) 
-544236

>  <H298_kJmol>  (5) 
-544221

$$$$
