
     RDKit          3D

  6  5  0  0  0  0  0  0  0  0999 V2000
    1.4083   -0.6848   -0.7267 O   0  0  0  0  0  0  0  0  0  1  0  0
    0.4149   -0.6558   -0.0766 C   0  0  0  0  0  0  0  0  0  2  0  0
   -0.4355    0.6317    0.0544 C   0  0  0  0  0  0  0  0  0  3  0  0
   -1.3900    0.6996    0.7501 O   0  0  0  0  0  0  0  0  0  4  0  0
    0.0102   -1.5150    0.4897 H   0  0  0  0  0  0  0  0  0  5  0  0
   -0.0902    1.4800   -0.5365 H   0  0  0  0  0  0  0  0  0  6  0  0
  1  2  1  0
  2  5  1  0
  2  3  1  0
  3  4  1  0
  3  6  1  0
M  END
>  <rmg_smiles>  (1) 
O[CH][CH]O

>  <rmg_adjacency_list>  (1) 
1 O u0 p2 c0 {3,S}
2 O u0 p2 c0 {4,S}
3 C u0 p0 c0 {1,S} {4,S} {5,S}
4 C u0 p0 c0 {2,S} {3,S} {6,S}
5 H u0 p0 c0 {3,S}
6 H u0 p0 c0 {4,S}


>  <multiplicity>  (1) 
1

>  <reaction>  (1) 
kfir_rxn_11197

>  <type>  (1) 
r1h

>  <role_mapnums>  (1) 
{"r1h_a": 3, "r1h_h": 6}

>  <role_mapidx>  (1) 
{"r1h_a": 2, "r1h_h": 5}

>  <ordered_mapped_smiles>  (1) 
[OH:1][CH:2]([CH:3]([OH:4])[H:6])[H:5]

>  <mol_properties>  (1) 
{"2": {"label": "donator", "atom_type": "Cs"}, "5": {"label": "d_hydrogen", "atom_type": "H0"}}

>  <level_of_theory>  (1) 
wb97xd/def2tzvp

>  <lot_method>  (1) 
wb97xd

>  <lot_basis>  (1) 
def2tzvp

>  <spin_multiplicity>  (1) 
1.0

>  <optical_isomers>  (1) 
1.0

>  <modes>  (1) 
IdealGasTranslation(mass=(58.0055, 'amu')),         NonlinearRotor(             inertia = ([9.00654, 104.833, 113.839

>  <frequency_value>  (1) 
unknown

>  <frequency_units>  (1) 
unknown

>  <frequency_list>  (1) 
unknown

>  <arkane_path>  (1) 
/home/calvin/Dropbox/PersonalFolders/Calvin/Kfir_HAb_Converged/kfir_rxn_11197/output/Species/O=CC=O/arkane/output.py

>  <path_exists>  (1) 
True

>  <E0_value>  (1) 
-597396.217112317

>  <E0_units>  (1) 
kJ/mol

>  <thermo_class>  (1) 
NASA

>  <Cp0_value>  (1) 
33.257888

>  <Cp0_units>  (1) 
J/(mol*K)

>  <CpInf_value>  (1) 
128.874316

>  <CpInf_units>  (1) 
J/(mol*K)

>  <Tmin_value>  (1) 
10.0

>  <Tmin_units>  (1) 
K

>  <Tmax_value>  (1) 
3000.0

>  <Tmax_units>  (1) 
K

>  <polynomials>  (1) 
[{"name": "polynomial1", "class": "NASAPolynomial", "Tmin_value": 10.0, "Tmin_units": "K", "Tmax_value": 503.21676533797097, "Tmax_units": "K", "coeffs": [3.973256228115148, 0.0016416180626844198, 5.87348639526756e-05, -1.1131828571844233e-07, 6.630659174407259e-11, -71850167.79915367, 7.584882413465984]}, {"name": "polynomial2", "class": "NASAPolynomial", "Tmin_value": 503.21676533797097, "Tmin_units": "K", "Tmax_value": 3000.0, "Tmax_units": "K", "coeffs": [2.057969101258013, 0.021579025248561052, -1.4743799861846688e-05, 4.638966425631611e-09, -5.479109456057987e-13, -71850034.71191964, 14.916820117583612]}]

>  <H298_value>  (1) 
-142777.96738472232

>  <H298_units>  (1) 
kcal/mol

>  <S298_value>  (1) 
64.51825108164735

>  <S298_units>  (1) 
cal/(mol*K)

>  <Cp_T_value_list>  (1) 
[14.473558387400944, 17.091089038535173, 19.290126523239767, 21.121270290741545, 23.917786681406575, 25.80238594644404, 28.090494940452217, 28.985347177240936, 29.557797275234297]

>  <Cp_T_units>  (1) 
cal/(mol*K)

>  <T_list>  (1) 
[300.0, 400.0, 500.0, 600.0, 800.0, 1000.0, 1500.0, 2000.0, 2400.0]

>  <T_units>  (1) 
K

>  <yaml_path>  (1) 
/home/calvin/Dropbox/PersonalFolders/Calvin/Kfir_HAb_Converged/kfir_rxn_11197/output/Species/O=CC=O/O=CC=O.yml

>  <frequencies_cm1>  (1) 
[337.21583288738253, 552.3298334828291, 805.8016136022311, 1067.1241065729528, 1076.9619207351368, 1328.3155010534135, 1371.5113591574732, 1822.0296702068383, 1831.951191271215, 2925.7307479390083, 2930.451813063605]

>  <ZPE_kJmol>  (1) 
95.99689880140777

>  <E_elec_kJmol>  (1) 
-597492.2140111184

>  <E0_minus_Eelec_plus_ZPE_kJmol>  (1) 
0.0

>  <rxn>  (1) 
kfir_rxn_11197

>  <species_type>  (1) 
r1

>  <species_folder>  (1) 
O=CC=O

>  <frequencies_cm1_list>  (1) 
[337.21583288738253, 552.3298334828291, 805.8016136022311, 1067.1241065729528, 1076.9619207351368, 1328.3155010534135, 1371.5113591574732, 1822.0296702068383, 1831.951191271215, 2925.7307479390083, 2930.451813063605]

>  <E0_kJmol>  (1) 
-597396

>  <H298_kJmol>  (1) 
-597383

$$$$

     RDKit          3D

  7  6  0  0  0  0  0  0  0  0999 V2000
    1.5101   -0.0980    0.5310 O   0  0  0  0  0  0  0  0  0  1  0  0
    0.2575    0.4424    0.6907 C   0  0  0  0  0  0  0  0  0  2  0  0
   -0.7078    0.0281   -0.3483 C   0  0  0  0  0  2  0  0  0  3  0  0
   -1.4559   -0.3166   -1.1458 N   0  0  0  0  0  0  0  0  0  4  0  0
    0.3543    1.5357    0.6710 H   0  0  0  0  0  0  0  0  0  5  0  0
   -0.1745    0.1962    1.6735 H   0  0  0  0  0  0  0  0  0  6  0  0
    1.4647   -0.9816    0.9036 H   0  0  0  0  0  0  0  0  0  7  0  0
  1  7  1  0
  1  2  1  0
  2  5  1  0
  2  6  1  0
  2  3  1  0
  3  4  1  0
M  RAD  1   3   3
M  END
>  <rmg_smiles>  (2) 
[N][C]CO

>  <rmg_adjacency_list>  (2) 
1 O u0 p2 c0 {3,S} {7,S}
2 N u0 p2 c0 {4,S}
3 C u0 p0 c0 {1,S} {4,S} {5,S} {6,S}
4 C u0 p1 c0 {2,S} {3,S}
5 H u0 p0 c0 {3,S}
6 H u0 p0 c0 {3,S}
7 H u0 p0 c0 {1,S}


>  <multiplicity>  (2) 
1

>  <reaction>  (2) 
kfir_rxn_11197

>  <type>  (2) 
r2h

>  <role_mapnums>  (2) 
{"r2h_a": 1, "r2h_h": 7}

>  <role_mapidx>  (2) 
{"r2h_a": 0, "r2h_h": 6}

>  <ordered_mapped_smiles>  (2) 
[O:1]([C:2]([C:3][NH2:4])([H:5])[H:6])[H:7]

>  <mol_properties>  (2) 
{"0": {"label": "acceptor", "atom_type": "O2s"}, "6": {"label": "a_hydrogen", "atom_type": "H0"}}

>  <level_of_theory>  (2) 
wb97xd/def2tzvp

>  <lot_method>  (2) 
wb97xd

>  <lot_basis>  (2) 
def2tzvp

>  <spin_multiplicity>  (2) 
1.0

>  <optical_isomers>  (2) 
2.0

>  <modes>  (2) 
IdealGasTranslation(mass=(57.0215, 'amu')),         NonlinearRotor(             inertia = ([14.7791, 103.904, 114.462

>  <frequency_value>  (2) 
unknown

>  <frequency_units>  (2) 
unknown

>  <frequency_list>  (2) 
unknown

>  <arkane_path>  (2) 
/home/calvin/Dropbox/PersonalFolders/Calvin/Kfir_HAb_Converged/kfir_rxn_11197/output/Species/OCCtN/arkane/output.py

>  <path_exists>  (2) 
True

>  <E0_value>  (2) 
-545230.988218396

>  <E0_units>  (2) 
kJ/mol

>  <thermo_class>  (2) 
NASA

>  <Cp0_value>  (2) 
33.257888

>  <Cp0_units>  (2) 
J/(mol*K)

>  <CpInf_value>  (2) 
153.817732

>  <CpInf_units>  (2) 
J/(mol*K)

>  <Tmin_value>  (2) 
10.0

>  <Tmin_units>  (2) 
K

>  <Tmax_value>  (2) 
3000.0

>  <Tmax_units>  (2) 
K

>  <polynomials>  (2) 
[{"name": "polynomial1", "class": "NASAPolynomial", "Tmin_value": 10.0, "Tmin_units": "K", "Tmax_value": 332.2575504632808, "Tmax_units": "K", "coeffs": [3.942687154308257, 0.004659197116581881, 9.174825731730119e-05, -2.832060638723386e-07, 2.759140226973854e-10, -65576142.36188438, 9.427383269625023]}, {"name": "polynomial2", "class": "NASAPolynomial", "Tmin_value": 332.2575504632808, "Tmin_units": "K", "Tmax_value": 3000.0, "Tmax_units": "K", "coeffs": [3.5442600548524266, 0.018389529812021906, -1.0570229565889055e-05, 3.018531543993337e-09, -3.397775147983283e-13, -65576165.19777824, 10.168484284142737]}]

>  <H298_value>  (2) 
-130309.8340369266

>  <H298_units>  (2) 
kcal/mol

>  <S298_value>  (2) 
70.3416368379696

>  <S298_units>  (2) 
cal/(mol*K)

>  <Cp_T_value_list>  (2) 
[16.267529376806507, 18.666472458757337, 20.771371173638357, 22.61572739134183, 25.62950354103469, 27.904978325402183, 31.423614013902945, 33.29408204624171, 34.278888654620644]

>  <Cp_T_units>  (2) 
cal/(mol*K)

>  <T_list>  (2) 
[300.0, 400.0, 500.0, 600.0, 800.0, 1000.0, 1500.0, 2000.0, 2400.0]

>  <T_units>  (2) 
K

>  <yaml_path>  (2) 
/home/calvin/Dropbox/PersonalFolders/Calvin/Kfir_HAb_Converged/kfir_rxn_11197/output/Species/OCCtN/OCCtN.yml

>  <frequencies_cm1>  (2) 
[234.92076160477288, 362.149180661042, 587.3140681705061, 893.0836166314298, 985.4430337051184, 1102.383845597593, 1221.3665598786372, 1363.0483426466053, 1405.526862374445, 1474.9160260540098, 2362.6274912627537, 3007.900731721513, 3091.279232681576, 3838.7364016152746]

>  <ZPE_kJmol>  (2) 
131.1747308304252

>  <E_elec_kJmol>  (2) 
-545362.1629492264

>  <E0_minus_Eelec_plus_ZPE_kJmol>  (2) 
0.0

>  <rxn>  (2) 
kfir_rxn_11197

>  <species_type>  (2) 
p0

>  <species_folder>  (2) 
OCCtN

>  <frequencies_cm1_list>  (2) 
[234.92076160477288, 362.149180661042, 587.3140681705061, 893.0836166314298, 985.4430337051184, 1102.383845597593, 1221.3665598786372, 1363.0483426466053, 1405.526862374445, 1474.9160260540098, 2362.6274912627537, 3007.900731721513, 3091.279232681576, 3838.7364016152746]

>  <E0_kJmol>  (2) 
-545231

>  <H298_kJmol>  (2) 
-545216

$$$$

     RDKit          3D

 12 10  0  0  0  0  0  0  0  0999 V2000
    0.6795    1.3649   -0.3147 O   0  0  0  0  0  1  0  0  0  1  0  0
   -0.5731    1.9053   -0.1550 C   0  0  0  0  0  0  0  0  0  2  0  0
   -1.5384    1.4910   -1.1941 C   0  0  0  0  0  0  0  0  0  3  0  0
   -2.2866    1.1463   -1.9916 N   0  0  0  0  0  0  0  0  0  4  0  0
   -0.4763    2.9986   -0.1747 H   0  0  0  0  0  0  0  0  0  5  0  0
   -1.0052    1.6591    0.8277 H   0  0  0  0  0  0  0  0  0  6  0  0
    2.0766   -2.1693    0.0963 O   0  0  0  0  0  0  0  0  0  7  0  0
    1.0832   -2.1402    0.7465 C   0  0  0  0  0  0  0  0  0  8  0  0
    0.2328   -0.8527    0.8775 C   0  0  0  0  0  0  0  0  0  9  0  0
   -0.7217   -0.7848    1.5732 O   0  0  0  0  0  0  0  0  0 10  0  0
    0.6785   -2.9995    1.3128 H   0  0  0  0  0  0  0  0  0 11  0  0
    0.6136    0.0827    0.2259 H   0  0  0  0  0  0  0  0  0 12  0  0
  1  2  1  0
  2  5  1  0
  2  6  1  0
  2  3  1  0
  3  4  1  0
  7  8  1  0
  8  9  1  0
  8 11  1  0
  9 12  1  0
  9 10  1  0
M  RAD  1   1   2
M  END
>  <rmg_smiles>  (3) 
[N][C]C[O].[O][CH][CH][O]

>  <rmg_adjacency_list>  (3) 
multiplicity 2
1  O u1 p2 c0 {5,S}
2  O u0 p2 c0 {6,S}
3  O u0 p2 c0 {7,S}
4  N u0 p2 c0 {8,S}
5  C u0 p0 c0 {1,S} {8,S} {9,S} {10,S}
6  C u0 p0 c0 {2,S} {7,S} {11,S}
7  C u0 p0 c0 {3,S} {6,S} {12,S}
8  C u0 p1 c0 {4,S} {5,S}
9  H u0 p0 c0 {5,S}
10 H u0 p0 c0 {5,S}
11 H u0 p0 c0 {6,S}
12 H u0 p0 c0 {7,S}


>  <multiplicity>  (3) 
2

>  <reaction>  (3) 
kfir_rxn_11197

>  <type>  (3) 
ts

>  <role_mapnums>  (3) 
{"*2": 12, "*1": 9, "*3": 1, "*0": 8, "*4": 2}

>  <role_mapidx>  (3) 
{"*2": 11, "*1": 8, "*3": 0, "*0": 7, "*4": 1}

>  <ordered_mapped_smiles>  (3) 
[O:1][C:2]([CH2:3][NH2:4])([H:5])[H:6].[OH:7][CH:8]([CH:9]([OH:10])[H:12])[H:11]

>  <mol_properties>  (3) 
{"0": {"label": "*3", "atom_type": "O2s"}, "1": {"label": "*4", "atom_type": "Cs"}, "7": {"label": "*0", "atom_type": "Cs"}, "8": {"label": "*1", "atom_type": "Cs"}, "11": {"label": "*2", "atom_type": "H0"}}

>  <level_of_theory>  (3) 
wb97xd/def2tzvp

>  <lot_method>  (3) 
wb97xd

>  <lot_basis>  (3) 
def2tzvp

>  <spin_multiplicity>  (3) 
2.0

>  <optical_isomers>  (3) 
2.0

>  <modes>  (3) 
IdealGasTranslation(mass=(114.019, 'amu')),         NonlinearRotor(             inertia = ([153.786, 541.207, 559.215

>  <frequency_value>  (3) 
-846.792

>  <frequency_units>  (3) 
cm^-1

>  <frequency_list>  (3) 
unknown

>  <arkane_path>  (3) 
/home/calvin/Dropbox/PersonalFolders/Calvin/Kfir_HAb_Converged/kfir_rxn_11197/output/rxns/TS0/arkane/output.py

>  <path_exists>  (3) 
True

>  <E0_value>  (3) 
-1140860.0

>  <E0_units>  (3) 
kJ/mol

>  <thermo_class>  (3) 
unknown

>  <Cp0_value>  (3) 
unknown

>  <Cp0_units>  (3) 
unknown

>  <CpInf_value>  (3) 
unknown

>  <CpInf_units>  (3) 
unknown

>  <Tmin_value>  (3) 
unknown

>  <Tmin_units>  (3) 
unknown

>  <Tmax_value>  (3) 
unknown

>  <Tmax_units>  (3) 
unknown

>  <polynomials>  (3) 
unknown

>  <H298_value>  (3) 
unknown

>  <H298_units>  (3) 
unknown

>  <S298_value>  (3) 
unknown

>  <S298_units>  (3) 
unknown

>  <Cp_T_value_list>  (3) 
unknown

>  <Cp_T_units>  (3) 
unknown

>  <T_list>  (3) 
unknown

>  <T_units>  (3) 
unknown

>  <yaml_path>  (3) 
unknown

>  <frequencies_cm1>  (3) 
unknown

>  <ZPE_kJmol>  (3) 
unknown

>  <E_elec_kJmol>  (3) 
unknown

>  <E0_minus_Eelec_plus_ZPE_kJmol>  (3) 
unknown

>  <rxn>  (3) 
unknown

>  <species_type>  (3) 
unknown

>  <species_folder>  (3) 
unknown

>  <frequencies_cm1_list>  (3) 
[]

>  <ts_imag_freq_cm1>  (3) 
-857.0765

>  <ts_freq_out_path>  (3) 
/home/calvin/Dropbox/PersonalFolders/Calvin/Kfir_HAb_Converged/kfir_rxn_11197/output/rxns/TS0/geometry/freq.out

>  <E0_kJmol>  (3) 
-1.14086e+06

>  <H298_kJmol>  (3) 
unknown

$$$$

     RDKit          3D

  5  4  0  0  0  0  0  0  0  0999 V2000
    1.9446    0.2602   -0.1509 O   0  0  0  0  0  0  0  0  0  1  0  0
    0.8142    0.0843   -0.0573 C   0  0  0  0  0  0  0  0  0  2  0  0
   -0.5595   -0.0930    0.0477 C   0  0  0  0  0  0  0  0  0  3  0  0
   -1.3313    0.8627   -0.1438 O   0  0  0  0  0  1  0  0  0  4  0  0
   -0.8680   -1.1141    0.3043 H   0  0  0  0  0  0  0  0  0  5  0  0
  1  2  1  0
  2  3  1  0
  3  4  1  0
  3  5  1  0
M  RAD  1   4   2
M  END
>  <rmg_smiles>  (4) 
OC[CH][O]

>  <rmg_adjacency_list>  (4) 
multiplicity 2
1 O u1 p2 c0 {3,S}
2 O u0 p2 c0 {4,S}
3 C u0 p0 c0 {1,S} {4,S} {5,S}
4 C u0 p1 c0 {2,S} {3,S}
5 H u0 p0 c0 {3,S}


>  <multiplicity>  (4) 
2

>  <reaction>  (4) 
kfir_rxn_11197

>  <type>  (4) 
r1

>  <role_mapnums>  (4) 
{}

>  <role_mapidx>  (4) 
{}

>  <ordered_mapped_smiles>  (4) 
[OH:1][CH2:2][CH:3]([O:4])[H:5]

>  <level_of_theory>  (4) 
wb97xd/def2tzvp

>  <lot_method>  (4) 
wb97xd

>  <lot_basis>  (4) 
def2tzvp

>  <spin_multiplicity>  (4) 
2.0

>  <optical_isomers>  (4) 
1.0

>  <modes>  (4) 
IdealGasTranslation(mass=(56.9977, 'amu')),         NonlinearRotor(             inertia = ([8.55844, 100.228, 108.787

>  <frequency_value>  (4) 
unknown

>  <frequency_units>  (4) 
unknown

>  <frequency_list>  (4) 
unknown

>  <arkane_path>  (4) 
/home/calvin/Dropbox/PersonalFolders/Calvin/Kfir_HAb_Converged/kfir_rxn_11197/output/Species/O=_C_C=O/arkane/output.py

>  <path_exists>  (4) 
True

>  <E0_value>  (4) 
-595722.5881101653

>  <E0_units>  (4) 
kJ/mol

>  <thermo_class>  (4) 
NASA

>  <Cp0_value>  (4) 
33.257888

>  <Cp0_units>  (4) 
J/(mol*K)

>  <CpInf_value>  (4) 
103.9309

>  <CpInf_units>  (4) 
J/(mol*K)

>  <Tmin_value>  (4) 
10.0

>  <Tmin_units>  (4) 
K

>  <Tmax_value>  (4) 
3000.0

>  <Tmax_units>  (4) 
K

>  <polynomials>  (4) 
[{"name": "polynomial1", "class": "NASAPolynomial", "Tmin_value": 10.0, "Tmin_units": "K", "Tmax_value": 369.18754660848515, "Tmax_units": "K", "coeffs": [3.848984861991928, 0.01687031401357215, -6.653133479881365e-05, 1.8677499593301162e-07, -1.7882578520065647e-10, -71648876.91776738, 9.545451596374038]}, {"name": "polynomial2", "class": "NASAPolynomial", "Tmin_value": 369.18754660848515, "Tmin_units": "K", "Tmax_value": 3000.0, "Tmax_units": "K", "coeffs": [3.1691299733036464, 0.013410981808391415, -8.493266732995407e-06, 2.5489304046833795e-09, -2.9260548599570054e-13, -71648752.94493112, 13.147057173365885]}]

>  <H298_value>  (4) 
-142377.9476412813

>  <H298_units>  (4) 
kcal/mol

>  <S298_value>  (4) 
69.23770196262254

>  <S298_units>  (4) 
cal/(mol*K)

>  <Cp_T_value_list>  (4) 
[12.950018597677836, 14.566702300181944, 16.000256749287068, 17.23065091396471, 19.171427408409635, 20.554014599685203, 22.449625610552854, 23.305524869945756, 23.772426894602713]

>  <Cp_T_units>  (4) 
cal/(mol*K)

>  <T_list>  (4) 
[300.0, 400.0, 500.0, 600.0, 800.0, 1000.0, 1500.0, 2000.0, 2400.0]

>  <T_units>  (4) 
K

>  <yaml_path>  (4) 
/home/calvin/Dropbox/PersonalFolders/Calvin/Kfir_HAb_Converged/kfir_rxn_11197/output/Species/O=_C_C=O/O=_C_C=O.yml

>  <frequencies_cm1>  (4) 
[190.85306376176567, 683.5317148179888, 777.203167143448, 987.178185534423, 1340.1682286594903, 1495.095831185902, 2180.676431974867, 3003.7260068867895]

>  <ZPE_kJmol>  (4) 
63.75160284258661

>  <E_elec_kJmol>  (4) 
-595786.3397130079

>  <E0_minus_Eelec_plus_ZPE_kJmol>  (4) 
0.0

>  <rxn>  (4) 
kfir_rxn_11197

>  <species_type>  (4) 
p1

>  <species_folder>  (4) 
O=_C_C=O

>  <frequencies_cm1_list>  (4) 
[190.85306376176567, 683.5317148179888, 777.203167143448, 987.178185534423, 1340.1682286594903, 1495.095831185902, 2180.676431974867, 3003.7260068867895]

>  <E0_kJmol>  (4) 
-595723

>  <H298_kJmol>  (4) 
-595709

$$$$

     RDKit          3D

  6  5  0  0  0  0  0  0  0  0999 V2000
   -1.0578    1.1910   -0.1492 O   0  0  0  0  0  1  0  0  0  1  0  0
   -0.4642   -0.0130    0.0051 C   0  0  0  0  0  0  0  0  0  2  0  0
    1.0136   -0.0026   -0.0071 C   0  0  0  0  0  0  0  0  0  3  0  0
    2.1596   -0.0104   -0.0146 N   0  0  0  0  0  0  0  0  0  4  0  0
   -0.8305   -0.6957   -0.7795 H   0  0  0  0  0  0  0  0  0  5  0  0
   -0.8178   -0.4685    0.9451 H   0  0  0  0  0  0  0  0  0  6  0  0
  1  2  1  0
  2  5  1  0
  2  6  1  0
  2  3  1  0
  3  4  1  0
M  RAD  1   1   2
M  END
>  <rmg_smiles>  (5) 
[N][C]C[O]

>  <rmg_adjacency_list>  (5) 
multiplicity 2
1 O u1 p2 c0 {3,S}
2 N u0 p2 c0 {4,S}
3 C u0 p0 c0 {1,S} {4,S} {5,S} {6,S}
4 C u0 p1 c0 {2,S} {3,S}
5 H u0 p0 c0 {3,S}
6 H u0 p0 c0 {3,S}


>  <multiplicity>  (5) 
2

>  <reaction>  (5) 
kfir_rxn_11197

>  <type>  (5) 
r2

>  <role_mapnums>  (5) 
{}

>  <role_mapidx>  (5) 
{}

>  <ordered_mapped_smiles>  (5) 
[O:1][C:2]([CH2:3][NH2:4])([H:5])[H:6]

>  <level_of_theory>  (5) 
wb97xd/def2tzvp

>  <lot_method>  (5) 
wb97xd

>  <lot_basis>  (5) 
def2tzvp

>  <spin_multiplicity>  (5) 
2.0

>  <optical_isomers>  (5) 
1.0

>  <modes>  (5) 
IdealGasTranslation(mass=(56.0136, 'amu')),         NonlinearRotor(             inertia = ([11.9623, 102.774, 111.687

>  <frequency_value>  (5) 
unknown

>  <frequency_units>  (5) 
unknown

>  <frequency_list>  (5) 
unknown

>  <arkane_path>  (5) 
/home/calvin/Dropbox/PersonalFolders/Calvin/Kfir_HAb_Converged/kfir_rxn_11197/output/Species/_O_CCtN/arkane/output.py

>  <path_exists>  (5) 
True

>  <E0_value>  (5) 
-543476.5261124423

>  <E0_units>  (5) 
kJ/mol

>  <thermo_class>  (5) 
NASA

>  <Cp0_value>  (5) 
33.257888

>  <Cp0_units>  (5) 
J/(mol*K)

>  <CpInf_value>  (5) 
133.031552

>  <CpInf_units>  (5) 
J/(mol*K)

>  <Tmin_value>  (5) 
10.0

>  <Tmin_units>  (5) 
K

>  <Tmax_value>  (5) 
3000.0

>  <Tmax_units>  (5) 
K

>  <polynomials>  (5) 
[{"name": "polynomial1", "class": "NASAPolynomial", "Tmin_value": 10.0, "Tmin_units": "K", "Tmax_value": 478.1467772615022, "Tmax_units": "K", "coeffs": [3.9588167685550744, 0.002670070397818248, 6.182279410773843e-05, -1.3342970906432133e-07, 8.938643038919176e-11, -65365126.86891904, 8.646392604055476]}, {"name": "polynomial2", "class": "NASAPolynomial", "Tmin_value": 478.1467772615022, "Tmin_units": "K", "Tmax_value": 3000.0, "Tmax_units": "K", "coeffs": [3.0767017308765245, 0.018019923277399822, -1.1335460989060393e-05, 3.4352411433017604e-09, -4.0158107279975466e-13, -65365133.624233715, 11.29847453763388]}]

>  <H298_value>  (5) 
-129890.78063595644

>  <H298_units>  (5) 
kcal/mol

>  <S298_value>  (5) 
67.04854095180045

>  <S298_units>  (5) 
cal/(mol*K)

>  <Cp_T_value_list>  (5) 
[14.795382938278545, 17.223681565910184, 19.190660739822846, 20.86140951986118, 23.51322582169332, 25.425957609676257, 28.144277273212083, 29.472927935188853, 30.200649618302513]

>  <Cp_T_units>  (5) 
cal/(mol*K)

>  <T_list>  (5) 
[300.0, 400.0, 500.0, 600.0, 800.0, 1000.0, 1500.0, 2000.0, 2400.0]

>  <T_units>  (5) 
K

>  <yaml_path>  (5) 
/home/calvin/Dropbox/PersonalFolders/Calvin/Kfir_HAb_Converged/kfir_rxn_11197/output/Species/_O_CCtN/_O_CCtN.yml

>  <frequencies_cm1>  (5) 
[229.52211733567998, 333.76982147859997, 591.37104178776, 602.90757712536, 895.94930867104, 1087.65493784948, 1157.68445414284, 1317.602808275, 1369.43481347036, 2366.8438302443997, 2931.3649594309595, 2955.6466195224803]

>  <ZPE_kJmol>  (5) 
94.74278556076187

>  <E_elec_kJmol>  (5) 
-543571.268898003

>  <E0_minus_Eelec_plus_ZPE_kJmol>  (5) 
0.0

>  <rxn>  (5) 
kfir_rxn_11197

>  <species_type>  (5) 
r0

>  <species_folder>  (5) 
_O_CCtN

>  <frequencies_cm1_list>  (5) 
[229.52211733567998, 333.76982147859997, 591.37104178776, 602.90757712536, 895.94930867104, 1087.65493784948, 1157.68445414284, 1317.602808275, 1369.43481347036, 2366.8438302443997, 2931.3649594309595, 2955.6466195224803]

>  <E0_kJmol>  (5) 
-543477

>  <H298_kJmol>  (5) 
-543463

$$$$
