
     RDKit          3D

  7  7  0  0  0  0  0  0  0  0999 V2000
   -0.5184    0.1421    1.0072 O   0  0  0  0  0  0  0  0  0  1  0  0
    0.1088   -0.9294    0.5045 C   0  0  0  0  0  0  0  0  0  2  0  0
    0.5923   -0.7800   -0.6605 N   0  0  0  0  0  0  0  0  0  3  0  0
    0.2692    0.5387   -1.0096 N   0  0  0  0  0  0  0  0  0  4  0  0
   -0.3707    1.0218   -0.0109 C   0  0  0  0  0  0  0  0  0  5  0  0
    0.1527   -1.8303    1.1166 H   0  0  0  0  0  0  0  0  0  6  0  0
   -0.7867    2.0083    0.1034 H   0  0  0  0  0  0  0  0  0  7  0  0
  1  2  1  0
  1  5  1  0
  2  3  1  0
  2  6  1  0
  3  4  1  0
  4  5  1  0
  5  7  1  0
M  END
>  <rmg_smiles>  (1) 
O1[CH][N][N][CH]1

>  <rmg_adjacency_list>  (1) 
1 O u0 p2 c0 {4,S} {5,S}
2 N u0 p1 c0 {3,S} {4,S}
3 N u0 p1 c0 {2,S} {5,S}
4 C u0 p0 c0 {1,S} {2,S} {6,S}
5 C u0 p0 c0 {1,S} {3,S} {7,S}
6 H u0 p0 c0 {4,S}
7 H u0 p0 c0 {5,S}


>  <multiplicity>  (1) 
1

>  <reaction>  (1) 
kfir_rxn_8536

>  <type>  (1) 
r1h

>  <role_mapnums>  (1) 
{"r1h_a": 2, "r1h_h": 6}

>  <role_mapidx>  (1) 
{"r1h_a": 1, "r1h_h": 5}

>  <ordered_mapped_smiles>  (1) 
[O:1]1[CH:2]([H:6])[NH:3][NH:4][CH:5]1[H:7]

>  <mol_properties>  (1) 
{"1": {"label": "donator", "atom_type": "Cs"}, "5": {"label": "d_hydrogen", "atom_type": "H0"}}

>  <level_of_theory>  (1) 
wb97xd/def2tzvp

>  <lot_method>  (1) 
wb97xd

>  <lot_basis>  (1) 
def2tzvp

>  <spin_multiplicity>  (1) 
1.0

>  <optical_isomers>  (1) 
1.0

>  <modes>  (1) 
IdealGasTranslation(mass=(70.0167, 'amu')),         NonlinearRotor(             inertia = ([48.1496, 48.6085, 96.7581

>  <frequency_value>  (1) 
unknown

>  <frequency_units>  (1) 
unknown

>  <frequency_list>  (1) 
unknown

>  <arkane_path>  (1) 
/home/calvin/Dropbox/PersonalFolders/Calvin/Kfir_HAb_Converged/kfir_rxn_8536/output/Species/o1cnnc1/arkane/output.py

>  <path_exists>  (1) 
True

>  <E0_value>  (1) 
-688046.7648432312

>  <E0_units>  (1) 
kJ/mol

>  <thermo_class>  (1) 
NASA

>  <Cp0_value>  (1) 
33.257888

>  <Cp0_units>  (1) 
J/(mol*K)

>  <CpInf_value>  (1) 
157.97496800000002

>  <CpInf_units>  (1) 
J/(mol*K)

>  <Tmin_value>  (1) 
10.0

>  <Tmin_units>  (1) 
K

>  <Tmax_value>  (1) 
3000.0

>  <Tmax_units>  (1) 
K

>  <polynomials>  (1) 
[{"name": "polynomial1", "class": "NASAPolynomial", "Tmin_value": 10.0, "Tmin_units": "K", "Tmax_value": 695.4886092215278, "Tmax_units": "K", "coeffs": [4.181856484473186, -0.013562296478016933, 0.00011527062527692382, -1.6478661397411143e-07, 7.582725647197694e-11, -82752914.0238285, 7.928409849014242]}, {"name": "polynomial2", "class": "NASAPolynomial", "Tmin_value": 695.4886092215278, "Tmin_units": "K", "Tmax_value": 3000.0, "Tmax_units": "K", "coeffs": [0.5452084514812832, 0.027850134134873607, -1.8252518970681564e-05, 5.5777717180920286e-09, -6.438011273186829e-13, -82752903.89367203, 20.588699303666324]}]

>  <H298_value>  (1) 
-164444.40310456904

>  <H298_units>  (1) 
kcal/mol

>  <S298_value>  (1) 
62.64748020099777

>  <S298_units>  (1) 
cal/(mol*K)

>  <Cp_T_value_list>  (1) 
[13.219863458739294, 17.080183767181058, 20.585951750585934, 23.399768929310973, 27.295914369098604, 29.960703460626927, 33.42079583308904, 34.88890074419072, 35.76646009152838]

>  <Cp_T_units>  (1) 
cal/(mol*K)

>  <T_list>  (1) 
[300.0, 400.0, 500.0, 600.0, 800.0, 1000.0, 1500.0, 2000.0, 2400.0]

>  <T_units>  (1) 
K

>  <yaml_path>  (1) 
/home/calvin/Dropbox/PersonalFolders/Calvin/Kfir_HAb_Converged/kfir_rxn_8536/output/Species/o1cnnc1/o1cnnc1.yml

>  <frequencies_cm1>  (1) 
[646.69147552568, 678.01866255552, 857.81693918908, 882.92950450432, 952.67747439956, 955.6234111018398, 1016.68464456728, 1119.4284789251199, 1132.14613573776, 1235.82388009912, 1313.33154340596, 1558.9018054344797, 1581.06843404744, 3263.97426039048, 3269.8249318831195]

>  <ZPE_kJmol>  (1) 
122.40756903126896

>  <E_elec_kJmol>  (1) 
-688169.1724122624

>  <E0_minus_Eelec_plus_ZPE_kJmol>  (1) 
0.0

>  <rxn>  (1) 
kfir_rxn_8536

>  <species_type>  (1) 
r1

>  <species_folder>  (1) 
o1cnnc1

>  <frequencies_cm1_list>  (1) 
[646.69147552568, 678.01866255552, 857.81693918908, 882.92950450432, 952.67747439956, 955.6234111018398, 1016.68464456728, 1119.4284789251199, 1132.14613573776, 1235.82388009912, 1313.33154340596, 1558.9018054344797, 1581.06843404744, 3263.97426039048, 3269.8249318831195]

>  <E0_kJmol>  (1) 
-688047

>  <H298_kJmol>  (1) 
-688035

$$$$

     RDKit          3D

  8  8  0  0  0  0  0  0  0  0999 V2000
    1.3129   -0.2951    1.2165 O   0  0  0  0  0  0  0  0  0  1  0  0
    0.2179   -0.8790    0.7140 N   0  0  0  0  0  0  0  0  0  2  0  0
   -0.2543   -0.0510   -0.1750 C   0  0  0  0  0  0  0  0  0  3  0  0
    0.6013    1.0813   -0.2034 C   0  0  0  0  0  0  0  0  0  4  0  0
    1.5474    0.9207    0.6459 N   0  0  0  0  0  0  0  0  0  5  0  0
   -1.4297   -0.3110   -0.9320 C   0  0  0  0  0  2  0  0  0  6  0  0
   -2.3754   -0.4769   -1.5583 N   0  0  0  0  0  0  0  0  0  7  0  0
    0.5438    1.9799   -0.8178 H   0  0  0  0  0  0  0  0  0  8  0  0
  1  5  1  0
  1  2  1  0
  2  3  1  0
  3  4  1  0
  3  6  1  0
  4  8  1  0
  4  5  1  0
  6  7  1  0
M  RAD  1   6   3
M  END
>  <rmg_smiles>  (2) 
[N][C][C]1[CH][N]O[N]1

>  <rmg_adjacency_list>  (2) 
1 O u0 p2 c0 {2,S} {3,S}
2 N u0 p1 c0 {1,S} {5,S}
3 N u0 p1 c0 {1,S} {6,S}
4 N u0 p2 c0 {7,S}
5 C u0 p0 c0 {2,S} {6,S} {7,S}
6 C u0 p0 c0 {3,S} {5,S} {8,S}
7 C u0 p1 c0 {4,S} {5,S}
8 H u0 p0 c0 {6,S}


>  <multiplicity>  (2) 
1

>  <reaction>  (2) 
kfir_rxn_8536

>  <type>  (2) 
r2h

>  <role_mapnums>  (2) 
{"r2h_a": 4, "r2h_h": 8}

>  <role_mapidx>  (2) 
{"r2h_a": 3, "r2h_h": 7}

>  <ordered_mapped_smiles>  (2) 
[O:1]1[NH:2][CH:3]([C:6][NH2:7])[CH:4]([H:8])[NH:5]1

>  <mol_properties>  (2) 
{"3": {"label": "acceptor", "atom_type": "Cs"}, "7": {"label": "a_hydrogen", "atom_type": "H0"}}

>  <level_of_theory>  (2) 
wb97xd/def2tzvp

>  <lot_method>  (2) 
wb97xd

>  <lot_basis>  (2) 
def2tzvp

>  <spin_multiplicity>  (2) 
1.0

>  <optical_isomers>  (2) 
1.0

>  <modes>  (2) 
IdealGasTranslation(mass=(95.012, 'amu')),         NonlinearRotor(             inertia = ([49.9254, 249.009, 298.935

>  <frequency_value>  (2) 
unknown

>  <frequency_units>  (2) 
unknown

>  <frequency_list>  (2) 
unknown

>  <arkane_path>  (2) 
/home/calvin/Dropbox/PersonalFolders/Calvin/Kfir_HAb_Converged/kfir_rxn_8536/output/Species/c1nonc1CtN/arkane/output.py

>  <path_exists>  (2) 
True

>  <E0_value>  (2) 
-930064.887273445

>  <E0_units>  (2) 
kJ/mol

>  <thermo_class>  (2) 
NASA

>  <Cp0_value>  (2) 
33.257888

>  <Cp0_units>  (2) 
J/(mol*K)

>  <CpInf_value>  (2) 
182.918384

>  <CpInf_units>  (2) 
J/(mol*K)

>  <Tmin_value>  (2) 
10.0

>  <Tmin_units>  (2) 
K

>  <Tmax_value>  (2) 
3000.0

>  <Tmax_units>  (2) 
K

>  <polynomials>  (2) 
[{"name": "polynomial1", "class": "NASAPolynomial", "Tmin_value": 10.0, "Tmin_units": "K", "Tmax_value": 566.3523998237696, "Tmax_units": "K", "coeffs": [3.9229967793252785, 0.004506596947936169, 9.668000425860205e-05, -1.8739188255594868e-07, 1.0905075809088957e-10, -111860964.2945506, 10.555941938910308]}, {"name": "polynomial2", "class": "NASAPolynomial", "Tmin_value": 566.3523998237696, "Tmin_units": "K", "Tmax_value": 3000.0, "Tmax_units": "K", "coeffs": [2.4850173134855194, 0.0320958018309556, -2.256289304833563e-05, 7.3220119876016204e-09, -8.914720378491706e-13, -111861081.00212891, 14.207490907293804]}]

>  <H298_value>  (2) 
-222287.0522182125

>  <H298_units>  (2) 
kcal/mol

>  <S298_value>  (2) 
73.7320176778107

>  <S298_units>  (2) 
cal/(mol*K)

>  <Cp_T_value_list>  (2) 
[19.474438021824493, 23.832677187076655, 27.300209881034693, 29.97875230625388, 33.991426366875245, 36.66091165899536, 39.86519852381342, 41.209877790145796, 42.119375915139294]

>  <Cp_T_units>  (2) 
cal/(mol*K)

>  <T_list>  (2) 
[300.0, 400.0, 500.0, 600.0, 800.0, 1000.0, 1500.0, 2000.0, 2400.0]

>  <T_units>  (2) 
K

>  <yaml_path>  (2) 
/home/calvin/Dropbox/PersonalFolders/Calvin/Kfir_HAb_Converged/kfir_rxn_8536/output/Species/c1nonc1CtN/c1nonc1CtN.yml

>  <frequencies_cm1>  (2) 
[180.36823641512, 183.5545176036, 498.56373518796, 550.0935930292401, 580.90575616008, 658.1868089513599, 712.1613135665599, 902.95363369744, 929.47393100328, 983.51023848636, 1027.2254670334798, 1099.0884684072798, 1190.48117603116, 1409.15345656124, 1468.6833523003202, 1605.59730561048, 2383.5443385426397, 3258.3776673546795]

>  <ZPE_kJmol>  (2) 
117.36519667331942

>  <E_elec_kJmol>  (2) 
-930182.2524701183

>  <E0_minus_Eelec_plus_ZPE_kJmol>  (2) 
0.0

>  <rxn>  (2) 
kfir_rxn_8536

>  <species_type>  (2) 
p0

>  <species_folder>  (2) 
c1nonc1CtN

>  <frequencies_cm1_list>  (2) 
[180.36823641512, 183.5545176036, 498.56373518796, 550.0935930292401, 580.90575616008, 658.1868089513599, 712.1613135665599, 902.95363369744, 929.47393100328, 983.51023848636, 1027.2254670334798, 1099.0884684072798, 1190.48117603116, 1409.15345656124, 1468.6833523003202, 1605.59730561048, 2383.5443385426397, 3258.3776673546795]

>  <E0_kJmol>  (2) 
-930065

>  <H298_kJmol>  (2) 
-930049

$$$$

     RDKit          3D

 14 14  0  0  0  0  0  0  0  0999 V2000
    1.1937   -2.1301    2.0424 O   0  0  0  0  0  0  0  0  0  1  0  0
    0.0988   -2.7140    1.5398 N   0  0  0  0  0  2  0  0  0  2  0  0
   -0.3734   -1.8860    0.6509 C   0  0  0  0  0  0  0  0  0  3  0  0
    0.4821   -0.7536    0.6225 C   0  0  0  0  0  0  0  0  0  4  0  0
    1.4283   -0.9143    1.4717 N   0  0  0  0  0  0  0  0  0  5  0  0
   -1.5489   -2.1460   -0.1062 C   0  0  0  0  0  0  0  0  0  6  0  0
   -2.4946   -2.3118   -0.7324 N   0  0  0  0  0  0  0  0  0  7  0  0
   -0.2672    2.4849   -0.3519 O   0  0  0  0  0  0  0  0  0  8  0  0
    0.3599    1.4133   -0.8546 C   0  0  0  0  0  0  0  0  0  9  0  0
    0.8435    1.5627   -2.0196 N   0  0  0  0  0  0  0  0  0 10  0  0
    0.5204    2.8815   -2.3687 N   0  0  0  0  0  0  0  0  0 11  0  0
   -0.1196    3.3646   -1.3700 C   0  0  0  0  0  0  0  0  0 12  0  0
    0.4126    0.3324   -0.1201 H   0  0  0  0  0  0  0  0  0 13  0  0
   -0.5356    4.3511   -1.2557 H   0  0  0  0  0  0  0  0  0 14  0  0
  1  5  1  0
  1  2  1  0
  2  3  1  0
  3  4  1  0
  3  6  1  0
  4  5  1  0
  6  7  1  0
  8  9  1  0
  8 12  1  0
  9 10  1  0
  9 13  1  0
 10 11  1  0
 11 12  1  0
 12 14  1  0
M  RAD  1   2   2
M  END
>  <rmg_smiles>  (3) 
O1[CH][N][N][CH]1.[N][C][C]1[C][N]O[N]1

>  <rmg_adjacency_list>  (3) 
multiplicity 2
1  O u0 p2 c0 {9,S} {10,S}
2  O u0 p2 c0 {3,S} {6,S}
3  N u1 p1 c0 {2,S} {8,S}
4  N u0 p1 c0 {5,S} {9,S}
5  N u0 p1 c0 {4,S} {10,S}
6  N u0 p1 c0 {2,S} {11,S}
7  N u0 p2 c0 {12,S}
8  C u0 p0 c0 {3,S} {11,S} {12,S}
9  C u0 p0 c0 {1,S} {4,S} {13,S}
10 C u0 p0 c0 {1,S} {5,S} {14,S}
11 C u0 p1 c0 {6,S} {8,S}
12 C u0 p1 c0 {7,S} {8,S}
13 H u0 p0 c0 {9,S}
14 H u0 p0 c0 {10,S}


>  <multiplicity>  (3) 
2

>  <reaction>  (3) 
kfir_rxn_8536

>  <type>  (3) 
ts

>  <role_mapnums>  (3) 
{"*2": 13, "*1": 9, "*3": 4, "*0": 8, "*4": 5}

>  <role_mapidx>  (3) 
{"*2": 12, "*1": 8, "*3": 3, "*0": 7, "*4": 4}

>  <ordered_mapped_smiles>  (3) 
[O:1]1[N:2][CH:3]([CH2:6][NH2:7])[CH2:4][NH:5]1.[O:8]1[CH:9]([H:13])[NH:10][NH:11][CH:12]1[H:14]

>  <mol_properties>  (3) 
{"3": {"label": "*3", "atom_type": "C2s"}, "4": {"label": "*4", "atom_type": "N3s"}, "7": {"label": "*0", "atom_type": "O2s"}, "8": {"label": "*1", "atom_type": "Cs"}, "12": {"label": "*2", "atom_type": "H0"}}

>  <level_of_theory>  (3) 
wb97xd/def2tzvp

>  <lot_method>  (3) 
wb97xd

>  <lot_basis>  (3) 
def2tzvp

>  <spin_multiplicity>  (3) 
2.0

>  <optical_isomers>  (3) 
2.0

>  <modes>  (3) 
IdealGasTranslation(mass=(164.021, 'amu')),         NonlinearRotor(             inertia = ([299.654, 1048.92, 1251.09

>  <frequency_value>  (3) 
-1626.5

>  <frequency_units>  (3) 
cm^-1

>  <frequency_list>  (3) 
unknown

>  <arkane_path>  (3) 
/home/calvin/Dropbox/PersonalFolders/Calvin/Kfir_HAb_Converged/kfir_rxn_8536/output/rxns/TS0/arkane/output.py

>  <path_exists>  (3) 
True

>  <E0_value>  (3) 
-1616250.0

>  <E0_units>  (3) 
kJ/mol

>  <thermo_class>  (3) 
unknown

>  <Cp0_value>  (3) 
unknown

>  <Cp0_units>  (3) 
unknown

>  <CpInf_value>  (3) 
unknown

>  <CpInf_units>  (3) 
unknown

>  <Tmin_value>  (3) 
unknown

>  <Tmin_units>  (3) 
unknown

>  <Tmax_value>  (3) 
unknown

>  <Tmax_units>  (3) 
unknown

>  <polynomials>  (3) 
unknown

>  <H298_value>  (3) 
unknown

>  <H298_units>  (3) 
unknown

>  <S298_value>  (3) 
unknown

>  <S298_units>  (3) 
unknown

>  <Cp_T_value_list>  (3) 
unknown

>  <Cp_T_units>  (3) 
unknown

>  <T_list>  (3) 
unknown

>  <T_units>  (3) 
unknown

>  <yaml_path>  (3) 
unknown

>  <frequencies_cm1>  (3) 
unknown

>  <ZPE_kJmol>  (3) 
unknown

>  <E_elec_kJmol>  (3) 
unknown

>  <E0_minus_Eelec_plus_ZPE_kJmol>  (3) 
unknown

>  <rxn>  (3) 
unknown

>  <species_type>  (3) 
unknown

>  <species_folder>  (3) 
unknown

>  <frequencies_cm1_list>  (3) 
[]

>  <ts_imag_freq_cm1>  (3) 
-1646.2559

>  <ts_freq_out_path>  (3) 
/home/calvin/Dropbox/PersonalFolders/Calvin/Kfir_HAb_Converged/kfir_rxn_8536/output/rxns/TS0/geometry/freq.out

>  <E0_kJmol>  (3) 
-1.61625e+06

>  <H298_kJmol>  (3) 
unknown

$$$$

     RDKit          3D

  6  6  0  0  0  0  0  0  0  0999 V2000
    0.0515   -1.1102    0.0919 O   0  0  0  0  0  0  0  0  0  1  0  0
    0.6776    0.0348   -0.2877 C   0  0  0  0  0  0  0  0  0  2  0  0
   -0.0325    1.0855   -0.1104 N   0  0  0  0  0  0  0  0  0  3  0  0
   -1.2593    0.6390    0.4397 N   0  0  0  0  0  0  0  0  0  4  0  0
   -1.1120   -0.6114    0.5142 C   0  0  0  0  0  3  0  0  0  5  0  0
    1.6747   -0.0377   -0.6879 H   0  0  0  0  0  0  0  0  0  6  0  0
  1  2  1  0
  1  5  1  0
  2  3  1  0
  2  6  1  0
  3  4  1  0
  4  5  1  0
M  RAD  1   5   2
M  END
>  <rmg_smiles>  (4) 
O1[CH][N][N][C]1

>  <rmg_adjacency_list>  (4) 
multiplicity 2
1 O u0 p2 c0 {4,S} {5,S}
2 N u0 p1 c0 {3,S} {4,S}
3 N u0 p1 c0 {2,S} {5,S}
4 C u0 p0 c0 {1,S} {2,S} {6,S}
5 C u1 p1 c0 {1,S} {3,S}
6 H u0 p0 c0 {4,S}


>  <multiplicity>  (4) 
2

>  <reaction>  (4) 
kfir_rxn_8536

>  <type>  (4) 
r1

>  <role_mapnums>  (4) 
{}

>  <role_mapidx>  (4) 
{}

>  <ordered_mapped_smiles>  (4) 
[O:1]1[CH:2]([H:6])[NH:3][NH:4][CH:5]1

>  <level_of_theory>  (4) 
wb97xd/def2tzvp

>  <lot_method>  (4) 
wb97xd

>  <lot_basis>  (4) 
def2tzvp

>  <spin_multiplicity>  (4) 
2.0

>  <optical_isomers>  (4) 
1.0

>  <modes>  (4) 
IdealGasTranslation(mass=(69.0089, 'amu')),         NonlinearRotor(             inertia = ([43.1187, 49.1925, 92.3112

>  <frequency_value>  (4) 
unknown

>  <frequency_units>  (4) 
unknown

>  <frequency_list>  (4) 
unknown

>  <arkane_path>  (4) 
/home/calvin/Dropbox/PersonalFolders/Calvin/Kfir_HAb_Converged/kfir_rxn_8536/output/Species/O1C=NN=_C_1/arkane/output.py

>  <path_exists>  (4) 
True

>  <E0_value>  (4) 
-686227.9321676121

>  <E0_units>  (4) 
kJ/mol

>  <thermo_class>  (4) 
NASA

>  <Cp0_value>  (4) 
33.257888

>  <Cp0_units>  (4) 
J/(mol*K)

>  <CpInf_value>  (4) 
133.031552

>  <CpInf_units>  (4) 
J/(mol*K)

>  <Tmin_value>  (4) 
10.0

>  <Tmin_units>  (4) 
K

>  <Tmax_value>  (4) 
3000.0

>  <Tmax_units>  (4) 
K

>  <polynomials>  (4) 
[{"name": "polynomial1", "class": "NASAPolynomial", "Tmin_value": 10.0, "Tmin_units": "K", "Tmax_value": 674.6128975173466, "Tmax_units": "K", "coeffs": [4.148660618965154, -0.011482695277586594, 0.0001040434276964284, -1.5567798461448658e-07, 7.458239706274355e-11, -82534157.8033506, 9.221978768299396]}, {"name": "polynomial2", "class": "NASAPolynomial", "Tmin_value": 674.6128975173466, "Tmin_units": "K", "Tmax_value": 3000.0, "Tmax_units": "K", "coeffs": [1.539913144747657, 0.023194153144737422, -1.5771021486683542e-05, 4.932658785177059e-09, -5.785310182522699e-13, -82534242.92160068, 17.5412171439437]}]

>  <H298_value>  (4) 
-164009.68776778597

>  <H298_units>  (4) 
kcal/mol

>  <S298_value>  (4) 
65.23791283503661

>  <S298_units>  (4) 
cal/(mol*K)

>  <Cp_T_value_list>  (4) 
[12.85438904566627, 16.19265139948966, 19.11657210877488, 21.37064009747174, 24.423437390583484, 26.463971904913382, 28.944168702500278, 29.905286770318753, 30.522699483796753]

>  <Cp_T_units>  (4) 
cal/(mol*K)

>  <T_list>  (4) 
[300.0, 400.0, 500.0, 600.0, 800.0, 1000.0, 1500.0, 2000.0, 2400.0]

>  <T_units>  (4) 
K

>  <yaml_path>  (4) 
/home/calvin/Dropbox/PersonalFolders/Calvin/Kfir_HAb_Converged/kfir_rxn_8536/output/Species/O1C=NN=_C_1/O1C=NN=_C_1.yml

>  <frequencies_cm1>  (4) 
[600.1127141001199, 646.9730219237999, 864.49164892012, 877.5320540427999, 933.3812456503599, 946.8542708481998, 1065.53637813376, 1142.26807209944, 1275.3777155423197, 1518.0844446923998, 1571.4340536434797, 3265.95195216264]

>  <ZPE_kJmol>  (4) 
87.97338711589188

>  <E_elec_kJmol>  (4) 
-686315.905554728

>  <E0_minus_Eelec_plus_ZPE_kJmol>  (4) 
0.0

>  <rxn>  (4) 
kfir_rxn_8536

>  <species_type>  (4) 
p1

>  <species_folder>  (4) 
O1C=NN=_C_1

>  <frequencies_cm1_list>  (4) 
[600.1127141001199, 646.9730219237999, 864.49164892012, 877.5320540427999, 933.3812456503599, 946.8542708481998, 1065.53637813376, 1142.26807209944, 1275.3777155423197, 1518.0844446923998, 1571.4340536434797, 3265.95195216264]

>  <E0_kJmol>  (4) 
-686228

>  <H298_kJmol>  (4) 
-686217

$$$$

     RDKit          3D

  7  7  0  0  0  0  0  0  0  0999 V2000
   -1.7673   -0.6497   -0.0905 O   0  0  0  0  0  0  0  0  0  1  0  0
   -0.5040   -1.0286   -0.3333 N   0  0  0  0  0  2  0  0  0  2  0  0
    0.2497   -0.0019   -0.0549 C   0  0  0  0  0  0  0  0  0  3  0  0
   -0.6211    1.0349    0.3744 C   0  0  0  0  0  0  0  0  0  4  0  0
   -1.8282    0.6552    0.3559 N   0  0  0  0  0  0  0  0  0  5  0  0
    1.6645   -0.0151   -0.1880 C   0  0  0  0  0  0  0  0  0  6  0  0
    2.8064    0.0052   -0.2849 N   0  0  0  0  0  0  0  0  0  7  0  0
  1  5  1  0
  1  2  1  0
  2  3  1  0
  3  4  1  0
  3  6  1  0
  4  5  1  0
  6  7  1  0
M  RAD  1   2   2
M  END
>  <rmg_smiles>  (5) 
[N][C][C]1[C][N]O[N]1

>  <rmg_adjacency_list>  (5) 
multiplicity 2
1 O u0 p2 c0 {2,S} {3,S}
2 N u1 p1 c0 {1,S} {5,S}
3 N u0 p1 c0 {1,S} {6,S}
4 N u0 p2 c0 {7,S}
5 C u0 p0 c0 {2,S} {6,S} {7,S}
6 C u0 p1 c0 {3,S} {5,S}
7 C u0 p1 c0 {4,S} {5,S}


>  <multiplicity>  (5) 
2

>  <reaction>  (5) 
kfir_rxn_8536

>  <type>  (5) 
r2

>  <role_mapnums>  (5) 
{}

>  <role_mapidx>  (5) 
{}

>  <ordered_mapped_smiles>  (5) 
[O:1]1[N:2][CH:3]([CH2:6][NH2:7])[CH2:4][NH:5]1

>  <level_of_theory>  (5) 
wb97xd/def2tzvp

>  <lot_method>  (5) 
wb97xd

>  <lot_basis>  (5) 
def2tzvp

>  <spin_multiplicity>  (5) 
2.0

>  <optical_isomers>  (5) 
1.0

>  <modes>  (5) 
IdealGasTranslation(mass=(94.0041, 'amu')),         NonlinearRotor(             inertia = ([44.8799, 250.878, 295.758

>  <frequency_value>  (5) 
unknown

>  <frequency_units>  (5) 
unknown

>  <frequency_list>  (5) 
unknown

>  <arkane_path>  (5) 
/home/calvin/Dropbox/PersonalFolders/Calvin/Kfir_HAb_Converged/kfir_rxn_8536/output/Species/O1N=C[_C_=N1]CtN/arkane/output.py

>  <path_exists>  (5) 
True

>  <E0_value>  (5) 
-928244.7568834152

>  <E0_units>  (5) 
kJ/mol

>  <thermo_class>  (5) 
NASA

>  <Cp0_value>  (5) 
33.257888

>  <Cp0_units>  (5) 
J/(mol*K)

>  <CpInf_value>  (5) 
157.97496800000002

>  <CpInf_units>  (5) 
J/(mol*K)

>  <Tmin_value>  (5) 
10.0

>  <Tmin_units>  (5) 
K

>  <Tmax_value>  (5) 
3000.0

>  <Tmax_units>  (5) 
K

>  <polynomials>  (5) 
[{"name": "polynomial1", "class": "NASAPolynomial", "Tmin_value": 10.0, "Tmin_units": "K", "Tmax_value": 544.0262037005473, "Tmax_units": "K", "coeffs": [3.908384403263448, 0.005554725563237835, 9.357035586457212e-05, -1.98951540809799e-07, 1.2435070037638502e-10, -111642053.03019609, 11.17891583634839]}, {"name": "polynomial2", "class": "NASAPolynomial", "Tmin_value": 544.0262037005473, "Tmin_units": "K", "Tmax_value": 3000.0, "Tmax_units": "K", "coeffs": [3.7339388925948884, 0.026664186184085625, -1.9300021978560002e-05, 6.353920327824101e-09, -7.793215684059316e-13, -111642327.45158331, 9.21774008949032]}]

>  <H298_value>  (5) 
-221852.0320105563

>  <H298_units>  (5) 
kcal/mol

>  <S298_value>  (5) 
75.00817770577859

>  <S298_units>  (5) 
cal/(mol*K)

>  <Cp_T_value_list>  (5) 
[19.140143413017842, 22.956231129187476, 25.796548239851145, 27.93195480493666, 31.094358389145746, 33.132101519802426, 35.38088903171768, 36.21572738234155, 36.84367193276332]

>  <Cp_T_units>  (5) 
cal/(mol*K)

>  <T_list>  (5) 
[300.0, 400.0, 500.0, 600.0, 800.0, 1000.0, 1500.0, 2000.0, 2400.0]

>  <T_units>  (5) 
K

>  <yaml_path>  (5) 
/home/calvin/Dropbox/PersonalFolders/Calvin/Kfir_HAb_Converged/kfir_rxn_8536/output/Species/O1N=C[_C_=N1]CtN/O1N=C_C_=N1CtN.yml

>  <frequencies_cm1>  (5) 
[182.19485451024, 182.35966215791998, 491.59374508816, 552.07815178672, 576.4147477608, 615.5084951875599, 693.3801087163599, 802.3454317741199, 949.8963453449599, 995.9875508128, 1076.23514126232, 1346.93170257672, 1473.0164200372399, 1576.32334719132, 2387.0190331145595]

>  <ZPE_kJmol>  (5) 
83.148171437885

>  <E_elec_kJmol>  (5) 
-928327.9050548532

>  <E0_minus_Eelec_plus_ZPE_kJmol>  (5) 
0.0

>  <rxn>  (5) 
kfir_rxn_8536

>  <species_type>  (5) 
r0

>  <species_folder>  (5) 
O1N=C[_C_=N1]CtN

>  <frequencies_cm1_list>  (5) 
[182.19485451024, 182.35966215791998, 491.59374508816, 552.07815178672, 576.4147477608, 615.5084951875599, 693.3801087163599, 802.3454317741199, 949.8963453449599, 995.9875508128, 1076.23514126232, 1346.93170257672, 1473.0164200372399, 1576.32334719132, 2387.0190331145595]

>  <E0_kJmol>  (5) 
-928245

>  <H298_kJmol>  (5) 
-928229

$$$$
