
     RDKit          3D

  7  6  0  0  0  0  0  0  0  0999 V2000
   -1.5532    0.1345    0.4125 O   0  0  0  0  0  0  0  0  0  1  0  0
   -0.2484   -0.1067    0.8164 C   0  0  0  0  0  0  0  0  0  2  0  0
    0.7296   -0.0742   -0.2789 C   0  0  0  0  0  2  0  0  0  3  0  0
    1.4957   -0.0411   -1.1304 N   0  0  0  0  0  0  0  0  0  4  0  0
   -1.6552    0.9699   -0.0494 H   0  0  0  0  0  0  0  0  0  5  0  0
    0.0617    0.5917    1.6044 H   0  0  0  0  0  0  0  0  0  6  0  0
   -0.2512   -1.1019    1.2747 H   0  0  0  0  0  0  0  0  0  7  0  0
  1  5  1  0
  1  2  1  0
  2  7  1  0
  2  6  1  0
  2  3  1  0
  3  4  1  0
M  RAD  1   3   3
M  END
>  <rmg_smiles>  (1) 
[N][C]CO

>  <rmg_adjacency_list>  (1) 
1 O u0 p2 c0 {3,S} {7,S}
2 N u0 p2 c0 {4,S}
3 C u0 p0 c0 {1,S} {4,S} {5,S} {6,S}
4 C u0 p1 c0 {2,S} {3,S}
5 H u0 p0 c0 {3,S}
6 H u0 p0 c0 {3,S}
7 H u0 p0 c0 {1,S}


>  <multiplicity>  (1) 
1

>  <reaction>  (1) 
kfir_rxn_5989

>  <type>  (1) 
r1h

>  <role_mapnums>  (1) 
{"r1h_a": 1, "r1h_h": 5}

>  <role_mapidx>  (1) 
{"r1h_a": 0, "r1h_h": 4}

>  <ordered_mapped_smiles>  (1) 
[O:1]([C:2]([C:3][NH2:4])([H:6])[H:7])[H:5]

>  <mol_properties>  (1) 
{"0": {"label": "donator", "atom_type": "O2s"}, "4": {"label": "d_hydrogen", "atom_type": "H0"}}

>  <level_of_theory>  (1) 
wb97xd/def2tzvp

>  <lot_method>  (1) 
wb97xd

>  <lot_basis>  (1) 
def2tzvp

>  <spin_multiplicity>  (1) 
1.0

>  <optical_isomers>  (1) 
2.0

>  <modes>  (1) 
IdealGasTranslation(mass=(57.0215, 'amu')),         NonlinearRotor(             inertia = ([14.7791, 103.904, 114.462

>  <frequency_value>  (1) 
unknown

>  <frequency_units>  (1) 
unknown

>  <frequency_list>  (1) 
unknown

>  <arkane_path>  (1) 
/home/calvin/Dropbox/PersonalFolders/Calvin/Kfir_HAb_Converged/kfir_rxn_5989/output/Species/OCCtN/arkane/output.py

>  <path_exists>  (1) 
True

>  <E0_value>  (1) 
-545230.988218396

>  <E0_units>  (1) 
kJ/mol

>  <thermo_class>  (1) 
NASA

>  <Cp0_value>  (1) 
33.257888

>  <Cp0_units>  (1) 
J/(mol*K)

>  <CpInf_value>  (1) 
153.817732

>  <CpInf_units>  (1) 
J/(mol*K)

>  <Tmin_value>  (1) 
10.0

>  <Tmin_units>  (1) 
K

>  <Tmax_value>  (1) 
3000.0

>  <Tmax_units>  (1) 
K

>  <polynomials>  (1) 
[{"name": "polynomial1", "class": "NASAPolynomial", "Tmin_value": 10.0, "Tmin_units": "K", "Tmax_value": 332.2575504632808, "Tmax_units": "K", "coeffs": [3.942687154308257, 0.004659197116581881, 9.174825731730119e-05, -2.832060638723386e-07, 2.759140226973854e-10, -65576142.36188438, 9.427383269625023]}, {"name": "polynomial2", "class": "NASAPolynomial", "Tmin_value": 332.2575504632808, "Tmin_units": "K", "Tmax_value": 3000.0, "Tmax_units": "K", "coeffs": [3.5442600548524266, 0.018389529812021906, -1.0570229565889055e-05, 3.018531543993337e-09, -3.397775147983283e-13, -65576165.19777824, 10.168484284142737]}]

>  <H298_value>  (1) 
-130309.8340369266

>  <H298_units>  (1) 
kcal/mol

>  <S298_value>  (1) 
70.3416368379696

>  <S298_units>  (1) 
cal/(mol*K)

>  <Cp_T_value_list>  (1) 
[16.267529376806507, 18.666472458757337, 20.771371173638357, 22.61572739134183, 25.62950354103469, 27.904978325402183, 31.423614013902945, 33.29408204624171, 34.278888654620644]

>  <Cp_T_units>  (1) 
cal/(mol*K)

>  <T_list>  (1) 
[300.0, 400.0, 500.0, 600.0, 800.0, 1000.0, 1500.0, 2000.0, 2400.0]

>  <T_units>  (1) 
K

>  <yaml_path>  (1) 
/home/calvin/Dropbox/PersonalFolders/Calvin/Kfir_HAb_Converged/kfir_rxn_5989/output/Species/OCCtN/OCCtN.yml

>  <frequencies_cm1>  (1) 
[234.92076160477288, 362.149180661042, 587.3140681705061, 893.0836166314298, 985.4430337051184, 1102.383845597593, 1221.3665598786372, 1363.0483426466053, 1405.526862374445, 1474.9160260540098, 2362.6274912627537, 3007.900731721513, 3091.279232681576, 3838.7364016152746]

>  <ZPE_kJmol>  (1) 
131.1747308304252

>  <E_elec_kJmol>  (1) 
-545362.1629492264

>  <E0_minus_Eelec_plus_ZPE_kJmol>  (1) 
0.0

>  <rxn>  (1) 
kfir_rxn_5989

>  <species_type>  (1) 
r1

>  <species_folder>  (1) 
OCCtN

>  <frequencies_cm1_list>  (1) 
[234.92076160477288, 362.149180661042, 587.3140681705061, 893.0836166314298, 985.4430337051184, 1102.383845597593, 1221.3665598786372, 1363.0483426466053, 1405.526862374445, 1474.9160260540098, 2362.6274912627537, 3007.900731721513, 3091.279232681576, 3838.7364016152746]

>  <E0_kJmol>  (1) 
-545231

>  <H298_kJmol>  (1) 
-545216

$$$$

     RDKit          3D

  8  7  0  0  0  0  0  0  0  0999 V2000
    0.7953   -0.2380   -1.4692 O   0  0  0  0  0  0  0  0  0  1  0  0
    0.1538    0.3902   -0.4238 C   0  0  0  0  0  0  0  0  0  2  0  0
   -1.2502   -0.0327   -0.2383 C   0  0  0  0  0  2  0  0  0  3  0  0
   -2.3439   -0.3498   -0.1179 N   0  0  0  0  0  0  0  0  0  4  0  0
    0.9049    0.2485    0.8432 C   0  0  0  0  0  2  0  0  0  5  0  0
    1.5323    0.1023    1.7904 N   0  0  0  0  0  0  0  0  0  6  0  0
    0.1430    1.4602   -0.6788 H   0  0  0  0  0  0  0  0  0  7  0  0
    0.7919   -1.1964   -1.4137 H   0  0  0  0  0  0  0  0  0  8  0  0
  1  8  1  0
  1  2  1  0
  2  7  1  0
  2  3  1  0
  2  5  1  0
  3  4  1  0
  5  6  1  0
M  RAD  2   3   3   5   3
M  END
>  <rmg_smiles>  (2) 
[N][C]C([C][N])O

>  <rmg_adjacency_list>  (2) 
1 O u0 p2 c0 {4,S} {8,S}
2 N u0 p2 c0 {5,S}
3 N u0 p2 c0 {6,S}
4 C u0 p0 c0 {1,S} {5,S} {6,S} {7,S}
5 C u0 p1 c0 {2,S} {4,S}
6 C u0 p1 c0 {3,S} {4,S}
7 H u0 p0 c0 {4,S}
8 H u0 p0 c0 {1,S}


>  <multiplicity>  (2) 
1

>  <reaction>  (2) 
kfir_rxn_5989

>  <type>  (2) 
r2h

>  <role_mapnums>  (2) 
{"r2h_a": 1, "r2h_h": 8}

>  <role_mapidx>  (2) 
{"r2h_a": 0, "r2h_h": 7}

>  <ordered_mapped_smiles>  (2) 
[O:1]([C:2]([C:3][NH2:4])([C:5][NH2:6])[H:7])[H:8]

>  <mol_properties>  (2) 
{"0": {"label": "acceptor", "atom_type": "O2s"}, "7": {"label": "a_hydrogen", "atom_type": "H0"}}

>  <level_of_theory>  (2) 
wb97xd/def2tzvp

>  <lot_method>  (2) 
wb97xd

>  <lot_basis>  (2) 
def2tzvp

>  <spin_multiplicity>  (2) 
1.0

>  <optical_isomers>  (2) 
1.0

>  <modes>  (2) 
IdealGasTranslation(mass=(82.0167, 'amu')),         NonlinearRotor(             inertia = ([85.6331, 172.923, 244.063

>  <frequency_value>  (2) 
unknown

>  <frequency_units>  (2) 
unknown

>  <frequency_list>  (2) 
unknown

>  <arkane_path>  (2) 
/home/calvin/Dropbox/PersonalFolders/Calvin/Kfir_HAb_Converged/kfir_rxn_5989/output/Species/OC[CtN]CtN/arkane/output.py

>  <path_exists>  (2) 
True

>  <E0_value>  (2) 
-787060.584094289

>  <E0_units>  (2) 
kJ/mol

>  <thermo_class>  (2) 
NASA

>  <Cp0_value>  (2) 
33.257888

>  <Cp0_units>  (2) 
J/(mol*K)

>  <CpInf_value>  (2) 
178.76114800000002

>  <CpInf_units>  (2) 
J/(mol*K)

>  <Tmin_value>  (2) 
10.0

>  <Tmin_units>  (2) 
K

>  <Tmax_value>  (2) 
3000.0

>  <Tmax_units>  (2) 
K

>  <polynomials>  (2) 
[{"name": "polynomial1", "class": "NASAPolynomial", "Tmin_value": 10.0, "Tmin_units": "K", "Tmax_value": 397.82979642364586, "Tmax_units": "K", "coeffs": [3.7793958996880113, 0.016617484633788693, 0.00013643967829663636, -4.806488668547247e-07, 4.52447019695284e-10, -94661524.41176918, 10.067105487252128]}, {"name": "polynomial2", "class": "NASAPolynomial", "Tmin_value": 397.82979642364586, "Tmin_units": "K", "Tmax_value": 3000.0, "Tmax_units": "K", "coeffs": [7.3278683141063095, 0.018373188649834168, -1.1323405746935618e-05, 3.488428052419387e-09, -4.2211606660435213e-13, -94662102.98062862, -7.504575888828095]}]

>  <H298_value>  (2) 
-188107.36112453928

>  <H298_units>  (2) 
kcal/mol

>  <S298_value>  (2) 
78.01971458797257

>  <S298_units>  (2) 
cal/(mol*K)

>  <Cp_T_value_list>  (2) 
[23.312940471483, 25.988392669095507, 28.006262513747846, 29.756727535141504, 32.57551303894342, 34.66475707908135, 37.84926989449922, 39.6133519189873, 40.57862828980127]

>  <Cp_T_units>  (2) 
cal/(mol*K)

>  <T_list>  (2) 
[300.0, 400.0, 500.0, 600.0, 800.0, 1000.0, 1500.0, 2000.0, 2400.0]

>  <T_units>  (2) 
K

>  <yaml_path>  (2) 
/home/calvin/Dropbox/PersonalFolders/Calvin/Kfir_HAb_Converged/kfir_rxn_5989/output/Species/OC[CtN]CtN/OCCtNCtN.yml

>  <frequencies_cm1>  (2) 
[137.5777251289664, 216.02282458107425, 255.34318598263266, 363.7557403944096, 529.3606309349377, 582.7079744472069, 633.1654830851818, 848.929883725178, 1001.8312544547813, 1108.2705910443003, 1268.2884066922454, 1311.0258339669929, 1403.3796172017305, 2371.7622364755175, 2374.146608065586, 3059.3318650248434, 3812.5025658369814]

>  <ZPE_kJmol>  (2) 
127.2671654589425

>  <E_elec_kJmol>  (2) 
-787187.851259748

>  <E0_minus_Eelec_plus_ZPE_kJmol>  (2) 
0.0

>  <rxn>  (2) 
kfir_rxn_5989

>  <species_type>  (2) 
p0

>  <species_folder>  (2) 
OC[CtN]CtN

>  <frequencies_cm1_list>  (2) 
[137.5777251289664, 216.02282458107425, 255.34318598263266, 363.7557403944096, 529.3606309349377, 582.7079744472069, 633.1654830851818, 848.929883725178, 1001.8312544547813, 1108.2705910443003, 1268.2884066922454, 1311.0258339669929, 1403.3796172017305, 2371.7622364755175, 2374.146608065586, 3059.3318650248434, 3812.5025658369814]

>  <E0_kJmol>  (2) 
-787061

>  <H298_kJmol>  (2) 
-787041

$$$$

     RDKit          3D

 14 12  0  0  0  0  0  0  0  0999 V2000
   -0.0502    0.7871   -0.9598 O   0  0  0  0  0  1  0  0  0  1  0  0
   -0.6916    1.4153    0.0857 C   0  0  0  0  0  0  0  0  0  2  0  0
   -2.0956    0.9924    0.2712 C   0  0  0  0  0  0  0  0  0  3  0  0
   -3.1893    0.6753    0.3915 N   0  0  0  0  0  0  0  0  0  4  0  0
    0.0595    1.2736    1.3526 C   0  0  0  0  0  0  0  0  0  5  0  0
    0.6869    1.1274    2.2999 N   0  0  0  0  0  0  0  0  0  6  0  0
   -0.7024    2.4853   -0.1693 H   0  0  0  0  0  0  0  0  0  7  0  0
    0.0634   -1.4005   -0.3551 O   0  0  0  0  0  0  0  0  0  8  0  0
    1.3682   -1.6417    0.0488 C   0  0  0  0  0  0  0  0  0  9  0  0
    2.3462   -1.6092   -1.0465 C   0  0  0  0  0  0  0  0  0 10  0  0
    3.1123   -1.5761   -1.8980 N   0  0  0  0  0  0  0  0  0 11  0  0
   -0.0545   -0.4350   -0.8889 H   0  0  0  0  0  0  0  0  0 12  0  0
    1.6783   -0.9433    0.8368 H   0  0  0  0  0  0  0  0  0 13  0  0
    1.3654   -2.6369    0.5071 H   0  0  0  0  0  0  0  0  0 14  0  0
  1  2  1  0
  2  7  1  0
  2  3  1  0
  2  5  1  0
  3  4  1  0
  5  6  1  0
  8 12  1  0
  8  9  1  0
  9 13  1  0
  9 10  1  0
  9 14  1  0
 10 11  1  0
M  RAD  1   1   2
M  END
>  <rmg_smiles>  (3) 
[N][C]C([C][N])[O].[N][C]CO

>  <rmg_adjacency_list>  (3) 
multiplicity 2
1  O u0 p2 c0 {7,S} {14,S}
2  O u1 p2 c0 {6,S}
3  N u0 p2 c0 {8,S}
4  N u0 p2 c0 {9,S}
5  N u0 p2 c0 {10,S}
6  C u0 p0 c0 {2,S} {8,S} {9,S} {11,S}
7  C u0 p0 c0 {1,S} {10,S} {12,S} {13,S}
8  C u0 p1 c0 {3,S} {6,S}
9  C u0 p1 c0 {4,S} {6,S}
10 C u0 p1 c0 {5,S} {7,S}
11 H u0 p0 c0 {6,S}
12 H u0 p0 c0 {7,S}
13 H u0 p0 c0 {7,S}
14 H u0 p0 c0 {1,S}


>  <multiplicity>  (3) 
2

>  <reaction>  (3) 
kfir_rxn_5989

>  <type>  (3) 
ts

>  <role_mapnums>  (3) 
{"*2": 12, "*1": 8, "*3": 1, "*0": 9, "*4": 2}

>  <role_mapidx>  (3) 
{"*2": 11, "*1": 7, "*3": 0, "*0": 8, "*4": 1}

>  <ordered_mapped_smiles>  (3) 
[O:1][C:2]([CH2:3][NH2:4])([CH2:5][NH2:6])[H:7].[O:8]([C:9]([CH2:10][NH2:11])([H:13])[H:14])[H:12]

>  <mol_properties>  (3) 
{"0": {"label": "*3", "atom_type": "O2s"}, "1": {"label": "*4", "atom_type": "Cs"}, "7": {"label": "*1", "atom_type": "O2s"}, "8": {"label": "*0", "atom_type": "Cs"}, "11": {"label": "*2", "atom_type": "H0"}}

>  <level_of_theory>  (3) 
wb97xd/def2tzvp

>  <lot_method>  (3) 
wb97xd

>  <lot_basis>  (3) 
def2tzvp

>  <spin_multiplicity>  (3) 
2.0

>  <optical_isomers>  (3) 
2.0

>  <modes>  (3) 
IdealGasTranslation(mass=(138.03, 'amu')),         NonlinearRotor(             inertia = ([229.672, 690.89, 774.907

>  <frequency_value>  (3) 
-1822.8

>  <frequency_units>  (3) 
cm^-1

>  <frequency_list>  (3) 
unknown

>  <arkane_path>  (3) 
/home/calvin/Dropbox/PersonalFolders/Calvin/Kfir_HAb_Converged/kfir_rxn_5989/output/rxns/TS0/arkane/output.py

>  <path_exists>  (3) 
True

>  <E0_value>  (3) 
-1330490.0

>  <E0_units>  (3) 
kJ/mol

>  <thermo_class>  (3) 
unknown

>  <Cp0_value>  (3) 
unknown

>  <Cp0_units>  (3) 
unknown

>  <CpInf_value>  (3) 
unknown

>  <CpInf_units>  (3) 
unknown

>  <Tmin_value>  (3) 
unknown

>  <Tmin_units>  (3) 
unknown

>  <Tmax_value>  (3) 
unknown

>  <Tmax_units>  (3) 
unknown

>  <polynomials>  (3) 
unknown

>  <H298_value>  (3) 
unknown

>  <H298_units>  (3) 
unknown

>  <S298_value>  (3) 
unknown

>  <S298_units>  (3) 
unknown

>  <Cp_T_value_list>  (3) 
unknown

>  <Cp_T_units>  (3) 
unknown

>  <T_list>  (3) 
unknown

>  <T_units>  (3) 
unknown

>  <yaml_path>  (3) 
unknown

>  <frequencies_cm1>  (3) 
unknown

>  <ZPE_kJmol>  (3) 
unknown

>  <E_elec_kJmol>  (3) 
unknown

>  <E0_minus_Eelec_plus_ZPE_kJmol>  (3) 
unknown

>  <rxn>  (3) 
unknown

>  <species_type>  (3) 
unknown

>  <species_folder>  (3) 
unknown

>  <frequencies_cm1_list>  (3) 
[]

>  <ts_imag_freq_cm1>  (3) 
-1844.9359

>  <ts_freq_out_path>  (3) 
/home/calvin/Dropbox/PersonalFolders/Calvin/Kfir_HAb_Converged/kfir_rxn_5989/output/rxns/TS0/geometry/freq.out

>  <E0_kJmol>  (3) 
-1.33049e+06

>  <H298_kJmol>  (3) 
unknown

$$$$

     RDKit          3D

  6  5  0  0  0  0  0  0  0  0999 V2000
   -1.0578    1.1910   -0.1492 O   0  0  0  0  0  1  0  0  0  1  0  0
   -0.4642   -0.0130    0.0051 C   0  0  0  0  0  0  0  0  0  2  0  0
    1.0136   -0.0026   -0.0071 C   0  0  0  0  0  0  0  0  0  3  0  0
    2.1596   -0.0104   -0.0146 N   0  0  0  0  0  0  0  0  0  4  0  0
   -0.8305   -0.6957   -0.7795 H   0  0  0  0  0  0  0  0  0  5  0  0
   -0.8178   -0.4685    0.9451 H   0  0  0  0  0  0  0  0  0  6  0  0
  1  2  1  0
  2  5  1  0
  2  6  1  0
  2  3  1  0
  3  4  1  0
M  RAD  1   1   2
M  END
>  <rmg_smiles>  (4) 
[N][C]C[O]

>  <rmg_adjacency_list>  (4) 
multiplicity 2
1 O u1 p2 c0 {3,S}
2 N u0 p2 c0 {4,S}
3 C u0 p0 c0 {1,S} {4,S} {5,S} {6,S}
4 C u0 p1 c0 {2,S} {3,S}
5 H u0 p0 c0 {3,S}
6 H u0 p0 c0 {3,S}


>  <multiplicity>  (4) 
2

>  <reaction>  (4) 
kfir_rxn_5989

>  <type>  (4) 
r1

>  <role_mapnums>  (4) 
{}

>  <role_mapidx>  (4) 
{}

>  <ordered_mapped_smiles>  (4) 
[O:1][C:2]([CH2:3][NH2:4])([H:5])[H:6]

>  <level_of_theory>  (4) 
wb97xd/def2tzvp

>  <lot_method>  (4) 
wb97xd

>  <lot_basis>  (4) 
def2tzvp

>  <spin_multiplicity>  (4) 
2.0

>  <optical_isomers>  (4) 
1.0

>  <modes>  (4) 
IdealGasTranslation(mass=(56.0136, 'amu')),         NonlinearRotor(             inertia = ([11.9623, 102.774, 111.687

>  <frequency_value>  (4) 
unknown

>  <frequency_units>  (4) 
unknown

>  <frequency_list>  (4) 
unknown

>  <arkane_path>  (4) 
/home/calvin/Dropbox/PersonalFolders/Calvin/Kfir_HAb_Converged/kfir_rxn_5989/output/Species/_O_CCtN/arkane/output.py

>  <path_exists>  (4) 
True

>  <E0_value>  (4) 
-543476.5261124423

>  <E0_units>  (4) 
kJ/mol

>  <thermo_class>  (4) 
NASA

>  <Cp0_value>  (4) 
33.257888

>  <Cp0_units>  (4) 
J/(mol*K)

>  <CpInf_value>  (4) 
133.031552

>  <CpInf_units>  (4) 
J/(mol*K)

>  <Tmin_value>  (4) 
10.0

>  <Tmin_units>  (4) 
K

>  <Tmax_value>  (4) 
3000.0

>  <Tmax_units>  (4) 
K

>  <polynomials>  (4) 
[{"name": "polynomial1", "class": "NASAPolynomial", "Tmin_value": 10.0, "Tmin_units": "K", "Tmax_value": 478.1467772615022, "Tmax_units": "K", "coeffs": [3.9588167685550744, 0.002670070397818248, 6.182279410773843e-05, -1.3342970906432133e-07, 8.938643038919176e-11, -65365126.86891904, 8.646392604055476]}, {"name": "polynomial2", "class": "NASAPolynomial", "Tmin_value": 478.1467772615022, "Tmin_units": "K", "Tmax_value": 3000.0, "Tmax_units": "K", "coeffs": [3.0767017308765245, 0.018019923277399822, -1.1335460989060393e-05, 3.4352411433017604e-09, -4.0158107279975466e-13, -65365133.624233715, 11.29847453763388]}]

>  <H298_value>  (4) 
-129890.78063595644

>  <H298_units>  (4) 
kcal/mol

>  <S298_value>  (4) 
67.04854095180045

>  <S298_units>  (4) 
cal/(mol*K)

>  <Cp_T_value_list>  (4) 
[14.795382938278545, 17.223681565910184, 19.190660739822846, 20.86140951986118, 23.51322582169332, 25.425957609676257, 28.144277273212083, 29.472927935188853, 30.200649618302513]

>  <Cp_T_units>  (4) 
cal/(mol*K)

>  <T_list>  (4) 
[300.0, 400.0, 500.0, 600.0, 800.0, 1000.0, 1500.0, 2000.0, 2400.0]

>  <T_units>  (4) 
K

>  <yaml_path>  (4) 
/home/calvin/Dropbox/PersonalFolders/Calvin/Kfir_HAb_Converged/kfir_rxn_5989/output/Species/_O_CCtN/_O_CCtN.yml

>  <frequencies_cm1>  (4) 
[229.52211733567998, 333.76982147859997, 591.37104178776, 602.90757712536, 895.94930867104, 1087.65493784948, 1157.68445414284, 1317.602808275, 1369.43481347036, 2366.8438302443997, 2931.3649594309595, 2955.6466195224803]

>  <ZPE_kJmol>  (4) 
94.74278556076187

>  <E_elec_kJmol>  (4) 
-543571.268898003

>  <E0_minus_Eelec_plus_ZPE_kJmol>  (4) 
0.0

>  <rxn>  (4) 
kfir_rxn_5989

>  <species_type>  (4) 
p1

>  <species_folder>  (4) 
_O_CCtN

>  <frequencies_cm1_list>  (4) 
[229.52211733567998, 333.76982147859997, 591.37104178776, 602.90757712536, 895.94930867104, 1087.65493784948, 1157.68445414284, 1317.602808275, 1369.43481347036, 2366.8438302443997, 2931.3649594309595, 2955.6466195224803]

>  <E0_kJmol>  (4) 
-543477

>  <H298_kJmol>  (4) 
-543463

$$$$

     RDKit          3D

  7  6  0  0  0  0  0  0  0  0999 V2000
   -0.0135    1.4609   -0.8713 O   0  0  0  0  0  1  0  0  0  1  0  0
   -0.0044    0.4379    0.0216 C   0  0  0  0  0  0  0  0  0  2  0  0
   -1.2167   -0.4085   -0.0253 C   0  0  0  0  0  0  0  0  0  3  0  0
   -2.1632   -1.0518   -0.0561 N   0  0  0  0  0  0  0  0  0  4  0  0
    1.2246   -0.3841   -0.0223 C   0  0  0  0  0  0  0  0  0  5  0  0
    2.1839   -1.0084   -0.0506 N   0  0  0  0  0  0  0  0  0  6  0  0
   -0.0108    0.9540    1.0041 H   0  0  0  0  0  0  0  0  0  7  0  0
  1  2  1  0
  2  7  1  0
  2  3  1  0
  2  5  1  0
  3  4  1  0
  5  6  1  0
M  RAD  1   1   2
M  END
>  <rmg_smiles>  (5) 
[N][C]C([C][N])[O]

>  <rmg_adjacency_list>  (5) 
multiplicity 2
1 O u1 p2 c0 {4,S}
2 N u0 p2 c0 {5,S}
3 N u0 p2 c0 {6,S}
4 C u0 p0 c0 {1,S} {5,S} {6,S} {7,S}
5 C u0 p1 c0 {2,S} {4,S}
6 C u0 p1 c0 {3,S} {4,S}
7 H u0 p0 c0 {4,S}


>  <multiplicity>  (5) 
2

>  <reaction>  (5) 
kfir_rxn_5989

>  <type>  (5) 
r2

>  <role_mapnums>  (5) 
{}

>  <role_mapidx>  (5) 
{}

>  <ordered_mapped_smiles>  (5) 
[O:1][C:2]([CH2:3][NH2:4])([CH2:5][NH2:6])[H:7]

>  <level_of_theory>  (5) 
wb97xd/def2tzvp

>  <lot_method>  (5) 
wb97xd

>  <lot_basis>  (5) 
def2tzvp

>  <spin_multiplicity>  (5) 
2.0

>  <optical_isomers>  (5) 
1.0

>  <modes>  (5) 
IdealGasTranslation(mass=(81.0089, 'amu')),         NonlinearRotor(             inertia = ([80.4805, 173.04, 243.611

>  <frequency_value>  (5) 
unknown

>  <frequency_units>  (5) 
unknown

>  <frequency_list>  (5) 
unknown

>  <arkane_path>  (5) 
/home/calvin/Dropbox/PersonalFolders/Calvin/Kfir_HAb_Converged/kfir_rxn_5989/output/Species/_O_C[CtN]CtN/arkane/output.py

>  <path_exists>  (5) 
True

>  <E0_value>  (5) 
-785288.8752160867

>  <E0_units>  (5) 
kJ/mol

>  <thermo_class>  (5) 
NASA

>  <Cp0_value>  (5) 
33.257888

>  <Cp0_units>  (5) 
J/(mol*K)

>  <CpInf_value>  (5) 
157.97496800000002

>  <CpInf_units>  (5) 
J/(mol*K)

>  <Tmin_value>  (5) 
10.0

>  <Tmin_units>  (5) 
K

>  <Tmax_value>  (5) 
3000.0

>  <Tmax_units>  (5) 
K

>  <polynomials>  (5) 
[{"name": "polynomial1", "class": "NASAPolynomial", "Tmin_value": 10.0, "Tmin_units": "K", "Tmax_value": 397.0379778748374, "Tmax_units": "K", "coeffs": [3.8452224532111714, 0.011794606410299797, 0.00010513482143552924, -3.353427790886499e-07, 3.008846973123494e-10, -94448436.6251699, 10.933552264577946]}, {"name": "polynomial2", "class": "NASAPolynomial", "Tmin_value": 397.0379778748374, "Tmin_units": "K", "Tmax_value": 3000.0, "Tmax_units": "K", "coeffs": [5.031711148240303, 0.021698038844013796, -1.4854710528765107e-05, 4.782757097873204e-09, -5.830564598490686e-13, -94448703.11603527, 4.13591907520591]}]

>  <H298_value>  (5) 
-187684.419292878

>  <H298_units>  (5) 
kcal/mol

>  <S298_value>  (5) 
76.82185372932858

>  <S298_units>  (5) 
cal/(mol*K)

>  <Cp_T_value_list>  (5) 
[20.326438421395153, 23.101957603025536, 25.294071596439434, 27.14593648478272, 29.993065092168287, 31.943828030905365, 34.46959233442215, 35.65465805214342, 36.39825423156173]

>  <Cp_T_units>  (5) 
cal/(mol*K)

>  <T_list>  (5) 
[300.0, 400.0, 500.0, 600.0, 800.0, 1000.0, 1500.0, 2000.0, 2400.0]

>  <T_units>  (5) 
K

>  <yaml_path>  (5) 
/home/calvin/Dropbox/PersonalFolders/Calvin/Kfir_HAb_Converged/kfir_rxn_5989/output/Species/_O_C[CtN]CtN/_O_CCtNCtN.yml

>  <frequencies_cm1>  (5) 
[135.66416198192, 219.40704795931995, 238.23632170676, 348.62311072576, 497.72596297891994, 578.59844909256, 618.94885483288, 809.2055501088, 1007.6408249008399, 1074.6694686093601, 1200.9670626148002, 1219.1027708449199, 2376.12112741172, 2378.40096653796, 2880.8926173289597]

>  <ZPE_kJmol>  (5) 
93.21426869157602

>  <E_elec_kJmol>  (5) 
-785382.0894847783

>  <E0_minus_Eelec_plus_ZPE_kJmol>  (5) 
0.0

>  <rxn>  (5) 
kfir_rxn_5989

>  <species_type>  (5) 
r0

>  <species_folder>  (5) 
_O_C[CtN]CtN

>  <frequencies_cm1_list>  (5) 
[135.66416198192, 219.40704795931995, 238.23632170676, 348.62311072576, 497.72596297891994, 578.59844909256, 618.94885483288, 809.2055501088, 1007.6408249008399, 1074.6694686093601, 1200.9670626148002, 1219.1027708449199, 2376.12112741172, 2378.40096653796, 2880.8926173289597]

>  <E0_kJmol>  (5) 
-785289

>  <H298_kJmol>  (5) 
-785272

$$$$
