
     RDKit          3D

  6  5  0  0  0  0  0  0  0  0999 V2000
   -0.0629    0.0000   -1.8923 C   0  0  0  0  0  2  0  0  0  1  0  0
   -0.0236    0.0000   -0.6932 C   0  0  0  0  0  2  0  0  0  2  0  0
    0.0201    0.0000    0.6774 C   0  0  0  0  0  2  0  0  0  3  0  0
    0.0681    0.0000    1.8807 C   0  0  0  0  0  2  0  0  0  4  0  0
   -0.0979    0.0000   -2.9558 H   0  0  0  0  0  0  0  0  0  5  0  0
    0.0754    0.0000    2.9707 H   0  0  0  0  0  0  0  0  0  6  0  0
  1  5  1  0
  1  2  1  0
  2  3  1  0
  3  4  1  0
  4  6  1  0
M  RAD  4   1   3   2   3   3   3   4   3
M  END
>  <rmg_smiles>  (1) 
[CH][C][C][CH]

>  <rmg_adjacency_list>  (1) 
1 C u0 p1 c0 {2,S} {3,S}
2 C u0 p1 c0 {1,S} {4,S}
3 C u0 p1 c0 {1,S} {5,S}
4 C u0 p1 c0 {2,S} {6,S}
5 H u0 p0 c0 {3,S}
6 H u0 p0 c0 {4,S}


>  <multiplicity>  (1) 
1

>  <reaction>  (1) 
kfir_rxn_4836

>  <type>  (1) 
r1h

>  <role_mapnums>  (1) 
{"r1h_a": 4, "r1h_h": 6}

>  <role_mapidx>  (1) 
{"r1h_a": 3, "r1h_h": 5}

>  <ordered_mapped_smiles>  (1) 
[C:1]([C:2][C:3][C:4][H:6])[H:5]

>  <mol_properties>  (1) 
{"3": {"label": "donator", "atom_type": "C2s"}, "5": {"label": "d_hydrogen", "atom_type": "H0"}}

>  <level_of_theory>  (1) 
wb97xd/def2tzvp

>  <lot_method>  (1) 
wb97xd

>  <lot_basis>  (1) 
def2tzvp

>  <spin_multiplicity>  (1) 
1.0

>  <optical_isomers>  (1) 
1.0

>  <modes>  (1) 
IdealGasTranslation(mass=(50.0157, 'amu')),         LinearRotor(inertia=(114.226, 'amu*angstrom^2'), symmetry=2),         HarmonicOscillator(             frequencies = ([237.398, 237.398, 536.104, 536.104, 696.624, 696.624, 701.718, 701.718, 910.661, 2147.46, 2332.79, 3478.44, 3478.97

>  <frequency_value>  (1) 
unknown

>  <frequency_units>  (1) 
unknown

>  <frequency_list>  (1) 
unknown

>  <arkane_path>  (1) 
/home/calvin/Dropbox/PersonalFolders/Calvin/Kfir_HAb_Converged/kfir_rxn_4836/output/Species/CtCCtC/arkane/output.py

>  <path_exists>  (1) 
True

>  <E0_value>  (1) 
-402852.75322822056

>  <E0_units>  (1) 
kJ/mol

>  <thermo_class>  (1) 
NASA

>  <Cp0_value>  (1) 
29.100652

>  <Cp0_units>  (1) 
J/(mol*K)

>  <CpInf_value>  (1) 
137.18878800000002

>  <CpInf_units>  (1) 
J/(mol*K)

>  <Tmin_value>  (1) 
10.0

>  <Tmin_units>  (1) 
K

>  <Tmax_value>  (1) 
3000.0

>  <Tmax_units>  (1) 
K

>  <polynomials>  (1) 
[{"name": "polynomial1", "class": "NASAPolynomial", "Tmin_value": 10.0, "Tmin_units": "K", "Tmax_value": 518.8977732081437, "Tmax_units": "K", "coeffs": [3.3945428159250333, 0.006659600096592486, 7.93936521971955e-05, -1.9450133092055298e-07, 1.3479328954910564e-10, -48451991.02208287, 6.255460375343213]}, {"name": "polynomial2", "class": "NASAPolynomial", "Tmin_value": 518.8977732081437, "Tmin_units": "K", "Tmax_value": 3000.0, "Tmax_units": "K", "coeffs": [5.164630505743912, 0.015317308525100513, -1.0104897685140479e-05, 3.3152711681203304e-09, -4.201172006786298e-13, -48452474.97642757, -4.0161304486982194]}]

>  <H298_value>  (1) 
-96280.7581154504

>  <H298_units>  (1) 
kcal/mol

>  <S298_value>  (1) 
58.92922038969921

>  <S298_units>  (1) 
cal/(mol*K)

>  <Cp_T_value_list>  (1) 
[16.649096764174008, 19.40306487951361, 21.23264597325154, 22.612231679155887, 24.79374286539459, 26.37459280824109, 28.748460118754025, 30.165697211015285, 31.027821992747004]

>  <Cp_T_units>  (1) 
cal/(mol*K)

>  <T_list>  (1) 
[300.0, 400.0, 500.0, 600.0, 800.0, 1000.0, 1500.0, 2000.0, 2400.0]

>  <T_units>  (1) 
K

>  <yaml_path>  (1) 
/home/calvin/Dropbox/PersonalFolders/Calvin/Kfir_HAb_Converged/kfir_rxn_4836/output/Species/CtCCtC/CtCCtC.yml

>  <frequencies_cm1>  (1) 
[234.54875058992, 234.54875058992, 529.67117868756, 529.67117868756, 688.26420465296, 688.26420465296, 693.29770489252, 693.29770489252, 899.7330175823599, 2121.6855873350796, 2304.79375089288, 3436.69954214444, 3437.2214330287597]

>  <ZPE_kJmol>  (1) 
98.64228206862552

>  <E_elec_kJmol>  (1) 
-402951.3955102892

>  <E0_minus_Eelec_plus_ZPE_kJmol>  (1) 
0.0

>  <rxn>  (1) 
kfir_rxn_4836

>  <species_type>  (1) 
r1

>  <species_folder>  (1) 
CtCCtC

>  <frequencies_cm1_list>  (1) 
[234.54875058992, 234.54875058992, 529.67117868756, 529.67117868756, 688.26420465296, 688.26420465296, 693.29770489252, 693.29770489252, 899.7330175823599, 2121.6855873350796, 2304.79375089288, 3436.69954214444, 3437.2214330287597]

>  <E0_kJmol>  (1) 
-402853

>  <H298_kJmol>  (1) 
-402839

$$$$

     RDKit          3D

  8  8  0  0  0  0  0  0  0  0999 V2000
   -2.7978   -0.0000   -0.5810 N   0  0  0  0  0  0  0  0  0  1  0  0
   -1.6689   -0.0000   -0.3789 C   0  0  0  0  0  2  0  0  0  2  0  0
   -0.2709    0.0000   -0.1530 C   0  0  0  0  0  0  0  0  0  3  0  0
    0.7951    0.0000   -0.9833 C   0  0  0  0  0  0  0  0  0  4  0  0
    1.9087    0.0000   -0.2118 N   0  0  0  0  0  0  0  0  0  5  0  0
    1.5871    0.0000    0.9989 N   0  0  0  0  0  0  0  0  0  6  0  0
    0.1955    0.0000    1.0942 O   0  0  0  0  0  0  0  0  0  7  0  0
    0.8252    0.0000   -2.0729 H   0  0  0  0  0  0  0  0  0  8  0  0
  1  2  1  0
  2  3  1  0
  3  4  1  0
  3  7  1  0
  4  8  1  0
  4  5  1  0
  5  6  1  0
  6  7  1  0
M  RAD  1   2   3
M  END
>  <rmg_smiles>  (2) 
[N][C][C]1[CH][N][N]O1

>  <rmg_adjacency_list>  (2) 
1 O u0 p2 c0 {3,S} {5,S}
2 N u0 p1 c0 {3,S} {6,S}
3 N u0 p1 c0 {1,S} {2,S}
4 N u0 p2 c0 {7,S}
5 C u0 p0 c0 {1,S} {6,S} {7,S}
6 C u0 p0 c0 {2,S} {5,S} {8,S}
7 C u0 p1 c0 {4,S} {5,S}
8 H u0 p0 c0 {6,S}


>  <multiplicity>  (2) 
1

>  <reaction>  (2) 
kfir_rxn_4836

>  <type>  (2) 
r2h

>  <role_mapnums>  (2) 
{"r2h_a": 4, "r2h_h": 8}

>  <role_mapidx>  (2) 
{"r2h_a": 3, "r2h_h": 7}

>  <ordered_mapped_smiles>  (2) 
[NH2:1][C:2][CH:3]1[CH:4]([H:8])[NH:5][NH:6][O:7]1

>  <mol_properties>  (2) 
{"3": {"label": "acceptor", "atom_type": "Cs"}, "7": {"label": "a_hydrogen", "atom_type": "H0"}}

>  <level_of_theory>  (2) 
wb97xd/def2tzvp

>  <lot_method>  (2) 
wb97xd

>  <lot_basis>  (2) 
def2tzvp

>  <spin_multiplicity>  (2) 
1.0

>  <optical_isomers>  (2) 
1.0

>  <modes>  (2) 
IdealGasTranslation(mass=(95.012, 'amu')),         NonlinearRotor(             inertia = ([48.5163, 246.52, 295.038

>  <frequency_value>  (2) 
unknown

>  <frequency_units>  (2) 
unknown

>  <frequency_list>  (2) 
unknown

>  <arkane_path>  (2) 
/home/calvin/Dropbox/PersonalFolders/Calvin/Kfir_HAb_Converged/kfir_rxn_4836/output/Species/NtCc1cnno1/arkane/output.py

>  <path_exists>  (2) 
True

>  <E0_value>  (2) 
-930108.7053895964

>  <E0_units>  (2) 
kJ/mol

>  <thermo_class>  (2) 
NASA

>  <Cp0_value>  (2) 
33.257888

>  <Cp0_units>  (2) 
J/(mol*K)

>  <CpInf_value>  (2) 
182.918384

>  <CpInf_units>  (2) 
J/(mol*K)

>  <Tmin_value>  (2) 
10.0

>  <Tmin_units>  (2) 
K

>  <Tmax_value>  (2) 
3000.0

>  <Tmax_units>  (2) 
K

>  <polynomials>  (2) 
[{"name": "polynomial1", "class": "NASAPolynomial", "Tmin_value": 10.0, "Tmin_units": "K", "Tmax_value": 559.9806270082049, "Tmax_units": "K", "coeffs": [3.9180830574917054, 0.004838813239626989, 9.879243961749227e-05, -1.9549784072484066e-07, 1.1579837731344832e-10, -111866234.2815269, 10.554591431251186]}, {"name": "polynomial2", "class": "NASAPolynomial", "Tmin_value": 559.9806270082049, "Tmin_units": "K", "Tmax_value": 3000.0, "Tmax_units": "K", "coeffs": [2.7416598110683683, 0.031629419093792174, -2.222397317729394e-05, 7.211304754831777e-09, -8.780468980493384e-13, -111866390.81947151, 12.973869083903814]}]

>  <H298_value>  (2) 
-222297.4867925601

>  <H298_units>  (2) 
kcal/mol

>  <S298_value>  (2) 
73.9411737411697

>  <S298_units>  (2) 
cal/(mol*K)

>  <Cp_T_value_list>  (2) 
[19.714224678024596, 24.07098335145581, 27.494528260710705, 30.131073959306597, 34.08931985412936, 36.72429865484936, 39.89295177294052, 41.227168239542124, 42.12831738656678]

>  <Cp_T_units>  (2) 
cal/(mol*K)

>  <T_list>  (2) 
[300.0, 400.0, 500.0, 600.0, 800.0, 1000.0, 1500.0, 2000.0, 2400.0]

>  <T_units>  (2) 
K

>  <yaml_path>  (2) 
/home/calvin/Dropbox/PersonalFolders/Calvin/Kfir_HAb_Converged/kfir_rxn_4836/output/Species/NtCc1cnno1/NtCc1cnno1.yml

>  <frequencies_cm1>  (2) 
[175.73988830943998, 177.94419059715997, 475.22285208527995, 537.28666540744, 579.5666940226799, 698.20759939632, 704.38788618432, 773.67576806312, 867.8702056975599, 991.3317347658398, 1055.0779594914, 1115.0061403790398, 1246.6050470515197, 1362.33435064948, 1456.7691327701198, 1607.7329380449999, 2377.60439624084, 3277.5983592653597]

>  <ZPE_kJmol>  (2) 
116.51607996356827

>  <E_elec_kJmol>  (2) 
-930225.22146956

>  <E0_minus_Eelec_plus_ZPE_kJmol>  (2) 
0.0

>  <rxn>  (2) 
kfir_rxn_4836

>  <species_type>  (2) 
p0

>  <species_folder>  (2) 
NtCc1cnno1

>  <frequencies_cm1_list>  (2) 
[175.73988830943998, 177.94419059715997, 475.22285208527995, 537.28666540744, 579.5666940226799, 698.20759939632, 704.38788618432, 773.67576806312, 867.8702056975599, 991.3317347658398, 1055.0779594914, 1115.0061403790398, 1246.6050470515197, 1362.33435064948, 1456.7691327701198, 1607.7329380449999, 2377.60439624084, 3277.5983592653597]

>  <E0_kJmol>  (2) 
-930109

>  <H298_kJmol>  (2) 
-930093

$$$$

     RDKit          3D

 13 12  0  0  0  0  0  0  0  0999 V2000
   -3.0527   -0.0000    1.2952 N   0  0  0  0  0  0  0  0  0  1  0  0
   -1.9238   -0.0000    1.4974 C   0  0  0  0  0  0  0  0  0  2  0  0
   -0.5258    0.0000    1.7233 C   0  0  0  0  0  0  0  0  0  3  0  0
    0.5402    0.0000    0.8929 C   0  0  0  0  0  0  0  0  0  4  0  0
    1.6538    0.0000    1.6644 N   0  0  0  0  0  0  0  0  0  5  0  0
    1.3323    0.0000    2.8752 N   0  0  0  0  0  0  0  0  0  6  0  0
   -0.0594    0.0000    2.9705 O   0  0  0  0  0  0  0  0  0  7  0  0
    0.4332    0.0000   -5.4876 C   0  0  0  0  0  0  0  0  0  8  0  0
    0.4724    0.0000   -4.2885 C   0  0  0  0  0  0  0  0  0  9  0  0
    0.5161    0.0000   -2.9178 C   0  0  0  0  0  0  0  0  0 10  0  0
    0.5641    0.0000   -1.7145 C   0  0  0  0  0  3  0  0  0 11  0  0
    0.3981    0.0000   -6.5511 H   0  0  0  0  0  0  0  0  0 12  0  0
    0.5735    0.0000   -0.3124 H   0  0  0  0  0  0  0  0  0 13  0  0
  1  2  1  0
  2  3  1  0
  3  4  1  0
  3  7  1  0
  4  5  1  0
  4 13  1  0
  5  6  1  0
  6  7  1  0
  8  9  1  0
  8 12  1  0
  9 10  1  0
 10 11  1  0
M  RAD  1  11   2
M  END
>  <rmg_smiles>  (3) 
[N][C][C]1[CH][N][N]O1.[C][C][C][CH]

>  <rmg_adjacency_list>  (3) 
multiplicity 2
1  O u0 p2 c0 {3,S} {5,S}
2  N u0 p1 c0 {3,S} {6,S}
3  N u0 p1 c0 {1,S} {2,S}
4  N u0 p2 c0 {7,S}
5  C u0 p0 c0 {1,S} {6,S} {7,S}
6  C u0 p0 c0 {2,S} {5,S} {12,S}
7  C u0 p1 c0 {4,S} {5,S}
8  C u0 p1 c0 {9,S} {10,S}
9  C u0 p1 c0 {8,S} {13,S}
10 C u0 p1 c0 {8,S} {11,S}
11 C u1 p1 c0 {10,S}
12 H u0 p0 c0 {6,S}
13 H u0 p0 c0 {9,S}


>  <multiplicity>  (3) 
2

>  <reaction>  (3) 
kfir_rxn_4836

>  <type>  (3) 
ts

>  <role_mapnums>  (3) 
{"*2": 13, "*1": 4, "*3": 11, "*0": 5, "*4": 10}

>  <role_mapidx>  (3) 
{"*2": 12, "*1": 3, "*3": 10, "*0": 4, "*4": 9}

>  <ordered_mapped_smiles>  (3) 
[NH2:1][CH2:2][CH:3]1[CH:4]([H:13])[NH:5][NH:6][O:7]1.[CH2:8]([CH2:9][CH2:10][CH2:11])[H:12]

>  <mol_properties>  (3) 
{"3": {"label": "*1", "atom_type": "Cs"}, "4": {"label": "*0", "atom_type": "N3s"}, "9": {"label": "*4", "atom_type": "C2s"}, "10": {"label": "*3", "atom_type": "C2s"}, "12": {"label": "*2", "atom_type": "H0"}}

>  <level_of_theory>  (3) 
wb97xd/def2tzvp

>  <lot_method>  (3) 
wb97xd

>  <lot_basis>  (3) 
def2tzvp

>  <spin_multiplicity>  (3) 
2.0

>  <optical_isomers>  (3) 
1.0

>  <modes>  (3) 
IdealGasTranslation(mass=(144.02, 'amu')),         NonlinearRotor(             inertia = ([248.231, 1163.26, 1411.48

>  <frequency_value>  (3) 
-1000.12

>  <frequency_units>  (3) 
cm^-1

>  <frequency_list>  (3) 
unknown

>  <arkane_path>  (3) 
/home/calvin/Dropbox/PersonalFolders/Calvin/Kfir_HAb_Converged/kfir_rxn_4836/output/rxns/TS0/arkane/output.py

>  <path_exists>  (3) 
True

>  <E0_value>  (3) 
-1331080.0

>  <E0_units>  (3) 
kJ/mol

>  <thermo_class>  (3) 
unknown

>  <Cp0_value>  (3) 
unknown

>  <Cp0_units>  (3) 
unknown

>  <CpInf_value>  (3) 
unknown

>  <CpInf_units>  (3) 
unknown

>  <Tmin_value>  (3) 
unknown

>  <Tmin_units>  (3) 
unknown

>  <Tmax_value>  (3) 
unknown

>  <Tmax_units>  (3) 
unknown

>  <polynomials>  (3) 
unknown

>  <H298_value>  (3) 
unknown

>  <H298_units>  (3) 
unknown

>  <S298_value>  (3) 
unknown

>  <S298_units>  (3) 
unknown

>  <Cp_T_value_list>  (3) 
unknown

>  <Cp_T_units>  (3) 
unknown

>  <T_list>  (3) 
unknown

>  <T_units>  (3) 
unknown

>  <yaml_path>  (3) 
unknown

>  <frequencies_cm1>  (3) 
unknown

>  <ZPE_kJmol>  (3) 
unknown

>  <E_elec_kJmol>  (3) 
unknown

>  <E0_minus_Eelec_plus_ZPE_kJmol>  (3) 
unknown

>  <rxn>  (3) 
unknown

>  <species_type>  (3) 
unknown

>  <species_folder>  (3) 
unknown

>  <frequencies_cm1_list>  (3) 
[]

>  <ts_imag_freq_cm1>  (3) 
-1012.2622

>  <ts_freq_out_path>  (3) 
/home/calvin/Dropbox/PersonalFolders/Calvin/Kfir_HAb_Converged/kfir_rxn_4836/output/rxns/TS0/geometry/freq.out

>  <E0_kJmol>  (3) 
-1.33108e+06

>  <H298_kJmol>  (3) 
unknown

$$$$

     RDKit          3D

  5  4  0  0  0  0  0  0  0  0999 V2000
    2.3632   -0.0065   -0.5643 C   0  0  0  0  0  3  0  0  0  1  0  0
    1.1658   -0.0032   -0.1166 C   0  0  0  0  0  0  0  0  0  2  0  0
   -0.0838    0.0002    0.3506 C   0  0  0  0  0  0  0  0  0  3  0  0
   -1.2239    0.0034    0.7769 C   0  0  0  0  0  0  0  0  0  4  0  0
   -2.2214    0.0061    1.1499 H   0  0  0  0  0  0  0  0  0  5  0  0
  1  2  1  0
  2  3  1  0
  3  4  1  0
  4  5  1  0
M  RAD  1   1   2
M  END
>  <rmg_smiles>  (4) 
[C]CC[CH]

>  <rmg_adjacency_list>  (4) 
multiplicity 2
1 C u0 p1 c0 {2,S} {3,S}
2 C u0 p1 c0 {1,S} {4,S}
3 C u0 p1 c0 {1,S} {5,S}
4 C u1 p1 c0 {2,S}
5 H u0 p0 c0 {3,S}


>  <multiplicity>  (4) 
2

>  <reaction>  (4) 
kfir_rxn_4836

>  <type>  (4) 
r1

>  <role_mapnums>  (4) 
{}

>  <role_mapidx>  (4) 
{}

>  <ordered_mapped_smiles>  (4) 
[CH2:1][CH2:2][CH2:3][CH2:4][H:5]

>  <level_of_theory>  (4) 
wb97xd/def2tzvp

>  <lot_method>  (4) 
wb97xd

>  <lot_basis>  (4) 
def2tzvp

>  <spin_multiplicity>  (4) 
2.0

>  <optical_isomers>  (4) 
1.0

>  <modes>  (4) 
IdealGasTranslation(mass=(49.0078, 'amu')),         LinearRotor(inertia=(107.363, 'amu*angstrom^2'), symmetry=1),         HarmonicOscillator(             frequencies = ([144.137, 212.647, 401.552, 511.333, 572.879, 732.161, 924.374, 1892.1, 2147.8, 3457.21

>  <frequency_value>  (4) 
unknown

>  <frequency_units>  (4) 
unknown

>  <frequency_list>  (4) 
unknown

>  <arkane_path>  (4) 
/home/calvin/Dropbox/PersonalFolders/Calvin/Kfir_HAb_Converged/kfir_rxn_4836/output/Species/_C_tCCtC/arkane/output.py

>  <path_exists>  (4) 
True

>  <E0_value>  (4) 
-401000.11457540176

>  <E0_units>  (4) 
kJ/mol

>  <thermo_class>  (4) 
NASA

>  <Cp0_value>  (4) 
29.100652

>  <Cp0_units>  (4) 
J/(mol*K)

>  <CpInf_value>  (4) 
112.245372

>  <CpInf_units>  (4) 
J/(mol*K)

>  <Tmin_value>  (4) 
10.0

>  <Tmin_units>  (4) 
K

>  <Tmax_value>  (4) 
3000.0

>  <Tmax_units>  (4) 
K

>  <polynomials>  (4) 
[{"name": "polynomial1", "class": "NASAPolynomial", "Tmin_value": 10.0, "Tmin_units": "K", "Tmax_value": 404.09934352514523, "Tmax_units": "K", "coeffs": [3.373157017563807, 0.009496826799362888, 7.716635066352239e-05, -2.6371957302079934e-07, 2.423619040305832e-10, -48229174.16664575, 7.870721860197879]}, {"name": "polynomial2", "class": "NASAPolynomial", "Tmin_value": 404.09934352514523, "Tmin_units": "K", "Tmax_value": 3000.0, "Tmax_units": "K", "coeffs": [5.21840241666266, 0.011811180775200623, -7.815127232738912e-06, 2.5056715479123407e-09, -3.083133629498555e-13, -48229491.3278972, -1.4386064027227092]}]

>  <H298_value>  (4) 
-95837.94709045067

>  <H298_units>  (4) 
kcal/mol

>  <S298_value>  (4) 
62.58867964791824

>  <S298_units>  (4) 
cal/(mol*K)

>  <Cp_T_value_list>  (4) 
[15.91728474975383, 17.57667440336746, 18.807221110254982, 19.85802086580923, 21.506113690195647, 22.67763125483129, 24.33720351451201, 25.222844284305214, 25.753022736014113]

>  <Cp_T_units>  (4) 
cal/(mol*K)

>  <T_list>  (4) 
[300.0, 400.0, 500.0, 600.0, 800.0, 1000.0, 1500.0, 2000.0, 2400.0]

>  <T_units>  (4) 
K

>  <yaml_path>  (4) 
/home/calvin/Dropbox/PersonalFolders/Calvin/Kfir_HAb_Converged/kfir_rxn_4836/output/Species/_C_tCCtC/_C_tCCtC.yml

>  <frequencies_cm1>  (4) 
[142.40754156615998, 210.09541586539996, 396.73320987768, 505.19724300708003, 566.00439801568, 723.37510059412, 913.28157961872, 1869.3994136636, 2122.0220696157594, 3415.72776897716]

>  <ZPE_kJmol>  (4) 
64.98262701416739

>  <E_elec_kJmol>  (4) 
-401065.0972024159

>  <E0_minus_Eelec_plus_ZPE_kJmol>  (4) 
0.0

>  <rxn>  (4) 
kfir_rxn_4836

>  <species_type>  (4) 
p1

>  <species_folder>  (4) 
_C_tCCtC

>  <frequencies_cm1_list>  (4) 
[142.40754156615998, 210.09541586539996, 396.73320987768, 505.19724300708003, 566.00439801568, 723.37510059412, 913.28157961872, 1869.3994136636, 2122.0220696157594, 3415.72776897716]

>  <E0_kJmol>  (4) 
-401000

>  <H298_kJmol>  (4) 
-400986

$$$$

     RDKit          3D

  7  7  0  0  0  0  0  0  0  0999 V2000
    2.7823   -0.0018    0.7222 N   0  0  0  0  0  0  0  0  0  1  0  0
    1.6508    0.0255    0.5366 C   0  0  0  0  0  0  0  0  0  2  0  0
    0.2560    0.0785    0.3071 C   0  0  0  0  0  0  0  0  0  3  0  0
   -0.6261    1.0849    0.1233 C   0  0  0  0  0  0  0  0  0  4  0  0
   -1.8411    0.5642   -0.0542 N   0  0  0  0  0  0  0  0  0  5  0  0
   -1.7715   -0.6951    0.0072 N   0  0  0  0  0  2  0  0  0  6  0  0
   -0.4504   -1.0562    0.2369 O   0  0  0  0  0  0  0  0  0  7  0  0
  1  2  1  0
  2  3  1  0
  3  4  1  0
  3  7  1  0
  4  5  1  0
  5  6  1  0
  6  7  1  0
M  RAD  1   6   2
M  END
>  <rmg_smiles>  (5) 
[N][C][C]1[C][N][N]O1

>  <rmg_adjacency_list>  (5) 
multiplicity 2
1 O u0 p2 c0 {2,S} {5,S}
2 N u1 p1 c0 {1,S} {3,S}
3 N u0 p1 c0 {2,S} {6,S}
4 N u0 p2 c0 {7,S}
5 C u0 p0 c0 {1,S} {6,S} {7,S}
6 C u0 p1 c0 {3,S} {5,S}
7 C u0 p1 c0 {4,S} {5,S}


>  <multiplicity>  (5) 
2

>  <reaction>  (5) 
kfir_rxn_4836

>  <type>  (5) 
r2

>  <role_mapnums>  (5) 
{}

>  <role_mapidx>  (5) 
{}

>  <ordered_mapped_smiles>  (5) 
[NH2:1][CH2:2][CH:3]1[CH2:4][NH:5][N:6][O:7]1

>  <level_of_theory>  (5) 
wb97xd/def2tzvp

>  <lot_method>  (5) 
wb97xd

>  <lot_basis>  (5) 
def2tzvp

>  <spin_multiplicity>  (5) 
2.0

>  <optical_isomers>  (5) 
1.0

>  <modes>  (5) 
IdealGasTranslation(mass=(94.0041, 'amu')),         NonlinearRotor(             inertia = ([43.0967, 247.525, 290.621

>  <frequency_value>  (5) 
unknown

>  <frequency_units>  (5) 
unknown

>  <frequency_list>  (5) 
unknown

>  <arkane_path>  (5) 
/home/calvin/Dropbox/PersonalFolders/Calvin/Kfir_HAb_Converged/kfir_rxn_4836/output/Species/NtCC1=_C_N=NO1/arkane/output.py

>  <path_exists>  (5) 
True

>  <E0_value>  (5) 
-928281.9907349778

>  <E0_units>  (5) 
kJ/mol

>  <thermo_class>  (5) 
NASA

>  <Cp0_value>  (5) 
33.257888

>  <Cp0_units>  (5) 
J/(mol*K)

>  <CpInf_value>  (5) 
157.97496800000002

>  <CpInf_units>  (5) 
J/(mol*K)

>  <Tmin_value>  (5) 
10.0

>  <Tmin_units>  (5) 
K

>  <Tmax_value>  (5) 
3000.0

>  <Tmax_units>  (5) 
K

>  <polynomials>  (5) 
[{"name": "polynomial1", "class": "NASAPolynomial", "Tmin_value": 10.0, "Tmin_units": "K", "Tmax_value": 538.1112566984265, "Tmax_units": "K", "coeffs": [3.9098687465659943, 0.005501238734159233, 9.372065093598977e-05, -2.0017821641565526e-07, 1.260324270197639e-10, -111646531.40994972, 11.20874469407376]}, {"name": "polynomial2", "class": "NASAPolynomial", "Tmin_value": 538.1112566984265, "Tmin_units": "K", "Tmax_value": 3000.0, "Tmax_units": "K", "coeffs": [3.6252906742507114, 0.026847013691607382, -1.9386531172705342e-05, 6.362004289317388e-09, -7.776970577632394e-13, -111646779.2041891, 9.818296847313443]}]

>  <H298_value>  (5) 
-221860.9359169384

>  <H298_units>  (5) 
kcal/mol

>  <S298_value>  (5) 
75.0509313939003

>  <S298_units>  (5) 
cal/(mol*K)

>  <Cp_T_value_list>  (5) 
[19.099339298028806, 22.89399537151057, 25.72518400012143, 27.876038089985972, 31.06862861817313, 33.12689219143729, 35.39371607465557, 36.21897424396399, 36.83869376071936]

>  <Cp_T_units>  (5) 
cal/(mol*K)

>  <T_list>  (5) 
[300.0, 400.0, 500.0, 600.0, 800.0, 1000.0, 1500.0, 2000.0, 2400.0]

>  <T_units>  (5) 
K

>  <yaml_path>  (5) 
/home/calvin/Dropbox/PersonalFolders/Calvin/Kfir_HAb_Converged/kfir_rxn_4836/output/Species/NtCC1=_C_N=NO1/NtCC1=_C_N=NO1.yml

>  <frequencies_cm1>  (5) 
[173.7690635226, 178.44548052552, 468.28719691208, 538.0695017339199, 577.0671113662, 674.13881584972, 692.45306569816, 793.1848733572399, 941.4774213426399, 1051.30798455072, 1198.72155841516, 1288.0267025017602, 1382.2211401362, 1570.80915797936, 2379.08079808464]

>  <ZPE_kJmol>  (5) 
83.18271442404573

>  <E_elec_kJmol>  (5) 
-928365.173449402

>  <E0_minus_Eelec_plus_ZPE_kJmol>  (5) 
0.0

>  <rxn>  (5) 
kfir_rxn_4836

>  <species_type>  (5) 
r0

>  <species_folder>  (5) 
NtCC1=_C_N=NO1

>  <frequencies_cm1_list>  (5) 
[173.7690635226, 178.44548052552, 468.28719691208, 538.0695017339199, 577.0671113662, 674.13881584972, 692.45306569816, 793.1848733572399, 941.4774213426399, 1051.30798455072, 1198.72155841516, 1288.0267025017602, 1382.2211401362, 1570.80915797936, 2379.08079808464]

>  <E0_kJmol>  (5) 
-928282

>  <H298_kJmol>  (5) 
-928266

$$$$
