
     RDKit          3D

  7  7  0  0  0  0  0  0  0  0999 V2000
   -0.1518    0.4353    0.6599 C   0  0  0  0  0  0  0  0  0  1  0  0
   -0.4348   -0.7358   -0.1453 C   0  0  0  0  0  0  0  0  0  2  0  0
    0.5269    0.2916   -0.5075 O   0  0  0  0  0  0  0  0  0  3  0  0
    0.4869    0.1503    1.4929 H   0  0  0  0  0  0  0  0  0  4  0  0
   -0.7519    1.3232    0.8464 H   0  0  0  0  0  0  0  0  0  5  0  0
    0.0191   -1.6798    0.1368 H   0  0  0  0  0  0  0  0  0  6  0  0
   -1.3114   -0.7643   -0.7826 H   0  0  0  0  0  0  0  0  0  7  0  0
  1  3  1  0
  1  5  1  0
  1  4  1  0
  1  2  1  0
  2  7  1  0
  2  3  1  0
  2  6  1  0
M  END
>  <rmg_smiles>  (1) 
C1CO1

>  <rmg_adjacency_list>  (1) 
1 O u0 p2 c0 {2,S} {3,S}
2 C u0 p0 c0 {1,S} {3,S} {4,S} {5,S}
3 C u0 p0 c0 {1,S} {2,S} {6,S} {7,S}
4 H u0 p0 c0 {2,S}
5 H u0 p0 c0 {2,S}
6 H u0 p0 c0 {3,S}
7 H u0 p0 c0 {3,S}


>  <multiplicity>  (1) 
1

>  <reaction>  (1) 
kfir_rxn_679

>  <type>  (1) 
r1h

>  <role_mapnums>  (1) 
{"r1h_a": 1, "r1h_h": 4}

>  <role_mapidx>  (1) 
{"r1h_a": 0, "r1h_h": 3}

>  <ordered_mapped_smiles>  (1) 
[C:1]1([H:4])([H:5])[C:2]([H:6])([H:7])[O:3]1

>  <mol_properties>  (1) 
{"0": {"label": "donator", "atom_type": "Cs"}, "3": {"label": "d_hydrogen", "atom_type": "H0"}}

>  <level_of_theory>  (1) 
wb97xd/def2tzvp

>  <lot_method>  (1) 
wb97xd

>  <lot_basis>  (1) 
def2tzvp

>  <spin_multiplicity>  (1) 
1.0

>  <optical_isomers>  (1) 
1.0

>  <modes>  (1) 
IdealGasTranslation(mass=(44.0262, 'amu')),         NonlinearRotor(             inertia = ([19.3349, 22.6213, 35.1481

>  <frequency_value>  (1) 
unknown

>  <frequency_units>  (1) 
unknown

>  <frequency_list>  (1) 
unknown

>  <arkane_path>  (1) 
/home/calvin/Dropbox/PersonalFolders/Calvin/Kfir_HAb_Converged/kfir_rxn_679/output/Species/C1CO1/arkane/output.py

>  <path_exists>  (1) 
True

>  <E0_value>  (1) 
-403134.82876721246

>  <E0_units>  (1) 
kJ/mol

>  <thermo_class>  (1) 
NASA

>  <Cp0_value>  (1) 
33.257888

>  <Cp0_units>  (1) 
J/(mol*K)

>  <CpInf_value>  (1) 
157.97496800000002

>  <CpInf_units>  (1) 
J/(mol*K)

>  <Tmin_value>  (1) 
10.0

>  <Tmin_units>  (1) 
K

>  <Tmax_value>  (1) 
3000.0

>  <Tmax_units>  (1) 
K

>  <polynomials>  (1) 
[{"name": "polynomial1", "class": "NASAPolynomial", "Tmin_value": 10.0, "Tmin_units": "K", "Tmax_value": 765.3196649017267, "Tmax_units": "K", "coeffs": [4.157632094553427, -0.010713228354430716, 7.905647872829959e-05, -9.802046937249177e-08, 3.962688743524427e-11, -48485924.512081616, 5.894523543063067]}, {"name": "polynomial2", "class": "NASAPolynomial", "Tmin_value": 765.3196649017267, "Tmin_units": "K", "Tmax_value": 3000.0, "Tmax_units": "K", "coeffs": [-0.3695677459692966, 0.024993906623418535, -1.4536812451109882e-05, 4.073545795554596e-09, -4.411138126492809e-13, -48485584.31883677, 24.220150073627728]}]

>  <H298_value>  (1) 
-96348.98878298597

>  <H298_units>  (1) 
kcal/mol

>  <S298_value>  (1) 
57.85182190726364

>  <S298_units>  (1) 
cal/(mol*K)

>  <Cp_T_value_list>  (1) 
[11.392996250077998, 14.43211826888243, 17.466073403472617, 20.176605699964774, 24.297519862432992, 27.264390543697267, 31.653303321259223, 33.78557291767529, 34.89806441490107]

>  <Cp_T_units>  (1) 
cal/(mol*K)

>  <T_list>  (1) 
[300.0, 400.0, 500.0, 600.0, 800.0, 1000.0, 1500.0, 2000.0, 2400.0]

>  <T_units>  (1) 
K

>  <yaml_path>  (1) 
/home/calvin/Dropbox/PersonalFolders/Calvin/Kfir_HAb_Converged/kfir_rxn_679/output/Species/C1CO1/C1CO1.yml

>  <frequencies_cm1>  (1) 
[819.6227668392398, 892.4265452018799, 910.7133271090399, 1047.24272924128, 1160.0535640782398, 1160.20463775528, 1167.0922240312398, 1171.85791184332, 1311.1135071475999, 1493.8439865128, 1537.13346197008, 3070.72355951504, 3078.44891800004, 3154.15056416772, 3169.1961290038394]

>  <ZPE_kJmol>  (1) 
150.3935078035486

>  <E_elec_kJmol>  (1) 
-403285.222275016

>  <E0_minus_Eelec_plus_ZPE_kJmol>  (1) 
0.0

>  <rxn>  (1) 
kfir_rxn_679

>  <species_type>  (1) 
r1

>  <species_folder>  (1) 
C1CO1

>  <frequencies_cm1_list>  (1) 
[819.6227668392398, 892.4265452018799, 910.7133271090399, 1047.24272924128, 1160.0535640782398, 1160.20463775528, 1167.0922240312398, 1171.85791184332, 1311.1135071475999, 1493.8439865128, 1537.13346197008, 3070.72355951504, 3078.44891800004, 3154.15056416772, 3169.1961290038394]

>  <E0_kJmol>  (1) 
-403135

>  <H298_kJmol>  (1) 
-403124

$$$$

     RDKit          3D

  8  8  0  0  0  0  0  0  0  0999 V2000
    1.2618   -1.3647    0.5220 N   0  0  0  0  0  0  0  0  0  1  0  0
    0.7782   -0.1642    0.8777 N   0  0  0  0  0  0  0  0  0  2  0  0
   -0.1342    0.3537    0.1144 C   0  0  0  0  0  0  0  0  0  3  0  0
   -0.8006    1.8825    0.5134 Cl  0  0  0  0  0  0  0  0  0  4  0  0
   -0.5746   -0.2677   -0.9755 N   0  0  0  0  0  0  0  0  0  5  0  0
   -0.1187   -1.4448   -1.3540 C   0  0  0  0  0  2  0  0  0  6  0  0
    0.8515   -1.9890   -0.5210 N   0  0  0  0  0  0  0  0  0  7  0  0
   -1.2742    0.1879   -1.5957 H   0  0  0  0  0  0  0  0  0  8  0  0
  1  2  1  0
  1  7  1  0
  2  3  1  0
  3  5  1  0
  3  4  1  0
  5  6  1  0
  5  8  1  0
  6  7  1  0
M  RAD  1   6   3
M  END
>  <rmg_smiles>  (2) 
Cl[C]1N[C][N][N][N]1

>  <rmg_adjacency_list>  (2) 
1 Cl u0 p3 c0 {6,S}
2 N  u0 p1 c0 {6,S} {7,S} {8,S}
3 N  u0 p1 c0 {4,S} {6,S}
4 N  u0 p1 c0 {3,S} {5,S}
5 N  u0 p1 c0 {4,S} {7,S}
6 C  u0 p0 c0 {1,S} {2,S} {3,S}
7 C  u0 p1 c0 {2,S} {5,S}
8 H  u0 p0 c0 {2,S}


>  <multiplicity>  (2) 
1

>  <reaction>  (2) 
kfir_rxn_679

>  <type>  (2) 
r2h

>  <role_mapnums>  (2) 
{"r2h_a": 5, "r2h_h": 8}

>  <role_mapidx>  (2) 
{"r2h_a": 4, "r2h_h": 7}

>  <ordered_mapped_smiles>  (2) 
[NH:1]1[NH:2][CH:3]([Cl:4])[N:5]([H:8])[C:6][NH:7]1

>  <mol_properties>  (2) 
{"4": {"label": "acceptor", "atom_type": "N3s"}, "7": {"label": "a_hydrogen", "atom_type": "H0"}}

>  <level_of_theory>  (2) 
wb97xd/def2tzvp

>  <lot_method>  (2) 
wb97xd

>  <lot_basis>  (2) 
def2tzvp

>  <spin_multiplicity>  (2) 
1.0

>  <optical_isomers>  (2) 
1.0

>  <modes>  (2) 
IdealGasTranslation(mass=(115.989, 'amu')),         NonlinearRotor(             inertia = ([77.0808, 294.414, 371.496

>  <frequency_value>  (2) 
unknown

>  <frequency_units>  (2) 
unknown

>  <frequency_list>  (2) 
unknown

>  <arkane_path>  (2) 
/home/calvin/Dropbox/PersonalFolders/Calvin/Kfir_HAb_Converged/kfir_rxn_679/output/Species/_N-_1N=C[Cl]NCt_Np_1/arkane/output.py

>  <path_exists>  (2) 
True

>  <E0_value>  (2) 
-1982248.668600269

>  <E0_units>  (2) 
kJ/mol

>  <thermo_class>  (2) 
NASA

>  <Cp0_value>  (2) 
33.257888

>  <Cp0_units>  (2) 
J/(mol*K)

>  <CpInf_value>  (2) 
182.918384

>  <CpInf_units>  (2) 
J/(mol*K)

>  <Tmin_value>  (2) 
10.0

>  <Tmin_units>  (2) 
K

>  <Tmax_value>  (2) 
3000.0

>  <Tmax_units>  (2) 
K

>  <polynomials>  (2) 
[{"name": "polynomial1", "class": "NASAPolynomial", "Tmin_value": 10.0, "Tmin_units": "K", "Tmax_value": 509.9352674974639, "Tmax_units": "K", "coeffs": [3.891001681586546, 0.006911648148815334, 0.00011260385157820801, -2.512490442685576e-07, 1.6601813465097517e-10, -238409442.9324948, 11.750710339315837]}, {"name": "polynomial2", "class": "NASAPolynomial", "Tmin_value": 509.9352674974639, "Tmin_units": "K", "Tmax_value": 3000.0, "Tmax_units": "K", "coeffs": [3.4542137968160653, 0.031614729216268886, -2.264843294423776e-05, 7.397150928162962e-09, -8.999021435717554e-13, -238409675.0210968, 10.851340031323394]}]

>  <H298_value>  (2) 
-473764.736225527

>  <H298_units>  (2) 
kcal/mol

>  <S298_value>  (2) 
77.67714315976811

>  <S298_units>  (2) 
cal/(mol*K)

>  <Cp_T_value_list>  (2) 
[21.183353948764758, 25.520505949525017, 28.75048938818334, 31.30003800254578, 35.113425065208006, 37.59349337707115, 40.393873569548454, 41.470443293874915, 42.28022527079792]

>  <Cp_T_units>  (2) 
cal/(mol*K)

>  <T_list>  (2) 
[300.0, 400.0, 500.0, 600.0, 800.0, 1000.0, 1500.0, 2000.0, 2400.0]

>  <T_units>  (2) 
K

>  <yaml_path>  (2) 
/home/calvin/Dropbox/PersonalFolders/Calvin/Kfir_HAb_Converged/kfir_rxn_679/output/Species/_N-_1N=C[Cl]NCt_Np_1/_N-_1N=CClNCt_Np_1.yml

>  <frequencies_cm1>  (2) 
[88.50857378947998, 214.56582330871998, 306.49415578756, 434.89991428624, 458.42620599256, 669.8812849513199, 766.3418277413599, 773.71010298972, 866.1465923822399, 868.6118401121199, 1042.5869131943198, 1091.21890323056, 1185.70175424844, 1257.11840157644, 1310.735822955, 1509.5281809836797, 1599.0324676445598, 3539.42277554632]

>  <ZPE_kJmol>  (2) 
107.56184791245856

>  <E_elec_kJmol>  (2) 
-1982356.2304481813

>  <E0_minus_Eelec_plus_ZPE_kJmol>  (2) 
0.0

>  <rxn>  (2) 
kfir_rxn_679

>  <species_type>  (2) 
p0

>  <species_folder>  (2) 
_N-_1N=C[Cl]NCt_Np_1

>  <frequencies_cm1_list>  (2) 
[88.50857378947998, 214.56582330871998, 306.49415578756, 434.89991428624, 458.42620599256, 669.8812849513199, 766.3418277413599, 773.71010298972, 866.1465923822399, 868.6118401121199, 1042.5869131943198, 1091.21890323056, 1185.70175424844, 1257.11840157644, 1310.735822955, 1509.5281809836797, 1599.0324676445598, 3539.42277554632]

>  <E0_kJmol>  (2) 
-1.98225e+06

>  <H298_kJmol>  (2) 
-1.98223e+06

$$$$

     RDKit          3D

 14 14  0  0  0  0  0  0  0  0999 V2000
    1.7227   -1.5072    1.5848 N   0  0  0  0  0  0  0  0  0  1  0  0
    1.2390   -0.3067    1.9404 N   0  0  0  0  0  0  0  0  0  2  0  0
    0.3266    0.2111    1.1771 C   0  0  0  0  0  0  0  0  0  3  0  0
   -0.3397    1.7400    1.5762 Cl  0  0  0  0  0  0  0  0  0  4  0  0
   -0.1138   -0.4102    0.0873 N   0  0  0  0  0  0  0  0  0  5  0  0
    0.3422   -1.5873   -0.2912 C   0  0  0  0  0  0  0  0  0  6  0  0
    1.3123   -2.1315    0.5418 N   0  0  0  0  0  0  0  0  0  7  0  0
   -1.7602    0.4943   -1.7140 C   0  0  0  0  0  3  0  0  0  8  0  0
   -2.0432   -0.6769   -2.5192 C   0  0  0  0  0  0  0  0  0  9  0  0
   -1.0815    0.3506   -2.8814 O   0  0  0  0  0  0  0  0  0 10  0  0
   -0.9422    0.1293   -0.6472 H   0  0  0  0  0  0  0  0  0 11  0  0
   -2.3603    1.3821   -1.5274 H   0  0  0  0  0  0  0  0  0 12  0  0
   -1.5893   -1.6209   -2.2371 H   0  0  0  0  0  0  0  0  0 13  0  0
   -2.9198   -0.7053   -3.1565 H   0  0  0  0  0  0  0  0  0 14  0  0
  1  2  1  0
  1  7  1  0
  2  3  1  0
  3  5  1  0
  3  4  1  0
  5 11  1  0
  5  6  1  0
  6  7  1  0
  8  9  1  0
  8 10  1  0
  8 12  1  0
  9 10  1  0
  9 14  1  0
  9 13  1  0
M  RAD  1   8   2
M  END
>  <rmg_smiles>  (3) 
O1C[CH]1.Cl[C]1N[C][N][N][N]1

>  <rmg_adjacency_list>  (3) 
multiplicity 2
1  Cl u0 p3 c0 {9,S}
2  O  u0 p2 c0 {7,S} {8,S}
3  N  u0 p1 c0 {9,S} {10,S} {14,S}
4  N  u0 p1 c0 {5,S} {9,S}
5  N  u0 p1 c0 {4,S} {6,S}
6  N  u0 p1 c0 {5,S} {10,S}
7  C  u0 p0 c0 {2,S} {8,S} {11,S} {12,S}
8  C  u1 p0 c0 {2,S} {7,S} {13,S}
9  C  u0 p0 c0 {1,S} {3,S} {4,S}
10 C  u0 p1 c0 {3,S} {6,S}
11 H  u0 p0 c0 {7,S}
12 H  u0 p0 c0 {7,S}
13 H  u0 p0 c0 {8,S}
14 H  u0 p0 c0 {3,S}


>  <multiplicity>  (3) 
2

>  <reaction>  (3) 
kfir_rxn_679

>  <type>  (3) 
ts

>  <role_mapnums>  (3) 
{"*2": 11, "*1": 8, "*3": 5, "*0": 3, "*4": 10}

>  <role_mapidx>  (3) 
{"*2": 10, "*1": 7, "*3": 4, "*0": 2, "*4": 9}

>  <ordered_mapped_smiles>  (3) 
[NH:1]1[NH:2][CH:3]([Cl:4])[N:5]([H:11])[CH2:6][NH:7]1.[C:8]1([H:12])[C:9]([H:13])([H:14])[O:10]1

>  <mol_properties>  (3) 
{"2": {"label": "*0", "atom_type": "Cs"}, "4": {"label": "*3", "atom_type": "N3s"}, "7": {"label": "*1", "atom_type": "Cs"}, "9": {"label": "*4", "atom_type": "O2s"}, "10": {"label": "*2", "atom_type": "H0"}}

>  <level_of_theory>  (3) 
wb97xd/def2tzvp

>  <lot_method>  (3) 
wb97xd

>  <lot_basis>  (3) 
def2tzvp

>  <spin_multiplicity>  (3) 
2.0

>  <optical_isomers>  (3) 
2.0

>  <modes>  (3) 
IdealGasTranslation(mass=(159.007, 'amu')),         NonlinearRotor(             inertia = ([322.835, 616.534, 905.259

>  <frequency_value>  (3) 
-2064.5

>  <frequency_units>  (3) 
cm^-1

>  <frequency_list>  (3) 
unknown

>  <arkane_path>  (3) 
/home/calvin/Dropbox/PersonalFolders/Calvin/Kfir_HAb_Converged/kfir_rxn_679/output/rxns/TS0/arkane/output.py

>  <path_exists>  (3) 
True

>  <E0_value>  (3) 
-2383630.0

>  <E0_units>  (3) 
kJ/mol

>  <thermo_class>  (3) 
unknown

>  <Cp0_value>  (3) 
unknown

>  <Cp0_units>  (3) 
unknown

>  <CpInf_value>  (3) 
unknown

>  <CpInf_units>  (3) 
unknown

>  <Tmin_value>  (3) 
unknown

>  <Tmin_units>  (3) 
unknown

>  <Tmax_value>  (3) 
unknown

>  <Tmax_units>  (3) 
unknown

>  <polynomials>  (3) 
unknown

>  <H298_value>  (3) 
unknown

>  <H298_units>  (3) 
unknown

>  <S298_value>  (3) 
unknown

>  <S298_units>  (3) 
unknown

>  <Cp_T_value_list>  (3) 
unknown

>  <Cp_T_units>  (3) 
unknown

>  <T_list>  (3) 
unknown

>  <T_units>  (3) 
unknown

>  <yaml_path>  (3) 
unknown

>  <frequencies_cm1>  (3) 
unknown

>  <ZPE_kJmol>  (3) 
unknown

>  <E_elec_kJmol>  (3) 
unknown

>  <E0_minus_Eelec_plus_ZPE_kJmol>  (3) 
unknown

>  <rxn>  (3) 
unknown

>  <species_type>  (3) 
unknown

>  <species_folder>  (3) 
unknown

>  <frequencies_cm1_list>  (3) 
[]

>  <ts_imag_freq_cm1>  (3) 
-2089.5743

>  <ts_freq_out_path>  (3) 
/home/calvin/Dropbox/PersonalFolders/Calvin/Kfir_HAb_Converged/kfir_rxn_679/output/rxns/TS0/geometry/freq.out

>  <E0_kJmol>  (3) 
-2.38363e+06

>  <H298_kJmol>  (3) 
unknown

$$$$

     RDKit          3D

  6  6  0  0  0  0  0  0  0  0999 V2000
    0.8244   -0.2363   -0.2765 C   0  0  0  0  0  3  0  0  0  1  0  0
   -0.5734    0.0492   -0.0604 C   0  0  0  0  0  0  0  0  0  2  0  0
    0.2695   -0.6651    0.8832 O   0  0  0  0  0  0  0  0  0  3  0  0
    1.7087    0.3935   -0.2928 H   0  0  0  0  0  0  0  0  0  4  0  0
   -0.9043    1.0205    0.2951 H   0  0  0  0  0  0  0  0  0  5  0  0
   -1.3249   -0.5618   -0.5486 H   0  0  0  0  0  0  0  0  0  6  0  0
  1  3  1  0
  1  4  1  0
  1  2  1  0
  2  5  1  0
  2  3  1  0
  2  6  1  0
M  RAD  1   1   2
M  END
>  <rmg_smiles>  (4) 
[CH]1CO1

>  <rmg_adjacency_list>  (4) 
multiplicity 2
1 O u0 p2 c0 {2,S} {3,S}
2 C u0 p0 c0 {1,S} {3,S} {4,S} {5,S}
3 C u1 p0 c0 {1,S} {2,S} {6,S}
4 H u0 p0 c0 {2,S}
5 H u0 p0 c0 {2,S}
6 H u0 p0 c0 {3,S}


>  <multiplicity>  (4) 
2

>  <reaction>  (4) 
kfir_rxn_679

>  <type>  (4) 
r1

>  <role_mapnums>  (4) 
{}

>  <role_mapidx>  (4) 
{}

>  <ordered_mapped_smiles>  (4) 
[C:1]1([H:4])[C:2]([H:5])([H:6])[O:3]1

>  <level_of_theory>  (4) 
wb97xd/def2tzvp

>  <lot_method>  (4) 
wb97xd

>  <lot_basis>  (4) 
def2tzvp

>  <spin_multiplicity>  (4) 
2.0

>  <optical_isomers>  (4) 
2.0

>  <modes>  (4) 
IdealGasTranslation(mass=(43.0184, 'amu')),         NonlinearRotor(             inertia = ([16.6256, 21.0054, 33.2991

>  <frequency_value>  (4) 
unknown

>  <frequency_units>  (4) 
unknown

>  <frequency_list>  (4) 
unknown

>  <arkane_path>  (4) 
/home/calvin/Dropbox/PersonalFolders/Calvin/Kfir_HAb_Converged/kfir_rxn_679/output/Species/_CH_1CO1/arkane/output.py

>  <path_exists>  (4) 
True

>  <E0_value>  (4) 
-401393.6935984024

>  <E0_units>  (4) 
kJ/mol

>  <thermo_class>  (4) 
NASA

>  <Cp0_value>  (4) 
33.257888

>  <Cp0_units>  (4) 
J/(mol*K)

>  <CpInf_value>  (4) 
133.031552

>  <CpInf_units>  (4) 
J/(mol*K)

>  <Tmin_value>  (4) 
10.0

>  <Tmin_units>  (4) 
K

>  <Tmax_value>  (4) 
3000.0

>  <Tmax_units>  (4) 
K

>  <polynomials>  (4) 
[{"name": "polynomial1", "class": "NASAPolynomial", "Tmin_value": 10.0, "Tmin_units": "K", "Tmax_value": 721.5513458630669, "Tmax_units": "K", "coeffs": [4.131880489467827, -0.009415725856436158, 7.31226071463409e-05, -9.711807937437085e-08, 4.203251087642512e-11, -48276512.98126936, 7.809877910253214]}, {"name": "polynomial2", "class": "NASAPolynomial", "Tmin_value": 721.5513458630669, "Tmin_units": "K", "Tmax_value": 3000.0, "Tmax_units": "K", "coeffs": [0.8212225728670555, 0.020286402452183078, -1.2216968009151599e-05, 3.5287271120022773e-09, -3.918358614694587e-13, -48276330.657774836, 20.654204905665793]}]

>  <H298_value>  (4) 
-95932.84382672553

>  <H298_units>  (4) 
kcal/mol

>  <S298_value>  (4) 
61.63651229301641

>  <S298_units>  (4) 
cal/(mol*K)

>  <Cp_T_value_list>  (4) 
[11.141218739924065, 13.762761265270155, 16.27907911772644, 18.434304836877708, 21.61623083220754, 23.90122210561473, 27.201743412874084, 28.78786282152739, 29.648729205023308]

>  <Cp_T_units>  (4) 
cal/(mol*K)

>  <T_list>  (4) 
[300.0, 400.0, 500.0, 600.0, 800.0, 1000.0, 1500.0, 2000.0, 2400.0]

>  <T_units>  (4) 
K

>  <yaml_path>  (4) 
/home/calvin/Dropbox/PersonalFolders/Calvin/Kfir_HAb_Converged/kfir_rxn_679/output/Species/_CH_1CO1/_CH_1CO1.yml

>  <frequencies_cm1>  (4) 
[797.9024922720799, 825.04081825672, 955.9667603678399, 1045.97233695708, 1074.21624757824, 1129.33067175656, 1192.11551853732, 1366.2622662525198, 1518.46899587032, 3079.02574476692, 3123.4345388313595, 3172.04592791164]

>  <ZPE_kJmol>  (4) 
115.31874038024918

>  <E_elec_kJmol>  (4) 
-401509.0123387826

>  <E0_minus_Eelec_plus_ZPE_kJmol>  (4) 
0.0

>  <rxn>  (4) 
kfir_rxn_679

>  <species_type>  (4) 
p1

>  <species_folder>  (4) 
_CH_1CO1

>  <frequencies_cm1_list>  (4) 
[797.9024922720799, 825.04081825672, 955.9667603678399, 1045.97233695708, 1074.21624757824, 1129.33067175656, 1192.11551853732, 1366.2622662525198, 1518.46899587032, 3079.02574476692, 3123.4345388313595, 3172.04592791164]

>  <E0_kJmol>  (4) 
-401394

>  <H298_kJmol>  (4) 
-401383

$$$$

     RDKit          3D

  7  7  0  0  0  0  0  0  0  0999 V2000
   -1.0734   -1.1219   -0.4060 N   0  0  0  0  0  2  0  0  0  1  0  0
    0.2044   -1.1420   -0.2116 N   0  0  0  0  0  0  0  0  0  2  0  0
    0.8470    0.0138   -0.0144 C   0  0  0  0  0  0  0  0  0  3  0  0
    2.5288   -0.0766    0.2360 Cl  0  0  0  0  0  0  0  0  0  4  0  0
    0.2573    1.1926   -0.0044 N   0  0  0  0  0  0  0  0  0  5  0  0
   -1.0196    1.0979   -0.2084 C   0  0  0  0  0  0  0  0  0  6  0  0
   -1.7445    0.0362   -0.4102 N   0  0  0  0  0  0  0  0  0  7  0  0
  1  2  1  0
  1  7  1  0
  2  3  1  0
  3  5  1  0
  3  4  1  0
  5  6  1  0
  6  7  1  0
M  RAD  1   1   2
M  END
>  <rmg_smiles>  (5) 
Cl[C]1[N][C][N][N][N]1

>  <rmg_adjacency_list>  (5) 
multiplicity 2
1 Cl u0 p3 c0 {6,S}
2 N  u0 p1 c0 {4,S} {6,S}
3 N  u0 p1 c0 {6,S} {7,S}
4 N  u1 p1 c0 {2,S} {5,S}
5 N  u0 p1 c0 {4,S} {7,S}
6 C  u0 p0 c0 {1,S} {2,S} {3,S}
7 C  u0 p1 c0 {3,S} {5,S}


>  <multiplicity>  (5) 
2

>  <reaction>  (5) 
kfir_rxn_679

>  <type>  (5) 
r2

>  <role_mapnums>  (5) 
{}

>  <role_mapidx>  (5) 
{}

>  <ordered_mapped_smiles>  (5) 
[N:1]1[NH:2][CH:3]([Cl:4])[NH:5][CH2:6][NH:7]1

>  <level_of_theory>  (5) 
wb97xd/def2tzvp

>  <lot_method>  (5) 
wb97xd

>  <lot_basis>  (5) 
def2tzvp

>  <spin_multiplicity>  (5) 
2.0

>  <optical_isomers>  (5) 
1.0

>  <modes>  (5) 
IdealGasTranslation(mass=(114.981, 'amu')),         NonlinearRotor(             inertia = ([70.8691, 286.771, 357.639

>  <frequency_value>  (5) 
unknown

>  <frequency_units>  (5) 
unknown

>  <frequency_list>  (5) 
unknown

>  <arkane_path>  (5) 
/home/calvin/Dropbox/PersonalFolders/Calvin/Kfir_HAb_Converged/kfir_rxn_679/output/Species/_N-_1N=C[Cl]_N_Ct_Np_1/arkane/output.py

>  <path_exists>  (5) 
True

>  <E0_value>  (5) 
-1980688.473780571

>  <E0_units>  (5) 
kJ/mol

>  <thermo_class>  (5) 
NASA

>  <Cp0_value>  (5) 
33.257888

>  <Cp0_units>  (5) 
J/(mol*K)

>  <CpInf_value>  (5) 
157.97496800000002

>  <CpInf_units>  (5) 
J/(mol*K)

>  <Tmin_value>  (5) 
10.0

>  <Tmin_units>  (5) 
K

>  <Tmax_value>  (5) 
3000.0

>  <Tmax_units>  (5) 
K

>  <polynomials>  (5) 
[{"name": "polynomial1", "class": "NASAPolynomial", "Tmin_value": 10.0, "Tmin_units": "K", "Tmax_value": 547.7328944379541, "Tmax_units": "K", "coeffs": [3.9250848890805052, 0.004086250960797434, 0.00010707412429990373, -2.246879000297587e-07, 1.395828032452642e-10, -238221794.42745197, 11.952172442150074]}, {"name": "polynomial2", "class": "NASAPolynomial", "Tmin_value": 547.7328944379541, "Tmin_units": "K", "Tmax_value": 3000.0, "Tmax_units": "K", "coeffs": [3.8007078020500384, 0.027841301339166197, -2.0547741821236873e-05, 6.7985016910948285e-09, -8.320547213549067e-13, -238222123.5164886, 9.348870484230607]}]

>  <H298_value>  (5) 
-473392.08657630655

>  <H298_units>  (5) 
kcal/mol

>  <S298_value>  (5) 
76.66430544822154

>  <S298_units>  (5) 
cal/(mol*K)

>  <Cp_T_value_list>  (5) 
[19.57732009666552, 23.6174312439555, 26.57824934229197, 28.752778830174776, 31.920929963594613, 33.90316234748348, 35.89472600512966, 36.49997801208135, 37.04500039077929]

>  <Cp_T_units>  (5) 
cal/(mol*K)

>  <T_list>  (5) 
[300.0, 400.0, 500.0, 600.0, 800.0, 1000.0, 1500.0, 2000.0, 2400.0]

>  <T_units>  (5) 
K

>  <yaml_path>  (5) 
/home/calvin/Dropbox/PersonalFolders/Calvin/Kfir_HAb_Converged/kfir_rxn_679/output/Species/_N-_1N=C[Cl]_N_Ct_Np_1/_N-_1N=CCl_N_Ct_Np_1.yml

>  <frequencies_cm1>  (5) 
[129.66928379756, 329.77323602236, 359.14333223599994, 447.05447830264, 534.6909449564799, 670.89073179336, 794.66814218636, 810.86049357092, 847.19371289904, 1007.7712976219199, 1170.8278640453198, 1239.8616674672799, 1302.6327802774, 1467.90051597384, 1536.9686543223997]

>  <ZPE_kJmol>  (5) 
75.663269046618

>  <E_elec_kJmol>  (5) 
-1980764.1370496177

>  <E0_minus_Eelec_plus_ZPE_kJmol>  (5) 
0.0

>  <rxn>  (5) 
kfir_rxn_679

>  <species_type>  (5) 
r0

>  <species_folder>  (5) 
_N-_1N=C[Cl]_N_Ct_Np_1

>  <frequencies_cm1_list>  (5) 
[129.66928379756, 329.77323602236, 359.14333223599994, 447.05447830264, 534.6909449564799, 670.89073179336, 794.66814218636, 810.86049357092, 847.19371289904, 1007.7712976219199, 1170.8278640453198, 1239.8616674672799, 1302.6327802774, 1467.90051597384, 1536.9686543223997]

>  <E0_kJmol>  (5) 
-1.98069e+06

>  <H298_kJmol>  (5) 
-1.98067e+06

$$$$
