
     RDKit          3D

  7  7  0  0  0  0  0  0  0  0999 V2000
    0.0027    0.1482    2.0068 N   0  0  0  0  0  0  0  0  0  1  0  0
    0.0010    0.0353    0.7656 C   0  0  0  0  0  0  0  0  0  2  0  0
    0.0016    1.0823   -0.1054 O   0  0  0  0  0  0  0  0  0  3  0  0
   -0.0008    0.5560   -1.3738 N   0  0  0  0  0  0  0  0  0  4  0  0
   -0.0027   -0.6629   -1.3344 N   0  0  0  0  0  0  0  0  0  5  0  0
   -0.0018   -1.0872   -0.0137 O   0  0  0  0  0  0  0  0  0  6  0  0
    0.0018   -0.7891    2.4574 H   0  0  0  0  0  0  0  0  0  7  0  0
  1  2  1  0
  1  7  1  0
  2  3  1  0
  2  6  1  0
  3  4  1  0
  4  5  1  0
  5  6  1  0
M  END
>  <rmg_smiles>  (1) 
[NH][C]1O[N][N]O1

>  <rmg_adjacency_list>  (1) 
1 O u0 p2 c0 {3,S} {6,S}
2 O u0 p2 c0 {4,S} {6,S}
3 N u0 p1 c0 {1,S} {4,S}
4 N u0 p1 c0 {2,S} {3,S}
5 N u0 p1 c0 {6,S} {7,S}
6 C u0 p0 c0 {1,S} {2,S} {5,S}
7 H u0 p0 c0 {5,S}


>  <multiplicity>  (1) 
1

>  <reaction>  (1) 
kfir_rxn_13897

>  <type>  (1) 
r1h

>  <role_mapnums>  (1) 
{"r1h_a": 1, "r1h_h": 7}

>  <role_mapidx>  (1) 
{"r1h_a": 0, "r1h_h": 6}

>  <ordered_mapped_smiles>  (1) 
[NH:1]([CH:2]1[O:3][NH:4][NH:5][O:6]1)[H:7]

>  <mol_properties>  (1) 
{"0": {"label": "donator", "atom_type": "N3s"}, "6": {"label": "d_hydrogen", "atom_type": "H0"}}

>  <level_of_theory>  (1) 
wb97xd/def2tzvp

>  <lot_method>  (1) 
wb97xd

>  <lot_basis>  (1) 
def2tzvp

>  <spin_multiplicity>  (1) 
1.0

>  <optical_isomers>  (1) 
1.0

>  <modes>  (1) 
IdealGasTranslation(mass=(87.0069, 'amu')),         NonlinearRotor(             inertia = ([48.8575, 120.721, 169.578

>  <frequency_value>  (1) 
unknown

>  <frequency_units>  (1) 
unknown

>  <frequency_list>  (1) 
unknown

>  <arkane_path>  (1) 
/home/calvin/Dropbox/PersonalFolders/Calvin/Kfir_HAb_Converged/kfir_rxn_13897/output/Species/N=c1onno1/arkane/output.py

>  <path_exists>  (1) 
True

>  <E0_value>  (1) 
-926463.1148350824

>  <E0_units>  (1) 
kJ/mol

>  <thermo_class>  (1) 
NASA

>  <Cp0_value>  (1) 
33.257888

>  <Cp0_units>  (1) 
J/(mol*K)

>  <CpInf_value>  (1) 
157.97496800000002

>  <CpInf_units>  (1) 
J/(mol*K)

>  <Tmin_value>  (1) 
10.0

>  <Tmin_units>  (1) 
K

>  <Tmax_value>  (1) 
3000.0

>  <Tmax_units>  (1) 
K

>  <polynomials>  (1) 
[{"name": "polynomial1", "class": "NASAPolynomial", "Tmin_value": 10.0, "Tmin_units": "K", "Tmax_value": 594.5444576074173, "Tmax_units": "K", "coeffs": [4.064132331384431, -0.006464318285740491, 0.0001260927686818599, -2.245288884010203e-07, 1.2483214386195704e-10, -111427772.75106707, 9.737352080288133]}, {"name": "polynomial2", "class": "NASAPolynomial", "Tmin_value": 594.5444576074173, "Tmin_units": "K", "Tmax_value": 3000.0, "Tmax_units": "K", "coeffs": [2.6618231118848854, 0.027000979186583906, -1.8966399167901696e-05, 6.10976288698157e-09, -7.352069559300073e-13, -111428030.7278722, 12.201696490273036]}]

>  <H298_value>  (1) 
-221426.71078216765

>  <H298_units>  (1) 
kcal/mol

>  <S298_value>  (1) 
69.21240690289005

>  <S298_units>  (1) 
cal/(mol*K)

>  <Cp_T_value_list>  (1) 
[16.73634536833107, 20.824139680952957, 24.027439593675794, 26.34823762578554, 29.71105988132181, 31.9363143238467, 34.55227143459743, 35.59678357964536, 36.33939705849216]

>  <Cp_T_units>  (1) 
cal/(mol*K)

>  <T_list>  (1) 
[300.0, 400.0, 500.0, 600.0, 800.0, 1000.0, 1500.0, 2000.0, 2400.0]

>  <T_units>  (1) 
K

>  <yaml_path>  (1) 
/home/calvin/Dropbox/PersonalFolders/Calvin/Kfir_HAb_Converged/kfir_rxn_13897/output/Species/N=c1onno1/N=c1onno1.yml

>  <frequencies_cm1>  (1) 
[208.89369343439998, 445.44073675243993, 644.52150816456, 714.2214091625599, 757.75122910604, 783.81143839544, 819.0802749989599, 941.40875148944, 996.4545058145599, 1049.54316932348, 1062.20589025356, 1273.50302854996, 1598.9500638207198, 1829.7357064552798, 3558.0254387782]

>  <ZPE_kJmol>  (1) 
99.78979924741076

>  <E_elec_kJmol>  (1) 
-926562.9046343296

>  <E0_minus_Eelec_plus_ZPE_kJmol>  (1) 
0.0

>  <rxn>  (1) 
kfir_rxn_13897

>  <species_type>  (1) 
r1

>  <species_folder>  (1) 
N=c1onno1

>  <frequencies_cm1_list>  (1) 
[208.89369343439998, 445.44073675243993, 644.52150816456, 714.2214091625599, 757.75122910604, 783.81143839544, 819.0802749989599, 941.40875148944, 996.4545058145599, 1049.54316932348, 1062.20589025356, 1273.50302854996, 1598.9500638207198, 1829.7357064552798, 3558.0254387782]

>  <E0_kJmol>  (1) 
-926463

>  <H298_kJmol>  (1) 
-926449

$$$$

     RDKit          3D

  8  8  0  0  0  0  0  0  0  0999 V2000
   -0.0014   -0.0139   -1.1339 N   0  0  0  0  0  0  0  0  0  1  0  0
   -0.0021   -1.0812   -0.2897 C   0  0  0  0  0  0  0  0  0  2  0  0
    0.0000   -0.6850    0.9486 N   0  0  0  0  0  0  0  0  0  3  0  0
    0.0022    0.7036    0.9357 N   0  0  0  0  0  0  0  0  0  4  0  0
    0.0013    1.0529   -0.2955 C   0  0  0  0  0  0  0  0  0  5  0  0
   -0.0026   -0.0007   -2.1373 H   0  0  0  0  0  0  0  0  0  6  0  0
   -0.0041   -2.1078   -0.6176 H   0  0  0  0  0  0  0  0  0  7  0  0
    0.0026    2.0948   -0.6157 H   0  0  0  0  0  0  0  0  0  8  0  0
  1  2  1  0
  1  5  1  0
  1  6  1  0
  2  3  1  0
  2  7  1  0
  3  4  1  0
  4  5  1  0
  5  8  1  0
M  END
>  <rmg_smiles>  (2) 
[CH]1[N][N][CH]N1

>  <rmg_adjacency_list>  (2) 
1 N u0 p1 c0 {4,S} {5,S} {6,S}
2 N u0 p1 c0 {3,S} {4,S}
3 N u0 p1 c0 {2,S} {5,S}
4 C u0 p0 c0 {1,S} {2,S} {7,S}
5 C u0 p0 c0 {1,S} {3,S} {8,S}
6 H u0 p0 c0 {1,S}
7 H u0 p0 c0 {4,S}
8 H u0 p0 c0 {5,S}


>  <multiplicity>  (2) 
1

>  <reaction>  (2) 
kfir_rxn_13897

>  <type>  (2) 
r2h

>  <role_mapnums>  (2) 
{"r2h_a": 5, "r2h_h": 8}

>  <role_mapidx>  (2) 
{"r2h_a": 4, "r2h_h": 7}

>  <ordered_mapped_smiles>  (2) 
[N:1]1([H:6])[CH:2]([H:7])[NH:3][NH:4][CH:5]1[H:8]

>  <mol_properties>  (2) 
{"4": {"label": "acceptor", "atom_type": "Cs"}, "7": {"label": "a_hydrogen", "atom_type": "H0"}}

>  <level_of_theory>  (2) 
wb97xd/def2tzvp

>  <lot_method>  (2) 
wb97xd

>  <lot_basis>  (2) 
def2tzvp

>  <spin_multiplicity>  (2) 
1.0

>  <optical_isomers>  (2) 
1.0

>  <modes>  (2) 
IdealGasTranslation(mass=(69.0327, 'amu')),         NonlinearRotor(             inertia = ([49.7446, 50.239, 99.9836

>  <frequency_value>  (2) 
unknown

>  <frequency_units>  (2) 
unknown

>  <frequency_list>  (2) 
unknown

>  <arkane_path>  (2) 
/home/calvin/Dropbox/PersonalFolders/Calvin/Kfir_HAb_Converged/kfir_rxn_13897/output/Species/_nH_1cnnc1/arkane/output.py

>  <path_exists>  (2) 
True

>  <E0_value>  (2) 
-635048.4918018952

>  <E0_units>  (2) 
kJ/mol

>  <thermo_class>  (2) 
NASA

>  <Cp0_value>  (2) 
33.257888

>  <Cp0_units>  (2) 
J/(mol*K)

>  <CpInf_value>  (2) 
182.918384

>  <CpInf_units>  (2) 
J/(mol*K)

>  <Tmin_value>  (2) 
10.0

>  <Tmin_units>  (2) 
K

>  <Tmax_value>  (2) 
3000.0

>  <Tmax_units>  (2) 
K

>  <polynomials>  (2) 
[{"name": "polynomial1", "class": "NASAPolynomial", "Tmin_value": 10.0, "Tmin_units": "K", "Tmax_value": 666.2315830520071, "Tmax_units": "K", "coeffs": [4.191873538746667, -0.0148352808523572, 0.00013528906156252585, -2.0081165788594653e-07, 9.620172833353898e-11, -76378693.34678465, 7.946685504059008]}, {"name": "polynomial2", "class": "NASAPolynomial", "Tmin_value": 666.2315830520071, "Tmin_units": "K", "Tmax_value": 3000.0, "Tmax_units": "K", "coeffs": [0.26129709254697653, 0.03152363821030296, -2.0330200546586672e-05, 6.1862723266515185e-09, -7.146358388446169e-13, -76378674.73109053, 21.52229957221337]}]

>  <H298_value>  (2) 
-151777.38792434792

>  <H298_units>  (2) 
kcal/mol

>  <S298_value>  (2) 
63.25802561204851

>  <S298_units>  (2) 
cal/(mol*K)

>  <Cp_T_value_list>  (2) 
[14.45618022453581, 18.9079304187659, 22.868075476436477, 26.006955164869527, 30.490774293355887, 33.63619497381132, 37.88535338843435, 39.83112300128181, 40.986532091291444]

>  <Cp_T_units>  (2) 
cal/(mol*K)

>  <T_list>  (2) 
[300.0, 400.0, 500.0, 600.0, 800.0, 1000.0, 1500.0, 2000.0, 2400.0]

>  <T_units>  (2) 
K

>  <yaml_path>  (2) 
/home/calvin/Dropbox/PersonalFolders/Calvin/Kfir_HAb_Converged/kfir_rxn_13897/output/Species/_nH_1cnnc1/_nH_1cnnc1.yml

>  <frequencies_cm1>  (2) 
[544.16051771276, 663.1447723524, 699.3337849888, 826.6888947335199, 857.4941908790399, 941.45682038668, 974.9951766895599, 1048.95260858596, 1105.5983704906398, 1118.74864737844, 1228.2495952911602, 1323.2680711639998, 1428.7449656791998, 1534.54460850444, 1538.891410212, 3243.792190535, 3247.68577121144, 3661.8336558606397]

>  <ZPE_kJmol>  (2) 
155.440316121671

>  <E_elec_kJmol>  (2) 
-635203.9321180169

>  <E0_minus_Eelec_plus_ZPE_kJmol>  (2) 
0.0

>  <rxn>  (2) 
kfir_rxn_13897

>  <species_type>  (2) 
p0

>  <species_folder>  (2) 
_nH_1cnnc1

>  <frequencies_cm1_list>  (2) 
[544.16051771276, 663.1447723524, 699.3337849888, 826.6888947335199, 857.4941908790399, 941.45682038668, 974.9951766895599, 1048.95260858596, 1105.5983704906398, 1118.74864737844, 1228.2495952911602, 1323.2680711639998, 1428.7449656791998, 1534.54460850444, 1538.891410212, 3243.792190535, 3247.68577121144, 3661.8336558606397]

>  <E0_kJmol>  (2) 
-635048

>  <H298_kJmol>  (2) 
-635037

$$$$

     RDKit          3D

 14 14  0  0  0  0  0  0  0  0999 V2000
   -0.0017   -1.8854    0.6822 N   0  0  0  0  0  0  0  0  0  1  0  0
   -0.0024   -2.9527    1.5264 C   0  0  0  0  0  0  0  0  0  2  0  0
   -0.0003   -2.5564    2.7647 N   0  0  0  0  0  0  0  0  0  3  0  0
    0.0019   -1.1678    2.7518 N   0  0  0  0  0  0  0  0  0  4  0  0
    0.0010   -0.8186    1.5206 C   0  0  0  0  0  3  0  0  0  5  0  0
   -0.0029   -1.8722   -0.3212 H   0  0  0  0  0  0  0  0  0  6  0  0
   -0.0044   -3.9792    1.1985 H   0  0  0  0  0  0  0  0  0  7  0  0
    0.0037    1.5752    0.6001 N   0  0  0  0  0  0  0  0  0  8  0  0
    0.0020    1.4623   -0.6411 C   0  0  0  0  0  0  0  0  0  9  0  0
    0.0026    2.5093   -1.5121 O   0  0  0  0  0  0  0  0  0 10  0  0
    0.0002    1.9830   -2.7806 N   0  0  0  0  0  0  0  0  0 11  0  0
   -0.0017    0.7641   -2.7411 N   0  0  0  0  0  0  0  0  0 12  0  0
   -0.0008    0.3398   -1.4204 O   0  0  0  0  0  0  0  0  0 13  0  0
    0.0027    0.5092    1.1125 H   0  0  0  0  0  0  0  0  0 14  0  0
  1  2  1  0
  1  5  1  0
  1  6  1  0
  2  3  1  0
  2  7  1  0
  3  4  1  0
  4  5  1  0
  8 14  1  0
  8  9  1  0
  9 10  1  0
  9 13  1  0
 10 11  1  0
 11 12  1  0
 12 13  1  0
M  RAD  1   5   2
M  END
>  <rmg_smiles>  (3) 
[C]1[N][N][CH]N1.[NH][C]1O[N][N]O1

>  <rmg_adjacency_list>  (3) 
multiplicity 2
1  O u0 p2 c0 {6,S} {10,S}
2  O u0 p2 c0 {7,S} {10,S}
3  N u0 p1 c0 {9,S} {11,S} {12,S}
4  N u0 p1 c0 {5,S} {9,S}
5  N u0 p1 c0 {4,S} {11,S}
6  N u0 p1 c0 {1,S} {7,S}
7  N u0 p1 c0 {2,S} {6,S}
8  N u0 p1 c0 {10,S} {14,S}
9  C u0 p0 c0 {3,S} {4,S} {13,S}
10 C u0 p0 c0 {1,S} {2,S} {8,S}
11 C u1 p1 c0 {3,S} {5,S}
12 H u0 p0 c0 {3,S}
13 H u0 p0 c0 {9,S}
14 H u0 p0 c0 {8,S}


>  <multiplicity>  (3) 
2

>  <reaction>  (3) 
kfir_rxn_13897

>  <type>  (3) 
ts

>  <role_mapnums>  (3) 
{"*2": 14, "*1": 8, "*3": 5, "*0": 9, "*4": 1}

>  <role_mapidx>  (3) 
{"*2": 13, "*1": 7, "*3": 4, "*0": 8, "*4": 0}

>  <ordered_mapped_smiles>  (3) 
[N:1]1([H:6])[CH:2]([H:7])[NH:3][NH:4][CH:5]1.[NH:8]([CH:9]1[O:10][NH:11][NH:12][O:13]1)[H:14]

>  <mol_properties>  (3) 
{"0": {"label": "*4", "atom_type": "N3s"}, "4": {"label": "*3", "atom_type": "C2s"}, "7": {"label": "*1", "atom_type": "N3s"}, "8": {"label": "*0", "atom_type": "Cs"}, "13": {"label": "*2", "atom_type": "H0"}}

>  <level_of_theory>  (3) 
wb97xd/def2tzvp

>  <lot_method>  (3) 
wb97xd

>  <lot_basis>  (3) 
def2tzvp

>  <spin_multiplicity>  (3) 
2.0

>  <optical_isomers>  (3) 
1.0

>  <modes>  (3) 
IdealGasTranslation(mass=(155.032, 'amu')),         NonlinearRotor(             inertia = ([136.243, 952.934, 1089.18

>  <frequency_value>  (3) 
-1629.7

>  <frequency_units>  (3) 
cm^-1

>  <frequency_list>  (3) 
unknown

>  <arkane_path>  (3) 
/home/calvin/Dropbox/PersonalFolders/Calvin/Kfir_HAb_Converged/kfir_rxn_13897/output/rxns/TS0/arkane/output.py

>  <path_exists>  (3) 
True

>  <E0_value>  (3) 
-1559690.0

>  <E0_units>  (3) 
kJ/mol

>  <thermo_class>  (3) 
unknown

>  <Cp0_value>  (3) 
unknown

>  <Cp0_units>  (3) 
unknown

>  <CpInf_value>  (3) 
unknown

>  <CpInf_units>  (3) 
unknown

>  <Tmin_value>  (3) 
unknown

>  <Tmin_units>  (3) 
unknown

>  <Tmax_value>  (3) 
unknown

>  <Tmax_units>  (3) 
unknown

>  <polynomials>  (3) 
unknown

>  <H298_value>  (3) 
unknown

>  <H298_units>  (3) 
unknown

>  <S298_value>  (3) 
unknown

>  <S298_units>  (3) 
unknown

>  <Cp_T_value_list>  (3) 
unknown

>  <Cp_T_units>  (3) 
unknown

>  <T_list>  (3) 
unknown

>  <T_units>  (3) 
unknown

>  <yaml_path>  (3) 
unknown

>  <frequencies_cm1>  (3) 
unknown

>  <ZPE_kJmol>  (3) 
unknown

>  <E_elec_kJmol>  (3) 
unknown

>  <E0_minus_Eelec_plus_ZPE_kJmol>  (3) 
unknown

>  <rxn>  (3) 
unknown

>  <species_type>  (3) 
unknown

>  <species_folder>  (3) 
unknown

>  <frequencies_cm1_list>  (3) 
[]

>  <ts_imag_freq_cm1>  (3) 
-1649.4985

>  <ts_freq_out_path>  (3) 
/home/calvin/Dropbox/PersonalFolders/Calvin/Kfir_HAb_Converged/kfir_rxn_13897/output/rxns/TS0/geometry/freq.out

>  <E0_kJmol>  (3) 
-1.55969e+06

>  <H298_kJmol>  (3) 
unknown

$$$$

     RDKit          3D

  6  6  0  0  0  0  0  0  0  0999 V2000
    1.9594    0.0134   -0.3734 N   0  0  0  0  0  2  0  0  0  1  0  0
    0.7437    0.0051   -0.0788 C   0  0  0  0  0  0  0  0  0  2  0  0
   -0.0745    1.0868    0.0233 O   0  0  0  0  0  0  0  0  0  3  0  0
   -1.3223    0.5972    0.3682 N   0  0  0  0  0  0  0  0  0  4  0  0
   -1.2899   -0.6150    0.4676 N   0  0  0  0  0  0  0  0  0  5  0  0
   -0.0165   -1.0874    0.2015 O   0  0  0  0  0  0  0  0  0  6  0  0
  1  2  1  0
  2  3  1  0
  2  6  1  0
  3  4  1  0
  4  5  1  0
  5  6  1  0
M  RAD  1   1   2
M  END
>  <rmg_smiles>  (4) 
[N][C]1O[N][N]O1

>  <rmg_adjacency_list>  (4) 
multiplicity 2
1 O u0 p2 c0 {3,S} {6,S}
2 O u0 p2 c0 {4,S} {6,S}
3 N u0 p1 c0 {1,S} {4,S}
4 N u0 p1 c0 {2,S} {3,S}
5 N u1 p2 c0 {6,S}
6 C u0 p0 c0 {1,S} {2,S} {5,S}


>  <multiplicity>  (4) 
2

>  <reaction>  (4) 
kfir_rxn_13897

>  <type>  (4) 
r1

>  <role_mapnums>  (4) 
{}

>  <role_mapidx>  (4) 
{}

>  <ordered_mapped_smiles>  (4) 
[NH:1][CH:2]1[O:3][NH:4][NH:5][O:6]1

>  <level_of_theory>  (4) 
wb97xd/def2tzvp

>  <lot_method>  (4) 
wb97xd

>  <lot_basis>  (4) 
def2tzvp

>  <spin_multiplicity>  (4) 
2.0

>  <optical_isomers>  (4) 
1.0

>  <modes>  (4) 
IdealGasTranslation(mass=(85.999, 'amu')),         NonlinearRotor(             inertia = ([48.4503, 114.569, 163.019

>  <frequency_value>  (4) 
unknown

>  <frequency_units>  (4) 
unknown

>  <frequency_list>  (4) 
unknown

>  <arkane_path>  (4) 
/home/calvin/Dropbox/PersonalFolders/Calvin/Kfir_HAb_Converged/kfir_rxn_13897/output/Species/_N_=c1onno1/arkane/output.py

>  <path_exists>  (4) 
True

>  <E0_value>  (4) 
-924716.4007445594

>  <E0_units>  (4) 
kJ/mol

>  <thermo_class>  (4) 
NASA

>  <Cp0_value>  (4) 
33.257888

>  <Cp0_units>  (4) 
J/(mol*K)

>  <CpInf_value>  (4) 
133.031552

>  <CpInf_units>  (4) 
J/(mol*K)

>  <Tmin_value>  (4) 
10.0

>  <Tmin_units>  (4) 
K

>  <Tmax_value>  (4) 
3000.0

>  <Tmax_units>  (4) 
K

>  <polynomials>  (4) 
[{"name": "polynomial1", "class": "NASAPolynomial", "Tmin_value": 10.0, "Tmin_units": "K", "Tmax_value": 615.6012172942251, "Tmax_units": "K", "coeffs": [3.9482722177880523, 0.00286399391777489, 6.607304666914822e-05, -1.1888758586418805e-07, 6.356745631073056e-11, -111217690.86378032, 9.376822962946171]}, {"name": "polynomial2", "class": "NASAPolynomial", "Tmin_value": 615.6012172942251, "Tmin_units": "K", "Tmax_value": 3000.0, "Tmax_units": "K", "coeffs": [2.449527079036138, 0.025184330488228168, -1.8971272122591413e-05, 6.4121015114796695e-09, -8.006937785638129e-13, -111217744.74320735, 13.943915403155506]}]

>  <H298_value>  (4) 
-221009.1756618419

>  <H298_units>  (4) 
kcal/mol

>  <S298_value>  (4) 
69.02430482099071

>  <S298_units>  (4) 
cal/(mol*K)

>  <Cp_T_value_list>  (4) 
[16.014849838314646, 19.244264025617063, 21.880233817343235, 23.869508066662636, 26.649252170505203, 28.36537203710628, 30.062441828728026, 30.640361853540604, 31.1856016605508]

>  <Cp_T_units>  (4) 
cal/(mol*K)

>  <T_list>  (4) 
[300.0, 400.0, 500.0, 600.0, 800.0, 1000.0, 1500.0, 2000.0, 2400.0]

>  <T_units>  (4) 
K

>  <yaml_path>  (4) 
/home/calvin/Dropbox/PersonalFolders/Calvin/Kfir_HAb_Converged/kfir_rxn_13897/output/Species/_N_=c1onno1/_N_=c1onno1.yml

>  <frequencies_cm1>  (4) 
[203.66105062056, 421.06293886643994, 625.6235645639199, 691.3131461350399, 746.0704870767199, 784.21659052932, 934.89884940608, 1008.3206564475199, 1041.0761764239198, 1163.2398452667198, 1617.8480074213599, 1768.29678879724]

>  <ZPE_kJmol>  (4) 
65.82829353267302

>  <E_elec_kJmol>  (4) 
-924782.229038092

>  <E0_minus_Eelec_plus_ZPE_kJmol>  (4) 
0.0

>  <rxn>  (4) 
kfir_rxn_13897

>  <species_type>  (4) 
p1

>  <species_folder>  (4) 
_N_=c1onno1

>  <frequencies_cm1_list>  (4) 
[203.66105062056, 421.06293886643994, 625.6235645639199, 691.3131461350399, 746.0704870767199, 784.21659052932, 934.89884940608, 1008.3206564475199, 1041.0761764239198, 1163.2398452667198, 1617.8480074213599, 1768.29678879724]

>  <E0_kJmol>  (4) 
-924716

>  <H298_kJmol>  (4) 
-924702

$$$$

     RDKit          3D

  7  7  0  0  0  0  0  0  0  0999 V2000
   -0.3098    0.7589    0.0547 N   0  0  0  0  0  0  0  0  0  1  0  0
   -0.5126   -0.5888   -0.0325 C   0  0  0  0  0  0  0  0  0  2  0  0
    0.6202   -1.2226   -0.0897 N   0  0  0  0  0  0  0  0  0  3  0  0
    1.6333   -0.2545   -0.0386 N   0  0  0  0  0  0  0  0  0  4  0  0
    1.0411    0.8615    0.0437 C   0  0  0  0  0  3  0  0  0  5  0  0
   -0.9860    1.4967    0.1129 H   0  0  0  0  0  0  0  0  0  6  0  0
   -1.4862   -1.0511   -0.0505 H   0  0  0  0  0  0  0  0  0  7  0  0
  1  2  1  0
  1  5  1  0
  1  6  1  0
  2  3  1  0
  2  7  1  0
  3  4  1  0
  4  5  1  0
M  RAD  1   5   2
M  END
>  <rmg_smiles>  (5) 
[C]1[N][N][CH]N1

>  <rmg_adjacency_list>  (5) 
multiplicity 2
1 N u0 p1 c0 {4,S} {5,S} {6,S}
2 N u0 p1 c0 {3,S} {4,S}
3 N u0 p1 c0 {2,S} {5,S}
4 C u0 p0 c0 {1,S} {2,S} {7,S}
5 C u1 p1 c0 {1,S} {3,S}
6 H u0 p0 c0 {1,S}
7 H u0 p0 c0 {4,S}


>  <multiplicity>  (5) 
2

>  <reaction>  (5) 
kfir_rxn_13897

>  <type>  (5) 
r2

>  <role_mapnums>  (5) 
{}

>  <role_mapidx>  (5) 
{}

>  <ordered_mapped_smiles>  (5) 
[N:1]1([H:6])[CH:2]([H:7])[NH:3][NH:4][CH:5]1

>  <level_of_theory>  (5) 
wb97xd/def2tzvp

>  <lot_method>  (5) 
wb97xd

>  <lot_basis>  (5) 
def2tzvp

>  <spin_multiplicity>  (5) 
2.0

>  <optical_isomers>  (5) 
1.0

>  <modes>  (5) 
IdealGasTranslation(mass=(68.0249, 'amu')),         NonlinearRotor(             inertia = ([44.6847, 50.5426, 95.2273

>  <frequency_value>  (5) 
unknown

>  <frequency_units>  (5) 
unknown

>  <frequency_list>  (5) 
unknown

>  <arkane_path>  (5) 
/home/calvin/Dropbox/PersonalFolders/Calvin/Kfir_HAb_Converged/kfir_rxn_13897/output/Species/N1C=NN=_C_1/arkane/output.py

>  <path_exists>  (5) 
True

>  <E0_value>  (5) 
-633244.1763988573

>  <E0_units>  (5) 
kJ/mol

>  <thermo_class>  (5) 
NASA

>  <Cp0_value>  (5) 
33.257888

>  <Cp0_units>  (5) 
J/(mol*K)

>  <CpInf_value>  (5) 
157.97496800000002

>  <CpInf_units>  (5) 
J/(mol*K)

>  <Tmin_value>  (5) 
10.0

>  <Tmin_units>  (5) 
K

>  <Tmax_value>  (5) 
3000.0

>  <Tmax_units>  (5) 
K

>  <polynomials>  (5) 
[{"name": "polynomial1", "class": "NASAPolynomial", "Tmin_value": 10.0, "Tmin_units": "K", "Tmax_value": 639.7507067108148, "Tmax_units": "K", "coeffs": [4.149899505679349, -0.012154634714006553, 0.00012286335478699497, -1.9255965640468293e-07, 9.690673320557016e-11, -76161682.9458501, 9.235833601148526]}, {"name": "polynomial2", "class": "NASAPolynomial", "Tmin_value": 639.7507067108148, "Tmin_units": "K", "Tmax_value": 3000.0, "Tmax_units": "K", "coeffs": [1.3164266143261458, 0.02667448462608275, -1.7680762685214758e-05, 5.4831354260379305e-09, -6.423630935946299e-13, -76161752.46031128, 18.263289838655083]}]

>  <H298_value>  (5) 
-151346.11660031826

>  <H298_units>  (5) 
kcal/mol

>  <S298_value>  (5) 
65.98309560004087

>  <S298_units>  (5) 
cal/(mol*K)

>  <Cp_T_value_list>  (5) 
[14.202653965384581, 18.089892009318486, 21.412417565913078, 23.954091683288095, 27.59152686731225, 30.108008483383518, 33.38518132088257, 34.83497290846023, 35.73155272746782]

>  <Cp_T_units>  (5) 
cal/(mol*K)

>  <T_list>  (5) 
[300.0, 400.0, 500.0, 600.0, 800.0, 1000.0, 1500.0, 2000.0, 2400.0]

>  <T_units>  (5) 
K

>  <yaml_path>  (5) 
/home/calvin/Dropbox/PersonalFolders/Calvin/Kfir_HAb_Converged/kfir_rxn_13897/output/Species/N1C=NN=_C_1/N1C=NN=_C_1.yml

>  <frequencies_cm1>  (5) 
[482.4949895391599, 614.75312680236, 663.7628010312, 822.3626939819198, 850.819481148, 938.84049897976, 976.1488302233199, 1081.0008290744, 1154.511906925, 1297.11859106544, 1396.33966195412, 1532.42957702588, 1536.85878255728, 3241.5054844234396, 3669.9504325088797]

>  <ZPE_kJmol>  (5) 
121.17515250362015

>  <E_elec_kJmol>  (5) 
-633365.3515513609

>  <E0_minus_Eelec_plus_ZPE_kJmol>  (5) 
0.0

>  <rxn>  (5) 
kfir_rxn_13897

>  <species_type>  (5) 
r0

>  <species_folder>  (5) 
N1C=NN=_C_1

>  <frequencies_cm1_list>  (5) 
[482.4949895391599, 614.75312680236, 663.7628010312, 822.3626939819198, 850.819481148, 938.84049897976, 976.1488302233199, 1081.0008290744, 1154.511906925, 1297.11859106544, 1396.33966195412, 1532.42957702588, 1536.85878255728, 3241.5054844234396, 3669.9504325088797]

>  <E0_kJmol>  (5) 
-633244

>  <H298_kJmol>  (5) 
-633232

$$$$
