
     RDKit          3D

  5  4  0  0  0  0  0  0  0  0999 V2000
   -0.0062   -0.0446   -0.0141 C   0  0  0  0  0  0  0  0  0  1  0  0
    0.1328    0.9791    0.3162 H   0  0  0  0  0  0  0  0  0  2  0  0
   -0.1382    0.0692   -1.0847 H   0  0  0  0  0  0  0  0  0  3  0  0
    0.9203   -0.5174    0.2928 H   0  0  0  0  0  0  0  0  0  4  0  0
   -0.8907   -0.3668    0.5247 H   0  0  0  0  0  0  0  0  0  5  0  0
  1  3  1  0
  1  5  1  0
  1  4  1  0
  1  2  1  0
M  END
>  <rmg_smiles>  (1) 
C

>  <rmg_adjacency_list>  (1) 
1 C u0 p0 c0 {2,S} {3,S} {4,S} {5,S}
2 H u0 p0 c0 {1,S}
3 H u0 p0 c0 {1,S}
4 H u0 p0 c0 {1,S}
5 H u0 p0 c0 {1,S}


>  <multiplicity>  (1) 
1

>  <reaction>  (1) 
kfir_rxn_5161

>  <type>  (1) 
r1h

>  <role_mapnums>  (1) 
{"r1h_a": 1, "r1h_h": 2}

>  <role_mapidx>  (1) 
{"r1h_a": 0, "r1h_h": 1}

>  <ordered_mapped_smiles>  (1) 
[C:1]([H:2])([H:3])([H:4])[H:5]

>  <mol_properties>  (1) 
{"0": {"label": "donator", "atom_type": "Cs"}, "1": {"label": "d_hydrogen", "atom_type": "H0"}}

>  <level_of_theory>  (1) 
wb97xd/def2tzvp

>  <lot_method>  (1) 
wb97xd

>  <lot_basis>  (1) 
def2tzvp

>  <spin_multiplicity>  (1) 
1.0

>  <optical_isomers>  (1) 
1.0

>  <modes>  (1) 
IdealGasTranslation(mass=(16.0313, 'amu')),         NonlinearRotor(             inertia = ([3.18688, 3.1869, 3.18697

>  <frequency_value>  (1) 
unknown

>  <frequency_units>  (1) 
unknown

>  <frequency_list>  (1) 
unknown

>  <arkane_path>  (1) 
/home/calvin/Dropbox/PersonalFolders/Calvin/Kfir_HAb_Converged/kfir_rxn_5161/output/Species/C/arkane/output.py

>  <path_exists>  (1) 
True

>  <E0_value>  (1) 
-83.49615278096078

>  <E0_units>  (1) 
kJ/mol

>  <thermo_class>  (1) 
NASA

>  <Cp0_value>  (1) 
33.257888

>  <Cp0_units>  (1) 
J/(mol*K)

>  <CpInf_value>  (1) 
108.088136

>  <CpInf_units>  (1) 
J/(mol*K)

>  <Tmin_value>  (1) 
10.0

>  <Tmin_units>  (1) 
K

>  <Tmax_value>  (1) 
3000.0

>  <Tmax_units>  (1) 
K

>  <polynomials>  (1) 
[{"name": "polynomial1", "class": "NASAPolynomial", "Tmin_value": 10.0, "Tmin_units": "K", "Tmax_value": 616.361122768298, "Tmax_units": "K", "coeffs": [4.041437354706533, -0.0024800175939495746, 1.1312729368488643e-05, 3.6783055017275e-09, -9.368419019330656e-12, -10044.082462298562, -0.4263959053984312]}, {"name": "polynomial2", "class": "NASAPolynomial", "Tmin_value": 616.361122768298, "Tmin_units": "K", "Tmax_value": 3000.0, "Tmax_units": "K", "coeffs": [0.6829055996069217, 0.011682330950257967, -4.5760734612309515e-06, 7.70456761567977e-10, -3.894647757915729e-14, -9485.069643478111, 15.32756165159848]}]

>  <H298_value>  (1) 
-17.58123606790973

>  <H298_units>  (1) 
kcal/mol

>  <S298_value>  (1) 
44.46432166717927

>  <S298_units>  (1) 
cal/(mol*K)

>  <Cp_T_value_list>  (1) 
[8.62250445654068, 9.647981042919819, 10.937332005053598, 12.33335124024317, 14.861531936208744, 16.93233751859883, 20.494779545665544, 22.423209131774055, 23.291968626670517]

>  <Cp_T_units>  (1) 
cal/(mol*K)

>  <T_list>  (1) 
[300.0, 400.0, 500.0, 600.0, 800.0, 1000.0, 1500.0, 2000.0, 2400.0]

>  <T_units>  (1) 
K

>  <yaml_path>  (1) 
/home/calvin/Dropbox/PersonalFolders/Calvin/Kfir_HAb_Converged/kfir_rxn_5161/output/Species/C/C.yml

>  <frequencies_cm1>  (1) 
[1325.6852499966399, 1325.85692462964, 1325.9942643360398, 1541.3635249271997, 1541.51459860424, 3009.65545906428, 3127.4723261995196, 3127.87061134808, 3128.06288693704]

>  <ZPE_kJmol>  (1) 
116.35765868221048

>  <E_elec_kJmol>  (1) 
-199.85381146317127

>  <E0_minus_Eelec_plus_ZPE_kJmol>  (1) 
1.4210854715202004e-14

>  <rxn>  (1) 
kfir_rxn_5161

>  <species_type>  (1) 
r1

>  <species_folder>  (1) 
C

>  <frequencies_cm1_list>  (1) 
[1325.6852499966399, 1325.85692462964, 1325.9942643360398, 1541.3635249271997, 1541.51459860424, 3009.65545906428, 3127.4723261995196, 3127.87061134808, 3128.06288693704]

>  <E0_kJmol>  (1) 
-83.4962

>  <H298_kJmol>  (1) 
-73.5599

$$$$

     RDKit          3D

  8  7  0  0  0  0  0  0  0  0999 V2000
   -1.2894    0.9674   -1.0492 C   0  0  0  0  0  2  0  0  0  1  0  0
   -0.6742    0.2903   -0.2724 C   0  0  0  0  0  2  0  0  0  2  0  0
    0.0716   -0.5933    0.5908 C   0  0  0  0  0  0  0  0  0  3  0  0
    1.4558   -0.4344    0.5616 O   0  0  0  0  0  0  0  0  0  4  0  0
   -1.8383    1.5842   -1.7197 H   0  0  0  0  0  0  0  0  0  5  0  0
   -0.2587   -0.5522    1.6275 H   0  0  0  0  0  0  0  0  0  6  0  0
    1.7286   -0.2874   -0.3463 H   0  0  0  0  0  0  0  0  0  7  0  0
   -0.1723   -1.6066    0.2757 H   0  0  0  0  0  0  0  0  0  8  0  0
  1  5  1  0
  1  2  1  0
  2  3  1  0
  3  4  1  0
  3  6  1  0
  3  8  1  0
  4  7  1  0
M  RAD  2   1   3   2   3
M  END
>  <rmg_smiles>  (2) 
[CH][C]CO

>  <rmg_adjacency_list>  (2) 
1 O u0 p2 c0 {2,S} {7,S}
2 C u0 p0 c0 {1,S} {3,S} {5,S} {6,S}
3 C u0 p1 c0 {2,S} {4,S}
4 C u0 p1 c0 {3,S} {8,S}
5 H u0 p0 c0 {2,S}
6 H u0 p0 c0 {2,S}
7 H u0 p0 c0 {1,S}
8 H u0 p0 c0 {4,S}


>  <multiplicity>  (2) 
1

>  <reaction>  (2) 
kfir_rxn_5161

>  <type>  (2) 
r2h

>  <role_mapnums>  (2) 
{"r2h_a": 3, "r2h_h": 8}

>  <role_mapidx>  (2) 
{"r2h_a": 2, "r2h_h": 7}

>  <ordered_mapped_smiles>  (2) 
[C:1]([C:2][C:3]([O:4][H:7])([H:6])[H:8])[H:5]

>  <mol_properties>  (2) 
{"2": {"label": "acceptor", "atom_type": "Cs"}, "7": {"label": "a_hydrogen", "atom_type": "H0"}}

>  <level_of_theory>  (2) 
wb97xd/def2tzvp

>  <lot_method>  (2) 
wb97xd

>  <lot_basis>  (2) 
def2tzvp

>  <spin_multiplicity>  (2) 
1.0

>  <optical_isomers>  (2) 
2.0

>  <modes>  (2) 
IdealGasTranslation(mass=(56.0262, 'amu')),         NonlinearRotor(             inertia = ([15.2068, 107.418, 118.62

>  <frequency_value>  (2) 
unknown

>  <frequency_units>  (2) 
unknown

>  <frequency_list>  (2) 
unknown

>  <arkane_path>  (2) 
/home/calvin/Dropbox/PersonalFolders/Calvin/Kfir_HAb_Converged/kfir_rxn_5161/output/Species/CtCCO/arkane/output.py

>  <path_exists>  (2) 
True

>  <E0_value>  (2) 
39.71983628900372

>  <E0_units>  (2) 
kJ/mol

>  <thermo_class>  (2) 
NASA

>  <Cp0_value>  (2) 
33.257888

>  <Cp0_units>  (2) 
J/(mol*K)

>  <CpInf_value>  (2) 
178.76114800000002

>  <CpInf_units>  (2) 
J/(mol*K)

>  <Tmin_value>  (2) 
10.0

>  <Tmin_units>  (2) 
K

>  <Tmax_value>  (2) 
3000.0

>  <Tmax_units>  (2) 
K

>  <polynomials>  (2) 
[{"name": "polynomial1", "class": "NASAPolynomial", "Tmin_value": 10.0, "Tmin_units": "K", "Tmax_value": 462.0881376995578, "Tmax_units": "K", "coeffs": [3.925206618014714, 0.00500632368714064, 9.03652673105455e-05, -2.1351431681794769e-07, 1.5384927495723114e-10, 4778.593054777265, 9.552042078708427]}, {"name": "polynomial2", "class": "NASAPolynomial", "Tmin_value": 462.0881376995578, "Tmin_units": "K", "Tmax_value": 3000.0, "Tmax_units": "K", "coeffs": [3.5688417494784352, 0.02254634132962722, -1.3495482604707733e-05, 4.0260763956837686e-09, -4.709386938118133e-13, 4657.199840777346, 9.326289370445167]}]

>  <H298_value>  (2) 
13.153489063794629

>  <H298_units>  (2) 
kcal/mol

>  <S298_value>  (2) 
71.21842447604249

>  <S298_units>  (2) 
cal/(mol*K)

>  <Cp_T_value_list>  (2) 
[17.9668712267047, 21.18323185762514, 23.73115573678525, 25.92682817255744, 29.48470066460386, 32.142743575795166, 36.221604956350035, 38.458777141481484, 39.70030341894162]

>  <Cp_T_units>  (2) 
cal/(mol*K)

>  <T_list>  (2) 
[300.0, 400.0, 500.0, 600.0, 800.0, 1000.0, 1500.0, 2000.0, 2400.0]

>  <T_units>  (2) 
K

>  <yaml_path>  (2) 
/home/calvin/Dropbox/PersonalFolders/Calvin/Kfir_HAb_Converged/kfir_rxn_5161/output/Species/CtCCO/CtCCO.yml

>  <frequencies_cm1>  (2) 
[219.53137620923184, 331.46315998346097, 567.4166855613987, 677.6582425102737, 721.9284189902595, 910.0422131819739, 990.2305022210311, 1085.8584583923723, 1215.8712745170126, 1347.9144336672948, 1408.3809206392207, 1482.6147998995084, 2220.384860663138, 2989.9011281840553, 3072.1495246919762, 3434.364772207701, 3841.823767162048]

>  <ZPE_kJmol>  (2) 
158.61012486225454

>  <E_elec_kJmol>  (2) 
-118.8902885732508

>  <E0_minus_Eelec_plus_ZPE_kJmol>  (2) 
0.0

>  <rxn>  (2) 
kfir_rxn_5161

>  <species_type>  (2) 
p0

>  <species_folder>  (2) 
CtCCO

>  <frequencies_cm1_list>  (2) 
[219.53137620923184, 331.46315998346097, 567.4166855613987, 677.6582425102737, 721.9284189902595, 910.0422131819739, 990.2305022210311, 1085.8584583923723, 1215.8712745170126, 1347.9144336672948, 1408.3809206392207, 1482.6147998995084, 2220.384860663138, 2989.9011281840553, 3072.1495246919762, 3434.364772207701, 3841.823767162048]

>  <E0_kJmol>  (2) 
39.7198

>  <H298_kJmol>  (2) 
55.0342

$$$$

     RDKit          3D

 12 10  0  0  0  0  0  0  0  0999 V2000
   -1.1475    1.6163   -1.0721 C   0  0  0  0  0  0  0  0  0  1  0  0
   -0.5323    0.9393   -0.2953 C   0  0  0  0  0  0  0  0  0  2  0  0
    0.2135    0.0556    0.5680 C   0  0  0  0  0  0  0  0  0  3  0  0
    1.5977    0.2146    0.5388 O   0  0  0  0  0  0  0  0  0  4  0  0
   -1.6964    2.2332   -1.7426 H   0  0  0  0  0  0  0  0  0  5  0  0
   -0.1168    0.0968    1.6046 H   0  0  0  0  0  0  0  0  0  6  0  0
    1.8705    0.3615   -0.3692 H   0  0  0  0  0  0  0  0  0  7  0  0
   -0.2565   -2.5031   -0.2440 C   0  0  0  0  0  3  0  0  0  8  0  0
   -0.0676   -1.1121    0.2048 H   0  0  0  0  0  0  0  0  0  9  0  0
   -0.3885   -2.3893   -1.3146 H   0  0  0  0  0  0  0  0  0 10  0  0
    0.6700   -2.9759    0.0629 H   0  0  0  0  0  0  0  0  0 11  0  0
   -1.1410   -2.8253    0.2947 H   0  0  0  0  0  0  0  0  0 12  0  0
  1  5  1  0
  1  2  1  0
  2  3  1  0
  3  4  1  0
  3  6  1  0
  3  9  1  0
  4  7  1  0
  8 11  1  0
  8 12  1  0
  8 10  1  0
M  RAD  1   8   2
M  END
>  <rmg_smiles>  (3) 
[CH3].[CH]CCO

>  <rmg_adjacency_list>  (3) 
multiplicity 2
1  O u0 p2 c0 {2,S} {11,S}
2  C u0 p0 c0 {1,S} {4,S} {6,S} {7,S}
3  C u1 p0 c0 {8,S} {9,S} {10,S}
4  C u0 p1 c0 {2,S} {5,S}
5  C u0 p1 c0 {4,S} {12,S}
6  H u0 p0 c0 {2,S}
7  H u0 p0 c0 {2,S}
8  H u0 p0 c0 {3,S}
9  H u0 p0 c0 {3,S}
10 H u0 p0 c0 {3,S}
11 H u0 p0 c0 {1,S}
12 H u0 p0 c0 {5,S}


>  <multiplicity>  (3) 
2

>  <reaction>  (3) 
kfir_rxn_5161

>  <type>  (3) 
ts

>  <role_mapnums>  (3) 
{"*2": 9, "*1": 8, "*3": 3, "*0": 2, "*4": 10}

>  <role_mapidx>  (3) 
{"*2": 8, "*1": 7, "*3": 2, "*0": 1, "*4": 9}

>  <ordered_mapped_smiles>  (3) 
[CH2:1]([CH2:2][C:3]([O:4][H:7])([H:6])[H:9])[H:5].[C:8]([H:10])([H:11])[H:12]

>  <mol_properties>  (3) 
{"1": {"label": "*0", "atom_type": "C2s"}, "2": {"label": "*3", "atom_type": "Cs"}, "7": {"label": "*1", "atom_type": "Cs"}, "8": {"label": "*2", "atom_type": "H0"}, "9": {"label": "*4", "atom_type": "H0"}}

>  <level_of_theory>  (3) 
wb97xd/def2tzvp

>  <lot_method>  (3) 
wb97xd

>  <lot_basis>  (3) 
def2tzvp

>  <spin_multiplicity>  (3) 
2.0

>  <optical_isomers>  (3) 
2.0

>  <modes>  (3) 
IdealGasTranslation(mass=(71.0497, 'amu')),         NonlinearRotor(             inertia = ([93.0307, 164.891, 237.762

>  <frequency_value>  (3) 
-1525.18

>  <frequency_units>  (3) 
cm^-1

>  <frequency_list>  (3) 
unknown

>  <arkane_path>  (3) 
/home/calvin/Dropbox/PersonalFolders/Calvin/Kfir_HAb_Converged/kfir_rxn_5161/output/rxns/TS0/arkane/output.py

>  <path_exists>  (3) 
True

>  <E0_value>  (3) 
214.779

>  <E0_units>  (3) 
kJ/mol

>  <thermo_class>  (3) 
unknown

>  <Cp0_value>  (3) 
unknown

>  <Cp0_units>  (3) 
unknown

>  <CpInf_value>  (3) 
unknown

>  <CpInf_units>  (3) 
unknown

>  <Tmin_value>  (3) 
unknown

>  <Tmin_units>  (3) 
unknown

>  <Tmax_value>  (3) 
unknown

>  <Tmax_units>  (3) 
unknown

>  <polynomials>  (3) 
unknown

>  <H298_value>  (3) 
unknown

>  <H298_units>  (3) 
unknown

>  <S298_value>  (3) 
unknown

>  <S298_units>  (3) 
unknown

>  <Cp_T_value_list>  (3) 
unknown

>  <Cp_T_units>  (3) 
unknown

>  <T_list>  (3) 
unknown

>  <T_units>  (3) 
unknown

>  <yaml_path>  (3) 
unknown

>  <frequencies_cm1>  (3) 
unknown

>  <ZPE_kJmol>  (3) 
unknown

>  <E_elec_kJmol>  (3) 
unknown

>  <E0_minus_Eelec_plus_ZPE_kJmol>  (3) 
unknown

>  <rxn>  (3) 
unknown

>  <species_type>  (3) 
unknown

>  <species_folder>  (3) 
unknown

>  <frequencies_cm1_list>  (3) 
[]

>  <ts_imag_freq_cm1>  (3) 
-1543.7019

>  <ts_freq_out_path>  (3) 
/home/calvin/Dropbox/PersonalFolders/Calvin/Kfir_HAb_Converged/kfir_rxn_5161/output/rxns/TS0/geometry/freq.out

>  <E0_kJmol>  (3) 
214.779

>  <H298_kJmol>  (3) 
unknown

$$$$

     RDKit          3D

  4  3  0  0  0  0  0  0  0  0999 V2000
    0.0000    0.0000    0.0000 C   0  0  0  0  0  3  0  0  0  1  0  0
    1.0638   -0.1747    0.0540 H   0  0  0  0  0  0  0  0  0  2  0  0
   -0.6833   -0.8351   -0.0280 H   0  0  0  0  0  0  0  0  0  3  0  0
   -0.3805    1.0098   -0.0260 H   0  0  0  0  0  0  0  0  0  4  0  0
  1  3  1  0
  1  4  1  0
  1  2  1  0
M  RAD  1   1   2
M  END
>  <rmg_smiles>  (4) 
[CH3]

>  <rmg_adjacency_list>  (4) 
multiplicity 2
1 C u1 p0 c0 {2,S} {3,S} {4,S}
2 H u0 p0 c0 {1,S}
3 H u0 p0 c0 {1,S}
4 H u0 p0 c0 {1,S}


>  <multiplicity>  (4) 
2

>  <reaction>  (4) 
kfir_rxn_5161

>  <type>  (4) 
r1

>  <role_mapnums>  (4) 
{}

>  <role_mapidx>  (4) 
{}

>  <ordered_mapped_smiles>  (4) 
[C:1]([H:2])([H:3])[H:4]

>  <level_of_theory>  (4) 
wb97xd/def2tzvp

>  <lot_method>  (4) 
wb97xd

>  <lot_basis>  (4) 
def2tzvp

>  <spin_multiplicity>  (4) 
2.0

>  <optical_isomers>  (4) 
1.0

>  <modes>  (4) 
IdealGasTranslation(mass=(15.0235, 'amu')),         NonlinearRotor(             inertia = ([1.76141, 1.76141, 3.52282

>  <frequency_value>  (4) 
unknown

>  <frequency_units>  (4) 
unknown

>  <frequency_list>  (4) 
unknown

>  <arkane_path>  (4) 
/home/calvin/Dropbox/PersonalFolders/Calvin/Kfir_HAb_Converged/kfir_rxn_5161/output/Species/_CH3_/arkane/output.py

>  <path_exists>  (4) 
True

>  <E0_value>  (4) 
134.57140088970235

>  <E0_units>  (4) 
kJ/mol

>  <thermo_class>  (4) 
NASA

>  <Cp0_value>  (4) 
33.257888

>  <Cp0_units>  (4) 
J/(mol*K)

>  <CpInf_value>  (4) 
83.14472

>  <CpInf_units>  (4) 
J/(mol*K)

>  <Tmin_value>  (4) 
10.0

>  <Tmin_units>  (4) 
K

>  <Tmax_value>  (4) 
3000.0

>  <Tmax_units>  (4) 
K

>  <polynomials>  (4) 
[{"name": "polynomial1", "class": "NASAPolynomial", "Tmin_value": 10.0, "Tmin_units": "K", "Tmax_value": 646.8066776896404, "Tmax_units": "K", "coeffs": [3.991225093614956, 0.00042749328680678826, 9.380895186243526e-06, -1.0944076451262154e-08, 4.262940747933672e-12, 16185.596072236069, 0.2052800522696103]}, {"name": "polynomial2", "class": "NASAPolynomial", "Tmin_value": 646.8066776896404, "Tmin_units": "K", "Tmax_value": 3000.0, "Tmax_units": "K", "coeffs": [3.248840802672701, 0.005018884840280053, -1.2676714760210643e-06, 3.221061861319135e-11, 2.015574158785991e-14, 16281.625247945147, 3.4633410830629328]}]

>  <H298_value>  (4) 
34.690942931980004

>  <H298_units>  (4) 
kcal/mol

>  <S298_value>  (4) 
46.49954061698529

>  <S298_units>  (4) 
cal/(mol*K)

>  <Cp_T_value_list>  (4) 
[9.345421621689932, 10.078865015685375, 10.827532635966026, 11.552426153835267, 12.871904678708656, 14.014615918993885, 16.167229529374996, 17.479669872151728, 18.09624847705319]

>  <Cp_T_units>  (4) 
cal/(mol*K)

>  <T_list>  (4) 
[300.0, 400.0, 500.0, 600.0, 800.0, 1000.0, 1500.0, 2000.0, 2400.0]

>  <T_units>  (4) 
K

>  <yaml_path>  (4) 
/home/calvin/Dropbox/PersonalFolders/Calvin/Kfir_HAb_Converged/kfir_rxn_5161/output/Species/_CH3_/_CH3_.yml

>  <frequencies_cm1>  (4) 
[520.22220688724, 1393.4280601784399, 1393.43492716376, 3088.8661347304796, 3268.6163424668, 3268.6232094521197]

>  <ZPE_kJmol>  (4) 
77.35768261152703

>  <E_elec_kJmol>  (4) 
57.21371827817535

>  <E0_minus_Eelec_plus_ZPE_kJmol>  (4) 
0.0

>  <rxn>  (4) 
kfir_rxn_5161

>  <species_type>  (4) 
p1

>  <species_folder>  (4) 
_CH3_

>  <frequencies_cm1_list>  (4) 
[520.22220688724, 1393.4280601784399, 1393.43492716376, 3088.8661347304796, 3268.6163424668, 3268.6232094521197]

>  <E0_kJmol>  (4) 
134.571

>  <H298_kJmol>  (4) 
145.147

$$$$

     RDKit          3D

  7  6  0  0  0  0  0  0  0  0999 V2000
    1.7226   -0.1951    0.0912 C   0  0  0  0  0  0  0  0  0  1  0  0
    0.5628    0.1604    0.0147 C   0  0  0  0  0  0  0  0  0  2  0  0
   -0.7543    0.5408   -0.0706 C   0  0  0  0  0  3  0  0  0  3  0  0
   -1.7774   -0.3442   -0.0573 O   0  0  0  0  0  0  0  0  0  4  0  0
    2.7403   -0.4960    0.1575 H   0  0  0  0  0  0  0  0  0  5  0  0
   -1.0692    1.5689   -0.1540 H   0  0  0  0  0  0  0  0  0  6  0  0
   -1.4248   -1.2349    0.0186 H   0  0  0  0  0  0  0  0  0  7  0  0
  1  5  1  0
  1  2  1  0
  2  3  1  0
  3  4  1  0
  3  6  1  0
  4  7  1  0
M  RAD  1   3   2
M  END
>  <rmg_smiles>  (5) 
[CH]C[CH]O

>  <rmg_adjacency_list>  (5) 
multiplicity 2
1 O u0 p2 c0 {2,S} {6,S}
2 C u1 p0 c0 {1,S} {3,S} {5,S}
3 C u0 p1 c0 {2,S} {4,S}
4 C u0 p1 c0 {3,S} {7,S}
5 H u0 p0 c0 {2,S}
6 H u0 p0 c0 {1,S}
7 H u0 p0 c0 {4,S}


>  <multiplicity>  (5) 
2

>  <reaction>  (5) 
kfir_rxn_5161

>  <type>  (5) 
r2

>  <role_mapnums>  (5) 
{}

>  <role_mapidx>  (5) 
{}

>  <ordered_mapped_smiles>  (5) 
[CH2:1]([CH2:2][C:3]([O:4][H:7])[H:6])[H:5]

>  <level_of_theory>  (5) 
wb97xd/def2tzvp

>  <lot_method>  (5) 
wb97xd

>  <lot_basis>  (5) 
def2tzvp

>  <spin_multiplicity>  (5) 
2.0

>  <optical_isomers>  (5) 
1.0

>  <modes>  (5) 
IdealGasTranslation(mass=(55.0184, 'amu')),         NonlinearRotor(inertia=([10.4747, 106, 116.474

>  <frequency_value>  (5) 
unknown

>  <frequency_units>  (5) 
unknown

>  <frequency_list>  (5) 
unknown

>  <arkane_path>  (5) 
/home/calvin/Dropbox/PersonalFolders/Calvin/Kfir_HAb_Converged/kfir_rxn_5161/output/Species/CtC_CH_O/arkane/output.py

>  <path_exists>  (5) 
True

>  <E0_value>  (5) 
170.33659425632004

>  <E0_units>  (5) 
kJ/mol

>  <thermo_class>  (5) 
NASA

>  <Cp0_value>  (5) 
33.257888

>  <Cp0_units>  (5) 
J/(mol*K)

>  <CpInf_value>  (5) 
153.817732

>  <CpInf_units>  (5) 
J/(mol*K)

>  <Tmin_value>  (5) 
10.0

>  <Tmin_units>  (5) 
K

>  <Tmax_value>  (5) 
3000.0

>  <Tmax_units>  (5) 
K

>  <polynomials>  (5) 
[{"name": "polynomial1", "class": "NASAPolynomial", "Tmin_value": 10.0, "Tmin_units": "K", "Tmax_value": 531.2017299300838, "Tmax_units": "K", "coeffs": [3.88304048573941, 0.007274281138746117, 8.889329461961912e-05, -2.1183163879421274e-07, 1.429110780037731e-10, 20491.22444998757, 8.375155050415344]}, {"name": "polynomial2", "class": "NASAPolynomial", "Tmin_value": 531.2017299300838, "Tmin_units": "K", "Tmax_value": 3000.0, "Tmax_units": "K", "coeffs": [5.767719209918996, 0.018131672464159046, -1.249924310983432e-05, 4.189402185162988e-09, -5.338734835777336e-13, 19937.582239813524, -2.851602273658503]}]

>  <H298_value>  (5) 
44.52345045391683

>  <H298_units>  (5) 
kcal/mol

>  <S298_value>  (5) 
69.60214900976369

>  <S298_units>  (5) 
cal/(mol*K)

>  <Cp_T_value_list>  (5) 
[18.88610619972964, 22.09173253130915, 24.236948660192116, 25.799337709582524, 28.218016210390683, 29.918739738951142, 32.34859948373708, 33.797083581776846, 34.755740389533415]

>  <Cp_T_units>  (5) 
cal/(mol*K)

>  <T_list>  (5) 
[300.0, 400.0, 500.0, 600.0, 800.0, 1000.0, 1500.0, 2000.0, 2400.0]

>  <T_units>  (5) 
K

>  <yaml_path>  (5) 
/home/calvin/Dropbox/PersonalFolders/Calvin/Kfir_HAb_Converged/kfir_rxn_5161/output/Species/CtC_CH_O/CtC_CH_O.yml

>  <frequencies_cm1>  (5) 
[214.37523343649926, 372.63341429939834, 405.4171335971372, 557.2685749912816, 606.1844736267868, 717.0807787276991, 983.0092504663876, 1201.8312861875536, 1316.1114853430956, 1444.1428510289768, 2038.8372020040956, 3215.6310561713562, 3427.86493675952, 3819.249218713213]

>  <ZPE_kJmol>  (5) 
121.53845375128176

>  <E_elec_kJmol>  (5) 
48.79814050503828

>  <E0_minus_Eelec_plus_ZPE_kJmol>  (5) 
0.0

>  <rxn>  (5) 
kfir_rxn_5161

>  <species_type>  (5) 
r0

>  <species_folder>  (5) 
CtC_CH_O

>  <frequencies_cm1_list>  (5) 
[214.37523343649926, 372.63341429939834, 405.4171335971372, 557.2685749912816, 606.1844736267868, 717.0807787276991, 983.0092504663876, 1201.8312861875536, 1316.1114853430956, 1444.1428510289768, 2038.8372020040956, 3215.6310561713562, 3427.86493675952, 3819.249218713213]

>  <E0_kJmol>  (5) 
170.337

>  <H298_kJmol>  (5) 
186.286

$$$$
