
     RDKit          3D

  6  5  0  0  0  0  0  0  0  0999 V2000
    0.7041   -1.0253    0.1877 C   0  0  0  0  0  0  0  0  0  1  0  0
   -0.0353    0.1473   -0.0714 C   0  0  0  0  0  2  0  0  0  2  0  0
   -0.7312    1.0605   -0.1945 N   0  0  0  0  0  0  0  0  0  3  0  0
    0.0491   -1.4753    0.9264 H   0  0  0  0  0  0  0  0  0  4  0  0
    0.7441   -1.7588   -0.6104 H   0  0  0  0  0  0  0  0  0  5  0  0
    1.6159   -0.9008    0.7627 H   0  0  0  0  0  0  0  0  0  6  0  0
  1  5  1  0
  1  4  1  0
  1  6  1  0
  1  2  1  0
  2  3  1  0
M  RAD  1   2   3
M  END
>  <rmg_smiles>  (1) 
C[C][N]

>  <rmg_adjacency_list>  (1) 
1 N u0 p2 c0 {3,S}
2 C u0 p0 c0 {3,S} {4,S} {5,S} {6,S}
3 C u0 p1 c0 {1,S} {2,S}
4 H u0 p0 c0 {2,S}
5 H u0 p0 c0 {2,S}
6 H u0 p0 c0 {2,S}


>  <multiplicity>  (1) 
1

>  <reaction>  (1) 
kfir_rxn_4303

>  <type>  (1) 
r1h

>  <role_mapnums>  (1) 
{"r1h_a": 1, "r1h_h": 4}

>  <role_mapidx>  (1) 
{"r1h_a": 0, "r1h_h": 3}

>  <ordered_mapped_smiles>  (1) 
[C:1]([C:2][NH2:3])([H:4])([H:5])[H:6]

>  <mol_properties>  (1) 
{"0": {"label": "donator", "atom_type": "Cs"}, "3": {"label": "d_hydrogen", "atom_type": "H0"}}

>  <level_of_theory>  (1) 
wb97xd/def2tzvp

>  <lot_method>  (1) 
wb97xd

>  <lot_basis>  (1) 
def2tzvp

>  <spin_multiplicity>  (1) 
1.0

>  <optical_isomers>  (1) 
1.0

>  <modes>  (1) 
IdealGasTranslation(mass=(41.0266, 'amu')),         NonlinearRotor(             inertia = ([3.17088, 54.2986, 54.2986

>  <frequency_value>  (1) 
unknown

>  <frequency_units>  (1) 
unknown

>  <frequency_list>  (1) 
unknown

>  <arkane_path>  (1) 
/home/calvin/Dropbox/PersonalFolders/Calvin/Kfir_HAb_Converged/kfir_rxn_4303/output/Species/CCtN/arkane/output.py

>  <path_exists>  (1) 
True

>  <E0_value>  (1) 
-348435.7290944858

>  <E0_units>  (1) 
kJ/mol

>  <thermo_class>  (1) 
NASA

>  <Cp0_value>  (1) 
33.257888

>  <Cp0_units>  (1) 
J/(mol*K)

>  <CpInf_value>  (1) 
133.031552

>  <CpInf_units>  (1) 
J/(mol*K)

>  <Tmin_value>  (1) 
10.0

>  <Tmin_units>  (1) 
K

>  <Tmax_value>  (1) 
3000.0

>  <Tmax_units>  (1) 
K

>  <polynomials>  (1) 
[{"name": "polynomial1", "class": "NASAPolynomial", "Tmin_value": 10.0, "Tmin_units": "K", "Tmax_value": 511.0047217811454, "Tmax_units": "K", "coeffs": [3.9891826765760365, 0.0005009089420291138, 3.81914805026896e-05, -5.897492548510201e-08, 2.9733594077892804e-11, -41907137.48145763, 5.038698918911015]}, {"name": "polynomial2", "class": "NASAPolynomial", "Tmin_value": 511.0047217811454, "Tmin_units": "K", "Tmax_value": 3000.0, "Tmax_units": "K", "coeffs": [1.9459503138127907, 0.016494897079574664, -8.757595355908857e-06, 2.2763036875881413e-09, -2.327551492775615e-13, -41906928.66307153, 13.524317380785753]}]

>  <H298_value>  (1) 
-83275.2633014586

>  <H298_units>  (1) 
kcal/mol

>  <S298_value>  (1) 
57.92485573002877

>  <S298_units>  (1) 
cal/(mol*K)

>  <Cp_T_value_list>  (1) 
[12.37077326759869, 14.480710005326102, 16.442129136256206, 18.18625963405398, 21.078573448235012, 23.303574339623086, 26.803259226518527, 28.599299992988165, 29.480842343276066]

>  <Cp_T_units>  (1) 
cal/(mol*K)

>  <T_list>  (1) 
[300.0, 400.0, 500.0, 600.0, 800.0, 1000.0, 1500.0, 2000.0, 2400.0]

>  <T_units>  (1) 
K

>  <yaml_path>  (1) 
/home/calvin/Dropbox/PersonalFolders/Calvin/Kfir_HAb_Converged/kfir_rxn_4303/output/Species/CCtN/CCtN.yml

>  <frequencies_cm1>  (1) 
[383.692804755, 383.87134637331997, 927.5237071724, 1053.3268782348, 1053.59469066228, 1399.2855986564, 1460.8824569768, 1461.14340241896, 2373.9992289478396, 3039.28650072008, 3120.96242411616, 3121.60792073624]

>  <ZPE_kJmol>  (1) 
118.30578452478277

>  <E_elec_kJmol>  (1) 
-348554.0348790106

>  <E0_minus_Eelec_plus_ZPE_kJmol>  (1) 
0.0

>  <rxn>  (1) 
kfir_rxn_4303

>  <species_type>  (1) 
r1

>  <species_folder>  (1) 
CCtN

>  <frequencies_cm1_list>  (1) 
[383.692804755, 383.87134637331997, 927.5237071724, 1053.3268782348, 1053.59469066228, 1399.2855986564, 1460.8824569768, 1461.14340241896, 2373.9992289478396, 3039.28650072008, 3120.96242411616, 3121.60792073624]

>  <E0_kJmol>  (1) 
-348436

>  <H298_kJmol>  (1) 
-348424

$$$$

     RDKit          3D

  8  8  0  0  0  0  0  0  0  0999 V2000
    0.7503    0.6762    0.5045 N   0  0  0  0  0  0  0  0  0  1  0  0
   -0.3864    1.3436    0.2844 N   0  0  0  0  0  0  0  0  0  2  0  0
   -1.3496    0.5756   -0.2246 N   0  0  0  0  0  0  0  0  0  3  0  0
   -0.9021   -0.5846   -0.4326 N   0  0  0  0  0  0  0  0  0  4  0  0
    0.4579   -0.6138   -0.0310 C   0  0  0  0  0  0  0  0  0  5  0  0
    1.2400   -1.5137   -0.1286 O   0  0  0  0  0  0  0  0  0  6  0  0
   -0.5831    2.2546    0.6629 H   0  0  0  0  0  0  0  0  0  7  0  0
    1.5603    1.0811   -0.0071 H   0  0  0  0  0  0  0  0  0  8  0  0
  1  8  1  0
  1  2  1  0
  1  5  1  0
  2  7  1  0
  2  3  1  0
  3  4  1  0
  4  5  1  0
  5  6  1  0
M  END
>  <rmg_smiles>  (2) 
[O][C]1NN[N][N]1

>  <rmg_adjacency_list>  (2) 
1 O u0 p2 c0 {6,S}
2 N u0 p1 c0 {3,S} {6,S} {7,S}
3 N u0 p1 c0 {2,S} {4,S} {8,S}
4 N u0 p1 c0 {3,S} {5,S}
5 N u0 p1 c0 {4,S} {6,S}
6 C u0 p0 c0 {1,S} {2,S} {5,S}
7 H u0 p0 c0 {2,S}
8 H u0 p0 c0 {3,S}


>  <multiplicity>  (2) 
1

>  <reaction>  (2) 
kfir_rxn_4303

>  <type>  (2) 
r2h

>  <role_mapnums>  (2) 
{"r2h_a": 1, "r2h_h": 8}

>  <role_mapidx>  (2) 
{"r2h_a": 0, "r2h_h": 7}

>  <ordered_mapped_smiles>  (2) 
[N:1]1([H:8])[N:2]([H:7])[NH:3][NH:4][CH:5]1[OH:6]

>  <mol_properties>  (2) 
{"0": {"label": "acceptor", "atom_type": "N3s"}, "7": {"label": "a_hydrogen", "atom_type": "H0"}}

>  <level_of_theory>  (2) 
wb97xd/def2tzvp

>  <lot_method>  (2) 
wb97xd

>  <lot_basis>  (2) 
def2tzvp

>  <spin_multiplicity>  (2) 
1.0

>  <optical_isomers>  (2) 
2.0

>  <modes>  (2) 
IdealGasTranslation(mass=(86.0229, 'amu')),         NonlinearRotor(             inertia = ([53.0397, 123.193, 174.922

>  <frequency_value>  (2) 
unknown

>  <frequency_units>  (2) 
unknown

>  <frequency_list>  (2) 
unknown

>  <arkane_path>  (2) 
/home/calvin/Dropbox/PersonalFolders/Calvin/Kfir_HAb_Converged/kfir_rxn_4303/output/Species/O=c1nn_nH__nH_1/arkane/output.py

>  <path_exists>  (2) 
True

>  <E0_value>  (2) 
-875427.7740794723

>  <E0_units>  (2) 
kJ/mol

>  <thermo_class>  (2) 
NASA

>  <Cp0_value>  (2) 
33.257888

>  <Cp0_units>  (2) 
J/(mol*K)

>  <CpInf_value>  (2) 
182.918384

>  <CpInf_units>  (2) 
J/(mol*K)

>  <Tmin_value>  (2) 
10.0

>  <Tmin_units>  (2) 
K

>  <Tmax_value>  (2) 
3000.0

>  <Tmax_units>  (2) 
K

>  <polynomials>  (2) 
[{"name": "polynomial1", "class": "NASAPolynomial", "Tmin_value": 10.0, "Tmin_units": "K", "Tmax_value": 563.0725223705551, "Tmax_units": "K", "coeffs": [4.08591155313248, -0.008739118005472507, 0.0001517561788541489, -2.7790881890262767e-07, 1.6117416456129816e-10, -105289638.83174449, 10.418255774349467]}, {"name": "polynomial2", "class": "NASAPolynomial", "Tmin_value": 563.0725223705551, "Tmin_units": "K", "Tmax_value": 3000.0, "Tmax_units": "K", "coeffs": [2.1474333160395833, 0.030501031900885503, -2.062725096140573e-05, 6.522104740178324e-09, -7.78017747704971e-13, -105289824.2859943, 15.071649553604388]}]

>  <H298_value>  (2) 
-209228.8842985303

>  <H298_units>  (2) 
kcal/mol

>  <S298_value>  (2) 
70.93605644194116

>  <S298_units>  (2) 
cal/(mol*K)

>  <Cp_T_value_list>  (2) 
[17.73423793539477, 22.27886454060766, 25.814170514579192, 28.477038052269883, 32.52552247688487, 35.30332213145326, 38.87185596868183, 40.47750307440143, 41.50431535164821]

>  <Cp_T_units>  (2) 
cal/(mol*K)

>  <T_list>  (2) 
[300.0, 400.0, 500.0, 600.0, 800.0, 1000.0, 1500.0, 2000.0, 2400.0]

>  <T_units>  (2) 
K

>  <yaml_path>  (2) 
/home/calvin/Dropbox/PersonalFolders/Calvin/Kfir_HAb_Converged/kfir_rxn_4303/output/Species/O=c1nn_nH__nH_1/O=c1nn_nH__nH_1.yml

>  <frequencies_cm1>  (2) 
[261.74887944244, 484.8778334452, 510.03160067236, 544.8334822741199, 617.1909065909599, 770.15300459396, 800.1891983836399, 898.9364472852399, 987.24587850044, 1081.1725037074, 1165.9179695415198, 1217.344822603, 1348.8132565544, 1404.6212462500398, 1537.3394715296797, 1866.9204319630799, 3554.5919461182, 3608.18189955548]

>  <ZPE_kJmol>  (2) 
135.5376004058228

>  <E_elec_kJmol>  (2) 
-875563.3116798782

>  <E0_minus_Eelec_plus_ZPE_kJmol>  (2) 
0.0

>  <rxn>  (2) 
kfir_rxn_4303

>  <species_type>  (2) 
p0

>  <species_folder>  (2) 
O=c1nn_nH__nH_1

>  <frequencies_cm1_list>  (2) 
[261.74887944244, 484.8778334452, 510.03160067236, 544.8334822741199, 617.1909065909599, 770.15300459396, 800.1891983836399, 898.9364472852399, 987.24587850044, 1081.1725037074, 1165.9179695415198, 1217.344822603, 1348.8132565544, 1404.6212462500398, 1537.3394715296797, 1866.9204319630799, 3554.5919461182, 3608.18189955548]

>  <E0_kJmol>  (2) 
-875428

>  <H298_kJmol>  (2) 
-875414

$$$$

     RDKit          3D

 13 12  0  0  0  0  0  0  0  0999 V2000
    0.2101   -0.1412    1.2126 N   0  0  0  0  0  0  0  0  0  1  0  0
   -0.9266    0.5262    0.9925 N   0  0  0  0  0  0  0  0  0  2  0  0
   -1.8898   -0.2418    0.4835 N   0  0  0  0  0  0  0  0  0  3  0  0
   -1.4423   -1.4020    0.2755 N   0  0  0  0  0  0  0  0  0  4  0  0
   -0.0823   -1.4312    0.6771 C   0  0  0  0  0  0  0  0  0  5  0  0
    0.6998   -2.3311    0.5796 O   0  0  0  0  0  0  0  0  0  6  0  0
   -1.1233    1.4372    1.3710 H   0  0  0  0  0  0  0  0  0  7  0  0
    2.0056    0.9185   -0.3515 C   0  0  0  0  0  0  0  0  0  8  0  0
    1.2662    2.0911   -0.6106 C   0  0  0  0  0  0  0  0  0  9  0  0
    0.5703    3.0044   -0.7337 N   0  0  0  0  0  2  0  0  0 10  0  0
    1.1391    0.3232    0.6259 H   0  0  0  0  0  0  0  0  0 11  0  0
    2.0456    0.1850   -1.1497 H   0  0  0  0  0  0  0  0  0 12  0  0
    2.9174    1.0430    0.2234 H   0  0  0  0  0  0  0  0  0 13  0  0
  1  2  1  0
  1  5  1  0
  1 11  1  0
  2  7  1  0
  2  3  1  0
  3  4  1  0
  4  5  1  0
  5  6  1  0
  8  9  1  0
  8 13  1  0
  8 12  1  0
  9 10  1  0
M  RAD  1  10   2
M  END
>  <rmg_smiles>  (3) 
[O][C]1NN[N][N]1.[CH2][C][N]

>  <rmg_adjacency_list>  (3) 
multiplicity 2
1  O u0 p2 c0 {7,S}
2  N u0 p1 c0 {3,S} {7,S} {10,S}
3  N u0 p1 c0 {2,S} {4,S} {11,S}
4  N u0 p1 c0 {3,S} {5,S}
5  N u0 p1 c0 {4,S} {7,S}
6  N u1 p2 c0 {9,S}
7  C u0 p0 c0 {1,S} {2,S} {5,S}
8  C u0 p0 c0 {9,S} {12,S} {13,S}
9  C u0 p1 c0 {6,S} {8,S}
10 H u0 p0 c0 {2,S}
11 H u0 p0 c0 {3,S}
12 H u0 p0 c0 {8,S}
13 H u0 p0 c0 {8,S}


>  <multiplicity>  (3) 
2

>  <reaction>  (3) 
kfir_rxn_4303

>  <type>  (3) 
ts

>  <role_mapnums>  (3) 
{"*2": 11, "*1": 8, "*3": 1, "*0": 2, "*4": 9}

>  <role_mapidx>  (3) 
{"*2": 10, "*1": 7, "*3": 0, "*0": 1, "*4": 8}

>  <ordered_mapped_smiles>  (3) 
[N:1]1([H:11])[N:2]([H:7])[NH:3][NH:4][CH:5]1[OH:6].[CH:8]([CH2:9][NH:10])([H:12])[H:13]

>  <mol_properties>  (3) 
{"0": {"label": "*3", "atom_type": "N3s"}, "1": {"label": "*0", "atom_type": "N3s"}, "7": {"label": "*1", "atom_type": "Cs"}, "8": {"label": "*4", "atom_type": "C2s"}, "10": {"label": "*2", "atom_type": "H0"}}

>  <level_of_theory>  (3) 
wb97xd/def2tzvp

>  <lot_method>  (3) 
wb97xd

>  <lot_basis>  (3) 
def2tzvp

>  <spin_multiplicity>  (3) 
2.0

>  <optical_isomers>  (3) 
2.0

>  <modes>  (3) 
IdealGasTranslation(mass=(126.042, 'amu')),         NonlinearRotor(             inertia = ([177.138, 426.718, 551.591

>  <frequency_value>  (3) 
-2095.31

>  <frequency_units>  (3) 
cm^-1

>  <frequency_list>  (3) 
unknown

>  <arkane_path>  (3) 
/home/calvin/Dropbox/PersonalFolders/Calvin/Kfir_HAb_Converged/kfir_rxn_4303/output/rxns/TS0/arkane/output.py

>  <path_exists>  (3) 
True

>  <E0_value>  (3) 
-1222110.0

>  <E0_units>  (3) 
kJ/mol

>  <thermo_class>  (3) 
unknown

>  <Cp0_value>  (3) 
unknown

>  <Cp0_units>  (3) 
unknown

>  <CpInf_value>  (3) 
unknown

>  <CpInf_units>  (3) 
unknown

>  <Tmin_value>  (3) 
unknown

>  <Tmin_units>  (3) 
unknown

>  <Tmax_value>  (3) 
unknown

>  <Tmax_units>  (3) 
unknown

>  <polynomials>  (3) 
unknown

>  <H298_value>  (3) 
unknown

>  <H298_units>  (3) 
unknown

>  <S298_value>  (3) 
unknown

>  <S298_units>  (3) 
unknown

>  <Cp_T_value_list>  (3) 
unknown

>  <Cp_T_units>  (3) 
unknown

>  <T_list>  (3) 
unknown

>  <T_units>  (3) 
unknown

>  <yaml_path>  (3) 
unknown

>  <frequencies_cm1>  (3) 
unknown

>  <ZPE_kJmol>  (3) 
unknown

>  <E_elec_kJmol>  (3) 
unknown

>  <E0_minus_Eelec_plus_ZPE_kJmol>  (3) 
unknown

>  <rxn>  (3) 
unknown

>  <species_type>  (3) 
unknown

>  <species_folder>  (3) 
unknown

>  <frequencies_cm1_list>  (3) 
[]

>  <ts_imag_freq_cm1>  (3) 
-2120.756

>  <ts_freq_out_path>  (3) 
/home/calvin/Dropbox/PersonalFolders/Calvin/Kfir_HAb_Converged/kfir_rxn_4303/output/rxns/TS0/geometry/freq.out

>  <E0_kJmol>  (3) 
-1.22211e+06

>  <H298_kJmol>  (3) 
unknown

$$$$

     RDKit          3D

  5  4  0  0  0  0  0  0  0  0999 V2000
   -0.5684   -0.0010    0.0059 C   0  0  0  0  0  0  0  0  0  1  0  0
    0.8107    0.0015   -0.0083 C   0  0  0  0  0  0  0  0  0  2  0  0
    1.9722    0.0036   -0.0203 N   0  0  0  0  0  2  0  0  0  3  0  0
   -1.1085    0.9327    0.0554 H   0  0  0  0  0  0  0  0  0  4  0  0
   -1.1060   -0.9368   -0.0326 H   0  0  0  0  0  0  0  0  0  5  0  0
  1  5  1  0
  1  4  1  0
  1  2  1  0
  2  3  1  0
M  RAD  1   3   2
M  END
>  <rmg_smiles>  (4) 
[CH2][C][N]

>  <rmg_adjacency_list>  (4) 
multiplicity 2
1 N u1 p2 c0 {3,S}
2 C u0 p0 c0 {3,S} {4,S} {5,S}
3 C u0 p1 c0 {1,S} {2,S}
4 H u0 p0 c0 {2,S}
5 H u0 p0 c0 {2,S}


>  <multiplicity>  (4) 
2

>  <reaction>  (4) 
kfir_rxn_4303

>  <type>  (4) 
r1

>  <role_mapnums>  (4) 
{}

>  <role_mapidx>  (4) 
{}

>  <ordered_mapped_smiles>  (4) 
[CH:1]([CH2:2][NH:3])([H:4])[H:5]

>  <level_of_theory>  (4) 
wb97xd/def2tzvp

>  <lot_method>  (4) 
wb97xd

>  <lot_basis>  (4) 
def2tzvp

>  <spin_multiplicity>  (4) 
2.0

>  <optical_isomers>  (4) 
1.0

>  <modes>  (4) 
IdealGasTranslation(mass=(40.0187, 'amu')),         NonlinearRotor(             inertia = ([1.76513, 48.7017, 50.4668

>  <frequency_value>  (4) 
unknown

>  <frequency_units>  (4) 
unknown

>  <frequency_list>  (4) 
unknown

>  <arkane_path>  (4) 
/home/calvin/Dropbox/PersonalFolders/Calvin/Kfir_HAb_Converged/kfir_rxn_4303/output/Species/_CH2_CtN/arkane/output.py

>  <path_exists>  (4) 
True

>  <E0_value>  (4) 
-346728.38367180794

>  <E0_units>  (4) 
kJ/mol

>  <thermo_class>  (4) 
NASA

>  <Cp0_value>  (4) 
33.257888

>  <Cp0_units>  (4) 
J/(mol*K)

>  <CpInf_value>  (4) 
108.088136

>  <CpInf_units>  (4) 
J/(mol*K)

>  <Tmin_value>  (4) 
10.0

>  <Tmin_units>  (4) 
K

>  <Tmax_value>  (4) 
3000.0

>  <Tmax_units>  (4) 
K

>  <polynomials>  (4) 
[{"name": "polynomial1", "class": "NASAPolynomial", "Tmin_value": 10.0, "Tmin_units": "K", "Tmax_value": 527.0040671405167, "Tmax_units": "K", "coeffs": [3.9747449037282667, 0.0015353266756051366, 3.910302806424709e-05, -7.628994234029245e-08, 4.625865338238857e-11, -41701791.1441686, 5.577294410619089]}, {"name": "polynomial2", "class": "NASAPolynomial", "Tmin_value": 527.0040671405167, "Tmin_units": "K", "Tmax_value": 3000.0, "Tmax_units": "K", "coeffs": [3.239686817488942, 0.012530223097608446, -7.6062340101612755e-06, 2.2976789442675366e-09, -2.720349597801524e-13, -41701788.87516424, 7.939154814916592]}]

>  <H298_value>  (4) 
-82867.15142609477

>  <H298_units>  (4) 
kcal/mol

>  <S298_value>  (4) 
59.28592081605119

>  <S298_units>  (4) 
cal/(mol*K)

>  <Cp_T_value_list>  (4) 
[12.458755549788354, 14.202615101020045, 15.645452255252858, 16.852741911548225, 18.800685733817065, 20.248282724582875, 22.45242163881558, 23.65584364189494, 24.31935565202786]

>  <Cp_T_units>  (4) 
cal/(mol*K)

>  <T_list>  (4) 
[300.0, 400.0, 500.0, 600.0, 800.0, 1000.0, 1500.0, 2000.0, 2400.0]

>  <T_units>  (4) 
K

>  <yaml_path>  (4) 
/home/calvin/Dropbox/PersonalFolders/Calvin/Kfir_HAb_Converged/kfir_rxn_4303/output/Species/_CH2_CtN/_CH2_CtN.yml

>  <frequencies_cm1>  (4) 
[384.97006402451996, 436.79520223456, 664.47696750448, 1026.5799704134, 1046.4118240175599, 1433.3733137848799, 2141.73031748416, 3149.6183538565197, 3258.5150070610794]

>  <ZPE_kJmol>  (4) 
81.00198818833644

>  <E_elec_kJmol>  (4) 
-346809.3856599963

>  <E0_minus_Eelec_plus_ZPE_kJmol>  (4) 
0.0

>  <rxn>  (4) 
kfir_rxn_4303

>  <species_type>  (4) 
p1

>  <species_folder>  (4) 
_CH2_CtN

>  <frequencies_cm1_list>  (4) 
[384.97006402451996, 436.79520223456, 664.47696750448, 1026.5799704134, 1046.4118240175599, 1433.3733137848799, 2141.73031748416, 3149.6183538565197, 3258.5150070610794]

>  <E0_kJmol>  (4) 
-346728

>  <H298_kJmol>  (4) 
-346716

$$$$

     RDKit          3D

  7  7  0  0  0  0  0  0  0  0999 V2000
   -0.0087   -0.9771    0.4985 N   0  0  0  0  0  0  0  0  0  1  0  0
   -1.0258   -0.2095    0.3773 N   0  0  0  0  0  0  0  0  0  2  0  0
   -0.7499    1.0803   -0.0055 N   0  0  0  0  0  0  0  0  0  3  0  0
    0.4942    1.1558   -0.1387 N   0  0  0  0  0  0  0  0  0  4  0  0
    1.0454   -0.1234    0.1664 C   0  0  0  0  0  0  0  0  0  5  0  0
    2.2188   -0.4176    0.1422 O   0  0  0  0  0  1  0  0  0  6  0  0
   -1.9740   -0.5085    0.5459 H   0  0  0  0  0  0  0  0  0  7  0  0
  1  2  1  0
  1  5  1  0
  2  7  1  0
  2  3  1  0
  3  4  1  0
  4  5  1  0
  5  6  1  0
M  RAD  1   6   2
M  END
>  <rmg_smiles>  (5) 
[O][C]1[N]N[N][N]1

>  <rmg_adjacency_list>  (5) 
multiplicity 2
1 O u1 p2 c0 {6,S}
2 N u0 p1 c0 {3,S} {4,S} {7,S}
3 N u0 p1 c0 {2,S} {6,S}
4 N u0 p1 c0 {2,S} {5,S}
5 N u0 p1 c0 {4,S} {6,S}
6 C u0 p0 c0 {1,S} {3,S} {5,S}
7 H u0 p0 c0 {2,S}


>  <multiplicity>  (5) 
2

>  <reaction>  (5) 
kfir_rxn_4303

>  <type>  (5) 
r2

>  <role_mapnums>  (5) 
{}

>  <role_mapidx>  (5) 
{}

>  <ordered_mapped_smiles>  (5) 
[NH:1]1[N:2]([H:7])[NH:3][NH:4][CH:5]1[O:6]

>  <level_of_theory>  (5) 
wb97xd/def2tzvp

>  <lot_method>  (5) 
wb97xd

>  <lot_basis>  (5) 
def2tzvp

>  <spin_multiplicity>  (5) 
2.0

>  <optical_isomers>  (5) 
1.0

>  <modes>  (5) 
IdealGasTranslation(mass=(85.015, 'amu')),         NonlinearRotor(             inertia = ([51.1307, 117.344, 168.475

>  <frequency_value>  (5) 
unknown

>  <frequency_units>  (5) 
unknown

>  <frequency_list>  (5) 
unknown

>  <arkane_path>  (5) 
/home/calvin/Dropbox/PersonalFolders/Calvin/Kfir_HAb_Converged/kfir_rxn_4303/output/Species/_N_1NN=NC1=O/arkane/output.py

>  <path_exists>  (5) 
True

>  <E0_value>  (5) 
-873791.6278287552

>  <E0_units>  (5) 
kJ/mol

>  <thermo_class>  (5) 
NASA

>  <Cp0_value>  (5) 
33.257888

>  <Cp0_units>  (5) 
J/(mol*K)

>  <CpInf_value>  (5) 
157.97496800000002

>  <CpInf_units>  (5) 
J/(mol*K)

>  <Tmin_value>  (5) 
10.0

>  <Tmin_units>  (5) 
K

>  <Tmax_value>  (5) 
3000.0

>  <Tmax_units>  (5) 
K

>  <polynomials>  (5) 
[{"name": "polynomial1", "class": "NASAPolynomial", "Tmin_value": 10.0, "Tmin_units": "K", "Tmax_value": 590.4787826313741, "Tmax_units": "K", "coeffs": [4.10031022385383, -0.00944632416601489, 0.00013846779440008486, -2.442551514949859e-07, 1.3596602772641922e-10, -105092856.4184963, 10.34373493913994]}, {"name": "polynomial2", "class": "NASAPolynomial", "Tmin_value": 590.4787826313741, "Tmin_units": "K", "Tmax_value": 3000.0, "Tmax_units": "K", "coeffs": [2.406135309289624, 0.027305454852074446, -1.9099949267234426e-05, 6.1343398675494205e-09, -7.368935954088638e-13, -105093096.9720656, 13.893510160636454]}]

>  <H298_value>  (5) 
-208838.01551591812

>  <H298_units>  (5) 
kcal/mol

>  <S298_value>  (5) 
69.85083960762097

>  <S298_units>  (5) 
cal/(mol*K)

>  <Cp_T_value_list>  (5) 
[16.364546580987145, 20.51796331178472, 23.767147807669954, 26.11774074938461, 29.540782580385617, 31.813362091183773, 34.50248529275451, 35.57431372688701, 36.31872763049432]

>  <Cp_T_units>  (5) 
cal/(mol*K)

>  <T_list>  (5) 
[300.0, 400.0, 500.0, 600.0, 800.0, 1000.0, 1500.0, 2000.0, 2400.0]

>  <T_units>  (5) 
K

>  <yaml_path>  (5) 
/home/calvin/Dropbox/PersonalFolders/Calvin/Kfir_HAb_Converged/kfir_rxn_4303/output/Species/_N_1NN=NC1=O/_N_1NN=NC1=O.yml

>  <frequencies_cm1>  (5) 
[292.1215555128, 509.12515861011997, 582.320355136, 662.4718077910401, 772.6319862944799, 774.2182599033999, 835.28636035416, 928.8490353391601, 972.35138734136, 1167.06475608996, 1305.4757121998798, 1382.6400262407199, 1512.3161770236002, 1649.07905665672, 3609.6308334579994]

>  <ZPE_kJmol>  (5) 
101.41693408303172

>  <E_elec_kJmol>  (5) 
-873893.0447628382

>  <E0_minus_Eelec_plus_ZPE_kJmol>  (5) 
0.0

>  <rxn>  (5) 
kfir_rxn_4303

>  <species_type>  (5) 
r0

>  <species_folder>  (5) 
_N_1NN=NC1=O

>  <frequencies_cm1_list>  (5) 
[292.1215555128, 509.12515861011997, 582.320355136, 662.4718077910401, 772.6319862944799, 774.2182599033999, 835.28636035416, 928.8490353391601, 972.35138734136, 1167.06475608996, 1305.4757121998798, 1382.6400262407199, 1512.3161770236002, 1649.07905665672, 3609.6308334579994]

>  <E0_kJmol>  (5) 
-873792

>  <H298_kJmol>  (5) 
-873778

$$$$
