
     RDKit          3D

  6  5  0  0  0  0  0  0  0  0999 V2000
   -0.0026   -0.1388   -1.9177 C   0  0  0  0  0  2  0  0  0  1  0  0
   -0.0003    0.0003   -0.7254 C   0  0  0  0  0  2  0  0  0  2  0  0
    0.0053    0.3818    0.6429 C   0  0  0  0  0  0  0  0  0  3  0  0
   -0.0030   -0.2753    1.6289 O   0  0  0  0  0  0  0  0  0  4  0  0
   -0.0051   -0.3010   -2.9708 H   0  0  0  0  0  0  0  0  0  5  0  0
    0.0194    1.4484    0.8668 H   0  0  0  0  0  0  0  0  0  6  0  0
  1  5  1  0
  1  2  1  0
  2  3  1  0
  3  4  1  0
  3  6  1  0
M  RAD  2   1   3   2   3
M  END
>  <rmg_smiles>  (1) 
[CH][C][CH]O

>  <rmg_adjacency_list>  (1) 
1 O u0 p2 c0 {2,S}
2 C u0 p0 c0 {1,S} {3,S} {5,S}
3 C u0 p1 c0 {2,S} {4,S}
4 C u0 p1 c0 {3,S} {6,S}
5 H u0 p0 c0 {2,S}
6 H u0 p0 c0 {4,S}


>  <multiplicity>  (1) 
1

>  <reaction>  (1) 
kfir_rxn_9409

>  <type>  (1) 
r1h

>  <role_mapnums>  (1) 
{"r1h_a": 3, "r1h_h": 6}

>  <role_mapidx>  (1) 
{"r1h_a": 2, "r1h_h": 5}

>  <ordered_mapped_smiles>  (1) 
[C:1]([C:2][CH:3]([OH:4])[H:6])[H:5]

>  <mol_properties>  (1) 
{"2": {"label": "donator", "atom_type": "Cs"}, "5": {"label": "d_hydrogen", "atom_type": "H0"}}

>  <level_of_theory>  (1) 
wb97xd/def2tzvp

>  <lot_method>  (1) 
wb97xd

>  <lot_basis>  (1) 
def2tzvp

>  <spin_multiplicity>  (1) 
1.0

>  <optical_isomers>  (1) 
1.0

>  <modes>  (1) 
IdealGasTranslation(mass=(54.0106, 'amu')),         NonlinearRotor(             inertia = ([7.35607, 104.051, 111.407

>  <frequency_value>  (1) 
unknown

>  <frequency_units>  (1) 
unknown

>  <frequency_list>  (1) 
unknown

>  <arkane_path>  (1) 
/home/calvin/Dropbox/PersonalFolders/Calvin/Kfir_HAb_Converged/kfir_rxn_9409/output/Species/CtCC=O/arkane/output.py

>  <path_exists>  (1) 
True

>  <E0_value>  (1) 
-500464.3077155015

>  <E0_units>  (1) 
kJ/mol

>  <thermo_class>  (1) 
NASA

>  <Cp0_value>  (1) 
33.257888

>  <Cp0_units>  (1) 
J/(mol*K)

>  <CpInf_value>  (1) 
133.031552

>  <CpInf_units>  (1) 
J/(mol*K)

>  <Tmin_value>  (1) 
10.0

>  <Tmin_units>  (1) 
K

>  <Tmax_value>  (1) 
3000.0

>  <Tmax_units>  (1) 
K

>  <polynomials>  (1) 
[{"name": "polynomial1", "class": "NASAPolynomial", "Tmin_value": 10.0, "Tmin_units": "K", "Tmax_value": 465.90088062732394, "Tmax_units": "K", "coeffs": [3.950770990084576, 0.0032687189576549184, 6.378470904412455e-05, -1.4653212147836725e-07, 1.0326202629492222e-10, -60191951.97077382, 7.698244564414609]}, {"name": "polynomial2", "class": "NASAPolynomial", "Tmin_value": 465.90088062732394, "Tmin_units": "K", "Tmax_value": 3000.0, "Tmax_units": "K", "coeffs": [3.460558118073611, 0.016905621190940474, -1.0474884809559706e-05, 3.162438484393381e-09, -3.70326215129158e-13, -60192008.61830574, 8.59067403512794]}]

>  <H298_value>  (1) 
-119610.56977189016

>  <H298_units>  (1) 
kcal/mol

>  <S298_value>  (1) 
65.42559321738305

>  <S298_units>  (1) 
cal/(mol*K)

>  <Cp_T_value_list>  (1) 
[15.007513904504293, 17.346850405324215, 19.209941581256103, 20.802206296492553, 23.346917505717226, 25.204548385067227, 27.918169746997457, 29.304439420170173, 30.06589194439916]

>  <Cp_T_units>  (1) 
cal/(mol*K)

>  <T_list>  (1) 
[300.0, 400.0, 500.0, 600.0, 800.0, 1000.0, 1500.0, 2000.0, 2400.0]

>  <T_units>  (1) 
K

>  <yaml_path>  (1) 
/home/calvin/Dropbox/PersonalFolders/Calvin/Kfir_HAb_Converged/kfir_rxn_9409/output/Species/CtCC=O/CtCC=O.yml

>  <frequencies_cm1>  (1) 
[219.11863457587995, 280.04252833492, 631.6321767189199, 701.0573983041199, 758.45166160868, 948.2070669562398, 1010.9163768984799, 1404.96459551604, 1787.32520511896, 2206.9117421416, 2937.32550268872, 3428.80250902644]

>  <ZPE_kJmol>  (1) 
97.5839359040554

>  <E_elec_kJmol>  (1) 
-500561.8916514056

>  <E0_minus_Eelec_plus_ZPE_kJmol>  (1) 
0.0

>  <rxn>  (1) 
kfir_rxn_9409

>  <species_type>  (1) 
r1

>  <species_folder>  (1) 
CtCC=O

>  <frequencies_cm1_list>  (1) 
[219.11863457587995, 280.04252833492, 631.6321767189199, 701.0573983041199, 758.45166160868, 948.2070669562398, 1010.9163768984799, 1404.96459551604, 1787.32520511896, 2206.9117421416, 2937.32550268872, 3428.80250902644]

>  <E0_kJmol>  (1) 
-500464

>  <H298_kJmol>  (1) 
-500451

$$$$

     RDKit          3D

  8  8  0  0  0  0  0  0  0  0999 V2000
    0.0147    1.0846    1.1895 N   0  0  0  0  0  0  0  0  0  1  0  0
    0.0153    1.1675   -0.1460 N   0  0  0  0  0  0  0  0  0  2  0  0
    0.0003    0.0499   -0.7955 C   0  0  0  0  0  0  0  0  0  3  0  0
    0.0001    0.0725   -2.1019 F   0  0  0  0  0  0  0  0  0  4  0  0
   -0.0150   -1.1331   -0.2051 N   0  0  0  0  0  0  0  0  0  5  0  0
   -0.0158   -1.2333    1.1050 C   0  0  0  0  0  2  0  0  0  6  0  0
    0.0001   -0.0456    1.8083 N   0  0  0  0  0  0  0  0  0  7  0  0
   -0.0269   -2.0258   -0.7385 H   0  0  0  0  0  0  0  0  0  8  0  0
  1  2  1  0
  1  7  1  0
  2  3  1  0
  3  5  1  0
  3  4  1  0
  5  6  1  0
  5  8  1  0
  6  7  1  0
M  RAD  1   6   3
M  END
>  <rmg_smiles>  (2) 
F[C]1N[C][N][N][N]1

>  <rmg_adjacency_list>  (2) 
1 F u0 p3 c0 {6,S}
2 N u0 p1 c0 {6,S} {7,S} {8,S}
3 N u0 p1 c0 {4,S} {6,S}
4 N u0 p1 c0 {3,S} {5,S}
5 N u0 p1 c0 {4,S} {7,S}
6 C u0 p0 c0 {1,S} {2,S} {3,S}
7 C u0 p1 c0 {2,S} {5,S}
8 H u0 p0 c0 {2,S}


>  <multiplicity>  (2) 
1

>  <reaction>  (2) 
kfir_rxn_9409

>  <type>  (2) 
r2h

>  <role_mapnums>  (2) 
{"r2h_a": 5, "r2h_h": 8}

>  <role_mapidx>  (2) 
{"r2h_a": 4, "r2h_h": 7}

>  <ordered_mapped_smiles>  (2) 
[NH:1]1[NH:2][CH:3]([F:4])[N:5]([H:8])[C:6][NH:7]1

>  <mol_properties>  (2) 
{"4": {"label": "acceptor", "atom_type": "N3s"}, "7": {"label": "a_hydrogen", "atom_type": "H0"}}

>  <level_of_theory>  (2) 
wb97xd/def2tzvp

>  <lot_method>  (2) 
wb97xd

>  <lot_basis>  (2) 
def2tzvp

>  <spin_multiplicity>  (2) 
1.0

>  <optical_isomers>  (2) 
1.0

>  <modes>  (2) 
IdealGasTranslation(mass=(100.019, 'amu')),         NonlinearRotor(             inertia = ([77.2605, 174.67, 251.931

>  <frequency_value>  (2) 
unknown

>  <frequency_units>  (2) 
unknown

>  <frequency_list>  (2) 
unknown

>  <arkane_path>  (2) 
/home/calvin/Dropbox/PersonalFolders/Calvin/Kfir_HAb_Converged/kfir_rxn_9409/output/Species/_N-_1N=C[F]NCt_Np_1/arkane/output.py

>  <path_exists>  (2) 
True

>  <E0_value>  (2) 
-1038320.3448462985

>  <E0_units>  (2) 
kJ/mol

>  <thermo_class>  (2) 
NASA

>  <Cp0_value>  (2) 
33.257888

>  <Cp0_units>  (2) 
J/(mol*K)

>  <CpInf_value>  (2) 
182.918384

>  <CpInf_units>  (2) 
J/(mol*K)

>  <Tmin_value>  (2) 
10.0

>  <Tmin_units>  (2) 
K

>  <Tmax_value>  (2) 
3000.0

>  <Tmax_units>  (2) 
K

>  <polynomials>  (2) 
[{"name": "polynomial1", "class": "NASAPolynomial", "Tmin_value": 10.0, "Tmin_units": "K", "Tmax_value": 580.8414641163264, "Tmax_units": "K", "coeffs": [3.917408668789592, 0.004763500260222403, 9.893720364467995e-05, -1.899167653328051e-07, 1.0861030732625097e-10, -124881087.98188764, 10.666974798669468]}, {"name": "polynomial2", "class": "NASAPolynomial", "Tmin_value": 580.8414641163264, "Tmin_units": "K", "Tmax_value": 3000.0, "Tmax_units": "K", "coeffs": [2.573975042181829, 0.03317566355000962, -2.3917376223941075e-05, 7.883481046694802e-09, -9.690364165389578e-13, -124881255.13335152, 13.636101301499929]}]

>  <H298_value>  (2) 
-248160.67802988112

>  <H298_units>  (2) 
kcal/mol

>  <S298_value>  (2) 
74.19471361584873

>  <S298_units>  (2) 
cal/(mol*K)

>  <Cp_T_value_list>  (2) 
[19.877625015095067, 24.39993934992662, 27.983858343620593, 30.695112012035015, 34.670414409060726, 37.25357801875061, 40.19001054529051, 41.37177724872767, 42.252819028385176]

>  <Cp_T_units>  (2) 
cal/(mol*K)

>  <T_list>  (2) 
[300.0, 400.0, 500.0, 600.0, 800.0, 1000.0, 1500.0, 2000.0, 2400.0]

>  <T_units>  (2) 
K

>  <yaml_path>  (2) 
/home/calvin/Dropbox/PersonalFolders/Calvin/Kfir_HAb_Converged/kfir_rxn_9409/output/Species/_N-_1N=C[F]NCt_Np_1/_N-_1N=CFNCt_Np_1.yml

>  <frequencies_cm1>  (2) 
[133.98175057852, 237.46721935091998, 425.88356256108, 518.8694107791999, 573.29713642552, 671.98944944456, 796.4123564576399, 828.2957692983999, 856.4229411691199, 962.02344142008, 1040.7259601726, 1096.19060060224, 1250.91751383248, 1299.1168837935597, 1345.5514385273998, 1554.63054056544, 1655.60955969604, 3536.5523756825596]

>  <ZPE_kJmol>  (2) 
112.3529313413578

>  <E_elec_kJmol>  (2) 
-1038432.6977776396

>  <E0_minus_Eelec_plus_ZPE_kJmol>  (2) 
0.0

>  <rxn>  (2) 
kfir_rxn_9409

>  <species_type>  (2) 
p0

>  <species_folder>  (2) 
_N-_1N=C[F]NCt_Np_1

>  <frequencies_cm1_list>  (2) 
[133.98175057852, 237.46721935091998, 425.88356256108, 518.8694107791999, 573.29713642552, 671.98944944456, 796.4123564576399, 828.2957692983999, 856.4229411691199, 962.02344142008, 1040.7259601726, 1096.19060060224, 1250.91751383248, 1299.1168837935597, 1345.5514385273998, 1554.63054056544, 1655.60955969604, 3536.5523756825596]

>  <E0_kJmol>  (2) 
-1.03832e+06

>  <H298_kJmol>  (2) 
-1.0383e+06

$$$$

     RDKit          3D

 13 12  0  0  0  0  0  0  0  0999 V2000
    0.0377    2.5304    1.8506 N   0  0  0  0  0  0  0  0  0  1  0  0
    0.0382    2.6132    0.5151 N   0  0  0  0  0  0  0  0  0  2  0  0
    0.0233    1.4956   -0.1343 C   0  0  0  0  0  0  0  0  0  3  0  0
    0.0231    1.5183   -1.4407 F   0  0  0  0  0  0  0  0  0  4  0  0
    0.0080    0.3127    0.4561 N   0  0  0  0  0  0  0  0  0  5  0  0
    0.0072    0.2125    1.7661 C   0  0  0  0  0  0  0  0  0  6  0  0
    0.0231    1.4001    2.4694 N   0  0  0  0  0  0  0  0  0  7  0  0
   -0.0324   -2.6561   -3.0279 C   0  0  0  0  0  0  0  0  0  8  0  0
   -0.0301   -2.5170   -1.8355 C   0  0  0  0  0  0  0  0  0  9  0  0
   -0.0245   -2.1355   -0.4672 C   0  0  0  0  0  3  0  0  0 10  0  0
   -0.0327   -2.7926    0.5187 O   0  0  0  0  0  0  0  0  0 11  0  0
   -0.0349   -2.8183   -4.0809 H   0  0  0  0  0  0  0  0  0 12  0  0
   -0.0061   -0.7436   -0.1750 H   0  0  0  0  0  0  0  0  0 13  0  0
  1  2  1  0
  1  7  1  0
  2  3  1  0
  3  5  1  0
  3  4  1  0
  5  6  1  0
  5 13  1  0
  6  7  1  0
  8  9  1  0
  8 12  1  0
  9 10  1  0
 10 11  1  0
M  RAD  1  10   2
M  END
>  <rmg_smiles>  (3) 
F[C]1N[C][N][N][N]1.[CH][C][C][O]

>  <rmg_adjacency_list>  (3) 
multiplicity 2
1  F u0 p3 c0 {7,S}
2  O u0 p2 c0 {10,S}
3  N u0 p1 c0 {7,S} {8,S} {12,S}
4  N u0 p1 c0 {5,S} {7,S}
5  N u0 p1 c0 {4,S} {6,S}
6  N u0 p1 c0 {5,S} {8,S}
7  C u0 p0 c0 {1,S} {3,S} {4,S}
8  C u0 p1 c0 {3,S} {6,S}
9  C u0 p1 c0 {10,S} {11,S}
10 C u1 p1 c0 {2,S} {9,S}
11 C u0 p1 c0 {9,S} {13,S}
12 H u0 p0 c0 {3,S}
13 H u0 p0 c0 {11,S}


>  <multiplicity>  (3) 
2

>  <reaction>  (3) 
kfir_rxn_9409

>  <type>  (3) 
ts

>  <role_mapnums>  (3) 
{"*2": 13, "*1": 10, "*3": 5, "*0": 3, "*4": 9}

>  <role_mapidx>  (3) 
{"*2": 12, "*1": 9, "*3": 4, "*0": 2, "*4": 8}

>  <ordered_mapped_smiles>  (3) 
[NH:1]1[NH:2][CH:3]([F:4])[N:5]([H:13])[CH2:6][NH:7]1.[CH2:8]([CH2:9][CH:10][OH:11])[H:12]

>  <mol_properties>  (3) 
{"2": {"label": "*0", "atom_type": "Cs"}, "4": {"label": "*3", "atom_type": "N3s"}, "8": {"label": "*4", "atom_type": "C2s"}, "9": {"label": "*1", "atom_type": "C2s"}, "12": {"label": "*2", "atom_type": "H0"}}

>  <level_of_theory>  (3) 
wb97xd/def2tzvp

>  <lot_method>  (3) 
wb97xd

>  <lot_basis>  (3) 
def2tzvp

>  <spin_multiplicity>  (3) 
2.0

>  <optical_isomers>  (3) 
1.0

>  <modes>  (3) 
IdealGasTranslation(mass=(153.021, 'amu')),         NonlinearRotor(             inertia = ([236.659, 787.845, 1024.51

>  <frequency_value>  (3) 
-2153.76

>  <frequency_units>  (3) 
cm^-1

>  <frequency_list>  (3) 
unknown

>  <arkane_path>  (3) 
/home/calvin/Dropbox/PersonalFolders/Calvin/Kfir_HAb_Converged/kfir_rxn_9409/output/rxns/TS0/arkane/output.py

>  <path_exists>  (3) 
True

>  <E0_value>  (3) 
-1537080.0

>  <E0_units>  (3) 
kJ/mol

>  <thermo_class>  (3) 
unknown

>  <Cp0_value>  (3) 
unknown

>  <Cp0_units>  (3) 
unknown

>  <CpInf_value>  (3) 
unknown

>  <CpInf_units>  (3) 
unknown

>  <Tmin_value>  (3) 
unknown

>  <Tmin_units>  (3) 
unknown

>  <Tmax_value>  (3) 
unknown

>  <Tmax_units>  (3) 
unknown

>  <polynomials>  (3) 
unknown

>  <H298_value>  (3) 
unknown

>  <H298_units>  (3) 
unknown

>  <S298_value>  (3) 
unknown

>  <S298_units>  (3) 
unknown

>  <Cp_T_value_list>  (3) 
unknown

>  <Cp_T_units>  (3) 
unknown

>  <T_list>  (3) 
unknown

>  <T_units>  (3) 
unknown

>  <yaml_path>  (3) 
unknown

>  <frequencies_cm1>  (3) 
unknown

>  <ZPE_kJmol>  (3) 
unknown

>  <E_elec_kJmol>  (3) 
unknown

>  <E0_minus_Eelec_plus_ZPE_kJmol>  (3) 
unknown

>  <rxn>  (3) 
unknown

>  <species_type>  (3) 
unknown

>  <species_folder>  (3) 
unknown

>  <frequencies_cm1_list>  (3) 
[]

>  <ts_imag_freq_cm1>  (3) 
-2179.9146

>  <ts_freq_out_path>  (3) 
/home/calvin/Dropbox/PersonalFolders/Calvin/Kfir_HAb_Converged/kfir_rxn_9409/output/rxns/TS0/geometry/freq.out

>  <E0_kJmol>  (3) 
-1.53708e+06

>  <H298_kJmol>  (3) 
unknown

$$$$

     RDKit          3D

  5  4  0  0  0  0  0  0  0  0999 V2000
    1.2560   -0.0384    0.4590 C   0  0  0  0  0  0  0  0  0  1  0  0
    0.0540   -0.0132    0.3372 C   0  0  0  0  0  0  0  0  0  2  0  0
   -1.2752    0.3181    0.1032 C   0  0  0  0  0  3  0  0  0  3  0  0
   -2.3463   -0.1598    0.1584 O   0  0  0  0  0  0  0  0  0  4  0  0
    2.3114   -0.1068    0.5812 H   0  0  0  0  0  0  0  0  0  5  0  0
  1  5  1  0
  1  2  1  0
  2  3  1  0
  3  4  1  0
M  RAD  1   3   2
M  END
>  <rmg_smiles>  (4) 
[CH]C[C]O

>  <rmg_adjacency_list>  (4) 
multiplicity 2
1 O u0 p2 c0 {3,S}
2 C u0 p1 c0 {3,S} {4,S}
3 C u1 p1 c0 {1,S} {2,S}
4 C u0 p1 c0 {2,S} {5,S}
5 H u0 p0 c0 {4,S}


>  <multiplicity>  (4) 
2

>  <reaction>  (4) 
kfir_rxn_9409

>  <type>  (4) 
r1

>  <role_mapnums>  (4) 
{}

>  <role_mapidx>  (4) 
{}

>  <ordered_mapped_smiles>  (4) 
[CH2:1]([CH2:2][CH:3][OH:4])[H:5]

>  <level_of_theory>  (4) 
wb97xd/def2tzvp

>  <lot_method>  (4) 
wb97xd

>  <lot_basis>  (4) 
def2tzvp

>  <spin_multiplicity>  (4) 
2.0

>  <optical_isomers>  (4) 
1.0

>  <modes>  (4) 
IdealGasTranslation(mass=(53.0027, 'amu')),         NonlinearRotor(             inertia = ([1.82018, 110.031, 111.852

>  <frequency_value>  (4) 
unknown

>  <frequency_units>  (4) 
unknown

>  <frequency_list>  (4) 
unknown

>  <arkane_path>  (4) 
/home/calvin/Dropbox/PersonalFolders/Calvin/Kfir_HAb_Converged/kfir_rxn_9409/output/Species/CtC_C_=O/arkane/output.py

>  <path_exists>  (4) 
True

>  <E0_value>  (4) 
-498793.48647322366

>  <E0_units>  (4) 
kJ/mol

>  <thermo_class>  (4) 
NASA

>  <Cp0_value>  (4) 
33.257888

>  <Cp0_units>  (4) 
J/(mol*K)

>  <CpInf_value>  (4) 
108.088136

>  <CpInf_units>  (4) 
J/(mol*K)

>  <Tmin_value>  (4) 
10.0

>  <Tmin_units>  (4) 
K

>  <Tmax_value>  (4) 
3000.0

>  <Tmax_units>  (4) 
K

>  <polynomials>  (4) 
[{"name": "polynomial1", "class": "NASAPolynomial", "Tmin_value": 10.0, "Tmin_units": "K", "Tmax_value": 427.01601816998846, "Tmax_units": "K", "coeffs": [3.9084049558263882, 0.006581206020047835, 6.405041828468818e-05, -1.968924434415991e-07, 1.6804094495693451e-10, -59990999.23288065, 7.685218709760576]}, {"name": "polynomial2", "class": "NASAPolynomial", "Tmin_value": 427.01601816998846, "Tmin_units": "K", "Tmax_value": 3000.0, "Tmax_units": "K", "coeffs": [5.1998448375875235, 0.010612485145048534, -6.76625275940147e-06, 2.120342662164466e-09, -2.578059125895958e-13, -59991256.57279899, 0.8319025165138733]}]

>  <H298_value>  (4) 
-119211.1001349797

>  <H298_units>  (4) 
kcal/mol

>  <S298_value>  (4) 
66.27612910591247

>  <S298_units>  (4) 
cal/(mol*K)

>  <Cp_T_value_list>  (4) 
[15.286268231810727, 16.870759409057214, 18.010955074558588, 18.989879062109477, 20.546620922578057, 21.677668603186667, 23.34076952564486, 24.239250938252855, 24.74952189251546]

>  <Cp_T_units>  (4) 
cal/(mol*K)

>  <T_list>  (4) 
[300.0, 400.0, 500.0, 600.0, 800.0, 1000.0, 1500.0, 2000.0, 2400.0]

>  <T_units>  (4) 
K

>  <yaml_path>  (4) 
/home/calvin/Dropbox/PersonalFolders/Calvin/Kfir_HAb_Converged/kfir_rxn_9409/output/Species/CtC_C_=O/CtC_C_=O.yml

>  <frequencies_cm1>  (4) 
[195.83268735576002, 246.01661607431996, 514.15865884968, 533.86690671808, 783.4474881734801, 844.6941302425598, 1953.9526039087598, 2102.93185042616, 3423.2951867997995]

>  <ZPE_kJmol>  (4) 
63.3913084495716

>  <E_elec_kJmol>  (4) 
-498856.8777816732

>  <E0_minus_Eelec_plus_ZPE_kJmol>  (4) 
0.0

>  <rxn>  (4) 
kfir_rxn_9409

>  <species_type>  (4) 
p1

>  <species_folder>  (4) 
CtC_C_=O

>  <frequencies_cm1_list>  (4) 
[195.83268735576002, 246.01661607431996, 514.15865884968, 533.86690671808, 783.4474881734801, 844.6941302425598, 1953.9526039087598, 2102.93185042616, 3423.2951867997995]

>  <E0_kJmol>  (4) 
-498793

>  <H298_kJmol>  (4) 
-498779

$$$$

     RDKit          3D

  7  7  0  0  0  0  0  0  0  0999 V2000
   -1.0451   -1.0587    0.4139 N   0  0  0  0  0  2  0  0  0  1  0  0
    0.2233   -1.1484    0.1757 N   0  0  0  0  0  0  0  0  0  2  0  0
    0.8848   -0.0376   -0.1355 C   0  0  0  0  0  0  0  0  0  3  0  0
    2.1546   -0.1742   -0.3664 F   0  0  0  0  0  0  0  0  0  4  0  0
    0.3610    1.1601   -0.2246 N   0  0  0  0  0  0  0  0  0  5  0  0
   -0.9111    1.1355    0.0328 C   0  0  0  0  0  0  0  0  0  6  0  0
   -1.6675    0.1234    0.3469 N   0  0  0  0  0  0  0  0  0  7  0  0
  1  2  1  0
  1  7  1  0
  2  3  1  0
  3  5  1  0
  3  4  1  0
  5  6  1  0
  6  7  1  0
M  RAD  1   1   2
M  END
>  <rmg_smiles>  (5) 
F[C]1[N][C][N][N][N]1

>  <rmg_adjacency_list>  (5) 
multiplicity 2
1 F u0 p3 c0 {6,S}
2 N u0 p1 c0 {4,S} {6,S}
3 N u0 p1 c0 {6,S} {7,S}
4 N u1 p1 c0 {2,S} {5,S}
5 N u0 p1 c0 {4,S} {7,S}
6 C u0 p0 c0 {1,S} {2,S} {3,S}
7 C u0 p1 c0 {3,S} {5,S}


>  <multiplicity>  (5) 
2

>  <reaction>  (5) 
kfir_rxn_9409

>  <type>  (5) 
r2

>  <role_mapnums>  (5) 
{}

>  <role_mapidx>  (5) 
{}

>  <ordered_mapped_smiles>  (5) 
[N:1]1[NH:2][CH:3]([F:4])[NH:5][CH2:6][NH:7]1

>  <level_of_theory>  (5) 
wb97xd/def2tzvp

>  <lot_method>  (5) 
wb97xd

>  <lot_basis>  (5) 
def2tzvp

>  <spin_multiplicity>  (5) 
2.0

>  <optical_isomers>  (5) 
1.0

>  <modes>  (5) 
IdealGasTranslation(mass=(99.0107, 'amu')),         NonlinearRotor(             inertia = ([70.8558, 169.435, 240.291

>  <frequency_value>  (5) 
unknown

>  <frequency_units>  (5) 
unknown

>  <frequency_list>  (5) 
unknown

>  <arkane_path>  (5) 
/home/calvin/Dropbox/PersonalFolders/Calvin/Kfir_HAb_Converged/kfir_rxn_9409/output/Species/_N-_1N=C[F]_N_Ct_Np_1/arkane/output.py

>  <path_exists>  (5) 
True

>  <E0_value>  (5) 
-1036769.9070523632

>  <E0_units>  (5) 
kJ/mol

>  <thermo_class>  (5) 
NASA

>  <Cp0_value>  (5) 
33.257888

>  <Cp0_units>  (5) 
J/(mol*K)

>  <CpInf_value>  (5) 
157.97496800000002

>  <CpInf_units>  (5) 
J/(mol*K)

>  <Tmin_value>  (5) 
10.0

>  <Tmin_units>  (5) 
K

>  <Tmax_value>  (5) 
3000.0

>  <Tmax_units>  (5) 
K

>  <polynomials>  (5) 
[{"name": "polynomial1", "class": "NASAPolynomial", "Tmin_value": 10.0, "Tmin_units": "K", "Tmax_value": 605.6205710492608, "Tmax_units": "K", "coeffs": [3.9311113231164616, 0.0038613036598202097, 8.456148586150838e-05, -1.5580869455747952e-07, 8.518085948755136e-11, -124694613.86634316, 10.933054083695312]}, {"name": "polynomial2", "class": "NASAPolynomial", "Tmin_value": 605.6205710492608, "Tmin_units": "K", "Tmax_value": 3000.0, "Tmax_units": "K", "coeffs": [2.3711917975071453, 0.030722448394791373, -2.297946173850065e-05, 7.717518302581696e-09, -9.586484383286165e-13, -124694728.58013345, 15.169465996132647]}]

>  <H298_value>  (5) 
-247790.3271996617

>  <H298_units>  (5) 
kcal/mol

>  <S298_value>  (5) 
73.58198107652574

>  <S298_units>  (5) 
cal/(mol*K)

>  <Cp_T_value_list>  (5) 
[18.248847884776975, 22.285217451960758, 25.535308470287337, 27.96951377886753, 31.399853838951028, 33.53023130857593, 35.659510579176185, 36.3659048816278, 37.0110989229931]

>  <Cp_T_units>  (5) 
cal/(mol*K)

>  <T_list>  (5) 
[300.0, 400.0, 500.0, 600.0, 800.0, 1000.0, 1500.0, 2000.0, 2400.0]

>  <T_units>  (5) 
K

>  <yaml_path>  (5) 
/home/calvin/Dropbox/PersonalFolders/Calvin/Kfir_HAb_Converged/kfir_rxn_9409/output/Species/_N-_1N=C[F]_N_Ct_Np_1/_N-_1N=CF_N_Ct_Np_1.yml

>  <frequencies_cm1>  (5) 
[166.66860070172, 382.29880673504, 473.49923876995996, 571.52545421296, 602.39942021168, 703.49517809272, 824.05883935596, 874.3595068249599, 911.9081825547199, 1013.7799097769199, 1196.11897097888, 1298.3065795258, 1439.4231278518, 1537.4562102801196, 1554.63054056544]

>  <ZPE_kJmol>  (5) 
81.04659423229667

>  <E_elec_kJmol>  (5) 
-1036850.9536465956

>  <E0_minus_Eelec_plus_ZPE_kJmol>  (5) 
0.0

>  <rxn>  (5) 
kfir_rxn_9409

>  <species_type>  (5) 
r0

>  <species_folder>  (5) 
_N-_1N=C[F]_N_Ct_Np_1

>  <frequencies_cm1_list>  (5) 
[166.66860070172, 382.29880673504, 473.49923876995996, 571.52545421296, 602.39942021168, 703.49517809272, 824.05883935596, 874.3595068249599, 911.9081825547199, 1013.7799097769199, 1196.11897097888, 1298.3065795258, 1439.4231278518, 1537.4562102801196, 1554.63054056544]

>  <E0_kJmol>  (5) 
-1.03677e+06

>  <H298_kJmol>  (5) 
-1.03675e+06

$$$$
