
     RDKit          3D

  6  5  0  0  0  0  0  0  0  0999 V2000
    0.8533    0.1172    0.7808 N   0  0  0  0  0  0  0  0  0  1  0  0
   -0.1765   -0.3818    0.0342 C   0  0  0  0  0  0  0  0  0  2  0  0
   -0.7046    0.2011   -0.8821 O   0  0  0  0  0  0  0  0  0  3  0  0
    0.9917    1.1208    0.7188 H   0  0  0  0  0  0  0  0  0  4  0  0
    0.8622   -0.2353    1.7326 H   0  0  0  0  0  0  0  0  0  5  0  0
   -0.4607   -1.4152    0.3093 H   0  0  0  0  0  0  0  0  0  6  0  0
  1  5  1  0
  1  2  1  0
  1  4  1  0
  2  3  1  0
  2  6  1  0
M  END
>  <rmg_smiles>  (1) 
N[CH][O]

>  <rmg_adjacency_list>  (1) 
1 O u0 p2 c0 {3,S}
2 N u0 p1 c0 {3,S} {4,S} {5,S}
3 C u0 p0 c0 {1,S} {2,S} {6,S}
4 H u0 p0 c0 {2,S}
5 H u0 p0 c0 {2,S}
6 H u0 p0 c0 {3,S}


>  <multiplicity>  (1) 
1

>  <reaction>  (1) 
kfir_rxn_1315

>  <type>  (1) 
r1h

>  <role_mapnums>  (1) 
{"r1h_a": 1, "r1h_h": 4}

>  <role_mapidx>  (1) 
{"r1h_a": 0, "r1h_h": 3}

>  <ordered_mapped_smiles>  (1) 
[N:1]([CH:2]([OH:3])[H:6])([H:4])[H:5]

>  <mol_properties>  (1) 
{"0": {"label": "donator", "atom_type": "N3s"}, "3": {"label": "d_hydrogen", "atom_type": "H0"}}

>  <level_of_theory>  (1) 
wb97xd/def2tzvp

>  <lot_method>  (1) 
wb97xd

>  <lot_basis>  (1) 
def2tzvp

>  <spin_multiplicity>  (1) 
1.0

>  <optical_isomers>  (1) 
1.0

>  <modes>  (1) 
IdealGasTranslation(mass=(45.0215, 'amu')),         NonlinearRotor(             inertia = ([6.82405, 44.0983, 50.9223

>  <frequency_value>  (1) 
unknown

>  <frequency_units>  (1) 
unknown

>  <frequency_list>  (1) 
unknown

>  <arkane_path>  (1) 
/home/calvin/Dropbox/PersonalFolders/Calvin/Kfir_HAb_Converged/kfir_rxn_1315/output/Species/NC=O/arkane/output.py

>  <path_exists>  (1) 
True

>  <E0_value>  (1) 
-445986.3884357063

>  <E0_units>  (1) 
kJ/mol

>  <thermo_class>  (1) 
NASA

>  <Cp0_value>  (1) 
33.257888

>  <Cp0_units>  (1) 
J/(mol*K)

>  <CpInf_value>  (1) 
133.031552

>  <CpInf_units>  (1) 
J/(mol*K)

>  <Tmin_value>  (1) 
10.0

>  <Tmin_units>  (1) 
K

>  <Tmax_value>  (1) 
3000.0

>  <Tmax_units>  (1) 
K

>  <polynomials>  (1) 
[{"name": "polynomial1", "class": "NASAPolynomial", "Tmin_value": 10.0, "Tmin_units": "K", "Tmax_value": 458.1907660490424, "Tmax_units": "K", "coeffs": [3.983020327013899, 0.0010099445315291705, 4.2453394376783185e-05, -7.318666317308131e-08, 4.113397334689566e-11, -53639771.82633273, 6.551477814382722]}, {"name": "polynomial2", "class": "NASAPolynomial", "Tmin_value": 458.1907660490424, "Tmin_units": "K", "Tmax_value": 3000.0, "Tmax_units": "K", "coeffs": [2.1535058487197927, 0.016975935745576393, -9.796706653557619e-06, 2.81022516051241e-09, -3.170922866017127e-13, -53639604.11371094, 13.950594109178798]}]

>  <H298_value>  (1) 
-106590.35960092615

>  <H298_units>  (1) 
kcal/mol

>  <S298_value>  (1) 
61.33433226068677

>  <S298_units>  (1) 
cal/(mol*K)

>  <Cp_T_value_list>  (1) 
[12.845212322450369, 15.000675708518624, 16.93846519433759, 18.636353187669716, 21.408804523048502, 23.500441400717616, 26.73597505264285, 28.470459981186377, 29.40054706531108]

>  <Cp_T_units>  (1) 
cal/(mol*K)

>  <T_list>  (1) 
[300.0, 400.0, 500.0, 600.0, 800.0, 1000.0, 1500.0, 2000.0, 2400.0]

>  <T_units>  (1) 
K

>  <yaml_path>  (1) 
/home/calvin/Dropbox/PersonalFolders/Calvin/Kfir_HAb_Converged/kfir_rxn_1315/output/Species/NC=O/NC=O.yml

>  <frequencies_cm1>  (1) 
[251.20805697623996, 569.84304280956, 636.48026835484, 1043.96031025832, 1056.10114030408, 1270.24807750828, 1413.10884010556, 1609.8205015822798, 1811.90214557924, 2930.3967145008396, 3581.977483574359, 3719.94208563848]

>  <ZPE_kJmol>  (1) 
118.998492564736

>  <E_elec_kJmol>  (1) 
-446105.386928271

>  <E0_minus_Eelec_plus_ZPE_kJmol>  (1) 
0.0

>  <rxn>  (1) 
kfir_rxn_1315

>  <species_type>  (1) 
r1

>  <species_folder>  (1) 
NC=O

>  <frequencies_cm1_list>  (1) 
[251.20805697623996, 569.84304280956, 636.48026835484, 1043.96031025832, 1056.10114030408, 1270.24807750828, 1413.10884010556, 1609.8205015822798, 1811.90214557924, 2930.3967145008396, 3581.977483574359, 3719.94208563848]

>  <E0_kJmol>  (1) 
-445986

>  <H298_kJmol>  (1) 
-445974

$$$$

     RDKit          3D

  8  7  0  0  0  0  0  0  0  0999 V2000
    1.4233    0.2332   -0.4009 O   0  0  0  0  0  0  0  0  0  1  0  0
    0.1541    0.6787   -0.6488 C   0  0  0  0  0  0  0  0  0  2  0  0
   -0.9485    0.0272    0.1709 C   0  0  0  0  0  0  0  0  0  3  0  0
   -0.8010   -0.8848    0.9304 O   0  0  0  0  0  0  0  0  0  4  0  0
   -0.1509    0.5891   -1.7026 H   0  0  0  0  0  0  0  0  0  5  0  0
    0.1131    1.7449   -0.3816 H   0  0  0  0  0  0  0  0  0  6  0  0
   -1.9477    0.4718   -0.0092 H   0  0  0  0  0  0  0  0  0  7  0  0
    1.5460   -0.7006   -0.5868 H   0  0  0  0  0  0  0  0  0  8  0  0
  1  8  1  0
  1  2  1  0
  2  5  1  0
  2  6  1  0
  2  3  1  0
  3  4  1  0
  3  7  1  0
M  END
>  <rmg_smiles>  (2) 
O[CH]CO

>  <rmg_adjacency_list>  (2) 
1 O u0 p2 c0 {3,S} {8,S}
2 O u0 p2 c0 {4,S}
3 C u0 p0 c0 {1,S} {4,S} {5,S} {6,S}
4 C u0 p0 c0 {2,S} {3,S} {7,S}
5 H u0 p0 c0 {3,S}
6 H u0 p0 c0 {3,S}
7 H u0 p0 c0 {4,S}
8 H u0 p0 c0 {1,S}


>  <multiplicity>  (2) 
1

>  <reaction>  (2) 
kfir_rxn_1315

>  <type>  (2) 
r2h

>  <role_mapnums>  (2) 
{"r2h_a": 1, "r2h_h": 8}

>  <role_mapidx>  (2) 
{"r2h_a": 0, "r2h_h": 7}

>  <ordered_mapped_smiles>  (2) 
[O:1]([C:2]([CH:3]([OH:4])[H:7])([H:5])[H:6])[H:8]

>  <mol_properties>  (2) 
{"0": {"label": "acceptor", "atom_type": "O2s"}, "7": {"label": "a_hydrogen", "atom_type": "H0"}}

>  <level_of_theory>  (2) 
wb97xd/def2tzvp

>  <lot_method>  (2) 
wb97xd

>  <lot_basis>  (2) 
def2tzvp

>  <spin_multiplicity>  (2) 
1.0

>  <optical_isomers>  (2) 
1.0

>  <modes>  (2) 
IdealGasTranslation(mass=(60.0211, 'amu')),         NonlinearRotor(             inertia = ([26.9856, 76.8965, 100.757

>  <frequency_value>  (2) 
unknown

>  <frequency_units>  (2) 
unknown

>  <frequency_list>  (2) 
unknown

>  <arkane_path>  (2) 
/home/calvin/Dropbox/PersonalFolders/Calvin/Kfir_HAb_Converged/kfir_rxn_1315/output/Species/O=CCO/arkane/output.py

>  <path_exists>  (2) 
True

>  <E0_value>  (2) 
-601256.2994580426

>  <E0_units>  (2) 
kJ/mol

>  <thermo_class>  (2) 
NASA

>  <Cp0_value>  (2) 
33.257888

>  <Cp0_units>  (2) 
J/(mol*K)

>  <CpInf_value>  (2) 
178.76114800000002

>  <CpInf_units>  (2) 
J/(mol*K)

>  <Tmin_value>  (2) 
10.0

>  <Tmin_units>  (2) 
K

>  <Tmax_value>  (2) 
3000.0

>  <Tmax_units>  (2) 
K

>  <polynomials>  (2) 
[{"name": "polynomial1", "class": "NASAPolynomial", "Tmin_value": 10.0, "Tmin_units": "K", "Tmax_value": 382.6049597126285, "Tmax_units": "K", "coeffs": [3.9718109169048734, 0.0018925748748947703, 8.658468032427558e-05, -1.7709028340107997e-07, 1.186705930666418e-10, -72314429.13448942, 8.440257452414192]}, {"name": "polynomial2", "class": "NASAPolynomial", "Tmin_value": 382.6049597126285, "Tmin_units": "K", "Tmax_value": 3000.0, "Tmax_units": "K", "coeffs": [1.4152940482599496, 0.0286201758553521, -1.820115097387957e-05, 5.493679541017233e-09, -6.331206725748761e-13, -72314233.50814782, 18.317782876069558]}]

>  <H298_value>  (2) 
-143700.2498225994

>  <H298_units>  (2) 
kcal/mol

>  <S298_value>  (2) 
67.8598649401548

>  <S298_units>  (2) 
cal/(mol*K)

>  <Cp_T_value_list>  (2) 
[16.915099273131823, 20.44153447619898, 23.49322052503572, 26.111034060215104, 30.23760399464874, 33.1761696931994, 37.218317399548006, 39.089439731026275, 40.15009254059531]

>  <Cp_T_units>  (2) 
cal/(mol*K)

>  <T_list>  (2) 
[300.0, 400.0, 500.0, 600.0, 800.0, 1000.0, 1500.0, 2000.0, 2400.0]

>  <T_units>  (2) 
K

>  <yaml_path>  (2) 
/home/calvin/Dropbox/PersonalFolders/Calvin/Kfir_HAb_Converged/kfir_rxn_1315/output/Species/O=CCO/O=CCO.yml

>  <frequencies_cm1>  (2) 
[228.790173446167, 294.73717810183643, 718.443537234324, 765.0059812872942, 868.6445703930468, 1100.0635537521732, 1149.834386565708, 1242.899374810849, 1300.45454284886, 1383.626257625706, 1435.1181960705196, 1465.508105836067, 1815.9171741471318, 2920.153577205362, 2967.0739968573007, 2988.1852920629785, 3733.3751730555305]

>  <ZPE_kJmol>  (2) 
157.77451232170392

>  <E_elec_kJmol>  (2) 
-601414.0739703643

>  <E0_minus_Eelec_plus_ZPE_kJmol>  (2) 
0.0

>  <rxn>  (2) 
kfir_rxn_1315

>  <species_type>  (2) 
p0

>  <species_folder>  (2) 
O=CCO

>  <frequencies_cm1_list>  (2) 
[228.790173446167, 294.73717810183643, 718.443537234324, 765.0059812872942, 868.6445703930468, 1100.0635537521732, 1149.834386565708, 1242.899374810849, 1300.45454284886, 1383.626257625706, 1435.1181960705196, 1465.508105836067, 1815.9171741471318, 2920.153577205362, 2967.0739968573007, 2988.1852920629785, 3733.3751730555305]

>  <E0_kJmol>  (2) 
-601256

>  <H298_kJmol>  (2) 
-601242

$$$$

     RDKit          3D

 13 11  0  0  0  0  0  0  0  0999 V2000
    1.2415    1.3682    0.4616 O   0  0  0  0  0  0  0  0  0  1  0  0
   -0.0276    1.8137    0.2137 C   0  0  0  0  0  0  0  0  0  2  0  0
   -1.1302    1.1622    1.0334 C   0  0  0  0  0  0  0  0  0  3  0  0
   -0.9827    0.2502    1.7929 O   0  0  0  0  0  0  0  0  0  4  0  0
   -0.3326    1.7241   -0.8401 H   0  0  0  0  0  0  0  0  0  5  0  0
   -0.0686    2.8799    0.4808 H   0  0  0  0  0  0  0  0  0  6  0  0
   -2.1294    1.6068    0.8533 H   0  0  0  0  0  0  0  0  0  7  0  0
    1.2128   -0.9930    0.3199 N   0  0  0  0  0  0  0  0  0  8  0  0
    0.1831   -1.4920   -0.4267 C   0  0  0  0  0  0  0  0  0  9  0  0
   -0.3451   -0.9091   -1.3430 O   0  0  0  0  0  1  0  0  0 10  0  0
    1.3865    0.2660    0.2421 H   0  0  0  0  0  0  0  0  0 11  0  0
    1.2217   -1.3455    1.2717 H   0  0  0  0  0  0  0  0  0 12  0  0
   -0.1012   -2.5254   -0.1516 H   0  0  0  0  0  0  0  0  0 13  0  0
  1 11  1  0
  1  2  1  0
  2  5  1  0
  2  6  1  0
  2  3  1  0
  3  4  1  0
  3  7  1  0
  8 12  1  0
  8  9  1  0
  9 10  1  0
  9 13  1  0
M  RAD  1  10   2
M  END
>  <rmg_smiles>  (3) 
[O][CH]CO.[NH][CH][O]

>  <rmg_adjacency_list>  (3) 
multiplicity 2
1  O u0 p2 c0 {5,S} {12,S}
2  O u0 p2 c0 {6,S}
3  O u1 p2 c0 {7,S}
4  N u0 p1 c0 {7,S} {13,S}
5  C u0 p0 c0 {1,S} {6,S} {8,S} {9,S}
6  C u0 p0 c0 {2,S} {5,S} {10,S}
7  C u0 p0 c0 {3,S} {4,S} {11,S}
8  H u0 p0 c0 {5,S}
9  H u0 p0 c0 {5,S}
10 H u0 p0 c0 {6,S}
11 H u0 p0 c0 {7,S}
12 H u0 p0 c0 {1,S}
13 H u0 p0 c0 {4,S}


>  <multiplicity>  (3) 
2

>  <reaction>  (3) 
kfir_rxn_1315

>  <type>  (3) 
ts

>  <role_mapnums>  (3) 
{"*2": 11, "*1": 8, "*3": 1, "*0": 2, "*4": 9}

>  <role_mapidx>  (3) 
{"*2": 10, "*1": 7, "*3": 0, "*0": 1, "*4": 8}

>  <ordered_mapped_smiles>  (3) 
[O:1]([C:2]([CH:3]([OH:4])[H:7])([H:5])[H:6])[H:11].[NH:8]([CH:9]([O:10])[H:13])[H:12]

>  <mol_properties>  (3) 
{"0": {"label": "*3", "atom_type": "O2s"}, "1": {"label": "*0", "atom_type": "Cs"}, "7": {"label": "*1", "atom_type": "N3s"}, "8": {"label": "*4", "atom_type": "Cs"}, "10": {"label": "*2", "atom_type": "H0"}}

>  <level_of_theory>  (3) 
wb97xd/def2tzvp

>  <lot_method>  (3) 
wb97xd

>  <lot_basis>  (3) 
def2tzvp

>  <spin_multiplicity>  (3) 
2.0

>  <optical_isomers>  (3) 
2.0

>  <modes>  (3) 
IdealGasTranslation(mass=(104.035, 'amu')),         NonlinearRotor(             inertia = ([145.827, 253.322, 282.549

>  <frequency_value>  (3) 
-1789.61

>  <frequency_units>  (3) 
cm^-1

>  <frequency_list>  (3) 
unknown

>  <arkane_path>  (3) 
/home/calvin/Dropbox/PersonalFolders/Calvin/Kfir_HAb_Converged/kfir_rxn_1315/output/rxns/TS0/arkane/output.py

>  <path_exists>  (3) 
True

>  <E0_value>  (3) 
-1045450.0

>  <E0_units>  (3) 
kJ/mol

>  <thermo_class>  (3) 
unknown

>  <Cp0_value>  (3) 
unknown

>  <Cp0_units>  (3) 
unknown

>  <CpInf_value>  (3) 
unknown

>  <CpInf_units>  (3) 
unknown

>  <Tmin_value>  (3) 
unknown

>  <Tmin_units>  (3) 
unknown

>  <Tmax_value>  (3) 
unknown

>  <Tmax_units>  (3) 
unknown

>  <polynomials>  (3) 
unknown

>  <H298_value>  (3) 
unknown

>  <H298_units>  (3) 
unknown

>  <S298_value>  (3) 
unknown

>  <S298_units>  (3) 
unknown

>  <Cp_T_value_list>  (3) 
unknown

>  <Cp_T_units>  (3) 
unknown

>  <T_list>  (3) 
unknown

>  <T_units>  (3) 
unknown

>  <yaml_path>  (3) 
unknown

>  <frequencies_cm1>  (3) 
unknown

>  <ZPE_kJmol>  (3) 
unknown

>  <E_elec_kJmol>  (3) 
unknown

>  <E0_minus_Eelec_plus_ZPE_kJmol>  (3) 
unknown

>  <rxn>  (3) 
unknown

>  <species_type>  (3) 
unknown

>  <species_folder>  (3) 
unknown

>  <frequencies_cm1_list>  (3) 
[]

>  <ts_imag_freq_cm1>  (3) 
-1811.3492

>  <ts_freq_out_path>  (3) 
/home/calvin/Dropbox/PersonalFolders/Calvin/Kfir_HAb_Converged/kfir_rxn_1315/output/rxns/TS0/geometry/freq.out

>  <E0_kJmol>  (3) 
-1.04545e+06

>  <H298_kJmol>  (3) 
unknown

$$$$

     RDKit          3D

  5  4  0  0  0  0  0  0  0  0999 V2000
    0.9475    0.2908    0.1330 N   0  0  0  0  0  0  0  0  0  1  0  0
   -0.3882    0.1495   -0.1200 C   0  0  0  0  0  0  0  0  0  2  0  0
   -1.0274   -0.8082    0.2801 O   0  0  0  0  0  1  0  0  0  3  0  0
    1.3352   -0.6394    0.3175 H   0  0  0  0  0  0  0  0  0  4  0  0
   -0.8671    1.0073   -0.6105 H   0  0  0  0  0  0  0  0  0  5  0  0
  1  2  1  0
  1  4  1  0
  2  5  1  0
  2  3  1  0
M  RAD  1   3   2
M  END
>  <rmg_smiles>  (4) 
[NH][CH][O]

>  <rmg_adjacency_list>  (4) 
multiplicity 2
1 O u1 p2 c0 {3,S}
2 N u0 p1 c0 {3,S} {5,S}
3 C u0 p0 c0 {1,S} {2,S} {4,S}
4 H u0 p0 c0 {3,S}
5 H u0 p0 c0 {2,S}


>  <multiplicity>  (4) 
2

>  <reaction>  (4) 
kfir_rxn_1315

>  <type>  (4) 
r1

>  <role_mapnums>  (4) 
{}

>  <role_mapidx>  (4) 
{}

>  <ordered_mapped_smiles>  (4) 
[NH:1]([CH:2]([O:3])[H:5])[H:4]

>  <level_of_theory>  (4) 
wb97xd/def2tzvp

>  <lot_method>  (4) 
wb97xd

>  <lot_basis>  (4) 
def2tzvp

>  <spin_multiplicity>  (4) 
2.0

>  <optical_isomers>  (4) 
2.0

>  <modes>  (4) 
IdealGasTranslation(mass=(44.0136, 'amu')),         NonlinearRotor(             inertia = ([7.06568, 39.6158, 46.473

>  <frequency_value>  (4) 
unknown

>  <frequency_units>  (4) 
unknown

>  <frequency_list>  (4) 
unknown

>  <arkane_path>  (4) 
/home/calvin/Dropbox/PersonalFolders/Calvin/Kfir_HAb_Converged/kfir_rxn_1315/output/Species/_NH_C=O/arkane/output.py

>  <path_exists>  (4) 
True

>  <E0_value>  (4) 
-444201.19755526

>  <E0_units>  (4) 
kJ/mol

>  <thermo_class>  (4) 
NASA

>  <Cp0_value>  (4) 
33.257888

>  <Cp0_units>  (4) 
J/(mol*K)

>  <CpInf_value>  (4) 
103.9309

>  <CpInf_units>  (4) 
J/(mol*K)

>  <Tmin_value>  (4) 
10.0

>  <Tmin_units>  (4) 
K

>  <Tmax_value>  (4) 
3000.0

>  <Tmax_units>  (4) 
K

>  <polynomials>  (4) 
[{"name": "polynomial1", "class": "NASAPolynomial", "Tmin_value": 10.0, "Tmin_units": "K", "Tmax_value": 194.7506529234248, "Tmax_units": "K", "coeffs": [3.9796679333145684, 0.002031437766112603, 6.76718965956286e-05, -2.5415100745172917e-07, 3.2878748970005334e-10, -53425065.36170585, 7.996115308645455]}, {"name": "polynomial2", "class": "NASAPolynomial", "Tmin_value": 194.7506529234248, "Tmin_units": "K", "Tmax_value": 3000.0, "Tmax_units": "K", "coeffs": [3.5063563198814114, 0.01175293006326686, -7.205369609890977e-06, 2.170179203713904e-09, -2.537235922740165e-13, -53425046.926356494, 9.505210634149224]}]

>  <H298_value>  (4) 
-106163.60515591448

>  <H298_units>  (4) 
kcal/mol

>  <S298_value>  (4) 
64.94654674293785

>  <S298_units>  (4) 
cal/(mol*K)

>  <Cp_T_value_list>  (4) 
[12.798189636384135, 14.282182991643623, 15.573525958879369, 16.692648730764798, 18.489904045114223, 19.813188819822646, 21.78683568573239, 22.83815782795532, 23.435279232704676]

>  <Cp_T_units>  (4) 
cal/(mol*K)

>  <T_list>  (4) 
[300.0, 400.0, 500.0, 600.0, 800.0, 1000.0, 1500.0, 2000.0, 2400.0]

>  <T_units>  (4) 
K

>  <yaml_path>  (4) 
/home/calvin/Dropbox/PersonalFolders/Calvin/Kfir_HAb_Converged/kfir_rxn_1315/output/Species/_NH_C=O/_NH_C=O.yml

>  <frequencies_cm1>  (4) 
[523.9074930559112, 942.0182651171808, 1074.8261953398405, 1213.4687790000046, 1387.8256405320508, 1565.1203436679255, 3016.80506486064, 3413.9817531947865]

>  <ZPE_kJmol>  (4) 
78.58243561611592

>  <E_elec_kJmol>  (4) 
-444279.7799908761

>  <E0_minus_Eelec_plus_ZPE_kJmol>  (4) 
0.0

>  <rxn>  (4) 
kfir_rxn_1315

>  <species_type>  (4) 
p1

>  <species_folder>  (4) 
_NH_C=O

>  <frequencies_cm1_list>  (4) 
[523.9074930559112, 942.0182651171808, 1074.8261953398405, 1213.4687790000046, 1387.8256405320508, 1565.1203436679255, 3016.80506486064, 3413.9817531947865]

>  <E0_kJmol>  (4) 
-444201

>  <H298_kJmol>  (4) 
-444189

$$$$

     RDKit          3D

  7  6  0  0  0  0  0  0  0  0999 V2000
   -1.3409    1.0234    0.1140 O   0  0  0  0  0  1  0  0  0  1  0  0
   -0.6348   -0.1183    0.0484 C   0  0  0  0  0  0  0  0  0  2  0  0
    0.8807    0.1187    0.0062 C   0  0  0  0  0  0  0  0  0  3  0  0
    1.6671   -0.6528    0.4626 O   0  0  0  0  0  0  0  0  0  4  0  0
   -0.8526   -0.5621   -0.9466 H   0  0  0  0  0  0  0  0  0  5  0  0
   -0.8955   -0.8746    0.8021 H   0  0  0  0  0  0  0  0  0  6  0  0
    1.1760    1.0657   -0.4867 H   0  0  0  0  0  0  0  0  0  7  0  0
  1  2  1  0
  2  5  1  0
  2  6  1  0
  2  3  1  0
  3  4  1  0
  3  7  1  0
M  RAD  1   1   2
M  END
>  <rmg_smiles>  (5) 
O[CH]C[O]

>  <rmg_adjacency_list>  (5) 
multiplicity 2
1 O u1 p2 c0 {3,S}
2 O u0 p2 c0 {4,S}
3 C u0 p0 c0 {1,S} {4,S} {5,S} {6,S}
4 C u0 p0 c0 {2,S} {3,S} {7,S}
5 H u0 p0 c0 {3,S}
6 H u0 p0 c0 {3,S}
7 H u0 p0 c0 {4,S}


>  <multiplicity>  (5) 
2

>  <reaction>  (5) 
kfir_rxn_1315

>  <type>  (5) 
r2

>  <role_mapnums>  (5) 
{}

>  <role_mapidx>  (5) 
{}

>  <ordered_mapped_smiles>  (5) 
[O:1][C:2]([CH:3]([OH:4])[H:7])([H:5])[H:6]

>  <level_of_theory>  (5) 
wb97xd/def2tzvp

>  <lot_method>  (5) 
wb97xd

>  <lot_basis>  (5) 
def2tzvp

>  <spin_multiplicity>  (5) 
2.0

>  <optical_isomers>  (5) 
2.0

>  <modes>  (5) 
IdealGasTranslation(mass=(59.0133, 'amu')),         NonlinearRotor(             inertia = ([13.0516, 108.928, 115.874

>  <frequency_value>  (5) 
unknown

>  <frequency_units>  (5) 
unknown

>  <frequency_list>  (5) 
unknown

>  <arkane_path>  (5) 
/home/calvin/Dropbox/PersonalFolders/Calvin/Kfir_HAb_Converged/kfir_rxn_1315/output/Species/_O_CC=O/arkane/output.py

>  <path_exists>  (5) 
True

>  <E0_value>  (5) 
-599508.2356522976

>  <E0_units>  (5) 
kJ/mol

>  <thermo_class>  (5) 
NASA

>  <Cp0_value>  (5) 
33.257888

>  <Cp0_units>  (5) 
J/(mol*K)

>  <CpInf_value>  (5) 
153.817732

>  <CpInf_units>  (5) 
J/(mol*K)

>  <Tmin_value>  (5) 
10.0

>  <Tmin_units>  (5) 
K

>  <Tmax_value>  (5) 
3000.0

>  <Tmax_units>  (5) 
K

>  <polynomials>  (5) 
[{"name": "polynomial1", "class": "NASAPolynomial", "Tmin_value": 10.0, "Tmin_units": "K", "Tmax_value": 548.789369567611, "Tmax_units": "K", "coeffs": [3.961606341887605, 0.002259528302436995, 6.69005672401696e-05, -1.2297036244755875e-07, 7.004278423697131e-11, -72104184.12763913, 10.551247134196373]}, {"name": "polynomial2", "class": "NASAPolynomial", "Tmin_value": 548.789369567611, "Tmin_units": "K", "Tmax_value": 3000.0, "Tmax_units": "K", "coeffs": [2.013350304626502, 0.024588426216502254, -1.6348322665387434e-05, 5.149765794579629e-09, -6.172526825851024e-13, -72104092.69421302, 17.66621423190916]}]

>  <H298_value>  (5) 
-143282.60168148685

>  <H298_units>  (5) 
kcal/mol

>  <S298_value>  (5) 
71.17794803863909

>  <S298_units>  (5) 
cal/(mol*K)

>  <Cp_T_value_list>  (5) 
[15.714158626379824, 18.86355870613855, 21.50731937821346, 23.67431307542163, 27.035980533213035, 29.38276968120569, 32.526360490645125, 34.01897917000495, 34.916478933687884]

>  <Cp_T_units>  (5) 
cal/(mol*K)

>  <T_list>  (5) 
[300.0, 400.0, 500.0, 600.0, 800.0, 1000.0, 1500.0, 2000.0, 2400.0]

>  <T_units>  (5) 
K

>  <yaml_path>  (5) 
/home/calvin/Dropbox/PersonalFolders/Calvin/Kfir_HAb_Converged/kfir_rxn_1315/output/Species/_O_CC=O/_O_CC=O.yml

>  <frequencies_cm1>  (5) 
[339.04021529582707, 497.04195203707513, 654.2524764765305, 851.6039860086577, 1006.0957384128559, 1083.1982218687642, 1152.9802703556925, 1225.374904433723, 1349.3827798115074, 1385.0314748192886, 1836.2645830261788, 2856.88162015963, 2904.14527437521, 2983.989902140296]

>  <ZPE_kJmol>  (5) 
120.37596135426396

>  <E_elec_kJmol>  (5) 
-599628.6116136519

>  <E0_minus_Eelec_plus_ZPE_kJmol>  (5) 
0.0

>  <rxn>  (5) 
kfir_rxn_1315

>  <species_type>  (5) 
r0

>  <species_folder>  (5) 
_O_CC=O

>  <frequencies_cm1_list>  (5) 
[339.04021529582707, 497.04195203707513, 654.2524764765305, 851.6039860086577, 1006.0957384128559, 1083.1982218687642, 1152.9802703556925, 1225.374904433723, 1349.3827798115074, 1385.0314748192886, 1836.2645830261788, 2856.88162015963, 2904.14527437521, 2983.989902140296]

>  <E0_kJmol>  (5) 
-599508

>  <H298_kJmol>  (5) 
-599494

$$$$
