
     RDKit          3D

  6  5  0  0  0  0  0  0  0  0999 V2000
   -1.0671    0.2844   -0.3460 N   0  0  0  0  0  0  0  0  0  1  0  0
    0.0153   -0.3526    0.1164 C   0  0  0  0  0  0  0  0  0  2  0  0
    1.1254    0.0656    0.2488 O   0  0  0  0  0  0  0  0  0  3  0  0
   -1.0121    1.2471   -0.6437 H   0  0  0  0  0  0  0  0  0  4  0  0
   -1.9441   -0.1966   -0.4066 H   0  0  0  0  0  0  0  0  0  5  0  0
   -0.1751   -1.3881    0.3985 H   0  0  0  0  0  0  0  0  0  6  0  0
  1  5  1  0
  1  2  1  0
  1  4  1  0
  2  3  1  0
  2  6  1  0
M  END
>  <rmg_smiles>  (1) 
N[CH][O]

>  <rmg_adjacency_list>  (1) 
1 O u0 p2 c0 {3,S}
2 N u0 p1 c0 {3,S} {4,S} {5,S}
3 C u0 p0 c0 {1,S} {2,S} {6,S}
4 H u0 p0 c0 {2,S}
5 H u0 p0 c0 {2,S}
6 H u0 p0 c0 {3,S}


>  <multiplicity>  (1) 
1

>  <reaction>  (1) 
kfir_rxn_9679

>  <type>  (1) 
r1h

>  <role_mapnums>  (1) 
{"r1h_a": 2, "r1h_h": 6}

>  <role_mapidx>  (1) 
{"r1h_a": 1, "r1h_h": 5}

>  <ordered_mapped_smiles>  (1) 
[N:1]([CH:2]([OH:3])[H:6])([H:4])[H:5]

>  <mol_properties>  (1) 
{"1": {"label": "donator", "atom_type": "Cs"}, "5": {"label": "d_hydrogen", "atom_type": "H0"}}

>  <level_of_theory>  (1) 
wb97xd/def2tzvp

>  <lot_method>  (1) 
wb97xd

>  <lot_basis>  (1) 
def2tzvp

>  <spin_multiplicity>  (1) 
1.0

>  <optical_isomers>  (1) 
1.0

>  <modes>  (1) 
IdealGasTranslation(mass=(45.0215, 'amu')),         NonlinearRotor(             inertia = ([6.82405, 44.0983, 50.9223

>  <frequency_value>  (1) 
unknown

>  <frequency_units>  (1) 
unknown

>  <frequency_list>  (1) 
unknown

>  <arkane_path>  (1) 
/home/calvin/Dropbox/PersonalFolders/Calvin/Kfir_HAb_Converged/kfir_rxn_9679/output/Species/NC=O/arkane/output.py

>  <path_exists>  (1) 
True

>  <E0_value>  (1) 
-445452.62690247473

>  <E0_units>  (1) 
kJ/mol

>  <thermo_class>  (1) 
NASA

>  <Cp0_value>  (1) 
33.257888

>  <Cp0_units>  (1) 
J/(mol*K)

>  <CpInf_value>  (1) 
133.031552

>  <CpInf_units>  (1) 
J/(mol*K)

>  <Tmin_value>  (1) 
10.0

>  <Tmin_units>  (1) 
K

>  <Tmax_value>  (1) 
3000.0

>  <Tmax_units>  (1) 
K

>  <polynomials>  (1) 
[{"name": "polynomial1", "class": "NASAPolynomial", "Tmin_value": 10.0, "Tmin_units": "K", "Tmax_value": 458.1907660490424, "Tmax_units": "K", "coeffs": [3.983020327013899, 0.0010099445315291705, 4.2453394376783185e-05, -7.318666317308131e-08, 4.113397334689566e-11, -53575575.142137796, 6.551477814382722]}, {"name": "polynomial2", "class": "NASAPolynomial", "Tmin_value": 458.1907660490424, "Tmin_units": "K", "Tmax_value": 3000.0, "Tmax_units": "K", "coeffs": [2.1535058487197927, 0.016975935745576393, -9.796706653557619e-06, 2.81022516051241e-09, -3.170922866017127e-13, -53575407.429515995, 13.950594109178798]}]

>  <H298_value>  (1) 
-106462.78753275416

>  <H298_units>  (1) 
kcal/mol

>  <S298_value>  (1) 
61.33433226068677

>  <S298_units>  (1) 
cal/(mol*K)

>  <Cp_T_value_list>  (1) 
[12.845212322450369, 15.000675708518624, 16.93846519433759, 18.636353187669716, 21.408804523048502, 23.500441400717616, 26.73597505264285, 28.470459981186377, 29.40054706531108]

>  <Cp_T_units>  (1) 
cal/(mol*K)

>  <T_list>  (1) 
[300.0, 400.0, 500.0, 600.0, 800.0, 1000.0, 1500.0, 2000.0, 2400.0]

>  <T_units>  (1) 
K

>  <yaml_path>  (1) 
/home/calvin/Dropbox/PersonalFolders/Calvin/Kfir_HAb_Converged/kfir_rxn_9679/output/Species/NC=O/NC=O.yml

>  <frequencies_cm1>  (1) 
[251.20805697623996, 569.84304280956, 636.48026835484, 1043.96031025832, 1056.10114030408, 1270.24807750828, 1413.10884010556, 1609.8205015822798, 1811.90214557924, 2930.3967145008396, 3581.977483574359, 3719.94208563848]

>  <ZPE_kJmol>  (1) 
118.998492564736

>  <E_elec_kJmol>  (1) 
-445571.62539503945

>  <E0_minus_Eelec_plus_ZPE_kJmol>  (1) 
0.0

>  <rxn>  (1) 
kfir_rxn_9679

>  <species_type>  (1) 
r1

>  <species_folder>  (1) 
NC=O

>  <frequencies_cm1_list>  (1) 
[251.20805697623996, 569.84304280956, 636.48026835484, 1043.96031025832, 1056.10114030408, 1270.24807750828, 1413.10884010556, 1609.8205015822798, 1811.90214557924, 2930.3967145008396, 3581.977483574359, 3719.94208563848]

>  <E0_kJmol>  (1) 
-445453

>  <H298_kJmol>  (1) 
-445440

$$$$

     RDKit          3D

  7  6  0  0  0  0  0  0  0  0999 V2000
    1.3500   -0.2895    0.9904 O   0  0  0  0  0  0  0  0  0  1  0  0
    0.6762   -0.3540   -0.1950 C   0  0  0  0  0  0  0  0  0  2  0  0
   -0.5472    0.0951   -0.4065 C   0  0  0  0  0  2  0  0  0  3  0  0
   -1.6812    0.4826   -0.5945 N   0  0  0  0  0  0  0  0  0  4  0  0
    0.8553    0.2402    1.6189 H   0  0  0  0  0  0  0  0  0  5  0  0
    1.2267   -0.8395   -0.9862 H   0  0  0  0  0  0  0  0  0  6  0  0
   -1.6842    1.4768   -0.8998 H   0  0  0  0  0  0  0  0  0  7  0  0
  1  5  1  0
  1  2  1  0
  2  6  1  0
  2  3  1  0
  3  4  1  0
  4  7  1  0
M  RAD  1   3   3
M  END
>  <rmg_smiles>  (2) 
[NH][C][CH]O

>  <rmg_adjacency_list>  (2) 
1 O u0 p2 c0 {3,S} {6,S}
2 N u0 p1 c0 {4,S} {7,S}
3 C u0 p0 c0 {1,S} {4,S} {5,S}
4 C u0 p1 c0 {2,S} {3,S}
5 H u0 p0 c0 {3,S}
6 H u0 p0 c0 {1,S}
7 H u0 p0 c0 {2,S}


>  <multiplicity>  (2) 
1

>  <reaction>  (2) 
kfir_rxn_9679

>  <type>  (2) 
r2h

>  <role_mapnums>  (2) 
{"r2h_a": 4, "r2h_h": 7}

>  <role_mapidx>  (2) 
{"r2h_a": 3, "r2h_h": 6}

>  <ordered_mapped_smiles>  (2) 
[O:1]([CH:2]([C:3][NH:4][H:7])[H:6])[H:5]

>  <mol_properties>  (2) 
{"3": {"label": "acceptor", "atom_type": "N3s"}, "6": {"label": "a_hydrogen", "atom_type": "H0"}}

>  <level_of_theory>  (2) 
wb97xd/def2tzvp

>  <lot_method>  (2) 
wb97xd

>  <lot_basis>  (2) 
def2tzvp

>  <spin_multiplicity>  (2) 
1.0

>  <optical_isomers>  (2) 
2.0

>  <modes>  (2) 
IdealGasTranslation(mass=(57.0215, 'amu')),         NonlinearRotor(             inertia = ([10.5438, 110.608, 119.53

>  <frequency_value>  (2) 
unknown

>  <frequency_units>  (2) 
unknown

>  <frequency_list>  (2) 
unknown

>  <arkane_path>  (2) 
/home/calvin/Dropbox/PersonalFolders/Calvin/Kfir_HAb_Converged/kfir_rxn_9679/output/Species/OC=C=N/arkane/output.py

>  <path_exists>  (2) 
True

>  <E0_value>  (2) 
-545110.3857959309

>  <E0_units>  (2) 
kJ/mol

>  <thermo_class>  (2) 
NASA

>  <Cp0_value>  (2) 
33.257888

>  <Cp0_units>  (2) 
J/(mol*K)

>  <CpInf_value>  (2) 
153.817732

>  <CpInf_units>  (2) 
J/(mol*K)

>  <Tmin_value>  (2) 
10.0

>  <Tmin_units>  (2) 
K

>  <Tmax_value>  (2) 
3000.0

>  <Tmax_units>  (2) 
K

>  <polynomials>  (2) 
[{"name": "polynomial1", "class": "NASAPolynomial", "Tmin_value": 10.0, "Tmin_units": "K", "Tmax_value": 862.965448346643, "Tmax_units": "K", "coeffs": [3.8254925285353782, 0.015093464177782583, 4.194194369112785e-07, -9.861781233239949e-09, 4.701300751859647e-12, -65561634.02608792, 9.5079662440627]}, {"name": "polynomial2", "class": "NASAPolynomial", "Tmin_value": 862.965448346643, "Tmin_units": "K", "Tmax_value": 3000.0, "Tmax_units": "K", "coeffs": [4.108869472558999, 0.01730305799849784, -9.545100117928026e-06, 2.5669433950859827e-09, -2.6980190278575054e-13, -65561814.1191531, 7.422522843089285]}]

>  <H298_value>  (2) 
-130280.93504857892

>  <H298_units>  (2) 
kcal/mol

>  <S298_value>  (2) 
71.02456129134809

>  <S298_units>  (2) 
cal/(mol*K)

>  <Cp_T_value_list>  (2) 
[16.221749438604434, 18.71786489044746, 20.941555939349495, 22.876136729148413, 25.92333357179299, 28.14673096897517, 31.56586717498496, 33.29227007845587, 34.16102938474495]

>  <Cp_T_units>  (2) 
cal/(mol*K)

>  <T_list>  (2) 
[300.0, 400.0, 500.0, 600.0, 800.0, 1000.0, 1500.0, 2000.0, 2400.0]

>  <T_units>  (2) 
K

>  <yaml_path>  (2) 
/home/calvin/Dropbox/PersonalFolders/Calvin/Kfir_HAb_Converged/kfir_rxn_9679/output/Species/OC=C=N/OC=C=N.yml

>  <frequencies_cm1>  (2) 
[228.5895844469914, 375.20122316076026, 659.4224414385066, 664.0763873445227, 899.6920155220977, 1002.3062872865444, 1116.3101586552714, 1189.2399444889159, 1296.2931475576015, 1444.498999521462, 2115.5865788772207, 3202.4785582636987, 3422.78780703324, 3844.012331674422]

>  <ZPE_kJmol>  (2) 
128.36230534129092

>  <E_elec_kJmol>  (2) 
-545238.7481012722

>  <E0_minus_Eelec_plus_ZPE_kJmol>  (2) 
0.0

>  <rxn>  (2) 
kfir_rxn_9679

>  <species_type>  (2) 
p0

>  <species_folder>  (2) 
OC=C=N

>  <frequencies_cm1_list>  (2) 
[228.5895844469914, 375.20122316076026, 659.4224414385066, 664.0763873445227, 899.6920155220977, 1002.3062872865444, 1116.3101586552714, 1189.2399444889159, 1296.2931475576015, 1444.498999521462, 2115.5865788772207, 3202.4785582636987, 3422.78780703324, 3844.012331674422]

>  <E0_kJmol>  (2) 
-545110

>  <H298_kJmol>  (2) 
-545095

$$$$

     RDKit          3D

 12 10  0  0  0  0  0  0  0  0999 V2000
    2.1962   -1.9559    1.4601 O   0  0  0  0  0  0  0  0  0  1  0  0
    1.5225   -2.0205    0.2746 C   0  0  0  0  0  0  0  0  0  2  0  0
    0.2991   -1.5713    0.0632 C   0  0  0  0  0  0  0  0  0  3  0  0
   -0.8349   -1.1838   -0.1248 N   0  0  0  0  0  0  0  0  0  4  0  0
    1.7015   -1.4262    2.0886 H   0  0  0  0  0  0  0  0  0  5  0  0
    2.0729   -2.5059   -0.5165 H   0  0  0  0  0  0  0  0  0  6  0  0
   -1.6464    2.0335   -1.3278 N   0  0  0  0  0  0  0  0  0  7  0  0
   -0.5640    1.3965   -0.8654 C   0  0  0  0  0  3  0  0  0  8  0  0
    0.5461    1.8147   -0.7330 O   0  0  0  0  0  0  0  0  0  9  0  0
   -1.5913    2.9962   -1.6256 H   0  0  0  0  0  0  0  0  0 10  0  0
   -2.5234    1.5525   -1.3885 H   0  0  0  0  0  0  0  0  0 11  0  0
   -0.8383   -0.0953   -0.4590 H   0  0  0  0  0  0  0  0  0 12  0  0
  1  5  1  0
  1  2  1  0
  2  6  1  0
  2  3  1  0
  3  4  1  0
  4 12  1  0
  7 11  1  0
  7  8  1  0
  7 10  1  0
  8  9  1  0
M  RAD  1   8   2
M  END
>  <rmg_smiles>  (3) 
[NH][C][CH]O.N[C][O]

>  <rmg_adjacency_list>  (3) 
multiplicity 2
1  O u0 p2 c0 {5,S} {11,S}
2  O u0 p2 c0 {7,S}
3  N u0 p1 c0 {7,S} {9,S} {10,S}
4  N u0 p1 c0 {6,S} {12,S}
5  C u0 p0 c0 {1,S} {6,S} {8,S}
6  C u0 p1 c0 {4,S} {5,S}
7  C u1 p1 c0 {2,S} {3,S}
8  H u0 p0 c0 {5,S}
9  H u0 p0 c0 {3,S}
10 H u0 p0 c0 {3,S}
11 H u0 p0 c0 {1,S}
12 H u0 p0 c0 {4,S}


>  <multiplicity>  (3) 
2

>  <reaction>  (3) 
kfir_rxn_9679

>  <type>  (3) 
ts

>  <role_mapnums>  (3) 
{"*2": 12, "*1": 8, "*3": 4, "*0": 3, "*4": 9}

>  <role_mapidx>  (3) 
{"*2": 11, "*1": 7, "*3": 3, "*0": 2, "*4": 8}

>  <ordered_mapped_smiles>  (3) 
[O:1]([CH:2]([CH2:3][NH:4][H:12])[H:6])[H:5].[N:7]([CH:8][OH:9])([H:10])[H:11]

>  <mol_properties>  (3) 
{"2": {"label": "*0", "atom_type": "C2s"}, "3": {"label": "*3", "atom_type": "N3s"}, "7": {"label": "*1", "atom_type": "C2s"}, "8": {"label": "*4", "atom_type": "O2s"}, "11": {"label": "*2", "atom_type": "H0"}}

>  <level_of_theory>  (3) 
wb97xd/def2tzvp

>  <lot_method>  (3) 
wb97xd

>  <lot_basis>  (3) 
def2tzvp

>  <spin_multiplicity>  (3) 
2.0

>  <optical_isomers>  (3) 
2.0

>  <modes>  (3) 
IdealGasTranslation(mass=(101.035, 'amu')),         NonlinearRotor(             inertia = ([88.6561, 490.421, 558.714

>  <frequency_value>  (3) 
-1384.18

>  <frequency_units>  (3) 
cm^-1

>  <frequency_list>  (3) 
unknown

>  <arkane_path>  (3) 
/home/calvin/Dropbox/PersonalFolders/Calvin/Kfir_HAb_Converged/kfir_rxn_9679/output/rxns/TS0/arkane/output.py

>  <path_exists>  (3) 
True

>  <E0_value>  (3) 
-988858.0

>  <E0_units>  (3) 
kJ/mol

>  <thermo_class>  (3) 
unknown

>  <Cp0_value>  (3) 
unknown

>  <Cp0_units>  (3) 
unknown

>  <CpInf_value>  (3) 
unknown

>  <CpInf_units>  (3) 
unknown

>  <Tmin_value>  (3) 
unknown

>  <Tmin_units>  (3) 
unknown

>  <Tmax_value>  (3) 
unknown

>  <Tmax_units>  (3) 
unknown

>  <polynomials>  (3) 
unknown

>  <H298_value>  (3) 
unknown

>  <H298_units>  (3) 
unknown

>  <S298_value>  (3) 
unknown

>  <S298_units>  (3) 
unknown

>  <Cp_T_value_list>  (3) 
unknown

>  <Cp_T_units>  (3) 
unknown

>  <T_list>  (3) 
unknown

>  <T_units>  (3) 
unknown

>  <yaml_path>  (3) 
unknown

>  <frequencies_cm1>  (3) 
unknown

>  <ZPE_kJmol>  (3) 
unknown

>  <E_elec_kJmol>  (3) 
unknown

>  <E0_minus_Eelec_plus_ZPE_kJmol>  (3) 
unknown

>  <rxn>  (3) 
unknown

>  <species_type>  (3) 
unknown

>  <species_folder>  (3) 
unknown

>  <frequencies_cm1_list>  (3) 
[]

>  <ts_imag_freq_cm1>  (3) 
-1400.9951

>  <ts_freq_out_path>  (3) 
/home/calvin/Dropbox/PersonalFolders/Calvin/Kfir_HAb_Converged/kfir_rxn_9679/output/rxns/TS0/geometry/freq.out

>  <E0_kJmol>  (3) 
-988858

>  <H298_kJmol>  (3) 
unknown

$$$$

     RDKit          3D

  5  4  0  0  0  0  0  0  0  0999 V2000
   -0.5004   -0.1216   -0.0310 N   0  0  0  0  0  0  0  0  0  1  0  0
    0.6204    0.5980   -0.1394 C   0  0  0  0  0  3  0  0  0  2  0  0
    1.7372    0.3157    0.1498 O   0  0  0  0  0  0  0  0  0  3  0  0
   -1.3753    0.2671   -0.3242 H   0  0  0  0  0  0  0  0  0  4  0  0
   -0.4818   -1.0593    0.3448 H   0  0  0  0  0  0  0  0  0  5  0  0
  1  5  1  0
  1  2  1  0
  1  4  1  0
  2  3  1  0
M  RAD  1   2   2
M  END
>  <rmg_smiles>  (4) 
N[C][O]

>  <rmg_adjacency_list>  (4) 
multiplicity 2
1 O u0 p2 c0 {3,S}
2 N u0 p1 c0 {3,S} {4,S} {5,S}
3 C u1 p1 c0 {1,S} {2,S}
4 H u0 p0 c0 {2,S}
5 H u0 p0 c0 {2,S}


>  <multiplicity>  (4) 
2

>  <reaction>  (4) 
kfir_rxn_9679

>  <type>  (4) 
r1

>  <role_mapnums>  (4) 
{}

>  <role_mapidx>  (4) 
{}

>  <ordered_mapped_smiles>  (4) 
[N:1]([CH:2][OH:3])([H:4])[H:5]

>  <level_of_theory>  (4) 
wb97xd/def2tzvp

>  <lot_method>  (4) 
wb97xd

>  <lot_basis>  (4) 
def2tzvp

>  <spin_multiplicity>  (4) 
2.0

>  <optical_isomers>  (4) 
1.0

>  <modes>  (4) 
IdealGasTranslation(mass=(44.0136, 'amu')),         NonlinearRotor(             inertia = ([3.95066, 44.7831, 48.7338

>  <frequency_value>  (4) 
unknown

>  <frequency_units>  (4) 
unknown

>  <frequency_list>  (4) 
unknown

>  <arkane_path>  (4) 
/home/calvin/Dropbox/PersonalFolders/Calvin/Kfir_HAb_Converged/kfir_rxn_9679/output/Species/N_C_=O/arkane/output.py

>  <path_exists>  (4) 
True

>  <E0_value>  (4) 
-443753.5698769672

>  <E0_units>  (4) 
kJ/mol

>  <thermo_class>  (4) 
NASA

>  <Cp0_value>  (4) 
33.257888

>  <Cp0_units>  (4) 
J/(mol*K)

>  <CpInf_value>  (4) 
108.088136

>  <CpInf_units>  (4) 
J/(mol*K)

>  <Tmin_value>  (4) 
10.0

>  <Tmin_units>  (4) 
K

>  <Tmax_value>  (4) 
3000.0

>  <Tmax_units>  (4) 
K

>  <polynomials>  (4) 
[{"name": "polynomial1", "class": "NASAPolynomial", "Tmin_value": 10.0, "Tmin_units": "K", "Tmax_value": 507.1164466861331, "Tmax_units": "K", "coeffs": [3.976716884662168, 0.0014467348941448067, 3.836999010537263e-05, -7.640262501076293e-08, 4.768494946366997e-11, -53371225.82718237, 6.859296226393376]}, {"name": "polynomial2", "class": "NASAPolynomial", "Tmin_value": 507.1164466861331, "Tmin_units": "K", "Tmax_value": 3000.0, "Tmax_units": "K", "coeffs": [3.2456702008170484, 0.01202275023196207, -7.1394638019292175e-06, 2.1278018973393006e-09, -2.493586030974894e-13, -53371213.527018376, 9.280011356451174]}]

>  <H298_value>  (4) 
-106056.7464989677

>  <H298_units>  (4) 
kcal/mol

>  <S298_value>  (4) 
61.74231804623865

>  <S298_units>  (4) 
cal/(mol*K)

>  <Cp_T_value_list>  (4) 
[12.29566868453751, 13.961270230133115, 15.346327543129286, 16.52640753505012, 18.445073564054436, 19.886770188809066, 22.127455897359944, 23.38145775233766, 24.08210644599512]

>  <Cp_T_units>  (4) 
cal/(mol*K)

>  <T_list>  (4) 
[300.0, 400.0, 500.0, 600.0, 800.0, 1000.0, 1500.0, 2000.0, 2400.0]

>  <T_units>  (4) 
K

>  <yaml_path>  (4) 
/home/calvin/Dropbox/PersonalFolders/Calvin/Kfir_HAb_Converged/kfir_rxn_9679/output/Species/N_C_=O/N_C_=O.yml

>  <frequencies_cm1>  (4) 
[302.57310716984, 532.93299671456, 627.2029711875199, 1094.0000322851602, 1235.81014612848, 1599.37581691056, 1874.5702536095598, 3510.9453874242795, 3706.57893220576]

>  <ZPE_kJmol>  (4) 
86.63352177516764

>  <E_elec_kJmol>  (4) 
-443840.2033987424

>  <E0_minus_Eelec_plus_ZPE_kJmol>  (4) 
0.0

>  <rxn>  (4) 
kfir_rxn_9679

>  <species_type>  (4) 
p1

>  <species_folder>  (4) 
N_C_=O

>  <frequencies_cm1_list>  (4) 
[302.57310716984, 532.93299671456, 627.2029711875199, 1094.0000322851602, 1235.81014612848, 1599.37581691056, 1874.5702536095598, 3510.9453874242795, 3706.57893220576]

>  <E0_kJmol>  (4) 
-443754

>  <H298_kJmol>  (4) 
-443741

$$$$

     RDKit          3D

  6  5  0  0  0  0  0  0  0  0999 V2000
   -1.3751    0.0001    0.0052 O   0  0  0  0  0  0  0  0  0  1  0  0
   -0.1413    0.5256    0.0693 C   0  0  0  0  0  0  0  0  0  2  0  0
    1.0028   -0.2496   -0.0364 C   0  0  0  0  0  0  0  0  0  3  0  0
    1.9485   -0.9172   -0.1273 N   0  0  0  0  0  2  0  0  0  4  0  0
   -1.3298   -0.9523   -0.1196 H   0  0  0  0  0  0  0  0  0  5  0  0
   -0.1050    1.5934    0.2088 H   0  0  0  0  0  0  0  0  0  6  0  0
  1  5  1  0
  1  2  1  0
  2  6  1  0
  2  3  1  0
  3  4  1  0
M  RAD  1   4   2
M  END
>  <rmg_smiles>  (5) 
[N][C][CH]O

>  <rmg_adjacency_list>  (5) 
multiplicity 2
1 O u0 p2 c0 {3,S} {6,S}
2 N u1 p2 c0 {4,S}
3 C u0 p0 c0 {1,S} {4,S} {5,S}
4 C u0 p1 c0 {2,S} {3,S}
5 H u0 p0 c0 {3,S}
6 H u0 p0 c0 {1,S}


>  <multiplicity>  (5) 
2

>  <reaction>  (5) 
kfir_rxn_9679

>  <type>  (5) 
r2

>  <role_mapnums>  (5) 
{}

>  <role_mapidx>  (5) 
{}

>  <ordered_mapped_smiles>  (5) 
[O:1]([CH:2]([CH2:3][NH:4])[H:6])[H:5]

>  <level_of_theory>  (5) 
wb97xd/def2tzvp

>  <lot_method>  (5) 
wb97xd

>  <lot_basis>  (5) 
def2tzvp

>  <spin_multiplicity>  (5) 
2.0

>  <optical_isomers>  (5) 
1.0

>  <modes>  (5) 
IdealGasTranslation(mass=(56.0136, 'amu')),         NonlinearRotor(             inertia = ([10.2624, 101.896, 112.158

>  <frequency_value>  (5) 
unknown

>  <frequency_units>  (5) 
unknown

>  <frequency_list>  (5) 
unknown

>  <arkane_path>  (5) 
/home/calvin/Dropbox/PersonalFolders/Calvin/Kfir_HAb_Converged/kfir_rxn_9679/output/Species/OC=C=_N_/arkane/output.py

>  <path_exists>  (5) 
True

>  <E0_value>  (5) 
-543562.4171332357

>  <E0_units>  (5) 
kJ/mol

>  <thermo_class>  (5) 
NASA

>  <Cp0_value>  (5) 
33.257888

>  <Cp0_units>  (5) 
J/(mol*K)

>  <CpInf_value>  (5) 
128.874316

>  <CpInf_units>  (5) 
J/(mol*K)

>  <Tmin_value>  (5) 
10.0

>  <Tmin_units>  (5) 
K

>  <Tmax_value>  (5) 
3000.0

>  <Tmax_units>  (5) 
K

>  <polynomials>  (5) 
[{"name": "polynomial1", "class": "NASAPolynomial", "Tmin_value": 10.0, "Tmin_units": "K", "Tmax_value": 497.15461851456064, "Tmax_units": "K", "coeffs": [3.9097088458919966, 0.00585723419040587, 7.226443906623889e-05, -1.8036133369075e-07, 1.2871924185625135e-10, -65375455.6688725, 8.444575132572835]}, {"name": "polynomial2", "class": "NASAPolynomial", "Tmin_value": 497.15461851456064, "Tmin_units": "K", "Tmax_value": 3000.0, "Tmax_units": "K", "coeffs": [5.006577733275678, 0.01510542551216046, -1.0169339158474876e-05, 3.302776621374418e-09, -4.09325729150486e-13, -65375788.08464947, 1.6730540824505888]}]

>  <H298_value>  (5) 
-129911.0180495281

>  <H298_units>  (5) 
kcal/mol

>  <S298_value>  (5) 
68.2316597674606

>  <S298_units>  (5) 
cal/(mol*K)

>  <Cp_T_value_list>  (5) 
[16.58035375736794, 19.01160461047358, 20.675333461082804, 21.996830076391618, 24.05692892903868, 25.5080111336558, 27.53942802927977, 28.641753215443785, 29.333838982339074]

>  <Cp_T_units>  (5) 
cal/(mol*K)

>  <T_list>  (5) 
[300.0, 400.0, 500.0, 600.0, 800.0, 1000.0, 1500.0, 2000.0, 2400.0]

>  <T_units>  (5) 
K

>  <yaml_path>  (5) 
/home/calvin/Dropbox/PersonalFolders/Calvin/Kfir_HAb_Converged/kfir_rxn_9679/output/Species/OC=C=_N_/OC=C=_N_.yml

>  <frequencies_cm1>  (5) 
[229.7507923537014, 429.32063183023786, 536.0434128998219, 629.0475907994518, 974.3853985992939, 1204.2699299547833, 1336.8588172918799, 1452.5276232081856, 2185.130836656189, 3231.9030960847463, 3813.883155625212]

>  <ZPE_kJmol>  (5) 
95.8395760374244

>  <E_elec_kJmol>  (5) 
-543658.2567092731

>  <E0_minus_Eelec_plus_ZPE_kJmol>  (5) 
0.0

>  <rxn>  (5) 
kfir_rxn_9679

>  <species_type>  (5) 
r0

>  <species_folder>  (5) 
OC=C=_N_

>  <frequencies_cm1_list>  (5) 
[229.7507923537014, 429.32063183023786, 536.0434128998219, 629.0475907994518, 974.3853985992939, 1204.2699299547833, 1336.8588172918799, 1452.5276232081856, 2185.130836656189, 3231.9030960847463, 3813.883155625212]

>  <E0_kJmol>  (5) 
-543562

>  <H298_kJmol>  (5) 
-543548

$$$$
