
     RDKit          3D

  7  6  0  0  0  0  0  0  0  0999 V2000
   -0.8401   -0.0671   -0.9549 C   0  0  0  0  0  0  0  0  0  1  0  0
   -0.0210   -0.3040    0.2793 C   0  0  0  0  0  0  0  0  0  2  0  0
    0.8687    0.3710    0.6868 O   0  0  0  0  0  0  0  0  0  3  0  0
   -0.7884   -0.9560   -1.5867 H   0  0  0  0  0  0  0  0  0  4  0  0
   -1.8861    0.0470   -0.6610 H   0  0  0  0  0  0  0  0  0  5  0  0
   -0.4983    0.8152   -1.4947 H   0  0  0  0  0  0  0  0  0  6  0  0
   -0.3106   -1.2178    0.7981 H   0  0  0  0  0  0  0  0  0  7  0  0
  1  5  1  0
  1  4  1  0
  1  6  1  0
  1  2  1  0
  2  7  1  0
  2  3  1  0
M  END
>  <rmg_smiles>  (1) 
C[CH]O

>  <rmg_adjacency_list>  (1) 
1 O u0 p2 c0 {3,S}
2 C u0 p0 c0 {3,S} {4,S} {5,S} {6,S}
3 C u0 p0 c0 {1,S} {2,S} {7,S}
4 H u0 p0 c0 {2,S}
5 H u0 p0 c0 {2,S}
6 H u0 p0 c0 {2,S}
7 H u0 p0 c0 {3,S}


>  <multiplicity>  (1) 
1

>  <reaction>  (1) 
kfir_rxn_9885

>  <type>  (1) 
r1h

>  <role_mapnums>  (1) 
{"r1h_a": 2, "r1h_h": 7}

>  <role_mapidx>  (1) 
{"r1h_a": 1, "r1h_h": 6}

>  <ordered_mapped_smiles>  (1) 
[C:1]([CH:2]([OH:3])[H:7])([H:4])([H:5])[H:6]

>  <mol_properties>  (1) 
{"1": {"label": "donator", "atom_type": "Cs"}, "6": {"label": "d_hydrogen", "atom_type": "H0"}}

>  <level_of_theory>  (1) 
wb97xd/def2tzvp

>  <lot_method>  (1) 
wb97xd

>  <lot_basis>  (1) 
def2tzvp

>  <spin_multiplicity>  (1) 
1.0

>  <optical_isomers>  (1) 
1.0

>  <modes>  (1) 
IdealGasTranslation(mass=(44.0262, 'amu')),         NonlinearRotor(             inertia = ([8.78933, 49.4181, 55.1019

>  <frequency_value>  (1) 
unknown

>  <frequency_units>  (1) 
unknown

>  <frequency_list>  (1) 
unknown

>  <arkane_path>  (1) 
/home/calvin/Dropbox/PersonalFolders/Calvin/Kfir_HAb_Converged/kfir_rxn_9885/output/Species/CC=O/arkane/output.py

>  <path_exists>  (1) 
True

>  <E0_value>  (1) 
-403249.72640304687

>  <E0_units>  (1) 
kJ/mol

>  <thermo_class>  (1) 
NASA

>  <Cp0_value>  (1) 
33.257888

>  <Cp0_units>  (1) 
J/(mol*K)

>  <CpInf_value>  (1) 
153.817732

>  <CpInf_units>  (1) 
J/(mol*K)

>  <Tmin_value>  (1) 
10.0

>  <Tmin_units>  (1) 
K

>  <Tmax_value>  (1) 
3000.0

>  <Tmax_units>  (1) 
K

>  <polynomials>  (1) 
[{"name": "polynomial1", "class": "NASAPolynomial", "Tmin_value": 10.0, "Tmin_units": "K", "Tmax_value": 559.340457104048, "Tmax_units": "K", "coeffs": [3.973855086737095, 0.001366782198898162, 3.885307812246203e-05, -5.559834226824692e-08, 2.5675947833216267e-11, -48499737.921251364, 7.333648264861573]}, {"name": "polynomial2", "class": "NASAPolynomial", "Tmin_value": 559.340457104048, "Tmin_units": "K", "Tmax_value": 3000.0, "Tmax_units": "K", "coeffs": [1.439657769760981, 0.019489859834032428, -9.748989186566677e-06, 2.3305222684552757e-09, -2.1610932019923673e-13, -48499454.43050355, 18.087279202338166]}]

>  <H298_value>  (1) 
-96376.03339273618

>  <H298_units>  (1) 
kcal/mol

>  <S298_value>  (1) 
62.92629446375544

>  <S298_units>  (1) 
cal/(mol*K)

>  <Cp_T_value_list>  (1) 
[13.090696422295927, 15.571890885894227, 17.93547200806266, 20.06943953611668, 23.641600163950535, 26.41979391131651, 30.82292626363898, 33.00720133556468, 33.997714873568974]

>  <Cp_T_units>  (1) 
cal/(mol*K)

>  <T_list>  (1) 
[300.0, 400.0, 500.0, 600.0, 800.0, 1000.0, 1500.0, 2000.0, 2400.0]

>  <T_units>  (1) 
K

>  <yaml_path>  (1) 
/home/calvin/Dropbox/PersonalFolders/Calvin/Kfir_HAb_Converged/kfir_rxn_9885/output/Species/CC=O/CC=O.yml

>  <frequencies_cm1>  (1) 
[509.85966404219545, 767.314750516829, 887.0397075930329, 1124.5693362194925, 1131.9199667947084, 1368.1468608800276, 1416.206279274924, 1447.6526744657767, 1455.988621111524, 1831.4980474887643, 2863.5487909397893, 3014.381465085892, 3081.3331394822376, 3132.271335244577]

>  <ZPE_kJmol>  (1) 
143.7417114238059

>  <E_elec_kJmol>  (1) 
-403393.46811447066

>  <E0_minus_Eelec_plus_ZPE_kJmol>  (1) 
0.0

>  <rxn>  (1) 
kfir_rxn_9885

>  <species_type>  (1) 
r1

>  <species_folder>  (1) 
CC=O

>  <frequencies_cm1_list>  (1) 
[509.85966404219545, 767.314750516829, 887.0397075930329, 1124.5693362194925, 1131.9199667947084, 1368.1468608800276, 1416.206279274924, 1447.6526744657767, 1455.988621111524, 1831.4980474887643, 2863.5487909397893, 3014.381465085892, 3081.3331394822376, 3132.271335244577]

>  <E0_kJmol>  (1) 
-403250

>  <H298_kJmol>  (1) 
-403237

$$$$

     RDKit          3D

  7  7  0  0  0  0  0  0  0  0999 V2000
   -0.1612    0.5993    0.5357 C   0  0  0  0  0  0  0  0  0  1  0  0
    0.7313   -0.4390    0.0597 C   0  0  0  0  0  0  0  0  0  2  0  0
   -0.5443   -0.1806   -0.5453 O   0  0  0  0  0  0  0  0  0  3  0  0
   -0.7569    0.5566    1.4452 H   0  0  0  0  0  0  0  0  0  4  0  0
    1.5903   -0.1642   -0.5456 H   0  0  0  0  0  0  0  0  0  5  0  0
    0.8020   -1.3908    0.5766 H   0  0  0  0  0  0  0  0  0  6  0  0
    0.1165    1.5985    0.2063 H   0  0  0  0  0  0  0  0  0  7  0  0
  1  3  1  0
  1  7  1  0
  1  4  1  0
  1  2  1  0
  2  5  1  0
  2  3  1  0
  2  6  1  0
M  END
>  <rmg_smiles>  (2) 
C1CO1

>  <rmg_adjacency_list>  (2) 
1 O u0 p2 c0 {2,S} {3,S}
2 C u0 p0 c0 {1,S} {3,S} {4,S} {7,S}
3 C u0 p0 c0 {1,S} {2,S} {5,S} {6,S}
4 H u0 p0 c0 {2,S}
5 H u0 p0 c0 {3,S}
6 H u0 p0 c0 {3,S}
7 H u0 p0 c0 {2,S}


>  <multiplicity>  (2) 
1

>  <reaction>  (2) 
kfir_rxn_9885

>  <type>  (2) 
r2h

>  <role_mapnums>  (2) 
{"r2h_a": 1, "r2h_h": 7}

>  <role_mapidx>  (2) 
{"r2h_a": 0, "r2h_h": 6}

>  <ordered_mapped_smiles>  (2) 
[C:1]1([H:4])([H:7])[C:2]([H:5])([H:6])[O:3]1

>  <mol_properties>  (2) 
{"0": {"label": "acceptor", "atom_type": "Cs"}, "6": {"label": "a_hydrogen", "atom_type": "H0"}}

>  <level_of_theory>  (2) 
wb97xd/def2tzvp

>  <lot_method>  (2) 
wb97xd

>  <lot_basis>  (2) 
def2tzvp

>  <spin_multiplicity>  (2) 
1.0

>  <optical_isomers>  (2) 
1.0

>  <modes>  (2) 
IdealGasTranslation(mass=(44.0262, 'amu')),         NonlinearRotor(             inertia = ([19.3349, 22.6213, 35.1481

>  <frequency_value>  (2) 
unknown

>  <frequency_units>  (2) 
unknown

>  <frequency_list>  (2) 
unknown

>  <arkane_path>  (2) 
/home/calvin/Dropbox/PersonalFolders/Calvin/Kfir_HAb_Converged/kfir_rxn_9885/output/Species/C1CO1/arkane/output.py

>  <path_exists>  (2) 
True

>  <E0_value>  (2) 
-403134.82876721246

>  <E0_units>  (2) 
kJ/mol

>  <thermo_class>  (2) 
NASA

>  <Cp0_value>  (2) 
33.257888

>  <Cp0_units>  (2) 
J/(mol*K)

>  <CpInf_value>  (2) 
157.97496800000002

>  <CpInf_units>  (2) 
J/(mol*K)

>  <Tmin_value>  (2) 
10.0

>  <Tmin_units>  (2) 
K

>  <Tmax_value>  (2) 
3000.0

>  <Tmax_units>  (2) 
K

>  <polynomials>  (2) 
[{"name": "polynomial1", "class": "NASAPolynomial", "Tmin_value": 10.0, "Tmin_units": "K", "Tmax_value": 765.3196649017267, "Tmax_units": "K", "coeffs": [4.157632094553427, -0.010713228354430716, 7.905647872829959e-05, -9.802046937249177e-08, 3.962688743524427e-11, -48485924.512081616, 5.894523543063067]}, {"name": "polynomial2", "class": "NASAPolynomial", "Tmin_value": 765.3196649017267, "Tmin_units": "K", "Tmax_value": 3000.0, "Tmax_units": "K", "coeffs": [-0.3695677459692966, 0.024993906623418535, -1.4536812451109882e-05, 4.073545795554596e-09, -4.411138126492809e-13, -48485584.31883677, 24.220150073627728]}]

>  <H298_value>  (2) 
-96348.98878298597

>  <H298_units>  (2) 
kcal/mol

>  <S298_value>  (2) 
57.85182190726364

>  <S298_units>  (2) 
cal/(mol*K)

>  <Cp_T_value_list>  (2) 
[11.392996250077998, 14.43211826888243, 17.466073403472617, 20.176605699964774, 24.297519862432992, 27.264390543697267, 31.653303321259223, 33.78557291767529, 34.89806441490107]

>  <Cp_T_units>  (2) 
cal/(mol*K)

>  <T_list>  (2) 
[300.0, 400.0, 500.0, 600.0, 800.0, 1000.0, 1500.0, 2000.0, 2400.0]

>  <T_units>  (2) 
K

>  <yaml_path>  (2) 
/home/calvin/Dropbox/PersonalFolders/Calvin/Kfir_HAb_Converged/kfir_rxn_9885/output/Species/C1CO1/C1CO1.yml

>  <frequencies_cm1>  (2) 
[819.6227668392398, 892.4265452018799, 910.7133271090399, 1047.24272924128, 1160.0535640782398, 1160.20463775528, 1167.0922240312398, 1171.85791184332, 1311.1135071475999, 1493.8439865128, 1537.13346197008, 3070.72355951504, 3078.44891800004, 3154.15056416772, 3169.1961290038394]

>  <ZPE_kJmol>  (2) 
150.3935078035486

>  <E_elec_kJmol>  (2) 
-403285.222275016

>  <E0_minus_Eelec_plus_ZPE_kJmol>  (2) 
0.0

>  <rxn>  (2) 
kfir_rxn_9885

>  <species_type>  (2) 
p0

>  <species_folder>  (2) 
C1CO1

>  <frequencies_cm1_list>  (2) 
[819.6227668392398, 892.4265452018799, 910.7133271090399, 1047.24272924128, 1160.0535640782398, 1160.20463775528, 1167.0922240312398, 1171.85791184332, 1311.1135071475999, 1493.8439865128, 1537.13346197008, 3070.72355951504, 3078.44891800004, 3154.15056416772, 3169.1961290038394]

>  <E0_kJmol>  (2) 
-403135

>  <H298_kJmol>  (2) 
-403124

$$$$

     RDKit          3D

 13 12  0  0  0  0  0  0  0  0999 V2000
   -0.1460   -1.1714    0.7001 C   0  0  0  0  0  3  0  0  0  1  0  0
    0.7465   -2.2097    0.2241 C   0  0  0  0  0  0  0  0  0  2  0  0
   -0.5291   -1.9513   -0.3809 O   0  0  0  0  0  0  0  0  0  3  0  0
   -0.7417   -1.2142    1.6096 H   0  0  0  0  0  0  0  0  0  4  0  0
    1.6055   -1.9349   -0.3812 H   0  0  0  0  0  0  0  0  0  5  0  0
    0.8172   -3.1615    0.7410 H   0  0  0  0  0  0  0  0  0  6  0  0
   -0.2488    1.4924   -1.5893 C   0  0  0  0  0  0  0  0  0  7  0  0
    0.5704    1.2554   -0.3551 C   0  0  0  0  0  0  0  0  0  8  0  0
    1.4601    1.9305    0.0524 O   0  0  0  0  0  0  0  0  0  9  0  0
   -0.1970    0.6034   -2.2210 H   0  0  0  0  0  0  0  0  0 10  0  0
   -1.2947    1.6065   -1.2953 H   0  0  0  0  0  0  0  0  0 11  0  0
    0.0931    2.3746   -2.1290 H   0  0  0  0  0  0  0  0  0 12  0  0
    0.2307    0.1838    0.2534 H   0  0  0  0  0  0  0  0  0 13  0  0
  1  3  1  0
  1  4  1  0
  1  2  1  0
  2  3  1  0
  2  5  1  0
  2  6  1  0
  7 12  1  0
  7  8  1  0
  7 11  1  0
  7 10  1  0
  8 13  1  0
  8  9  1  0
M  RAD  1   1   2
M  END
>  <rmg_smiles>  (3) 
C[CH]O.[CH]1CO1

>  <rmg_adjacency_list>  (3) 
multiplicity 2
1  O u0 p2 c0 {3,S} {5,S}
2  O u0 p2 c0 {6,S}
3  C u0 p0 c0 {1,S} {5,S} {7,S} {8,S}
4  C u0 p0 c0 {6,S} {9,S} {10,S} {11,S}
5  C u1 p0 c0 {1,S} {3,S} {12,S}
6  C u0 p0 c0 {2,S} {4,S} {13,S}
7  H u0 p0 c0 {3,S}
8  H u0 p0 c0 {3,S}
9  H u0 p0 c0 {4,S}
10 H u0 p0 c0 {4,S}
11 H u0 p0 c0 {4,S}
12 H u0 p0 c0 {5,S}
13 H u0 p0 c0 {6,S}


>  <multiplicity>  (3) 
2

>  <reaction>  (3) 
kfir_rxn_9885

>  <type>  (3) 
ts

>  <role_mapnums>  (3) 
{"*2": 13, "*1": 8, "*3": 1, "*0": 9, "*4": 3}

>  <role_mapidx>  (3) 
{"*2": 12, "*1": 7, "*3": 0, "*0": 8, "*4": 2}

>  <ordered_mapped_smiles>  (3) 
[C:1]1([H:4])[C:2]([H:5])([H:6])[O:3]1.[C:7]([CH:8]([OH:9])[H:13])([H:10])([H:11])[H:12]

>  <mol_properties>  (3) 
{"0": {"label": "*3", "atom_type": "Cs"}, "2": {"label": "*4", "atom_type": "O2s"}, "7": {"label": "*1", "atom_type": "Cs"}, "8": {"label": "*0", "atom_type": "O2s"}, "12": {"label": "*2", "atom_type": "H0"}}

>  <level_of_theory>  (3) 
wb97xd/def2tzvp

>  <lot_method>  (3) 
wb97xd

>  <lot_basis>  (3) 
def2tzvp

>  <spin_multiplicity>  (3) 
2.0

>  <optical_isomers>  (3) 
2.0

>  <modes>  (3) 
IdealGasTranslation(mass=(87.0446, 'amu')),         NonlinearRotor(             inertia = ([79.8369, 298.587, 345.906

>  <frequency_value>  (3) 
-1530.1

>  <frequency_units>  (3) 
cm^-1

>  <frequency_list>  (3) 
unknown

>  <arkane_path>  (3) 
/home/calvin/Dropbox/PersonalFolders/Calvin/Kfir_HAb_Converged/kfir_rxn_9885/output/rxns/TS0/arkane/output.py

>  <path_exists>  (3) 
True

>  <E0_value>  (3) 
-804612.0

>  <E0_units>  (3) 
kJ/mol

>  <thermo_class>  (3) 
unknown

>  <Cp0_value>  (3) 
unknown

>  <Cp0_units>  (3) 
unknown

>  <CpInf_value>  (3) 
unknown

>  <CpInf_units>  (3) 
unknown

>  <Tmin_value>  (3) 
unknown

>  <Tmin_units>  (3) 
unknown

>  <Tmax_value>  (3) 
unknown

>  <Tmax_units>  (3) 
unknown

>  <polynomials>  (3) 
unknown

>  <H298_value>  (3) 
unknown

>  <H298_units>  (3) 
unknown

>  <S298_value>  (3) 
unknown

>  <S298_units>  (3) 
unknown

>  <Cp_T_value_list>  (3) 
unknown

>  <Cp_T_units>  (3) 
unknown

>  <T_list>  (3) 
unknown

>  <T_units>  (3) 
unknown

>  <yaml_path>  (3) 
unknown

>  <frequencies_cm1>  (3) 
unknown

>  <ZPE_kJmol>  (3) 
unknown

>  <E_elec_kJmol>  (3) 
unknown

>  <E0_minus_Eelec_plus_ZPE_kJmol>  (3) 
unknown

>  <rxn>  (3) 
unknown

>  <species_type>  (3) 
unknown

>  <species_folder>  (3) 
unknown

>  <frequencies_cm1_list>  (3) 
[]

>  <ts_imag_freq_cm1>  (3) 
-1548.6872

>  <ts_freq_out_path>  (3) 
/home/calvin/Dropbox/PersonalFolders/Calvin/Kfir_HAb_Converged/kfir_rxn_9885/output/rxns/TS0/geometry/freq.out

>  <E0_kJmol>  (3) 
-804612

>  <H298_kJmol>  (3) 
unknown

$$$$

     RDKit          3D

  6  5  0  0  0  0  0  0  0  0999 V2000
   -0.4435    0.0183   -0.1398 C   0  0  0  0  0  0  0  0  0  1  0  0
    1.0626    0.0038   -0.1408 C   0  0  0  0  0  3  0  0  0  2  0  0
    1.7963   -0.0944    0.7712 O   0  0  0  0  0  0  0  0  0  3  0  0
   -0.8385   -0.0792    0.8738 H   0  0  0  0  0  0  0  0  0  4  0  0
   -0.7800    0.9501   -0.5948 H   0  0  0  0  0  0  0  0  0  5  0  0
   -0.7969   -0.7985   -0.7695 H   0  0  0  0  0  0  0  0  0  6  0  0
  1  5  1  0
  1  4  1  0
  1  6  1  0
  1  2  1  0
  2  3  1  0
M  RAD  1   2   2
M  END
>  <rmg_smiles>  (4) 
C[C]O

>  <rmg_adjacency_list>  (4) 
multiplicity 2
1 O u0 p2 c0 {3,S}
2 C u0 p0 c0 {3,S} {4,S} {5,S} {6,S}
3 C u1 p1 c0 {1,S} {2,S}
4 H u0 p0 c0 {2,S}
5 H u0 p0 c0 {2,S}
6 H u0 p0 c0 {2,S}


>  <multiplicity>  (4) 
2

>  <reaction>  (4) 
kfir_rxn_9885

>  <type>  (4) 
r1

>  <role_mapnums>  (4) 
{}

>  <role_mapidx>  (4) 
{}

>  <ordered_mapped_smiles>  (4) 
[C:1]([CH:2][OH:3])([H:4])([H:5])[H:6]

>  <level_of_theory>  (4) 
wb97xd/def2tzvp

>  <lot_method>  (4) 
wb97xd

>  <lot_basis>  (4) 
def2tzvp

>  <spin_multiplicity>  (4) 
2.0

>  <optical_isomers>  (4) 
1.0

>  <modes>  (4) 
IdealGasTranslation(mass=(43.0184, 'amu')),         NonlinearRotor(             inertia = ([5.94606, 50.3608, 53.1944

>  <frequency_value>  (4) 
unknown

>  <frequency_units>  (4) 
unknown

>  <frequency_list>  (4) 
unknown

>  <arkane_path>  (4) 
/home/calvin/Dropbox/PersonalFolders/Calvin/Kfir_HAb_Converged/kfir_rxn_9885/output/Species/C_C_=O/arkane/output.py

>  <path_exists>  (4) 
True

>  <E0_value>  (4) 
-401570.8773866609

>  <E0_units>  (4) 
kJ/mol

>  <thermo_class>  (4) 
NASA

>  <Cp0_value>  (4) 
33.257888

>  <Cp0_units>  (4) 
J/(mol*K)

>  <CpInf_value>  (4) 
128.874316

>  <CpInf_units>  (4) 
J/(mol*K)

>  <Tmin_value>  (4) 
10.0

>  <Tmin_units>  (4) 
K

>  <Tmax_value>  (4) 
3000.0

>  <Tmax_units>  (4) 
K

>  <polynomials>  (4) 
[{"name": "polynomial1", "class": "NASAPolynomial", "Tmin_value": 10.0, "Tmin_units": "K", "Tmax_value": 413.7048395475691, "Tmax_units": "K", "coeffs": [3.9021683903946998, 0.012017336458510483, -5.27436402607007e-05, 1.7077792706354001e-07, -1.612759379654841e-10, -48297820.05102708, 7.441183412639902]}, {"name": "polynomial2", "class": "NASAPolynomial", "Tmin_value": 413.7048395475691, "Tmin_units": "K", "Tmax_value": 3000.0, "Tmax_units": "K", "coeffs": [1.6726761923729423, 0.01678279964610091, -9.142157552636703e-06, 2.41078047060402e-09, -2.4780431584776895e-13, -48297491.89119718, 17.966057498449363]}]

>  <H298_value>  (4) 
-95974.776934293

>  <H298_units>  (4) 
kcal/mol

>  <S298_value>  (4) 
63.789227136564605

>  <S298_units>  (4) 
cal/(mol*K)

>  <Cp_T_value_list>  (4) 
[12.05262728821511, 14.052021753010576, 16.02562098485566, 17.765213581235482, 20.628701890745887, 22.805766919232667, 26.149443492590798, 27.803045869785468, 28.611092939599228]

>  <Cp_T_units>  (4) 
cal/(mol*K)

>  <T_list>  (4) 
[300.0, 400.0, 500.0, 600.0, 800.0, 1000.0, 1500.0, 2000.0, 2400.0]

>  <T_units>  (4) 
K

>  <yaml_path>  (4) 
/home/calvin/Dropbox/PersonalFolders/Calvin/Kfir_HAb_Converged/kfir_rxn_9885/output/Species/C_C_=O/C_C_=O.yml

>  <frequencies_cm1>  (4) 
[469.68695463870705, 856.5294539937964, 941.3295149949715, 1046.1031366860364, 1345.9759312671654, 1441.4990333849687, 1444.3291847657006, 1945.5074341052346, 3011.211970111457, 3109.315522239276, 3115.925362545071]

>  <ZPE_kJmol>  (4) 
112.01484018237298

>  <E_elec_kJmol>  (4) 
-401682.8922268433

>  <E0_minus_Eelec_plus_ZPE_kJmol>  (4) 
0.0

>  <rxn>  (4) 
kfir_rxn_9885

>  <species_type>  (4) 
p1

>  <species_folder>  (4) 
C_C_=O

>  <frequencies_cm1_list>  (4) 
[469.68695463870705, 856.5294539937964, 941.3295149949715, 1046.1031366860364, 1345.9759312671654, 1441.4990333849687, 1444.3291847657006, 1945.5074341052346, 3011.211970111457, 3109.315522239276, 3115.925362545071]

>  <E0_kJmol>  (4) 
-401571

>  <H298_kJmol>  (4) 
-401558

$$$$

     RDKit          3D

  6  6  0  0  0  0  0  0  0  0999 V2000
    0.8244   -0.2363   -0.2765 C   0  0  0  0  0  3  0  0  0  1  0  0
   -0.5734    0.0492   -0.0604 C   0  0  0  0  0  0  0  0  0  2  0  0
    0.2695   -0.6651    0.8832 O   0  0  0  0  0  0  0  0  0  3  0  0
    1.7087    0.3935   -0.2928 H   0  0  0  0  0  0  0  0  0  4  0  0
   -0.9043    1.0205    0.2951 H   0  0  0  0  0  0  0  0  0  5  0  0
   -1.3249   -0.5618   -0.5486 H   0  0  0  0  0  0  0  0  0  6  0  0
  1  3  1  0
  1  4  1  0
  1  2  1  0
  2  5  1  0
  2  3  1  0
  2  6  1  0
M  RAD  1   1   2
M  END
>  <rmg_smiles>  (5) 
[CH]1CO1

>  <rmg_adjacency_list>  (5) 
multiplicity 2
1 O u0 p2 c0 {2,S} {3,S}
2 C u0 p0 c0 {1,S} {3,S} {4,S} {5,S}
3 C u1 p0 c0 {1,S} {2,S} {6,S}
4 H u0 p0 c0 {2,S}
5 H u0 p0 c0 {2,S}
6 H u0 p0 c0 {3,S}


>  <multiplicity>  (5) 
2

>  <reaction>  (5) 
kfir_rxn_9885

>  <type>  (5) 
r2

>  <role_mapnums>  (5) 
{}

>  <role_mapidx>  (5) 
{}

>  <ordered_mapped_smiles>  (5) 
[C:1]1([H:4])[C:2]([H:5])([H:6])[O:3]1

>  <level_of_theory>  (5) 
wb97xd/def2tzvp

>  <lot_method>  (5) 
wb97xd

>  <lot_basis>  (5) 
def2tzvp

>  <spin_multiplicity>  (5) 
2.0

>  <optical_isomers>  (5) 
2.0

>  <modes>  (5) 
IdealGasTranslation(mass=(43.0184, 'amu')),         NonlinearRotor(             inertia = ([16.6256, 21.0054, 33.2991

>  <frequency_value>  (5) 
unknown

>  <frequency_units>  (5) 
unknown

>  <frequency_list>  (5) 
unknown

>  <arkane_path>  (5) 
/home/calvin/Dropbox/PersonalFolders/Calvin/Kfir_HAb_Converged/kfir_rxn_9885/output/Species/_CH_1CO1/arkane/output.py

>  <path_exists>  (5) 
True

>  <E0_value>  (5) 
-401393.6935984024

>  <E0_units>  (5) 
kJ/mol

>  <thermo_class>  (5) 
NASA

>  <Cp0_value>  (5) 
33.257888

>  <Cp0_units>  (5) 
J/(mol*K)

>  <CpInf_value>  (5) 
133.031552

>  <CpInf_units>  (5) 
J/(mol*K)

>  <Tmin_value>  (5) 
10.0

>  <Tmin_units>  (5) 
K

>  <Tmax_value>  (5) 
3000.0

>  <Tmax_units>  (5) 
K

>  <polynomials>  (5) 
[{"name": "polynomial1", "class": "NASAPolynomial", "Tmin_value": 10.0, "Tmin_units": "K", "Tmax_value": 721.5513458630669, "Tmax_units": "K", "coeffs": [4.131880489467827, -0.009415725856436158, 7.31226071463409e-05, -9.711807937437085e-08, 4.203251087642512e-11, -48276512.98126936, 7.809877910253214]}, {"name": "polynomial2", "class": "NASAPolynomial", "Tmin_value": 721.5513458630669, "Tmin_units": "K", "Tmax_value": 3000.0, "Tmax_units": "K", "coeffs": [0.8212225728670555, 0.020286402452183078, -1.2216968009151599e-05, 3.5287271120022773e-09, -3.918358614694587e-13, -48276330.657774836, 20.654204905665793]}]

>  <H298_value>  (5) 
-95932.84382672553

>  <H298_units>  (5) 
kcal/mol

>  <S298_value>  (5) 
61.63651229301641

>  <S298_units>  (5) 
cal/(mol*K)

>  <Cp_T_value_list>  (5) 
[11.141218739924065, 13.762761265270155, 16.27907911772644, 18.434304836877708, 21.61623083220754, 23.90122210561473, 27.201743412874084, 28.78786282152739, 29.648729205023308]

>  <Cp_T_units>  (5) 
cal/(mol*K)

>  <T_list>  (5) 
[300.0, 400.0, 500.0, 600.0, 800.0, 1000.0, 1500.0, 2000.0, 2400.0]

>  <T_units>  (5) 
K

>  <yaml_path>  (5) 
/home/calvin/Dropbox/PersonalFolders/Calvin/Kfir_HAb_Converged/kfir_rxn_9885/output/Species/_CH_1CO1/_CH_1CO1.yml

>  <frequencies_cm1>  (5) 
[797.9024922720799, 825.04081825672, 955.9667603678399, 1045.97233695708, 1074.21624757824, 1129.33067175656, 1192.11551853732, 1366.2622662525198, 1518.46899587032, 3079.02574476692, 3123.4345388313595, 3172.04592791164]

>  <ZPE_kJmol>  (5) 
115.31874038024918

>  <E_elec_kJmol>  (5) 
-401509.0123387826

>  <E0_minus_Eelec_plus_ZPE_kJmol>  (5) 
0.0

>  <rxn>  (5) 
kfir_rxn_9885

>  <species_type>  (5) 
r0

>  <species_folder>  (5) 
_CH_1CO1

>  <frequencies_cm1_list>  (5) 
[797.9024922720799, 825.04081825672, 955.9667603678399, 1045.97233695708, 1074.21624757824, 1129.33067175656, 1192.11551853732, 1366.2622662525198, 1518.46899587032, 3079.02574476692, 3123.4345388313595, 3172.04592791164]

>  <E0_kJmol>  (5) 
-401394

>  <H298_kJmol>  (5) 
-401383

$$$$
