
     RDKit          3D

  7  6  0  0  0  0  0  0  0  0999 V2000
    0.8093    0.3910   -2.0788 N   0  0  0  0  0  0  0  0  0  1  0  0
    0.3689    0.5442   -1.0308 C   0  0  0  0  0  2  0  0  0  2  0  0
   -0.1687    0.7667    0.2905 C   0  0  0  0  0  0  0  0  0  3  0  0
   -0.4111   -0.4269    1.0662 C   0  0  0  0  0  2  0  0  0  4  0  0
   -0.6030   -1.3532    1.7154 N   0  0  0  0  0  0  0  0  0  5  0  0
    0.5839    1.3350    0.8356 H   0  0  0  0  0  0  0  0  0  6  0  0
   -1.0179    1.4486    0.2758 H   0  0  0  0  0  0  0  0  0  7  0  0
  1  2  1  0
  2  3  1  0
  3  4  1  0
  3  6  1  0
  3  7  1  0
  4  5  1  0
M  RAD  2   2   3   4   3
M  END
>  <rmg_smiles>  (1) 
[N][C]C[C][N]

>  <rmg_adjacency_list>  (1) 
1 N u0 p2 c0 {4,S}
2 N u0 p2 c0 {5,S}
3 C u0 p0 c0 {4,S} {5,S} {6,S} {7,S}
4 C u0 p1 c0 {1,S} {3,S}
5 C u0 p1 c0 {2,S} {3,S}
6 H u0 p0 c0 {3,S}
7 H u0 p0 c0 {3,S}


>  <multiplicity>  (1) 
1

>  <reaction>  (1) 
kfir_rxn_5389

>  <type>  (1) 
r1h

>  <role_mapnums>  (1) 
{"r1h_a": 3, "r1h_h": 6}

>  <role_mapidx>  (1) 
{"r1h_a": 2, "r1h_h": 5}

>  <ordered_mapped_smiles>  (1) 
[NH2:1][C:2][C:3]([C:4][NH2:5])([H:6])[H:7]

>  <mol_properties>  (1) 
{"2": {"label": "donator", "atom_type": "Cs"}, "5": {"label": "d_hydrogen", "atom_type": "H0"}}

>  <level_of_theory>  (1) 
wb97xd/def2tzvp

>  <lot_method>  (1) 
wb97xd

>  <lot_basis>  (1) 
def2tzvp

>  <spin_multiplicity>  (1) 
1.0

>  <optical_isomers>  (1) 
1.0

>  <modes>  (1) 
IdealGasTranslation(mass=(66.0218, 'amu')),         NonlinearRotor(             inertia = ([23.7671, 171.208, 191.843

>  <frequency_value>  (1) 
unknown

>  <frequency_units>  (1) 
unknown

>  <frequency_list>  (1) 
unknown

>  <arkane_path>  (1) 
/home/calvin/Dropbox/PersonalFolders/Calvin/Kfir_HAb_Converged/kfir_rxn_5389/output/Species/NtCCCtN/arkane/output.py

>  <path_exists>  (1) 
True

>  <E0_value>  (1) 
-589781.7576326472

>  <E0_units>  (1) 
kJ/mol

>  <thermo_class>  (1) 
NASA

>  <Cp0_value>  (1) 
33.257888

>  <Cp0_units>  (1) 
J/(mol*K)

>  <CpInf_value>  (1) 
157.97496800000002

>  <CpInf_units>  (1) 
J/(mol*K)

>  <Tmin_value>  (1) 
10.0

>  <Tmin_units>  (1) 
K

>  <Tmax_value>  (1) 
3000.0

>  <Tmax_units>  (1) 
K

>  <polynomials>  (1) 
[{"name": "polynomial1", "class": "NASAPolynomial", "Tmin_value": 10.0, "Tmin_units": "K", "Tmax_value": 381.2671360317701, "Tmax_units": "K", "coeffs": [3.923518384888164, 0.005792069225387273, 9.370390502108868e-05, -2.657841227650435e-07, 2.3107989402795785e-10, -70934361.75929563, 8.434891986323661]}, {"name": "polynomial2", "class": "NASAPolynomial", "Tmin_value": 381.2671360317701, "Tmin_units": "K", "Tmax_value": 3000.0, "Tmax_units": "K", "coeffs": [3.6593956469030533, 0.02070177496595334, -1.2711294446273225e-05, 3.793964873991964e-09, -4.397428673268674e-13, -70934429.84595987, 8.29742738403007]}]

>  <H298_value>  (1) 
-140957.57318607304

>  <H298_units>  (1) 
kcal/mol

>  <S298_value>  (1) 
69.1255125881735

>  <S298_units>  (1) 
cal/(mol*K)

>  <Cp_T_value_list>  (1) 
[17.46767715625896, 20.14601107641169, 22.41414169108704, 24.37686414792028, 27.518792922312837, 29.816241430861343, 33.166633044338305, 34.84288571038595, 35.73942606368457]

>  <Cp_T_units>  (1) 
cal/(mol*K)

>  <T_list>  (1) 
[300.0, 400.0, 500.0, 600.0, 800.0, 1000.0, 1500.0, 2000.0, 2400.0]

>  <T_units>  (1) 
K

>  <yaml_path>  (1) 
/home/calvin/Dropbox/PersonalFolders/Calvin/Kfir_HAb_Converged/kfir_rxn_5389/output/Species/NtCCCtN/NtCCCtN.yml

>  <frequencies_cm1>  (1) 
[146.69940739115998, 340.38959532708, 374.73825589771997, 374.9579994279599, 586.0353941941199, 901.58710361876, 932.7014141036799, 987.9943799003199, 1238.72174790416, 1338.31363600012, 1434.8771835699602, 2384.39584472232, 2388.37869620792, 3042.61698860028, 3086.94337884088]

>  <ZPE_kJmol>  (1) 
116.99093307058868

>  <E_elec_kJmol>  (1) 
-589898.7485657177

>  <E0_minus_Eelec_plus_ZPE_kJmol>  (1) 
0.0

>  <rxn>  (1) 
kfir_rxn_5389

>  <species_type>  (1) 
r1

>  <species_folder>  (1) 
NtCCCtN

>  <frequencies_cm1_list>  (1) 
[146.69940739115998, 340.38959532708, 374.73825589771997, 374.9579994279599, 586.0353941941199, 901.58710361876, 932.7014141036799, 987.9943799003199, 1238.72174790416, 1338.31363600012, 1434.8771835699602, 2384.39584472232, 2388.37869620792, 3042.61698860028, 3086.94337884088]

>  <E0_kJmol>  (1) 
-589782

>  <H298_kJmol>  (1) 
-589766

$$$$

     RDKit          3D

  8  7  0  0  0  0  0  0  0  0999 V2000
   -0.0706   -1.4769    0.1948 O   0  0  0  0  0  0  0  0  0  1  0  0
   -0.3614   -0.2452   -0.2144 C   0  0  0  0  0  0  0  0  0  2  0  0
   -1.3438    0.0397   -0.9569 N   0  0  0  0  0  0  0  0  0  3  0  0
    0.6181    0.6659    0.3292 C   0  0  0  0  0  2  0  0  0  4  0  0
    1.4221    1.4321    0.7751 C   0  0  0  0  0  2  0  0  0  5  0  0
   -1.3738    1.0328   -1.1544 H   0  0  0  0  0  0  0  0  0  6  0  0
    2.1346    2.1197    1.1668 H   0  0  0  0  0  0  0  0  0  7  0  0
   -0.6944   -2.0726   -0.2264 H   0  0  0  0  0  0  0  0  0  8  0  0
  1  8  1  0
  1  2  1  0
  2  3  1  0
  2  4  1  0
  3  6  1  0
  4  5  1  0
  5  7  1  0
M  RAD  2   4   3   5   3
M  END
>  <rmg_smiles>  (2) 
[CH][C][C](O)[NH]

>  <rmg_adjacency_list>  (2) 
1 O u0 p2 c0 {3,S} {7,S}
2 N u0 p1 c0 {3,S} {6,S}
3 C u0 p0 c0 {1,S} {2,S} {4,S}
4 C u0 p1 c0 {3,S} {5,S}
5 C u0 p1 c0 {4,S} {8,S}
6 H u0 p0 c0 {2,S}
7 H u0 p0 c0 {1,S}
8 H u0 p0 c0 {5,S}


>  <multiplicity>  (2) 
1

>  <reaction>  (2) 
kfir_rxn_5389

>  <type>  (2) 
r2h

>  <role_mapnums>  (2) 
{"r2h_a": 1, "r2h_h": 8}

>  <role_mapidx>  (2) 
{"r2h_a": 0, "r2h_h": 7}

>  <ordered_mapped_smiles>  (2) 
[O:1]([CH:2]([NH:3][H:6])[C:4][C:5][H:7])[H:8]

>  <mol_properties>  (2) 
{"0": {"label": "acceptor", "atom_type": "O2s"}, "7": {"label": "a_hydrogen", "atom_type": "H0"}}

>  <level_of_theory>  (2) 
wb97xd/def2tzvp

>  <lot_method>  (2) 
wb97xd

>  <lot_basis>  (2) 
def2tzvp

>  <spin_multiplicity>  (2) 
1.0

>  <optical_isomers>  (2) 
1.0

>  <modes>  (2) 
IdealGasTranslation(mass=(69.0215, 'amu')),         NonlinearRotor(             inertia = ([43.3696, 121.629, 164.999

>  <frequency_value>  (2) 
unknown

>  <frequency_units>  (2) 
unknown

>  <frequency_list>  (2) 
unknown

>  <arkane_path>  (2) 
/home/calvin/Dropbox/PersonalFolders/Calvin/Kfir_HAb_Converged/kfir_rxn_5389/output/Species/OC[=N]CtC/arkane/output.py

>  <path_exists>  (2) 
True

>  <E0_value>  (2) 
-644982.6122920612

>  <E0_units>  (2) 
kJ/mol

>  <thermo_class>  (2) 
NASA

>  <Cp0_value>  (2) 
33.257888

>  <Cp0_units>  (2) 
J/(mol*K)

>  <CpInf_value>  (2) 
178.76114800000002

>  <CpInf_units>  (2) 
J/(mol*K)

>  <Tmin_value>  (2) 
10.0

>  <Tmin_units>  (2) 
K

>  <Tmax_value>  (2) 
3000.0

>  <Tmax_units>  (2) 
K

>  <polynomials>  (2) 
[{"name": "polynomial1", "class": "NASAPolynomial", "Tmin_value": 10.0, "Tmin_units": "K", "Tmax_value": 589.8317146688479, "Tmax_units": "K", "coeffs": [3.921284879490481, 0.004499529155541193, 9.230513575153327e-05, -1.7557373803431464e-07, 9.930502469061357e-11, -77573486.05476819, 8.991368656360859]}, {"name": "polynomial2", "class": "NASAPolynomial", "Tmin_value": 589.8317146688479, "Tmin_units": "K", "Tmax_value": 3000.0, "Tmax_units": "K", "coeffs": [2.771674769260916, 0.030911627349408045, -2.220550698690315e-05, 7.3628757119607715e-09, -9.124391759291656e-13, -77573674.26453227, 11.18560983576735]}]

>  <H298_value>  (2) 
-154150.79368648905

>  <H298_units>  (2) 
kcal/mol

>  <S298_value>  (2) 
70.38228473958814

>  <S298_units>  (2) 
cal/(mol*K)

>  <Cp_T_value_list>  (2) 
[19.161610103195777, 23.439910783052273, 26.841556271265766, 29.404292583175952, 33.15755286120154, 35.627098520892666, 38.56612845744633, 39.89690725234797, 40.8722910003967]

>  <Cp_T_units>  (2) 
cal/(mol*K)

>  <T_list>  (2) 
[300.0, 400.0, 500.0, 600.0, 800.0, 1000.0, 1500.0, 2000.0, 2400.0]

>  <T_units>  (2) 
K

>  <yaml_path>  (2) 
/home/calvin/Dropbox/PersonalFolders/Calvin/Kfir_HAb_Converged/kfir_rxn_5389/output/Species/OC[=N]CtC/OC=NCtC.yml

>  <frequencies_cm1>  (2) 
[195.13470787696284, 288.46848051559925, 509.36206179556547, 589.2431446151948, 707.7667017013898, 721.2492535243225, 724.7280522338888, 826.365986960679, 840.456030634786, 1100.384907994666, 1242.5700919000103, 1430.1087449914048, 1714.6352401969066, 2231.0392880759487, 3432.6129544467744, 3536.503172836065, 3766.6034555897104]

>  <ZPE_kJmol>  (2) 
142.6979791287484

>  <E_elec_kJmol>  (2) 
-645125.31027119

>  <E0_minus_Eelec_plus_ZPE_kJmol>  (2) 
0.0

>  <rxn>  (2) 
kfir_rxn_5389

>  <species_type>  (2) 
p0

>  <species_folder>  (2) 
OC[=N]CtC

>  <frequencies_cm1_list>  (2) 
[195.13470787696284, 288.46848051559925, 509.36206179556547, 589.2431446151948, 707.7667017013898, 721.2492535243225, 724.7280522338888, 826.365986960679, 840.456030634786, 1100.384907994666, 1242.5700919000103, 1430.1087449914048, 1714.6352401969066, 2231.0392880759487, 3432.6129544467744, 3536.503172836065, 3766.6034555897104]

>  <E0_kJmol>  (2) 
-644983

>  <H298_kJmol>  (2) 
-644967

$$$$

     RDKit          3D

 14 12  0  0  0  0  0  0  0  0999 V2000
    0.7279    0.3397    0.8844 O   0  0  0  0  0  1  0  0  0  1  0  0
    0.4371    1.5714    0.4752 C   0  0  0  0  0  0  0  0  0  2  0  0
   -0.5454    1.8562   -0.2673 N   0  0  0  0  0  0  0  0  0  3  0  0
    1.4166    2.4824    1.0188 C   0  0  0  0  0  0  0  0  0  4  0  0
    2.2206    3.2486    1.4646 C   0  0  0  0  0  0  0  0  0  5  0  0
   -0.5754    2.8493   -0.4649 H   0  0  0  0  0  0  0  0  0  6  0  0
    2.9331    3.9363    1.8564 H   0  0  0  0  0  0  0  0  0  7  0  0
   -0.0144   -1.5124   -2.6872 N   0  0  0  0  0  0  0  0  0  8  0  0
   -0.4548   -1.3593   -1.6393 C   0  0  0  0  0  0  0  0  0  9  0  0
   -0.9924   -1.1368   -0.3179 C   0  0  0  0  0  0  0  0  0 10  0  0
   -1.2347   -2.3304    0.4577 C   0  0  0  0  0  0  0  0  0 11  0  0
   -1.4267   -3.2567    1.1070 N   0  0  0  0  0  0  0  0  0 12  0  0
   -0.1604   -0.5086    0.2846 H   0  0  0  0  0  0  0  0  0 13  0  0
   -1.8416   -0.4549   -0.3327 H   0  0  0  0  0  0  0  0  0 14  0  0
  1  2  1  0
  2  3  1  0
  2  4  1  0
  3  6  1  0
  4  5  1  0
  5  7  1  0
  8  9  1  0
  9 10  1  0
 10 13  1  0
 10 14  1  0
 10 11  1  0
 11 12  1  0
M  RAD  1   1   2
M  END
>  <rmg_smiles>  (3) 
[CH][C][C]([O])[NH].[N][C]C[C][N]

>  <rmg_adjacency_list>  (3) 
multiplicity 2
1  O u1 p2 c0 {6,S}
2  N u0 p1 c0 {6,S} {13,S}
3  N u0 p2 c0 {8,S}
4  N u0 p2 c0 {9,S}
5  C u0 p0 c0 {8,S} {9,S} {11,S} {12,S}
6  C u0 p0 c0 {1,S} {2,S} {7,S}
7  C u0 p1 c0 {6,S} {10,S}
8  C u0 p1 c0 {3,S} {5,S}
9  C u0 p1 c0 {4,S} {5,S}
10 C u0 p1 c0 {7,S} {14,S}
11 H u0 p0 c0 {5,S}
12 H u0 p0 c0 {5,S}
13 H u0 p0 c0 {2,S}
14 H u0 p0 c0 {10,S}


>  <multiplicity>  (3) 
2

>  <reaction>  (3) 
kfir_rxn_5389

>  <type>  (3) 
ts

>  <role_mapnums>  (3) 
{"*2": 13, "*1": 10, "*3": 1, "*0": 9, "*4": 2}

>  <role_mapidx>  (3) 
{"*2": 12, "*1": 9, "*3": 0, "*0": 8, "*4": 1}

>  <ordered_mapped_smiles>  (3) 
[O:1][CH:2]([NH:3][H:6])[CH2:4][CH2:5][H:7].[NH2:8][CH2:9][C:10]([CH2:11][NH2:12])([H:13])[H:14]

>  <mol_properties>  (3) 
{"0": {"label": "*3", "atom_type": "O2s"}, "1": {"label": "*4", "atom_type": "Cs"}, "8": {"label": "*0", "atom_type": "C2s"}, "9": {"label": "*1", "atom_type": "Cs"}, "12": {"label": "*2", "atom_type": "H0"}}

>  <level_of_theory>  (3) 
wb97xd/def2tzvp

>  <lot_method>  (3) 
wb97xd

>  <lot_basis>  (3) 
def2tzvp

>  <spin_multiplicity>  (3) 
2.0

>  <optical_isomers>  (3) 
2.0

>  <modes>  (3) 
IdealGasTranslation(mass=(134.035, 'amu')),         NonlinearRotor(             inertia = ([223.834, 795.973, 923.961

>  <frequency_value>  (3) 
-1237.39

>  <frequency_units>  (3) 
cm^-1

>  <frequency_list>  (3) 
unknown

>  <arkane_path>  (3) 
/home/calvin/Dropbox/PersonalFolders/Calvin/Kfir_HAb_Converged/kfir_rxn_5389/output/rxns/TS0/arkane/output.py

>  <path_exists>  (3) 
True

>  <E0_value>  (3) 
-1232960.0

>  <E0_units>  (3) 
kJ/mol

>  <thermo_class>  (3) 
unknown

>  <Cp0_value>  (3) 
unknown

>  <Cp0_units>  (3) 
unknown

>  <CpInf_value>  (3) 
unknown

>  <CpInf_units>  (3) 
unknown

>  <Tmin_value>  (3) 
unknown

>  <Tmin_units>  (3) 
unknown

>  <Tmax_value>  (3) 
unknown

>  <Tmax_units>  (3) 
unknown

>  <polynomials>  (3) 
unknown

>  <H298_value>  (3) 
unknown

>  <H298_units>  (3) 
unknown

>  <S298_value>  (3) 
unknown

>  <S298_units>  (3) 
unknown

>  <Cp_T_value_list>  (3) 
unknown

>  <Cp_T_units>  (3) 
unknown

>  <T_list>  (3) 
unknown

>  <T_units>  (3) 
unknown

>  <yaml_path>  (3) 
unknown

>  <frequencies_cm1>  (3) 
unknown

>  <ZPE_kJmol>  (3) 
unknown

>  <E_elec_kJmol>  (3) 
unknown

>  <E0_minus_Eelec_plus_ZPE_kJmol>  (3) 
unknown

>  <rxn>  (3) 
unknown

>  <species_type>  (3) 
unknown

>  <species_folder>  (3) 
unknown

>  <frequencies_cm1_list>  (3) 
[]

>  <ts_imag_freq_cm1>  (3) 
-1252.4145

>  <ts_freq_out_path>  (3) 
/home/calvin/Dropbox/PersonalFolders/Calvin/Kfir_HAb_Converged/kfir_rxn_5389/output/rxns/TS0/geometry/freq.out

>  <E0_kJmol>  (3) 
-1.23296e+06

>  <H298_kJmol>  (3) 
unknown

$$$$

     RDKit          3D

  6  5  0  0  0  0  0  0  0  0999 V2000
    2.2462   -0.4182   -0.5446 N   0  0  0  0  0  2  0  0  0  1  0  0
    1.2137   -0.0678   -0.1600 C   0  0  0  0  0  0  0  0  0  2  0  0
   -0.0159    0.3825    0.3184 C   0  0  0  0  0  0  0  0  0  3  0  0
   -1.1977   -0.3187    0.0838 C   0  0  0  0  0  0  0  0  0  4  0  0
   -2.1924   -0.8799   -0.0960 N   0  0  0  0  0  0  0  0  0  5  0  0
   -0.0540    1.3020    0.8877 H   0  0  0  0  0  0  0  0  0  6  0  0
  1  2  1  0
  2  3  1  0
  3  4  1  0
  3  6  1  0
  4  5  1  0
M  RAD  1   1   2
M  END
>  <rmg_smiles>  (4) 
[N][C][CH][C][N]

>  <rmg_adjacency_list>  (4) 
multiplicity 2
1 N u1 p2 c0 {4,S}
2 N u0 p2 c0 {5,S}
3 C u0 p0 c0 {4,S} {5,S} {6,S}
4 C u0 p1 c0 {1,S} {3,S}
5 C u0 p1 c0 {2,S} {3,S}
6 H u0 p0 c0 {3,S}


>  <multiplicity>  (4) 
2

>  <reaction>  (4) 
kfir_rxn_5389

>  <type>  (4) 
r1

>  <role_mapnums>  (4) 
{}

>  <role_mapidx>  (4) 
{}

>  <ordered_mapped_smiles>  (4) 
[NH:1][CH2:2][CH:3]([CH2:4][NH2:5])[H:6]

>  <level_of_theory>  (4) 
wb97xd/def2tzvp

>  <lot_method>  (4) 
wb97xd

>  <lot_basis>  (4) 
def2tzvp

>  <spin_multiplicity>  (4) 
2.0

>  <optical_isomers>  (4) 
1.0

>  <modes>  (4) 
IdealGasTranslation(mass=(65.014, 'amu')),         NonlinearRotor(             inertia = ([16.2864, 176.463, 192.749

>  <frequency_value>  (4) 
unknown

>  <frequency_units>  (4) 
unknown

>  <frequency_list>  (4) 
unknown

>  <arkane_path>  (4) 
/home/calvin/Dropbox/PersonalFolders/Calvin/Kfir_HAb_Converged/kfir_rxn_5389/output/Species/NtC_CH_CtN/arkane/output.py

>  <path_exists>  (4) 
True

>  <E0_value>  (4) 
-588108.1510389663

>  <E0_units>  (4) 
kJ/mol

>  <thermo_class>  (4) 
NASA

>  <Cp0_value>  (4) 
33.257888

>  <Cp0_units>  (4) 
J/(mol*K)

>  <CpInf_value>  (4) 
133.031552

>  <CpInf_units>  (4) 
J/(mol*K)

>  <Tmin_value>  (4) 
10.0

>  <Tmin_units>  (4) 
K

>  <Tmax_value>  (4) 
3000.0

>  <Tmax_units>  (4) 
K

>  <polynomials>  (4) 
[{"name": "polynomial1", "class": "NASAPolynomial", "Tmin_value": 10.0, "Tmin_units": "K", "Tmax_value": 446.793479745124, "Tmax_units": "K", "coeffs": [3.9021104750293443, 0.006806648653692827, 8.016760379767834e-05, -2.202978115593819e-07, 1.740327316025952e-10, -70733071.40718108, 8.911879723111882]}, {"name": "polynomial2", "class": "NASAPolynomial", "Tmin_value": 446.793479745124, "Tmin_units": "K", "Tmax_value": 3000.0, "Tmax_units": "K", "coeffs": [4.807064837165659, 0.016288816910592644, -1.0700234980065705e-05, 3.3724373007676223e-09, -4.076787036967046e-13, -70733327.78187835, 3.310985388806768]}]

>  <H298_value>  (4) 
-140557.60320435057

>  <H298_units>  (4) 
kcal/mol

>  <S298_value>  (4) 
69.81130509682315

>  <S298_units>  (4) 
cal/(mol*K)

>  <Cp_T_value_list>  (4) 
[17.13133688271906, 19.490053440540905, 21.20844010057889, 22.66186782585985, 24.938787158874575, 26.549884396265785, 28.780441394960697, 29.888376454199832, 30.52675926622007]

>  <Cp_T_units>  (4) 
cal/(mol*K)

>  <T_list>  (4) 
[300.0, 400.0, 500.0, 600.0, 800.0, 1000.0, 1500.0, 2000.0, 2400.0]

>  <T_units>  (4) 
K

>  <yaml_path>  (4) 
/home/calvin/Dropbox/PersonalFolders/Calvin/Kfir_HAb_Converged/kfir_rxn_5389/output/Species/NtC_CH_CtN/NtC_CH_CtN.yml

>  <frequencies_cm1>  (4) 
[151.55436601239998, 372.3897469182799, 386.11685057295995, 413.2620435429199, 612.0612685569199, 652.9541661375199, 948.54354923692, 1103.9708949698002, 1359.8279010076799, 2169.37680038248, 2244.2818762530396, 3179.7369514700404]

>  <ZPE_kJmol>  (4) 
81.31065708369657

>  <E_elec_kJmol>  (4) 
-588189.4616960499

>  <E0_minus_Eelec_plus_ZPE_kJmol>  (4) 
0.0

>  <rxn>  (4) 
kfir_rxn_5389

>  <species_type>  (4) 
p1

>  <species_folder>  (4) 
NtC_CH_CtN

>  <frequencies_cm1_list>  (4) 
[151.55436601239998, 372.3897469182799, 386.11685057295995, 413.2620435429199, 612.0612685569199, 652.9541661375199, 948.54354923692, 1103.9708949698002, 1359.8279010076799, 2169.37680038248, 2244.2818762530396, 3179.7369514700404]

>  <E0_kJmol>  (4) 
-588108

>  <H298_kJmol>  (4) 
-588093

$$$$

     RDKit          3D

  7  6  0  0  0  0  0  0  0  0999 V2000
   -1.0387    1.3506    0.9579 O   0  0  0  0  0  1  0  0  0  1  0  0
   -0.6359    0.3874    0.3330 C   0  0  0  0  0  0  0  0  0  2  0  0
   -1.4681   -0.3013   -0.5161 N   0  0  0  0  0  0  0  0  0  3  0  0
    0.7504   -0.0303    0.3305 C   0  0  0  0  0  0  0  0  0  4  0  0
    1.8917   -0.3888    0.3665 C   0  0  0  0  0  0  0  0  0  5  0  0
   -2.4085   -0.3164   -0.1139 H   0  0  0  0  0  0  0  0  0  6  0  0
    2.9090   -0.7013    0.3966 H   0  0  0  0  0  0  0  0  0  7  0  0
  1  2  1  0
  2  3  1  0
  2  4  1  0
  3  6  1  0
  4  5  1  0
  5  7  1  0
M  RAD  1   1   2
M  END
>  <rmg_smiles>  (5) 
[CH][C][C]([O])[NH]

>  <rmg_adjacency_list>  (5) 
multiplicity 2
1 O u1 p2 c0 {3,S}
2 N u0 p1 c0 {3,S} {6,S}
3 C u0 p0 c0 {1,S} {2,S} {4,S}
4 C u0 p1 c0 {3,S} {5,S}
5 C u0 p1 c0 {4,S} {7,S}
6 H u0 p0 c0 {2,S}
7 H u0 p0 c0 {5,S}


>  <multiplicity>  (5) 
2

>  <reaction>  (5) 
kfir_rxn_5389

>  <type>  (5) 
r2

>  <role_mapnums>  (5) 
{}

>  <role_mapidx>  (5) 
{}

>  <ordered_mapped_smiles>  (5) 
[O:1][CH:2]([NH:3][H:6])[CH2:4][CH2:5][H:7]

>  <level_of_theory>  (5) 
wb97xd/def2tzvp

>  <lot_method>  (5) 
wb97xd

>  <lot_basis>  (5) 
def2tzvp

>  <spin_multiplicity>  (5) 
2.0

>  <optical_isomers>  (5) 
2.0

>  <modes>  (5) 
IdealGasTranslation(mass=(68.0136, 'amu')),         NonlinearRotor(             inertia = ([39.5039, 122.199, 161.202

>  <frequency_value>  (5) 
unknown

>  <frequency_units>  (5) 
unknown

>  <frequency_list>  (5) 
unknown

>  <arkane_path>  (5) 
/home/calvin/Dropbox/PersonalFolders/Calvin/Kfir_HAb_Converged/kfir_rxn_5389/output/Species/_O_C[=N]CtC/arkane/output.py

>  <path_exists>  (5) 
True

>  <E0_value>  (5) 
-643246.52048154

>  <E0_units>  (5) 
kJ/mol

>  <thermo_class>  (5) 
NASA

>  <Cp0_value>  (5) 
33.257888

>  <Cp0_units>  (5) 
J/(mol*K)

>  <CpInf_value>  (5) 
153.817732

>  <CpInf_units>  (5) 
J/(mol*K)

>  <Tmin_value>  (5) 
10.0

>  <Tmin_units>  (5) 
K

>  <Tmax_value>  (5) 
3000.0

>  <Tmax_units>  (5) 
K

>  <polynomials>  (5) 
[{"name": "polynomial1", "class": "NASAPolynomial", "Tmin_value": 10.0, "Tmin_units": "K", "Tmax_value": 436.16918021934424, "Tmax_units": "K", "coeffs": [3.8624503527261496, 0.009776163341207992, 9.901828797181444e-05, -2.894163336477351e-07, 2.381219872280455e-10, -77364685.57530959, 11.144682975773982]}, {"name": "polynomial2", "class": "NASAPolynomial", "Tmin_value": 436.16918021934424, "Tmin_units": "K", "Tmax_value": 3000.0, "Tmax_units": "K", "coeffs": [5.419081048933174, 0.018869860997442773, -1.2622583488188405e-05, 4.060340934179266e-09, -4.980735970452114e-13, -77365043.6579114, 2.3781868579537035]}]

>  <H298_value>  (5) 
-153735.6319513273

>  <H298_units>  (5) 
kcal/mol

>  <S298_value>  (5) 
76.26063582538309

>  <S298_units>  (5) 
cal/(mol*K)

>  <Cp_T_value_list>  (5) 
[19.517333468094442, 22.23509058169874, 24.193799365565123, 25.85226667227212, 28.43970717222528, 30.262424379810312, 32.79926610525102, 34.144219879750935, 34.98662461553122]

>  <Cp_T_units>  (5) 
cal/(mol*K)

>  <T_list>  (5) 
[300.0, 400.0, 500.0, 600.0, 800.0, 1000.0, 1500.0, 2000.0, 2400.0]

>  <T_units>  (5) 
K

>  <yaml_path>  (5) 
/home/calvin/Dropbox/PersonalFolders/Calvin/Kfir_HAb_Converged/kfir_rxn_5389/output/Species/_O_C[=N]CtC/_O_C=NCtC.yml

>  <frequencies_cm1>  (5) 
[190.46088186124848, 258.1102433789072, 458.5920171905862, 594.5267986102133, 699.0936268582765, 707.7504359942094, 751.6165458070822, 784.3907740726512, 1058.4078848663053, 1289.7985733175865, 1613.972433804998, 2221.430529954985, 3430.3185958119357, 3436.508584778303]

>  <ZPE_kJmol>  (5) 
104.64323631995956

>  <E_elec_kJmol>  (5) 
-643351.16371786

>  <E0_minus_Eelec_plus_ZPE_kJmol>  (5) 
0.0

>  <rxn>  (5) 
kfir_rxn_5389

>  <species_type>  (5) 
r0

>  <species_folder>  (5) 
_O_C[=N]CtC

>  <frequencies_cm1_list>  (5) 
[190.46088186124848, 258.1102433789072, 458.5920171905862, 594.5267986102133, 699.0936268582765, 707.7504359942094, 751.6165458070822, 784.3907740726512, 1058.4078848663053, 1289.7985733175865, 1613.972433804998, 2221.430529954985, 3430.3185958119357, 3436.508584778303]

>  <E0_kJmol>  (5) 
-643247

>  <H298_kJmol>  (5) 
-643230

$$$$
