
     RDKit          3D

  9  8  0  0  0  0  0  0  0  0999 V2000
   -0.4680   -0.8771   -0.9223 O   0  0  0  0  0  0  0  0  0  1  0  0
   -0.3083   -0.7317    0.4537 N   0  0  0  0  0  0  0  0  0  2  0  0
    0.3132    0.4603    0.7411 C   0  0  0  0  0  0  0  0  0  3  0  0
    0.5756    1.4651   -0.1028 C   0  0  0  0  0  0  0  0  0  4  0  0
   -1.1788   -1.5175   -1.0015 H   0  0  0  0  0  0  0  0  0  5  0  0
    0.3019   -1.5107    0.7739 H   0  0  0  0  0  0  0  0  0  6  0  0
    0.5793    0.5201    1.7908 H   0  0  0  0  0  0  0  0  0  7  0  0
    0.3068    1.4128   -1.1474 H   0  0  0  0  0  0  0  0  0  8  0  0
    1.0296    2.3715    0.2708 H   0  0  0  0  0  0  0  0  0  9  0  0
  1  5  1  0
  1  2  1  0
  2  6  1  0
  2  3  1  0
  3  4  1  0
  3  7  1  0
  4  8  1  0
  4  9  1  0
M  END
>  <rmg_smiles>  (1) 
[CH2][CH]NO

>  <rmg_adjacency_list>  (1) 
1 O u0 p2 c0 {2,S} {9,S}
2 N u0 p1 c0 {1,S} {3,S} {6,S}
3 C u0 p0 c0 {2,S} {4,S} {5,S}
4 C u0 p0 c0 {3,S} {7,S} {8,S}
5 H u0 p0 c0 {3,S}
6 H u0 p0 c0 {2,S}
7 H u0 p0 c0 {4,S}
8 H u0 p0 c0 {4,S}
9 H u0 p0 c0 {1,S}


>  <multiplicity>  (1) 
1

>  <reaction>  (1) 
rmg_rxn_16700

>  <type>  (1) 
r1h

>  <role_mapnums>  (1) 
{"r1h_a": 2, "r1h_h": 6}

>  <role_mapidx>  (1) 
{"r1h_a": 1, "r1h_h": 5}

>  <ordered_mapped_smiles>  (1) 
[O:1]([N:2]([CH:3]([CH:4]([H:8])[H:9])[H:7])[H:6])[H:5]

>  <mol_properties>  (1) 
{"1": {"label": "donator", "atom_type": "N3s"}, "5": {"label": "d_hydrogen", "atom_type": "H0"}}

>  <level_of_theory>  (1) 
wb97xd/def2tzvp

>  <lot_method>  (1) 
wb97xd

>  <lot_basis>  (1) 
def2tzvp

>  <spin_multiplicity>  (1) 
1.0

>  <optical_isomers>  (1) 
2.0

>  <modes>  (1) 
IdealGasTranslation(mass=(59.0371, 'amu')),         NonlinearRotor(             inertia = ([26.8851, 80.2475, 104.734

>  <frequency_value>  (1) 
unknown

>  <frequency_units>  (1) 
unknown

>  <frequency_list>  (1) 
unknown

>  <arkane_path>  (1) 
/home/calvin/Dropbox/PersonalFolders/Calvin/ZEUS_Converged/rmg_rxn_16700/output/Species/rmg_rxn_16700_r2_ONC=C/arkane/output.py

>  <path_exists>  (1) 
True

>  <E0_value>  (1) 
-548876.2492897667

>  <E0_units>  (1) 
kJ/mol

>  <thermo_class>  (1) 
NASA

>  <Cp0_value>  (1) 
33.257888

>  <Cp0_units>  (1) 
J/(mol*K)

>  <CpInf_value>  (1) 
207.8618

>  <CpInf_units>  (1) 
J/(mol*K)

>  <Tmin_value>  (1) 
10.0

>  <Tmin_units>  (1) 
K

>  <Tmax_value>  (1) 
3000.0

>  <Tmax_units>  (1) 
K

>  <polynomials>  (1) 
[{"name": "polynomial1", "class": "NASAPolynomial", "Tmin_value": 10.0, "Tmin_units": "K", "Tmax_value": 534.513822788252, "Tmax_units": "K", "coeffs": [3.9517303912922594, 0.0028840980202371903, 8.773836020256086e-05, -1.6272179485764668e-07, 9.457369073564097e-11, -66014562.421124935, 8.823481836648403]}, {"name": "polynomial2", "class": "NASAPolynomial", "Tmin_value": 534.513822788252, "Tmin_units": "K", "Tmax_value": 3000.0, "Tmax_units": "K", "coeffs": [1.5236658327763646, 0.031063031084434593, -1.9427063870386636e-05, 5.970608421724234e-09, -7.109704180363607e-13, -66014445.83063852, 17.679113003132944]}]

>  <H298_value>  (1) 
-131180.9841278997

>  <H298_units>  (1) 
kcal/mol

>  <S298_value>  (1) 
69.24050182976455

>  <S298_units>  (1) 
cal/(mol*K)

>  <Cp_T_value_list>  (1) 
[18.0556999419756, 22.158145070532438, 25.632978177679774, 28.54672045926108, 33.19928101171102, 36.6028951744489, 41.64953203785474, 44.37593717322883, 45.95305980032292]

>  <Cp_T_units>  (1) 
cal/(mol*K)

>  <T_list>  (1) 
[300.0, 400.0, 500.0, 600.0, 800.0, 1000.0, 1500.0, 2000.0, 2400.0]

>  <T_units>  (1) 
K

>  <yaml_path>  (1) 
/home/calvin/Dropbox/PersonalFolders/Calvin/ZEUS_Converged/rmg_rxn_16700/output/Species/rmg_rxn_16700_r2_ONC=C/rmg_rxn_16700_r2_ONC=C.yml

>  <frequencies_cm1>  (1) 
[258.13684516411996, 308.68472410463994, 322.41182775932, 612.44581973484, 680.82039256608, 774.1770579914801, 870.0813749705999, 989.50511667072, 1011.5412725625999, 1022.6520548103599, 1191.51809081448, 1319.1959488692398, 1382.58509035816, 1435.43340938088, 1488.7143484787598, 1720.13862074808, 3143.3968651566, 3158.0922137413995, 3245.6737445126796, 3519.9823401054, 3819.6438454995596]

>  <ZPE_kJmol>  (1) 
193.04641492915528

>  <E_elec_kJmol>  (1) 
-549069.2957046959

>  <E0_minus_Eelec_plus_ZPE_kJmol>  (1) 
0.0

>  <rxn>  (1) 
rmg_rxn_16700

>  <species_type>  (1) 
r1

>  <species_folder>  (1) 
rmg_rxn_16700_r2_ONC=C

>  <frequencies_cm1_list>  (1) 
[258.13684516411996, 308.68472410463994, 322.41182775932, 612.44581973484, 680.82039256608, 774.1770579914801, 870.0813749705999, 989.50511667072, 1011.5412725625999, 1022.6520548103599, 1191.51809081448, 1319.1959488692398, 1382.58509035816, 1435.43340938088, 1488.7143484787598, 1720.13862074808, 3143.3968651566, 3158.0922137413995, 3245.6737445126796, 3519.9823401054, 3819.6438454995596]

>  <E0_kJmol>  (1) 
-548876

>  <H298_kJmol>  (1) 
-548861

$$$$

     RDKit          3D

  8  7  0  0  0  0  0  0  0  0999 V2000
    1.2072   -0.3178   -0.2731 C   0  0  0  0  0  0  0  0  0  1  0  0
   -0.1231    0.3702   -0.1677 C   0  0  0  0  0  0  0  0  0  2  0  0
   -1.0927   -0.0891    0.4687 N   0  0  0  0  0  0  0  0  0  3  0  0
    1.4350   -0.5136   -1.3229 H   0  0  0  0  0  0  0  0  0  4  0  0
    1.2051   -1.2543    0.2809 H   0  0  0  0  0  0  0  0  0  5  0  0
    1.9907    0.3363    0.1151 H   0  0  0  0  0  0  0  0  0  6  0  0
   -0.2112    1.3371   -0.6956 H   0  0  0  0  0  0  0  0  0  7  0  0
   -1.9182    0.5376    0.3821 H   0  0  0  0  0  0  0  0  0  8  0  0
  1  5  1  0
  1  4  1  0
  1  6  1  0
  1  2  1  0
  2  3  1  0
  2  7  1  0
  3  8  1  0
M  END
>  <rmg_smiles>  (2) 
C[CH][NH]

>  <rmg_adjacency_list>  (2) 
1 N u0 p1 c0 {3,S} {8,S}
2 C u0 p0 c0 {3,S} {4,S} {5,S} {6,S}
3 C u0 p0 c0 {1,S} {2,S} {7,S}
4 H u0 p0 c0 {2,S}
5 H u0 p0 c0 {2,S}
6 H u0 p0 c0 {2,S}
7 H u0 p0 c0 {3,S}
8 H u0 p0 c0 {1,S}


>  <multiplicity>  (2) 
1

>  <reaction>  (2) 
rmg_rxn_16700

>  <type>  (2) 
r2h

>  <role_mapnums>  (2) 
{"r2h_a": 3, "r2h_h": 8}

>  <role_mapidx>  (2) 
{"r2h_a": 2, "r2h_h": 7}

>  <ordered_mapped_smiles>  (2) 
[C:1]([CH:2]([NH:3][H:8])[H:7])([H:4])([H:5])[H:6]

>  <mol_properties>  (2) 
{"2": {"label": "acceptor", "atom_type": "N3s"}, "7": {"label": "a_hydrogen", "atom_type": "H0"}}

>  <level_of_theory>  (2) 
wb97xd/def2tzvp

>  <lot_method>  (2) 
wb97xd

>  <lot_basis>  (2) 
def2tzvp

>  <spin_multiplicity>  (2) 
1.0

>  <optical_isomers>  (2) 
1.0

>  <modes>  (2) 
IdealGasTranslation(mass=(43.0422, 'amu')),         NonlinearRotor(             inertia = ([9.32783, 51.3348, 57.5532

>  <frequency_value>  (2) 
unknown

>  <frequency_units>  (2) 
unknown

>  <frequency_list>  (2) 
unknown

>  <arkane_path>  (2) 
/home/calvin/Dropbox/PersonalFolders/Calvin/ZEUS_Converged/rmg_rxn_16700/output/Species/rmg_rxn_16700_p2_CC=N/arkane/output.py

>  <path_exists>  (2) 
True

>  <E0_value>  (2) 
-351535.20335661684

>  <E0_units>  (2) 
kJ/mol

>  <thermo_class>  (2) 
NASA

>  <Cp0_value>  (2) 
33.257888

>  <Cp0_units>  (2) 
J/(mol*K)

>  <CpInf_value>  (2) 
182.918384

>  <CpInf_units>  (2) 
J/(mol*K)

>  <Tmin_value>  (2) 
10.0

>  <Tmin_units>  (2) 
K

>  <Tmax_value>  (2) 
3000.0

>  <Tmax_units>  (2) 
K

>  <polynomials>  (2) 
[{"name": "polynomial1", "class": "NASAPolynomial", "Tmin_value": 10.0, "Tmin_units": "K", "Tmax_value": 834.0183041901832, "Tmax_units": "K", "coeffs": [4.020859284868709, 0.0012406595733239277, 4.4482903010182226e-05, -5.482114439751344e-08, 2.0739201558559772e-11, -42279921.71645892, 6.726586383468645]}, {"name": "polynomial2", "class": "NASAPolynomial", "Tmin_value": 834.0183041901832, "Tmin_units": "K", "Tmax_value": 3000.0, "Tmax_units": "K", "coeffs": [0.8146767610859666, 0.025012560508124084, -1.3369721411120483e-05, 3.4917002293006827e-09, -3.579375529269218e-13, -42279678.881200545, 19.862274208798944]}]

>  <H298_value>  (2) 
-84015.86036687854

>  <H298_units>  (2) 
kcal/mol

>  <S298_value>  (2) 
62.66843297179497

>  <S298_units>  (2) 
cal/(mol*K)

>  <Cp_T_value_list>  (2) 
[14.078036689508782, 17.202765604471058, 20.2803800489589, 23.1023356383003, 27.639649626797436, 30.983090061901617, 36.21499785066487, 38.88468928045463, 40.19916387517873]

>  <Cp_T_units>  (2) 
cal/(mol*K)

>  <T_list>  (2) 
[300.0, 400.0, 500.0, 600.0, 800.0, 1000.0, 1500.0, 2000.0, 2400.0]

>  <T_units>  (2) 
K

>  <yaml_path>  (2) 
/home/calvin/Dropbox/PersonalFolders/Calvin/ZEUS_Converged/rmg_rxn_16700/output/Species/rmg_rxn_16700_p2_CC=N/rmg_rxn_16700_p2_CC=N.yml

>  <frequencies_cm1>  (2) 
[185.42920459596, 489.9250676554, 680.6761858743599, 921.32968641376, 1055.89513074448, 1069.62910138448, 1130.4431233784, 1267.5150173509198, 1378.7876474762, 1425.071128533, 1456.56312321052, 1463.3683056626398, 1737.36788691596, 2989.2124437666403, 3014.6889593038395, 3075.43431144456, 3123.3452680222, 3455.8927661138396]

>  <ZPE_kJmol>  (2) 
178.96482902382195

>  <E_elec_kJmol>  (2) 
-351714.16818564065

>  <E0_minus_Eelec_plus_ZPE_kJmol>  (2) 
0.0

>  <rxn>  (2) 
rmg_rxn_16700

>  <species_type>  (2) 
p1

>  <species_folder>  (2) 
rmg_rxn_16700_p2_CC=N

>  <frequencies_cm1_list>  (2) 
[185.42920459596, 489.9250676554, 680.6761858743599, 921.32968641376, 1055.89513074448, 1069.62910138448, 1130.4431233784, 1267.5150173509198, 1378.7876474762, 1425.071128533, 1456.56312321052, 1463.3683056626398, 1737.36788691596, 2989.2124437666403, 3014.6889593038395, 3075.43431144456, 3123.3452680222, 3455.8927661138396]

>  <E0_kJmol>  (2) 
-351535

>  <H298_kJmol>  (2) 
-351522

$$$$

     RDKit          3D

 16 14  0  0  0  0  0  0  0  0999 V2000
    2.5312   -1.7897    0.0078 C   0  0  0  0  0  0  0  0  0  1  0  0
    1.2009   -1.1017    0.1132 C   0  0  0  0  0  0  0  0  0  2  0  0
    0.2313   -1.5610    0.7496 N   0  0  0  0  0  2  0  0  0  3  0  0
    2.7591   -1.9855   -1.0421 H   0  0  0  0  0  0  0  0  0  4  0  0
    2.5291   -2.7261    0.5618 H   0  0  0  0  0  0  0  0  0  5  0  0
    3.3147   -1.1355    0.3960 H   0  0  0  0  0  0  0  0  0  6  0  0
    1.1128   -0.1348   -0.4147 H   0  0  0  0  0  0  0  0  0  7  0  0
   -1.6805   -0.0141   -1.1041 O   0  0  0  0  0  0  0  0  0  8  0  0
   -1.5208    0.1313    0.2720 N   0  0  0  0  0  0  0  0  0  9  0  0
   -0.8993    1.3233    0.5593 C   0  0  0  0  0  0  0  0  0 10  0  0
   -0.6369    2.3282   -0.2845 C   0  0  0  0  0  0  0  0  0 11  0  0
   -2.3913   -0.6545   -1.1833 H   0  0  0  0  0  0  0  0  0 12  0  0
   -0.8210   -0.7620    0.6392 H   0  0  0  0  0  0  0  0  0 13  0  0
   -0.6332    1.3832    1.6090 H   0  0  0  0  0  0  0  0  0 14  0  0
   -0.9057    2.2758   -1.3292 H   0  0  0  0  0  0  0  0  0 15  0  0
   -0.1829    3.2345    0.0890 H   0  0  0  0  0  0  0  0  0 16  0  0
  1  5  1  0
  1  4  1  0
  1  6  1  0
  1  2  1  0
  2  3  1  0
  2  7  1  0
  8  9  1  0
  8 12  1  0
  9 10  1  0
  9 13  1  0
 10 14  1  0
 10 11  1  0
 11 16  1  0
 11 15  1  0
M  RAD  1   3   2
M  END
>  <rmg_smiles>  (3) 
[CH2][CH]NO.C[CH][N]

>  <rmg_adjacency_list>  (3) 
multiplicity 2
1  O u0 p2 c0 {2,S} {16,S}
2  N u0 p1 c0 {1,S} {5,S} {13,S}
3  N u1 p2 c0 {6,S}
4  C u0 p0 c0 {6,S} {8,S} {9,S} {10,S}
5  C u0 p0 c0 {2,S} {7,S} {11,S}
6  C u0 p0 c0 {3,S} {4,S} {12,S}
7  C u0 p0 c0 {5,S} {14,S} {15,S}
8  H u0 p0 c0 {4,S}
9  H u0 p0 c0 {4,S}
10 H u0 p0 c0 {4,S}
11 H u0 p0 c0 {5,S}
12 H u0 p0 c0 {6,S}
13 H u0 p0 c0 {2,S}
14 H u0 p0 c0 {7,S}
15 H u0 p0 c0 {7,S}
16 H u0 p0 c0 {1,S}


>  <multiplicity>  (3) 
2

>  <reaction>  (3) 
rmg_rxn_16700

>  <type>  (3) 
ts

>  <role_mapnums>  (3) 
{"*2": 13, "*1": 9, "*3": 3, "*0": 10, "*4": 2}

>  <role_mapidx>  (3) 
{"*2": 12, "*1": 8, "*3": 2, "*0": 9, "*4": 1}

>  <ordered_mapped_smiles>  (3) 
[C:1]([CH:2]([NH:3])[H:7])([H:4])([H:5])[H:6].[O:8]([N:9]([CH:10]([CH:11]([H:15])[H:16])[H:14])[H:13])[H:12]

>  <mol_properties>  (3) 
{"1": {"label": "*4", "atom_type": "Cs"}, "2": {"label": "*3", "atom_type": "N1s"}, "8": {"label": "*1", "atom_type": "N3s"}, "9": {"label": "*0", "atom_type": "Cs"}, "12": {"label": "*2", "atom_type": "H0"}}

>  <level_of_theory>  (3) 
wb97xd/def2tzvp

>  <lot_method>  (3) 
wb97xd

>  <lot_basis>  (3) 
def2tzvp

>  <spin_multiplicity>  (3) 
2.0

>  <optical_isomers>  (3) 
2.0

>  <modes>  (3) 
IdealGasTranslation(mass=(101.071, 'amu')),         NonlinearRotor(             inertia = ([120.279, 381.248, 426.79

>  <frequency_value>  (3) 
-1929.33

>  <frequency_units>  (3) 
cm^-1

>  <frequency_list>  (3) 
unknown

>  <arkane_path>  (3) 
/home/calvin/Dropbox/PersonalFolders/Calvin/ZEUS_Converged/rmg_rxn_16700/output/rxns/TS0/arkane/output.py

>  <path_exists>  (3) 
True

>  <E0_value>  (3) 
-898721.0

>  <E0_units>  (3) 
kJ/mol

>  <thermo_class>  (3) 
unknown

>  <Cp0_value>  (3) 
unknown

>  <Cp0_units>  (3) 
unknown

>  <CpInf_value>  (3) 
unknown

>  <CpInf_units>  (3) 
unknown

>  <Tmin_value>  (3) 
unknown

>  <Tmin_units>  (3) 
unknown

>  <Tmax_value>  (3) 
unknown

>  <Tmax_units>  (3) 
unknown

>  <polynomials>  (3) 
unknown

>  <H298_value>  (3) 
unknown

>  <H298_units>  (3) 
unknown

>  <S298_value>  (3) 
unknown

>  <S298_units>  (3) 
unknown

>  <Cp_T_value_list>  (3) 
unknown

>  <Cp_T_units>  (3) 
unknown

>  <T_list>  (3) 
unknown

>  <T_units>  (3) 
unknown

>  <yaml_path>  (3) 
unknown

>  <frequencies_cm1>  (3) 
unknown

>  <ZPE_kJmol>  (3) 
unknown

>  <E_elec_kJmol>  (3) 
unknown

>  <E0_minus_Eelec_plus_ZPE_kJmol>  (3) 
unknown

>  <rxn>  (3) 
unknown

>  <species_type>  (3) 
unknown

>  <species_folder>  (3) 
unknown

>  <frequencies_cm1_list>  (3) 
[]

>  <ts_imag_freq_cm1>  (3) 
-1952.7658

>  <ts_freq_out_path>  (3) 
/home/calvin/Dropbox/PersonalFolders/Calvin/ZEUS_Converged/rmg_rxn_16700/output/rxns/TS0/geometry/freq.out

>  <E0_kJmol>  (3) 
-898721

>  <H298_kJmol>  (3) 
unknown

$$$$

     RDKit          3D

  8  7  0  0  0  0  0  0  0  0999 V2000
   -0.5099    1.2819    0.3063 C   0  0  0  0  0  0  0  0  0  1  0  0
   -0.1363    0.0810   -0.2221 C   0  0  0  0  0  0  0  0  0  2  0  0
    0.0687   -0.9688    0.5737 N   0  0  0  0  0  2  0  0  0  3  0  0
    0.4319   -2.0496   -0.1803 O   0  0  0  0  0  0  0  0  0  4  0  0
   -0.6777    2.1365   -0.3324 H   0  0  0  0  0  0  0  0  0  5  0  0
   -0.6433    1.3943    1.3738 H   0  0  0  0  0  0  0  0  0  6  0  0
    0.0019   -0.0482   -1.2935 H   0  0  0  0  0  0  0  0  0  7  0  0
    0.5569   -2.7482    0.4667 H   0  0  0  0  0  0  0  0  0  8  0  0
  1  5  1  0
  1  6  1  0
  1  2  1  0
  2  3  1  0
  2  7  1  0
  3  4  1  0
  4  8  1  0
M  RAD  1   3   2
M  END
>  <rmg_smiles>  (4) 
[CH2][CH][N]O

>  <rmg_adjacency_list>  (4) 
multiplicity 2
1 O u0 p2 c0 {2,S} {8,S}
2 N u1 p1 c0 {1,S} {3,S}
3 C u0 p0 c0 {2,S} {4,S} {5,S}
4 C u0 p0 c0 {3,S} {6,S} {7,S}
5 H u0 p0 c0 {3,S}
6 H u0 p0 c0 {4,S}
7 H u0 p0 c0 {4,S}
8 H u0 p0 c0 {1,S}


>  <multiplicity>  (4) 
2

>  <reaction>  (4) 
rmg_rxn_16700

>  <type>  (4) 
r1

>  <role_mapnums>  (4) 
{}

>  <role_mapidx>  (4) 
{}

>  <ordered_mapped_smiles>  (4) 
[CH:1]([CH:2]([N:3][O:4][H:8])[H:7])([H:5])[H:6]

>  <level_of_theory>  (4) 
wb97xd/def2tzvp

>  <lot_method>  (4) 
wb97xd

>  <lot_basis>  (4) 
def2tzvp

>  <spin_multiplicity>  (4) 
2.0

>  <optical_isomers>  (4) 
1.0

>  <modes>  (4) 
IdealGasTranslation(mass=(58.0293, 'amu')),         NonlinearRotor(             inertia = ([9.7439, 107.457, 117.201

>  <frequency_value>  (4) 
unknown

>  <frequency_units>  (4) 
unknown

>  <frequency_list>  (4) 
unknown

>  <arkane_path>  (4) 
/home/calvin/Dropbox/PersonalFolders/Calvin/ZEUS_Converged/rmg_rxn_16700/output/Species/rmg_rxn_16700_p1_sbr-CH2-sbrC=NO/arkane/output.py

>  <path_exists>  (4) 
True

>  <E0_value>  (4) 
-547267.0535374497

>  <E0_units>  (4) 
kJ/mol

>  <thermo_class>  (4) 
NASA

>  <Cp0_value>  (4) 
33.257888

>  <Cp0_units>  (4) 
J/(mol*K)

>  <CpInf_value>  (4) 
182.918384

>  <CpInf_units>  (4) 
J/(mol*K)

>  <Tmin_value>  (4) 
10.0

>  <Tmin_units>  (4) 
K

>  <Tmax_value>  (4) 
3000.0

>  <Tmax_units>  (4) 
K

>  <polynomials>  (4) 
[{"name": "polynomial1", "class": "NASAPolynomial", "Tmin_value": 10.0, "Tmin_units": "K", "Tmax_value": 561.8125111902724, "Tmax_units": "K", "coeffs": [3.9491705278934233, 0.002964522841885397, 7.827496700020108e-05, -1.444346632632993e-07, 8.207271933103846e-11, -65821020.533206716, 8.437756594402968]}, {"name": "polynomial2", "class": "NASAPolynomial", "Tmin_value": 561.8125111902724, "Tmin_units": "K", "Tmax_value": 3000.0, "Tmax_units": "K", "coeffs": [2.0663254979189025, 0.027693929183602542, -1.7984837240747508e-05, 5.667402843419192e-09, -6.856867945995076e-13, -65820987.68205264, 14.845293892310655]}]

>  <H298_value>  (4) 
-130796.47676834262

>  <H298_units>  (4) 
kcal/mol

>  <S298_value>  (4) 
67.92920834676084

>  <S298_units>  (4) 
cal/(mol*K)

>  <Cp_T_value_list>  (4) 
[17.186012687925327, 20.897895882225196, 23.996285062290188, 26.5161619833379, 30.46790165156667, 33.29988460790833, 37.35457517025081, 39.51176384836804, 40.80893039296876]

>  <Cp_T_units>  (4) 
cal/(mol*K)

>  <T_list>  (4) 
[300.0, 400.0, 500.0, 600.0, 800.0, 1000.0, 1500.0, 2000.0, 2400.0]

>  <T_units>  (4) 
K

>  <yaml_path>  (4) 
/home/calvin/Dropbox/PersonalFolders/Calvin/ZEUS_Converged/rmg_rxn_16700/output/Species/rmg_rxn_16700_p1_sbr-CH2-sbrC=NO/rmg_rxn_16700_p1_sbr-CH2-sbrC=NO.yml

>  <frequencies_cm1>  (4) 
[238.61400589936, 343.60334445684, 476.32156973647994, 578.0696912229199, 618.3376931394, 832.2923547546399, 937.81045118176, 983.2424260588798, 1116.6679508264801, 1143.181381147, 1266.5124374941997, 1406.4066624332402, 1429.65140774144, 1536.33002468764, 3111.8087326846003, 3143.0878508172, 3245.7080794392796, 3824.5674739739998]

>  <ZPE_kJmol>  (4) 
156.9035257994234

>  <E_elec_kJmol>  (4) 
-547423.9570632491

>  <E0_minus_Eelec_plus_ZPE_kJmol>  (4) 
0.0

>  <rxn>  (4) 
rmg_rxn_16700

>  <species_type>  (4) 
p0

>  <species_folder>  (4) 
rmg_rxn_16700_p1_sbr-CH2-sbrC=NO

>  <frequencies_cm1_list>  (4) 
[238.61400589936, 343.60334445684, 476.32156973647994, 578.0696912229199, 618.3376931394, 832.2923547546399, 937.81045118176, 983.2424260588798, 1116.6679508264801, 1143.181381147, 1266.5124374941997, 1406.4066624332402, 1429.65140774144, 1536.33002468764, 3111.8087326846003, 3143.0878508172, 3245.7080794392796, 3824.5674739739998]

>  <E0_kJmol>  (4) 
-547267

>  <H298_kJmol>  (4) 
-547252

$$$$

     RDKit          3D

  7  6  0  0  0  0  0  0  0  0999 V2000
   -0.6441   -0.1356    0.0624 C   0  0  0  0  0  0  0  0  0  1  0  0
    0.8523    0.0148   -0.0333 C   0  0  0  0  0  0  0  0  0  2  0  0
    1.6700   -0.6077    0.6603 N   0  0  0  0  0  2  0  0  0  3  0  0
   -1.0940    0.8275    0.3091 H   0  0  0  0  0  0  0  0  0  4  0  0
   -0.9104   -0.8656    0.8237 H   0  0  0  0  0  0  0  0  0  5  0  0
   -1.0427   -0.4545   -0.9022 H   0  0  0  0  0  0  0  0  0  6  0  0
    1.2362    0.7308   -0.7748 H   0  0  0  0  0  0  0  0  0  7  0  0
  1  5  1  0
  1  4  1  0
  1  6  1  0
  1  2  1  0
  2  3  1  0
  2  7  1  0
M  RAD  1   3   2
M  END
>  <rmg_smiles>  (5) 
C[CH][N]

>  <rmg_adjacency_list>  (5) 
multiplicity 2
1 N u1 p2 c0 {3,S}
2 C u0 p0 c0 {3,S} {4,S} {5,S} {6,S}
3 C u0 p0 c0 {1,S} {2,S} {7,S}
4 H u0 p0 c0 {2,S}
5 H u0 p0 c0 {2,S}
6 H u0 p0 c0 {2,S}
7 H u0 p0 c0 {3,S}


>  <multiplicity>  (5) 
2

>  <reaction>  (5) 
rmg_rxn_16700

>  <type>  (5) 
r2

>  <role_mapnums>  (5) 
{}

>  <role_mapidx>  (5) 
{}

>  <ordered_mapped_smiles>  (5) 
[C:1]([CH:2]([NH:3])[H:7])([H:4])([H:5])[H:6]

>  <level_of_theory>  (5) 
wb97xd/def2tzvp

>  <lot_method>  (5) 
wb97xd

>  <lot_basis>  (5) 
def2tzvp

>  <spin_multiplicity>  (5) 
2.0

>  <optical_isomers>  (5) 
1.0

>  <modes>  (5) 
IdealGasTranslation(mass=(42.0344, 'amu')),         NonlinearRotor(             inertia = ([8.81492, 48.174, 53.8511

>  <frequency_value>  (5) 
unknown

>  <frequency_units>  (5) 
unknown

>  <frequency_list>  (5) 
unknown

>  <arkane_path>  (5) 
/home/calvin/Dropbox/PersonalFolders/Calvin/ZEUS_Converged/rmg_rxn_16700/output/Species/rmg_rxn_16700_r1_CC=sbr-N-sbr/arkane/output.py

>  <path_exists>  (5) 
True

>  <E0_value>  (5) 
-349854.82234455534

>  <E0_units>  (5) 
kJ/mol

>  <thermo_class>  (5) 
NASA

>  <Cp0_value>  (5) 
33.257888

>  <Cp0_units>  (5) 
J/(mol*K)

>  <CpInf_value>  (5) 
157.97496800000002

>  <CpInf_units>  (5) 
J/(mol*K)

>  <Tmin_value>  (5) 
10.0

>  <Tmin_units>  (5) 
K

>  <Tmax_value>  (5) 
3000.0

>  <Tmax_units>  (5) 
K

>  <polynomials>  (5) 
[{"name": "polynomial1", "class": "NASAPolynomial", "Tmin_value": 10.0, "Tmin_units": "K", "Tmax_value": 503.5856077016928, "Tmax_units": "K", "coeffs": [3.976811592049577, 0.0012685228752087534, 4.786155959427562e-05, -7.554553197268183e-08, 3.869280929218241e-11, -42077814.38325793, 7.559402827950991]}, {"name": "polynomial2", "class": "NASAPolynomial", "Tmin_value": 503.5856077016928, "Tmin_units": "K", "Tmax_value": 3000.0, "Tmax_units": "K", "coeffs": [1.4688672877735052, 0.02118998940112054, -1.1479594923736429e-05, 3.0156770231218235e-09, -3.096140671693614e-13, -42077561.800061174, 17.93823402033286]}]

>  <H298_value>  (5) 
-83614.2601862362

>  <H298_units>  (5) 
kcal/mol

>  <S298_value>  (5) 
63.84640386523673

>  <S298_units>  (5) 
cal/(mol*K)

>  <Cp_T_value_list>  (5) 
[13.788413560189577, 16.48922778111735, 18.980945997388957, 21.186536551582613, 24.822448324400693, 27.593007553675324, 31.86535612271467, 33.985319854322825, 35.01227851918305]

>  <Cp_T_units>  (5) 
cal/(mol*K)

>  <T_list>  (5) 
[300.0, 400.0, 500.0, 600.0, 800.0, 1000.0, 1500.0, 2000.0, 2400.0]

>  <T_units>  (5) 
K

>  <yaml_path>  (5) 
/home/calvin/Dropbox/PersonalFolders/Calvin/ZEUS_Converged/rmg_rxn_16700/output/Species/rmg_rxn_16700_r1_CC=sbr-N-sbr/rmg_rxn_16700_r1_CC=sbr-N-sbr.yml

>  <frequencies_cm1>  (5) 
[183.94593576684, 430.87586088872, 744.9511684695599, 909.3948659275999, 1050.2642027820798, 1063.7578289358798, 1237.9320445923597, 1377.0846351168398, 1461.72709617116, 1465.6893467008, 1739.36617964408, 2963.10416558, 3026.2186276561197, 3097.525403219, 3131.35217290532]

>  <ZPE_kJmol>  (5) 
142.8532380575317

>  <E_elec_kJmol>  (5) 
-349997.67558261286

>  <E0_minus_Eelec_plus_ZPE_kJmol>  (5) 
0.0

>  <rxn>  (5) 
rmg_rxn_16700

>  <species_type>  (5) 
r0

>  <species_folder>  (5) 
rmg_rxn_16700_r1_CC=sbr-N-sbr

>  <frequencies_cm1_list>  (5) 
[183.94593576684, 430.87586088872, 744.9511684695599, 909.3948659275999, 1050.2642027820798, 1063.7578289358798, 1237.9320445923597, 1377.0846351168398, 1461.72709617116, 1465.6893467008, 1739.36617964408, 2963.10416558, 3026.2186276561197, 3097.525403219, 3131.35217290532]

>  <E0_kJmol>  (5) 
-349855

>  <H298_kJmol>  (5) 
-349842

$$$$
