
     RDKit          3D

 14 13  0  0  0  0  0  0  0  0999 V2000
    0.0540   -1.0623   -1.7299 C   0  0  0  0  0  0  0  0  0  1  0  0
    0.0233   -0.3136   -0.4280 C   0  0  0  0  0  0  0  0  0  2  0  0
   -0.5418    0.8668   -0.3144 C   0  0  0  0  0  2  0  0  0  3  0  0
   -1.1672    2.0019   -0.2217 C   0  0  0  0  0  0  0  0  0  4  0  0
    0.6381   -0.9925    0.6306 N   0  0  0  0  0  0  0  0  0  5  0  0
    0.6657   -0.2661    1.8184 N   0  0  0  0  0  0  0  0  0  6  0  0
    1.0834   -1.1854   -2.0760 H   0  0  0  0  0  0  0  0  0  7  0  0
   -0.3794   -2.0553   -1.5990 H   0  0  0  0  0  0  0  0  0  8  0  0
   -0.5030   -0.5264   -2.4952 H   0  0  0  0  0  0  0  0  0  9  0  0
   -0.6668    2.9442   -0.4257 H   0  0  0  0  0  0  0  0  0 10  0  0
   -2.2114    2.0547    0.0720 H   0  0  0  0  0  0  0  0  0 11  0  0
    1.6080   -1.1997    0.3176 H   0  0  0  0  0  0  0  0  0 12  0  0
    1.2413    0.5694    1.7429 H   0  0  0  0  0  0  0  0  0 13  0  0
    1.0179   -0.8630    2.5513 H   0  0  0  0  0  0  0  0  0 14  0  0
  1  8  1  0
  1  7  1  0
  1  9  1  0
  1  2  1  0
  2  3  1  0
  2  5  1  0
  3  4  1  0
  4 10  1  0
  4 11  1  0
  5  6  1  0
  5 12  1  0
  6 14  1  0
  6 13  1  0
M  RAD  1   3   3
M  END
>  <rmg_smiles>  (1) 
C[C](NN)[C][CH2]

>  <rmg_adjacency_list>  (1) 
1  N u0 p1 c0 {2,S} {4,S} {10,S}
2  N u0 p1 c0 {1,S} {11,S} {12,S}
3  C u0 p0 c0 {4,S} {7,S} {8,S} {9,S}
4  C u0 p0 c0 {1,S} {3,S} {6,S}
5  C u0 p0 c0 {6,S} {13,S} {14,S}
6  C u0 p1 c0 {4,S} {5,S}
7  H u0 p0 c0 {3,S}
8  H u0 p0 c0 {3,S}
9  H u0 p0 c0 {3,S}
10 H u0 p0 c0 {1,S}
11 H u0 p0 c0 {2,S}
12 H u0 p0 c0 {2,S}
13 H u0 p0 c0 {5,S}
14 H u0 p0 c0 {5,S}


>  <multiplicity>  (1) 
1

>  <reaction>  (1) 
rmg_rxn_15667

>  <type>  (1) 
r1h

>  <role_mapnums>  (1) 
{"r1h_a": 5, "r1h_h": 12}

>  <role_mapidx>  (1) 
{"r1h_a": 4, "r1h_h": 11}

>  <ordered_mapped_smiles>  (1) 
[C:1]([CH:2]([C:3][CH:4]([H:10])[H:11])[N:5]([N:6]([H:13])[H:14])[H:12])([H:7])([H:8])[H:9]

>  <mol_properties>  (1) 
{"4": {"label": "donator", "atom_type": "N3s"}, "11": {"label": "d_hydrogen", "atom_type": "H0"}}

>  <level_of_theory>  (1) 
wb97xd/def2tzvp

>  <lot_method>  (1) 
wb97xd

>  <lot_basis>  (1) 
def2tzvp

>  <spin_multiplicity>  (1) 
1.0

>  <optical_isomers>  (1) 
2.0

>  <modes>  (1) 
IdealGasTranslation(mass=(84.0687, 'amu')),         NonlinearRotor(             inertia = ([122.38, 151.794, 264.176

>  <frequency_value>  (1) 
unknown

>  <frequency_units>  (1) 
unknown

>  <frequency_list>  (1) 
unknown

>  <arkane_path>  (1) 
/home/calvin/Dropbox/PersonalFolders/Calvin/ZEUS_Converged/rmg_rxn_15667/output/Species/rmg_rxn_15667_r2_CCrbr-=C=C-rbrNN/arkane/output.py

>  <path_exists>  (1) 
True

>  <E0_value>  (1) 
-699810.2050897593

>  <E0_units>  (1) 
kJ/mol

>  <thermo_class>  (1) 
NASA

>  <Cp0_value>  (1) 
33.257888

>  <Cp0_units>  (1) 
J/(mol*K)

>  <CpInf_value>  (1) 
332.57888

>  <CpInf_units>  (1) 
J/(mol*K)

>  <Tmin_value>  (1) 
10.0

>  <Tmin_units>  (1) 
K

>  <Tmax_value>  (1) 
3000.0

>  <Tmax_units>  (1) 
K

>  <polynomials>  (1) 
[{"name": "polynomial1", "class": "NASAPolynomial", "Tmin_value": 10.0, "Tmin_units": "K", "Tmax_value": 205.63316067254024, "Tmax_units": "K", "coeffs": [3.8054316869642766, 0.01864091698081123, 0.00018297549115368374, -6.747209120242622e-07, 8.289321712437746e-10, -84167729.62430753, 11.044237217694661]}, {"name": "polynomial2", "class": "NASAPolynomial", "Tmin_value": 205.63316067254024, "Tmin_units": "K", "Tmax_value": 3000.0, "Tmax_units": "K", "coeffs": [2.3217957354716696, 0.04750103007487688, -2.7547715423513785e-05, 7.805411642611523e-09, -8.614712880773772e-13, -84167668.60789697, 15.855300123098909]}]

>  <H298_value>  (1) 
-167253.4251142176

>  <H298_units>  (1) 
kcal/mol

>  <S298_value>  (1) 
83.62577388820344

>  <S298_units>  (1) 
cal/(mol*K)

>  <Cp_T_value_list>  (1) 
[28.41025386924548, 34.56162657616522, 39.95719117970049, 44.67152471788852, 52.33426369424311, 58.0642875850122, 66.71657734036077, 71.12757897466909, 73.46680140733653]

>  <Cp_T_units>  (1) 
cal/(mol*K)

>  <T_list>  (1) 
[300.0, 400.0, 500.0, 600.0, 800.0, 1000.0, 1500.0, 2000.0, 2400.0]

>  <T_units>  (1) 
K

>  <yaml_path>  (1) 
/home/calvin/Dropbox/PersonalFolders/Calvin/ZEUS_Converged/rmg_rxn_15667/output/Species/rmg_rxn_15667_r2_CCrbr-=C=C-rbrNN/rmg_rxn_15667_r2_CCrbr-=C=C-rbrNN.yml

>  <frequencies_cm1>  (1) 
[141.57663634243997, 155.53035051267997, 165.31580459368, 215.98042228463996, 284.76014724976, 321.38864694664, 444.71283630851997, 505.9388774216399, 619.53254858508, 648.9713146519199, 666.2211817757599, 804.58406898844, 924.7219771618398, 945.7624201823198, 1002.53865480808, 1032.1902974198397, 1055.8058599353199, 1168.56862587504, 1270.2274765523198, 1326.9487752955197, 1342.6467037370398, 1398.34482166756, 1463.74598985524, 1467.303088251, 1489.11263362732, 1517.3702782191197, 1681.8208426624797, 2057.08098944452, 3011.40654032088, 3073.92357467416, 3079.58197057784, 3129.95130790004, 3150.84067724348, 3416.9020234668797, 3531.6287472081194, 3555.3404475180796]

>  <ZPE_kJmol>  (1) 
311.4375506135599

>  <E_elec_kJmol>  (1) 
-700121.6426403729

>  <E0_minus_Eelec_plus_ZPE_kJmol>  (1) 
0.0

>  <rxn>  (1) 
rmg_rxn_15667

>  <species_type>  (1) 
r1

>  <species_folder>  (1) 
rmg_rxn_15667_r2_CCrbr-=C=C-rbrNN

>  <frequencies_cm1_list>  (1) 
[141.57663634243997, 155.53035051267997, 165.31580459368, 215.98042228463996, 284.76014724976, 321.38864694664, 444.71283630851997, 505.9388774216399, 619.53254858508, 648.9713146519199, 666.2211817757599, 804.58406898844, 924.7219771618398, 945.7624201823198, 1002.53865480808, 1032.1902974198397, 1055.8058599353199, 1168.56862587504, 1270.2274765523198, 1326.9487752955197, 1342.6467037370398, 1398.34482166756, 1463.74598985524, 1467.303088251, 1489.11263362732, 1517.3702782191197, 1681.8208426624797, 2057.08098944452, 3011.40654032088, 3073.92357467416, 3079.58197057784, 3129.95130790004, 3150.84067724348, 3416.9020234668797, 3531.6287472081194, 3555.3404475180796]

>  <E0_kJmol>  (1) 
-699810

>  <H298_kJmol>  (1) 
-699788

$$$$

     RDKit          3D

  9  8  0  0  0  0  0  0  0  0999 V2000
    0.0184   -1.6600    0.2503 C   0  0  0  0  0  0  0  0  0  1  0  0
    0.1139   -0.4655   -0.4343 O   0  0  0  0  0  0  0  0  0  2  0  0
   -0.0388    0.6091    0.4209 N   0  0  0  0  0  0  0  0  0  3  0  0
   -0.0620    1.7043   -0.2075 C   0  0  0  0  0  0  0  0  0  4  0  0
    0.2936   -2.4708   -0.4167 H   0  0  0  0  0  0  0  0  0  5  0  0
    0.5105   -1.6499    1.2224 H   0  0  0  0  0  0  0  0  0  6  0  0
   -0.1691    2.6002    0.3891 H   0  0  0  0  0  0  0  0  0  7  0  0
    0.0157    1.7609   -1.2903 H   0  0  0  0  0  0  0  0  0  8  0  0
   -1.0242   -1.7944    0.5289 H   0  0  0  0  0  0  0  0  0  9  0  0
  1  5  1  0
  1  9  1  0
  1  2  1  0
  1  6  1  0
  2  3  1  0
  3  4  1  0
  4  8  1  0
  4  7  1  0
M  END
>  <rmg_smiles>  (2) 
CO[N][CH2]

>  <rmg_adjacency_list>  (2) 
1 O u0 p2 c0 {2,S} {3,S}
2 N u0 p1 c0 {1,S} {4,S}
3 C u0 p0 c0 {1,S} {5,S} {6,S} {7,S}
4 C u0 p0 c0 {2,S} {8,S} {9,S}
5 H u0 p0 c0 {3,S}
6 H u0 p0 c0 {3,S}
7 H u0 p0 c0 {3,S}
8 H u0 p0 c0 {4,S}
9 H u0 p0 c0 {4,S}


>  <multiplicity>  (2) 
1

>  <reaction>  (2) 
rmg_rxn_15667

>  <type>  (2) 
r2h

>  <role_mapnums>  (2) 
{"r2h_a": 1, "r2h_h": 9}

>  <role_mapidx>  (2) 
{"r2h_a": 0, "r2h_h": 8}

>  <ordered_mapped_smiles>  (2) 
[C:1]([O:2][NH:3][CH:4]([H:7])[H:8])([H:5])([H:6])[H:9]

>  <mol_properties>  (2) 
{"0": {"label": "acceptor", "atom_type": "Cs"}, "8": {"label": "a_hydrogen", "atom_type": "H0"}}

>  <level_of_theory>  (2) 
wb97xd/def2tzvp

>  <lot_method>  (2) 
wb97xd

>  <lot_basis>  (2) 
def2tzvp

>  <spin_multiplicity>  (2) 
1.0

>  <optical_isomers>  (2) 
1.0

>  <modes>  (2) 
IdealGasTranslation(mass=(59.0371, 'amu')),         NonlinearRotor(             inertia = ([11.9742, 101.538, 110.304

>  <frequency_value>  (2) 
unknown

>  <frequency_units>  (2) 
unknown

>  <frequency_list>  (2) 
unknown

>  <arkane_path>  (2) 
/home/calvin/Dropbox/PersonalFolders/Calvin/ZEUS_Converged/rmg_rxn_15667/output/Species/rmg_rxn_15667_p1_CON=C/arkane/output.py

>  <path_exists>  (2) 
True

>  <E0_value>  (2) 
-548882.9200394232

>  <E0_units>  (2) 
kJ/mol

>  <thermo_class>  (2) 
NASA

>  <Cp0_value>  (2) 
33.257888

>  <Cp0_units>  (2) 
J/(mol*K)

>  <CpInf_value>  (2) 
207.8618

>  <CpInf_units>  (2) 
J/(mol*K)

>  <Tmin_value>  (2) 
10.0

>  <Tmin_units>  (2) 
K

>  <Tmax_value>  (2) 
3000.0

>  <Tmax_units>  (2) 
K

>  <polynomials>  (2) 
[{"name": "polynomial1", "class": "NASAPolynomial", "Tmin_value": 10.0, "Tmin_units": "K", "Tmax_value": 1066.0445442103917, "Tmax_units": "K", "coeffs": [3.9488472240731216, 0.012909444164008412, 1.8432835387873368e-05, -2.5565901414715004e-08, 8.632634293818456e-12, -66015370.98001154, 7.906058800048573]}, {"name": "polynomial2", "class": "NASAPolynomial", "Tmin_value": 1066.0445442103917, "Tmin_units": "K", "Tmax_value": 3000.0, "Tmax_units": "K", "coeffs": [4.051174026649639, 0.02340322367340144, -1.163838712217072e-05, 2.8112466199843713e-09, -2.6680947262736413e-13, -66016010.897278614, 4.506810904924114]}]

>  <H298_value>  (2) 
-131182.46582067996

>  <H298_units>  (2) 
kcal/mol

>  <S298_value>  (2) 
69.27397375028742

>  <S298_units>  (2) 
cal/(mol*K)

>  <Cp_T_value_list>  (2) 
[17.607207323409234, 21.157104611048137, 24.5530891366924, 27.67560467885903, 32.827861850696166, 36.480858050170255, 41.94371504002133, 44.76201379304356, 46.08804102499818]

>  <Cp_T_units>  (2) 
cal/(mol*K)

>  <T_list>  (2) 
[300.0, 400.0, 500.0, 600.0, 800.0, 1000.0, 1500.0, 2000.0, 2400.0]

>  <T_units>  (2) 
K

>  <yaml_path>  (2) 
/home/calvin/Dropbox/PersonalFolders/Calvin/ZEUS_Converged/rmg_rxn_15667/output/Species/rmg_rxn_15667_p1_CON=C/rmg_rxn_15667_p1_CON=C.yml

>  <frequencies_cm1>  (2) 
[119.61601728907998, 180.59484693068, 346.29520270228, 574.9726808436, 796.6046320465999, 891.08061607916, 982.9746136314, 1126.32979917172, 1169.7222794088, 1171.7686410341598, 1237.71230106212, 1418.12173938916, 1456.2266409298397, 1467.4060930307999, 1493.1160860688801, 1708.0183916582798, 3005.45973103376, 3077.28153049564, 3083.54422110748, 3121.53925088304, 3213.405780494]

>  <ZPE_kJmol>  (2) 
189.2599943319938

>  <E_elec_kJmol>  (2) 
-549072.1800337551

>  <E0_minus_Eelec_plus_ZPE_kJmol>  (2) 
0.0

>  <rxn>  (2) 
rmg_rxn_15667

>  <species_type>  (2) 
p0

>  <species_folder>  (2) 
rmg_rxn_15667_p1_CON=C

>  <frequencies_cm1_list>  (2) 
[119.61601728907998, 180.59484693068, 346.29520270228, 574.9726808436, 796.6046320465999, 891.08061607916, 982.9746136314, 1126.32979917172, 1169.7222794088, 1171.7686410341598, 1237.71230106212, 1418.12173938916, 1456.2266409298397, 1467.4060930307999, 1493.1160860688801, 1708.0183916582798, 3005.45973103376, 3077.28153049564, 3083.54422110748, 3121.53925088304, 3213.405780494]

>  <E0_kJmol>  (2) 
-548883

>  <H298_kJmol>  (2) 
-548867

$$$$

     RDKit          3D

 22 20  0  0  0  0  0  0  0  0999 V2000
    1.8659   -1.2976    0.0474 C   0  0  0  0  0  3  0  0  0  1  0  0
    1.9614   -0.1031   -0.6372 O   0  0  0  0  0  0  0  0  0  2  0  0
    1.8087    0.9714    0.2180 N   0  0  0  0  0  0  0  0  0  3  0  0
    1.7855    2.0666   -0.4104 C   0  0  0  0  0  0  0  0  0  4  0  0
    2.1411   -2.1085   -0.6196 H   0  0  0  0  0  0  0  0  0  5  0  0
    2.3580   -1.2876    1.0195 H   0  0  0  0  0  0  0  0  0  6  0  0
    1.6784    2.9625    0.1862 H   0  0  0  0  0  0  0  0  0  7  0  0
    1.8632    2.1232   -1.4932 H   0  0  0  0  0  0  0  0  0  8  0  0
   -1.2317   -1.3168   -1.5806 C   0  0  0  0  0  0  0  0  0  9  0  0
   -1.2624   -0.5682   -0.2788 C   0  0  0  0  0  0  0  0  0 10  0  0
   -1.8275    0.6123   -0.1651 C   0  0  0  0  0  0  0  0  0 11  0  0
   -2.4529    1.7473   -0.0724 C   0  0  0  0  0  0  0  0  0 12  0  0
   -0.6476   -1.2470    0.7799 N   0  0  0  0  0  0  0  0  0 13  0  0
   -0.6200   -0.5206    1.9677 N   0  0  0  0  0  0  0  0  0 14  0  0
   -0.2023   -1.4400   -1.9267 H   0  0  0  0  0  0  0  0  0 15  0  0
   -1.6651   -2.3099   -1.4497 H   0  0  0  0  0  0  0  0  0 16  0  0
   -1.7887   -0.7810   -2.3460 H   0  0  0  0  0  0  0  0  0 17  0  0
   -1.9525    2.6897   -0.2765 H   0  0  0  0  0  0  0  0  0 18  0  0
   -3.4971    1.8002    0.2213 H   0  0  0  0  0  0  0  0  0 19  0  0
    0.4460   -1.4807    0.4269 H   0  0  0  0  0  0  0  0  0 20  0  0
   -0.0444    0.3148    1.8921 H   0  0  0  0  0  0  0  0  0 21  0  0
   -0.2678   -1.1175    2.7005 H   0  0  0  0  0  0  0  0  0 22  0  0
  1  2  1  0
  1  5  1  0
  1  6  1  0
  2  3  1  0
  3  4  1  0
  4  7  1  0
  4  8  1  0
  9 17  1  0
  9 16  1  0
  9 15  1  0
  9 10  1  0
 10 13  1  0
 10 11  1  0
 11 12  1  0
 12 19  1  0
 12 18  1  0
 13 14  1  0
 13 20  1  0
 14 22  1  0
 14 21  1  0
M  RAD  1   1   2
M  END
>  <rmg_smiles>  (3) 
C[C](NN)[C][CH2].[CH2]O[N][CH2]

>  <rmg_adjacency_list>  (3) 
multiplicity 2
1  O u0 p2 c0 {4,S} {8,S}
2  N u0 p1 c0 {3,S} {6,S} {14,S}
3  N u0 p1 c0 {2,S} {15,S} {16,S}
4  N u0 p1 c0 {1,S} {9,S}
5  C u0 p0 c0 {6,S} {11,S} {12,S} {13,S}
6  C u0 p0 c0 {2,S} {5,S} {10,S}
7  C u0 p0 c0 {10,S} {21,S} {22,S}
8  C u1 p0 c0 {1,S} {17,S} {18,S}
9  C u0 p0 c0 {4,S} {19,S} {20,S}
10 C u0 p1 c0 {6,S} {7,S}
11 H u0 p0 c0 {5,S}
12 H u0 p0 c0 {5,S}
13 H u0 p0 c0 {5,S}
14 H u0 p0 c0 {2,S}
15 H u0 p0 c0 {3,S}
16 H u0 p0 c0 {3,S}
17 H u0 p0 c0 {8,S}
18 H u0 p0 c0 {8,S}
19 H u0 p0 c0 {9,S}
20 H u0 p0 c0 {9,S}
21 H u0 p0 c0 {7,S}
22 H u0 p0 c0 {7,S}


>  <multiplicity>  (3) 
2

>  <reaction>  (3) 
rmg_rxn_15667

>  <type>  (3) 
ts

>  <role_mapnums>  (3) 
{"*2": 20, "*1": 13, "*3": 1, "*0": 10, "*4": 2}

>  <role_mapidx>  (3) 
{"*2": 19, "*1": 12, "*3": 0, "*0": 9, "*4": 1}

>  <ordered_mapped_smiles>  (3) 
[C:1]([O:2][NH:3][CH:4]([H:7])[H:8])([H:5])[H:6].[C:9]([CH:10]([CH2:11][CH:12]([H:18])[H:19])[N:13]([N:14]([H:21])[H:22])[H:20])([H:15])([H:16])[H:17]

>  <mol_properties>  (3) 
{"0": {"label": "*3", "atom_type": "Cs"}, "1": {"label": "*4", "atom_type": "O2s"}, "9": {"label": "*0", "atom_type": "Cs"}, "12": {"label": "*1", "atom_type": "N3s"}, "19": {"label": "*2", "atom_type": "H0"}}

>  <level_of_theory>  (3) 
wb97xd/def2tzvp

>  <lot_method>  (3) 
wb97xd

>  <lot_basis>  (3) 
def2tzvp

>  <spin_multiplicity>  (3) 
2.0

>  <optical_isomers>  (3) 
2.0

>  <modes>  (3) 
IdealGasTranslation(mass=(142.098, 'amu')),         NonlinearRotor(             inertia = ([346.644, 516.832, 606.326

>  <frequency_value>  (3) 
-1777.98

>  <frequency_units>  (3) 
cm^-1

>  <frequency_list>  (3) 
unknown

>  <arkane_path>  (3) 
/home/calvin/Dropbox/PersonalFolders/Calvin/ZEUS_Converged/rmg_rxn_15667/output/rxns/TS0/arkane/output.py

>  <path_exists>  (3) 
True

>  <E0_value>  (3) 
-1246960.0

>  <E0_units>  (3) 
kJ/mol

>  <thermo_class>  (3) 
unknown

>  <Cp0_value>  (3) 
unknown

>  <Cp0_units>  (3) 
unknown

>  <CpInf_value>  (3) 
unknown

>  <CpInf_units>  (3) 
unknown

>  <Tmin_value>  (3) 
unknown

>  <Tmin_units>  (3) 
unknown

>  <Tmax_value>  (3) 
unknown

>  <Tmax_units>  (3) 
unknown

>  <polynomials>  (3) 
unknown

>  <H298_value>  (3) 
unknown

>  <H298_units>  (3) 
unknown

>  <S298_value>  (3) 
unknown

>  <S298_units>  (3) 
unknown

>  <Cp_T_value_list>  (3) 
unknown

>  <Cp_T_units>  (3) 
unknown

>  <T_list>  (3) 
unknown

>  <T_units>  (3) 
unknown

>  <yaml_path>  (3) 
unknown

>  <frequencies_cm1>  (3) 
unknown

>  <ZPE_kJmol>  (3) 
unknown

>  <E_elec_kJmol>  (3) 
unknown

>  <E0_minus_Eelec_plus_ZPE_kJmol>  (3) 
unknown

>  <rxn>  (3) 
unknown

>  <species_type>  (3) 
unknown

>  <species_folder>  (3) 
unknown

>  <frequencies_cm1_list>  (3) 
[]

>  <ts_imag_freq_cm1>  (3) 
-1799.5716

>  <ts_freq_out_path>  (3) 
/home/calvin/Dropbox/PersonalFolders/Calvin/ZEUS_Converged/rmg_rxn_15667/output/rxns/TS0/geometry/freq.out

>  <E0_kJmol>  (3) 
-1.24696e+06

>  <H298_kJmol>  (3) 
unknown

$$$$

     RDKit          3D

 13 12  0  0  0  0  0  0  0  0999 V2000
   -0.3396   -1.6227    0.6882 C   0  0  0  0  0  0  0  0  0  1  0  0
   -0.3214   -0.3017   -0.0335 C   0  0  0  0  0  0  0  0  0  2  0  0
    0.5574   -0.2305   -1.0728 N   0  0  0  0  0  2  0  0  0  3  0  0
    0.5559    0.9103   -1.7633 N   0  0  0  0  0  0  0  0  0  4  0  0
   -1.1109    0.7064    0.3400 C   0  0  0  0  0  0  0  0  0  5  0  0
   -1.8747    1.7023    0.6745 C   0  0  0  0  0  0  0  0  0  6  0  0
   -1.0386   -1.6018    1.5225 H   0  0  0  0  0  0  0  0  0  7  0  0
   -0.6327   -2.4189    0.0025 H   0  0  0  0  0  0  0  0  0  8  0  0
    0.6563   -1.8565    1.0671 H   0  0  0  0  0  0  0  0  0  9  0  0
    0.1778    1.7476   -1.3342 H   0  0  0  0  0  0  0  0  0 10  0  0
    1.3694    1.0287   -2.3403 H   0  0  0  0  0  0  0  0  0 11  0  0
   -1.5599    2.4447    1.4041 H   0  0  0  0  0  0  0  0  0 12  0  0
   -2.8690    1.8257    0.2515 H   0  0  0  0  0  0  0  0  0 13  0  0
  1  8  1  0
  1  7  1  0
  1  9  1  0
  1  2  1  0
  2  3  1  0
  2  5  1  0
  3  4  1  0
  4 10  1  0
  4 11  1  0
  5  6  1  0
  6 13  1  0
  6 12  1  0
M  RAD  1   3   2
M  END
>  <rmg_smiles>  (4) 
C[C]([N]N)[C][CH2]

>  <rmg_adjacency_list>  (4) 
multiplicity 2
1  N u0 p1 c0 {2,S} {10,S} {11,S}
2  N u1 p1 c0 {1,S} {4,S}
3  C u0 p0 c0 {4,S} {7,S} {8,S} {9,S}
4  C u0 p0 c0 {2,S} {3,S} {6,S}
5  C u0 p0 c0 {6,S} {12,S} {13,S}
6  C u0 p1 c0 {4,S} {5,S}
7  H u0 p0 c0 {3,S}
8  H u0 p0 c0 {3,S}
9  H u0 p0 c0 {3,S}
10 H u0 p0 c0 {1,S}
11 H u0 p0 c0 {1,S}
12 H u0 p0 c0 {5,S}
13 H u0 p0 c0 {5,S}


>  <multiplicity>  (4) 
2

>  <reaction>  (4) 
rmg_rxn_15667

>  <type>  (4) 
r1

>  <role_mapnums>  (4) 
{}

>  <role_mapidx>  (4) 
{}

>  <ordered_mapped_smiles>  (4) 
[C:1]([CH:2]([N:3][N:4]([H:10])[H:11])[CH2:5][CH:6]([H:12])[H:13])([H:7])([H:8])[H:9]

>  <level_of_theory>  (4) 
wb97xd/def2tzvp

>  <lot_method>  (4) 
wb97xd

>  <lot_basis>  (4) 
def2tzvp

>  <spin_multiplicity>  (4) 
2.0

>  <optical_isomers>  (4) 
2.0

>  <modes>  (4) 
IdealGasTranslation(mass=(83.0609, 'amu')),         NonlinearRotor(             inertia = ([119.324, 143.227, 255.706

>  <frequency_value>  (4) 
unknown

>  <frequency_units>  (4) 
unknown

>  <frequency_list>  (4) 
unknown

>  <arkane_path>  (4) 
/home/calvin/Dropbox/PersonalFolders/Calvin/ZEUS_Converged/rmg_rxn_15667/output/Species/rmg_rxn_15667_p2_CCrbr-=NN-rbrsbr-C-sbr=C/arkane/output.py

>  <path_exists>  (4) 
True

>  <E0_value>  (4) 
-698197.134832883

>  <E0_units>  (4) 
kJ/mol

>  <thermo_class>  (4) 
NASA

>  <Cp0_value>  (4) 
33.257888

>  <Cp0_units>  (4) 
J/(mol*K)

>  <CpInf_value>  (4) 
307.635464

>  <CpInf_units>  (4) 
J/(mol*K)

>  <Tmin_value>  (4) 
10.0

>  <Tmin_units>  (4) 
K

>  <Tmax_value>  (4) 
3000.0

>  <Tmax_units>  (4) 
K

>  <polynomials>  (4) 
[{"name": "polynomial1", "class": "NASAPolynomial", "Tmin_value": 10.0, "Tmin_units": "K", "Tmax_value": 137.42595843527994, "Tmax_units": "K", "coeffs": [3.910026516996201, 0.010440454776853866, 0.00035556931645231403, -1.8528536340118322e-06, 3.3851781414809987e-09, -83973793.34316346, 11.427269116274784]}, {"name": "polynomial2", "class": "NASAPolynomial", "Tmin_value": 137.42595843527994, "Tmin_units": "K", "Tmax_value": 3000.0, "Tmax_units": "K", "coeffs": [2.702482268866329, 0.04558955306387547, -2.809957695643396e-05, 8.446770819099732e-09, -9.829950380159997e-13, -83973760.15510052, 14.856339873278161]}]

>  <H298_value>  (4) 
-166868.03947402

>  <H298_units>  (4) 
kcal/mol

>  <S298_value>  (4) 
84.78062023098893

>  <S298_units>  (4) 
cal/(mol*K)

>  <Cp_T_value_list>  (4) 
[27.960962868908855, 33.69865008562082, 38.68449929738413, 42.998126498898074, 49.90373788041573, 54.95864830953056, 62.38676399030525, 66.2326517652353, 68.39684576808247]

>  <Cp_T_units>  (4) 
cal/(mol*K)

>  <T_list>  (4) 
[300.0, 400.0, 500.0, 600.0, 800.0, 1000.0, 1500.0, 2000.0, 2400.0]

>  <T_units>  (4) 
K

>  <yaml_path>  (4) 
/home/calvin/Dropbox/PersonalFolders/Calvin/ZEUS_Converged/rmg_rxn_15667/output/Species/rmg_rxn_15667_p2_CCrbr-=NN-rbrsbr-C-sbr=C/rmg_rxn_15667_p2_CCrbr-=NN-rbrsbr-C-sbr=C.yml

>  <frequencies_cm1>  (4) 
[93.59700991160001, 152.70801954616, 170.41110770112, 203.26276547199998, 310.32593359612, 412.17705986236, 485.1044439607599, 516.8642510657598, 520.05053225424, 598.1144213719999, 656.0855114434399, 770.6817624635999, 914.0438149892399, 948.13153011772, 1000.2176137699199, 1052.13202278912, 1188.77129668648, 1232.44532332168, 1307.0757197794399, 1350.30339236884, 1399.67701681964, 1450.2248957601598, 1466.0052280255202, 1479.95207521044, 1633.05151291984, 1926.93101667456, 3025.9851501552394, 3068.9656112731195, 3095.0876234303996, 3119.7401007292, 3139.05006344904, 3453.2489767656402, 3649.23960478376]

>  <ZPE_kJmol>  (4) 
273.88308145364283

>  <E_elec_kJmol>  (4) 
-698471.0179143366

>  <E0_minus_Eelec_plus_ZPE_kJmol>  (4) 
0.0

>  <rxn>  (4) 
rmg_rxn_15667

>  <species_type>  (4) 
p1

>  <species_folder>  (4) 
rmg_rxn_15667_p2_CCrbr-=NN-rbrsbr-C-sbr=C

>  <frequencies_cm1_list>  (4) 
[93.59700991160001, 152.70801954616, 170.41110770112, 203.26276547199998, 310.32593359612, 412.17705986236, 485.1044439607599, 516.8642510657598, 520.05053225424, 598.1144213719999, 656.0855114434399, 770.6817624635999, 914.0438149892399, 948.13153011772, 1000.2176137699199, 1052.13202278912, 1188.77129668648, 1232.44532332168, 1307.0757197794399, 1350.30339236884, 1399.67701681964, 1450.2248957601598, 1466.0052280255202, 1479.95207521044, 1633.05151291984, 1926.93101667456, 3025.9851501552394, 3068.9656112731195, 3095.0876234303996, 3119.7401007292, 3139.05006344904, 3453.2489767656402, 3649.23960478376]

>  <E0_kJmol>  (4) 
-698197

>  <H298_kJmol>  (4) 
-698176

$$$$

     RDKit          3D

  8  7  0  0  0  0  0  0  0  0999 V2000
    1.7077   -0.1964   -0.0607 C   0  0  0  0  0  3  0  0  0  1  0  0
    0.4209   -0.4565    0.2808 O   0  0  0  0  0  0  0  0  0  2  0  0
   -0.4607    0.4385   -0.2968 N   0  0  0  0  0  0  0  0  0  3  0  0
   -1.6584    0.1416   -0.0244 C   0  0  0  0  0  0  0  0  0  4  0  0
    2.4163   -0.7685    0.5170 H   0  0  0  0  0  0  0  0  0  5  0  0
    1.9214    0.7645   -0.5045 H   0  0  0  0  0  0  0  0  0  6  0  0
   -2.4185    0.7953   -0.4307 H   0  0  0  0  0  0  0  0  0  7  0  0
   -1.9286   -0.7185    0.5831 H   0  0  0  0  0  0  0  0  0  8  0  0
  1  6  1  0
  1  5  1  0
  1  2  1  0
  2  3  1  0
  3  4  1  0
  4  8  1  0
  4  7  1  0
M  RAD  1   1   2
M  END
>  <rmg_smiles>  (5) 
[CH2]O[N][CH2]

>  <rmg_adjacency_list>  (5) 
multiplicity 2
1 O u0 p2 c0 {2,S} {3,S}
2 N u0 p1 c0 {1,S} {4,S}
3 C u1 p0 c0 {1,S} {5,S} {6,S}
4 C u0 p0 c0 {2,S} {7,S} {8,S}
5 H u0 p0 c0 {3,S}
6 H u0 p0 c0 {3,S}
7 H u0 p0 c0 {4,S}
8 H u0 p0 c0 {4,S}


>  <multiplicity>  (5) 
2

>  <reaction>  (5) 
rmg_rxn_15667

>  <type>  (5) 
r2

>  <role_mapnums>  (5) 
{}

>  <role_mapidx>  (5) 
{}

>  <ordered_mapped_smiles>  (5) 
[C:1]([O:2][NH:3][CH:4]([H:7])[H:8])([H:5])[H:6]

>  <level_of_theory>  (5) 
wb97xd/def2tzvp

>  <lot_method>  (5) 
wb97xd

>  <lot_basis>  (5) 
def2tzvp

>  <spin_multiplicity>  (5) 
2.0

>  <optical_isomers>  (5) 
2.0

>  <modes>  (5) 
IdealGasTranslation(mass=(58.0293, 'amu')),         NonlinearRotor(             inertia = ([10.2741, 95.4529, 105.582

>  <frequency_value>  (5) 
unknown

>  <frequency_units>  (5) 
unknown

>  <frequency_list>  (5) 
unknown

>  <arkane_path>  (5) 
/home/calvin/Dropbox/PersonalFolders/Calvin/ZEUS_Converged/rmg_rxn_15667/output/Species/rmg_rxn_15667_r1_sbr-CH2-sbrON=C/arkane/output.py

>  <path_exists>  (5) 
True

>  <E0_value>  (5) 
-547168.2732446302

>  <E0_units>  (5) 
kJ/mol

>  <thermo_class>  (5) 
NASA

>  <Cp0_value>  (5) 
33.257888

>  <Cp0_units>  (5) 
J/(mol*K)

>  <CpInf_value>  (5) 
182.918384

>  <CpInf_units>  (5) 
J/(mol*K)

>  <Tmin_value>  (5) 
10.0

>  <Tmin_units>  (5) 
K

>  <Tmax_value>  (5) 
3000.0

>  <Tmax_units>  (5) 
K

>  <polynomials>  (5) 
[{"name": "polynomial1", "class": "NASAPolynomial", "Tmin_value": 10.0, "Tmin_units": "K", "Tmax_value": 253.2842427910515, "Tmax_units": "K", "coeffs": [3.956862909385456, 0.0038362890131335746, 0.00011727738047703725, -3.4736244039427427e-07, 3.472729073035136e-10, -65809144.38694886, 9.350338763280796]}, {"name": "polynomial2", "class": "NASAPolynomial", "Tmin_value": 253.2842427910515, "Tmin_units": "K", "Tmax_value": 3000.0, "Tmax_units": "K", "coeffs": [2.5252197328965313, 0.026445761179553072, -1.662161754135038e-05, 5.074735532607581e-09, -5.97403912324656e-13, -65809071.86505469, 14.291183066674913]}]

>  <H298_value>  (5) 
-130772.65860702786

>  <H298_units>  (5) 
kcal/mol

>  <S298_value>  (5) 
71.26914844977757

>  <S298_units>  (5) 
cal/(mol*K)

>  <Cp_T_value_list>  (5) 
[18.0740035969719, 21.369534269323825, 24.223451351766553, 26.683440747612977, 30.598134113509214, 33.438117676478754, 37.554421513360474, 39.68390492467901, 40.91110806828642]

>  <Cp_T_units>  (5) 
cal/(mol*K)

>  <T_list>  (5) 
[300.0, 400.0, 500.0, 600.0, 800.0, 1000.0, 1500.0, 2000.0, 2400.0]

>  <T_units>  (5) 
K

>  <yaml_path>  (5) 
/home/calvin/Dropbox/PersonalFolders/Calvin/ZEUS_Converged/rmg_rxn_15667/output/Species/rmg_rxn_15667_r1_sbr-CH2-sbrON=C/rmg_rxn_15667_r1_sbr-CH2-sbrON=C.yml

>  <frequencies_cm1>  (5) 
[132.13453152744, 273.14807507364, 360.4549264321199, 498.69420790903996, 595.9169860696, 789.3942974605999, 873.74834513148, 993.5360370535599, 1152.01232426852, 1206.54305469464, 1257.0497317232398, 1417.2771001948001, 1437.260027476, 1705.2166616477198, 3090.5210781926, 3134.7719315946797, 3218.94057066192, 3282.16490450316]

>  <ZPE_kJmol>  (5) 
152.0381400376291

>  <E_elec_kJmol>  (5) 
-547320.3113846679

>  <E0_minus_Eelec_plus_ZPE_kJmol>  (5) 
0.0

>  <rxn>  (5) 
rmg_rxn_15667

>  <species_type>  (5) 
r0

>  <species_folder>  (5) 
rmg_rxn_15667_r1_sbr-CH2-sbrON=C

>  <frequencies_cm1_list>  (5) 
[132.13453152744, 273.14807507364, 360.4549264321199, 498.69420790903996, 595.9169860696, 789.3942974605999, 873.74834513148, 993.5360370535599, 1152.01232426852, 1206.54305469464, 1257.0497317232398, 1417.2771001948001, 1437.260027476, 1705.2166616477198, 3090.5210781926, 3134.7719315946797, 3218.94057066192, 3282.16490450316]

>  <E0_kJmol>  (5) 
-547168

>  <H298_kJmol>  (5) 
-547153

$$$$
