
     RDKit          3D

 13 12  0  0  0  0  0  0  0  0999 V2000
   -0.1236   -0.7847   -1.9716 C   0  0  0  0  0  0  0  0  0  1  0  0
    0.4298   -1.2545   -0.6488 C   0  0  0  0  0  0  0  0  0  2  0  0
    0.4115   -0.3119    0.4635 C   0  0  0  0  0  0  0  0  0  3  0  0
   -0.3023    0.7458    0.4467 N   0  0  0  0  0  0  0  0  0  4  0  0
   -0.3853    1.4671    1.6133 N   0  0  0  0  0  0  0  0  0  5  0  0
    0.4723    0.0331   -2.3841 H   0  0  0  0  0  0  0  0  0  6  0  0
   -1.1417   -0.4139   -1.8499 H   0  0  0  0  0  0  0  0  0  7  0  0
   -0.1329   -1.6004   -2.6963 H   0  0  0  0  0  0  0  0  0  8  0  0
   -0.2533   -2.0446   -0.3365 H   0  0  0  0  0  0  0  0  0  9  0  0
    1.3751   -1.7924   -0.7220 H   0  0  0  0  0  0  0  0  0 10  0  0
    0.9727   -0.5900    1.3634 H   0  0  0  0  0  0  0  0  0 11  0  0
   -0.5752    2.4342    1.4038 H   0  0  0  0  0  0  0  0  0 12  0  0
    0.4238    1.3748    2.2212 H   0  0  0  0  0  0  0  0  0 13  0  0
  1  8  1  0
  1  7  1  0
  1  6  1  0
  1  2  1  0
  2 10  1  0
  2  9  1  0
  2  3  1  0
  3 11  1  0
  3  4  1  0
  4  5  1  0
  5 12  1  0
  5 13  1  0
M  END
>  <rmg_smiles>  (1) 
CC[CH][N]N

>  <rmg_adjacency_list>  (1) 
1  N u0 p1 c0 {2,S} {12,S} {13,S}
2  N u0 p1 c0 {1,S} {5,S}
3  C u0 p0 c0 {4,S} {5,S} {6,S} {7,S}
4  C u0 p0 c0 {3,S} {8,S} {9,S} {10,S}
5  C u0 p0 c0 {2,S} {3,S} {11,S}
6  H u0 p0 c0 {3,S}
7  H u0 p0 c0 {3,S}
8  H u0 p0 c0 {4,S}
9  H u0 p0 c0 {4,S}
10 H u0 p0 c0 {4,S}
11 H u0 p0 c0 {5,S}
12 H u0 p0 c0 {1,S}
13 H u0 p0 c0 {1,S}


>  <multiplicity>  (1) 
1

>  <reaction>  (1) 
rmg_rxn_15703

>  <type>  (1) 
r1h

>  <role_mapnums>  (1) 
{"r1h_a": 2, "r1h_h": 9}

>  <role_mapidx>  (1) 
{"r1h_a": 1, "r1h_h": 8}

>  <ordered_mapped_smiles>  (1) 
[C:1]([C:2]([CH:3]([NH:4][N:5]([H:12])[H:13])[H:11])([H:9])[H:10])([H:6])([H:7])[H:8]

>  <mol_properties>  (1) 
{"1": {"label": "donator", "atom_type": "Cs"}, "8": {"label": "d_hydrogen", "atom_type": "H0"}}

>  <level_of_theory>  (1) 
wb97xd/def2tzvp

>  <lot_method>  (1) 
wb97xd

>  <lot_basis>  (1) 
def2tzvp

>  <spin_multiplicity>  (1) 
1.0

>  <optical_isomers>  (1) 
2.0

>  <modes>  (1) 
IdealGasTranslation(mass=(72.0687, 'amu')),         NonlinearRotor(             inertia = ([34.684, 184.298, 212.234

>  <frequency_value>  (1) 
unknown

>  <frequency_units>  (1) 
unknown

>  <frequency_list>  (1) 
unknown

>  <arkane_path>  (1) 
/home/calvin/Dropbox/PersonalFolders/Calvin/ZEUS_Converged/rmg_rxn_15703/output/Species/rmg_rxn_15703_r2_CCC=NN/arkane/output.py

>  <path_exists>  (1) 
True

>  <E0_value>  (1) 
-599920.9873317869

>  <E0_units>  (1) 
kJ/mol

>  <thermo_class>  (1) 
NASA

>  <Cp0_value>  (1) 
33.257888

>  <Cp0_units>  (1) 
J/(mol*K)

>  <CpInf_value>  (1) 
307.635464

>  <CpInf_units>  (1) 
J/(mol*K)

>  <Tmin_value>  (1) 
10.0

>  <Tmin_units>  (1) 
K

>  <Tmax_value>  (1) 
3000.0

>  <Tmax_units>  (1) 
K

>  <polynomials>  (1) 
[{"name": "polynomial1", "class": "NASAPolynomial", "Tmin_value": 10.0, "Tmin_units": "K", "Tmax_value": 499.3147300725661, "Tmax_units": "K", "coeffs": [3.772737889467939, 0.01901670993956432, 5.4211482346469644e-05, -1.0002807179596149e-07, 5.2945469938438315e-11, -72153825.17368056, 10.319749085738847]}, {"name": "polynomial2", "class": "NASAPolynomial", "Tmin_value": 499.3147300725661, "Tmin_units": "K", "Tmax_value": 3000.0, "Tmax_units": "K", "coeffs": [0.4321564708677366, 0.045777830025256636, -2.6181433413240182e-05, 7.308755881392629e-09, -7.961803655511034e-13, -72153491.5707767, 24.116053316438002]}]

>  <H298_value>  (1) 
-143380.03046920145

>  <H298_units>  (1) 
kcal/mol

>  <S298_value>  (1) 
77.71862079027869

>  <S298_units>  (1) 
cal/(mol*K)

>  <Cp_T_value_list>  (1) 
[24.015161340836656, 29.82174262050609, 35.05342116575715, 39.64287141955497, 47.12515278152197, 52.74270329409755, 61.259742638110225, 65.56438910501056, 67.79311195775227]

>  <Cp_T_units>  (1) 
cal/(mol*K)

>  <T_list>  (1) 
[300.0, 400.0, 500.0, 600.0, 800.0, 1000.0, 1500.0, 2000.0, 2400.0]

>  <T_units>  (1) 
K

>  <yaml_path>  (1) 
/home/calvin/Dropbox/PersonalFolders/Calvin/ZEUS_Converged/rmg_rxn_15703/output/Species/rmg_rxn_15703_r2_CCC=NN/rmg_rxn_15703_r2_CCC=NN.yml

>  <frequencies_cm1>  (1) 
[131.53023681928, 204.72543334515998, 211.99757079904, 294.46319750692, 385.55375777672003, 420.17023077484, 638.286285494, 720.7931141138, 773.8749106374, 906.79227849132, 928.7185626180799, 1015.77820250504, 1104.88420401736, 1109.64989182944, 1147.56251778116, 1260.9570463703199, 1278.52279481888, 1369.2425378813998, 1404.13369029232, 1415.2307385694398, 1466.4378481006797, 1477.5005614511997, 1488.6731465668397, 1650.7546010748, 1744.5507535606796, 2983.5815158042396, 3001.1197963115196, 3021.061521680799, 3026.87099126152, 3100.27906433232, 3105.4911061902, 3444.6789790862795, 3612.59050413092]

>  <ZPE_kJmol>  (1) 
298.14811218872103

>  <E_elec_kJmol>  (1) 
-600219.1354439756

>  <E0_minus_Eelec_plus_ZPE_kJmol>  (1) 
0.0

>  <rxn>  (1) 
rmg_rxn_15703

>  <species_type>  (1) 
r1

>  <species_folder>  (1) 
rmg_rxn_15703_r2_CCC=NN

>  <frequencies_cm1_list>  (1) 
[131.53023681928, 204.72543334515998, 211.99757079904, 294.46319750692, 385.55375777672003, 420.17023077484, 638.286285494, 720.7931141138, 773.8749106374, 906.79227849132, 928.7185626180799, 1015.77820250504, 1104.88420401736, 1109.64989182944, 1147.56251778116, 1260.9570463703199, 1278.52279481888, 1369.2425378813998, 1404.13369029232, 1415.2307385694398, 1466.4378481006797, 1477.5005614511997, 1488.6731465668397, 1650.7546010748, 1744.5507535606796, 2983.5815158042396, 3001.1197963115196, 3021.061521680799, 3026.87099126152, 3100.27906433232, 3105.4911061902, 3444.6789790862795, 3612.59050413092]

>  <E0_kJmol>  (1) 
-599921

>  <H298_kJmol>  (1) 
-599902

$$$$

     RDKit          3D

  9  8  0  0  0  0  0  0  0  0999 V2000
    0.4524   -0.9918   -1.2680 C   0  0  0  0  0  0  0  0  0  1  0  0
   -0.3329   -0.1208   -0.5480 O   0  0  0  0  0  0  0  0  0  2  0  0
    0.1856    0.0764    0.7239 N   0  0  0  0  0  0  0  0  0  3  0  0
   -0.3340    1.0859    1.2776 C   0  0  0  0  0  0  0  0  0  4  0  0
    0.8902   -1.7898   -0.6711 H   0  0  0  0  0  0  0  0  0  5  0  0
   -0.0821   -1.2997   -2.1615 H   0  0  0  0  0  0  0  0  0  6  0  0
   -0.0070    1.3038    2.2852 H   0  0  0  0  0  0  0  0  0  7  0  0
   -1.0614    1.7214    0.7814 H   0  0  0  0  0  0  0  0  0  8  0  0
    1.2921   -0.3888   -1.6043 H   0  0  0  0  0  0  0  0  0  9  0  0
  1  6  1  0
  1  5  1  0
  1  9  1  0
  1  2  1  0
  2  3  1  0
  3  4  1  0
  4  8  1  0
  4  7  1  0
M  END
>  <rmg_smiles>  (2) 
CO[N][CH2]

>  <rmg_adjacency_list>  (2) 
1 O u0 p2 c0 {2,S} {3,S}
2 N u0 p1 c0 {1,S} {4,S}
3 C u0 p0 c0 {1,S} {5,S} {6,S} {7,S}
4 C u0 p0 c0 {2,S} {8,S} {9,S}
5 H u0 p0 c0 {3,S}
6 H u0 p0 c0 {3,S}
7 H u0 p0 c0 {3,S}
8 H u0 p0 c0 {4,S}
9 H u0 p0 c0 {4,S}


>  <multiplicity>  (2) 
1

>  <reaction>  (2) 
rmg_rxn_15703

>  <type>  (2) 
r2h

>  <role_mapnums>  (2) 
{"r2h_a": 1, "r2h_h": 9}

>  <role_mapidx>  (2) 
{"r2h_a": 0, "r2h_h": 8}

>  <ordered_mapped_smiles>  (2) 
[C:1]([O:2][NH:3][CH:4]([H:7])[H:8])([H:5])([H:6])[H:9]

>  <mol_properties>  (2) 
{"0": {"label": "acceptor", "atom_type": "Cs"}, "8": {"label": "a_hydrogen", "atom_type": "H0"}}

>  <level_of_theory>  (2) 
wb97xd/def2tzvp

>  <lot_method>  (2) 
wb97xd

>  <lot_basis>  (2) 
def2tzvp

>  <spin_multiplicity>  (2) 
1.0

>  <optical_isomers>  (2) 
1.0

>  <modes>  (2) 
IdealGasTranslation(mass=(59.0371, 'amu')),         NonlinearRotor(             inertia = ([11.9742, 101.538, 110.304

>  <frequency_value>  (2) 
unknown

>  <frequency_units>  (2) 
unknown

>  <frequency_list>  (2) 
unknown

>  <arkane_path>  (2) 
/home/calvin/Dropbox/PersonalFolders/Calvin/ZEUS_Converged/rmg_rxn_15703/output/Species/rmg_rxn_15703_p1_CON=C/arkane/output.py

>  <path_exists>  (2) 
True

>  <E0_value>  (2) 
-548882.9200394232

>  <E0_units>  (2) 
kJ/mol

>  <thermo_class>  (2) 
NASA

>  <Cp0_value>  (2) 
33.257888

>  <Cp0_units>  (2) 
J/(mol*K)

>  <CpInf_value>  (2) 
207.8618

>  <CpInf_units>  (2) 
J/(mol*K)

>  <Tmin_value>  (2) 
10.0

>  <Tmin_units>  (2) 
K

>  <Tmax_value>  (2) 
3000.0

>  <Tmax_units>  (2) 
K

>  <polynomials>  (2) 
[{"name": "polynomial1", "class": "NASAPolynomial", "Tmin_value": 10.0, "Tmin_units": "K", "Tmax_value": 1066.0445442103917, "Tmax_units": "K", "coeffs": [3.9488472240731216, 0.012909444164008412, 1.8432835387873368e-05, -2.5565901414715004e-08, 8.632634293818456e-12, -66015370.98001154, 7.906058800048573]}, {"name": "polynomial2", "class": "NASAPolynomial", "Tmin_value": 1066.0445442103917, "Tmin_units": "K", "Tmax_value": 3000.0, "Tmax_units": "K", "coeffs": [4.051174026649639, 0.02340322367340144, -1.163838712217072e-05, 2.8112466199843713e-09, -2.6680947262736413e-13, -66016010.897278614, 4.506810904924114]}]

>  <H298_value>  (2) 
-131182.46582067996

>  <H298_units>  (2) 
kcal/mol

>  <S298_value>  (2) 
69.27397375028742

>  <S298_units>  (2) 
cal/(mol*K)

>  <Cp_T_value_list>  (2) 
[17.607207323409234, 21.157104611048137, 24.5530891366924, 27.67560467885903, 32.827861850696166, 36.480858050170255, 41.94371504002133, 44.76201379304356, 46.08804102499818]

>  <Cp_T_units>  (2) 
cal/(mol*K)

>  <T_list>  (2) 
[300.0, 400.0, 500.0, 600.0, 800.0, 1000.0, 1500.0, 2000.0, 2400.0]

>  <T_units>  (2) 
K

>  <yaml_path>  (2) 
/home/calvin/Dropbox/PersonalFolders/Calvin/ZEUS_Converged/rmg_rxn_15703/output/Species/rmg_rxn_15703_p1_CON=C/rmg_rxn_15703_p1_CON=C.yml

>  <frequencies_cm1>  (2) 
[119.61601728907998, 180.59484693068, 346.29520270228, 574.9726808436, 796.6046320465999, 891.08061607916, 982.9746136314, 1126.32979917172, 1169.7222794088, 1171.7686410341598, 1237.71230106212, 1418.12173938916, 1456.2266409298397, 1467.4060930307999, 1493.1160860688801, 1708.0183916582798, 3005.45973103376, 3077.28153049564, 3083.54422110748, 3121.53925088304, 3213.405780494]

>  <ZPE_kJmol>  (2) 
189.2599943319938

>  <E_elec_kJmol>  (2) 
-549072.1800337551

>  <E0_minus_Eelec_plus_ZPE_kJmol>  (2) 
0.0

>  <rxn>  (2) 
rmg_rxn_15703

>  <species_type>  (2) 
p0

>  <species_folder>  (2) 
rmg_rxn_15703_p1_CON=C

>  <frequencies_cm1_list>  (2) 
[119.61601728907998, 180.59484693068, 346.29520270228, 574.9726808436, 796.6046320465999, 891.08061607916, 982.9746136314, 1126.32979917172, 1169.7222794088, 1171.7686410341598, 1237.71230106212, 1418.12173938916, 1456.2266409298397, 1467.4060930307999, 1493.1160860688801, 1708.0183916582798, 3005.45973103376, 3077.28153049564, 3083.54422110748, 3121.53925088304, 3213.405780494]

>  <E0_kJmol>  (2) 
-548883

>  <H298_kJmol>  (2) 
-548867

$$$$

     RDKit          3D

 21 19  0  0  0  0  0  0  0  0999 V2000
   -0.6406   -2.1126   -0.4676 C   0  0  0  0  0  3  0  0  0  1  0  0
   -1.4258   -1.2416    0.2524 O   0  0  0  0  0  0  0  0  0  2  0  0
   -0.9073   -1.0443    1.5243 N   0  0  0  0  0  0  0  0  0  3  0  0
   -1.4269   -0.0349    2.0780 C   0  0  0  0  0  0  0  0  0  4  0  0
   -0.2027   -2.9106    0.1293 H   0  0  0  0  0  0  0  0  0  5  0  0
   -1.1750   -2.4205   -1.3611 H   0  0  0  0  0  0  0  0  0  6  0  0
   -1.0999    0.1831    3.0856 H   0  0  0  0  0  0  0  0  0  7  0  0
   -2.1544    0.6006    1.5818 H   0  0  0  0  0  0  0  0  0  8  0  0
    0.7226    0.0908   -2.6042 C   0  0  0  0  0  0  0  0  0  9  0  0
    1.2759   -0.3789   -1.2813 C   0  0  0  0  0  0  0  0  0 10  0  0
    1.2576    0.5636   -0.1691 C   0  0  0  0  0  0  0  0  0 11  0  0
    0.5438    1.6213   -0.1859 N   0  0  0  0  0  0  0  0  0 12  0  0
    0.4608    2.3426    0.9807 N   0  0  0  0  0  0  0  0  0 13  0  0
    1.3185    0.9086   -3.0167 H   0  0  0  0  0  0  0  0  0 14  0  0
   -0.2956    0.4616   -2.4825 H   0  0  0  0  0  0  0  0  0 15  0  0
    0.7133   -0.7248   -3.3289 H   0  0  0  0  0  0  0  0  0 16  0  0
    0.4612   -1.3215   -0.9088 H   0  0  0  0  0  0  0  0  0 17  0  0
    2.2213   -0.9169   -1.3546 H   0  0  0  0  0  0  0  0  0 18  0  0
    1.8188    0.2855    0.7308 H   0  0  0  0  0  0  0  0  0 19  0  0
    0.2709    3.3097    0.7712 H   0  0  0  0  0  0  0  0  0 20  0  0
    1.2699    2.2503    1.5886 H   0  0  0  0  0  0  0  0  0 21  0  0
  1  2  1  0
  1  5  1  0
  1  6  1  0
  2  3  1  0
  3  4  1  0
  4  7  1  0
  4  8  1  0
  9 16  1  0
  9 15  1  0
  9 14  1  0
  9 10  1  0
 10 18  1  0
 10 11  1  0
 10 17  1  0
 11 19  1  0
 11 12  1  0
 12 13  1  0
 13 21  1  0
 13 20  1  0
M  RAD  1   1   2
M  END
>  <rmg_smiles>  (3) 
CC[CH][N]N.[CH2]O[N][CH2]

>  <rmg_adjacency_list>  (3) 
multiplicity 2
1  O u0 p2 c0 {4,S} {8,S}
2  N u0 p1 c0 {3,S} {20,S} {21,S}
3  N u0 p1 c0 {2,S} {7,S}
4  N u0 p1 c0 {1,S} {9,S}
5  C u0 p0 c0 {6,S} {7,S} {10,S} {11,S}
6  C u0 p0 c0 {5,S} {12,S} {13,S} {14,S}
7  C u0 p0 c0 {3,S} {5,S} {15,S}
8  C u1 p0 c0 {1,S} {16,S} {17,S}
9  C u0 p0 c0 {4,S} {18,S} {19,S}
10 H u0 p0 c0 {5,S}
11 H u0 p0 c0 {5,S}
12 H u0 p0 c0 {6,S}
13 H u0 p0 c0 {6,S}
14 H u0 p0 c0 {6,S}
15 H u0 p0 c0 {7,S}
16 H u0 p0 c0 {8,S}
17 H u0 p0 c0 {8,S}
18 H u0 p0 c0 {9,S}
19 H u0 p0 c0 {9,S}
20 H u0 p0 c0 {2,S}
21 H u0 p0 c0 {2,S}


>  <multiplicity>  (3) 
2

>  <reaction>  (3) 
rmg_rxn_15703

>  <type>  (3) 
ts

>  <role_mapnums>  (3) 
{"*2": 17, "*1": 10, "*3": 1, "*0": 11, "*4": 2}

>  <role_mapidx>  (3) 
{"*2": 16, "*1": 9, "*3": 0, "*0": 10, "*4": 1}

>  <ordered_mapped_smiles>  (3) 
[C:1]([O:2][NH:3][CH:4]([H:7])[H:8])([H:5])[H:6].[C:9]([C:10]([CH:11]([NH:12][N:13]([H:20])[H:21])[H:19])([H:17])[H:18])([H:14])([H:15])[H:16]

>  <mol_properties>  (3) 
{"0": {"label": "*3", "atom_type": "Cs"}, "1": {"label": "*4", "atom_type": "O2s"}, "9": {"label": "*1", "atom_type": "Cs"}, "10": {"label": "*0", "atom_type": "Cs"}, "16": {"label": "*2", "atom_type": "H0"}}

>  <level_of_theory>  (3) 
wb97xd/def2tzvp

>  <lot_method>  (3) 
wb97xd

>  <lot_basis>  (3) 
def2tzvp

>  <spin_multiplicity>  (3) 
2.0

>  <optical_isomers>  (3) 
2.0

>  <modes>  (3) 
IdealGasTranslation(mass=(130.098, 'amu')),         NonlinearRotor(             inertia = ([310.492, 369.47, 606.69

>  <frequency_value>  (3) 
-1728.94

>  <frequency_units>  (3) 
cm^-1

>  <frequency_list>  (3) 
unknown

>  <arkane_path>  (3) 
/home/calvin/Dropbox/PersonalFolders/Calvin/ZEUS_Converged/rmg_rxn_15703/output/rxns/TS0/arkane/output.py

>  <path_exists>  (3) 
True

>  <E0_value>  (3) 
-1147050.0

>  <E0_units>  (3) 
kJ/mol

>  <thermo_class>  (3) 
unknown

>  <Cp0_value>  (3) 
unknown

>  <Cp0_units>  (3) 
unknown

>  <CpInf_value>  (3) 
unknown

>  <CpInf_units>  (3) 
unknown

>  <Tmin_value>  (3) 
unknown

>  <Tmin_units>  (3) 
unknown

>  <Tmax_value>  (3) 
unknown

>  <Tmax_units>  (3) 
unknown

>  <polynomials>  (3) 
unknown

>  <H298_value>  (3) 
unknown

>  <H298_units>  (3) 
unknown

>  <S298_value>  (3) 
unknown

>  <S298_units>  (3) 
unknown

>  <Cp_T_value_list>  (3) 
unknown

>  <Cp_T_units>  (3) 
unknown

>  <T_list>  (3) 
unknown

>  <T_units>  (3) 
unknown

>  <yaml_path>  (3) 
unknown

>  <frequencies_cm1>  (3) 
unknown

>  <ZPE_kJmol>  (3) 
unknown

>  <E_elec_kJmol>  (3) 
unknown

>  <E0_minus_Eelec_plus_ZPE_kJmol>  (3) 
unknown

>  <rxn>  (3) 
unknown

>  <species_type>  (3) 
unknown

>  <species_folder>  (3) 
unknown

>  <frequencies_cm1_list>  (3) 
[]

>  <ts_imag_freq_cm1>  (3) 
-1749.9352

>  <ts_freq_out_path>  (3) 
/home/calvin/Dropbox/PersonalFolders/Calvin/ZEUS_Converged/rmg_rxn_15703/output/rxns/TS0/geometry/freq.out

>  <E0_kJmol>  (3) 
-1.14705e+06

>  <H298_kJmol>  (3) 
unknown

$$$$

     RDKit          3D

 12 11  0  0  0  0  0  0  0  0999 V2000
   -1.6799    0.1163   -0.1840 C   0  0  0  0  0  0  0  0  0  1  0  0
   -0.3995    0.5010    0.4722 C   0  0  0  0  0  3  0  0  0  2  0  0
    0.5137    1.3724   -0.0474 C   0  0  0  0  0  0  0  0  0  3  0  0
    0.3502    1.9710   -1.2320 N   0  0  0  0  0  0  0  0  0  4  0  0
    1.3174    2.8431   -1.5696 N   0  0  0  0  0  0  0  0  0  5  0  0
   -1.7177   -0.9628   -0.3601 H   0  0  0  0  0  0  0  0  0  6  0  0
   -2.5324    0.3598    0.4569 H   0  0  0  0  0  0  0  0  0  7  0  0
   -1.8040    0.6283   -1.1363 H   0  0  0  0  0  0  0  0  0  8  0  0
   -0.1711    0.0588    1.4348 H   0  0  0  0  0  0  0  0  0  9  0  0
    1.4168    1.5865    0.5319 H   0  0  0  0  0  0  0  0  0 10  0  0
    2.2323    2.7152   -1.1508 H   0  0  0  0  0  0  0  0  0 11  0  0
    1.3361    3.0383   -2.5559 H   0  0  0  0  0  0  0  0  0 12  0  0
  1  8  1  0
  1  7  1  0
  1  6  1  0
  1  2  1  0
  2  9  1  0
  2  3  1  0
  3 10  1  0
  3  4  1  0
  4  5  1  0
  5 12  1  0
  5 11  1  0
M  RAD  1   2   2
M  END
>  <rmg_smiles>  (4) 
C[CH][CH][N]N

>  <rmg_adjacency_list>  (4) 
multiplicity 2
1  N u0 p1 c0 {2,S} {11,S} {12,S}
2  N u0 p1 c0 {1,S} {5,S}
3  C u0 p0 c0 {4,S} {6,S} {7,S} {8,S}
4  C u1 p0 c0 {3,S} {5,S} {9,S}
5  C u0 p0 c0 {2,S} {4,S} {10,S}
6  H u0 p0 c0 {3,S}
7  H u0 p0 c0 {3,S}
8  H u0 p0 c0 {3,S}
9  H u0 p0 c0 {4,S}
10 H u0 p0 c0 {5,S}
11 H u0 p0 c0 {1,S}
12 H u0 p0 c0 {1,S}


>  <multiplicity>  (4) 
2

>  <reaction>  (4) 
rmg_rxn_15703

>  <type>  (4) 
r1

>  <role_mapnums>  (4) 
{}

>  <role_mapidx>  (4) 
{}

>  <ordered_mapped_smiles>  (4) 
[C:1]([C:2]([CH:3]([NH:4][N:5]([H:11])[H:12])[H:10])[H:9])([H:6])([H:7])[H:8]

>  <level_of_theory>  (4) 
wb97xd/def2tzvp

>  <lot_method>  (4) 
wb97xd

>  <lot_basis>  (4) 
def2tzvp

>  <spin_multiplicity>  (4) 
2.0

>  <optical_isomers>  (4) 
2.0

>  <modes>  (4) 
IdealGasTranslation(mass=(71.0609, 'amu')),         NonlinearRotor(             inertia = ([29.5336, 184.64, 210.701

>  <frequency_value>  (4) 
unknown

>  <frequency_units>  (4) 
unknown

>  <frequency_list>  (4) 
unknown

>  <arkane_path>  (4) 
/home/calvin/Dropbox/PersonalFolders/Calvin/ZEUS_Converged/rmg_rxn_15703/output/Species/rmg_rxn_15703_p2_Csbr-CH-sbrC=NN/arkane/output.py

>  <path_exists>  (4) 
True

>  <E0_value>  (4) 
-598275.2800468821

>  <E0_units>  (4) 
kJ/mol

>  <thermo_class>  (4) 
NASA

>  <Cp0_value>  (4) 
33.257888

>  <Cp0_units>  (4) 
J/(mol*K)

>  <CpInf_value>  (4) 
282.692048

>  <CpInf_units>  (4) 
J/(mol*K)

>  <Tmin_value>  (4) 
10.0

>  <Tmin_units>  (4) 
K

>  <Tmax_value>  (4) 
3000.0

>  <Tmax_units>  (4) 
K

>  <polynomials>  (4) 
[{"name": "polynomial1", "class": "NASAPolynomial", "Tmin_value": 10.0, "Tmin_units": "K", "Tmax_value": 366.7174735517215, "Tmax_units": "K", "coeffs": [3.7971464582164076, 0.01712840359899359, 7.532734518680577e-05, -1.7422019347854378e-07, 1.2273335988277786e-10, -71955893.35815866, 11.070679841005424]}, {"name": "polynomial2", "class": "NASAPolynomial", "Tmin_value": 366.7174735517215, "Tmin_units": "K", "Tmax_value": 3000.0, "Tmax_units": "K", "coeffs": [1.5634281556089815, 0.04149259727204526, -2.4329457873497574e-05, 6.946910059379756e-09, -7.712017446099328e-13, -71955729.52766144, 19.606319064288527]}]

>  <H298_value>  (4) 
-142986.70658008612

>  <H298_units>  (4) 
kcal/mol

>  <S298_value>  (4) 
79.20502345005374

>  <S298_units>  (4) 
cal/(mol*K)

>  <Cp_T_value_list>  (4) 
[23.857057095767413, 29.197256633611634, 33.87695443606276, 37.95756482540437, 44.56824599166819, 49.485964495331025, 56.83938487509146, 60.5439099973707, 62.508466614878564]

>  <Cp_T_units>  (4) 
cal/(mol*K)

>  <T_list>  (4) 
[300.0, 400.0, 500.0, 600.0, 800.0, 1000.0, 1500.0, 2000.0, 2400.0]

>  <T_units>  (4) 
K

>  <yaml_path>  (4) 
/home/calvin/Dropbox/PersonalFolders/Calvin/ZEUS_Converged/rmg_rxn_15703/output/Species/rmg_rxn_15703_p2_Csbr-CH-sbrC=NN/rmg_rxn_15703_p2_Csbr-CH-sbrC=NN.yml

>  <frequencies_cm1>  (4) 
[102.20820950288, 176.13817345799998, 210.80958233868, 366.32619888072, 419.83374849416, 450.85878816991993, 605.60630235612, 675.42980908988, 714.09093644148, 933.4361815329199, 945.3160661365198, 1018.3876569266398, 1029.10702101116, 1134.1306944952398, 1222.9688835800798, 1246.50890925704, 1330.9728286930401, 1386.72588250612, 1446.1390394947598, 1461.01292969788, 1471.12799907424, 1556.1275433651997, 1644.9863334059999, 3000.3781618969597, 3032.3783134881596, 3048.60499979932, 3116.86970086544, 3157.53598793048, 3449.68501138456, 3630.6575425078395]

>  <ZPE_kJmol>  (4) 
263.0849686240226

>  <E_elec_kJmol>  (4) 
-598538.3650155062

>  <E0_minus_Eelec_plus_ZPE_kJmol>  (4) 
0.0

>  <rxn>  (4) 
rmg_rxn_15703

>  <species_type>  (4) 
p1

>  <species_folder>  (4) 
rmg_rxn_15703_p2_Csbr-CH-sbrC=NN

>  <frequencies_cm1_list>  (4) 
[102.20820950288, 176.13817345799998, 210.80958233868, 366.32619888072, 419.83374849416, 450.85878816991993, 605.60630235612, 675.42980908988, 714.09093644148, 933.4361815329199, 945.3160661365198, 1018.3876569266398, 1029.10702101116, 1134.1306944952398, 1222.9688835800798, 1246.50890925704, 1330.9728286930401, 1386.72588250612, 1446.1390394947598, 1461.01292969788, 1471.12799907424, 1556.1275433651997, 1644.9863334059999, 3000.3781618969597, 3032.3783134881596, 3048.60499979932, 3116.86970086544, 3157.53598793048, 3449.68501138456, 3630.6575425078395]

>  <E0_kJmol>  (4) 
-598275

>  <H298_kJmol>  (4) 
-598256

$$$$

     RDKit          3D

  8  7  0  0  0  0  0  0  0  0999 V2000
    1.7077   -0.1964   -0.0607 C   0  0  0  0  0  3  0  0  0  1  0  0
    0.4209   -0.4565    0.2808 O   0  0  0  0  0  0  0  0  0  2  0  0
   -0.4607    0.4385   -0.2968 N   0  0  0  0  0  0  0  0  0  3  0  0
   -1.6584    0.1416   -0.0244 C   0  0  0  0  0  0  0  0  0  4  0  0
    2.4163   -0.7685    0.5170 H   0  0  0  0  0  0  0  0  0  5  0  0
    1.9214    0.7645   -0.5045 H   0  0  0  0  0  0  0  0  0  6  0  0
   -2.4185    0.7953   -0.4307 H   0  0  0  0  0  0  0  0  0  7  0  0
   -1.9286   -0.7185    0.5831 H   0  0  0  0  0  0  0  0  0  8  0  0
  1  6  1  0
  1  5  1  0
  1  2  1  0
  2  3  1  0
  3  4  1  0
  4  8  1  0
  4  7  1  0
M  RAD  1   1   2
M  END
>  <rmg_smiles>  (5) 
[CH2]O[N][CH2]

>  <rmg_adjacency_list>  (5) 
multiplicity 2
1 O u0 p2 c0 {2,S} {3,S}
2 N u0 p1 c0 {1,S} {4,S}
3 C u1 p0 c0 {1,S} {5,S} {6,S}
4 C u0 p0 c0 {2,S} {7,S} {8,S}
5 H u0 p0 c0 {3,S}
6 H u0 p0 c0 {3,S}
7 H u0 p0 c0 {4,S}
8 H u0 p0 c0 {4,S}


>  <multiplicity>  (5) 
2

>  <reaction>  (5) 
rmg_rxn_15703

>  <type>  (5) 
r2

>  <role_mapnums>  (5) 
{}

>  <role_mapidx>  (5) 
{}

>  <ordered_mapped_smiles>  (5) 
[C:1]([O:2][NH:3][CH:4]([H:7])[H:8])([H:5])[H:6]

>  <level_of_theory>  (5) 
wb97xd/def2tzvp

>  <lot_method>  (5) 
wb97xd

>  <lot_basis>  (5) 
def2tzvp

>  <spin_multiplicity>  (5) 
2.0

>  <optical_isomers>  (5) 
2.0

>  <modes>  (5) 
IdealGasTranslation(mass=(58.0293, 'amu')),         NonlinearRotor(             inertia = ([10.2741, 95.4529, 105.582

>  <frequency_value>  (5) 
unknown

>  <frequency_units>  (5) 
unknown

>  <frequency_list>  (5) 
unknown

>  <arkane_path>  (5) 
/home/calvin/Dropbox/PersonalFolders/Calvin/ZEUS_Converged/rmg_rxn_15703/output/Species/rmg_rxn_15703_r1_sbr-CH2-sbrON=C/arkane/output.py

>  <path_exists>  (5) 
True

>  <E0_value>  (5) 
-547168.2732446302

>  <E0_units>  (5) 
kJ/mol

>  <thermo_class>  (5) 
NASA

>  <Cp0_value>  (5) 
33.257888

>  <Cp0_units>  (5) 
J/(mol*K)

>  <CpInf_value>  (5) 
182.918384

>  <CpInf_units>  (5) 
J/(mol*K)

>  <Tmin_value>  (5) 
10.0

>  <Tmin_units>  (5) 
K

>  <Tmax_value>  (5) 
3000.0

>  <Tmax_units>  (5) 
K

>  <polynomials>  (5) 
[{"name": "polynomial1", "class": "NASAPolynomial", "Tmin_value": 10.0, "Tmin_units": "K", "Tmax_value": 253.2842427910515, "Tmax_units": "K", "coeffs": [3.956862909385456, 0.0038362890131335746, 0.00011727738047703725, -3.4736244039427427e-07, 3.472729073035136e-10, -65809144.38694886, 9.350338763280796]}, {"name": "polynomial2", "class": "NASAPolynomial", "Tmin_value": 253.2842427910515, "Tmin_units": "K", "Tmax_value": 3000.0, "Tmax_units": "K", "coeffs": [2.5252197328965313, 0.026445761179553072, -1.662161754135038e-05, 5.074735532607581e-09, -5.97403912324656e-13, -65809071.86505469, 14.291183066674913]}]

>  <H298_value>  (5) 
-130772.65860702786

>  <H298_units>  (5) 
kcal/mol

>  <S298_value>  (5) 
71.26914844977757

>  <S298_units>  (5) 
cal/(mol*K)

>  <Cp_T_value_list>  (5) 
[18.0740035969719, 21.369534269323825, 24.223451351766553, 26.683440747612977, 30.598134113509214, 33.438117676478754, 37.554421513360474, 39.68390492467901, 40.91110806828642]

>  <Cp_T_units>  (5) 
cal/(mol*K)

>  <T_list>  (5) 
[300.0, 400.0, 500.0, 600.0, 800.0, 1000.0, 1500.0, 2000.0, 2400.0]

>  <T_units>  (5) 
K

>  <yaml_path>  (5) 
/home/calvin/Dropbox/PersonalFolders/Calvin/ZEUS_Converged/rmg_rxn_15703/output/Species/rmg_rxn_15703_r1_sbr-CH2-sbrON=C/rmg_rxn_15703_r1_sbr-CH2-sbrON=C.yml

>  <frequencies_cm1>  (5) 
[132.13453152744, 273.14807507364, 360.4549264321199, 498.69420790903996, 595.9169860696, 789.3942974605999, 873.74834513148, 993.5360370535599, 1152.01232426852, 1206.54305469464, 1257.0497317232398, 1417.2771001948001, 1437.260027476, 1705.2166616477198, 3090.5210781926, 3134.7719315946797, 3218.94057066192, 3282.16490450316]

>  <ZPE_kJmol>  (5) 
152.0381400376291

>  <E_elec_kJmol>  (5) 
-547320.3113846679

>  <E0_minus_Eelec_plus_ZPE_kJmol>  (5) 
0.0

>  <rxn>  (5) 
rmg_rxn_15703

>  <species_type>  (5) 
r0

>  <species_folder>  (5) 
rmg_rxn_15703_r1_sbr-CH2-sbrON=C

>  <frequencies_cm1_list>  (5) 
[132.13453152744, 273.14807507364, 360.4549264321199, 498.69420790903996, 595.9169860696, 789.3942974605999, 873.74834513148, 993.5360370535599, 1152.01232426852, 1206.54305469464, 1257.0497317232398, 1417.2771001948001, 1437.260027476, 1705.2166616477198, 3090.5210781926, 3134.7719315946797, 3218.94057066192, 3282.16490450316]

>  <E0_kJmol>  (5) 
-547168

>  <H298_kJmol>  (5) 
-547153

$$$$
