
     RDKit          3D

 15 14  0  0  0  0  0  0  0  0999 V2000
    0.2231   -1.3644   -1.6427 C   0  0  0  0  0  0  0  0  0  1  0  0
    0.2683   -1.4506   -0.1200 C   0  0  0  0  0  0  0  0  0  2  0  0
    0.4897   -0.1156    0.5406 C   0  0  0  0  0  0  0  0  0  3  0  0
   -0.5846    0.7275    0.3419 O   0  0  0  0  0  0  0  0  0  4  0  0
   -0.3786    2.0318    0.8303 C   0  0  0  0  0  0  0  0  0  5  0  0
    1.1604   -0.9673   -2.0388 H   0  0  0  0  0  0  0  0  0  6  0  0
   -0.5850   -0.7088   -1.9678 H   0  0  0  0  0  0  0  0  0  7  0  0
    0.0625   -2.3491   -2.0840 H   0  0  0  0  0  0  0  0  0  8  0  0
   -0.6653   -1.8748    0.2589 H   0  0  0  0  0  0  0  0  0  9  0  0
    1.0740   -2.1184    0.1959 H   0  0  0  0  0  0  0  0  0 10  0  0
    0.6012   -0.2931    1.6205 H   0  0  0  0  0  0  0  0  0 11  0  0
    1.4432    0.3560    0.2604 H   0  0  0  0  0  0  0  0  0 12  0  0
    0.4732    2.5084    0.3305 H   0  0  0  0  0  0  0  0  0 13  0  0
   -0.1913    2.0227    1.9091 H   0  0  0  0  0  0  0  0  0 14  0  0
   -1.2823    2.6016    0.6225 H   0  0  0  0  0  0  0  0  0 15  0  0
  1  8  1  0
  1  7  1  0
  1  6  1  0
  1  2  1  0
  2 10  1  0
  2  9  1  0
  2  3  1  0
  3 11  1  0
  3  4  1  0
  3 12  1  0
  4  5  1  0
  5 13  1  0
  5 14  1  0
  5 15  1  0
M  END
>  <rmg_smiles>  (1) 
CCCOC

>  <rmg_adjacency_list>  (1) 
1  O u0 p2 c0 {3,S} {5,S}
2  C u0 p0 c0 {3,S} {4,S} {6,S} {7,S}
3  C u0 p0 c0 {1,S} {2,S} {8,S} {9,S}
4  C u0 p0 c0 {2,S} {10,S} {11,S} {12,S}
5  C u0 p0 c0 {1,S} {13,S} {14,S} {15,S}
6  H u0 p0 c0 {2,S}
7  H u0 p0 c0 {2,S}
8  H u0 p0 c0 {3,S}
9  H u0 p0 c0 {3,S}
10 H u0 p0 c0 {4,S}
11 H u0 p0 c0 {4,S}
12 H u0 p0 c0 {4,S}
13 H u0 p0 c0 {5,S}
14 H u0 p0 c0 {5,S}
15 H u0 p0 c0 {5,S}


>  <multiplicity>  (1) 
1

>  <reaction>  (1) 
rmg_rxn_15524

>  <type>  (1) 
r1h

>  <role_mapnums>  (1) 
{"r1h_a": 3, "r1h_h": 11}

>  <role_mapidx>  (1) 
{"r1h_a": 2, "r1h_h": 10}

>  <ordered_mapped_smiles>  (1) 
[C:1]([C:2]([C:3]([O:4][C:5]([H:13])([H:14])[H:15])([H:11])[H:12])([H:9])[H:10])([H:6])([H:7])[H:8]

>  <mol_properties>  (1) 
{"2": {"label": "donator", "atom_type": "Cs"}, "10": {"label": "d_hydrogen", "atom_type": "H0"}}

>  <level_of_theory>  (1) 
wb97xd/def2tzvp

>  <lot_method>  (1) 
wb97xd

>  <lot_basis>  (1) 
def2tzvp

>  <spin_multiplicity>  (1) 
1.0

>  <optical_isomers>  (1) 
2.0

>  <modes>  (1) 
IdealGasTranslation(mass=(74.0732, 'amu')),         NonlinearRotor(             inertia = ([40.784, 192.218, 211.735

>  <frequency_value>  (1) 
unknown

>  <frequency_units>  (1) 
unknown

>  <frequency_list>  (1) 
unknown

>  <arkane_path>  (1) 
/home/calvin/Dropbox/PersonalFolders/Calvin/ZEUS_Converged/rmg_rxn_15524/output/Species/rmg_rxn_15524_r2_CCCOC/arkane/output.py

>  <path_exists>  (1) 
True

>  <E0_value>  (1) 
-613163.1274359095

>  <E0_units>  (1) 
kJ/mol

>  <thermo_class>  (1) 
NASA

>  <Cp0_value>  (1) 
33.257888

>  <Cp0_units>  (1) 
J/(mol*K)

>  <CpInf_value>  (1) 
357.522296

>  <CpInf_units>  (1) 
J/(mol*K)

>  <Tmin_value>  (1) 
10.0

>  <Tmin_units>  (1) 
K

>  <Tmax_value>  (1) 
3000.0

>  <Tmax_units>  (1) 
K

>  <polynomials>  (1) 
[{"name": "polynomial1", "class": "NASAPolynomial", "Tmin_value": 10.0, "Tmin_units": "K", "Tmax_value": 456.12560324554056, "Tmax_units": "K", "coeffs": [3.62223196701835, 0.03879795217402279, -8.359648491421e-05, 2.4522721819815076e-07, -2.187140949836333e-10, -73746489.62884024, 10.515609438787227]}, {"name": "polynomial2", "class": "NASAPolynomial", "Tmin_value": 456.12560324554056, "Tmin_units": "K", "Tmax_value": 3000.0, "Tmax_units": "K", "coeffs": [-2.20935170520275, 0.056485006605310945, -3.174876766111153e-05, 8.65420390010314e-09, -9.198389746305381e-13, -73745609.6450763, 37.88661603232218]}]

>  <H298_value>  (1) 
-146544.64412500645

>  <H298_units>  (1) 
kcal/mol

>  <S298_value>  (1) 
80.94634663649457

>  <S298_units>  (1) 
cal/(mol*K)

>  <Cp_T_value_list>  (1) 
[25.013931424396034, 31.51994949570118, 37.99587562842776, 43.72290058989096, 53.08549647523409, 60.13535702830284, 70.81347633831932, 76.07383878332065, 78.6922399009724]

>  <Cp_T_units>  (1) 
cal/(mol*K)

>  <T_list>  (1) 
[300.0, 400.0, 500.0, 600.0, 800.0, 1000.0, 1500.0, 2000.0, 2400.0]

>  <T_units>  (1) 
K

>  <yaml_path>  (1) 
/home/calvin/Dropbox/PersonalFolders/Calvin/ZEUS_Converged/rmg_rxn_15524/output/Species/rmg_rxn_15524_r2_CCCOC/rmg_rxn_15524_r2_CCCOC.yml

>  <frequencies_cm1>  (1) 
[91.63991909539999, 126.96369158147998, 202.90568223536002, 229.57705321824, 300.01172164547995, 354.24717170284, 509.22129640459997, 764.38473692516, 888.9449836446399, 924.72884414716, 957.6835066978399, 1072.9458552940398, 1116.4482072962398, 1154.8689901616399, 1177.001283848, 1188.20133690492, 1229.14230338276, 1271.07211574668, 1307.65941353164, 1369.5858871474, 1403.3027850685999, 1415.972372984, 1467.6807724436, 1468.93743075716, 1475.31686011944, 1481.9915698504797, 1490.39675988216, 1494.07059702836, 1510.75737135596, 2928.3984217727198, 2950.9908034755194, 2962.18398954712, 2998.10518975604, 3014.75762915704, 3020.7181724148, 3057.78615917216, 3085.0343569219203, 3099.33828734348, 3104.91427942332]

>  <ZPE_kJmol>  (1) 
356.89332738911673

>  <E_elec_kJmol>  (1) 
-613520.0207632986

>  <E0_minus_Eelec_plus_ZPE_kJmol>  (1) 
0.0

>  <rxn>  (1) 
rmg_rxn_15524

>  <species_type>  (1) 
r1

>  <species_folder>  (1) 
rmg_rxn_15524_r2_CCCOC

>  <frequencies_cm1_list>  (1) 
[91.63991909539999, 126.96369158147998, 202.90568223536002, 229.57705321824, 300.01172164547995, 354.24717170284, 509.22129640459997, 764.38473692516, 888.9449836446399, 924.72884414716, 957.6835066978399, 1072.9458552940398, 1116.4482072962398, 1154.8689901616399, 1177.001283848, 1188.20133690492, 1229.14230338276, 1271.07211574668, 1307.65941353164, 1369.5858871474, 1403.3027850685999, 1415.972372984, 1467.6807724436, 1468.93743075716, 1475.31686011944, 1481.9915698504797, 1490.39675988216, 1494.07059702836, 1510.75737135596, 2928.3984217727198, 2950.9908034755194, 2962.18398954712, 2998.10518975604, 3014.75762915704, 3020.7181724148, 3057.78615917216, 3085.0343569219203, 3099.33828734348, 3104.91427942332]

>  <E0_kJmol>  (1) 
-613163

>  <H298_kJmol>  (1) 
-613143

$$$$

     RDKit          3D

  6  5  0  0  0  0  0  0  0  0999 V2000
    0.3524    0.1559    1.0398 O   0  0  0  0  0  0  0  0  0  1  0  0
    0.1754    0.3159   -0.3464 N   0  0  0  0  0  0  0  0  0  2  0  0
   -0.5975   -0.5107   -0.8594 C   0  0  0  0  0  0  0  0  0  3  0  0
    0.9692    0.8592    1.2553 H   0  0  0  0  0  0  0  0  0  4  0  0
   -1.1381   -1.3196   -0.3672 H   0  0  0  0  0  0  0  0  0  5  0  0
   -0.7054   -0.3741   -1.9358 H   0  0  0  0  0  0  0  0  0  6  0  0
  1  4  1  0
  1  2  1  0
  2  3  1  0
  3  6  1  0
  3  5  1  0
M  END
>  <rmg_smiles>  (2) 
[CH2][N]O

>  <rmg_adjacency_list>  (2) 
1 O u0 p2 c0 {2,S} {6,S}
2 N u0 p1 c0 {1,S} {3,S}
3 C u0 p0 c0 {2,S} {4,S} {5,S}
4 H u0 p0 c0 {3,S}
5 H u0 p0 c0 {3,S}
6 H u0 p0 c0 {1,S}


>  <multiplicity>  (2) 
1

>  <reaction>  (2) 
rmg_rxn_15524

>  <type>  (2) 
r2h

>  <role_mapnums>  (2) 
{"r2h_a": 3, "r2h_h": 6}

>  <role_mapidx>  (2) 
{"r2h_a": 2, "r2h_h": 5}

>  <ordered_mapped_smiles>  (2) 
[O:1]([NH:2][CH:3]([H:5])[H:6])[H:4]

>  <mol_properties>  (2) 
{"2": {"label": "acceptor", "atom_type": "Cs"}, "5": {"label": "a_hydrogen", "atom_type": "H0"}}

>  <level_of_theory>  (2) 
wb97xd/def2tzvp

>  <lot_method>  (2) 
wb97xd

>  <lot_basis>  (2) 
def2tzvp

>  <spin_multiplicity>  (2) 
1.0

>  <optical_isomers>  (2) 
1.0

>  <modes>  (2) 
IdealGasTranslation(mass=(45.0215, 'amu')),         NonlinearRotor(             inertia = ([7.10552, 42.1368, 49.2423

>  <frequency_value>  (2) 
unknown

>  <frequency_units>  (2) 
unknown

>  <frequency_list>  (2) 
unknown

>  <arkane_path>  (2) 
/home/calvin/Dropbox/PersonalFolders/Calvin/ZEUS_Converged/rmg_rxn_15524/output/Species/rmg_rxn_15524_p1_ON=C/arkane/output.py

>  <path_exists>  (2) 
True

>  <E0_value>  (2) 
-445765.04652910994

>  <E0_units>  (2) 
kJ/mol

>  <thermo_class>  (2) 
NASA

>  <Cp0_value>  (2) 
33.257888

>  <Cp0_units>  (2) 
J/(mol*K)

>  <CpInf_value>  (2) 
133.031552

>  <CpInf_units>  (2) 
J/(mol*K)

>  <Tmin_value>  (2) 
10.0

>  <Tmin_units>  (2) 
K

>  <Tmax_value>  (2) 
3000.0

>  <Tmax_units>  (2) 
K

>  <polynomials>  (2) 
[{"name": "polynomial1", "class": "NASAPolynomial", "Tmin_value": 10.0, "Tmin_units": "K", "Tmax_value": 555.0008285415723, "Tmax_units": "K", "coeffs": [4.0729558966761115, -0.006525504673073184, 8.044401869233928e-05, -1.3643340673050255e-07, 7.605604608176978e-11, -53613151.050707266, 6.598063650688069]}, {"name": "polynomial2", "class": "NASAPolynomial", "Tmin_value": 555.0008285415723, "Tmin_units": "K", "Tmax_value": 3000.0, "Tmax_units": "K", "coeffs": [1.9629419554542669, 0.01794293278685335, -1.0716899102514014e-05, 3.1351804200574135e-09, -3.5588210478784073e-13, -53613059.472560614, 14.250328412630774]}]

>  <H298_value>  (2) 
-106537.6194767193

>  <H298_units>  (2) 
kcal/mol

>  <S298_value>  (2) 
60.36296822828259

>  <S298_units>  (2) 
cal/(mol*K)

>  <Cp_T_value_list>  (2) 
[12.494795700177992, 15.001608210431446, 17.130783734283074, 18.881829280437152, 21.69615330289245, 23.7834318087242, 26.9145239767162, 28.553257692891545, 29.47039525924992]

>  <Cp_T_units>  (2) 
cal/(mol*K)

>  <T_list>  (2) 
[300.0, 400.0, 500.0, 600.0, 800.0, 1000.0, 1500.0, 2000.0, 2400.0]

>  <T_units>  (2) 
K

>  <yaml_path>  (2) 
/home/calvin/Dropbox/PersonalFolders/Calvin/ZEUS_Converged/rmg_rxn_15524/output/Species/rmg_rxn_15524_p1_ON=C/rmg_rxn_15524_p1_ON=C.yml

>  <frequencies_cm1>  (2) 
[438.20980121048, 539.7244451960399, 801.7205361099999, 965.59427378648, 986.4836431299199, 1183.2914424011199, 1353.5034075279598, 1444.4016922088, 1728.97643085492, 3083.6403589019596, 3214.03754314344, 3841.1169085952]

>  <ZPE_kJmol>  (2) 
117.11863122037906

>  <E_elec_kJmol>  (2) 
-445882.1651603303

>  <E0_minus_Eelec_plus_ZPE_kJmol>  (2) 
0.0

>  <rxn>  (2) 
rmg_rxn_15524

>  <species_type>  (2) 
p0

>  <species_folder>  (2) 
rmg_rxn_15524_p1_ON=C

>  <frequencies_cm1_list>  (2) 
[438.20980121048, 539.7244451960399, 801.7205361099999, 965.59427378648, 986.4836431299199, 1183.2914424011199, 1353.5034075279598, 1444.4016922088, 1728.97643085492, 3083.6403589019596, 3214.03754314344, 3841.1169085952]

>  <E0_kJmol>  (2) 
-445765

>  <H298_kJmol>  (2) 
-445753

$$$$

     RDKit          3D

 20 18  0  0  0  0  0  0  0  0999 V2000
    1.1830    0.2681    3.6276 O   0  0  0  0  0  0  0  0  0  1  0  0
    1.0061    0.4282    2.2414 N   0  0  0  0  0  0  0  0  0  2  0  0
    0.2331   -0.3985    1.7284 C   0  0  0  0  0  3  0  0  0  3  0  0
    1.7998    0.9714    3.8431 H   0  0  0  0  0  0  0  0  0  4  0  0
   -0.3075   -1.2074    2.2206 H   0  0  0  0  0  0  0  0  0  5  0  0
   -0.3075   -1.2595   -3.1525 C   0  0  0  0  0  0  0  0  0  6  0  0
   -0.2623   -1.3458   -1.6298 C   0  0  0  0  0  0  0  0  0  7  0  0
   -0.0408   -0.0108   -0.9691 C   0  0  0  0  0  0  0  0  0  8  0  0
   -1.1151    0.8324   -1.1678 O   0  0  0  0  0  0  0  0  0  9  0  0
   -0.9092    2.1367   -0.6795 C   0  0  0  0  0  0  0  0  0 10  0  0
    0.6299   -0.8624   -3.5486 H   0  0  0  0  0  0  0  0  0 11  0  0
   -1.1156   -0.6040   -3.4776 H   0  0  0  0  0  0  0  0  0 12  0  0
   -0.4680   -2.2443   -3.5938 H   0  0  0  0  0  0  0  0  0 13  0  0
   -1.1958   -1.7699   -1.2509 H   0  0  0  0  0  0  0  0  0 14  0  0
    0.5435   -2.0135   -1.3139 H   0  0  0  0  0  0  0  0  0 15  0  0
    0.0842   -0.2099    0.2424 H   0  0  0  0  0  0  0  0  0 16  0  0
    0.9126    0.4609   -1.2494 H   0  0  0  0  0  0  0  0  0 17  0  0
   -0.0574    2.6133   -1.1793 H   0  0  0  0  0  0  0  0  0 18  0  0
   -0.7218    2.1276    0.3994 H   0  0  0  0  0  0  0  0  0 19  0  0
   -1.8129    2.7065   -0.8873 H   0  0  0  0  0  0  0  0  0 20  0  0
  1  4  1  0
  1  2  1  0
  2  3  1  0
  3  5  1  0
  6 13  1  0
  6  7  1  0
  6 11  1  0
  6 12  1  0
  7 14  1  0
  7 15  1  0
  7  8  1  0
  8 16  1  0
  8 17  1  0
  8  9  1  0
  9 10  1  0
 10 19  1  0
 10 20  1  0
 10 18  1  0
M  RAD  1   3   2
M  END
>  <rmg_smiles>  (3) 
CCCOC.[CH][N]O

>  <rmg_adjacency_list>  (3) 
multiplicity 2
1  O u0 p2 c0 {5,S} {7,S}
2  O u0 p2 c0 {3,S} {19,S}
3  N u0 p1 c0 {2,S} {8,S}
4  C u0 p0 c0 {5,S} {6,S} {9,S} {10,S}
5  C u0 p0 c0 {1,S} {4,S} {11,S} {12,S}
6  C u0 p0 c0 {4,S} {13,S} {14,S} {15,S}
7  C u0 p0 c0 {1,S} {16,S} {17,S} {18,S}
8  C u1 p1 c0 {3,S} {20,S}
9  H u0 p0 c0 {4,S}
10 H u0 p0 c0 {4,S}
11 H u0 p0 c0 {5,S}
12 H u0 p0 c0 {5,S}
13 H u0 p0 c0 {6,S}
14 H u0 p0 c0 {6,S}
15 H u0 p0 c0 {6,S}
16 H u0 p0 c0 {7,S}
17 H u0 p0 c0 {7,S}
18 H u0 p0 c0 {7,S}
19 H u0 p0 c0 {2,S}
20 H u0 p0 c0 {8,S}


>  <multiplicity>  (3) 
2

>  <reaction>  (3) 
rmg_rxn_15524

>  <type>  (3) 
ts

>  <role_mapnums>  (3) 
{"*2": 16, "*1": 8, "*3": 3, "*0": 9, "*4": 2}

>  <role_mapidx>  (3) 
{"*2": 15, "*1": 7, "*3": 2, "*0": 8, "*4": 1}

>  <ordered_mapped_smiles>  (3) 
[O:1]([NH:2][CH:3][H:5])[H:4].[C:6]([C:7]([C:8]([O:9][C:10]([H:18])([H:19])[H:20])([H:16])[H:17])([H:14])[H:15])([H:11])([H:12])[H:13]

>  <mol_properties>  (3) 
{"1": {"label": "*4", "atom_type": "N3s"}, "2": {"label": "*3", "atom_type": "C2s"}, "7": {"label": "*1", "atom_type": "Cs"}, "8": {"label": "*0", "atom_type": "O2s"}, "15": {"label": "*2", "atom_type": "H0"}}

>  <level_of_theory>  (3) 
wb97xd/def2tzvp

>  <lot_method>  (3) 
wb97xd

>  <lot_basis>  (3) 
def2tzvp

>  <spin_multiplicity>  (3) 
2.0

>  <optical_isomers>  (3) 
2.0

>  <modes>  (3) 
IdealGasTranslation(mass=(118.087, 'amu')),         NonlinearRotor(             inertia = ([168.996, 646.686, 779.774

>  <frequency_value>  (3) 
-1138.3

>  <frequency_units>  (3) 
cm^-1

>  <frequency_list>  (3) 
unknown

>  <arkane_path>  (3) 
/home/calvin/Dropbox/PersonalFolders/Calvin/ZEUS_Converged/rmg_rxn_15524/output/rxns/TS0/arkane/output.py

>  <path_exists>  (3) 
True

>  <E0_value>  (3) 
-1057150.0

>  <E0_units>  (3) 
kJ/mol

>  <thermo_class>  (3) 
unknown

>  <Cp0_value>  (3) 
unknown

>  <Cp0_units>  (3) 
unknown

>  <CpInf_value>  (3) 
unknown

>  <CpInf_units>  (3) 
unknown

>  <Tmin_value>  (3) 
unknown

>  <Tmin_units>  (3) 
unknown

>  <Tmax_value>  (3) 
unknown

>  <Tmax_units>  (3) 
unknown

>  <polynomials>  (3) 
unknown

>  <H298_value>  (3) 
unknown

>  <H298_units>  (3) 
unknown

>  <S298_value>  (3) 
unknown

>  <S298_units>  (3) 
unknown

>  <Cp_T_value_list>  (3) 
unknown

>  <Cp_T_units>  (3) 
unknown

>  <T_list>  (3) 
unknown

>  <T_units>  (3) 
unknown

>  <yaml_path>  (3) 
unknown

>  <frequencies_cm1>  (3) 
unknown

>  <ZPE_kJmol>  (3) 
unknown

>  <E_elec_kJmol>  (3) 
unknown

>  <E0_minus_Eelec_plus_ZPE_kJmol>  (3) 
unknown

>  <rxn>  (3) 
unknown

>  <species_type>  (3) 
unknown

>  <species_folder>  (3) 
unknown

>  <frequencies_cm1_list>  (3) 
[]

>  <ts_imag_freq_cm1>  (3) 
-1152.1252

>  <ts_freq_out_path>  (3) 
/home/calvin/Dropbox/PersonalFolders/Calvin/ZEUS_Converged/rmg_rxn_15524/output/rxns/TS0/geometry/freq.out

>  <E0_kJmol>  (3) 
-1.05715e+06

>  <H298_kJmol>  (3) 
unknown

$$$$

     RDKit          3D

 14 13  0  0  0  0  0  0  0  0999 V2000
   -2.1206   -0.4411   -0.0870 C   0  0  0  0  0  0  0  0  0  1  0  0
   -1.0997    0.6970   -0.0676 C   0  0  0  0  0  0  0  0  0  2  0  0
    0.2802    0.2544    0.2554 C   0  0  0  0  0  3  0  0  0  3  0  0
    0.4226   -0.3691    1.4498 O   0  0  0  0  0  0  0  0  0  4  0  0
    1.7390   -0.7527    1.7712 C   0  0  0  0  0  0  0  0  0  5  0  0
   -2.1607   -0.9402    0.8813 H   0  0  0  0  0  0  0  0  0  6  0  0
   -3.1178   -0.0616   -0.3157 H   0  0  0  0  0  0  0  0  0  7  0  0
   -1.8556   -1.1862   -0.8390 H   0  0  0  0  0  0  0  0  0  8  0  0
   -1.4302    1.4562    0.6577 H   0  0  0  0  0  0  0  0  0  9  0  0
   -1.0732    1.1931   -1.0403 H   0  0  0  0  0  0  0  0  0 10  0  0
    1.1485    0.8011   -0.1074 H   0  0  0  0  0  0  0  0  0 11  0  0
    2.4055    0.1169    1.7924 H   0  0  0  0  0  0  0  0  0 12  0  0
    2.1218   -1.4782    1.0472 H   0  0  0  0  0  0  0  0  0 13  0  0
    1.7107   -1.2066    2.7598 H   0  0  0  0  0  0  0  0  0 14  0  0
  1  8  1  0
  1  7  1  0
  1  6  1  0
  1  2  1  0
  2 10  1  0
  2  9  1  0
  2  3  1  0
  3 11  1  0
  3  4  1  0
  4  5  1  0
  5 13  1  0
  5 12  1  0
  5 14  1  0
M  RAD  1   3   2
M  END
>  <rmg_smiles>  (4) 
CC[CH]OC

>  <rmg_adjacency_list>  (4) 
multiplicity 2
1  O u0 p2 c0 {4,S} {5,S}
2  C u0 p0 c0 {3,S} {5,S} {6,S} {7,S}
3  C u0 p0 c0 {2,S} {8,S} {9,S} {10,S}
4  C u0 p0 c0 {1,S} {11,S} {12,S} {13,S}
5  C u1 p0 c0 {1,S} {2,S} {14,S}
6  H u0 p0 c0 {2,S}
7  H u0 p0 c0 {2,S}
8  H u0 p0 c0 {3,S}
9  H u0 p0 c0 {3,S}
10 H u0 p0 c0 {3,S}
11 H u0 p0 c0 {4,S}
12 H u0 p0 c0 {4,S}
13 H u0 p0 c0 {4,S}
14 H u0 p0 c0 {5,S}


>  <multiplicity>  (4) 
2

>  <reaction>  (4) 
rmg_rxn_15524

>  <type>  (4) 
r1

>  <role_mapnums>  (4) 
{}

>  <role_mapidx>  (4) 
{}

>  <ordered_mapped_smiles>  (4) 
[C:1]([C:2]([C:3]([O:4][C:5]([H:12])([H:13])[H:14])[H:11])([H:9])[H:10])([H:6])([H:7])[H:8]

>  <level_of_theory>  (4) 
wb97xd/def2tzvp

>  <lot_method>  (4) 
wb97xd

>  <lot_basis>  (4) 
def2tzvp

>  <spin_multiplicity>  (4) 
2.0

>  <optical_isomers>  (4) 
2.0

>  <modes>  (4) 
IdealGasTranslation(mass=(73.0653, 'amu')),         NonlinearRotor(             inertia = ([36.5505, 193.631, 214.206

>  <frequency_value>  (4) 
unknown

>  <frequency_units>  (4) 
unknown

>  <frequency_list>  (4) 
unknown

>  <arkane_path>  (4) 
/home/calvin/Dropbox/PersonalFolders/Calvin/ZEUS_Converged/rmg_rxn_15524/output/Species/rmg_rxn_15524_p2_CCsbr-CH-sbrOC/arkane/output.py

>  <path_exists>  (4) 
True

>  <E0_value>  (4) 
-611460.2320107684

>  <E0_units>  (4) 
kJ/mol

>  <thermo_class>  (4) 
NASA

>  <Cp0_value>  (4) 
33.257888

>  <Cp0_units>  (4) 
J/(mol*K)

>  <CpInf_value>  (4) 
332.57888

>  <CpInf_units>  (4) 
J/(mol*K)

>  <Tmin_value>  (4) 
10.0

>  <Tmin_units>  (4) 
K

>  <Tmax_value>  (4) 
3000.0

>  <Tmax_units>  (4) 
K

>  <polynomials>  (4) 
[{"name": "polynomial1", "class": "NASAPolynomial", "Tmin_value": 10.0, "Tmin_units": "K", "Tmax_value": 435.0249914343594, "Tmax_units": "K", "coeffs": [3.5748997769968582, 0.04456225085243294, -0.00011060153262596783, 2.906972870802414e-07, -2.537395864844816e-10, -73541677.92732623, 11.29151099210435]}, {"name": "polynomial2", "class": "NASAPolynomial", "Tmin_value": 435.0249914343594, "Tmin_units": "K", "Tmax_value": 3000.0, "Tmax_units": "K", "coeffs": [-0.3158801278921604, 0.0505741967895192, -2.870506782997602e-05, 7.920296742157473e-09, -8.521798204557643e-13, -73541057.77978773, 30.060720524041276]}]

>  <H298_value>  (4) 
-146137.48834692518

>  <H298_units>  (4) 
kcal/mol

>  <S298_value>  (4) 
83.64293597203434

>  <S298_units>  (4) 
cal/(mol*K)

>  <Cp_T_value_list>  (4) 
[25.402407438688297, 31.422599177355014, 37.22380999317273, 42.3178706905547, 50.63078839989438, 56.876564091302626, 66.32471325417191, 71.02224156644306, 73.4032398181671]

>  <Cp_T_units>  (4) 
cal/(mol*K)

>  <T_list>  (4) 
[300.0, 400.0, 500.0, 600.0, 800.0, 1000.0, 1500.0, 2000.0, 2400.0]

>  <T_units>  (4) 
K

>  <yaml_path>  (4) 
/home/calvin/Dropbox/PersonalFolders/Calvin/ZEUS_Converged/rmg_rxn_15524/output/Species/rmg_rxn_15524_p2_CCsbr-CH-sbrOC/rmg_rxn_15524_p2_CCsbr-CH-sbrOC.yml

>  <frequencies_cm1>  (4) 
[77.10937815828001, 106.33526768019999, 184.94164863824, 202.89194826471999, 288.22797483636, 355.44889413384, 480.19454945696, 623.9548871311599, 771.49206673136, 897.74159183956, 976.33423882696, 1065.3784374713998, 1093.89016052004, 1124.3246394582798, 1168.6441627135598, 1189.03910911396, 1261.78108460872, 1305.53064808244, 1354.4785194434, 1389.0881254561998, 1407.3131044954798, 1457.8815843919601, 1475.99669166612, 1479.06623410416, 1481.8267622028, 1489.4285149520397, 1494.8122314429197, 2938.6233629142002, 2981.19180491288, 3019.4065782186794, 3043.4753617652796, 3052.2239010629596, 3091.5373920199595, 3094.6618703405597, 3103.2387350052395, 3115.5718406399596]

>  <ZPE_kJmol>  (4) 
320.8569834509436

>  <E_elec_kJmol>  (4) 
-611781.0889942193

>  <E0_minus_Eelec_plus_ZPE_kJmol>  (4) 
0.0

>  <rxn>  (4) 
rmg_rxn_15524

>  <species_type>  (4) 
p1

>  <species_folder>  (4) 
rmg_rxn_15524_p2_CCsbr-CH-sbrOC

>  <frequencies_cm1_list>  (4) 
[77.10937815828001, 106.33526768019999, 184.94164863824, 202.89194826471999, 288.22797483636, 355.44889413384, 480.19454945696, 623.9548871311599, 771.49206673136, 897.74159183956, 976.33423882696, 1065.3784374713998, 1093.89016052004, 1124.3246394582798, 1168.6441627135598, 1189.03910911396, 1261.78108460872, 1305.53064808244, 1354.4785194434, 1389.0881254561998, 1407.3131044954798, 1457.8815843919601, 1475.99669166612, 1479.06623410416, 1481.8267622028, 1489.4285149520397, 1494.8122314429197, 2938.6233629142002, 2981.19180491288, 3019.4065782186794, 3043.4753617652796, 3052.2239010629596, 3091.5373920199595, 3094.6618703405597, 3103.2387350052395, 3115.5718406399596]

>  <E0_kJmol>  (4) 
-611460

>  <H298_kJmol>  (4) 
-611439

$$$$

     RDKit          3D

  5  4  0  0  0  0  0  0  0  0999 V2000
    0.8934    0.3742    0.4948 O   0  0  0  0  0  0  0  0  0  1  0  0
    0.1582   -0.1610   -0.5904 N   0  0  0  0  0  0  0  0  0  2  0  0
   -1.0297   -0.3739   -0.4689 C   0  0  0  0  0  3  0  0  0  3  0  0
    1.7804    0.4382    0.1306 H   0  0  0  0  0  0  0  0  0  4  0  0
   -1.8023   -0.2775    0.2859 H   0  0  0  0  0  0  0  0  0  5  0  0
  1  4  1  0
  1  2  1  0
  2  3  1  0
  3  5  1  0
M  RAD  1   3   2
M  END
>  <rmg_smiles>  (5) 
[CH][N]O

>  <rmg_adjacency_list>  (5) 
multiplicity 2
1 O u0 p2 c0 {2,S} {4,S}
2 N u0 p1 c0 {1,S} {3,S}
3 C u1 p1 c0 {2,S} {5,S}
4 H u0 p0 c0 {1,S}
5 H u0 p0 c0 {3,S}


>  <multiplicity>  (5) 
2

>  <reaction>  (5) 
rmg_rxn_15524

>  <type>  (5) 
r2

>  <role_mapnums>  (5) 
{}

>  <role_mapidx>  (5) 
{}

>  <ordered_mapped_smiles>  (5) 
[O:1]([NH:2][CH:3][H:5])[H:4]

>  <level_of_theory>  (5) 
wb97xd/def2tzvp

>  <lot_method>  (5) 
wb97xd

>  <lot_basis>  (5) 
def2tzvp

>  <spin_multiplicity>  (5) 
2.0

>  <optical_isomers>  (5) 
1.0

>  <modes>  (5) 
IdealGasTranslation(mass=(44.0136, 'amu')),         NonlinearRotor(inertia=([5.8161, 41.482, 47.298

>  <frequency_value>  (5) 
unknown

>  <frequency_units>  (5) 
unknown

>  <frequency_list>  (5) 
unknown

>  <arkane_path>  (5) 
/home/calvin/Dropbox/PersonalFolders/Calvin/ZEUS_Converged/rmg_rxn_15524/output/Species/rmg_rxn_15524_r1_ON=sbr-CH-sbr/arkane/output.py

>  <path_exists>  (5) 
True

>  <E0_value>  (5) 
-444005.3444875403

>  <E0_units>  (5) 
kJ/mol

>  <thermo_class>  (5) 
NASA

>  <Cp0_value>  (5) 
33.257888

>  <Cp0_units>  (5) 
J/(mol*K)

>  <CpInf_value>  (5) 
108.088136

>  <CpInf_units>  (5) 
J/(mol*K)

>  <Tmin_value>  (5) 
10.0

>  <Tmin_units>  (5) 
K

>  <Tmax_value>  (5) 
3000.0

>  <Tmax_units>  (5) 
K

>  <polynomials>  (5) 
[{"name": "polynomial1", "class": "NASAPolynomial", "Tmin_value": 10.0, "Tmin_units": "K", "Tmax_value": 582.3897944984312, "Tmax_units": "K", "coeffs": [3.9652725251487997, 0.0020023225588121428, 4.0599056262928875e-05, -7.75899274364692e-08, 4.4513181050887496e-11, -53401506.385814846, 6.827044892789236]}, {"name": "polynomial2", "class": "NASAPolynomial", "Tmin_value": 582.3897944984312, "Tmin_units": "K", "Tmax_value": 3000.0, "Tmax_units": "K", "coeffs": [3.5772944330084147, 0.012861032030441071, -8.472942585347425e-06, 2.741567682664952e-09, -3.4073253039207466e-13, -53401600.15572128, 7.296045717872725]}]

>  <H298_value>  (5) 
-106116.8465159924

>  <H298_units>  (5) 
kcal/mol

>  <S298_value>  (5) 
62.04111940413777

>  <S298_units>  (5) 
cal/(mol*K)

>  <Cp_T_value_list>  (5) 
[12.888053758950505, 14.776534941782554, 16.29416082392464, 17.47087173516364, 19.290917222749155, 20.599817847495114, 22.5201252902908, 23.62472390428687, 24.312211768096834]

>  <Cp_T_units>  (5) 
cal/(mol*K)

>  <T_list>  (5) 
[300.0, 400.0, 500.0, 600.0, 800.0, 1000.0, 1500.0, 2000.0, 2400.0]

>  <T_units>  (5) 
K

>  <yaml_path>  (5) 
/home/calvin/Dropbox/PersonalFolders/Calvin/ZEUS_Converged/rmg_rxn_15524/output/Species/rmg_rxn_15524_r1_ON=sbr-CH-sbr/rmg_rxn_15524_r1_ON=sbr-CH-sbr.yml

>  <frequencies_cm1>  (5) 
[408.41395190699996, 412.06718809724, 739.15543285948, 761.7272136063199, 904.39570061464, 1348.7789216278, 1755.3113195571198, 3153.319658944, 3818.4558570392]

>  <ZPE_kJmol>  (5) 
79.5614101222066

>  <E_elec_kJmol>  (5) 
-444084.9058976625

>  <E0_minus_Eelec_plus_ZPE_kJmol>  (5) 
0.0

>  <rxn>  (5) 
rmg_rxn_15524

>  <species_type>  (5) 
r0

>  <species_folder>  (5) 
rmg_rxn_15524_r1_ON=sbr-CH-sbr

>  <frequencies_cm1_list>  (5) 
[408.41395190699996, 412.06718809724, 739.15543285948, 761.7272136063199, 904.39570061464, 1348.7789216278, 1755.3113195571198, 3153.319658944, 3818.4558570392]

>  <E0_kJmol>  (5) 
-444005

>  <H298_kJmol>  (5) 
-443993

$$$$
