
     RDKit          3D

 10  9  0  0  0  0  0  0  0  0999 V2000
   -1.1048   -1.5514   -0.0880 C   0  0  0  0  0  0  0  0  0  1  0  0
   -0.1885   -0.6416    0.0377 C   0  0  0  0  0  2  0  0  0  2  0  0
    0.7300    0.2704    0.1637 C   0  0  0  0  0  0  0  0  0  3  0  0
    0.5305    1.7263   -0.0949 C   0  0  0  0  0  0  0  0  0  4  0  0
   -1.2500   -2.0624   -1.0326 H   0  0  0  0  0  0  0  0  0  5  0  0
   -1.7417   -1.8134    0.7488 H   0  0  0  0  0  0  0  0  0  6  0  0
    1.7260   -0.0389    0.4806 H   0  0  0  0  0  0  0  0  0  7  0  0
    0.7440    2.2998    0.8123 H   0  0  0  0  0  0  0  0  0  8  0  0
   -0.4943    1.9490   -0.4088 H   0  0  0  0  0  0  0  0  0  9  0  0
    1.2117    2.0629   -0.8823 H   0  0  0  0  0  0  0  0  0 10  0  0
  1  5  1  0
  1  6  1  0
  1  2  1  0
  2  3  1  0
  3  4  1  0
  3  7  1  0
  4  8  1  0
  4  9  1  0
  4 10  1  0
M  RAD  1   2   3
M  END
>  <rmg_smiles>  (1) 
[CH2][C][CH]C

>  <rmg_adjacency_list>  (1) 
1  C u0 p0 c0 {2,S} {5,S} {6,S} {7,S}
2  C u0 p0 c0 {1,S} {4,S} {8,S}
3  C u0 p0 c0 {4,S} {9,S} {10,S}
4  C u0 p1 c0 {2,S} {3,S}
5  H u0 p0 c0 {1,S}
6  H u0 p0 c0 {1,S}
7  H u0 p0 c0 {1,S}
8  H u0 p0 c0 {2,S}
9  H u0 p0 c0 {3,S}
10 H u0 p0 c0 {3,S}


>  <multiplicity>  (1) 
1

>  <reaction>  (1) 
rmg_rxn_16804

>  <type>  (1) 
r1h

>  <role_mapnums>  (1) 
{"r1h_a": 3, "r1h_h": 7}

>  <role_mapidx>  (1) 
{"r1h_a": 2, "r1h_h": 6}

>  <ordered_mapped_smiles>  (1) 
[CH:1]([C:2][CH:3]([C:4]([H:8])([H:9])[H:10])[H:7])([H:5])[H:6]

>  <mol_properties>  (1) 
{"2": {"label": "donator", "atom_type": "Cs"}, "6": {"label": "d_hydrogen", "atom_type": "H0"}}

>  <level_of_theory>  (1) 
wb97xd/def2tzvp

>  <lot_method>  (1) 
wb97xd

>  <lot_basis>  (1) 
def2tzvp

>  <spin_multiplicity>  (1) 
1.0

>  <optical_isomers>  (1) 
1.0

>  <modes>  (1) 
IdealGasTranslation(mass=(54.047, 'amu')),         NonlinearRotor(             inertia = ([14.4765, 119.159, 126.96

>  <frequency_value>  (1) 
unknown

>  <frequency_units>  (1) 
unknown

>  <frequency_list>  (1) 
unknown

>  <arkane_path>  (1) 
/home/calvin/Dropbox/PersonalFolders/Calvin/ZEUS_Converged/rmg_rxn_16804/output/Species/rmg_rxn_16804_r2_C=C=CC/arkane/output.py

>  <path_exists>  (1) 
True

>  <E0_value>  (1) 
-409295.803988148

>  <E0_units>  (1) 
kJ/mol

>  <thermo_class>  (1) 
NASA

>  <Cp0_value>  (1) 
33.257888

>  <Cp0_units>  (1) 
J/(mol*K)

>  <CpInf_value>  (1) 
232.805216

>  <CpInf_units>  (1) 
J/(mol*K)

>  <Tmin_value>  (1) 
10.0

>  <Tmin_units>  (1) 
K

>  <Tmax_value>  (1) 
3000.0

>  <Tmax_units>  (1) 
K

>  <polynomials>  (1) 
[{"name": "polynomial1", "class": "NASAPolynomial", "Tmin_value": 10.0, "Tmin_units": "K", "Tmax_value": 378.3338810114521, "Tmax_units": "K", "coeffs": [3.956788291646404, 0.0028758748884973595, 0.00010222157511154379, -2.0822145200867456e-07, 1.4048133398099896e-10, -49226913.492635585, 8.267336820593142]}, {"name": "polynomial2", "class": "NASAPolynomial", "Tmin_value": 378.3338810114521, "Tmin_units": "K", "Tmax_value": 3000.0, "Tmax_units": "K", "coeffs": [1.0662090645095545, 0.03343521113532414, -1.893143893726876e-05, 5.251083928678167e-09, -5.712549624407654e-13, -49226694.75887327, 19.403301870301277]}]

>  <H298_value>  (1) 
-97820.33827014855

>  <H298_units>  (1) 
kcal/mol

>  <S298_value>  (1) 
68.84793061803599

>  <S298_units>  (1) 
cal/(mol*K)

>  <Cp_T_value_list>  (1) 
[18.948832952661355, 23.315314670745117, 27.16836583327544, 30.547769981270978, 36.07341382159731, 40.24055452980178, 46.60738122015404, 49.83808108793718, 51.47608668501352]

>  <Cp_T_units>  (1) 
cal/(mol*K)

>  <T_list>  (1) 
[300.0, 400.0, 500.0, 600.0, 800.0, 1000.0, 1500.0, 2000.0, 2400.0]

>  <T_units>  (1) 
K

>  <yaml_path>  (1) 
/home/calvin/Dropbox/PersonalFolders/Calvin/ZEUS_Converged/rmg_rxn_16804/output/Species/rmg_rxn_16804_r2_C=C=CC/rmg_rxn_16804_r2_C=C=CC.yml

>  <frequencies_cm1>  (1) 
[200.28936082843998, 216.24823471212002, 340.54066900412, 547.08585345908, 575.89285687648, 877.2436406593599, 895.3724819041599, 896.74587896816, 1021.29925870232, 1068.82566410204, 1095.1811537602, 1158.02093642352, 1357.5137269548397, 1407.4229762606, 1462.1185143343998, 1477.7271719667597, 1497.33241505536, 2069.4690309618, 2987.76350986412, 3057.5458146859596, 3064.7561492719597, 3109.8516418684, 3124.4783205999997, 3194.5765067465595]

>  <ZPE_kJmol>  (1) 
219.53455996381652

>  <E_elec_kJmol>  (1) 
-409515.3385481118

>  <E0_minus_Eelec_plus_ZPE_kJmol>  (1) 
0.0

>  <rxn>  (1) 
rmg_rxn_16804

>  <species_type>  (1) 
r1

>  <species_folder>  (1) 
rmg_rxn_16804_r2_C=C=CC

>  <frequencies_cm1_list>  (1) 
[200.28936082843998, 216.24823471212002, 340.54066900412, 547.08585345908, 575.89285687648, 877.2436406593599, 895.3724819041599, 896.74587896816, 1021.29925870232, 1068.82566410204, 1095.1811537602, 1158.02093642352, 1357.5137269548397, 1407.4229762606, 1462.1185143343998, 1477.7271719667597, 1497.33241505536, 2069.4690309618, 2987.76350986412, 3057.5458146859596, 3064.7561492719597, 3109.8516418684, 3124.4783205999997, 3194.5765067465595]

>  <E0_kJmol>  (1) 
-409296

>  <H298_kJmol>  (1) 
-409280

$$$$

     RDKit          3D

  8  7  0  0  0  0  0  0  0  0999 V2000
    1.1978    0.1628   -0.3833 C   0  0  0  0  0  0  0  0  0  1  0  0
   -0.2385   -0.2430   -0.3018 C   0  0  0  0  0  0  0  0  0  2  0  0
   -0.9597    0.0429    0.7284 N   0  0  0  0  0  0  0  0  0  3  0  0
    1.8123   -0.7332   -0.5026 H   0  0  0  0  0  0  0  0  0  4  0  0
    1.4790    0.6580    0.5496 H   0  0  0  0  0  0  0  0  0  5  0  0
    1.3668    0.8394   -1.2244 H   0  0  0  0  0  0  0  0  0  6  0  0
   -0.6614   -0.7973   -1.1563 H   0  0  0  0  0  0  0  0  0  7  0  0
   -1.9100    0.3380    0.4260 H   0  0  0  0  0  0  0  0  0  8  0  0
  1  5  1  0
  1  4  1  0
  1  6  1  0
  1  2  1  0
  2  3  1  0
  2  7  1  0
  3  8  1  0
M  END
>  <rmg_smiles>  (2) 
C[CH][NH]

>  <rmg_adjacency_list>  (2) 
1 N u0 p1 c0 {3,S} {8,S}
2 C u0 p0 c0 {3,S} {4,S} {5,S} {6,S}
3 C u0 p0 c0 {1,S} {2,S} {7,S}
4 H u0 p0 c0 {2,S}
5 H u0 p0 c0 {2,S}
6 H u0 p0 c0 {2,S}
7 H u0 p0 c0 {3,S}
8 H u0 p0 c0 {1,S}


>  <multiplicity>  (2) 
1

>  <reaction>  (2) 
rmg_rxn_16804

>  <type>  (2) 
r2h

>  <role_mapnums>  (2) 
{"r2h_a": 3, "r2h_h": 8}

>  <role_mapidx>  (2) 
{"r2h_a": 2, "r2h_h": 7}

>  <ordered_mapped_smiles>  (2) 
[C:1]([CH:2]([NH:3][H:8])[H:7])([H:4])([H:5])[H:6]

>  <mol_properties>  (2) 
{"2": {"label": "acceptor", "atom_type": "N3s"}, "7": {"label": "a_hydrogen", "atom_type": "H0"}}

>  <level_of_theory>  (2) 
wb97xd/def2tzvp

>  <lot_method>  (2) 
wb97xd

>  <lot_basis>  (2) 
def2tzvp

>  <spin_multiplicity>  (2) 
1.0

>  <optical_isomers>  (2) 
2.0

>  <modes>  (2) 
IdealGasTranslation(mass=(43.0422, 'amu')),         NonlinearRotor(             inertia = ([9.58574, 51.8782, 58.2459

>  <frequency_value>  (2) 
unknown

>  <frequency_units>  (2) 
unknown

>  <frequency_list>  (2) 
unknown

>  <arkane_path>  (2) 
/home/calvin/Dropbox/PersonalFolders/Calvin/ZEUS_Converged/rmg_rxn_16804/output/Species/rmg_rxn_16804_p1_CC=N/arkane/output.py

>  <path_exists>  (2) 
True

>  <E0_value>  (2) 
-351532.73105076194

>  <E0_units>  (2) 
kJ/mol

>  <thermo_class>  (2) 
NASA

>  <Cp0_value>  (2) 
33.257888

>  <Cp0_units>  (2) 
J/(mol*K)

>  <CpInf_value>  (2) 
182.918384

>  <CpInf_units>  (2) 
J/(mol*K)

>  <Tmin_value>  (2) 
10.0

>  <Tmin_units>  (2) 
K

>  <Tmax_value>  (2) 
3000.0

>  <Tmax_units>  (2) 
K

>  <polynomials>  (2) 
[{"name": "polynomial1", "class": "NASAPolynomial", "Tmin_value": 10.0, "Tmin_units": "K", "Tmax_value": 595.5373651451594, "Tmax_units": "K", "coeffs": [4.030703313481149, -0.00229058814131209, 6.377490274321222e-05, -8.93766559780865e-08, 4.0934862340445074e-11, -42279622.021195926, 7.585695917242757]}, {"name": "polynomial2", "class": "NASAPolynomial", "Tmin_value": 595.5373651451594, "Tmin_units": "K", "Tmax_value": 3000.0, "Tmax_units": "K", "coeffs": [-0.11565217745608042, 0.027337056045592743, -1.5327895767727505e-05, 4.187529468154553e-09, -4.469900950756201e-13, -42279159.691402115, 25.175708204040994]}]

>  <H298_value>  (2) 
-84015.34890439233

>  <H298_units>  (2) 
kcal/mol

>  <S298_value>  (2) 
63.57157650832207

>  <S298_units>  (2) 
cal/(mol*K)

>  <Cp_T_value_list>  (2) 
[13.913765714474152, 17.18194181639411, 20.300271898294582, 23.081632876583395, 27.63224015948139, 31.06808077557062, 36.31061676624832, 38.93985005203162, 40.26666894785372]

>  <Cp_T_units>  (2) 
cal/(mol*K)

>  <T_list>  (2) 
[300.0, 400.0, 500.0, 600.0, 800.0, 1000.0, 1500.0, 2000.0, 2400.0]

>  <T_units>  (2) 
K

>  <yaml_path>  (2) 
/home/calvin/Dropbox/PersonalFolders/Calvin/ZEUS_Converged/rmg_rxn_16804/output/Species/rmg_rxn_16804_p1_CC=N/rmg_rxn_16804_p1_CC=N.yml

>  <frequencies_cm1>  (2) 
[234.89896684124, 508.23245051851995, 714.5510244579199, 916.92108183832, 1068.95613682312, 1083.47981077492, 1139.4045392209998, 1281.18718512304, 1373.1841874550798, 1414.5234390814799, 1449.02317332916, 1470.9357234852798, 1633.2506554941199, 2948.45001890712, 3002.78847374428, 3084.88328324488, 3091.9562781244804, 3362.8176470865596]

>  <ZPE_kJmol>  (2) 
178.12068223241255

>  <E_elec_kJmol>  (2) 
-351710.8517329944

>  <E0_minus_Eelec_plus_ZPE_kJmol>  (2) 
0.0

>  <rxn>  (2) 
rmg_rxn_16804

>  <species_type>  (2) 
p0

>  <species_folder>  (2) 
rmg_rxn_16804_p1_CC=N

>  <frequencies_cm1_list>  (2) 
[234.89896684124, 508.23245051851995, 714.5510244579199, 916.92108183832, 1068.95613682312, 1083.47981077492, 1139.4045392209998, 1281.18718512304, 1373.1841874550798, 1414.5234390814799, 1449.02317332916, 1470.9357234852798, 1633.2506554941199, 2948.45001890712, 3002.78847374428, 3084.88328324488, 3091.9562781244804, 3362.8176470865596]

>  <E0_kJmol>  (2) 
-351533

>  <H298_kJmol>  (2) 
-351520

$$$$

     RDKit          3D

 17 15  0  0  0  0  0  0  0  0999 V2000
    3.4047   -0.1336   -0.2583 C   0  0  0  0  0  0  0  0  0  1  0  0
    1.9685   -0.5393   -0.1768 C   0  0  0  0  0  0  0  0  0  2  0  0
    1.2472   -0.2535    0.8534 N   0  0  0  0  0  0  0  0  0  3  0  0
    4.0192   -1.0296   -0.3776 H   0  0  0  0  0  0  0  0  0  4  0  0
    3.6859    0.3616    0.6746 H   0  0  0  0  0  0  0  0  0  5  0  0
    3.5737    0.5431   -1.0994 H   0  0  0  0  0  0  0  0  0  6  0  0
    1.5455   -1.0936   -1.0313 H   0  0  0  0  0  0  0  0  0  7  0  0
   -2.9044   -1.3556   -0.1354 C   0  0  0  0  0  0  0  0  0  8  0  0
   -1.9881   -0.4459   -0.0097 C   0  0  0  0  0  0  0  0  0  9  0  0
   -1.0696    0.4661    0.1163 C   0  0  0  0  0  3  0  0  0 10  0  0
   -1.2691    1.9220   -0.1422 C   0  0  0  0  0  0  0  0  0 11  0  0
   -3.0496   -1.8667   -1.0800 H   0  0  0  0  0  0  0  0  0 12  0  0
   -3.5412   -1.6177    0.7015 H   0  0  0  0  0  0  0  0  0 13  0  0
    0.1215    0.0962    0.4953 H   0  0  0  0  0  0  0  0  0 14  0  0
   -1.0556    2.4955    0.7649 H   0  0  0  0  0  0  0  0  0 15  0  0
   -2.2939    2.1447   -0.4562 H   0  0  0  0  0  0  0  0  0 16  0  0
   -0.5879    2.2586   -0.9297 H   0  0  0  0  0  0  0  0  0 17  0  0
  1  5  1  0
  1  4  1  0
  1  6  1  0
  1  2  1  0
  2  3  1  0
  2  7  1  0
  3 14  1  0
  8  9  1  0
  8 13  1  0
  8 12  1  0
  9 10  1  0
 10 11  1  0
 11 16  1  0
 11 15  1  0
 11 17  1  0
M  RAD  1  10   2
M  END
>  <rmg_smiles>  (3) 
[CH2][C][C]C.C[CH][NH]

>  <rmg_adjacency_list>  (3) 
multiplicity 2
1  N u0 p1 c0 {4,S} {17,S}
2  C u0 p0 c0 {4,S} {8,S} {9,S} {10,S}
3  C u0 p0 c0 {6,S} {11,S} {12,S} {13,S}
4  C u0 p0 c0 {1,S} {2,S} {14,S}
5  C u0 p0 c0 {7,S} {15,S} {16,S}
6  C u1 p1 c0 {3,S} {7,S}
7  C u0 p1 c0 {5,S} {6,S}
8  H u0 p0 c0 {2,S}
9  H u0 p0 c0 {2,S}
10 H u0 p0 c0 {2,S}
11 H u0 p0 c0 {3,S}
12 H u0 p0 c0 {3,S}
13 H u0 p0 c0 {3,S}
14 H u0 p0 c0 {4,S}
15 H u0 p0 c0 {5,S}
16 H u0 p0 c0 {5,S}
17 H u0 p0 c0 {1,S}


>  <multiplicity>  (3) 
2

>  <reaction>  (3) 
rmg_rxn_16804

>  <type>  (3) 
ts

>  <role_mapnums>  (3) 
{"*2": 14, "*1": 10, "*3": 3, "*0": 2, "*4": 9}

>  <role_mapidx>  (3) 
{"*2": 13, "*1": 9, "*3": 2, "*0": 1, "*4": 8}

>  <ordered_mapped_smiles>  (3) 
[C:1]([CH:2]([NH:3][H:14])[H:7])([H:4])([H:5])[H:6].[CH:8]([CH2:9][CH:10][C:11]([H:15])([H:16])[H:17])([H:12])[H:13]

>  <mol_properties>  (3) 
{"1": {"label": "*0", "atom_type": "Cs"}, "2": {"label": "*3", "atom_type": "N3s"}, "8": {"label": "*4", "atom_type": "C2s"}, "9": {"label": "*1", "atom_type": "C2s"}, "13": {"label": "*2", "atom_type": "H0"}}

>  <level_of_theory>  (3) 
wb97xd/def2tzvp

>  <lot_method>  (3) 
wb97xd

>  <lot_basis>  (3) 
def2tzvp

>  <spin_multiplicity>  (3) 
2.0

>  <optical_isomers>  (3) 
2.0

>  <modes>  (3) 
IdealGasTranslation(mass=(96.0813, 'amu')),         NonlinearRotor(             inertia = ([119.248, 481.506, 563.964

>  <frequency_value>  (3) 
-1749.82

>  <frequency_units>  (3) 
cm^-1

>  <frequency_list>  (3) 
unknown

>  <arkane_path>  (3) 
/home/calvin/Dropbox/PersonalFolders/Calvin/ZEUS_Converged/rmg_rxn_16804/output/rxns/TS0/arkane/output.py

>  <path_exists>  (3) 
True

>  <E0_value>  (3) 
-759040.0

>  <E0_units>  (3) 
kJ/mol

>  <thermo_class>  (3) 
unknown

>  <Cp0_value>  (3) 
unknown

>  <Cp0_units>  (3) 
unknown

>  <CpInf_value>  (3) 
unknown

>  <CpInf_units>  (3) 
unknown

>  <Tmin_value>  (3) 
unknown

>  <Tmin_units>  (3) 
unknown

>  <Tmax_value>  (3) 
unknown

>  <Tmax_units>  (3) 
unknown

>  <polynomials>  (3) 
unknown

>  <H298_value>  (3) 
unknown

>  <H298_units>  (3) 
unknown

>  <S298_value>  (3) 
unknown

>  <S298_units>  (3) 
unknown

>  <Cp_T_value_list>  (3) 
unknown

>  <Cp_T_units>  (3) 
unknown

>  <T_list>  (3) 
unknown

>  <T_units>  (3) 
unknown

>  <yaml_path>  (3) 
unknown

>  <frequencies_cm1>  (3) 
unknown

>  <ZPE_kJmol>  (3) 
unknown

>  <E_elec_kJmol>  (3) 
unknown

>  <E0_minus_Eelec_plus_ZPE_kJmol>  (3) 
unknown

>  <rxn>  (3) 
unknown

>  <species_type>  (3) 
unknown

>  <species_folder>  (3) 
unknown

>  <frequencies_cm1_list>  (3) 
[]

>  <ts_imag_freq_cm1>  (3) 
-1771.073

>  <ts_freq_out_path>  (3) 
/home/calvin/Dropbox/PersonalFolders/Calvin/ZEUS_Converged/rmg_rxn_16804/output/rxns/TS0/geometry/freq.out

>  <E0_kJmol>  (3) 
-759040

>  <H298_kJmol>  (3) 
unknown

$$$$

     RDKit          3D

  9  8  0  0  0  0  0  0  0  0999 V2000
   -2.1012    0.0000    0.0000 C   0  0  0  0  0  0  0  0  0  1  0  0
   -0.6874   -0.0000    0.0000 C   0  0  0  0  0  0  0  0  0  2  0  0
    0.5127   -0.0000    0.0000 C   0  0  0  0  0  3  0  0  0  3  0  0
    1.9753    0.0000    0.0000 C   0  0  0  0  0  0  0  0  0  4  0  0
   -2.6452   -0.9363    0.0000 H   0  0  0  0  0  0  0  0  0  5  0  0
   -2.6452    0.9363    0.0000 H   0  0  0  0  0  0  0  0  0  6  0  0
    2.3644   -0.6202   -0.8130 H   0  0  0  0  0  0  0  0  0  7  0  0
    2.3645   -0.3940    0.9437 H   0  0  0  0  0  0  0  0  0  8  0  0
    2.3644    1.0142   -0.1306 H   0  0  0  0  0  0  0  0  0  9  0  0
  1  5  1  0
  1  6  1  0
  1  2  1  0
  2  3  1  0
  3  4  1  0
  4  8  1  0
  4  9  1  0
  4  7  1  0
M  RAD  1   3   2
M  END
>  <rmg_smiles>  (4) 
[CH2]C[C]C

>  <rmg_adjacency_list>  (4) 
multiplicity 2
1 C u0 p0 c0 {3,S} {5,S} {6,S} {7,S}
2 C u0 p0 c0 {4,S} {8,S} {9,S}
3 C u1 p1 c0 {1,S} {4,S}
4 C u0 p1 c0 {2,S} {3,S}
5 H u0 p0 c0 {1,S}
6 H u0 p0 c0 {1,S}
7 H u0 p0 c0 {1,S}
8 H u0 p0 c0 {2,S}
9 H u0 p0 c0 {2,S}


>  <multiplicity>  (4) 
2

>  <reaction>  (4) 
rmg_rxn_16804

>  <type>  (4) 
r1

>  <role_mapnums>  (4) 
{}

>  <role_mapidx>  (4) 
{}

>  <ordered_mapped_smiles>  (4) 
[CH:1]([CH2:2][CH:3][C:4]([H:7])([H:8])[H:9])([H:5])[H:6]

>  <level_of_theory>  (4) 
wb97xd/def2tzvp

>  <lot_method>  (4) 
wb97xd

>  <lot_basis>  (4) 
def2tzvp

>  <spin_multiplicity>  (4) 
2.0

>  <optical_isomers>  (4) 
2.0

>  <modes>  (4) 
IdealGasTranslation(mass=(53.0391, 'amu')),         NonlinearRotor(             inertia = ([4.92862, 141.151, 142.917

>  <frequency_value>  (4) 
unknown

>  <frequency_units>  (4) 
unknown

>  <frequency_list>  (4) 
unknown

>  <arkane_path>  (4) 
/home/calvin/Dropbox/PersonalFolders/Calvin/ZEUS_Converged/rmg_rxn_16804/output/Species/rmg_rxn_16804_p2_sbr-CH2-sbrCtCC/arkane/output.py

>  <path_exists>  (4) 
True

>  <E0_value>  (4) 
-407620.0033975131

>  <E0_units>  (4) 
kJ/mol

>  <thermo_class>  (4) 
NASA

>  <Cp0_value>  (4) 
33.257888

>  <Cp0_units>  (4) 
J/(mol*K)

>  <CpInf_value>  (4) 
207.8618

>  <CpInf_units>  (4) 
J/(mol*K)

>  <Tmin_value>  (4) 
10.0

>  <Tmin_units>  (4) 
K

>  <Tmax_value>  (4) 
3000.0

>  <Tmax_units>  (4) 
K

>  <polynomials>  (4) 
[{"name": "polynomial1", "class": "NASAPolynomial", "Tmin_value": 10.0, "Tmin_units": "K", "Tmax_value": 245.84595194255434, "Tmax_units": "K", "coeffs": [3.9354444503861887, 0.006141494206478007, 0.00017101736772522354, -6.686089390458935e-07, 8.553290059782112e-10, -49025363.68546975, 9.03681196110223]}, {"name": "polynomial2", "class": "NASAPolynomial", "Tmin_value": 245.84595194255434, "Tmin_units": "K", "Tmax_value": 3000.0, "Tmax_units": "K", "coeffs": [3.318221924607803, 0.0263892934377049, -1.4789054385763142e-05, 4.097661503070868e-09, -4.479904178737164e-13, -49025364.17789022, 10.521322358527469]}]

>  <H298_value>  (4) 
-97419.4725219053

>  <H298_units>  (4) 
kcal/mol

>  <S298_value>  (4) 
72.86718958404663

>  <S298_units>  (4) 
cal/(mol*K)

>  <Cp_T_value_list>  (4) 
[19.893930638936695, 23.366512753787923, 26.429475518401574, 29.122061635959106, 33.54239174898248, 36.89871274371303, 42.10581723012409, 44.819528145482, 46.20334333419924]

>  <Cp_T_units>  (4) 
cal/(mol*K)

>  <T_list>  (4) 
[300.0, 400.0, 500.0, 600.0, 800.0, 1000.0, 1500.0, 2000.0, 2400.0]

>  <T_units>  (4) 
K

>  <yaml_path>  (4) 
/home/calvin/Dropbox/PersonalFolders/Calvin/ZEUS_Converged/rmg_rxn_16804/output/Species/rmg_rxn_16804_p2_sbr-CH2-sbrCtCC/rmg_rxn_16804_p2_sbr-CH2-sbrCtCC.yml

>  <frequencies_cm1>  (4) 
[150.33890961076, 229.75559483655996, 248.87328196744, 378.18548252836, 412.6577488347599, 633.94635077176, 734.2730062969599, 1028.89414446624, 1034.96455948912, 1051.3217185213598, 1149.2449291845599, 1402.56115065404, 1433.4488506233997, 1464.3296836074398, 1466.0670308933998, 2234.2148757739196, 2991.8837010561197, 3059.8187868268797, 3063.06000389792, 3116.6499573352003, 3222.16805376232]

>  <ZPE_kJmol>  (4) 
182.4703876241142

>  <E_elec_kJmol>  (4) 
-407802.4737851372

>  <E0_minus_Eelec_plus_ZPE_kJmol>  (4) 
0.0

>  <rxn>  (4) 
rmg_rxn_16804

>  <species_type>  (4) 
p1

>  <species_folder>  (4) 
rmg_rxn_16804_p2_sbr-CH2-sbrCtCC

>  <frequencies_cm1_list>  (4) 
[150.33890961076, 229.75559483655996, 248.87328196744, 378.18548252836, 412.6577488347599, 633.94635077176, 734.2730062969599, 1028.89414446624, 1034.96455948912, 1051.3217185213598, 1149.2449291845599, 1402.56115065404, 1433.4488506233997, 1464.3296836074398, 1466.0670308933998, 2234.2148757739196, 2991.8837010561197, 3059.8187868268797, 3063.06000389792, 3116.6499573352003, 3222.16805376232]

>  <E0_kJmol>  (4) 
-407620

>  <H298_kJmol>  (4) 
-407603

$$$$

     RDKit          3D

  7  6  0  0  0  0  0  0  0  0999 V2000
    1.1443   -0.1870   -0.0026 C   0  0  0  0  0  0  0  0  0  1  0  0
   -0.1897    0.4747   -0.0008 C   0  0  0  0  0  0  0  0  0  2  0  0
   -1.4128   -0.3182   -0.0012 N   0  0  0  0  0  2  0  0  0  3  0  0
    1.7295    0.1072   -0.8768 H   0  0  0  0  0  0  0  0  0  4  0  0
    1.0018   -1.2707   -0.0040 H   0  0  0  0  0  0  0  0  0  5  0  0
    1.6793    0.0928    0.9085 H   0  0  0  0  0  0  0  0  0  6  0  0
   -0.2483    1.5721    0.0008 H   0  0  0  0  0  0  0  0  0  7  0  0
  1  5  1  0
  1  4  1  0
  1  6  1  0
  1  2  1  0
  2  3  1  0
  2  7  1  0
M  RAD  1   3   2
M  END
>  <rmg_smiles>  (5) 
C[CH][N]

>  <rmg_adjacency_list>  (5) 
multiplicity 2
1 N u1 p2 c0 {3,S}
2 C u0 p0 c0 {3,S} {4,S} {5,S} {6,S}
3 C u0 p0 c0 {1,S} {2,S} {7,S}
4 H u0 p0 c0 {2,S}
5 H u0 p0 c0 {2,S}
6 H u0 p0 c0 {2,S}
7 H u0 p0 c0 {3,S}


>  <multiplicity>  (5) 
2

>  <reaction>  (5) 
rmg_rxn_16804

>  <type>  (5) 
r2

>  <role_mapnums>  (5) 
{}

>  <role_mapidx>  (5) 
{}

>  <ordered_mapped_smiles>  (5) 
[C:1]([CH:2]([NH:3])[H:7])([H:4])([H:5])[H:6]

>  <level_of_theory>  (5) 
wb97xd/def2tzvp

>  <lot_method>  (5) 
wb97xd

>  <lot_basis>  (5) 
def2tzvp

>  <spin_multiplicity>  (5) 
2.0

>  <optical_isomers>  (5) 
2.0

>  <modes>  (5) 
IdealGasTranslation(mass=(42.0344, 'amu')),         NonlinearRotor(             inertia = ([10.2421, 52.2612, 59.29

>  <frequency_value>  (5) 
unknown

>  <frequency_units>  (5) 
unknown

>  <frequency_list>  (5) 
unknown

>  <arkane_path>  (5) 
/home/calvin/Dropbox/PersonalFolders/Calvin/ZEUS_Converged/rmg_rxn_16804/output/Species/rmg_rxn_16804_r1_CC=sbr-N-sbr/arkane/output.py

>  <path_exists>  (5) 
True

>  <E0_value>  (5) 
-349751.721788727

>  <E0_units>  (5) 
kJ/mol

>  <thermo_class>  (5) 
NASA

>  <Cp0_value>  (5) 
33.257888

>  <Cp0_units>  (5) 
J/(mol*K)

>  <CpInf_value>  (5) 
157.97496800000002

>  <CpInf_units>  (5) 
J/(mol*K)

>  <Tmin_value>  (5) 
10.0

>  <Tmin_units>  (5) 
K

>  <Tmax_value>  (5) 
3000.0

>  <Tmax_units>  (5) 
K

>  <polynomials>  (5) 
[{"name": "polynomial1", "class": "NASAPolynomial", "Tmin_value": 10.0, "Tmin_units": "K", "Tmax_value": 490.5339132301173, "Tmax_units": "K", "coeffs": [4.049312896346921, -0.004985483903637657, 9.188674937783723e-05, -1.6705919118097335e-07, 1.0075842881274692e-10, -42065415.26613993, 8.250100476398787]}, {"name": "polynomial2", "class": "NASAPolynomial", "Tmin_value": 490.5339132301173, "Tmin_units": "K", "Tmax_value": 3000.0, "Tmax_units": "K", "coeffs": [1.4392260072994894, 0.022923427553041862, -1.3715069243975608e-05, 3.99413304138486e-09, -4.512332533348987e-13, -42065238.90871145, 18.170718207182137]}]

>  <H298_value>  (5) 
-83589.65829927742

>  <H298_units>  (5) 
kcal/mol

>  <S298_value>  (5) 
64.85980261331086

>  <S298_units>  (5) 
cal/(mol*K)

>  <Cp_T_value_list>  (5) 
[14.166835447369518, 17.178658530327862, 19.75926525596328, 21.978723523854637, 25.556458693643158, 28.199422264007993, 32.11582493875913, 34.098747435079204, 35.17497009220758]

>  <Cp_T_units>  (5) 
cal/(mol*K)

>  <T_list>  (5) 
[300.0, 400.0, 500.0, 600.0, 800.0, 1000.0, 1500.0, 2000.0, 2400.0]

>  <T_units>  (5) 
K

>  <yaml_path>  (5) 
/home/calvin/Dropbox/PersonalFolders/Calvin/ZEUS_Converged/rmg_rxn_16804/output/Species/rmg_rxn_16804_r1_CC=sbr-N-sbr/rmg_rxn_16804_r1_CC=sbr-N-sbr.yml

>  <frequencies_cm1>  (5) 
[297.87608921095995, 485.33105447632, 632.46994892796, 761.9950260338, 963.56851311708, 1053.4504839705598, 1115.1846819973598, 1278.66013452528, 1382.24860807748, 1460.12022160628, 1464.0756051506, 3000.5498365299595, 3020.7181724148, 3081.38112073168, 3090.17086194128]

>  <ZPE_kJmol>  (5) 
138.09575291957125

>  <E_elec_kJmol>  (5) 
-349889.81754164654

>  <E0_minus_Eelec_plus_ZPE_kJmol>  (5) 
0.0

>  <rxn>  (5) 
rmg_rxn_16804

>  <species_type>  (5) 
r0

>  <species_folder>  (5) 
rmg_rxn_16804_r1_CC=sbr-N-sbr

>  <frequencies_cm1_list>  (5) 
[297.87608921095995, 485.33105447632, 632.46994892796, 761.9950260338, 963.56851311708, 1053.4504839705598, 1115.1846819973598, 1278.66013452528, 1382.24860807748, 1460.12022160628, 1464.0756051506, 3000.5498365299595, 3020.7181724148, 3081.38112073168, 3090.17086194128]

>  <E0_kJmol>  (5) 
-349752

>  <H298_kJmol>  (5) 
-349739

$$$$
