
     RDKit          3D

  4  3  0  0  0  0  0  0  0  0999 V2000
   -0.9203    0.0016   -0.5498 O   0  0  0  0  0  0  0  0  0  1  0  0
   -0.0393   -0.3576    0.3124 N   0  0  0  0  0  0  0  0  0  2  0  0
    0.9843    0.2506    0.3510 O   0  0  0  0  0  0  0  0  0  3  0  0
   -0.5715    0.7485   -1.0418 H   0  0  0  0  0  0  0  0  0  4  0  0
  1  2  1  0
  1  4  1  0
  2  3  1  0
M  END
>  <rmg_smiles>  (1) 
[O][N]O

>  <rmg_adjacency_list>  (1) 
1 O u0 p2 c0 {3,S} {4,S}
2 O u0 p2 c0 {3,S}
3 N u0 p1 c0 {1,S} {2,S}
4 H u0 p0 c0 {1,S}


>  <multiplicity>  (1) 
1

>  <reaction>  (1) 
rmg_rxn_15636

>  <type>  (1) 
r1h

>  <role_mapnums>  (1) 
{"r1h_a": 1, "r1h_h": 4}

>  <role_mapidx>  (1) 
{"r1h_a": 0, "r1h_h": 3}

>  <ordered_mapped_smiles>  (1) 
[O:1]([NH:2][OH:3])[H:4]

>  <mol_properties>  (1) 
{"0": {"label": "donator", "atom_type": "O2s"}, "3": {"label": "d_hydrogen", "atom_type": "H0"}}

>  <level_of_theory>  (1) 
wb97xd/def2tzvp

>  <lot_method>  (1) 
wb97xd

>  <lot_basis>  (1) 
def2tzvp

>  <spin_multiplicity>  (1) 
1.0

>  <optical_isomers>  (1) 
1.0

>  <modes>  (1) 
IdealGasTranslation(mass=(47.0007, 'amu')),         NonlinearRotor(             inertia = ([5.85585, 37.1292, 42.985

>  <frequency_value>  (1) 
unknown

>  <frequency_units>  (1) 
unknown

>  <frequency_list>  (1) 
unknown

>  <arkane_path>  (1) 
/home/calvin/Dropbox/PersonalFolders/Calvin/ZEUS_Converged/rmg_rxn_15636/output/Species/rmg_rxn_15636_r1_ON=O/arkane/output.py

>  <path_exists>  (1) 
True

>  <E0_value>  (1) 
-540078.5942529333

>  <E0_units>  (1) 
kJ/mol

>  <thermo_class>  (1) 
NASA

>  <Cp0_value>  (1) 
33.257888

>  <Cp0_units>  (1) 
J/(mol*K)

>  <CpInf_value>  (1) 
83.14472

>  <CpInf_units>  (1) 
J/(mol*K)

>  <Tmin_value>  (1) 
10.0

>  <Tmin_units>  (1) 
K

>  <Tmax_value>  (1) 
3000.0

>  <Tmax_units>  (1) 
K

>  <polynomials>  (1) 
[{"name": "polynomial1", "class": "NASAPolynomial", "Tmin_value": 10.0, "Tmin_units": "K", "Tmax_value": 612.0643897395777, "Tmax_units": "K", "coeffs": [4.0600857452062735, -0.005003345064429928, 4.853845019464716e-05, -7.775324969230841e-08, 4.0459407904253375e-11, -64956451.21114784, 6.457820799308927]}, {"name": "polynomial2", "class": "NASAPolynomial", "Tmin_value": 612.0643897395777, "Tmin_units": "K", "Tmax_value": 3000.0, "Tmax_units": "K", "coeffs": [2.9193437592381053, 0.009916245223045126, -6.318854045102609e-06, 1.923369739597041e-09, -2.2344958697478614e-13, -64956451.389076084, 10.259035440863206]}]

>  <H298_value>  (1) 
-129079.33524779696

>  <H298_units>  (1) 
kcal/mol

>  <S298_value>  (1) 
58.91392971376136

>  <S298_units>  (1) 
cal/(mol*K)

>  <Cp_T_value_list>  (1) 
[10.245890074471536, 11.693622486364122, 12.921974304699056, 13.872207892773629, 15.304498101096991, 16.328190410569672, 17.758570202857868, 18.457536745620374, 18.872252251724756]

>  <Cp_T_units>  (1) 
cal/(mol*K)

>  <T_list>  (1) 
[300.0, 400.0, 500.0, 600.0, 800.0, 1000.0, 1500.0, 2000.0, 2400.0]

>  <T_units>  (1) 
K

>  <yaml_path>  (1) 
/home/calvin/Dropbox/PersonalFolders/Calvin/ZEUS_Converged/rmg_rxn_15636/output/Species/rmg_rxn_15636_r1_ON=O/rmg_rxn_15636_r1_ON=O.yml

>  <frequencies_cm1>  (1) 
[677.3800329207598, 710.56817297232, 946.5109215821999, 1350.5025349431198, 1733.8176555055202, 3605.3046327064]

>  <ZPE_kJmol>  (1) 
53.97602405642365

>  <E_elec_kJmol>  (1) 
-540132.5702769897

>  <E0_minus_Eelec_plus_ZPE_kJmol>  (1) 
0.0

>  <rxn>  (1) 
rmg_rxn_15636

>  <species_type>  (1) 
r0

>  <species_folder>  (1) 
rmg_rxn_15636_r1_ON=O

>  <frequencies_cm1_list>  (1) 
[677.3800329207598, 710.56817297232, 946.5109215821999, 1350.5025349431198, 1733.8176555055202, 3605.3046327064]

>  <E0_kJmol>  (1) 
-540079

>  <H298_kJmol>  (1) 
-540068

$$$$

     RDKit          3D

  9  8  0  0  0  0  0  0  0  0999 V2000
    1.0439   -1.4262    1.2815 H   0  0  0  0  0  0  0  0  0  1  0  0
    1.4005   -0.5825    0.6965 C   0  0  0  0  0  0  0  0  0  2  0  0
    0.4809   -0.3272   -0.2780 O   0  0  0  0  0  0  0  0  0  3  0  0
   -0.5631    0.4540    0.2076 N   0  0  0  0  0  0  0  0  0  4  0  0
   -1.4716    0.5785   -0.6598 C   0  0  0  0  0  0  0  0  0  5  0  0
    2.3204   -0.9448    0.2481 H   0  0  0  0  0  0  0  0  0  6  0  0
    1.4997    0.2063    1.4393 H   0  0  0  0  0  0  0  0  0  7  0  0
   -2.3231    1.1830   -0.3766 H   0  0  0  0  0  0  0  0  0  8  0  0
   -1.4187    0.1123   -1.6403 H   0  0  0  0  0  0  0  0  0  9  0  0
  1  2  1  0
  2  7  1  0
  2  3  1  0
  2  6  1  0
  3  4  1  0
  4  5  1  0
  5  8  1  0
  5  9  1  0
M  END
>  <rmg_smiles>  (2) 
CO[N][CH2]

>  <rmg_adjacency_list>  (2) 
1 O u0 p2 c0 {2,S} {3,S}
2 N u0 p1 c0 {1,S} {4,S}
3 C u0 p0 c0 {1,S} {5,S} {6,S} {7,S}
4 C u0 p0 c0 {2,S} {8,S} {9,S}
5 H u0 p0 c0 {3,S}
6 H u0 p0 c0 {3,S}
7 H u0 p0 c0 {3,S}
8 H u0 p0 c0 {4,S}
9 H u0 p0 c0 {4,S}


>  <multiplicity>  (2) 
1

>  <reaction>  (2) 
rmg_rxn_15636

>  <type>  (2) 
r2h

>  <role_mapnums>  (2) 
{"r2h_a": 2, "r2h_h": 1}

>  <role_mapidx>  (2) 
{"r2h_a": 1, "r2h_h": 0}

>  <ordered_mapped_smiles>  (2) 
[H:1][C:2]([O:3][NH:4][CH:5]([H:8])[H:9])([H:6])[H:7]

>  <mol_properties>  (2) 
{"0": {"label": "a_hydrogen", "atom_type": "H0"}, "1": {"label": "acceptor", "atom_type": "Cs"}}

>  <level_of_theory>  (2) 
wb97xd/def2tzvp

>  <lot_method>  (2) 
wb97xd

>  <lot_basis>  (2) 
def2tzvp

>  <spin_multiplicity>  (2) 
1.0

>  <optical_isomers>  (2) 
1.0

>  <modes>  (2) 
IdealGasTranslation(mass=(59.0371, 'amu')),         NonlinearRotor(             inertia = ([11.9742, 101.538, 110.304

>  <frequency_value>  (2) 
unknown

>  <frequency_units>  (2) 
unknown

>  <frequency_list>  (2) 
unknown

>  <arkane_path>  (2) 
/home/calvin/Dropbox/PersonalFolders/Calvin/ZEUS_Converged/rmg_rxn_15636/output/Species/rmg_rxn_15636_p2_CON=C/arkane/output.py

>  <path_exists>  (2) 
True

>  <E0_value>  (2) 
-548882.9200394232

>  <E0_units>  (2) 
kJ/mol

>  <thermo_class>  (2) 
NASA

>  <Cp0_value>  (2) 
33.257888

>  <Cp0_units>  (2) 
J/(mol*K)

>  <CpInf_value>  (2) 
207.8618

>  <CpInf_units>  (2) 
J/(mol*K)

>  <Tmin_value>  (2) 
10.0

>  <Tmin_units>  (2) 
K

>  <Tmax_value>  (2) 
3000.0

>  <Tmax_units>  (2) 
K

>  <polynomials>  (2) 
[{"name": "polynomial1", "class": "NASAPolynomial", "Tmin_value": 10.0, "Tmin_units": "K", "Tmax_value": 1066.0445442103917, "Tmax_units": "K", "coeffs": [3.9488472240731216, 0.012909444164008412, 1.8432835387873368e-05, -2.5565901414715004e-08, 8.632634293818456e-12, -66015370.98001154, 7.906058800048573]}, {"name": "polynomial2", "class": "NASAPolynomial", "Tmin_value": 1066.0445442103917, "Tmin_units": "K", "Tmax_value": 3000.0, "Tmax_units": "K", "coeffs": [4.051174026649639, 0.02340322367340144, -1.163838712217072e-05, 2.8112466199843713e-09, -2.6680947262736413e-13, -66016010.897278614, 4.506810904924114]}]

>  <H298_value>  (2) 
-131182.46582067996

>  <H298_units>  (2) 
kcal/mol

>  <S298_value>  (2) 
69.27397375028742

>  <S298_units>  (2) 
cal/(mol*K)

>  <Cp_T_value_list>  (2) 
[17.607207323409234, 21.157104611048137, 24.5530891366924, 27.67560467885903, 32.827861850696166, 36.480858050170255, 41.94371504002133, 44.76201379304356, 46.08804102499818]

>  <Cp_T_units>  (2) 
cal/(mol*K)

>  <T_list>  (2) 
[300.0, 400.0, 500.0, 600.0, 800.0, 1000.0, 1500.0, 2000.0, 2400.0]

>  <T_units>  (2) 
K

>  <yaml_path>  (2) 
/home/calvin/Dropbox/PersonalFolders/Calvin/ZEUS_Converged/rmg_rxn_15636/output/Species/rmg_rxn_15636_p2_CON=C/rmg_rxn_15636_p2_CON=C.yml

>  <frequencies_cm1>  (2) 
[119.61601728907998, 180.59484693068, 346.29520270228, 574.9726808436, 796.6046320465999, 891.08061607916, 982.9746136314, 1126.32979917172, 1169.7222794088, 1171.7686410341598, 1237.71230106212, 1418.12173938916, 1456.2266409298397, 1467.4060930307999, 1493.1160860688801, 1708.0183916582798, 3005.45973103376, 3077.28153049564, 3083.54422110748, 3121.53925088304, 3213.405780494]

>  <ZPE_kJmol>  (2) 
189.2599943319938

>  <E_elec_kJmol>  (2) 
-549072.1800337551

>  <E0_minus_Eelec_plus_ZPE_kJmol>  (2) 
0.0

>  <rxn>  (2) 
rmg_rxn_15636

>  <species_type>  (2) 
p1

>  <species_folder>  (2) 
rmg_rxn_15636_p2_CON=C

>  <frequencies_cm1_list>  (2) 
[119.61601728907998, 180.59484693068, 346.29520270228, 574.9726808436, 796.6046320465999, 891.08061607916, 982.9746136314, 1126.32979917172, 1169.7222794088, 1171.7686410341598, 1237.71230106212, 1418.12173938916, 1456.2266409298397, 1467.4060930307999, 1493.1160860688801, 1708.0183916582798, 3005.45973103376, 3077.28153049564, 3083.54422110748, 3121.53925088304, 3213.405780494]

>  <E0_kJmol>  (2) 
-548883

>  <H298_kJmol>  (2) 
-548867

$$$$

     RDKit          3D

 12 10  0  0  0  0  0  0  0  0999 V2000
   -0.0980   -1.3409    1.0230 O   0  0  0  0  0  0  0  0  0  1  0  0
    0.7830   -1.7001    1.8852 N   0  0  0  0  0  0  0  0  0  2  0  0
    1.8066   -1.0919    1.9238 O   0  0  0  0  0  0  0  0  0  3  0  0
    0.3523   -0.3768    0.3879 H   0  0  0  0  0  0  0  0  0  4  0  0
    0.7930    0.6658   -0.3349 C   0  0  0  0  0  3  0  0  0  5  0  0
   -0.1266    0.9211   -1.3094 O   0  0  0  0  0  0  0  0  0  6  0  0
   -1.1706    1.7023   -0.8238 N   0  0  0  0  0  0  0  0  0  7  0  0
   -2.0792    1.8268   -1.6912 C   0  0  0  0  0  0  0  0  0  8  0  0
    1.7129    0.3035   -0.7834 H   0  0  0  0  0  0  0  0  0  9  0  0
    0.8922    1.4546    0.4079 H   0  0  0  0  0  0  0  0  0 10  0  0
   -2.9306    2.4314   -1.4081 H   0  0  0  0  0  0  0  0  0 11  0  0
   -2.0263    1.3606   -2.6718 H   0  0  0  0  0  0  0  0  0 12  0  0
  1  4  1  0
  1  2  1  0
  2  3  1  0
  5  6  1  0
  5  9  1  0
  5 10  1  0
  6  7  1  0
  7  8  1  0
  8 12  1  0
  8 11  1  0
M  RAD  1   5   2
M  END
>  <rmg_smiles>  (3) 
[CH2]O[N][CH2].[O][N]O

>  <rmg_adjacency_list>  (3) 
multiplicity 2
1  O u0 p2 c0 {4,S} {6,S}
2  O u0 p2 c0 {5,S} {12,S}
3  O u0 p2 c0 {5,S}
4  N u0 p1 c0 {1,S} {7,S}
5  N u0 p1 c0 {2,S} {3,S}
6  C u1 p0 c0 {1,S} {8,S} {9,S}
7  C u0 p0 c0 {4,S} {10,S} {11,S}
8  H u0 p0 c0 {6,S}
9  H u0 p0 c0 {6,S}
10 H u0 p0 c0 {7,S}
11 H u0 p0 c0 {7,S}
12 H u0 p0 c0 {2,S}


>  <multiplicity>  (3) 
2

>  <reaction>  (3) 
rmg_rxn_15636

>  <type>  (3) 
ts

>  <role_mapnums>  (3) 
{"*2": 4, "*1": 1, "*3": 5, "*0": 2, "*4": 6}

>  <role_mapidx>  (3) 
{"*2": 3, "*1": 0, "*3": 4, "*0": 1, "*4": 5}

>  <ordered_mapped_smiles>  (3) 
[O:1]([NH:2][OH:3])[H:4].[C:5]([O:6][NH:7][CH:8]([H:11])[H:12])([H:9])[H:10]

>  <mol_properties>  (3) 
{"0": {"label": "*1", "atom_type": "O2s"}, "1": {"label": "*0", "atom_type": "N3s"}, "3": {"label": "*2", "atom_type": "H0"}, "4": {"label": "*3", "atom_type": "Cs"}, "5": {"label": "*4", "atom_type": "O2s"}}

>  <level_of_theory>  (3) 
wb97xd/def2tzvp

>  <lot_method>  (3) 
wb97xd

>  <lot_basis>  (3) 
def2tzvp

>  <spin_multiplicity>  (3) 
2.0

>  <optical_isomers>  (3) 
2.0

>  <modes>  (3) 
IdealGasTranslation(mass=(105.03, 'amu')),         NonlinearRotor(             inertia = ([67.2881, 506.575, 546.545

>  <frequency_value>  (3) 
-1657.13

>  <frequency_units>  (3) 
cm^-1

>  <frequency_list>  (3) 
unknown

>  <arkane_path>  (3) 
/home/calvin/Dropbox/PersonalFolders/Calvin/ZEUS_Converged/rmg_rxn_15636/output/rxns/TS0/arkane/output.py

>  <path_exists>  (3) 
True

>  <E0_value>  (3) 
-1087240.0

>  <E0_units>  (3) 
kJ/mol

>  <thermo_class>  (3) 
unknown

>  <Cp0_value>  (3) 
unknown

>  <Cp0_units>  (3) 
unknown

>  <CpInf_value>  (3) 
unknown

>  <CpInf_units>  (3) 
unknown

>  <Tmin_value>  (3) 
unknown

>  <Tmin_units>  (3) 
unknown

>  <Tmax_value>  (3) 
unknown

>  <Tmax_units>  (3) 
unknown

>  <polynomials>  (3) 
unknown

>  <H298_value>  (3) 
unknown

>  <H298_units>  (3) 
unknown

>  <S298_value>  (3) 
unknown

>  <S298_units>  (3) 
unknown

>  <Cp_T_value_list>  (3) 
unknown

>  <Cp_T_units>  (3) 
unknown

>  <T_list>  (3) 
unknown

>  <T_units>  (3) 
unknown

>  <yaml_path>  (3) 
unknown

>  <frequencies_cm1>  (3) 
unknown

>  <ZPE_kJmol>  (3) 
unknown

>  <E_elec_kJmol>  (3) 
unknown

>  <E0_minus_Eelec_plus_ZPE_kJmol>  (3) 
unknown

>  <rxn>  (3) 
unknown

>  <species_type>  (3) 
unknown

>  <species_folder>  (3) 
unknown

>  <frequencies_cm1_list>  (3) 
[]

>  <ts_imag_freq_cm1>  (3) 
-1677.257

>  <ts_freq_out_path>  (3) 
/home/calvin/Dropbox/PersonalFolders/Calvin/ZEUS_Converged/rmg_rxn_15636/output/rxns/TS0/geometry/freq.out

>  <E0_kJmol>  (3) 
-1.08724e+06

>  <H298_kJmol>  (3) 
unknown

$$$$

     RDKit          3D

  3  2  0  0  0  0  0  0  0  0999 V2000
    1.0961   -0.1123    0.0000 O   0  0  0  0  0  0  0  0  0  1  0  0
   -0.0112    0.3049    0.0000 N   0  0  0  0  0  0  0  0  0  2  0  0
   -1.0848   -0.1926    0.0000 O   0  0  0  0  0  1  0  0  0  3  0  0
  1  2  1  0
  2  3  1  0
M  RAD  1   3   2
M  END
>  <rmg_smiles>  (4) 
[O][N][O]

>  <rmg_adjacency_list>  (4) 
multiplicity 2
1 O u1 p2 c0 {3,S}
2 O u0 p2 c0 {3,S}
3 N u0 p1 c0 {1,S} {2,S}


>  <multiplicity>  (4) 
2

>  <reaction>  (4) 
rmg_rxn_15636

>  <type>  (4) 
r1

>  <role_mapnums>  (4) 
{}

>  <role_mapidx>  (4) 
{}

>  <ordered_mapped_smiles>  (4) 
[OH:1][NH:2][O:3]

>  <level_of_theory>  (4) 
wb97xd/def2tzvp

>  <lot_method>  (4) 
wb97xd

>  <lot_basis>  (4) 
def2tzvp

>  <spin_multiplicity>  (4) 
2.0

>  <optical_isomers>  (4) 
1.0

>  <modes>  (4) 
IdealGasTranslation(mass=(45.9929, 'amu')),         NonlinearRotor(             inertia = ([2.03949, 38.09, 40.1295

>  <frequency_value>  (4) 
unknown

>  <frequency_units>  (4) 
unknown

>  <frequency_list>  (4) 
unknown

>  <arkane_path>  (4) 
/home/calvin/Dropbox/PersonalFolders/Calvin/ZEUS_Converged/rmg_rxn_15636/output/Species/rmg_rxn_15636_p1_sbr-O--sbrsbr-Np-sbr=O/arkane/output.py

>  <path_exists>  (4) 
True

>  <E0_value>  (4) 
-538456.0889257833

>  <E0_units>  (4) 
kJ/mol

>  <thermo_class>  (4) 
NASA

>  <Cp0_value>  (4) 
33.257888

>  <Cp0_units>  (4) 
J/(mol*K)

>  <CpInf_value>  (4) 
58.201304

>  <CpInf_units>  (4) 
J/(mol*K)

>  <Tmin_value>  (4) 
10.0

>  <Tmin_units>  (4) 
K

>  <Tmax_value>  (4) 
3000.0

>  <Tmax_units>  (4) 
K

>  <polynomials>  (4) 
[{"name": "polynomial1", "class": "NASAPolynomial", "Tmin_value": 10.0, "Tmin_units": "K", "Tmax_value": 829.6642369079798, "Tmax_units": "K", "coeffs": [4.0308960454276175, -0.001974991953825363, 1.609876784052445e-05, -1.920724110169219e-08, 7.297814790735689e-12, -64761309.78244463, 5.868078151384596]}, {"name": "polynomial2", "class": "NASAPolynomial", "Tmin_value": 829.6642369079798, "Tmin_units": "K", "Tmax_value": 3000.0, "Tmax_units": "K", "coeffs": [2.9738220327243696, 0.0060846607858577135, -3.830218007662542e-06, 1.111371667342878e-09, -1.2191261586384878e-13, -64761236.366017915, 10.155829955508297]}]

>  <H298_value>  (4) 
-128691.66925982916

>  <H298_units>  (4) 
kcal/mol

>  <S298_value>  (4) 
57.23889332642445

>  <S298_units>  (4) 
cal/(mol*K)

>  <Cp_T_value_list>  (4) 
[8.798961599190521, 9.487445967148588, 10.181055693024502, 10.807402712467155, 11.74278355458733, 12.355901280507831, 13.148390472177498, 13.438768249915762, 13.58014420362849]

>  <Cp_T_units>  (4) 
cal/(mol*K)

>  <T_list>  (4) 
[300.0, 400.0, 500.0, 600.0, 800.0, 1000.0, 1500.0, 2000.0, 2400.0]

>  <T_units>  (4) 
K

>  <yaml_path>  (4) 
/home/calvin/Dropbox/PersonalFolders/Calvin/ZEUS_Converged/rmg_rxn_15636/output/Species/rmg_rxn_15636_p1_sbr-O--sbrsbr-Np-sbr=O/rmg_rxn_15636_p1_sbr-O--sbrsbr-Np-sbr=O.yml

>  <frequencies_cm1>  (4) 
[773.57963026864, 1428.1132030297597, 1743.1018196581601]

>  <ZPE_kJmol>  (4) 
23.59511860156866

>  <E_elec_kJmol>  (4) 
-538479.6840443849

>  <E0_minus_Eelec_plus_ZPE_kJmol>  (4) 
0.0

>  <rxn>  (4) 
rmg_rxn_15636

>  <species_type>  (4) 
p0

>  <species_folder>  (4) 
rmg_rxn_15636_p1_sbr-O--sbrsbr-Np-sbr=O

>  <frequencies_cm1_list>  (4) 
[773.57963026864, 1428.1132030297597, 1743.1018196581601]

>  <E0_kJmol>  (4) 
-538456

>  <H298_kJmol>  (4) 
-538446

$$$$

     RDKit          3D

  8  7  0  0  0  0  0  0  0  0999 V2000
    1.7077   -0.1964   -0.0607 C   0  0  0  0  0  3  0  0  0  1  0  0
    0.4209   -0.4565    0.2808 O   0  0  0  0  0  0  0  0  0  2  0  0
   -0.4607    0.4385   -0.2968 N   0  0  0  0  0  0  0  0  0  3  0  0
   -1.6584    0.1416   -0.0244 C   0  0  0  0  0  0  0  0  0  4  0  0
    2.4163   -0.7685    0.5170 H   0  0  0  0  0  0  0  0  0  5  0  0
    1.9214    0.7645   -0.5045 H   0  0  0  0  0  0  0  0  0  6  0  0
   -2.4185    0.7953   -0.4307 H   0  0  0  0  0  0  0  0  0  7  0  0
   -1.9286   -0.7185    0.5831 H   0  0  0  0  0  0  0  0  0  8  0  0
  1  6  1  0
  1  5  1  0
  1  2  1  0
  2  3  1  0
  3  4  1  0
  4  8  1  0
  4  7  1  0
M  RAD  1   1   2
M  END
>  <rmg_smiles>  (5) 
[CH2]O[N][CH2]

>  <rmg_adjacency_list>  (5) 
multiplicity 2
1 O u0 p2 c0 {2,S} {3,S}
2 N u0 p1 c0 {1,S} {4,S}
3 C u1 p0 c0 {1,S} {5,S} {6,S}
4 C u0 p0 c0 {2,S} {7,S} {8,S}
5 H u0 p0 c0 {3,S}
6 H u0 p0 c0 {3,S}
7 H u0 p0 c0 {4,S}
8 H u0 p0 c0 {4,S}


>  <multiplicity>  (5) 
2

>  <reaction>  (5) 
rmg_rxn_15636

>  <type>  (5) 
r2

>  <role_mapnums>  (5) 
{}

>  <role_mapidx>  (5) 
{}

>  <ordered_mapped_smiles>  (5) 
[C:1]([O:2][NH:3][CH:4]([H:7])[H:8])([H:5])[H:6]

>  <level_of_theory>  (5) 
wb97xd/def2tzvp

>  <lot_method>  (5) 
wb97xd

>  <lot_basis>  (5) 
def2tzvp

>  <spin_multiplicity>  (5) 
2.0

>  <optical_isomers>  (5) 
2.0

>  <modes>  (5) 
IdealGasTranslation(mass=(58.0293, 'amu')),         NonlinearRotor(             inertia = ([10.2741, 95.4529, 105.582

>  <frequency_value>  (5) 
unknown

>  <frequency_units>  (5) 
unknown

>  <frequency_list>  (5) 
unknown

>  <arkane_path>  (5) 
/home/calvin/Dropbox/PersonalFolders/Calvin/ZEUS_Converged/rmg_rxn_15636/output/Species/rmg_rxn_15636_r2_sbr-CH2-sbrON=C/arkane/output.py

>  <path_exists>  (5) 
True

>  <E0_value>  (5) 
-547168.2732446302

>  <E0_units>  (5) 
kJ/mol

>  <thermo_class>  (5) 
NASA

>  <Cp0_value>  (5) 
33.257888

>  <Cp0_units>  (5) 
J/(mol*K)

>  <CpInf_value>  (5) 
182.918384

>  <CpInf_units>  (5) 
J/(mol*K)

>  <Tmin_value>  (5) 
10.0

>  <Tmin_units>  (5) 
K

>  <Tmax_value>  (5) 
3000.0

>  <Tmax_units>  (5) 
K

>  <polynomials>  (5) 
[{"name": "polynomial1", "class": "NASAPolynomial", "Tmin_value": 10.0, "Tmin_units": "K", "Tmax_value": 253.2842427910515, "Tmax_units": "K", "coeffs": [3.956862909385456, 0.0038362890131335746, 0.00011727738047703725, -3.4736244039427427e-07, 3.472729073035136e-10, -65809144.38694886, 9.350338763280796]}, {"name": "polynomial2", "class": "NASAPolynomial", "Tmin_value": 253.2842427910515, "Tmin_units": "K", "Tmax_value": 3000.0, "Tmax_units": "K", "coeffs": [2.5252197328965313, 0.026445761179553072, -1.662161754135038e-05, 5.074735532607581e-09, -5.97403912324656e-13, -65809071.86505469, 14.291183066674913]}]

>  <H298_value>  (5) 
-130772.65860702786

>  <H298_units>  (5) 
kcal/mol

>  <S298_value>  (5) 
71.26914844977757

>  <S298_units>  (5) 
cal/(mol*K)

>  <Cp_T_value_list>  (5) 
[18.0740035969719, 21.369534269323825, 24.223451351766553, 26.683440747612977, 30.598134113509214, 33.438117676478754, 37.554421513360474, 39.68390492467901, 40.91110806828642]

>  <Cp_T_units>  (5) 
cal/(mol*K)

>  <T_list>  (5) 
[300.0, 400.0, 500.0, 600.0, 800.0, 1000.0, 1500.0, 2000.0, 2400.0]

>  <T_units>  (5) 
K

>  <yaml_path>  (5) 
/home/calvin/Dropbox/PersonalFolders/Calvin/ZEUS_Converged/rmg_rxn_15636/output/Species/rmg_rxn_15636_r2_sbr-CH2-sbrON=C/rmg_rxn_15636_r2_sbr-CH2-sbrON=C.yml

>  <frequencies_cm1>  (5) 
[132.13453152744, 273.14807507364, 360.4549264321199, 498.69420790903996, 595.9169860696, 789.3942974605999, 873.74834513148, 993.5360370535599, 1152.01232426852, 1206.54305469464, 1257.0497317232398, 1417.2771001948001, 1437.260027476, 1705.2166616477198, 3090.5210781926, 3134.7719315946797, 3218.94057066192, 3282.16490450316]

>  <ZPE_kJmol>  (5) 
152.0381400376291

>  <E_elec_kJmol>  (5) 
-547320.3113846679

>  <E0_minus_Eelec_plus_ZPE_kJmol>  (5) 
0.0

>  <rxn>  (5) 
rmg_rxn_15636

>  <species_type>  (5) 
r1

>  <species_folder>  (5) 
rmg_rxn_15636_r2_sbr-CH2-sbrON=C

>  <frequencies_cm1_list>  (5) 
[132.13453152744, 273.14807507364, 360.4549264321199, 498.69420790903996, 595.9169860696, 789.3942974605999, 873.74834513148, 993.5360370535599, 1152.01232426852, 1206.54305469464, 1257.0497317232398, 1417.2771001948001, 1437.260027476, 1705.2166616477198, 3090.5210781926, 3134.7719315946797, 3218.94057066192, 3282.16490450316]

>  <E0_kJmol>  (5) 
-547168

>  <H298_kJmol>  (5) 
-547153

$$$$
