
     RDKit          3D

  4  3  0  0  0  0  0  0  0  0999 V2000
   -0.1954   -0.5658    0.2908 N   0  0  0  0  0  1  0  0  0  1  0  0
    0.1689    0.4333   -0.2264 N   0  0  0  0  0  0  0  0  0  2  0  0
   -0.5938    1.1239   -0.3036 H   0  0  0  0  0  0  0  0  0  3  0  0
    1.1312    0.5642   -0.5745 H   0  0  0  0  0  0  0  0  0  4  0  0
  1  2  1  0
  2  4  1  0
  2  3  1  0
M  RAD  1   1   3
M  END
>  <rmg_smiles>  (1) 
[N]N

>  <rmg_adjacency_list>  (1) 
multiplicity 3
1 N u0 p1 c0 {2,S} {3,S} {4,S}
2 N u2 p2 c0 {1,S}
3 H u0 p0 c0 {1,S}
4 H u0 p0 c0 {1,S}


>  <multiplicity>  (1) 
3

>  <reaction>  (1) 
rmg_rxn_1066

>  <type>  (1) 
r1h

>  <role_mapnums>  (1) 
{"r1h_a": 2, "r1h_h": 3}

>  <role_mapidx>  (1) 
{"r1h_a": 1, "r1h_h": 2}

>  <ordered_mapped_smiles>  (1) 
[N:1][N:2]([H:3])[H:4]

>  <mol_properties>  (1) 
{"1": {"label": "donator", "atom_type": "N3s"}, "2": {"label": "d_hydrogen", "atom_type": "H0"}}

>  <level_of_theory>  (1) 
wb97xd/def2tzvp

>  <lot_method>  (1) 
wb97xd

>  <lot_basis>  (1) 
def2tzvp

>  <spin_multiplicity>  (1) 
1.0

>  <optical_isomers>  (1) 
1.0

>  <modes>  (1) 
IdealGasTranslation(mass=(30.0218, 'amu')),         NonlinearRotor(             inertia = ([1.53264, 17.7578, 19.2904

>  <frequency_value>  (1) 
unknown

>  <frequency_units>  (1) 
unknown

>  <frequency_list>  (1) 
unknown

>  <arkane_path>  (1) 
/home/calvin/Dropbox/PersonalFolders/Calvin/ATLAS_Converged/rmg_rxn_1066/output/Species/rmg_rxn_1066_r1_sbr-N--sbr=sbr-NH2p-sbr/arkane/output.py

>  <path_exists>  (1) 
True

>  <E0_value>  (1) 
-290349.035934079

>  <E0_units>  (1) 
kJ/mol

>  <thermo_class>  (1) 
NASA

>  <Cp0_value>  (1) 
33.257888

>  <Cp0_units>  (1) 
J/(mol*K)

>  <CpInf_value>  (1) 
83.14472

>  <CpInf_units>  (1) 
J/(mol*K)

>  <Tmin_value>  (1) 
10.0

>  <Tmin_units>  (1) 
K

>  <Tmax_value>  (1) 
3000.0

>  <Tmax_units>  (1) 
K

>  <polynomials>  (1) 
[{"name": "polynomial1", "class": "NASAPolynomial", "Tmin_value": 10.0, "Tmin_units": "K", "Tmax_value": 500.56541696439507, "Tmax_units": "K", "coeffs": [4.050344124345926, -0.004794680497562761, 5.078681335036212e-05, -9.555154638244798e-08, 5.986822564649716e-11, -34920922.68308267, 3.670484154104077]}, {"name": "polynomial2", "class": "NASAPolynomial", "Tmin_value": 500.56541696439507, "Tmin_units": "K", "Tmax_value": 3000.0, "Tmax_units": "K", "coeffs": [3.2116144741142865, 0.0077588079395529185, -4.364975575066951e-06, 1.2531864294955684e-09, -1.4231730145225367e-13, -34920912.02116373, 6.40422382767077]}]

>  <H298_value>  (1) 
-69392.5372445061

>  <H298_units>  (1) 
kcal/mol

>  <S298_value>  (1) 
53.35062830342999

>  <S298_units>  (1) 
cal/(mol*K)

>  <Cp_T_value_list>  (1) 
[10.11049741569997, 11.278767408544786, 12.21640764268593, 13.01173529598743, 14.324608638758919, 15.333913252344859, 16.96608193012531, 17.920116849189398, 18.466706446202338]

>  <Cp_T_units>  (1) 
cal/(mol*K)

>  <T_list>  (1) 
[300.0, 400.0, 500.0, 600.0, 800.0, 1000.0, 1500.0, 2000.0, 2400.0]

>  <T_units>  (1) 
K

>  <yaml_path>  (1) 
/home/calvin/Dropbox/PersonalFolders/Calvin/ATLAS_Converged/rmg_rxn_1066/output/Species/rmg_rxn_1066_r1_sbr-N--sbr=sbr-NH2p-sbr/rmg_rxn_1066_r1_sbr-N--sbr=sbr-NH2p-sbr.yml

>  <frequencies_cm1>  (1) 
[602.65349866852, 739.1142309475599, 1090.0995846234, 1582.78518037744, 3359.3978883972, 3494.65003125992]

>  <ZPE_kJmol>  (1) 
65.00928384890975

>  <E_elec_kJmol>  (1) 
-290414.0452179279

>  <E0_minus_Eelec_plus_ZPE_kJmol>  (1) 
0.0

>  <rxn>  (1) 
rmg_rxn_1066

>  <species_type>  (1) 
r0

>  <species_folder>  (1) 
rmg_rxn_1066_r1_sbr-N--sbr=sbr-NH2p-sbr

>  <frequencies_cm1_list>  (1) 
[602.65349866852, 739.1142309475599, 1090.0995846234, 1582.78518037744, 3359.3978883972, 3494.65003125992]

>  <E0_kJmol>  (1) 
-290349

>  <H298_kJmol>  (1) 
-290338

$$$$

     RDKit          3D

  6  5  0  0  0  0  0  0  0  0999 V2000
    1.3847    0.9969   -0.2389 H   0  0  0  0  0  0  0  0  0  1  0  0
    0.3411    1.1288    0.0270 C   0  0  0  0  0  0  0  0  0  2  0  0
    0.1238   -0.1546    0.3384 N   0  0  0  0  0  0  0  0  0  3  0  0
   -0.4919   -0.9792   -0.2977 O   0  0  0  0  0  0  0  0  0  4  0  0
    0.4574    1.7823    0.8835 H   0  0  0  0  0  0  0  0  0  5  0  0
   -0.1639    1.5120   -0.8552 H   0  0  0  0  0  0  0  0  0  6  0  0
  1  2  1  0
  2  3  1  0
  2  5  1  0
  2  6  1  0
  3  4  1  0
M  END
>  <rmg_smiles>  (2) 
C[N][O]

>  <rmg_adjacency_list>  (2) 
1 O u0 p2 c0 {2,S}
2 N u0 p1 c0 {1,S} {3,S}
3 C u0 p0 c0 {2,S} {4,S} {5,S} {6,S}
4 H u0 p0 c0 {3,S}
5 H u0 p0 c0 {3,S}
6 H u0 p0 c0 {3,S}


>  <multiplicity>  (2) 
1

>  <reaction>  (2) 
rmg_rxn_1066

>  <type>  (2) 
r2h

>  <role_mapnums>  (2) 
{"r2h_a": 2, "r2h_h": 1}

>  <role_mapidx>  (2) 
{"r2h_a": 1, "r2h_h": 0}

>  <ordered_mapped_smiles>  (2) 
[H:1][C:2]([NH:3][OH:4])([H:5])[H:6]

>  <mol_properties>  (2) 
{"0": {"label": "a_hydrogen", "atom_type": "H0"}, "1": {"label": "acceptor", "atom_type": "Cs"}}

>  <level_of_theory>  (2) 
wb97xd/def2tzvp

>  <lot_method>  (2) 
wb97xd

>  <lot_basis>  (2) 
def2tzvp

>  <spin_multiplicity>  (2) 
1.0

>  <optical_isomers>  (2) 
2.0

>  <modes>  (2) 
IdealGasTranslation(mass=(45.0215, 'amu')),         NonlinearRotor(             inertia = ([8.54474, 44.1684, 49.4809

>  <frequency_value>  (2) 
unknown

>  <frequency_units>  (2) 
unknown

>  <frequency_list>  (2) 
unknown

>  <arkane_path>  (2) 
/home/calvin/Dropbox/PersonalFolders/Calvin/ATLAS_Converged/rmg_rxn_1066/output/Species/rmg_rxn_1066_p2_CN=O/arkane/output.py

>  <path_exists>  (2) 
True

>  <E0_value>  (2) 
-445719.92228708166

>  <E0_units>  (2) 
kJ/mol

>  <thermo_class>  (2) 
NASA

>  <Cp0_value>  (2) 
33.257888

>  <Cp0_units>  (2) 
J/(mol*K)

>  <CpInf_value>  (2) 
133.031552

>  <CpInf_units>  (2) 
J/(mol*K)

>  <Tmin_value>  (2) 
10.0

>  <Tmin_units>  (2) 
K

>  <Tmax_value>  (2) 
3000.0

>  <Tmax_units>  (2) 
K

>  <polynomials>  (2) 
[{"name": "polynomial1", "class": "NASAPolynomial", "Tmin_value": 10.0, "Tmin_units": "K", "Tmax_value": 523.1623109062334, "Tmax_units": "K", "coeffs": [3.997048777821599, 1.3976034005065675e-05, 4.21423064686843e-05, -6.423039506503605e-08, 3.177852239918246e-11, -53607723.660720214, 7.500723454444557]}, {"name": "polynomial2", "class": "NASAPolynomial", "Tmin_value": 523.1623109062334, "Tmin_units": "K", "Tmax_value": 3000.0, "Tmax_units": "K", "coeffs": [1.593353190730867, 0.018393088440867983, -1.0556510799675463e-05, 2.9271301173799887e-09, -3.151758894982931e-13, -53607472.16859879, 17.53977937551701]}]

>  <H298_value>  (2) 
-106526.73195265616

>  <H298_units>  (2) 
kcal/mol

>  <S298_value>  (2) 
62.88259640884365

>  <S298_units>  (2) 
cal/(mol*K)

>  <Cp_T_value_list>  (2) 
[12.55364953578163, 14.801097779835075, 16.885237358579595, 18.7200330670138, 21.7027821927878, 23.929712274609866, 27.25319134157325, 28.86956687185685, 29.687137037438973]

>  <Cp_T_units>  (2) 
cal/(mol*K)

>  <T_list>  (2) 
[300.0, 400.0, 500.0, 600.0, 800.0, 1000.0, 1500.0, 2000.0, 2400.0]

>  <T_units>  (2) 
K

>  <yaml_path>  (2) 
/home/calvin/Dropbox/PersonalFolders/Calvin/ATLAS_Converged/rmg_rxn_1066/output/Species/rmg_rxn_1066_p2_CN=O/rmg_rxn_1066_p2_CN=O.yml

>  <frequencies_cm1>  (2) 
[216.63278589004003, 613.26985797324, 854.4589833675999, 964.5985609150799, 1156.3934609026799, 1369.93610339872, 1421.5483650638398, 1453.2601032716, 1480.22675462324, 3002.6099321259594, 3100.49194087724, 3105.5254411167994]

>  <ZPE_kJmol>  (2) 
112.08385749791076

>  <E_elec_kJmol>  (2) 
-445832.0061445796

>  <E0_minus_Eelec_plus_ZPE_kJmol>  (2) 
0.0

>  <rxn>  (2) 
rmg_rxn_1066

>  <species_type>  (2) 
p1

>  <species_folder>  (2) 
rmg_rxn_1066_p2_CN=O

>  <frequencies_cm1_list>  (2) 
[216.63278589004003, 613.26985797324, 854.4589833675999, 964.5985609150799, 1156.3934609026799, 1369.93610339872, 1421.5483650638398, 1453.2601032716, 1480.22675462324, 3002.6099321259594, 3100.49194087724, 3105.5254411167994]

>  <E0_kJmol>  (2) 
-445720

>  <H298_kJmol>  (2) 
-445708

$$$$

     RDKit          3D

  9  7  0  0  0  0  0  0  0  0999 V2000
    1.2892   -0.8095    0.2938 N   0  0  0  0  0  1  0  0  0  1  0  0
    1.6534    0.1896   -0.2233 N   0  0  0  0  0  0  0  0  0  2  0  0
    0.7223    1.0329   -0.3177 H   0  0  0  0  0  0  0  0  0  3  0  0
    2.6158    0.3205   -0.5715 H   0  0  0  0  0  0  0  0  0  4  0  0
   -0.6679    1.2085    0.0365 C   0  0  0  0  0  0  0  0  0  5  0  0
   -0.8853   -0.0748    0.3479 N   0  0  0  0  0  0  0  0  0  6  0  0
   -1.5009   -0.8994   -0.2882 O   0  0  0  0  0  1  0  0  0  7  0  0
   -0.5516    1.8621    0.8930 H   0  0  0  0  0  0  0  0  0  8  0  0
   -1.1729    1.5917   -0.8457 H   0  0  0  0  0  0  0  0  0  9  0  0
  1  2  1  0
  2  3  1  0
  2  4  1  0
  5  6  1  0
  5  8  1  0
  5  9  1  0
  6  7  1  0
M  RAD  2   1   3   7   2
M  END
>  <rmg_smiles>  (3) 
[CH2][N][O].[N]N

>  <rmg_adjacency_list>  (3) 
multiplicity 4
1 O u1 p2 c0 {3,S}
2 N u0 p1 c0 {4,S} {8,S} {9,S}
3 N u0 p1 c0 {1,S} {5,S}
4 N u2 p2 c0 {2,S}
5 C u0 p0 c0 {3,S} {6,S} {7,S}
6 H u0 p0 c0 {5,S}
7 H u0 p0 c0 {5,S}
8 H u0 p0 c0 {2,S}
9 H u0 p0 c0 {2,S}


>  <multiplicity>  (3) 
4

>  <reaction>  (3) 
rmg_rxn_1066

>  <type>  (3) 
ts

>  <role_mapnums>  (3) 
{"*2": 3, "*1": 2, "*3": 5, "*0": 1, "*4": 6}

>  <role_mapidx>  (3) 
{"*2": 2, "*1": 1, "*3": 4, "*0": 0, "*4": 5}

>  <ordered_mapped_smiles>  (3) 
[N:1][N:2]([H:3])[H:4].[CH:5]([NH:6][O:7])([H:8])[H:9]

>  <mol_properties>  (3) 
{"0": {"label": "*0", "atom_type": "N1s"}, "1": {"label": "*1", "atom_type": "N3s"}, "2": {"label": "*2", "atom_type": "H0"}, "4": {"label": "*3", "atom_type": "Cs"}, "5": {"label": "*4", "atom_type": "N3s"}}

>  <level_of_theory>  (3) 
wb97xd/def2tzvp

>  <lot_method>  (3) 
wb97xd

>  <lot_basis>  (3) 
def2tzvp

>  <spin_multiplicity>  (3) 
2.0

>  <optical_isomers>  (3) 
2.0

>  <modes>  (3) 
IdealGasTranslation(mass=(74.0354, 'amu')),         NonlinearRotor(             inertia = ([54.0047, 129.907, 170.156

>  <frequency_value>  (3) 
-1415.19

>  <frequency_units>  (3) 
cm^-1

>  <frequency_list>  (3) 
unknown

>  <arkane_path>  (3) 
/home/calvin/Dropbox/PersonalFolders/Calvin/ATLAS_Converged/rmg_rxn_1066/output/rxns/TS0/arkane/output.py

>  <path_exists>  (3) 
True

>  <E0_value>  (3) 
-734421.0

>  <E0_units>  (3) 
kJ/mol

>  <thermo_class>  (3) 
unknown

>  <Cp0_value>  (3) 
unknown

>  <Cp0_units>  (3) 
unknown

>  <CpInf_value>  (3) 
unknown

>  <CpInf_units>  (3) 
unknown

>  <Tmin_value>  (3) 
unknown

>  <Tmin_units>  (3) 
unknown

>  <Tmax_value>  (3) 
unknown

>  <Tmax_units>  (3) 
unknown

>  <polynomials>  (3) 
unknown

>  <H298_value>  (3) 
unknown

>  <H298_units>  (3) 
unknown

>  <S298_value>  (3) 
unknown

>  <S298_units>  (3) 
unknown

>  <Cp_T_value_list>  (3) 
unknown

>  <Cp_T_units>  (3) 
unknown

>  <T_list>  (3) 
unknown

>  <T_units>  (3) 
unknown

>  <yaml_path>  (3) 
unknown

>  <frequencies_cm1>  (3) 
unknown

>  <ZPE_kJmol>  (3) 
unknown

>  <E_elec_kJmol>  (3) 
unknown

>  <E0_minus_Eelec_plus_ZPE_kJmol>  (3) 
unknown

>  <rxn>  (3) 
unknown

>  <species_type>  (3) 
unknown

>  <species_folder>  (3) 
unknown

>  <frequencies_cm1_list>  (3) 
[]

>  <ts_imag_freq_cm1>  (3) 
-1432.3813

>  <ts_freq_out_path>  (3) 
/home/calvin/Dropbox/PersonalFolders/Calvin/ATLAS_Converged/rmg_rxn_1066/output/rxns/TS0/geometry/freq.out

>  <E0_kJmol>  (3) 
-734421

>  <H298_kJmol>  (3) 
unknown

$$$$

     RDKit          3D

  3  2  0  0  0  0  0  0  0  0999 V2000
    0.0636    0.7408    0.0000 N   0  0  0  0  0  2  0  0  0  1  0  0
    0.0636   -0.6012    0.0000 N   0  0  0  0  0  0  0  0  0  2  0  0
   -0.8910   -0.9772    0.0000 H   0  0  0  0  0  0  0  0  0  3  0  0
  1  2  1  0
  2  3  1  0
M  RAD  1   1   2
M  END
>  <rmg_smiles>  (4) 
[N][NH]

>  <rmg_adjacency_list>  (4) 
multiplicity 2
1 N u0 p1 c0 {2,S} {3,S}
2 N u1 p2 c0 {1,S}
3 H u0 p0 c0 {1,S}


>  <multiplicity>  (4) 
2

>  <reaction>  (4) 
rmg_rxn_1066

>  <type>  (4) 
r1

>  <role_mapnums>  (4) 
{}

>  <role_mapidx>  (4) 
{}

>  <ordered_mapped_smiles>  (4) 
[NH:1][NH:2][H:3]

>  <level_of_theory>  (4) 
wb97xd/def2tzvp

>  <lot_method>  (4) 
wb97xd

>  <lot_basis>  (4) 
def2tzvp

>  <spin_multiplicity>  (4) 
2.0

>  <optical_isomers>  (4) 
1.0

>  <modes>  (4) 
IdealGasTranslation(mass=(29.014, 'amu')),         NonlinearRotor(             inertia = ([0.813007, 13.7495, 14.5625

>  <frequency_value>  (4) 
unknown

>  <frequency_units>  (4) 
unknown

>  <frequency_list>  (4) 
unknown

>  <arkane_path>  (4) 
/home/calvin/Dropbox/PersonalFolders/Calvin/ATLAS_Converged/rmg_rxn_1066/output/Species/rmg_rxn_1066_p1_sbr-N-sbr=N/arkane/output.py

>  <path_exists>  (4) 
True

>  <E0_value>  (4) 
-288867.4696347834

>  <E0_units>  (4) 
kJ/mol

>  <thermo_class>  (4) 
NASA

>  <Cp0_value>  (4) 
33.257888

>  <Cp0_units>  (4) 
J/(mol*K)

>  <CpInf_value>  (4) 
58.201304

>  <CpInf_units>  (4) 
J/(mol*K)

>  <Tmin_value>  (4) 
10.0

>  <Tmin_units>  (4) 
K

>  <Tmax_value>  (4) 
3000.0

>  <Tmax_units>  (4) 
K

>  <polynomials>  (4) 
[{"name": "polynomial1", "class": "NASAPolynomial", "Tmin_value": 10.0, "Tmin_units": "K", "Tmax_value": 600.1268671177851, "Tmax_units": "K", "coeffs": [4.033679559080543, -0.0028069884538324463, 2.43200744224455e-05, -3.9208484862729114e-08, 2.0763651885307307e-11, -34742731.736814484, 4.419692378432291]}, {"name": "polynomial2", "class": "NASAPolynomial", "Tmin_value": 600.1268671177851, "Tmin_units": "K", "Tmax_value": 3000.0, "Tmax_units": "K", "coeffs": [3.5057228248443377, 0.004339503891373661, -2.6092744901118695e-06, 7.788865465377172e-10, -9.009262663622535e-14, -34742733.69167338, 6.152952446195358]}]

>  <H298_value>  (4) 
-69038.54925061513

>  <H298_units>  (4) 
kcal/mol

>  <S298_value>  (4) 
54.32702602517025

>  <S298_units>  (4) 
cal/(mol*K)

>  <Cp_T_value_list>  (4) 
[8.922450297312189, 9.586885374414756, 10.148408388948623, 10.585153176151447, 11.266026566762333, 11.773694057860487, 12.552705009556464, 12.990851774548032, 13.253438454888544]

>  <Cp_T_units>  (4) 
cal/(mol*K)

>  <T_list>  (4) 
[300.0, 400.0, 500.0, 600.0, 800.0, 1000.0, 1500.0, 2000.0, 2400.0]

>  <T_units>  (4) 
K

>  <yaml_path>  (4) 
/home/calvin/Dropbox/PersonalFolders/Calvin/ATLAS_Converged/rmg_rxn_1066/output/Species/rmg_rxn_1066_p1_sbr-N-sbr=N/rmg_rxn_1066_p1_sbr-N-sbr=N.yml

>  <frequencies_cm1>  (4) 
[808.20297025208, 1083.1707964355198, 3343.3772116456403]

>  <ZPE_kJmol>  (4) 
31.310773069233964

>  <E_elec_kJmol>  (4) 
-288898.7804078526

>  <E0_minus_Eelec_plus_ZPE_kJmol>  (4) 
0.0

>  <rxn>  (4) 
rmg_rxn_1066

>  <species_type>  (4) 
p0

>  <species_folder>  (4) 
rmg_rxn_1066_p1_sbr-N-sbr=N

>  <frequencies_cm1_list>  (4) 
[808.20297025208, 1083.1707964355198, 3343.3772116456403]

>  <E0_kJmol>  (4) 
-288867

>  <H298_kJmol>  (4) 
-288857

$$$$

     RDKit          3D

  5  4  0  0  0  0  0  0  0  0999 V2000
    1.0414   -0.2152    0.0000 C   0  0  0  0  0  0  0  0  0  1  0  0
    0.0000    0.5432    0.0000 N   0  0  0  0  0  0  0  0  0  2  0  0
   -1.1618   -0.1793    0.0000 O   0  0  0  0  0  1  0  0  0  3  0  0
    2.0423    0.2423    0.0000 H   0  0  0  0  0  0  0  0  0  4  0  0
    1.0038   -1.3196    0.0000 H   0  0  0  0  0  0  0  0  0  5  0  0
  1  5  1  0
  1  4  1  0
  1  2  1  0
  2  3  1  0
M  RAD  1   3   2
M  END
>  <rmg_smiles>  (5) 
[CH2][N][O]

>  <rmg_adjacency_list>  (5) 
multiplicity 2
1 O u1 p2 c0 {2,S}
2 N u0 p1 c0 {1,S} {3,S}
3 C u0 p0 c0 {2,S} {4,S} {5,S}
4 H u0 p0 c0 {3,S}
5 H u0 p0 c0 {3,S}


>  <multiplicity>  (5) 
2

>  <reaction>  (5) 
rmg_rxn_1066

>  <type>  (5) 
r2

>  <role_mapnums>  (5) 
{}

>  <role_mapidx>  (5) 
{}

>  <ordered_mapped_smiles>  (5) 
[CH:1]([NH:2][O:3])([H:4])[H:5]

>  <level_of_theory>  (5) 
wb97xd/def2tzvp

>  <lot_method>  (5) 
wb97xd

>  <lot_basis>  (5) 
def2tzvp

>  <spin_multiplicity>  (5) 
2.0

>  <optical_isomers>  (5) 
1.0

>  <modes>  (5) 
IdealGasTranslation(mass=(44.0136, 'amu')),         NonlinearRotor(             inertia = ([6.98843, 39.6155, 46.604

>  <frequency_value>  (5) 
unknown

>  <frequency_units>  (5) 
unknown

>  <frequency_list>  (5) 
unknown

>  <arkane_path>  (5) 
/home/calvin/Dropbox/PersonalFolders/Calvin/ATLAS_Converged/rmg_rxn_1066/output/Species/rmg_rxn_1066_r2_sbr-CH2-sbrN=O/arkane/output.py

>  <path_exists>  (5) 
True

>  <E0_value>  (5) 
-444130.5104532136

>  <E0_units>  (5) 
kJ/mol

>  <thermo_class>  (5) 
NASA

>  <Cp0_value>  (5) 
33.257888

>  <Cp0_units>  (5) 
J/(mol*K)

>  <CpInf_value>  (5) 
108.088136

>  <CpInf_units>  (5) 
J/(mol*K)

>  <Tmin_value>  (5) 
10.0

>  <Tmin_units>  (5) 
K

>  <Tmax_value>  (5) 
3000.0

>  <Tmax_units>  (5) 
K

>  <polynomials>  (5) 
[{"name": "polynomial1", "class": "NASAPolynomial", "Tmin_value": 10.0, "Tmin_units": "K", "Tmax_value": 578.5945325717779, "Tmax_units": "K", "coeffs": [4.050383698379211, -0.004408289965888416, 5.816687662989515e-05, -9.504894964492476e-08, 5.066667843738809e-11, -53416561.929485634, 7.1896189661654475]}, {"name": "polynomial2", "class": "NASAPolynomial", "Tmin_value": 578.5945325717779, "Tmin_units": "K", "Tmax_value": 3000.0, "Tmax_units": "K", "coeffs": [2.257129411303006, 0.014762716327759464, -9.094475067580945e-06, 2.6845227582243328e-09, -3.0478813764735956e-13, -53416467.79808951, 13.880043668309895]}]

>  <H298_value>  (5) 
-106147.03493350018

>  <H298_units>  (5) 
kcal/mol

>  <S298_value>  (5) 
61.19708639657305

>  <S298_units>  (5) 
cal/(mol*K)

>  <Cp_T_value_list>  (5) 
[11.53969634750828, 13.528309995937247, 15.248842140297391, 16.654985460399338, 18.87145260610648, 20.47837222941496, 22.765257560620785, 23.85489116801807, 24.446963929836652]

>  <Cp_T_units>  (5) 
cal/(mol*K)

>  <T_list>  (5) 
[300.0, 400.0, 500.0, 600.0, 800.0, 1000.0, 1500.0, 2000.0, 2400.0]

>  <T_units>  (5) 
K

>  <yaml_path>  (5) 
/home/calvin/Dropbox/PersonalFolders/Calvin/ATLAS_Converged/rmg_rxn_1066/output/Species/rmg_rxn_1066_r2_sbr-CH2-sbrN=O/rmg_rxn_1066_r2_sbr-CH2-sbrN=O.yml

>  <frequencies_cm1>  (5) 
[401.27228717419996, 744.02412545136, 836.5018167558001, 1031.03664388608, 1152.5342151528398, 1429.5552699469602, 1599.5268905876, 2940.717793436799, 3039.92513035484]

>  <ZPE_kJmol>  (5) 
78.80458602827369

>  <E_elec_kJmol>  (5) 
-444209.31503924186

>  <E0_minus_Eelec_plus_ZPE_kJmol>  (5) 
0.0

>  <rxn>  (5) 
rmg_rxn_1066

>  <species_type>  (5) 
r1

>  <species_folder>  (5) 
rmg_rxn_1066_r2_sbr-CH2-sbrN=O

>  <frequencies_cm1_list>  (5) 
[401.27228717419996, 744.02412545136, 836.5018167558001, 1031.03664388608, 1152.5342151528398, 1429.5552699469602, 1599.5268905876, 2940.717793436799, 3039.92513035484]

>  <E0_kJmol>  (5) 
-444131

>  <H298_kJmol>  (5) 
-444119

$$$$
