
     RDKit          3D

 13 12  0  0  0  0  0  0  0  0999 V2000
   -0.1548   -1.9440    0.6757 N   0  0  0  0  0  1  0  0  0  1  0  0
    0.0201   -1.4358   -0.4049 N   0  0  0  0  0  0  0  0  0  2  0  0
    0.1850   -0.0044   -0.6928 C   0  0  0  0  0  0  0  0  0  3  0  0
   -0.1801    0.9106    0.4402 C   0  0  0  0  0  0  0  0  0  4  0  0
    0.0828    2.3691    0.0888 C   0  0  0  0  0  0  0  0  0  5  0  0
    0.1090   -2.0039   -1.2744 H   0  0  0  0  0  0  0  0  0  6  0  0
    1.2540    0.1110   -0.8892 H   0  0  0  0  0  0  0  0  0  7  0  0
   -0.2996    0.2253   -1.6452 H   0  0  0  0  0  0  0  0  0  8  0  0
   -1.2324    0.7610    0.7000 H   0  0  0  0  0  0  0  0  0  9  0  0
    0.3884    0.6178    1.3242 H   0  0  0  0  0  0  0  0  0 10  0  0
   -0.4942    2.6805   -0.7851 H   0  0  0  0  0  0  0  0  0 11  0  0
    1.1398    2.5335   -0.1302 H   0  0  0  0  0  0  0  0  0 12  0  0
   -0.1924    3.0209    0.9182 H   0  0  0  0  0  0  0  0  0 13  0  0
  1  2  1  0
  2  6  1  0
  2  3  1  0
  3  4  1  0
  3  7  1  0
  3  8  1  0
  4  5  1  0
  4  9  1  0
  4 10  1  0
  5 11  1  0
  5 12  1  0
  5 13  1  0
M  RAD  1   1   3
M  END
>  <rmg_smiles>  (1) 
CCCN[N]

>  <rmg_adjacency_list>  (1) 
multiplicity 3
1  N u0 p1 c0 {2,S} {4,S} {13,S}
2  N u2 p2 c0 {1,S}
3  C u0 p0 c0 {4,S} {5,S} {6,S} {7,S}
4  C u0 p0 c0 {1,S} {3,S} {8,S} {9,S}
5  C u0 p0 c0 {3,S} {10,S} {11,S} {12,S}
6  H u0 p0 c0 {3,S}
7  H u0 p0 c0 {3,S}
8  H u0 p0 c0 {4,S}
9  H u0 p0 c0 {4,S}
10 H u0 p0 c0 {5,S}
11 H u0 p0 c0 {5,S}
12 H u0 p0 c0 {5,S}
13 H u0 p0 c0 {1,S}


>  <multiplicity>  (1) 
3

>  <reaction>  (1) 
rmg_rxn_3296

>  <type>  (1) 
r1h

>  <role_mapnums>  (1) 
{"r1h_a": 3, "r1h_h": 7}

>  <role_mapidx>  (1) 
{"r1h_a": 2, "r1h_h": 6}

>  <ordered_mapped_smiles>  (1) 
[N:1][N:2]([C:3]([C:4]([C:5]([H:11])([H:12])[H:13])([H:9])[H:10])([H:7])[H:8])[H:6]

>  <mol_properties>  (1) 
{"2": {"label": "donator", "atom_type": "Cs"}, "6": {"label": "d_hydrogen", "atom_type": "H0"}}

>  <level_of_theory>  (1) 
wb97xd/def2tzvp

>  <lot_method>  (1) 
wb97xd

>  <lot_basis>  (1) 
def2tzvp

>  <spin_multiplicity>  (1) 
1.0

>  <optical_isomers>  (1) 
2.0

>  <modes>  (1) 
IdealGasTranslation(mass=(72.0687, 'amu')),         NonlinearRotor(             inertia = ([57.2768, 139.247, 168.498

>  <frequency_value>  (1) 
unknown

>  <frequency_units>  (1) 
unknown

>  <frequency_list>  (1) 
unknown

>  <arkane_path>  (1) 
/home/calvin/Dropbox/PersonalFolders/Calvin/ATLAS_Converged/rmg_rxn_3296/output/Species/rmg_rxn_3296_r2_sbr-N--sbr=sbr-NHp-sbrCCC/arkane/output.py

>  <path_exists>  (1) 
True

>  <E0_value>  (1) 
-599806.8849416116

>  <E0_units>  (1) 
kJ/mol

>  <thermo_class>  (1) 
NASA

>  <Cp0_value>  (1) 
33.257888

>  <Cp0_units>  (1) 
J/(mol*K)

>  <CpInf_value>  (1) 
307.635464

>  <CpInf_units>  (1) 
J/(mol*K)

>  <Tmin_value>  (1) 
10.0

>  <Tmin_units>  (1) 
K

>  <Tmax_value>  (1) 
3000.0

>  <Tmax_units>  (1) 
K

>  <polynomials>  (1) 
[{"name": "polynomial1", "class": "NASAPolynomial", "Tmin_value": 10.0, "Tmin_units": "K", "Tmax_value": 1042.7830820145011, "Tmax_units": "K", "coeffs": [3.8866419127451737, 0.020354694123289125, 2.951287947567611e-05, -4.134957183839792e-08, 1.4165399329228802e-11, -72140110.2204055, 10.00056713580011]}, {"name": "polynomial2", "class": "NASAPolynomial", "Tmin_value": 1042.7830820145011, "Tmin_units": "K", "Tmax_value": 3000.0, "Tmax_units": "K", "coeffs": [3.507129376748168, 0.03802645061485507, -1.9233229367121952e-05, 4.727209791510294e-09, -4.563985927512985e-13, -72140912.7310622, 7.619955091117497]}]

>  <H298_value>  (1) 
-143352.82979672542

>  <H298_units>  (1) 
kcal/mol

>  <S298_value>  (1) 
77.86358770542921

>  <S298_units>  (1) 
cal/(mol*K)

>  <Cp_T_value_list>  (1) 
[23.146008779252057, 28.74860227861984, 34.09817791438343, 39.005730253994166, 47.07653819819026, 52.800162185331146, 61.43618683347274, 65.86082053041876, 67.95043556967221]

>  <Cp_T_units>  (1) 
cal/(mol*K)

>  <T_list>  (1) 
[300.0, 400.0, 500.0, 600.0, 800.0, 1000.0, 1500.0, 2000.0, 2400.0]

>  <T_units>  (1) 
K

>  <yaml_path>  (1) 
/home/calvin/Dropbox/PersonalFolders/Calvin/ATLAS_Converged/rmg_rxn_3296/output/Species/rmg_rxn_3296_r2_sbr-N--sbr=sbr-NHp-sbrCCC/rmg_rxn_3296_r2_sbr-N--sbr=sbr-NHp-sbrCCC.yml

>  <frequencies_cm1>  (1) 
[118.41429485808, 137.53884897428, 209.01729917016, 302.19542297723996, 382.5803531331599, 639.8313571909999, 738.4275324155599, 773.1950790907199, 828.3644391515999, 914.4627010937601, 943.64052171844, 1061.8900089288397, 1111.5863816896801, 1141.6775113619199, 1249.5715847097601, 1293.14260656516, 1348.87505942228, 1379.0279919624, 1404.985196472, 1458.4378102028802, 1464.06187117996, 1484.49801949228, 1495.6637376226001, 1540.4708168355999, 1688.3170107751998, 2994.3214808447196, 3015.47866261564, 3018.8091504958397, 3033.86158231728, 3065.0102277287992, 3074.73387894192, 3091.29704753376, 3107.1323156816798]

>  <ZPE_kJmol>  (1) 
296.1387454515404

>  <E_elec_kJmol>  (1) 
-600103.0236870631

>  <E0_minus_Eelec_plus_ZPE_kJmol>  (1) 
0.0

>  <rxn>  (1) 
rmg_rxn_3296

>  <species_type>  (1) 
r1

>  <species_folder>  (1) 
rmg_rxn_3296_r2_sbr-N--sbr=sbr-NHp-sbrCCC

>  <frequencies_cm1_list>  (1) 
[118.41429485808, 137.53884897428, 209.01729917016, 302.19542297723996, 382.5803531331599, 639.8313571909999, 738.4275324155599, 773.1950790907199, 828.3644391515999, 914.4627010937601, 943.64052171844, 1061.8900089288397, 1111.5863816896801, 1141.6775113619199, 1249.5715847097601, 1293.14260656516, 1348.87505942228, 1379.0279919624, 1404.985196472, 1458.4378102028802, 1464.06187117996, 1484.49801949228, 1495.6637376226001, 1540.4708168355999, 1688.3170107751998, 2994.3214808447196, 3015.47866261564, 3018.8091504958397, 3033.86158231728, 3065.0102277287992, 3074.73387894192, 3091.29704753376, 3107.1323156816798]

>  <E0_kJmol>  (1) 
-599807

>  <H298_kJmol>  (1) 
-599788

$$$$

     RDKit          3D

  9  8  0  0  0  0  0  0  0  0999 V2000
   -0.8914    0.4717   -0.7532 C   0  0  0  0  0  0  0  0  0  1  0  0
   -0.3283   -0.1801    0.2383 C   0  0  0  0  0  0  0  0  0  2  0  0
    1.1492   -0.2768    0.4868 C   0  0  0  0  0  0  0  0  0  3  0  0
   -0.4380    1.0463   -1.5529 H   0  0  0  0  0  0  0  0  0  4  0  0
   -0.9670   -0.7009    0.9504 H   0  0  0  0  0  0  0  0  0  5  0  0
    1.4687   -1.3215    0.4792 H   0  0  0  0  0  0  0  0  0  6  0  0
    1.3963    0.1286    1.4707 H   0  0  0  0  0  0  0  0  0  7  0  0
    1.7194    0.2669   -0.2663 H   0  0  0  0  0  0  0  0  0  8  0  0
   -1.9744    0.4214   -0.7477 H   0  0  0  0  0  0  0  0  0  9  0  0
  1  9  1  0
  1  4  1  0
  1  2  1  0
  2  5  1  0
  2  3  1  0
  3  6  1  0
  3  7  1  0
  3  8  1  0
M  END
>  <rmg_smiles>  (2) 
[CH2][CH]C

>  <rmg_adjacency_list>  (2) 
1 C u0 p0 c0 {2,S} {4,S} {5,S} {6,S}
2 C u0 p0 c0 {1,S} {3,S} {7,S}
3 C u0 p0 c0 {2,S} {8,S} {9,S}
4 H u0 p0 c0 {1,S}
5 H u0 p0 c0 {1,S}
6 H u0 p0 c0 {1,S}
7 H u0 p0 c0 {2,S}
8 H u0 p0 c0 {3,S}
9 H u0 p0 c0 {3,S}


>  <multiplicity>  (2) 
1

>  <reaction>  (2) 
rmg_rxn_3296

>  <type>  (2) 
r2h

>  <role_mapnums>  (2) 
{"r2h_a": 1, "r2h_h": 9}

>  <role_mapidx>  (2) 
{"r2h_a": 0, "r2h_h": 8}

>  <ordered_mapped_smiles>  (2) 
[CH:1]([CH:2]([C:3]([H:6])([H:7])[H:8])[H:5])([H:4])[H:9]

>  <mol_properties>  (2) 
{"0": {"label": "acceptor", "atom_type": "Cs"}, "8": {"label": "a_hydrogen", "atom_type": "H0"}}

>  <level_of_theory>  (2) 
wb97xd/def2tzvp

>  <lot_method>  (2) 
wb97xd

>  <lot_basis>  (2) 
def2tzvp

>  <spin_multiplicity>  (2) 
1.0

>  <optical_isomers>  (2) 
1.0

>  <modes>  (2) 
IdealGasTranslation(mass=(42.047, 'amu')),         NonlinearRotor(             inertia = ([10.7194, 53.9495, 61.5632

>  <frequency_value>  (2) 
unknown

>  <frequency_units>  (2) 
unknown

>  <frequency_list>  (2) 
unknown

>  <arkane_path>  (2) 
/home/calvin/Dropbox/PersonalFolders/Calvin/ATLAS_Converged/rmg_rxn_3296/output/Species/rmg_rxn_3296_p1_C=CC/arkane/output.py

>  <path_exists>  (2) 
True

>  <E0_value>  (2) 
-309367.8807026825

>  <E0_units>  (2) 
kJ/mol

>  <thermo_class>  (2) 
NASA

>  <Cp0_value>  (2) 
33.257888

>  <Cp0_units>  (2) 
J/(mol*K)

>  <CpInf_value>  (2) 
207.8618

>  <CpInf_units>  (2) 
J/(mol*K)

>  <Tmin_value>  (2) 
10.0

>  <Tmin_units>  (2) 
K

>  <Tmax_value>  (2) 
3000.0

>  <Tmax_units>  (2) 
K

>  <polynomials>  (2) 
[{"name": "polynomial1", "class": "NASAPolynomial", "Tmin_value": 10.0, "Tmin_units": "K", "Tmax_value": 532.050958228352, "Tmax_units": "K", "coeffs": [4.020103905460326, -0.0017075007857358705, 7.459047944046804e-05, -1.1023400232135055e-07, 5.348122674066863e-11, -37208361.301709026, 6.986181216493328]}, {"name": "polynomial2", "class": "NASAPolynomial", "Tmin_value": 532.050958228352, "Tmin_units": "K", "Tmax_value": 3000.0, "Tmax_units": "K", "coeffs": [-0.3050758214469023, 0.030809356174296882, -1.708310870693842e-05, 4.633553897625726e-09, -4.924247956138728e-13, -37207901.05600466, 25.12343906520757]}]

>  <H298_value>  (2) 
-73937.54186756608

>  <H298_units>  (2) 
kcal/mol

>  <S298_value>  (2) 
63.24337268320408

>  <S298_units>  (2) 
cal/(mol*K)

>  <Cp_T_value_list>  (2) 
[15.257526478473713, 19.048812170100657, 22.609044034141046, 25.769394679974535, 30.960482429065184, 34.899918218018236, 40.970847945474176, 44.05802973005748, 45.61721753826164]

>  <Cp_T_units>  (2) 
cal/(mol*K)

>  <T_list>  (2) 
[300.0, 400.0, 500.0, 600.0, 800.0, 1000.0, 1500.0, 2000.0, 2400.0]

>  <T_units>  (2) 
K

>  <yaml_path>  (2) 
/home/calvin/Dropbox/PersonalFolders/Calvin/ATLAS_Converged/rmg_rxn_3296/output/Species/rmg_rxn_3296_p1_C=CC/rmg_rxn_3296_p1_C=CC.yml

>  <frequencies_cm1>  (2) 
[200.09708523947998, 429.33078919172, 590.7049442117201, 925.49107951768, 943.8671322339999, 950.17102475776, 1024.49240687612, 1068.78446219012, 1186.6081963106801, 1322.3410281457998, 1395.89330790832, 1440.30896895808, 1465.7442825833598, 1480.7692464635202, 1719.664798761, 3008.0348505287598, 3066.795643912, 3091.69533268232, 3111.44478246264, 3123.9495627303595, 3201.2649504482397]

>  <ZPE_kJmol>  (2) 
207.83598829281505

>  <E_elec_kJmol>  (2) 
-309575.7166909753

>  <E0_minus_Eelec_plus_ZPE_kJmol>  (2) 
0.0

>  <rxn>  (2) 
rmg_rxn_3296

>  <species_type>  (2) 
p0

>  <species_folder>  (2) 
rmg_rxn_3296_p1_C=CC

>  <frequencies_cm1_list>  (2) 
[200.09708523947998, 429.33078919172, 590.7049442117201, 925.49107951768, 943.8671322339999, 950.17102475776, 1024.49240687612, 1068.78446219012, 1186.6081963106801, 1322.3410281457998, 1395.89330790832, 1440.30896895808, 1465.7442825833598, 1480.7692464635202, 1719.664798761, 3008.0348505287598, 3066.795643912, 3091.69533268232, 3111.44478246264, 3123.9495627303595, 3201.2649504482397]

>  <E0_kJmol>  (2) 
-309368

>  <H298_kJmol>  (2) 
-309355

$$$$

     RDKit          3D

 21 19  0  0  0  0  0  0  0  0999 V2000
    1.5376    0.3041   -0.8684 C   0  0  0  0  0  3  0  0  0  1  0  0
    2.1008   -0.3477    0.1231 C   0  0  0  0  0  0  0  0  0  2  0  0
    3.5783   -0.4444    0.3716 C   0  0  0  0  0  0  0  0  0  3  0  0
    1.9911    0.8787   -1.6681 H   0  0  0  0  0  0  0  0  0  4  0  0
    1.4621   -0.8685    0.8353 H   0  0  0  0  0  0  0  0  0  5  0  0
    3.8978   -1.4891    0.3640 H   0  0  0  0  0  0  0  0  0  6  0  0
    3.8254   -0.0389    1.3556 H   0  0  0  0  0  0  0  0  0  7  0  0
    4.1485    0.0994   -0.3814 H   0  0  0  0  0  0  0  0  0  8  0  0
   -1.4750   -1.8349    0.7325 N   0  0  0  0  0  1  0  0  0  9  0  0
   -1.3001   -1.3266   -0.3482 N   0  0  0  0  0  0  0  0  0 10  0  0
   -1.1351    0.1048   -0.6361 C   0  0  0  0  0  0  0  0  0 11  0  0
   -1.5002    1.0197    0.4969 C   0  0  0  0  0  0  0  0  0 12  0  0
   -1.2373    2.4782    0.1455 C   0  0  0  0  0  0  0  0  0 13  0  0
   -1.2111   -1.8948   -1.2177 H   0  0  0  0  0  0  0  0  0 14  0  0
    0.0891    0.2369   -0.8610 H   0  0  0  0  0  0  0  0  0 15  0  0
   -1.6197    0.3344   -1.5885 H   0  0  0  0  0  0  0  0  0 16  0  0
   -2.5525    0.8702    0.7567 H   0  0  0  0  0  0  0  0  0 17  0  0
   -0.9318    0.7269    1.3810 H   0  0  0  0  0  0  0  0  0 18  0  0
   -1.8144    2.7896   -0.7283 H   0  0  0  0  0  0  0  0  0 19  0  0
   -0.1803    2.6427   -0.0735 H   0  0  0  0  0  0  0  0  0 20  0  0
   -1.5126    3.1301    0.9749 H   0  0  0  0  0  0  0  0  0 21  0  0
  1  4  1  0
  1  2  1  0
  2  3  1  0
  2  5  1  0
  3  6  1  0
  3  8  1  0
  3  7  1  0
  9 10  1  0
 10 11  1  0
 10 14  1  0
 11 12  1  0
 11 16  1  0
 11 15  1  0
 12 17  1  0
 12 18  1  0
 12 13  1  0
 13 19  1  0
 13 20  1  0
 13 21  1  0
M  RAD  2   1   2   9   3
M  END
>  <rmg_smiles>  (3) 
CCCN[N].[CH][CH]C

>  <rmg_adjacency_list>  (3) 
multiplicity 4
1  N u0 p1 c0 {2,S} {4,S} {20,S}
2  N u2 p2 c0 {1,S}
3  C u0 p0 c0 {4,S} {5,S} {9,S} {10,S}
4  C u0 p0 c0 {1,S} {3,S} {11,S} {12,S}
5  C u0 p0 c0 {3,S} {13,S} {14,S} {15,S}
6  C u0 p0 c0 {7,S} {16,S} {17,S} {18,S}
7  C u0 p0 c0 {6,S} {8,S} {19,S}
8  C u1 p1 c0 {7,S} {21,S}
9  H u0 p0 c0 {3,S}
10 H u0 p0 c0 {3,S}
11 H u0 p0 c0 {4,S}
12 H u0 p0 c0 {4,S}
13 H u0 p0 c0 {5,S}
14 H u0 p0 c0 {5,S}
15 H u0 p0 c0 {5,S}
16 H u0 p0 c0 {6,S}
17 H u0 p0 c0 {6,S}
18 H u0 p0 c0 {6,S}
19 H u0 p0 c0 {7,S}
20 H u0 p0 c0 {1,S}
21 H u0 p0 c0 {8,S}


>  <multiplicity>  (3) 
4

>  <reaction>  (3) 
rmg_rxn_3296

>  <type>  (3) 
ts

>  <role_mapnums>  (3) 
{"*2": 15, "*1": 11, "*3": 1, "*0": 10, "*4": 2}

>  <role_mapidx>  (3) 
{"*2": 14, "*1": 10, "*3": 0, "*0": 9, "*4": 1}

>  <ordered_mapped_smiles>  (3) 
[CH:1]([CH:2]([C:3]([H:6])([H:7])[H:8])[H:5])[H:4].[N:9][N:10]([C:11]([C:12]([C:13]([H:19])([H:20])[H:21])([H:17])[H:18])([H:15])[H:16])[H:14]

>  <mol_properties>  (3) 
{"0": {"label": "*3", "atom_type": "C2s"}, "1": {"label": "*4", "atom_type": "Cs"}, "9": {"label": "*0", "atom_type": "N3s"}, "10": {"label": "*1", "atom_type": "Cs"}, "14": {"label": "*2", "atom_type": "H0"}}

>  <level_of_theory>  (3) 
wb97xd/def2tzvp

>  <lot_method>  (3) 
wb97xd

>  <lot_basis>  (3) 
def2tzvp

>  <spin_multiplicity>  (3) 
2.0

>  <optical_isomers>  (3) 
2.0

>  <modes>  (3) 
IdealGasTranslation(mass=(113.108, 'amu')),         NonlinearRotor(             inertia = ([234.328, 467.385, 617.4

>  <frequency_value>  (3) 
-1462.76

>  <frequency_units>  (3) 
cm^-1

>  <frequency_list>  (3) 
unknown

>  <arkane_path>  (3) 
/home/calvin/Dropbox/PersonalFolders/Calvin/ATLAS_Converged/rmg_rxn_3296/output/rxns/TS0/arkane/output.py

>  <path_exists>  (3) 
True

>  <E0_value>  (3) 
-907387.0

>  <E0_units>  (3) 
kJ/mol

>  <thermo_class>  (3) 
unknown

>  <Cp0_value>  (3) 
unknown

>  <Cp0_units>  (3) 
unknown

>  <CpInf_value>  (3) 
unknown

>  <CpInf_units>  (3) 
unknown

>  <Tmin_value>  (3) 
unknown

>  <Tmin_units>  (3) 
unknown

>  <Tmax_value>  (3) 
unknown

>  <Tmax_units>  (3) 
unknown

>  <polynomials>  (3) 
unknown

>  <H298_value>  (3) 
unknown

>  <H298_units>  (3) 
unknown

>  <S298_value>  (3) 
unknown

>  <S298_units>  (3) 
unknown

>  <Cp_T_value_list>  (3) 
unknown

>  <Cp_T_units>  (3) 
unknown

>  <T_list>  (3) 
unknown

>  <T_units>  (3) 
unknown

>  <yaml_path>  (3) 
unknown

>  <frequencies_cm1>  (3) 
unknown

>  <ZPE_kJmol>  (3) 
unknown

>  <E_elec_kJmol>  (3) 
unknown

>  <E0_minus_Eelec_plus_ZPE_kJmol>  (3) 
unknown

>  <rxn>  (3) 
unknown

>  <species_type>  (3) 
unknown

>  <species_folder>  (3) 
unknown

>  <frequencies_cm1_list>  (3) 
[]

>  <ts_imag_freq_cm1>  (3) 
-1480.5272

>  <ts_freq_out_path>  (3) 
/home/calvin/Dropbox/PersonalFolders/Calvin/ATLAS_Converged/rmg_rxn_3296/output/rxns/TS0/geometry/freq.out

>  <E0_kJmol>  (3) 
-907387

>  <H298_kJmol>  (3) 
unknown

$$$$

     RDKit          3D

 12 11  0  0  0  0  0  0  0  0999 V2000
    1.5035    1.1817    1.1767 N   0  0  0  0  0  2  0  0  0  1  0  0
    1.5580   -0.0511    0.8125 N   0  0  0  0  0  0  0  0  0  2  0  0
    0.8482   -0.7137   -0.0804 C   0  0  0  0  0  0  0  0  0  3  0  0
   -0.2212   -0.0125   -0.8376 C   0  0  0  0  0  0  0  0  0  4  0  0
   -1.4527    0.3302    0.0094 C   0  0  0  0  0  0  0  0  0  5  0  0
    2.2746   -0.5859    1.3051 H   0  0  0  0  0  0  0  0  0  6  0  0
    1.0804   -1.7613   -0.1832 H   0  0  0  0  0  0  0  0  0  7  0  0
    0.1929    0.9174   -1.2475 H   0  0  0  0  0  0  0  0  0  8  0  0
   -0.5138   -0.6336   -1.6852 H   0  0  0  0  0  0  0  0  0  9  0  0
   -1.1741    0.9508    0.8624 H   0  0  0  0  0  0  0  0  0 10  0  0
   -2.1844    0.8814   -0.5833 H   0  0  0  0  0  0  0  0  0 11  0  0
   -1.9295   -0.5758    0.3865 H   0  0  0  0  0  0  0  0  0 12  0  0
  1  2  1  0
  2  6  1  0
  2  3  1  0
  3  4  1  0
  3  7  1  0
  4  8  1  0
  4  5  1  0
  4  9  1  0
  5 11  1  0
  5 12  1  0
  5 10  1  0
M  RAD  1   1   2
M  END
>  <rmg_smiles>  (4) 
CC[CH]N[N]

>  <rmg_adjacency_list>  (4) 
multiplicity 2
1  N u0 p1 c0 {2,S} {5,S} {12,S}
2  N u1 p2 c0 {1,S}
3  C u0 p0 c0 {4,S} {5,S} {6,S} {7,S}
4  C u0 p0 c0 {3,S} {8,S} {9,S} {10,S}
5  C u0 p0 c0 {1,S} {3,S} {11,S}
6  H u0 p0 c0 {3,S}
7  H u0 p0 c0 {3,S}
8  H u0 p0 c0 {4,S}
9  H u0 p0 c0 {4,S}
10 H u0 p0 c0 {4,S}
11 H u0 p0 c0 {5,S}
12 H u0 p0 c0 {1,S}


>  <multiplicity>  (4) 
2

>  <reaction>  (4) 
rmg_rxn_3296

>  <type>  (4) 
r1

>  <role_mapnums>  (4) 
{}

>  <role_mapidx>  (4) 
{}

>  <ordered_mapped_smiles>  (4) 
[NH:1][N:2]([CH:3]([C:4]([C:5]([H:10])([H:11])[H:12])([H:8])[H:9])[H:7])[H:6]

>  <level_of_theory>  (4) 
wb97xd/def2tzvp

>  <lot_method>  (4) 
wb97xd

>  <lot_basis>  (4) 
def2tzvp

>  <spin_multiplicity>  (4) 
2.0

>  <optical_isomers>  (4) 
2.0

>  <modes>  (4) 
IdealGasTranslation(mass=(71.0609, 'amu')),         NonlinearRotor(             inertia = ([53.0504, 135.065, 165.702

>  <frequency_value>  (4) 
unknown

>  <frequency_units>  (4) 
unknown

>  <frequency_list>  (4) 
unknown

>  <arkane_path>  (4) 
/home/calvin/Dropbox/PersonalFolders/Calvin/ATLAS_Converged/rmg_rxn_3296/output/Species/rmg_rxn_3296_p2_sbr-N--sbrsbr-NHp-sbr=CCC/arkane/output.py

>  <path_exists>  (4) 
True

>  <E0_value>  (4) 
-598127.5170687066

>  <E0_units>  (4) 
kJ/mol

>  <thermo_class>  (4) 
NASA

>  <Cp0_value>  (4) 
33.257888

>  <Cp0_units>  (4) 
J/(mol*K)

>  <CpInf_value>  (4) 
282.692048

>  <CpInf_units>  (4) 
J/(mol*K)

>  <Tmin_value>  (4) 
10.0

>  <Tmin_units>  (4) 
K

>  <Tmax_value>  (4) 
3000.0

>  <Tmax_units>  (4) 
K

>  <polynomials>  (4) 
[{"name": "polynomial1", "class": "NASAPolynomial", "Tmin_value": 10.0, "Tmin_units": "K", "Tmax_value": 739.503368194945, "Tmax_units": "K", "coeffs": [3.8212379328585713, 0.016802345524941233, 4.7629930678069334e-05, -7.71171177955712e-08, 3.4166267074327374e-11, -71938122.51600246, 10.943747937860826]}, {"name": "polynomial2", "class": "NASAPolynomial", "Tmin_value": 739.503368194945, "Tmin_units": "K", "Tmax_value": 3000.0, "Tmax_units": "K", "coeffs": [1.2982406609696904, 0.04113558631063574, -2.3403213662420655e-05, 6.46061927743499e-09, -6.945186277157762e-13, -71938041.56017812, 20.378739096769376]}]

>  <H298_value>  (4) 
-142951.59456092006

>  <H298_units>  (4) 
kcal/mol

>  <S298_value>  (4) 
77.94371489467113

>  <S298_units>  (4) 
cal/(mol*K)

>  <Cp_T_value_list>  (4) 
[22.541320394993956, 28.023836364171633, 33.03859048742374, 37.39936756071001, 44.21934927606657, 49.27619118148097, 56.89964180189809, 60.667854136705095, 62.577682732751065]

>  <Cp_T_units>  (4) 
cal/(mol*K)

>  <T_list>  (4) 
[300.0, 400.0, 500.0, 600.0, 800.0, 1000.0, 1500.0, 2000.0, 2400.0]

>  <T_units>  (4) 
K

>  <yaml_path>  (4) 
/home/calvin/Dropbox/PersonalFolders/Calvin/ATLAS_Converged/rmg_rxn_3296/output/Species/rmg_rxn_3296_p2_sbr-N--sbrsbr-NHp-sbr=CCC/rmg_rxn_3296_p2_sbr-N--sbrsbr-NHp-sbr=CCC.yml

>  <frequencies_cm1>  (4) 
[108.841717322, 198.85416089656, 256.05614861216003, 294.31212382987997, 511.21958913272005, 575.24049327108, 667.51904200124, 801.3153839761201, 827.2931894416799, 887.88060092004, 1013.14128014216, 1072.8977863968, 1121.7838548898799, 1135.2019442051599, 1287.1133934542, 1337.173716437, 1345.67504426316, 1400.50105505804, 1452.9854238588, 1475.6464754148, 1488.28859538892, 1496.5701796848398, 1535.3961146841198, 2981.79609962104, 3018.4795352004803, 3067.0977912660796, 3094.0507086470793, 3099.5786318296796, 3217.4298338915196, 3404.94660202476]

>  <ZPE_kJmol>  (4) 
264.2209851653227

>  <E_elec_kJmol>  (4) 
-598391.7380538719

>  <E0_minus_Eelec_plus_ZPE_kJmol>  (4) 
0.0

>  <rxn>  (4) 
rmg_rxn_3296

>  <species_type>  (4) 
p1

>  <species_folder>  (4) 
rmg_rxn_3296_p2_sbr-N--sbrsbr-NHp-sbr=CCC

>  <frequencies_cm1_list>  (4) 
[108.841717322, 198.85416089656, 256.05614861216003, 294.31212382987997, 511.21958913272005, 575.24049327108, 667.51904200124, 801.3153839761201, 827.2931894416799, 887.88060092004, 1013.14128014216, 1072.8977863968, 1121.7838548898799, 1135.2019442051599, 1287.1133934542, 1337.173716437, 1345.67504426316, 1400.50105505804, 1452.9854238588, 1475.6464754148, 1488.28859538892, 1496.5701796848398, 1535.3961146841198, 2981.79609962104, 3018.4795352004803, 3067.0977912660796, 3094.0507086470793, 3099.5786318296796, 3217.4298338915196, 3404.94660202476]

>  <E0_kJmol>  (4) 
-598128

>  <H298_kJmol>  (4) 
-598109

$$$$

     RDKit          3D

  8  7  0  0  0  0  0  0  0  0999 V2000
    1.3778   -0.6812    0.2772 C   0  0  0  0  0  3  0  0  0  1  0  0
    0.4890    0.2108   -0.0590 C   0  0  0  0  0  0  0  0  0  2  0  0
   -1.0010    0.0286   -0.0323 C   0  0  0  0  0  0  0  0  0  3  0  0
    2.4535   -0.7507    0.3287 H   0  0  0  0  0  0  0  0  0  4  0  0
    0.8447    1.1899   -0.3945 H   0  0  0  0  0  0  0  0  0  5  0  0
   -1.4635    0.7638    0.6301 H   0  0  0  0  0  0  0  0  0  6  0  0
   -1.2709   -0.9687    0.3117 H   0  0  0  0  0  0  0  0  0  7  0  0
   -1.4218    0.1801   -1.0289 H   0  0  0  0  0  0  0  0  0  8  0  0
  1  4  1  0
  1  2  1  0
  2  5  1  0
  2  3  1  0
  3  6  1  0
  3  7  1  0
  3  8  1  0
M  RAD  1   1   2
M  END
>  <rmg_smiles>  (5) 
[CH][CH]C

>  <rmg_adjacency_list>  (5) 
multiplicity 2
1 C u0 p0 c0 {2,S} {4,S} {5,S} {6,S}
2 C u0 p0 c0 {1,S} {3,S} {7,S}
3 C u1 p1 c0 {2,S} {8,S}
4 H u0 p0 c0 {1,S}
5 H u0 p0 c0 {1,S}
6 H u0 p0 c0 {1,S}
7 H u0 p0 c0 {2,S}
8 H u0 p0 c0 {3,S}


>  <multiplicity>  (5) 
2

>  <reaction>  (5) 
rmg_rxn_3296

>  <type>  (5) 
r2

>  <role_mapnums>  (5) 
{}

>  <role_mapidx>  (5) 
{}

>  <ordered_mapped_smiles>  (5) 
[CH:1]([CH:2]([C:3]([H:6])([H:7])[H:8])[H:5])[H:4]

>  <level_of_theory>  (5) 
wb97xd/def2tzvp

>  <lot_method>  (5) 
wb97xd

>  <lot_basis>  (5) 
def2tzvp

>  <spin_multiplicity>  (5) 
2.0

>  <optical_isomers>  (5) 
1.0

>  <modes>  (5) 
IdealGasTranslation(mass=(41.0391, 'amu')),         NonlinearRotor(             inertia = ([8.69051, 52.7378, 58.3092

>  <frequency_value>  (5) 
unknown

>  <frequency_units>  (5) 
unknown

>  <frequency_list>  (5) 
unknown

>  <arkane_path>  (5) 
/home/calvin/Dropbox/PersonalFolders/Calvin/ATLAS_Converged/rmg_rxn_3296/output/Species/rmg_rxn_3296_r1_sbr-CH-sbr=CC/arkane/output.py

>  <path_exists>  (5) 
True

>  <E0_value>  (5) 
-307594.3811372411

>  <E0_units>  (5) 
kJ/mol

>  <thermo_class>  (5) 
NASA

>  <Cp0_value>  (5) 
33.257888

>  <Cp0_units>  (5) 
J/(mol*K)

>  <CpInf_value>  (5) 
182.918384

>  <CpInf_units>  (5) 
J/(mol*K)

>  <Tmin_value>  (5) 
10.0

>  <Tmin_units>  (5) 
K

>  <Tmax_value>  (5) 
3000.0

>  <Tmax_units>  (5) 
K

>  <polynomials>  (5) 
[{"name": "polynomial1", "class": "NASAPolynomial", "Tmin_value": 10.0, "Tmin_units": "K", "Tmax_value": 481.0435142823728, "Tmax_units": "K", "coeffs": [3.9727991601474284, 0.0015660485202043182, 6.167214282882254e-05, -1.0205402306399866e-07, 5.477574200596452e-11, -36995057.25584206, 7.404471489365289]}, {"name": "polynomial2", "class": "NASAPolynomial", "Tmin_value": 481.0435142823728, "Tmin_units": "K", "Tmax_value": 3000.0, "Tmax_units": "K", "coeffs": [1.0134350199665534, 0.02617217573414392, -1.5049764067719394e-05, 4.265493157120896e-09, -4.749676510594084e-13, -36994772.51908542, 19.516247038101728]}]

>  <H298_value>  (5) 
-73513.59504496788

>  <H298_units>  (5) 
kcal/mol

>  <S298_value>  (5) 
64.48620704915899

>  <S298_units>  (5) 
cal/(mol*K)

>  <Cp_T_value_list>  (5) 
[15.264391809977674, 18.555665777647867, 21.542477084400776, 24.16168097728455, 28.43436620324965, 31.648990357486973, 36.56707396910277, 39.11456920322472, 40.43549191091649]

>  <Cp_T_units>  (5) 
cal/(mol*K)

>  <T_list>  (5) 
[300.0, 400.0, 500.0, 600.0, 800.0, 1000.0, 1500.0, 2000.0, 2400.0]

>  <T_units>  (5) 
K

>  <yaml_path>  (5) 
/home/calvin/Dropbox/PersonalFolders/Calvin/ATLAS_Converged/rmg_rxn_3296/output/Species/rmg_rxn_3296_r1_sbr-CH-sbr=CC/rmg_rxn_3296_r1_sbr-CH-sbr=CC.yml

>  <frequencies_cm1>  (5) 
[191.17000432348, 405.3512764542799, 612.1368053954399, 794.34539387632, 826.7575645867199, 930.6344515223599, 1057.6324780304399, 1106.7863589509998, 1263.44976204148, 1394.05982282788, 1469.8576067900399, 1470.75718186696, 1689.7865456336797, 3013.59024165264, 3022.2975790384, 3075.38624254732, 3112.38555945148, 3222.5114030283203]

>  <ZPE_kJmol>  (5) 
171.41831607459883

>  <E_elec_kJmol>  (5) 
-307765.7994533157

>  <E0_minus_Eelec_plus_ZPE_kJmol>  (5) 
0.0

>  <rxn>  (5) 
rmg_rxn_3296

>  <species_type>  (5) 
r0

>  <species_folder>  (5) 
rmg_rxn_3296_r1_sbr-CH-sbr=CC

>  <frequencies_cm1_list>  (5) 
[191.17000432348, 405.3512764542799, 612.1368053954399, 794.34539387632, 826.7575645867199, 930.6344515223599, 1057.6324780304399, 1106.7863589509998, 1263.44976204148, 1394.05982282788, 1469.8576067900399, 1470.75718186696, 1689.7865456336797, 3013.59024165264, 3022.2975790384, 3075.38624254732, 3112.38555945148, 3222.5114030283203]

>  <E0_kJmol>  (5) 
-307594

>  <H298_kJmol>  (5) 
-307581

$$$$
