
     RDKit          3D

  9  8  0  0  0  0  0  0  0  0999 V2000
    0.2831   -0.3751   -1.1892 C   0  0  0  0  0  0  0  0  0  1  0  0
    0.3117   -0.2676    0.3299 C   0  0  0  0  0  0  0  0  0  2  0  0
   -0.6407    0.6761    0.8224 N   0  0  0  0  0  2  0  0  0  3  0  0
    0.5144    0.5886   -1.6443 H   0  0  0  0  0  0  0  0  0  4  0  0
    1.0131   -1.1073   -1.5396 H   0  0  0  0  0  0  0  0  0  5  0  0
   -0.7062   -0.6816   -1.5305 H   0  0  0  0  0  0  0  0  0  6  0  0
    1.3221    0.0051    0.6751 H   0  0  0  0  0  0  0  0  0  7  0  0
    0.1098   -1.2522    0.7827 H   0  0  0  0  0  0  0  0  0  8  0  0
   -0.4686    0.7006    1.8478 H   0  0  0  0  0  0  0  0  0  9  0  0
  1  5  1  0
  1  4  1  0
  1  6  1  0
  1  2  1  0
  2  3  1  0
  2  7  1  0
  2  8  1  0
  3  9  1  0
M  RAD  1   3   2
M  END
>  <rmg_smiles>  (1) 
CC[NH]

>  <rmg_adjacency_list>  (1) 
multiplicity 2
1 N u1 p1 c0 {2,S} {9,S}
2 C u0 p0 c0 {1,S} {3,S} {4,S} {5,S}
3 C u0 p0 c0 {2,S} {6,S} {7,S} {8,S}
4 H u0 p0 c0 {2,S}
5 H u0 p0 c0 {2,S}
6 H u0 p0 c0 {3,S}
7 H u0 p0 c0 {3,S}
8 H u0 p0 c0 {3,S}
9 H u0 p0 c0 {1,S}


>  <multiplicity>  (1) 
2

>  <reaction>  (1) 
rmg_rxn_320

>  <type>  (1) 
r1h

>  <role_mapnums>  (1) 
{"r1h_a": 3, "r1h_h": 9}

>  <role_mapidx>  (1) 
{"r1h_a": 2, "r1h_h": 8}

>  <ordered_mapped_smiles>  (1) 
[C:1]([C:2]([N:3][H:9])([H:7])[H:8])([H:4])([H:5])[H:6]

>  <mol_properties>  (1) 
{"2": {"label": "donator", "atom_type": "N3s"}, "8": {"label": "d_hydrogen", "atom_type": "H0"}}

>  <level_of_theory>  (1) 
wb97xd/def2tzvp

>  <lot_method>  (1) 
wb97xd

>  <lot_basis>  (1) 
def2tzvp

>  <spin_multiplicity>  (1) 
2.0

>  <optical_isomers>  (1) 
1.0

>  <modes>  (1) 
IdealGasTranslation(mass=(44.05, 'amu')),         NonlinearRotor(             inertia = ([13.5046, 54.0855, 61.3855

>  <frequency_value>  (1) 
unknown

>  <frequency_units>  (1) 
unknown

>  <frequency_list>  (1) 
unknown

>  <arkane_path>  (1) 
/home/calvin/Dropbox/PersonalFolders/Calvin/ATLAS_Converged/rmg_rxn_320/output/Species/rmg_rxn_320_r1_CCsbr-NH-sbr/arkane/output.py

>  <path_exists>  (1) 
True

>  <E0_value>  (1) 
-352969.95105561113

>  <E0_units>  (1) 
kJ/mol

>  <thermo_class>  (1) 
NASA

>  <Cp0_value>  (1) 
33.257888

>  <Cp0_units>  (1) 
J/(mol*K)

>  <CpInf_value>  (1) 
207.8618

>  <CpInf_units>  (1) 
J/(mol*K)

>  <Tmin_value>  (1) 
10.0

>  <Tmin_units>  (1) 
K

>  <Tmax_value>  (1) 
3000.0

>  <Tmax_units>  (1) 
K

>  <polynomials>  (1) 
[{"name": "polynomial1", "class": "NASAPolynomial", "Tmin_value": 10.0, "Tmin_units": "K", "Tmax_value": 494.98074748977484, "Tmax_units": "K", "coeffs": [3.96628511452133, 0.0018994782140610337, 6.762100082474034e-05, -1.0861292876060174e-07, 5.65918620315742e-11, -42452477.255166434, 7.84782322933281]}, {"name": "polynomial2", "class": "NASAPolynomial", "Tmin_value": 494.98074748977484, "Tmin_units": "K", "Tmax_value": 3000.0, "Tmax_units": "K", "coeffs": [0.5324488734331831, 0.029632058000791692, -1.6369867882593552e-05, 4.442442345004726e-09, -4.746642285780625e-13, -42452137.11437419, 22.001362446936305]}]

>  <H298_value>  (1) 
-84358.50970291646

>  <H298_units>  (1) 
kcal/mol

>  <S298_value>  (1) 
65.90798772684775

>  <S298_units>  (1) 
cal/(mol*K)

>  <Cp_T_value_list>  (1) 
[16.191487631841138, 19.95743690999345, 23.412570840096805, 26.46279891443655, 31.48030762408747, 35.29759074982531, 41.21185768118182, 44.23919996224711, 45.751558882208336]

>  <Cp_T_units>  (1) 
cal/(mol*K)

>  <T_list>  (1) 
[300.0, 400.0, 500.0, 600.0, 800.0, 1000.0, 1500.0, 2000.0, 2400.0]

>  <T_units>  (1) 
K

>  <yaml_path>  (1) 
/home/calvin/Dropbox/PersonalFolders/Calvin/ATLAS_Converged/rmg_rxn_320/output/Species/rmg_rxn_320_r1_CCsbr-NH-sbr/rmg_rxn_320_r1_CCsbr-NH-sbr.yml

>  <frequencies_cm1>  (1) 
[215.54780220947998, 313.0658607388, 421.33075129391995, 726.5957167091999, 902.32873803332, 1018.4151248679198, 1029.1207549817998, 1087.9845531448398, 1242.70459938976, 1258.69094121472, 1381.9189927821199, 1408.32255133752, 1429.1295168571198, 1475.1657864423998, 1485.8096136883998, 2923.26191675336, 2945.2843386746, 3021.78942212472, 3097.67647689604, 3102.6619082383595, 3400.85387877404]

>  <ZPE_kJmol>  (1) 
202.6932728728076

>  <E_elec_kJmol>  (1) 
-353172.644328484

>  <E0_minus_Eelec_plus_ZPE_kJmol>  (1) 
0.0

>  <rxn>  (1) 
rmg_rxn_320

>  <species_type>  (1) 
r0

>  <species_folder>  (1) 
rmg_rxn_320_r1_CCsbr-NH-sbr

>  <frequencies_cm1_list>  (1) 
[215.54780220947998, 313.0658607388, 421.33075129391995, 726.5957167091999, 902.32873803332, 1018.4151248679198, 1029.1207549817998, 1087.9845531448398, 1242.70459938976, 1258.69094121472, 1381.9189927821199, 1408.32255133752, 1429.1295168571198, 1475.1657864423998, 1485.8096136883998, 2923.26191675336, 2945.2843386746, 3021.78942212472, 3097.67647689604, 3102.6619082383595, 3400.85387877404]

>  <E0_kJmol>  (1) 
-352970

>  <H298_kJmol>  (1) 
-352956

$$$$

     RDKit          3D

 18 17  0  0  0  0  0  0  0  0999 V2000
    0.6943   -0.3205   -1.5000 H   0  0  0  0  0  0  0  0  0  1  0  0
   -0.3968   -2.4970   -0.2594 C   0  0  0  0  0  0  0  0  0  2  0  0
    0.9267   -1.7845   -0.0042 C   0  0  0  0  0  0  0  0  0  3  0  0
    0.9170   -0.3415   -0.4245 C   0  0  0  0  0  0  0  0  0  4  0  0
   -0.0710    0.3744    0.2021 O   0  0  0  0  0  0  0  0  0  5  0  0
   -0.0878    1.7532   -0.1200 C   0  0  0  0  0  0  0  0  0  6  0  0
   -1.2150    2.4130    0.6371 C   0  0  0  0  0  0  0  0  0  7  0  0
   -0.6650   -2.4566   -1.3172 H   0  0  0  0  0  0  0  0  0  8  0  0
   -0.3371   -3.5447    0.0379 H   0  0  0  0  0  0  0  0  0  9  0  0
   -1.2029   -2.0272    0.3035 H   0  0  0  0  0  0  0  0  0 10  0  0
    1.1801   -1.8446    1.0608 H   0  0  0  0  0  0  0  0  0 11  0  0
    1.7365   -2.2830   -0.5439 H   0  0  0  0  0  0  0  0  0 12  0  0
    1.8968    0.1531   -0.3785 H   0  0  0  0  0  0  0  0  0 13  0  0
    0.8784    2.2000    0.1506 H   0  0  0  0  0  0  0  0  0 14  0  0
   -0.2202    1.8699   -1.2011 H   0  0  0  0  0  0  0  0  0 15  0  0
   -1.0795    2.2936    1.7126 H   0  0  0  0  0  0  0  0  0 16  0  0
   -1.2451    3.4791    0.4076 H   0  0  0  0  0  0  0  0  0 17  0  0
   -2.1722    1.9723    0.3573 H   0  0  0  0  0  0  0  0  0 18  0  0
  1  4  1  0
  2 10  1  0
  2  9  1  0
  2  8  1  0
  2  3  1  0
  3  4  1  0
  3 11  1  0
  3 12  1  0
  4 13  1  0
  4  5  1  0
  5  6  1  0
  6 15  1  0
  6 14  1  0
  6  7  1  0
  7 18  1  0
  7 17  1  0
  7 16  1  0
M  END
>  <rmg_smiles>  (2) 
CCCOCC

>  <rmg_adjacency_list>  (2) 
1  O u0 p2 c0 {3,S} {4,S}
2  C u0 p0 c0 {3,S} {5,S} {7,S} {8,S}
3  C u0 p0 c0 {1,S} {2,S} {9,S} {10,S}
4  C u0 p0 c0 {1,S} {6,S} {11,S} {12,S}
5  C u0 p0 c0 {2,S} {13,S} {14,S} {15,S}
6  C u0 p0 c0 {4,S} {16,S} {17,S} {18,S}
7  H u0 p0 c0 {2,S}
8  H u0 p0 c0 {2,S}
9  H u0 p0 c0 {3,S}
10 H u0 p0 c0 {3,S}
11 H u0 p0 c0 {4,S}
12 H u0 p0 c0 {4,S}
13 H u0 p0 c0 {5,S}
14 H u0 p0 c0 {5,S}
15 H u0 p0 c0 {5,S}
16 H u0 p0 c0 {6,S}
17 H u0 p0 c0 {6,S}
18 H u0 p0 c0 {6,S}


>  <multiplicity>  (2) 
1

>  <reaction>  (2) 
rmg_rxn_320

>  <type>  (2) 
r2h

>  <role_mapnums>  (2) 
{"r2h_a": 4, "r2h_h": 1}

>  <role_mapidx>  (2) 
{"r2h_a": 3, "r2h_h": 0}

>  <ordered_mapped_smiles>  (2) 
[H:1][C:4]([C:3]([C:2]([H:8])([H:9])[H:10])([H:11])[H:12])([O:5][C:6]([C:7]([H:16])([H:17])[H:18])([H:14])[H:15])[H:13]

>  <mol_properties>  (2) 
{"0": {"label": "a_hydrogen", "atom_type": "H0"}, "3": {"label": "acceptor", "atom_type": "Cs"}}

>  <level_of_theory>  (2) 
wb97xd/def2tzvp

>  <lot_method>  (2) 
wb97xd

>  <lot_basis>  (2) 
def2tzvp

>  <spin_multiplicity>  (2) 
1.0

>  <optical_isomers>  (2) 
2.0

>  <modes>  (2) 
IdealGasTranslation(mass=(88.0888, 'amu')),         NonlinearRotor(             inertia = ([59.5652, 317.445, 349.634

>  <frequency_value>  (2) 
unknown

>  <frequency_units>  (2) 
unknown

>  <frequency_list>  (2) 
unknown

>  <arkane_path>  (2) 
/home/calvin/Dropbox/PersonalFolders/Calvin/ATLAS_Converged/rmg_rxn_320/output/Species/rmg_rxn_320_p2_CCCOCC/arkane/output.py

>  <path_exists>  (2) 
True

>  <E0_value>  (2) 
-716327.3605709573

>  <E0_units>  (2) 
kJ/mol

>  <thermo_class>  (2) 
NASA

>  <Cp0_value>  (2) 
33.257888

>  <Cp0_units>  (2) 
J/(mol*K)

>  <CpInf_value>  (2) 
432.352544

>  <CpInf_units>  (2) 
J/(mol*K)

>  <Tmin_value>  (2) 
10.0

>  <Tmin_units>  (2) 
K

>  <Tmax_value>  (2) 
3000.0

>  <Tmax_units>  (2) 
K

>  <polynomials>  (2) 
[{"name": "polynomial1", "class": "NASAPolynomial", "Tmin_value": 10.0, "Tmin_units": "K", "Tmax_value": 424.14701041358796, "Tmax_units": "K", "coeffs": [3.4707042336928127, 0.05746545203879795, -0.00016719847115372115, 4.780470157694204e-07, -4.3347206706639054e-10, -86154279.58985142, 11.635447004604476]}, {"name": "polynomial2", "class": "NASAPolynomial", "Tmin_value": 424.14701041358796, "Tmin_units": "K", "Tmax_value": 3000.0, "Tmax_units": "K", "coeffs": [-2.8535624465972114, 0.06921008708460846, -3.934323609424939e-05, 1.0841890934368647e-08, -1.163418506360095e-12, -86153312.26572455, 41.80111524234505]}]

>  <H298_value>  (2) 
-171200.6815246165

>  <H298_units>  (2) 
kcal/mol

>  <S298_value>  (2) 
88.37399878129293

>  <S298_units>  (2) 
cal/(mol*K)

>  <Cp_T_value_list>  (2) 
[29.924593767526826, 38.16083070533892, 46.09960348181722, 53.05840207682852, 64.40406715451496, 72.91410593462665, 85.72980278110597, 92.03567805993791, 95.21197800865355]

>  <Cp_T_units>  (2) 
cal/(mol*K)

>  <T_list>  (2) 
[300.0, 400.0, 500.0, 600.0, 800.0, 1000.0, 1500.0, 2000.0, 2400.0]

>  <T_units>  (2) 
K

>  <yaml_path>  (2) 
/home/calvin/Dropbox/PersonalFolders/Calvin/ATLAS_Converged/rmg_rxn_320/output/Species/rmg_rxn_320_p2_CCCOCC/rmg_rxn_320_p2_CCCOCC.yml

>  <frequencies_cm1>  (2) 
[76.60808822992, 85.88538539723999, 152.39213822143998, 171.44115549912, 250.05440344247998, 256.05614861216003, 329.51915756551995, 440.0707542322, 493.7774464199199, 767.98990421816, 823.02879155796, 891.3896304185598, 900.4815189822399, 929.41899512072, 1002.9850088538799, 1082.00340893112, 1102.9065122452, 1152.52734816752, 1174.9617892079598, 1182.44680320676, 1190.2339645596398, 1270.1176047871998, 1295.23017010244, 1305.6473868328799, 1368.30176089256, 1380.4425909383199, 1399.7456866728398, 1405.4521514737598, 1443.92787022172, 1468.7794900948002, 1470.37949767436, 1482.5752636026798, 1487.2448136202797, 1494.6336898246, 1500.58049911172, 1519.49904366832, 2928.8997117010795, 2942.5512785172396, 2962.4655359452395, 2968.54281795344, 3015.14904732028, 3021.7276192568397, 3024.0692612509597, 3058.7338031463196, 3085.2403664815197, 3101.8035350733594, 3104.27564978856, 3105.2988306012394]

>  <ZPE_kJmol>  (2) 
431.0594598774012

>  <E_elec_kJmol>  (2) 
-716758.4200308347

>  <E0_minus_Eelec_plus_ZPE_kJmol>  (2) 
0.0

>  <rxn>  (2) 
rmg_rxn_320

>  <species_type>  (2) 
p1

>  <species_folder>  (2) 
rmg_rxn_320_p2_CCCOCC

>  <frequencies_cm1_list>  (2) 
[76.60808822992, 85.88538539723999, 152.39213822143998, 171.44115549912, 250.05440344247998, 256.05614861216003, 329.51915756551995, 440.0707542322, 493.7774464199199, 767.98990421816, 823.02879155796, 891.3896304185598, 900.4815189822399, 929.41899512072, 1002.9850088538799, 1082.00340893112, 1102.9065122452, 1152.52734816752, 1174.9617892079598, 1182.44680320676, 1190.2339645596398, 1270.1176047871998, 1295.23017010244, 1305.6473868328799, 1368.30176089256, 1380.4425909383199, 1399.7456866728398, 1405.4521514737598, 1443.92787022172, 1468.7794900948002, 1470.37949767436, 1482.5752636026798, 1487.2448136202797, 1494.6336898246, 1500.58049911172, 1519.49904366832, 2928.8997117010795, 2942.5512785172396, 2962.4655359452395, 2968.54281795344, 3015.14904732028, 3021.7276192568397, 3024.0692612509597, 3058.7338031463196, 3085.2403664815197, 3101.8035350733594, 3104.27564978856, 3105.2988306012394]

>  <E0_kJmol>  (2) 
-716327

>  <H298_kJmol>  (2) 
-716304

$$$$

     RDKit          3D

 26 24  0  0  0  0  0  0  0  0999 V2000
    0.9274   -1.0850   -3.7527 C   0  0  0  0  0  0  0  0  0  1  0  0
    0.9560   -0.9776   -2.2337 C   0  0  0  0  0  0  0  0  0  2  0  0
    0.0036   -0.0338   -1.7411 N   0  0  0  0  0  2  0  0  0  3  0  0
    1.1587   -0.1214   -4.2078 H   0  0  0  0  0  0  0  0  0  4  0  0
    1.6574   -1.8172   -4.1031 H   0  0  0  0  0  0  0  0  0  5  0  0
   -0.0619   -1.3916   -4.0941 H   0  0  0  0  0  0  0  0  0  6  0  0
    1.9664   -0.7049   -1.8884 H   0  0  0  0  0  0  0  0  0  7  0  0
    0.7541   -1.9621   -1.7808 H   0  0  0  0  0  0  0  0  0  8  0  0
    0.2115   -0.0043   -0.5019 H   0  0  0  0  0  0  0  0  0  9  0  0
   -0.8256   -2.1859    0.9995 C   0  0  0  0  0  0  0  0  0 10  0  0
    0.4979   -1.4734    1.2547 C   0  0  0  0  0  0  0  0  0 11  0  0
    0.4883   -0.0303    0.8343 C   0  0  0  0  0  3  0  0  0 12  0  0
   -0.4997    0.6855    1.4610 O   0  0  0  0  0  0  0  0  0 13  0  0
   -0.5166    2.0643    1.1388 C   0  0  0  0  0  0  0  0  0 14  0  0
   -1.6437    2.7241    1.8959 C   0  0  0  0  0  0  0  0  0 15  0  0
   -1.0938   -2.1455   -0.0584 H   0  0  0  0  0  0  0  0  0 16  0  0
   -0.7658   -3.2336    1.2968 H   0  0  0  0  0  0  0  0  0 17  0  0
   -1.6316   -1.7161    1.5623 H   0  0  0  0  0  0  0  0  0 18  0  0
    0.7513   -1.5335    2.3196 H   0  0  0  0  0  0  0  0  0 19  0  0
    1.3077   -1.9719    0.7149 H   0  0  0  0  0  0  0  0  0 20  0  0
    1.4681    0.4643    0.8803 H   0  0  0  0  0  0  0  0  0 21  0  0
    0.4496    2.5111    1.4095 H   0  0  0  0  0  0  0  0  0 22  0  0
   -0.6490    2.1810    0.0578 H   0  0  0  0  0  0  0  0  0 23  0  0
   -1.5082    2.6047    2.9715 H   0  0  0  0  0  0  0  0  0 24  0  0
   -1.6738    3.7902    1.6665 H   0  0  0  0  0  0  0  0  0 25  0  0
   -2.6010    2.2834    1.6162 H   0  0  0  0  0  0  0  0  0 26  0  0
  1  4  1  0
  1  5  1  0
  1  6  1  0
  1  2  1  0
  2  8  1  0
  2  3  1  0
  2  7  1  0
  3  9  1  0
 10 16  1  0
 10 18  1  0
 10 11  1  0
 10 17  1  0
 11 19  1  0
 11 12  1  0
 11 20  1  0
 12 13  1  0
 12 21  1  0
 13 14  1  0
 14 15  1  0
 14 23  1  0
 14 22  1  0
 15 25  1  0
 15 24  1  0
 15 26  1  0
M  RAD  2   3   2  12   2
M  END
>  <rmg_smiles>  (3) 
CCO[CH]CC.CC[NH]

>  <rmg_adjacency_list>  (3) 
multiplicity 3
1  O u0 p2 c0 {4,S} {9,S}
2  N u1 p1 c0 {5,S} {26,S}
3  C u0 p0 c0 {6,S} {9,S} {10,S} {11,S}
4  C u0 p0 c0 {1,S} {8,S} {14,S} {15,S}
5  C u0 p0 c0 {2,S} {7,S} {12,S} {13,S}
6  C u0 p0 c0 {3,S} {19,S} {20,S} {21,S}
7  C u0 p0 c0 {5,S} {16,S} {17,S} {18,S}
8  C u0 p0 c0 {4,S} {22,S} {23,S} {24,S}
9  C u1 p0 c0 {1,S} {3,S} {25,S}
10 H u0 p0 c0 {3,S}
11 H u0 p0 c0 {3,S}
12 H u0 p0 c0 {5,S}
13 H u0 p0 c0 {5,S}
14 H u0 p0 c0 {4,S}
15 H u0 p0 c0 {4,S}
16 H u0 p0 c0 {7,S}
17 H u0 p0 c0 {7,S}
18 H u0 p0 c0 {7,S}
19 H u0 p0 c0 {6,S}
20 H u0 p0 c0 {6,S}
21 H u0 p0 c0 {6,S}
22 H u0 p0 c0 {8,S}
23 H u0 p0 c0 {8,S}
24 H u0 p0 c0 {8,S}
25 H u0 p0 c0 {9,S}
26 H u0 p0 c0 {2,S}


>  <multiplicity>  (3) 
3

>  <reaction>  (3) 
rmg_rxn_320

>  <type>  (3) 
ts

>  <role_mapnums>  (3) 
{"*2": 9, "*1": 3, "*3": 12, "*0": 2, "*4": 13}

>  <role_mapidx>  (3) 
{"*2": 8, "*1": 2, "*3": 11, "*0": 1, "*4": 12}

>  <ordered_mapped_smiles>  (3) 
[C:1]([C:2]([N:3][H:9])([H:7])[H:8])([H:4])([H:5])[H:6].[C:10]([C:11]([C:12]([O:13][C:14]([C:15]([H:24])([H:25])[H:26])([H:22])[H:23])[H:21])([H:19])[H:20])([H:16])([H:17])[H:18]

>  <mol_properties>  (3) 
{"1": {"label": "*0", "atom_type": "Cs"}, "2": {"label": "*1", "atom_type": "N3s"}, "8": {"label": "*2", "atom_type": "H0"}, "11": {"label": "*3", "atom_type": "Cs"}, "12": {"label": "*4", "atom_type": "O2s"}}

>  <level_of_theory>  (3) 
wb97xd/def2tzvp

>  <lot_method>  (3) 
wb97xd

>  <lot_basis>  (3) 
def2tzvp

>  <spin_multiplicity>  (3) 
3.0

>  <optical_isomers>  (3) 
2.0

>  <modes>  (3) 
IdealGasTranslation(mass=(131.131, 'amu')),         NonlinearRotor(             inertia = ([273.324, 694.068, 877.287

>  <frequency_value>  (3) 
-1805.95

>  <frequency_units>  (3) 
cm^-1

>  <frequency_list>  (3) 
unknown

>  <arkane_path>  (3) 
/home/calvin/Dropbox/PersonalFolders/Calvin/ATLAS_Converged/rmg_rxn_320/output/rxns/TS0/arkane/output.py

>  <path_exists>  (3) 
True

>  <E0_value>  (3) 
-1067570.0

>  <E0_units>  (3) 
kJ/mol

>  <thermo_class>  (3) 
unknown

>  <Cp0_value>  (3) 
unknown

>  <Cp0_units>  (3) 
unknown

>  <CpInf_value>  (3) 
unknown

>  <CpInf_units>  (3) 
unknown

>  <Tmin_value>  (3) 
unknown

>  <Tmin_units>  (3) 
unknown

>  <Tmax_value>  (3) 
unknown

>  <Tmax_units>  (3) 
unknown

>  <polynomials>  (3) 
unknown

>  <H298_value>  (3) 
unknown

>  <H298_units>  (3) 
unknown

>  <S298_value>  (3) 
unknown

>  <S298_units>  (3) 
unknown

>  <Cp_T_value_list>  (3) 
unknown

>  <Cp_T_units>  (3) 
unknown

>  <T_list>  (3) 
unknown

>  <T_units>  (3) 
unknown

>  <yaml_path>  (3) 
unknown

>  <frequencies_cm1>  (3) 
unknown

>  <ZPE_kJmol>  (3) 
unknown

>  <E_elec_kJmol>  (3) 
unknown

>  <E0_minus_Eelec_plus_ZPE_kJmol>  (3) 
unknown

>  <rxn>  (3) 
unknown

>  <species_type>  (3) 
unknown

>  <species_folder>  (3) 
unknown

>  <frequencies_cm1_list>  (3) 
[]

>  <ts_imag_freq_cm1>  (3) 
-1827.8856

>  <ts_freq_out_path>  (3) 
/home/calvin/Dropbox/PersonalFolders/Calvin/ATLAS_Converged/rmg_rxn_320/output/rxns/TS0/geometry/freq.out

>  <E0_kJmol>  (3) 
-1.06757e+06

>  <H298_kJmol>  (3) 
unknown

$$$$

     RDKit          3D

  8  7  0  0  0  0  0  0  0  0999 V2000
   -0.7853    0.0326    0.0393 C   0  0  0  0  0  0  0  0  0  1  0  0
    0.7379   -0.1211   -0.0579 C   0  0  0  0  0  0  0  0  0  2  0  0
    1.1315   -0.8282   -1.2106 N   0  0  0  0  0  1  0  0  0  3  0  0
   -1.2679   -0.9438    0.0768 H   0  0  0  0  0  0  0  0  0  4  0  0
   -1.0464    0.5840    0.9431 H   0  0  0  0  0  0  0  0  0  5  0  0
   -1.1718    0.5760   -0.8227 H   0  0  0  0  0  0  0  0  0  6  0  0
    1.2178    0.8698   -0.0686 H   0  0  0  0  0  0  0  0  0  7  0  0
    1.1219   -0.6479    0.8296 H   0  0  0  0  0  0  0  0  0  8  0  0
  1  5  1  0
  1  4  1  0
  1  6  1  0
  1  2  1  0
  2  3  1  0
  2  7  1  0
  2  8  1  0
M  RAD  1   3   3
M  END
>  <rmg_smiles>  (4) 
CC[N]

>  <rmg_adjacency_list>  (4) 
multiplicity 3
1 N u2 p2 c0 {3,S}
2 C u0 p0 c0 {3,S} {4,S} {5,S} {6,S}
3 C u0 p0 c0 {1,S} {2,S} {7,S} {8,S}
4 H u0 p0 c0 {2,S}
5 H u0 p0 c0 {2,S}
6 H u0 p0 c0 {2,S}
7 H u0 p0 c0 {3,S}
8 H u0 p0 c0 {3,S}


>  <multiplicity>  (4) 
3

>  <reaction>  (4) 
rmg_rxn_320

>  <type>  (4) 
r1

>  <role_mapnums>  (4) 
{}

>  <role_mapidx>  (4) 
{}

>  <ordered_mapped_smiles>  (4) 
[C:1]([C:2]([N:3])([H:7])[H:8])([H:4])([H:5])[H:6]

>  <level_of_theory>  (4) 
wb97xd/def2tzvp

>  <lot_method>  (4) 
wb97xd

>  <lot_basis>  (4) 
def2tzvp

>  <spin_multiplicity>  (4) 
3.0

>  <optical_isomers>  (4) 
1.0

>  <modes>  (4) 
IdealGasTranslation(mass=(43.0422, 'amu')),         NonlinearRotor(             inertia = ([13.2978, 49.7979, 56.7993

>  <frequency_value>  (4) 
unknown

>  <frequency_units>  (4) 
unknown

>  <frequency_list>  (4) 
unknown

>  <arkane_path>  (4) 
/home/calvin/Dropbox/PersonalFolders/Calvin/ATLAS_Converged/rmg_rxn_320/output/Species/rmg_rxn_320_p1_CCsbr-N-sbr/arkane/output.py

>  <path_exists>  (4) 
True

>  <E0_value>  (4) 
-351303.23848085233

>  <E0_units>  (4) 
kJ/mol

>  <thermo_class>  (4) 
NASA

>  <Cp0_value>  (4) 
33.257888

>  <Cp0_units>  (4) 
J/(mol*K)

>  <CpInf_value>  (4) 
182.918384

>  <CpInf_units>  (4) 
J/(mol*K)

>  <Tmin_value>  (4) 
10.0

>  <Tmin_units>  (4) 
K

>  <Tmax_value>  (4) 
3000.0

>  <Tmax_units>  (4) 
K

>  <polynomials>  (4) 
[{"name": "polynomial1", "class": "NASAPolynomial", "Tmin_value": 10.0, "Tmin_units": "K", "Tmax_value": 538.90863830612, "Tmax_units": "K", "coeffs": [4.011017893648797, -0.000996526599198243, 6.34493776247714e-05, -9.34151768570848e-08, 4.485816232808959e-11, -42252019.791687176, 8.154035590068796]}, {"name": "polynomial2", "class": "NASAPolynomial", "Tmin_value": 538.90863830612, "Tmin_units": "K", "Tmax_value": 3000.0, "Tmax_units": "K", "coeffs": [0.1889273408420262, 0.02737276498056165, -1.5514283778665416e-05, 4.268848130444583e-09, -4.577869697015348e-13, -42251607.842699245, 24.230537973141246]}]

>  <H298_value>  (4) 
-83960.41291340075

>  <H298_units>  (4) 
kcal/mol

>  <S298_value>  (4) 
65.16030182938087

>  <S298_units>  (4) 
cal/(mol*K)

>  <Cp_T_value_list>  (4) 
[14.434363041238354, 17.753912153606223, 20.869318835111557, 23.62825526207762, 28.131170270711078, 31.514054089972188, 36.62571062079461, 39.15495452180056, 40.43085357674264]

>  <Cp_T_units>  (4) 
cal/(mol*K)

>  <T_list>  (4) 
[300.0, 400.0, 500.0, 600.0, 800.0, 1000.0, 1500.0, 2000.0, 2400.0]

>  <T_units>  (4) 
K

>  <yaml_path>  (4) 
/home/calvin/Dropbox/PersonalFolders/Calvin/ATLAS_Converged/rmg_rxn_320/output/Species/rmg_rxn_320_p1_CCsbr-N-sbr/rmg_rxn_320_p1_CCsbr-N-sbr.yml

>  <frequencies_cm1>  (4) 
[219.85340200512002, 386.0619146904, 760.5529591165998, 905.2609407649599, 1021.4297314234, 1026.9988565179199, 1083.5347466574801, 1232.4178553804, 1304.0885811652397, 1390.88040862472, 1421.98785212432, 1476.3263069614798, 1486.33150457272, 2930.4447833980794, 2964.9719855870403, 3028.6838753859997, 3108.6361854667603, 3113.1134598954]

>  <ZPE_kJmol>  (4) 
172.63060648664862

>  <E_elec_kJmol>  (4) 
-351475.869087339

>  <E0_minus_Eelec_plus_ZPE_kJmol>  (4) 
0.0

>  <rxn>  (4) 
rmg_rxn_320

>  <species_type>  (4) 
p0

>  <species_folder>  (4) 
rmg_rxn_320_p1_CCsbr-N-sbr

>  <frequencies_cm1_list>  (4) 
[219.85340200512002, 386.0619146904, 760.5529591165998, 905.2609407649599, 1021.4297314234, 1026.9988565179199, 1083.5347466574801, 1232.4178553804, 1304.0885811652397, 1390.88040862472, 1421.98785212432, 1476.3263069614798, 1486.33150457272, 2930.4447833980794, 2964.9719855870403, 3028.6838753859997, 3108.6361854667603, 3113.1134598954]

>  <E0_kJmol>  (4) 
-351303

>  <H298_kJmol>  (4) 
-351290

$$$$

     RDKit          3D

 17 16  0  0  0  0  0  0  0  0999 V2000
   -2.5196    0.7765    0.6863 C   0  0  0  0  0  0  0  0  0  1  0  0
   -1.7832    0.2264   -0.5439 C   0  0  0  0  0  0  0  0  0  2  0  0
   -0.5364   -0.5090   -0.2164 C   0  0  0  0  0  3  0  0  0  3  0  0
   -0.7195   -1.6896    0.4220 O   0  0  0  0  0  0  0  0  0  4  0  0
    0.4618   -2.3470    0.8423 C   0  0  0  0  0  0  0  0  0  5  0  0
    0.0797   -3.6206    1.5573 C   0  0  0  0  0  0  0  0  0  6  0  0
   -1.8902    1.4809    1.2340 H   0  0  0  0  0  0  0  0  0  7  0  0
   -3.4347    1.2951    0.3937 H   0  0  0  0  0  0  0  0  0  8  0  0
   -2.7882   -0.0345    1.3642 H   0  0  0  0  0  0  0  0  0  9  0  0
   -2.4551   -0.4399   -1.0937 H   0  0  0  0  0  0  0  0  0 10  0  0
   -1.5294    1.0480   -1.2176 H   0  0  0  0  0  0  0  0  0 11  0  0
    0.3864    0.0229    0.0104 H   0  0  0  0  0  0  0  0  0 12  0  0
    1.0871   -2.5604   -0.0319 H   0  0  0  0  0  0  0  0  0 13  0  0
    1.0283   -1.6824    1.5065 H   0  0  0  0  0  0  0  0  0 14  0  0
   -0.4799   -4.2803    0.8934 H   0  0  0  0  0  0  0  0  0 15  0  0
    0.9764   -4.1449    1.8908 H   0  0  0  0  0  0  0  0  0 16  0  0
   -0.5383   -3.4025    2.4289 H   0  0  0  0  0  0  0  0  0 17  0  0
  1  8  1  0
  1  7  1  0
  1  9  1  0
  1  2  1  0
  2 10  1  0
  2 11  1  0
  2  3  1  0
  3  4  1  0
  3 12  1  0
  4  5  1  0
  5 13  1  0
  5 14  1  0
  5  6  1  0
  6 17  1  0
  6 15  1  0
  6 16  1  0
M  RAD  1   3   2
M  END
>  <rmg_smiles>  (5) 
CC[CH]OCC

>  <rmg_adjacency_list>  (5) 
multiplicity 2
1  O u0 p2 c0 {3,S} {6,S}
2  C u0 p0 c0 {4,S} {6,S} {7,S} {8,S}
3  C u0 p0 c0 {1,S} {5,S} {9,S} {10,S}
4  C u0 p0 c0 {2,S} {11,S} {12,S} {13,S}
5  C u0 p0 c0 {3,S} {14,S} {15,S} {16,S}
6  C u1 p0 c0 {1,S} {2,S} {17,S}
7  H u0 p0 c0 {2,S}
8  H u0 p0 c0 {2,S}
9  H u0 p0 c0 {3,S}
10 H u0 p0 c0 {3,S}
11 H u0 p0 c0 {4,S}
12 H u0 p0 c0 {4,S}
13 H u0 p0 c0 {4,S}
14 H u0 p0 c0 {5,S}
15 H u0 p0 c0 {5,S}
16 H u0 p0 c0 {5,S}
17 H u0 p0 c0 {6,S}


>  <multiplicity>  (5) 
2

>  <reaction>  (5) 
rmg_rxn_320

>  <type>  (5) 
r2

>  <role_mapnums>  (5) 
{}

>  <role_mapidx>  (5) 
{}

>  <ordered_mapped_smiles>  (5) 
[C:1]([C:2]([C:3]([O:4][C:5]([C:6]([H:15])([H:16])[H:17])([H:13])[H:14])[H:12])([H:10])[H:11])([H:7])([H:8])[H:9]

>  <level_of_theory>  (5) 
wb97xd/def2tzvp

>  <lot_method>  (5) 
wb97xd

>  <lot_basis>  (5) 
def2tzvp

>  <spin_multiplicity>  (5) 
2.0

>  <optical_isomers>  (5) 
2.0

>  <modes>  (5) 
IdealGasTranslation(mass=(87.081, 'amu')),         NonlinearRotor(             inertia = ([54.0033, 326.681, 352.519

>  <frequency_value>  (5) 
unknown

>  <frequency_units>  (5) 
unknown

>  <frequency_list>  (5) 
unknown

>  <arkane_path>  (5) 
/home/calvin/Dropbox/PersonalFolders/Calvin/ATLAS_Converged/rmg_rxn_320/output/Species/rmg_rxn_320_r2_CCsbr-CH-sbrOCC/arkane/output.py

>  <path_exists>  (5) 
True

>  <E0_value>  (5) 
-714624.8903626137

>  <E0_units>  (5) 
kJ/mol

>  <thermo_class>  (5) 
NASA

>  <Cp0_value>  (5) 
33.257888

>  <Cp0_units>  (5) 
J/(mol*K)

>  <CpInf_value>  (5) 
407.409128

>  <CpInf_units>  (5) 
J/(mol*K)

>  <Tmin_value>  (5) 
10.0

>  <Tmin_units>  (5) 
K

>  <Tmax_value>  (5) 
3000.0

>  <Tmax_units>  (5) 
K

>  <polynomials>  (5) 
[{"name": "polynomial1", "class": "NASAPolynomial", "Tmin_value": 10.0, "Tmin_units": "K", "Tmax_value": 423.9444908476886, "Tmax_units": "K", "coeffs": [3.4364747383725662, 0.05979522973071814, -0.00016092814605265254, 4.228478801898717e-07, -3.7248711232237204e-10, -85949519.65292636, 12.64316366492574]}, {"name": "polynomial2", "class": "NASAPolynomial", "Tmin_value": 423.9444908476886, "Tmin_units": "K", "Tmax_value": 3000.0, "Tmax_units": "K", "coeffs": [-1.111744104574418, 0.06368295204270104, -3.660326677346525e-05, 1.020691789066353e-08, -1.107737677672226e-12, -85948783.31280652, 34.81879818509147]}]

>  <H298_value>  (5) 
-170793.64533219274

>  <H298_units>  (5) 
kcal/mol

>  <S298_value>  (5) 
91.19326537010946

>  <S298_units>  (5) 
cal/(mol*K)

>  <Cp_T_value_list>  (5) 
[30.386886645970332, 38.020541402191725, 45.279585844268674, 51.6315646190747, 61.96256804390006, 69.68561157148531, 81.2683193524739, 86.98526119843194, 89.90296990808856]

>  <Cp_T_units>  (5) 
cal/(mol*K)

>  <T_list>  (5) 
[300.0, 400.0, 500.0, 600.0, 800.0, 1000.0, 1500.0, 2000.0, 2400.0]

>  <T_units>  (5) 
K

>  <yaml_path>  (5) 
/home/calvin/Dropbox/PersonalFolders/Calvin/ATLAS_Converged/rmg_rxn_320/output/Species/rmg_rxn_320_r2_CCsbr-CH-sbrOCC/rmg_rxn_320_r2_CCsbr-CH-sbrOCC.yml

>  <frequencies_cm1>  (5) 
[54.48952851419999, 82.85704487112, 127.80146379052002, 170.37677277452, 246.99859497507998, 250.43895462039995, 310.97143021619996, 438.9033667278, 491.6418139854, 605.5238985322799, 772.5633164412799, 819.403023309, 898.5106941954, 905.0823991466399, 1001.87255723204, 1052.16635771572, 1097.2069144296, 1121.5503773889998, 1171.49396162136, 1174.68024280984, 1255.65573370328, 1288.36318478244, 1294.21385627508, 1330.67754832428, 1376.8580246012798, 1387.8520680986, 1405.8641705929597, 1448.5974202393202, 1460.0240838118, 1470.9013885586799, 1481.4353440395598, 1487.3203504587998, 1491.1589952526797, 1509.26723554152, 2975.12825687532, 3009.9438724477195, 3012.71126753168, 3014.66835834788, 3025.43579132964, 3056.8316482126797, 3084.32019044864, 3088.30304193424, 3099.2284155783595, 3103.8086947867996, 3106.4799520762795]

>  <ZPE_kJmol>  (5) 
395.124157254276

>  <E_elec_kJmol>  (5) 
-715020.014519868

>  <E0_minus_Eelec_plus_ZPE_kJmol>  (5) 
0.0

>  <rxn>  (5) 
rmg_rxn_320

>  <species_type>  (5) 
r1

>  <species_folder>  (5) 
rmg_rxn_320_r2_CCsbr-CH-sbrOCC

>  <frequencies_cm1_list>  (5) 
[54.48952851419999, 82.85704487112, 127.80146379052002, 170.37677277452, 246.99859497507998, 250.43895462039995, 310.97143021619996, 438.9033667278, 491.6418139854, 605.5238985322799, 772.5633164412799, 819.403023309, 898.5106941954, 905.0823991466399, 1001.87255723204, 1052.16635771572, 1097.2069144296, 1121.5503773889998, 1171.49396162136, 1174.68024280984, 1255.65573370328, 1288.36318478244, 1294.21385627508, 1330.67754832428, 1376.8580246012798, 1387.8520680986, 1405.8641705929597, 1448.5974202393202, 1460.0240838118, 1470.9013885586799, 1481.4353440395598, 1487.3203504587998, 1491.1589952526797, 1509.26723554152, 2975.12825687532, 3009.9438724477195, 3012.71126753168, 3014.66835834788, 3025.43579132964, 3056.8316482126797, 3084.32019044864, 3088.30304193424, 3099.2284155783595, 3103.8086947867996, 3106.4799520762795]

>  <E0_kJmol>  (5) 
-714625

>  <H298_kJmol>  (5) 
-714601

$$$$
