
     RDKit          3D

  7  6  0  0  0  0  0  0  0  0999 V2000
    1.3407   -0.0190    0.1177 C   0  0  0  0  0  2  0  0  0  1  0  0
    0.1435   -0.0024    0.0132 C   0  0  0  0  0  2  0  0  0  2  0  0
   -1.3079    0.0201   -0.1173 C   0  0  0  0  0  0  0  0  0  3  0  0
    2.4240   -0.0486    0.2352 H   0  0  0  0  0  0  0  0  0  4  0  0
   -1.7634    0.5002    0.7496 H   0  0  0  0  0  0  0  0  0  5  0  0
   -1.7017   -0.9940   -0.1950 H   0  0  0  0  0  0  0  0  0  6  0  0
   -1.6028    0.5726   -1.0103 H   0  0  0  0  0  0  0  0  0  7  0  0
  1  4  1  0
  1  2  1  0
  2  3  1  0
  3  6  1  0
  3  7  1  0
  3  5  1  0
M  RAD  2   1   3   2   3
M  END
>  <rmg_smiles>  (1) 
[CH][C]C

>  <rmg_adjacency_list>  (1) 
1 C u0 p0 c0 {2,S} {4,S} {5,S} {6,S}
2 C u0 p1 c0 {1,S} {3,S}
3 C u0 p1 c0 {2,S} {7,S}
4 H u0 p0 c0 {1,S}
5 H u0 p0 c0 {1,S}
6 H u0 p0 c0 {1,S}
7 H u0 p0 c0 {3,S}


>  <multiplicity>  (1) 
1

>  <reaction>  (1) 
rmg_rxn_15436

>  <type>  (1) 
r1h

>  <role_mapnums>  (1) 
{"r1h_a": 1, "r1h_h": 4}

>  <role_mapidx>  (1) 
{"r1h_a": 0, "r1h_h": 3}

>  <ordered_mapped_smiles>  (1) 
[C:1]([C:2][C:3]([H:5])([H:6])[H:7])[H:4]

>  <mol_properties>  (1) 
{"0": {"label": "donator", "atom_type": "C2s"}, "3": {"label": "d_hydrogen", "atom_type": "H0"}}

>  <level_of_theory>  (1) 
wb97xd/def2tzvp

>  <lot_method>  (1) 
wb97xd

>  <lot_basis>  (1) 
def2tzvp

>  <spin_multiplicity>  (1) 
1.0

>  <optical_isomers>  (1) 
1.0

>  <modes>  (1) 
IdealGasTranslation(mass=(40.0313, 'amu')),         NonlinearRotor(             inertia = ([3.14896, 58.5628, 58.5628

>  <frequency_value>  (1) 
unknown

>  <frequency_units>  (1) 
unknown

>  <frequency_list>  (1) 
unknown

>  <arkane_path>  (1) 
/home/calvin/Dropbox/PersonalFolders/Calvin/ZEUS_Converged/rmg_rxn_15436/output/Species/rmg_rxn_15436_r2_CtCC/arkane/output.py

>  <path_exists>  (1) 
True

>  <E0_value>  (1) 
-306134.272071366

>  <E0_units>  (1) 
kJ/mol

>  <thermo_class>  (1) 
NASA

>  <Cp0_value>  (1) 
33.257888

>  <Cp0_units>  (1) 
J/(mol*K)

>  <CpInf_value>  (1) 
157.97496800000002

>  <CpInf_units>  (1) 
J/(mol*K)

>  <Tmin_value>  (1) 
10.0

>  <Tmin_units>  (1) 
K

>  <Tmax_value>  (1) 
3000.0

>  <Tmax_units>  (1) 
K

>  <polynomials>  (1) 
[{"name": "polynomial1", "class": "NASAPolynomial", "Tmin_value": 10.0, "Tmin_units": "K", "Tmax_value": 431.2097180749653, "Tmax_units": "K", "coeffs": [3.979824244418846, 0.0012502679060560694, 5.649222862543357e-05, -1.0249564733389337e-07, 6.104734048640429e-11, -36819447.469936095, 4.8793113987325825]}, {"name": "polynomial2", "class": "NASAPolynomial", "Tmin_value": 431.2097180749653, "Tmin_units": "K", "Tmax_value": 3000.0, "Tmax_units": "K", "coeffs": [1.8580648669911648, 0.020937827345734038, -1.2012234416907578e-05, 3.445164612172472e-09, -3.909269230984794e-13, -36819264.53766353, 13.330225890521797]}]

>  <H298_value>  (1) 
-73164.73251377915

>  <H298_units>  (1) 
kcal/mol

>  <S298_value>  (1) 
58.92049936348175

>  <S298_units>  (1) 
cal/(mol*K)

>  <Cp_T_value_list>  (1) 
[14.240930213732804, 16.93453358322682, 19.33578271706531, 21.441656708625306, 24.888365075053336, 27.49875586712662, 31.568049991991277, 33.76515826611373, 34.923800510105]

>  <Cp_T_units>  (1) 
cal/(mol*K)

>  <T_list>  (1) 
[300.0, 400.0, 500.0, 600.0, 800.0, 1000.0, 1500.0, 2000.0, 2400.0]

>  <T_units>  (1) 
K

>  <yaml_path>  (1) 
/home/calvin/Dropbox/PersonalFolders/Calvin/ZEUS_Converged/rmg_rxn_15436/output/Species/rmg_rxn_15436_r2_CtCC/rmg_rxn_15436_r2_CtCC.yml

>  <frequencies_cm1>  (1) 
[349.98964080443994, 351.7269880904, 682.36546426308, 684.3225550792799, 939.0877104512799, 1047.6066794632397, 1048.12170336224, 1402.15599852016, 1465.4009333173599, 1465.7236816273999, 2229.1813755343596, 3023.21775507128, 3095.5957803440792, 3095.92539563944, 3438.2308798707995]

>  <ZPE_kJmol>  (1) 
145.45788600568434

>  <E_elec_kJmol>  (1) 
-306279.72995737166

>  <E0_minus_Eelec_plus_ZPE_kJmol>  (1) 
0.0

>  <rxn>  (1) 
rmg_rxn_15436

>  <species_type>  (1) 
r1

>  <species_folder>  (1) 
rmg_rxn_15436_r2_CtCC

>  <frequencies_cm1_list>  (1) 
[349.98964080443994, 351.7269880904, 682.36546426308, 684.3225550792799, 939.0877104512799, 1047.6066794632397, 1048.12170336224, 1402.15599852016, 1465.4009333173599, 1465.7236816273999, 2229.1813755343596, 3023.21775507128, 3095.5957803440792, 3095.92539563944, 3438.2308798707995]

>  <E0_kJmol>  (1) 
-306134

>  <H298_kJmol>  (1) 
-306121

$$$$

     RDKit          3D

  6  5  0  0  0  0  0  0  0  0999 V2000
    1.0663    0.1232   -0.1251 O   0  0  0  0  0  0  0  0  0  1  0  0
   -0.2911    0.2158   -0.3602 N   0  0  0  0  0  0  0  0  0  2  0  0
   -0.9770   -0.3645    0.5125 C   0  0  0  0  0  0  0  0  0  3  0  0
    1.4502    0.6047   -0.8613 H   0  0  0  0  0  0  0  0  0  4  0  0
   -0.5894   -0.8965    1.3789 H   0  0  0  0  0  0  0  0  0  5  0  0
   -2.0557   -0.3231    0.3766 H   0  0  0  0  0  0  0  0  0  6  0  0
  1  4  1  0
  1  2  1  0
  2  3  1  0
  3  6  1  0
  3  5  1  0
M  END
>  <rmg_smiles>  (2) 
[CH2][N]O

>  <rmg_adjacency_list>  (2) 
1 O u0 p2 c0 {2,S} {6,S}
2 N u0 p1 c0 {1,S} {3,S}
3 C u0 p0 c0 {2,S} {4,S} {5,S}
4 H u0 p0 c0 {3,S}
5 H u0 p0 c0 {3,S}
6 H u0 p0 c0 {1,S}


>  <multiplicity>  (2) 
1

>  <reaction>  (2) 
rmg_rxn_15436

>  <type>  (2) 
r2h

>  <role_mapnums>  (2) 
{"r2h_a": 3, "r2h_h": 6}

>  <role_mapidx>  (2) 
{"r2h_a": 2, "r2h_h": 5}

>  <ordered_mapped_smiles>  (2) 
[O:1]([NH:2][CH:3]([H:5])[H:6])[H:4]

>  <mol_properties>  (2) 
{"2": {"label": "acceptor", "atom_type": "Cs"}, "5": {"label": "a_hydrogen", "atom_type": "H0"}}

>  <level_of_theory>  (2) 
wb97xd/def2tzvp

>  <lot_method>  (2) 
wb97xd

>  <lot_basis>  (2) 
def2tzvp

>  <spin_multiplicity>  (2) 
1.0

>  <optical_isomers>  (2) 
1.0

>  <modes>  (2) 
IdealGasTranslation(mass=(45.0215, 'amu')),         NonlinearRotor(             inertia = ([7.10552, 42.1368, 49.2423

>  <frequency_value>  (2) 
unknown

>  <frequency_units>  (2) 
unknown

>  <frequency_list>  (2) 
unknown

>  <arkane_path>  (2) 
/home/calvin/Dropbox/PersonalFolders/Calvin/ZEUS_Converged/rmg_rxn_15436/output/Species/rmg_rxn_15436_p1_ON=C/arkane/output.py

>  <path_exists>  (2) 
True

>  <E0_value>  (2) 
-445765.04652910994

>  <E0_units>  (2) 
kJ/mol

>  <thermo_class>  (2) 
NASA

>  <Cp0_value>  (2) 
33.257888

>  <Cp0_units>  (2) 
J/(mol*K)

>  <CpInf_value>  (2) 
133.031552

>  <CpInf_units>  (2) 
J/(mol*K)

>  <Tmin_value>  (2) 
10.0

>  <Tmin_units>  (2) 
K

>  <Tmax_value>  (2) 
3000.0

>  <Tmax_units>  (2) 
K

>  <polynomials>  (2) 
[{"name": "polynomial1", "class": "NASAPolynomial", "Tmin_value": 10.0, "Tmin_units": "K", "Tmax_value": 555.0008285415723, "Tmax_units": "K", "coeffs": [4.0729558966761115, -0.006525504673073184, 8.044401869233928e-05, -1.3643340673050255e-07, 7.605604608176978e-11, -53613151.050707266, 6.598063650688069]}, {"name": "polynomial2", "class": "NASAPolynomial", "Tmin_value": 555.0008285415723, "Tmin_units": "K", "Tmax_value": 3000.0, "Tmax_units": "K", "coeffs": [1.9629419554542669, 0.01794293278685335, -1.0716899102514014e-05, 3.1351804200574135e-09, -3.5588210478784073e-13, -53613059.472560614, 14.250328412630774]}]

>  <H298_value>  (2) 
-106537.6194767193

>  <H298_units>  (2) 
kcal/mol

>  <S298_value>  (2) 
60.36296822828259

>  <S298_units>  (2) 
cal/(mol*K)

>  <Cp_T_value_list>  (2) 
[12.494795700177992, 15.001608210431446, 17.130783734283074, 18.881829280437152, 21.69615330289245, 23.7834318087242, 26.9145239767162, 28.553257692891545, 29.47039525924992]

>  <Cp_T_units>  (2) 
cal/(mol*K)

>  <T_list>  (2) 
[300.0, 400.0, 500.0, 600.0, 800.0, 1000.0, 1500.0, 2000.0, 2400.0]

>  <T_units>  (2) 
K

>  <yaml_path>  (2) 
/home/calvin/Dropbox/PersonalFolders/Calvin/ZEUS_Converged/rmg_rxn_15436/output/Species/rmg_rxn_15436_p1_ON=C/rmg_rxn_15436_p1_ON=C.yml

>  <frequencies_cm1>  (2) 
[438.20980121048, 539.7244451960399, 801.7205361099999, 965.59427378648, 986.4836431299199, 1183.2914424011199, 1353.5034075279598, 1444.4016922088, 1728.97643085492, 3083.6403589019596, 3214.03754314344, 3841.1169085952]

>  <ZPE_kJmol>  (2) 
117.11863122037906

>  <E_elec_kJmol>  (2) 
-445882.1651603303

>  <E0_minus_Eelec_plus_ZPE_kJmol>  (2) 
0.0

>  <rxn>  (2) 
rmg_rxn_15436

>  <species_type>  (2) 
p0

>  <species_folder>  (2) 
rmg_rxn_15436_p1_ON=C

>  <frequencies_cm1_list>  (2) 
[438.20980121048, 539.7244451960399, 801.7205361099999, 965.59427378648, 986.4836431299199, 1183.2914424011199, 1353.5034075279598, 1444.4016922088, 1728.97643085492, 3083.6403589019596, 3214.03754314344, 3841.1169085952]

>  <E0_kJmol>  (2) 
-445765

>  <H298_kJmol>  (2) 
-445753

$$$$

     RDKit          3D

 12 10  0  0  0  0  0  0  0  0999 V2000
    3.4386    0.3141   -0.2025 O   0  0  0  0  0  0  0  0  0  1  0  0
    2.0812    0.4066   -0.4375 N   0  0  0  0  0  0  0  0  0  2  0  0
    1.3953   -0.1737    0.4352 C   0  0  0  0  0  0  0  0  0  3  0  0
    3.8225    0.7955   -0.9386 H   0  0  0  0  0  0  0  0  0  4  0  0
    1.7829   -0.7056    1.3016 H   0  0  0  0  0  0  0  0  0  5  0  0
   -1.3619   -0.0858    0.1162 C   0  0  0  0  0  3  0  0  0  6  0  0
   -2.5591   -0.0692    0.0118 C   0  0  0  0  0  0  0  0  0  7  0  0
   -4.0106   -0.0467   -0.1187 C   0  0  0  0  0  0  0  0  0  8  0  0
    0.2655   -0.1303    0.2928 H   0  0  0  0  0  0  0  0  0  9  0  0
   -4.4661    0.4334    0.7482 H   0  0  0  0  0  0  0  0  0 10  0  0
   -4.4044   -1.0608   -0.1965 H   0  0  0  0  0  0  0  0  0 11  0  0
   -4.3055    0.5057   -1.0117 H   0  0  0  0  0  0  0  0  0 12  0  0
  1  4  1  0
  1  2  1  0
  2  3  1  0
  3  5  1  0
  3  9  1  0
  6  7  1  0
  7  8  1  0
  8 11  1  0
  8 12  1  0
  8 10  1  0
M  RAD  1   6   2
M  END
>  <rmg_smiles>  (3) 
[C][C]C.[CH2][N]O

>  <rmg_adjacency_list>  (3) 
multiplicity 2
1  O u0 p2 c0 {2,S} {12,S}
2  N u0 p1 c0 {1,S} {4,S}
3  C u0 p0 c0 {5,S} {7,S} {8,S} {9,S}
4  C u0 p0 c0 {2,S} {10,S} {11,S}
5  C u0 p1 c0 {3,S} {6,S}
6  C u1 p1 c0 {5,S}
7  H u0 p0 c0 {3,S}
8  H u0 p0 c0 {3,S}
9  H u0 p0 c0 {3,S}
10 H u0 p0 c0 {4,S}
11 H u0 p0 c0 {4,S}
12 H u0 p0 c0 {1,S}


>  <multiplicity>  (3) 
2

>  <reaction>  (3) 
rmg_rxn_15436

>  <type>  (3) 
ts

>  <role_mapnums>  (3) 
{"*2": 9, "*1": 6, "*3": 3, "*0": 2, "*4": 7}

>  <role_mapidx>  (3) 
{"*2": 8, "*1": 5, "*3": 2, "*0": 1, "*4": 6}

>  <ordered_mapped_smiles>  (3) 
[O:1]([NH:2][CH:3]([H:5])[H:9])[H:4].[CH2:6][CH2:7][C:8]([H:10])([H:11])[H:12]

>  <mol_properties>  (3) 
{"1": {"label": "*0", "atom_type": "N3s"}, "2": {"label": "*3", "atom_type": "Cs"}, "5": {"label": "*1", "atom_type": "C2s"}, "6": {"label": "*4", "atom_type": "C2s"}, "8": {"label": "*2", "atom_type": "H0"}}

>  <level_of_theory>  (3) 
wb97xd/def2tzvp

>  <lot_method>  (3) 
wb97xd

>  <lot_basis>  (3) 
def2tzvp

>  <spin_multiplicity>  (3) 
2.0

>  <optical_isomers>  (3) 
1.0

>  <modes>  (3) 
IdealGasTranslation(mass=(84.0449, 'amu')),         NonlinearRotor(             inertia = ([14.6966, 647.009, 658.551

>  <frequency_value>  (3) 
-200.288

>  <frequency_units>  (3) 
cm^-1

>  <frequency_list>  (3) 
unknown

>  <arkane_path>  (3) 
/home/calvin/Dropbox/PersonalFolders/Calvin/ZEUS_Converged/rmg_rxn_15436/output/rxns/TS0/arkane/output.py

>  <path_exists>  (3) 
True

>  <E0_value>  (3) 
-750028.0

>  <E0_units>  (3) 
kJ/mol

>  <thermo_class>  (3) 
unknown

>  <Cp0_value>  (3) 
unknown

>  <Cp0_units>  (3) 
unknown

>  <CpInf_value>  (3) 
unknown

>  <CpInf_units>  (3) 
unknown

>  <Tmin_value>  (3) 
unknown

>  <Tmin_units>  (3) 
unknown

>  <Tmax_value>  (3) 
unknown

>  <Tmax_units>  (3) 
unknown

>  <polynomials>  (3) 
unknown

>  <H298_value>  (3) 
unknown

>  <H298_units>  (3) 
unknown

>  <S298_value>  (3) 
unknown

>  <S298_units>  (3) 
unknown

>  <Cp_T_value_list>  (3) 
unknown

>  <Cp_T_units>  (3) 
unknown

>  <T_list>  (3) 
unknown

>  <T_units>  (3) 
unknown

>  <yaml_path>  (3) 
unknown

>  <frequencies_cm1>  (3) 
unknown

>  <ZPE_kJmol>  (3) 
unknown

>  <E_elec_kJmol>  (3) 
unknown

>  <E0_minus_Eelec_plus_ZPE_kJmol>  (3) 
unknown

>  <rxn>  (3) 
unknown

>  <species_type>  (3) 
unknown

>  <species_folder>  (3) 
unknown

>  <frequencies_cm1_list>  (3) 
[]

>  <ts_imag_freq_cm1>  (3) 
-202.7207

>  <ts_freq_out_path>  (3) 
/home/calvin/Dropbox/PersonalFolders/Calvin/ZEUS_Converged/rmg_rxn_15436/output/rxns/TS0/geometry/freq.out

>  <E0_kJmol>  (3) 
-750028

>  <H298_kJmol>  (3) 
unknown

$$$$

     RDKit          3D

  6  5  0  0  0  0  0  0  0  0999 V2000
    2.1738   -0.0388    0.1535 C   0  0  0  0  0  3  0  0  0  1  0  0
    0.9511    0.0359   -0.1074 C   0  0  0  0  0  0  0  0  0  2  0  0
   -0.4963    0.0102   -0.0393 C   0  0  0  0  0  0  0  0  0  3  0  0
   -0.9118   -0.7102   -0.7455 H   0  0  0  0  0  0  0  0  0  4  0  0
   -0.7991   -0.2956    0.9667 H   0  0  0  0  0  0  0  0  0  5  0  0
   -0.9178    0.9986   -0.2280 H   0  0  0  0  0  0  0  0  0  6  0  0
  1  2  1  0
  2  3  1  0
  3  4  1  0
  3  6  1  0
  3  5  1  0
M  RAD  1   1   2
M  END
>  <rmg_smiles>  (4) 
[C]CC

>  <rmg_adjacency_list>  (4) 
multiplicity 2
1 C u0 p0 c0 {2,S} {4,S} {5,S} {6,S}
2 C u0 p1 c0 {1,S} {3,S}
3 C u1 p1 c0 {2,S}
4 H u0 p0 c0 {1,S}
5 H u0 p0 c0 {1,S}
6 H u0 p0 c0 {1,S}


>  <multiplicity>  (4) 
2

>  <reaction>  (4) 
rmg_rxn_15436

>  <type>  (4) 
r1

>  <role_mapnums>  (4) 
{}

>  <role_mapidx>  (4) 
{}

>  <ordered_mapped_smiles>  (4) 
[CH2:1][CH2:2][C:3]([H:4])([H:5])[H:6]

>  <level_of_theory>  (4) 
wb97xd/def2tzvp

>  <lot_method>  (4) 
wb97xd

>  <lot_basis>  (4) 
def2tzvp

>  <spin_multiplicity>  (4) 
2.0

>  <optical_isomers>  (4) 
1.0

>  <modes>  (4) 
IdealGasTranslation(mass=(39.0235, 'amu')),         NonlinearRotor(             inertia = ([3.42786, 53.2609, 53.4758

>  <frequency_value>  (4) 
unknown

>  <frequency_units>  (4) 
unknown

>  <frequency_list>  (4) 
unknown

>  <arkane_path>  (4) 
/home/calvin/Dropbox/PersonalFolders/Calvin/ZEUS_Converged/rmg_rxn_15436/output/Species/rmg_rxn_15436_p2_sbr-C-sbrtCC/arkane/output.py

>  <path_exists>  (4) 
True

>  <E0_value>  (4) 
-304267.111742972

>  <E0_units>  (4) 
kJ/mol

>  <thermo_class>  (4) 
NASA

>  <Cp0_value>  (4) 
33.257888

>  <Cp0_units>  (4) 
J/(mol*K)

>  <CpInf_value>  (4) 
133.031552

>  <CpInf_units>  (4) 
J/(mol*K)

>  <Tmin_value>  (4) 
10.0

>  <Tmin_units>  (4) 
K

>  <Tmax_value>  (4) 
3000.0

>  <Tmax_units>  (4) 
K

>  <polynomials>  (4) 
[{"name": "polynomial1", "class": "NASAPolynomial", "Tmin_value": 10.0, "Tmin_units": "K", "Tmax_value": 923.811379469717, "Tmax_units": "K", "coeffs": [3.9280284571567385, 0.007663835307131514, 1.1405872227307365e-05, -1.7284525672838755e-08, 6.475541592078427e-12, -36594881.17799481, 6.870328781364]}, {"name": "polynomial2", "class": "NASAPolynomial", "Tmin_value": 923.811379469717, "Tmin_units": "K", "Tmax_value": 3000.0, "Tmax_units": "K", "coeffs": [3.272779592876235, 0.015063713630607442, -8.017901793398353e-06, 2.078955100266624e-09, -2.1138437079329825e-13, -36594954.81042181, 8.92582495128983]}]

>  <H298_value>  (4) 
-72718.44515364901

>  <H298_units>  (4) 
kcal/mol

>  <S298_value>  (4) 
63.390371423292535

>  <S298_units>  (4) 
cal/(mol*K)

>  <Cp_T_value_list>  (4) 
[13.591453641390284, 15.655344681727689, 17.597845892026914, 19.351846715759002, 22.180323837593832, 24.216420665179236, 27.372599264689796, 28.96967631236221, 29.746150687784773]

>  <Cp_T_units>  (4) 
cal/(mol*K)

>  <T_list>  (4) 
[300.0, 400.0, 500.0, 600.0, 800.0, 1000.0, 1500.0, 2000.0, 2400.0]

>  <T_units>  (4) 
K

>  <yaml_path>  (4) 
/home/calvin/Dropbox/PersonalFolders/Calvin/ZEUS_Converged/rmg_rxn_15436/output/Species/rmg_rxn_15436_p2_sbr-C-sbrtCC/rmg_rxn_15436_p2_sbr-C-sbrtCC.yml

>  <frequencies_cm1>  (4) 
[152.06938991139998, 345.237686963, 816.2304760911601, 842.70270449976, 945.4259379016399, 1377.35244754432, 1433.29090996104, 1448.3296078118397, 1502.2079746325599, 3008.0348505287598, 3076.84204343516, 3093.0893307022798]

>  <ZPE_kJmol>  (4) 
107.90805817446662

>  <E_elec_kJmol>  (4) 
-304375.01980114647

>  <E0_minus_Eelec_plus_ZPE_kJmol>  (4) 
0.0

>  <rxn>  (4) 
rmg_rxn_15436

>  <species_type>  (4) 
p1

>  <species_folder>  (4) 
rmg_rxn_15436_p2_sbr-C-sbrtCC

>  <frequencies_cm1_list>  (4) 
[152.06938991139998, 345.237686963, 816.2304760911601, 842.70270449976, 945.4259379016399, 1377.35244754432, 1433.29090996104, 1448.3296078118397, 1502.2079746325599, 3008.0348505287598, 3076.84204343516, 3093.0893307022798]

>  <E0_kJmol>  (4) 
-304267

>  <H298_kJmol>  (4) 
-304254

$$$$

     RDKit          3D

  5  4  0  0  0  0  0  0  0  0999 V2000
    0.8934    0.3742    0.4948 O   0  0  0  0  0  0  0  0  0  1  0  0
    0.1582   -0.1610   -0.5904 N   0  0  0  0  0  0  0  0  0  2  0  0
   -1.0297   -0.3739   -0.4689 C   0  0  0  0  0  3  0  0  0  3  0  0
    1.7805    0.4382    0.1306 H   0  0  0  0  0  0  0  0  0  4  0  0
   -1.8023   -0.2775    0.2859 H   0  0  0  0  0  0  0  0  0  5  0  0
  1  4  1  0
  1  2  1  0
  2  3  1  0
  3  5  1  0
M  RAD  1   3   2
M  END
>  <rmg_smiles>  (5) 
[CH][N]O

>  <rmg_adjacency_list>  (5) 
multiplicity 2
1 O u0 p2 c0 {2,S} {4,S}
2 N u0 p1 c0 {1,S} {3,S}
3 C u1 p1 c0 {2,S} {5,S}
4 H u0 p0 c0 {1,S}
5 H u0 p0 c0 {3,S}


>  <multiplicity>  (5) 
2

>  <reaction>  (5) 
rmg_rxn_15436

>  <type>  (5) 
r2

>  <role_mapnums>  (5) 
{}

>  <role_mapidx>  (5) 
{}

>  <ordered_mapped_smiles>  (5) 
[O:1]([NH:2][CH:3][H:5])[H:4]

>  <level_of_theory>  (5) 
wb97xd/def2tzvp

>  <lot_method>  (5) 
wb97xd

>  <lot_basis>  (5) 
def2tzvp

>  <spin_multiplicity>  (5) 
2.0

>  <optical_isomers>  (5) 
1.0

>  <modes>  (5) 
IdealGasTranslation(mass=(44.0136, 'amu')),         NonlinearRotor(             inertia = ([5.81591, 41.4826, 47.2985

>  <frequency_value>  (5) 
unknown

>  <frequency_units>  (5) 
unknown

>  <frequency_list>  (5) 
unknown

>  <arkane_path>  (5) 
/home/calvin/Dropbox/PersonalFolders/Calvin/ZEUS_Converged/rmg_rxn_15436/output/Species/rmg_rxn_15436_r1_ON=sbr-CH-sbr/arkane/output.py

>  <path_exists>  (5) 
True

>  <E0_value>  (5) 
-444005.359324532

>  <E0_units>  (5) 
kJ/mol

>  <thermo_class>  (5) 
NASA

>  <Cp0_value>  (5) 
33.257888

>  <Cp0_units>  (5) 
J/(mol*K)

>  <CpInf_value>  (5) 
108.088136

>  <CpInf_units>  (5) 
J/(mol*K)

>  <Tmin_value>  (5) 
10.0

>  <Tmin_units>  (5) 
K

>  <Tmax_value>  (5) 
3000.0

>  <Tmax_units>  (5) 
K

>  <polynomials>  (5) 
[{"name": "polynomial1", "class": "NASAPolynomial", "Tmin_value": 10.0, "Tmin_units": "K", "Tmax_value": 581.5521855773558, "Tmax_units": "K", "coeffs": [3.9651854378376354, 0.0020096300724220997, 4.068547950040168e-05, -7.790242028845132e-08, 4.4772375189871534e-11, -53401508.17068676, 6.828671301777145]}, {"name": "polynomial2", "class": "NASAPolynomial", "Tmin_value": 581.5521855773558, "Tmin_units": "K", "Tmax_value": 3000.0, "Tmax_units": "K", "coeffs": [3.5849357627708427, 0.012844035212889389, -8.4590302800557e-06, 2.7367089532336234e-09, -3.401217371194876e-13, -53401602.928060964, 7.262096783490094]}]

>  <H298_value>  (5) 
-106116.84893693788

>  <H298_units>  (5) 
kcal/mol

>  <S298_value>  (5) 
62.05085615552054

>  <S298_units>  (5) 
cal/(mol*K)

>  <Cp_T_value_list>  (5) 
[12.895099247909474, 14.783091657217865, 16.298752276569193, 17.47381546838603, 19.292328661132526, 20.6004316585094, 22.520408903315662, 23.62512089396801, 24.312373577063074]

>  <Cp_T_units>  (5) 
cal/(mol*K)

>  <T_list>  (5) 
[300.0, 400.0, 500.0, 600.0, 800.0, 1000.0, 1500.0, 2000.0, 2400.0]

>  <T_units>  (5) 
K

>  <yaml_path>  (5) 
/home/calvin/Dropbox/PersonalFolders/Calvin/ZEUS_Converged/rmg_rxn_15436/output/Species/rmg_rxn_15436_r1_ON=sbr-CH-sbr/rmg_rxn_15436_r1_ON=sbr-CH-sbr.yml

>  <frequencies_cm1>  (5) 
[407.41137205027997, 410.42597860575995, 739.51938308144, 761.67227772376, 903.0703724478799, 1348.68965081864, 1755.81260948548, 3154.3291057860397, 3817.47387813844]

>  <ZPE_kJmol>  (5) 
79.54214655441899

>  <E_elec_kJmol>  (5) 
-444084.9014710864

>  <E0_minus_Eelec_plus_ZPE_kJmol>  (5) 
0.0

>  <rxn>  (5) 
rmg_rxn_15436

>  <species_type>  (5) 
r0

>  <species_folder>  (5) 
rmg_rxn_15436_r1_ON=sbr-CH-sbr

>  <frequencies_cm1_list>  (5) 
[407.41137205027997, 410.42597860575995, 739.51938308144, 761.67227772376, 903.0703724478799, 1348.68965081864, 1755.81260948548, 3154.3291057860397, 3817.47387813844]

>  <E0_kJmol>  (5) 
-444005

>  <H298_kJmol>  (5) 
-443993

$$$$
