
     RDKit          3D

 12 11  0  0  0  0  0  0  0  0999 V2000
    0.5613   -0.5014   -1.8138 C   0  0  0  0  0  0  0  0  0  1  0  0
    0.1881   -0.5485   -0.3629 C   0  0  0  0  0  0  0  0  0  2  0  0
   -0.1795    0.4727    0.3814 C   0  0  0  0  0  0  0  0  0  3  0  0
   -0.5696    0.5427    1.8097 C   0  0  0  0  0  0  0  0  0  4  0  0
    1.5802   -0.8669   -1.9647 H   0  0  0  0  0  0  0  0  0  5  0  0
   -0.0973   -1.1431   -2.4044 H   0  0  0  0  0  0  0  0  0  6  0  0
    0.4987    0.5110   -2.2129 H   0  0  0  0  0  0  0  0  0  7  0  0
    0.2302   -1.5354    0.1065 H   0  0  0  0  0  0  0  0  0  8  0  0
   -0.1895    1.4463   -0.1085 H   0  0  0  0  0  0  0  0  0  9  0  0
    0.0820    1.2234    2.3631 H   0  0  0  0  0  0  0  0  0 10  0  0
   -1.5919    0.9130    1.9213 H   0  0  0  0  0  0  0  0  0 11  0  0
   -0.5126   -0.4431    2.2825 H   0  0  0  0  0  0  0  0  0 12  0  0
  1  5  1  0
  1  7  1  0
  1  6  1  0
  1  2  1  0
  2  8  1  0
  2  3  1  0
  3  4  1  0
  3  9  1  0
  4 12  1  0
  4 10  1  0
  4 11  1  0
M  END
>  <rmg_smiles>  (1) 
C[CH][CH]C

>  <rmg_adjacency_list>  (1) 
1  C u0 p0 c0 {3,S} {5,S} {6,S} {7,S}
2  C u0 p0 c0 {4,S} {8,S} {9,S} {10,S}
3  C u0 p0 c0 {1,S} {4,S} {11,S}
4  C u0 p0 c0 {2,S} {3,S} {12,S}
5  H u0 p0 c0 {1,S}
6  H u0 p0 c0 {1,S}
7  H u0 p0 c0 {1,S}
8  H u0 p0 c0 {2,S}
9  H u0 p0 c0 {2,S}
10 H u0 p0 c0 {2,S}
11 H u0 p0 c0 {3,S}
12 H u0 p0 c0 {4,S}


>  <multiplicity>  (1) 
1

>  <reaction>  (1) 
rmg_rxn_16738

>  <type>  (1) 
r1h

>  <role_mapnums>  (1) 
{"r1h_a": 3, "r1h_h": 9}

>  <role_mapidx>  (1) 
{"r1h_a": 2, "r1h_h": 8}

>  <ordered_mapped_smiles>  (1) 
[C:1]([CH:2]([CH:3]([C:4]([H:10])([H:11])[H:12])[H:9])[H:8])([H:5])([H:6])[H:7]

>  <mol_properties>  (1) 
{"2": {"label": "donator", "atom_type": "Cs"}, "8": {"label": "d_hydrogen", "atom_type": "H0"}}

>  <level_of_theory>  (1) 
wb97xd/def2tzvp

>  <lot_method>  (1) 
wb97xd

>  <lot_basis>  (1) 
def2tzvp

>  <spin_multiplicity>  (1) 
1.0

>  <optical_isomers>  (1) 
1.0

>  <modes>  (1) 
IdealGasTranslation(mass=(56.0626, 'amu')),         NonlinearRotor(             inertia = ([14.4223, 134.785, 142.994

>  <frequency_value>  (1) 
unknown

>  <frequency_units>  (1) 
unknown

>  <frequency_list>  (1) 
unknown

>  <arkane_path>  (1) 
/home/calvin/Dropbox/PersonalFolders/Calvin/ZEUS_Converged/rmg_rxn_16738/output/Species/rmg_rxn_16738_r2_CC=CC/arkane/output.py

>  <path_exists>  (1) 
True

>  <E0_value>  (1) 
-412530.5319289978

>  <E0_units>  (1) 
kJ/mol

>  <thermo_class>  (1) 
NASA

>  <Cp0_value>  (1) 
33.257888

>  <Cp0_units>  (1) 
J/(mol*K)

>  <CpInf_value>  (1) 
282.692048

>  <CpInf_units>  (1) 
J/(mol*K)

>  <Tmin_value>  (1) 
10.0

>  <Tmin_units>  (1) 
K

>  <Tmax_value>  (1) 
3000.0

>  <Tmax_units>  (1) 
K

>  <polynomials>  (1) 
[{"name": "polynomial1", "class": "NASAPolynomial", "Tmin_value": 10.0, "Tmin_units": "K", "Tmax_value": 876.4151793103639, "Tmax_units": "K", "coeffs": [3.836788272182408, 0.014889587435409546, 3.7274955648961565e-05, -5.101536984889056e-08, 1.898660163782093e-11, -49615962.11470969, 7.625359233598847]}, {"name": "polynomial2", "class": "NASAPolynomial", "Tmin_value": 876.4151793103639, "Tmin_units": "K", "Tmax_value": 3000.0, "Tmax_units": "K", "coeffs": [0.3502455878869962, 0.03999070538188781, -2.1412112367124883e-05, 5.588800386741688e-09, -5.722178435958081e-13, -49615703.86404788, 21.972776258802444]}]

>  <H298_value>  (1) 
-98593.10529459675

>  <H298_units>  (1) 
kcal/mol

>  <S298_value>  (1) 
69.87712883966964

>  <S298_units>  (1) 
cal/(mol*K)

>  <Cp_T_value_list>  (1) 
[20.736076559626078, 25.789348905580418, 30.622975929798006, 35.036176405226485, 42.25093637997557, 47.58449656905523, 55.8889891378311, 60.08939754250635, 62.137827111249685]

>  <Cp_T_units>  (1) 
cal/(mol*K)

>  <T_list>  (1) 
[300.0, 400.0, 500.0, 600.0, 800.0, 1000.0, 1500.0, 2000.0, 2400.0]

>  <T_units>  (1) 
K

>  <yaml_path>  (1) 
/home/calvin/Dropbox/PersonalFolders/Calvin/ZEUS_Converged/rmg_rxn_16738/output/Species/rmg_rxn_16738_r2_CC=CC/rmg_rxn_16738_r2_CC=CC.yml

>  <frequencies_cm1>  (1) 
[173.71412764003998, 224.62595680252, 244.76682474607998, 285.68032328264, 504.75775594659996, 762.6473896391999, 875.3689536669999, 983.46216958912, 998.1231832473198, 1061.07283767576, 1070.0823224156, 1077.9793555336, 1162.59434864664, 1322.2860922632399, 1329.1736785391997, 1403.0281056558, 1403.75600609972, 1465.77861750996, 1466.2661734676797, 1476.07222850464, 1483.9623946373201, 1752.5645254291198, 3004.79363345772, 3005.3017903714, 3061.49433124496, 3061.9063503641596, 3086.38028604464, 3087.26612715092, 3105.2850966305996, 3110.86108871044]

>  <ZPE_kJmol>  (1) 
281.4278693072432

>  <E_elec_kJmol>  (1) 
-412811.959798305

>  <E0_minus_Eelec_plus_ZPE_kJmol>  (1) 
0.0

>  <rxn>  (1) 
rmg_rxn_16738

>  <species_type>  (1) 
r1

>  <species_folder>  (1) 
rmg_rxn_16738_r2_CC=CC

>  <frequencies_cm1_list>  (1) 
[173.71412764003998, 224.62595680252, 244.76682474607998, 285.68032328264, 504.75775594659996, 762.6473896391999, 875.3689536669999, 983.46216958912, 998.1231832473198, 1061.07283767576, 1070.0823224156, 1077.9793555336, 1162.59434864664, 1322.2860922632399, 1329.1736785391997, 1403.0281056558, 1403.75600609972, 1465.77861750996, 1466.2661734676797, 1476.07222850464, 1483.9623946373201, 1752.5645254291198, 3004.79363345772, 3005.3017903714, 3061.49433124496, 3061.9063503641596, 3086.38028604464, 3087.26612715092, 3105.2850966305996, 3110.86108871044]

>  <E0_kJmol>  (1) 
-412531

>  <H298_kJmol>  (1) 
-412514

$$$$

     RDKit          3D

  8  7  0  0  0  0  0  0  0  0999 V2000
   -1.2374    0.2928    0.0071 C   0  0  0  0  0  0  0  0  0  1  0  0
    0.0876   -0.3674    0.1691 C   0  0  0  0  0  0  0  0  0  2  0  0
    1.1824    0.1132   -0.1985 N   0  0  0  0  0  0  0  0  0  3  0  0
   -1.8992   -0.3493   -0.5782 H   0  0  0  0  0  0  0  0  0  4  0  0
   -1.7053    0.4278    0.9848 H   0  0  0  0  0  0  0  0  0  5  0  0
   -1.1320    1.2600   -0.4852 H   0  0  0  0  0  0  0  0  0  6  0  0
    1.9658   -0.5063    0.0071 H   0  0  0  0  0  0  0  0  0  7  0  0
    0.0406   -1.3459    0.6471 H   0  0  0  0  0  0  0  0  0  8  0  0
  1  5  1  0
  1  4  1  0
  1  6  1  0
  1  2  1  0
  2  3  1  0
  2  8  1  0
  3  7  1  0
M  END
>  <rmg_smiles>  (2) 
C[CH][NH]

>  <rmg_adjacency_list>  (2) 
1 N u0 p1 c0 {3,S} {8,S}
2 C u0 p0 c0 {3,S} {4,S} {5,S} {6,S}
3 C u0 p0 c0 {1,S} {2,S} {7,S}
4 H u0 p0 c0 {2,S}
5 H u0 p0 c0 {2,S}
6 H u0 p0 c0 {2,S}
7 H u0 p0 c0 {3,S}
8 H u0 p0 c0 {1,S}


>  <multiplicity>  (2) 
1

>  <reaction>  (2) 
rmg_rxn_16738

>  <type>  (2) 
r2h

>  <role_mapnums>  (2) 
{"r2h_a": 2, "r2h_h": 8}

>  <role_mapidx>  (2) 
{"r2h_a": 1, "r2h_h": 7}

>  <ordered_mapped_smiles>  (2) 
[C:1]([CH:2]([NH:3][H:7])[H:8])([H:4])([H:5])[H:6]

>  <mol_properties>  (2) 
{"1": {"label": "acceptor", "atom_type": "Cs"}, "7": {"label": "a_hydrogen", "atom_type": "H0"}}

>  <level_of_theory>  (2) 
wb97xd/def2tzvp

>  <lot_method>  (2) 
wb97xd

>  <lot_basis>  (2) 
def2tzvp

>  <spin_multiplicity>  (2) 
1.0

>  <optical_isomers>  (2) 
1.0

>  <modes>  (2) 
IdealGasTranslation(mass=(43.0422, 'amu')),         NonlinearRotor(             inertia = ([9.32783, 51.3348, 57.5532

>  <frequency_value>  (2) 
unknown

>  <frequency_units>  (2) 
unknown

>  <frequency_list>  (2) 
unknown

>  <arkane_path>  (2) 
/home/calvin/Dropbox/PersonalFolders/Calvin/ZEUS_Converged/rmg_rxn_16738/output/Species/rmg_rxn_16738_p1_CC=N/arkane/output.py

>  <path_exists>  (2) 
True

>  <E0_value>  (2) 
-351535.20335661684

>  <E0_units>  (2) 
kJ/mol

>  <thermo_class>  (2) 
NASA

>  <Cp0_value>  (2) 
33.257888

>  <Cp0_units>  (2) 
J/(mol*K)

>  <CpInf_value>  (2) 
182.918384

>  <CpInf_units>  (2) 
J/(mol*K)

>  <Tmin_value>  (2) 
10.0

>  <Tmin_units>  (2) 
K

>  <Tmax_value>  (2) 
3000.0

>  <Tmax_units>  (2) 
K

>  <polynomials>  (2) 
[{"name": "polynomial1", "class": "NASAPolynomial", "Tmin_value": 10.0, "Tmin_units": "K", "Tmax_value": 834.0183041901832, "Tmax_units": "K", "coeffs": [4.020859284868709, 0.0012406595733239277, 4.4482903010182226e-05, -5.482114439751344e-08, 2.0739201558559772e-11, -42279921.71645892, 6.726586383468645]}, {"name": "polynomial2", "class": "NASAPolynomial", "Tmin_value": 834.0183041901832, "Tmin_units": "K", "Tmax_value": 3000.0, "Tmax_units": "K", "coeffs": [0.8146767610859666, 0.025012560508124084, -1.3369721411120483e-05, 3.4917002293006827e-09, -3.579375529269218e-13, -42279678.881200545, 19.862274208798944]}]

>  <H298_value>  (2) 
-84015.86036687854

>  <H298_units>  (2) 
kcal/mol

>  <S298_value>  (2) 
62.66843297179497

>  <S298_units>  (2) 
cal/(mol*K)

>  <Cp_T_value_list>  (2) 
[14.078036689508782, 17.202765604471058, 20.2803800489589, 23.1023356383003, 27.639649626797436, 30.983090061901617, 36.21499785066487, 38.88468928045463, 40.19916387517873]

>  <Cp_T_units>  (2) 
cal/(mol*K)

>  <T_list>  (2) 
[300.0, 400.0, 500.0, 600.0, 800.0, 1000.0, 1500.0, 2000.0, 2400.0]

>  <T_units>  (2) 
K

>  <yaml_path>  (2) 
/home/calvin/Dropbox/PersonalFolders/Calvin/ZEUS_Converged/rmg_rxn_16738/output/Species/rmg_rxn_16738_p1_CC=N/rmg_rxn_16738_p1_CC=N.yml

>  <frequencies_cm1>  (2) 
[185.42920459596, 489.9250676554, 680.6761858743599, 921.32968641376, 1055.89513074448, 1069.62910138448, 1130.4431233784, 1267.5150173509198, 1378.7876474762, 1425.071128533, 1456.56312321052, 1463.3683056626398, 1737.36788691596, 2989.2124437666403, 3014.6889593038395, 3075.43431144456, 3123.3452680222, 3455.8927661138396]

>  <ZPE_kJmol>  (2) 
178.96482902382195

>  <E_elec_kJmol>  (2) 
-351714.16818564065

>  <E0_minus_Eelec_plus_ZPE_kJmol>  (2) 
0.0

>  <rxn>  (2) 
rmg_rxn_16738

>  <species_type>  (2) 
p0

>  <species_folder>  (2) 
rmg_rxn_16738_p1_CC=N

>  <frequencies_cm1_list>  (2) 
[185.42920459596, 489.9250676554, 680.6761858743599, 921.32968641376, 1055.89513074448, 1069.62910138448, 1130.4431233784, 1267.5150173509198, 1378.7876474762, 1425.071128533, 1456.56312321052, 1463.3683056626398, 1737.36788691596, 2989.2124437666403, 3014.6889593038395, 3075.43431144456, 3123.3452680222, 3455.8927661138396]

>  <E0_kJmol>  (2) 
-351535

>  <H298_kJmol>  (2) 
-351522

$$$$

     RDKit          3D

 19 17  0  0  0  0  0  0  0  0999 V2000
   -1.3349    2.0907   -0.6521 C   0  0  0  0  0  0  0  0  0  1  0  0
   -0.0099    1.4304   -0.4900 C   0  0  0  0  0  0  0  0  0  2  0  0
    1.0849    1.9111   -0.8576 N   0  0  0  0  0  0  0  0  0  3  0  0
   -1.9967    1.4485   -1.2374 H   0  0  0  0  0  0  0  0  0  4  0  0
   -1.8028    2.2257    0.3256 H   0  0  0  0  0  0  0  0  0  5  0  0
   -1.2295    3.0579   -1.1443 H   0  0  0  0  0  0  0  0  0  6  0  0
    1.8683    1.2916   -0.6520 H   0  0  0  0  0  0  0  0  0  7  0  0
    0.6889   -1.9733   -1.4797 C   0  0  0  0  0  0  0  0  0  8  0  0
    0.3156   -2.0204   -0.0287 C   0  0  0  0  0  0  0  0  0  9  0  0
   -0.0519   -0.9993    0.7156 C   0  0  0  0  0  3  0  0  0 10  0  0
   -0.4420   -0.9292    2.1438 C   0  0  0  0  0  0  0  0  0 11  0  0
    1.7077   -2.3388   -1.6306 H   0  0  0  0  0  0  0  0  0 12  0  0
    0.0303   -2.6150   -2.0702 H   0  0  0  0  0  0  0  0  0 13  0  0
    0.6263   -0.9610   -1.8787 H   0  0  0  0  0  0  0  0  0 14  0  0
    0.3578   -3.0073    0.4407 H   0  0  0  0  0  0  0  0  0 15  0  0
   -0.0651    0.2802    0.0718 H   0  0  0  0  0  0  0  0  0 16  0  0
    0.2096   -0.2486    2.6972 H   0  0  0  0  0  0  0  0  0 17  0  0
   -1.4643   -0.5590    2.2555 H   0  0  0  0  0  0  0  0  0 18  0  0
   -0.3850   -1.9151    2.6167 H   0  0  0  0  0  0  0  0  0 19  0  0
  1  5  1  0
  1  4  1  0
  1  6  1  0
  1  2  1  0
  2  3  1  0
  2 16  1  0
  3  7  1  0
  8  9  1  0
  8 14  1  0
  8 13  1  0
  8 12  1  0
  9 10  1  0
  9 15  1  0
 10 11  1  0
 11 19  1  0
 11 18  1  0
 11 17  1  0
M  RAD  1  10   2
M  END
>  <rmg_smiles>  (3) 
C[CH][C]C.C[CH][NH]

>  <rmg_adjacency_list>  (3) 
multiplicity 2
1  N u0 p1 c0 {6,S} {19,S}
2  C u0 p0 c0 {6,S} {8,S} {9,S} {10,S}
3  C u0 p0 c0 {5,S} {11,S} {12,S} {13,S}
4  C u0 p0 c0 {7,S} {14,S} {15,S} {16,S}
5  C u0 p0 c0 {3,S} {7,S} {17,S}
6  C u0 p0 c0 {1,S} {2,S} {18,S}
7  C u1 p1 c0 {4,S} {5,S}
8  H u0 p0 c0 {2,S}
9  H u0 p0 c0 {2,S}
10 H u0 p0 c0 {2,S}
11 H u0 p0 c0 {3,S}
12 H u0 p0 c0 {3,S}
13 H u0 p0 c0 {3,S}
14 H u0 p0 c0 {4,S}
15 H u0 p0 c0 {4,S}
16 H u0 p0 c0 {4,S}
17 H u0 p0 c0 {5,S}
18 H u0 p0 c0 {6,S}
19 H u0 p0 c0 {1,S}


>  <multiplicity>  (3) 
2

>  <reaction>  (3) 
rmg_rxn_16738

>  <type>  (3) 
ts

>  <role_mapnums>  (3) 
{"*2": 16, "*1": 2, "*3": 10, "*0": 3, "*4": 9}

>  <role_mapidx>  (3) 
{"*2": 15, "*1": 1, "*3": 9, "*0": 2, "*4": 8}

>  <ordered_mapped_smiles>  (3) 
[C:1]([CH:2]([NH:3][H:7])[H:16])([H:4])([H:5])[H:6].[C:8]([CH:9]([CH:10][C:11]([H:17])([H:18])[H:19])[H:15])([H:12])([H:13])[H:14]

>  <mol_properties>  (3) 
{"1": {"label": "*1", "atom_type": "Cs"}, "2": {"label": "*0", "atom_type": "N3s"}, "8": {"label": "*4", "atom_type": "Cs"}, "9": {"label": "*3", "atom_type": "C2s"}, "15": {"label": "*2", "atom_type": "H0"}}

>  <level_of_theory>  (3) 
wb97xd/def2tzvp

>  <lot_method>  (3) 
wb97xd

>  <lot_basis>  (3) 
def2tzvp

>  <spin_multiplicity>  (3) 
2.0

>  <optical_isomers>  (3) 
2.0

>  <modes>  (3) 
IdealGasTranslation(mass=(98.097, 'amu')),         NonlinearRotor(             inertia = ([187.188, 349.876, 451.606

>  <frequency_value>  (3) 
-1571.18

>  <frequency_units>  (3) 
cm^-1

>  <frequency_list>  (3) 
unknown

>  <arkane_path>  (3) 
/home/calvin/Dropbox/PersonalFolders/Calvin/ZEUS_Converged/rmg_rxn_16738/output/rxns/TS0/arkane/output.py

>  <path_exists>  (3) 
True

>  <E0_value>  (3) 
-762289.0

>  <E0_units>  (3) 
kJ/mol

>  <thermo_class>  (3) 
unknown

>  <Cp0_value>  (3) 
unknown

>  <Cp0_units>  (3) 
unknown

>  <CpInf_value>  (3) 
unknown

>  <CpInf_units>  (3) 
unknown

>  <Tmin_value>  (3) 
unknown

>  <Tmin_units>  (3) 
unknown

>  <Tmax_value>  (3) 
unknown

>  <Tmax_units>  (3) 
unknown

>  <polynomials>  (3) 
unknown

>  <H298_value>  (3) 
unknown

>  <H298_units>  (3) 
unknown

>  <S298_value>  (3) 
unknown

>  <S298_units>  (3) 
unknown

>  <Cp_T_value_list>  (3) 
unknown

>  <Cp_T_units>  (3) 
unknown

>  <T_list>  (3) 
unknown

>  <T_units>  (3) 
unknown

>  <yaml_path>  (3) 
unknown

>  <frequencies_cm1>  (3) 
unknown

>  <ZPE_kJmol>  (3) 
unknown

>  <E_elec_kJmol>  (3) 
unknown

>  <E0_minus_Eelec_plus_ZPE_kJmol>  (3) 
unknown

>  <rxn>  (3) 
unknown

>  <species_type>  (3) 
unknown

>  <species_folder>  (3) 
unknown

>  <frequencies_cm1_list>  (3) 
[]

>  <ts_imag_freq_cm1>  (3) 
-1590.2645

>  <ts_freq_out_path>  (3) 
/home/calvin/Dropbox/PersonalFolders/Calvin/ZEUS_Converged/rmg_rxn_16738/output/rxns/TS0/geometry/freq.out

>  <E0_kJmol>  (3) 
-762289

>  <H298_kJmol>  (3) 
unknown

$$$$

     RDKit          3D

 11 10  0  0  0  0  0  0  0  0999 V2000
   -1.8197    0.8251    0.1297 C   0  0  0  0  0  0  0  0  0  1  0  0
   -0.8629    0.2537   -0.8237 C   0  0  0  0  0  3  0  0  0  2  0  0
    0.3308   -0.2746   -0.8374 C   0  0  0  0  0  0  0  0  0  3  0  0
    1.0596   -0.7855   -2.0466 C   0  0  0  0  0  0  0  0  0  4  0  0
   -2.7576    0.2657    0.1344 H   0  0  0  0  0  0  0  0  0  5  0  0
   -2.0537    1.8630   -0.1163 H   0  0  0  0  0  0  0  0  0  6  0  0
   -1.4082    0.8035    1.1478 H   0  0  0  0  0  0  0  0  0  7  0  0
    0.8635   -0.3596    0.1165 H   0  0  0  0  0  0  0  0  0  8  0  0
    2.0033   -0.2520   -2.1835 H   0  0  0  0  0  0  0  0  0  9  0  0
    1.3011   -1.8452   -1.9334 H   0  0  0  0  0  0  0  0  0 10  0  0
    0.4599   -0.6627   -2.9476 H   0  0  0  0  0  0  0  0  0 11  0  0
  1  5  1  0
  1  7  1  0
  1  6  1  0
  1  2  1  0
  2  3  1  0
  3  4  1  0
  3  8  1  0
  4  9  1  0
  4 10  1  0
  4 11  1  0
M  RAD  1   2   2
M  END
>  <rmg_smiles>  (4) 
C[C][CH]C

>  <rmg_adjacency_list>  (4) 
multiplicity 2
1  C u0 p0 c0 {3,S} {5,S} {6,S} {7,S}
2  C u0 p0 c0 {4,S} {8,S} {9,S} {10,S}
3  C u0 p0 c0 {1,S} {4,S} {11,S}
4  C u1 p1 c0 {2,S} {3,S}
5  H u0 p0 c0 {1,S}
6  H u0 p0 c0 {1,S}
7  H u0 p0 c0 {1,S}
8  H u0 p0 c0 {2,S}
9  H u0 p0 c0 {2,S}
10 H u0 p0 c0 {2,S}
11 H u0 p0 c0 {3,S}


>  <multiplicity>  (4) 
2

>  <reaction>  (4) 
rmg_rxn_16738

>  <type>  (4) 
r1

>  <role_mapnums>  (4) 
{}

>  <role_mapidx>  (4) 
{}

>  <ordered_mapped_smiles>  (4) 
[C:1]([CH:2][CH:3]([C:4]([H:9])([H:10])[H:11])[H:8])([H:5])([H:6])[H:7]

>  <level_of_theory>  (4) 
wb97xd/def2tzvp

>  <lot_method>  (4) 
wb97xd

>  <lot_basis>  (4) 
def2tzvp

>  <spin_multiplicity>  (4) 
2.0

>  <optical_isomers>  (4) 
1.0

>  <modes>  (4) 
IdealGasTranslation(mass=(55.0548, 'amu')),         NonlinearRotor(             inertia = ([11.8126, 138.151, 143.711

>  <frequency_value>  (4) 
unknown

>  <frequency_units>  (4) 
unknown

>  <frequency_list>  (4) 
unknown

>  <arkane_path>  (4) 
/home/calvin/Dropbox/PersonalFolders/Calvin/ZEUS_Converged/rmg_rxn_16738/output/Species/rmg_rxn_16738_p2_Csbr-C-sbr=CC/arkane/output.py

>  <path_exists>  (4) 
True

>  <E0_value>  (4) 
-410771.8179696713

>  <E0_units>  (4) 
kJ/mol

>  <thermo_class>  (4) 
NASA

>  <Cp0_value>  (4) 
33.257888

>  <Cp0_units>  (4) 
J/(mol*K)

>  <CpInf_value>  (4) 
257.748632

>  <CpInf_units>  (4) 
J/(mol*K)

>  <Tmin_value>  (4) 
10.0

>  <Tmin_units>  (4) 
K

>  <Tmax_value>  (4) 
3000.0

>  <Tmax_units>  (4) 
K

>  <polynomials>  (4) 
[{"name": "polynomial1", "class": "NASAPolynomial", "Tmin_value": 10.0, "Tmin_units": "K", "Tmax_value": 1169.5590750464423, "Tmax_units": "K", "coeffs": [3.8025570364059162, 0.020806796947452907, 9.379950572357792e-06, -1.7411707656727616e-08, 5.700270813482892e-12, -49404437.37709184, 8.875695509992985]}, {"name": "polynomial2", "class": "NASAPolynomial", "Tmin_value": 1169.5590750464423, "Tmin_units": "K", "Tmax_value": 3000.0, "Tmax_units": "K", "coeffs": [4.435877399651603, 0.028779843481140824, -1.384945385702537e-05, 3.2417171834370724e-09, -2.9894127540492477e-13, -49405278.96325537, 2.756538301562529]}]

>  <H298_value>  (4) 
-98172.62986372456

>  <H298_units>  (4) 
kcal/mol

>  <S298_value>  (4) 
73.55402161572245

>  <S298_units>  (4) 
cal/(mol*K)

>  <Cp_T_value_list>  (4) 
[20.795813498222827, 25.153355523277998, 29.273035451121807, 33.06958757421692, 39.488176958624926, 44.27072354665603, 51.4125629099703, 55.14185252826214, 56.89370587275111]

>  <Cp_T_units>  (4) 
cal/(mol*K)

>  <T_list>  (4) 
[300.0, 400.0, 500.0, 600.0, 800.0, 1000.0, 1500.0, 2000.0, 2400.0]

>  <T_units>  (4) 
K

>  <yaml_path>  (4) 
/home/calvin/Dropbox/PersonalFolders/Calvin/ZEUS_Converged/rmg_rxn_16738/output/Species/rmg_rxn_16738_p2_Csbr-C-sbr=CC/rmg_rxn_16738_p2_Csbr-C-sbr=CC.yml

>  <frequencies_cm1>  (4) 
[151.30028755555998, 191.52708756012, 214.20874007207996, 243.3316248142, 461.02879342884, 742.4584527984, 841.36364236236, 980.0218099438, 1041.6049342935598, 1057.79728567812, 1065.3097676181999, 1111.54517977776, 1285.6919274929598, 1385.08467301464, 1395.48815577444, 1443.3647774254798, 1462.4755975710398, 1470.2490249532798, 1476.0928294606, 1778.4118581736, 2964.53936551188, 3003.24856176072, 3011.5026781153597, 3049.7449193624398, 3067.9286964897997, 3076.6841027727996, 3106.4181492084]

>  <ZPE_kJmol>  (4) 
245.7036033819704

>  <E_elec_kJmol>  (4) 
-411017.5215730533

>  <E0_minus_Eelec_plus_ZPE_kJmol>  (4) 
0.0

>  <rxn>  (4) 
rmg_rxn_16738

>  <species_type>  (4) 
p1

>  <species_folder>  (4) 
rmg_rxn_16738_p2_Csbr-C-sbr=CC

>  <frequencies_cm1_list>  (4) 
[151.30028755555998, 191.52708756012, 214.20874007207996, 243.3316248142, 461.02879342884, 742.4584527984, 841.36364236236, 980.0218099438, 1041.6049342935598, 1057.79728567812, 1065.3097676181999, 1111.54517977776, 1285.6919274929598, 1385.08467301464, 1395.48815577444, 1443.3647774254798, 1462.4755975710398, 1470.2490249532798, 1476.0928294606, 1778.4118581736, 2964.53936551188, 3003.24856176072, 3011.5026781153597, 3049.7449193624398, 3067.9286964897997, 3076.6841027727996, 3106.4181492084]

>  <E0_kJmol>  (4) 
-410772

>  <H298_kJmol>  (4) 
-410754

$$$$

     RDKit          3D

  7  6  0  0  0  0  0  0  0  0999 V2000
   -0.8570   -0.1273   -0.1355 C   0  0  0  0  0  0  0  0  0  1  0  0
    0.5149   -0.3703    0.3747 C   0  0  0  0  0  3  0  0  0  2  0  0
    1.4485    0.4169    0.5315 N   0  0  0  0  0  0  0  0  0  3  0  0
   -1.0355   -0.7472   -1.0151 H   0  0  0  0  0  0  0  0  0  4  0  0
   -1.5861   -0.4201    0.6211 H   0  0  0  0  0  0  0  0  0  5  0  0
   -0.9996    0.9259   -0.3940 H   0  0  0  0  0  0  0  0  0  6  0  0
    2.3199    0.0433    0.8994 H   0  0  0  0  0  0  0  0  0  7  0  0
  1  5  1  0
  1  4  1  0
  1  6  1  0
  1  2  1  0
  2  3  1  0
  3  7  1  0
M  RAD  1   2   2
M  END
>  <rmg_smiles>  (5) 
C[C][NH]

>  <rmg_adjacency_list>  (5) 
multiplicity 2
1 N u0 p1 c0 {3,S} {7,S}
2 C u0 p0 c0 {3,S} {4,S} {5,S} {6,S}
3 C u1 p1 c0 {1,S} {2,S}
4 H u0 p0 c0 {2,S}
5 H u0 p0 c0 {2,S}
6 H u0 p0 c0 {2,S}
7 H u0 p0 c0 {1,S}


>  <multiplicity>  (5) 
2

>  <reaction>  (5) 
rmg_rxn_16738

>  <type>  (5) 
r2

>  <role_mapnums>  (5) 
{}

>  <role_mapidx>  (5) 
{}

>  <ordered_mapped_smiles>  (5) 
[C:1]([CH:2][NH:3][H:7])([H:4])([H:5])[H:6]

>  <level_of_theory>  (5) 
wb97xd/def2tzvp

>  <lot_method>  (5) 
wb97xd

>  <lot_basis>  (5) 
def2tzvp

>  <spin_multiplicity>  (5) 
2.0

>  <optical_isomers>  (5) 
1.0

>  <modes>  (5) 
IdealGasTranslation(mass=(42.0344, 'amu')),         NonlinearRotor(             inertia = ([5.99172, 53.2819, 56.1621

>  <frequency_value>  (5) 
unknown

>  <frequency_units>  (5) 
unknown

>  <frequency_list>  (5) 
unknown

>  <arkane_path>  (5) 
/home/calvin/Dropbox/PersonalFolders/Calvin/ZEUS_Converged/rmg_rxn_16738/output/Species/rmg_rxn_16738_r1_Csbr-C-sbr=N/arkane/output.py

>  <path_exists>  (5) 
True

>  <E0_value>  (5) 
-349829.7646857402

>  <E0_units>  (5) 
kJ/mol

>  <thermo_class>  (5) 
NASA

>  <Cp0_value>  (5) 
33.257888

>  <Cp0_units>  (5) 
J/(mol*K)

>  <CpInf_value>  (5) 
157.97496800000002

>  <CpInf_units>  (5) 
J/(mol*K)

>  <Tmin_value>  (5) 
10.0

>  <Tmin_units>  (5) 
K

>  <Tmax_value>  (5) 
3000.0

>  <Tmax_units>  (5) 
K

>  <polynomials>  (5) 
[{"name": "polynomial1", "class": "NASAPolynomial", "Tmin_value": 10.0, "Tmin_units": "K", "Tmax_value": 738.3691862449018, "Tmax_units": "K", "coeffs": [3.9481653256642133, 0.005049065317565666, 2.9138915396116395e-05, -4.146174419913514e-08, 1.7445385823095416e-11, -42074801.99813542, 7.367040992088955]}, {"name": "polynomial2", "class": "NASAPolynomial", "Tmin_value": 738.3691862449018, "Tmin_units": "K", "Tmax_value": 3000.0, "Tmax_units": "K", "coeffs": [1.8714723004706912, 0.02063901418943847, -1.1348426058818167e-05, 3.054052137122266e-09, -3.22131376882651e-13, -42074613.62515458, 15.954908439416327]}]

>  <H298_value>  (5) 
-83608.17184871054

>  <H298_units>  (5) 
kcal/mol

>  <S298_value>  (5) 
64.2408369920365

>  <S298_units>  (5) 
cal/(mol*K)

>  <Cp_T_value_list>  (5) 
[14.12352936419405, 16.738375814282843, 19.206441095682326, 21.40777683120041, 24.942264725055676, 27.610209747572892, 31.740995290353087, 33.85029713253127, 34.91490629048319]

>  <Cp_T_units>  (5) 
cal/(mol*K)

>  <T_list>  (5) 
[300.0, 400.0, 500.0, 600.0, 800.0, 1000.0, 1500.0, 2000.0, 2400.0]

>  <T_units>  (5) 
K

>  <yaml_path>  (5) 
/home/calvin/Dropbox/PersonalFolders/Calvin/ZEUS_Converged/rmg_rxn_16738/output/Species/rmg_rxn_16738_r1_Csbr-C-sbr=N/rmg_rxn_16738_r1_Csbr-C-sbr=N.yml

>  <frequencies_cm1>  (5) 
[141.67277413692, 434.27501862211994, 665.30100574288, 899.7673525089599, 963.6234489996399, 1033.0212026435597, 1158.24754693908, 1370.993619138, 1448.09613031096, 1452.31932628276, 1834.06190720688, 3001.5592833719998, 3089.40175958544, 3102.8061149300793, 3454.4026302994]

>  <ZPE_kJmol>  (5) 
143.84828964222822

>  <E_elec_kJmol>  (5) 
-349973.6129753825

>  <E0_minus_Eelec_plus_ZPE_kJmol>  (5) 
0.0

>  <rxn>  (5) 
rmg_rxn_16738

>  <species_type>  (5) 
r0

>  <species_folder>  (5) 
rmg_rxn_16738_r1_Csbr-C-sbr=N

>  <frequencies_cm1_list>  (5) 
[141.67277413692, 434.27501862211994, 665.30100574288, 899.7673525089599, 963.6234489996399, 1033.0212026435597, 1158.24754693908, 1370.993619138, 1448.09613031096, 1452.31932628276, 1834.06190720688, 3001.5592833719998, 3089.40175958544, 3102.8061149300793, 3454.4026302994]

>  <E0_kJmol>  (5) 
-349830

>  <H298_kJmol>  (5) 
-349817

$$$$
