
     RDKit          3D

 18 17  0  0  0  0  0  0  0  0999 V2000
    1.2058    0.1836   -2.0113 C   0  0  0  0  0  0  0  0  0  1  0  0
    0.3480    0.2592   -0.7786 C   0  0  0  0  0  0  0  0  0  2  0  0
   -0.3853    1.3256   -0.5212 C   0  0  0  0  0  2  0  0  0  3  0  0
   -1.0430    2.4100   -0.2391 C   0  0  0  0  0  0  0  0  0  4  0  0
    0.4138   -0.8566    0.0465 N   0  0  0  0  0  0  0  0  0  5  0  0
   -0.4027   -0.8238    1.2503 C   0  0  0  0  0  0  0  0  0  6  0  0
   -0.1765   -2.0705    2.0854 C   0  0  0  0  0  0  0  0  0  7  0  0
    2.2442    0.0030   -1.7292 H   0  0  0  0  0  0  0  0  0  8  0  0
    0.8799   -0.6464   -2.6428 H   0  0  0  0  0  0  0  0  0  9  0  0
    1.1440    1.1020   -2.5920 H   0  0  0  0  0  0  0  0  0 10  0  0
   -0.6134    3.1971    0.3741 H   0  0  0  0  0  0  0  0  0 11  0  0
   -2.0529    2.5713   -0.6058 H   0  0  0  0  0  0  0  0  0 12  0  0
    0.0605   -1.6537   -0.5205 H   0  0  0  0  0  0  0  0  0 13  0  0
   -0.1139    0.0632    1.8216 H   0  0  0  0  0  0  0  0  0 14  0  0
   -1.4679   -0.7077    1.0129 H   0  0  0  0  0  0  0  0  0 15  0  0
    0.8780   -2.1725    2.3447 H   0  0  0  0  0  0  0  0  0 16  0  0
   -0.4798   -2.9693    1.5453 H   0  0  0  0  0  0  0  0  0 17  0  0
   -0.7589   -2.0234    3.0067 H   0  0  0  0  0  0  0  0  0 18  0  0
  1 10  1  0
  1  8  1  0
  1  9  1  0
  1  2  1  0
  2  3  1  0
  2  5  1  0
  3  4  1  0
  4 12  1  0
  4 11  1  0
  5  6  1  0
  5 13  1  0
  6 15  1  0
  6 14  1  0
  6  7  1  0
  7 18  1  0
  7 17  1  0
  7 16  1  0
M  RAD  1   3   3
M  END
>  <rmg_smiles>  (1) 
CCN[C]([C][CH2])C

>  <rmg_adjacency_list>  (1) 
1  N u0 p1 c0 {2,S} {5,S} {16,S}
2  C u0 p0 c0 {1,S} {3,S} {8,S} {9,S}
3  C u0 p0 c0 {2,S} {10,S} {11,S} {12,S}
4  C u0 p0 c0 {5,S} {13,S} {14,S} {15,S}
5  C u0 p0 c0 {1,S} {4,S} {7,S}
6  C u0 p0 c0 {7,S} {17,S} {18,S}
7  C u0 p1 c0 {5,S} {6,S}
8  H u0 p0 c0 {2,S}
9  H u0 p0 c0 {2,S}
10 H u0 p0 c0 {3,S}
11 H u0 p0 c0 {3,S}
12 H u0 p0 c0 {3,S}
13 H u0 p0 c0 {4,S}
14 H u0 p0 c0 {4,S}
15 H u0 p0 c0 {4,S}
16 H u0 p0 c0 {1,S}
17 H u0 p0 c0 {6,S}
18 H u0 p0 c0 {6,S}


>  <multiplicity>  (1) 
1

>  <reaction>  (1) 
rmg_rxn_15670

>  <type>  (1) 
r1h

>  <role_mapnums>  (1) 
{"r1h_a": 5, "r1h_h": 13}

>  <role_mapidx>  (1) 
{"r1h_a": 4, "r1h_h": 12}

>  <ordered_mapped_smiles>  (1) 
[C:1]([CH:2]([C:3][CH:4]([H:11])[H:12])[N:5]([C:6]([C:7]([H:16])([H:17])[H:18])([H:14])[H:15])[H:13])([H:8])([H:9])[H:10]

>  <mol_properties>  (1) 
{"4": {"label": "donator", "atom_type": "N3s"}, "12": {"label": "d_hydrogen", "atom_type": "H0"}}

>  <level_of_theory>  (1) 
wb97xd/def2tzvp

>  <lot_method>  (1) 
wb97xd

>  <lot_basis>  (1) 
def2tzvp

>  <spin_multiplicity>  (1) 
1.0

>  <optical_isomers>  (1) 
2.0

>  <modes>  (1) 
IdealGasTranslation(mass=(97.0892, 'amu')),         NonlinearRotor(             inertia = ([132.249, 305.009, 423.563

>  <frequency_value>  (1) 
unknown

>  <frequency_units>  (1) 
unknown

>  <frequency_list>  (1) 
unknown

>  <arkane_path>  (1) 
/home/calvin/Dropbox/PersonalFolders/Calvin/ZEUS_Converged/rmg_rxn_15670/output/Species/rmg_rxn_15670_r2_CCrbr-=C=C-rbrNCC/arkane/output.py

>  <path_exists>  (1) 
True

>  <E0_value>  (1) 
-760890.7093959231

>  <E0_units>  (1) 
kJ/mol

>  <thermo_class>  (1) 
NASA

>  <Cp0_value>  (1) 
33.257888

>  <Cp0_units>  (1) 
J/(mol*K)

>  <CpInf_value>  (1) 
432.352544

>  <CpInf_units>  (1) 
J/(mol*K)

>  <Tmin_value>  (1) 
10.0

>  <Tmin_units>  (1) 
K

>  <Tmax_value>  (1) 
3000.0

>  <Tmax_units>  (1) 
K

>  <polynomials>  (1) 
[{"name": "polynomial1", "class": "NASAPolynomial", "Tmin_value": 10.0, "Tmin_units": "K", "Tmax_value": 1181.9703003270758, "Tmax_units": "K", "coeffs": [3.5576248118037754, 0.04796462360468598, -4.089762160932986e-06, -1.6236192584281374e-08, 6.404649886169646e-12, -91514013.13235132, 12.146972199881024]}, {"name": "polynomial2", "class": "NASAPolynomial", "Tmin_value": 1181.9703003270758, "Tmin_units": "K", "Tmax_value": 3000.0, "Tmax_units": "K", "coeffs": [8.274341671135556, 0.04739516343074579, -2.2901526095557302e-05, 5.392219574968294e-09, -5.004360037038095e-13, -91516203.36172369, -15.945459627630408]}]

>  <H298_value>  (1) 
-181851.0321609224

>  <H298_units>  (1) 
kcal/mol

>  <S298_value>  (1) 
92.19915200175843

>  <S298_units>  (1) 
cal/(mol*K)

>  <Cp_T_value_list>  (1) 
[34.16491614114502, 42.15650932597916, 49.4581172735085, 56.01360748742103, 66.81443307182943, 74.72083947943528, 86.4513062229087, 92.58264864500431, 95.48273161294959]

>  <Cp_T_units>  (1) 
cal/(mol*K)

>  <T_list>  (1) 
[300.0, 400.0, 500.0, 600.0, 800.0, 1000.0, 1500.0, 2000.0, 2400.0]

>  <T_units>  (1) 
K

>  <yaml_path>  (1) 
/home/calvin/Dropbox/PersonalFolders/Calvin/ZEUS_Converged/rmg_rxn_15670/output/Species/rmg_rxn_15670_r2_CCrbr-=C=C-rbrNCC/rmg_rxn_15670_r2_CCrbr-=C=C-rbrNCC.yml

>  <frequencies_cm1>  (1) 
[81.99867170611999, 117.39111404539999, 130.58259284512, 166.94328011452, 215.09458117836, 228.41653269916, 261.460466059, 392.791560304, 408.75043418768, 490.06240736179996, 580.30832843724, 644.9129263277999, 652.02712311932, 806.2939483331199, 821.8408030976, 916.7837421319199, 921.4807600908, 1005.6287982020799, 1031.592869697, 1054.1852513998, 1088.5545129264, 1149.1007224928399, 1159.44240238476, 1251.6316803057598, 1287.731422133, 1350.17978663308, 1375.2511500363998, 1397.41777864936, 1410.00496274092, 1465.8678883191196, 1467.4816298693202, 1477.2190150530798, 1485.3632596426, 1497.8337049837198, 1510.61316466424, 1516.3333634358, 2055.3436421585598, 2952.3229986276, 3007.3000830995197, 3012.4915240014398, 3041.6281427142003, 3069.5081031134, 3077.8377563065596, 3084.2652545660794, 3103.0395924309596, 3127.5547300233598, 3148.2998926750793, 3545.7541360113596]

>  <ZPE_kJmol>  (1) 
412.974460989785

>  <E_elec_kJmol>  (1) 
-761303.6838569129

>  <E0_minus_Eelec_plus_ZPE_kJmol>  (1) 
0.0

>  <rxn>  (1) 
rmg_rxn_15670

>  <species_type>  (1) 
r1

>  <species_folder>  (1) 
rmg_rxn_15670_r2_CCrbr-=C=C-rbrNCC

>  <frequencies_cm1_list>  (1) 
[81.99867170611999, 117.39111404539999, 130.58259284512, 166.94328011452, 215.09458117836, 228.41653269916, 261.460466059, 392.791560304, 408.75043418768, 490.06240736179996, 580.30832843724, 644.9129263277999, 652.02712311932, 806.2939483331199, 821.8408030976, 916.7837421319199, 921.4807600908, 1005.6287982020799, 1031.592869697, 1054.1852513998, 1088.5545129264, 1149.1007224928399, 1159.44240238476, 1251.6316803057598, 1287.731422133, 1350.17978663308, 1375.2511500363998, 1397.41777864936, 1410.00496274092, 1465.8678883191196, 1467.4816298693202, 1477.2190150530798, 1485.3632596426, 1497.8337049837198, 1510.61316466424, 1516.3333634358, 2055.3436421585598, 2952.3229986276, 3007.3000830995197, 3012.4915240014398, 3041.6281427142003, 3069.5081031134, 3077.8377563065596, 3084.2652545660794, 3103.0395924309596, 3127.5547300233598, 3148.2998926750793, 3545.7541360113596]

>  <E0_kJmol>  (1) 
-760891

>  <H298_kJmol>  (1) 
-760865

$$$$

     RDKit          3D

  9  8  0  0  0  0  0  0  0  0999 V2000
    1.2854   -1.0192    0.3488 C   0  0  0  0  0  0  0  0  0  1  0  0
    0.4601   -0.2065   -0.4040 O   0  0  0  0  0  0  0  0  0  2  0  0
   -0.6353    0.2032    0.3338 N   0  0  0  0  0  0  0  0  0  3  0  0
   -1.2931    1.0953   -0.2711 C   0  0  0  0  0  0  0  0  0  4  0  0
    0.7414   -1.6603    1.0406 H   0  0  0  0  0  0  0  0  0  5  0  0
    1.9718   -1.5348   -0.3181 H   0  0  0  0  0  0  0  0  0  6  0  0
   -2.1805    1.4600    0.2286 H   0  0  0  0  0  0  0  0  0  7  0  0
   -0.9958    1.4893   -1.2397 H   0  0  0  0  0  0  0  0  0  8  0  0
    1.9101   -0.3800    0.9691 H   0  0  0  0  0  0  0  0  0  9  0  0
  1  5  1  0
  1  9  1  0
  1  2  1  0
  1  6  1  0
  2  3  1  0
  3  4  1  0
  4  8  1  0
  4  7  1  0
M  END
>  <rmg_smiles>  (2) 
CO[N][CH2]

>  <rmg_adjacency_list>  (2) 
1 O u0 p2 c0 {2,S} {3,S}
2 N u0 p1 c0 {1,S} {4,S}
3 C u0 p0 c0 {1,S} {5,S} {6,S} {7,S}
4 C u0 p0 c0 {2,S} {8,S} {9,S}
5 H u0 p0 c0 {3,S}
6 H u0 p0 c0 {3,S}
7 H u0 p0 c0 {3,S}
8 H u0 p0 c0 {4,S}
9 H u0 p0 c0 {4,S}


>  <multiplicity>  (2) 
1

>  <reaction>  (2) 
rmg_rxn_15670

>  <type>  (2) 
r2h

>  <role_mapnums>  (2) 
{"r2h_a": 1, "r2h_h": 9}

>  <role_mapidx>  (2) 
{"r2h_a": 0, "r2h_h": 8}

>  <ordered_mapped_smiles>  (2) 
[C:1]([O:2][NH:3][CH:4]([H:7])[H:8])([H:5])([H:6])[H:9]

>  <mol_properties>  (2) 
{"0": {"label": "acceptor", "atom_type": "Cs"}, "8": {"label": "a_hydrogen", "atom_type": "H0"}}

>  <level_of_theory>  (2) 
wb97xd/def2tzvp

>  <lot_method>  (2) 
wb97xd

>  <lot_basis>  (2) 
def2tzvp

>  <spin_multiplicity>  (2) 
1.0

>  <optical_isomers>  (2) 
1.0

>  <modes>  (2) 
IdealGasTranslation(mass=(59.0371, 'amu')),         NonlinearRotor(             inertia = ([11.9742, 101.538, 110.304

>  <frequency_value>  (2) 
unknown

>  <frequency_units>  (2) 
unknown

>  <frequency_list>  (2) 
unknown

>  <arkane_path>  (2) 
/home/calvin/Dropbox/PersonalFolders/Calvin/ZEUS_Converged/rmg_rxn_15670/output/Species/rmg_rxn_15670_p1_CON=C/arkane/output.py

>  <path_exists>  (2) 
True

>  <E0_value>  (2) 
-548882.9200394232

>  <E0_units>  (2) 
kJ/mol

>  <thermo_class>  (2) 
NASA

>  <Cp0_value>  (2) 
33.257888

>  <Cp0_units>  (2) 
J/(mol*K)

>  <CpInf_value>  (2) 
207.8618

>  <CpInf_units>  (2) 
J/(mol*K)

>  <Tmin_value>  (2) 
10.0

>  <Tmin_units>  (2) 
K

>  <Tmax_value>  (2) 
3000.0

>  <Tmax_units>  (2) 
K

>  <polynomials>  (2) 
[{"name": "polynomial1", "class": "NASAPolynomial", "Tmin_value": 10.0, "Tmin_units": "K", "Tmax_value": 1066.0445442103917, "Tmax_units": "K", "coeffs": [3.9488472240731216, 0.012909444164008412, 1.8432835387873368e-05, -2.5565901414715004e-08, 8.632634293818456e-12, -66015370.98001154, 7.906058800048573]}, {"name": "polynomial2", "class": "NASAPolynomial", "Tmin_value": 1066.0445442103917, "Tmin_units": "K", "Tmax_value": 3000.0, "Tmax_units": "K", "coeffs": [4.051174026649639, 0.02340322367340144, -1.163838712217072e-05, 2.8112466199843713e-09, -2.6680947262736413e-13, -66016010.897278614, 4.506810904924114]}]

>  <H298_value>  (2) 
-131182.46582067996

>  <H298_units>  (2) 
kcal/mol

>  <S298_value>  (2) 
69.27397375028742

>  <S298_units>  (2) 
cal/(mol*K)

>  <Cp_T_value_list>  (2) 
[17.607207323409234, 21.157104611048137, 24.5530891366924, 27.67560467885903, 32.827861850696166, 36.480858050170255, 41.94371504002133, 44.76201379304356, 46.08804102499818]

>  <Cp_T_units>  (2) 
cal/(mol*K)

>  <T_list>  (2) 
[300.0, 400.0, 500.0, 600.0, 800.0, 1000.0, 1500.0, 2000.0, 2400.0]

>  <T_units>  (2) 
K

>  <yaml_path>  (2) 
/home/calvin/Dropbox/PersonalFolders/Calvin/ZEUS_Converged/rmg_rxn_15670/output/Species/rmg_rxn_15670_p1_CON=C/rmg_rxn_15670_p1_CON=C.yml

>  <frequencies_cm1>  (2) 
[119.61601728907998, 180.59484693068, 346.29520270228, 574.9726808436, 796.6046320465999, 891.08061607916, 982.9746136314, 1126.32979917172, 1169.7222794088, 1171.7686410341598, 1237.71230106212, 1418.12173938916, 1456.2266409298397, 1467.4060930307999, 1493.1160860688801, 1708.0183916582798, 3005.45973103376, 3077.28153049564, 3083.54422110748, 3121.53925088304, 3213.405780494]

>  <ZPE_kJmol>  (2) 
189.2599943319938

>  <E_elec_kJmol>  (2) 
-549072.1800337551

>  <E0_minus_Eelec_plus_ZPE_kJmol>  (2) 
0.0

>  <rxn>  (2) 
rmg_rxn_15670

>  <species_type>  (2) 
p0

>  <species_folder>  (2) 
rmg_rxn_15670_p1_CON=C

>  <frequencies_cm1_list>  (2) 
[119.61601728907998, 180.59484693068, 346.29520270228, 574.9726808436, 796.6046320465999, 891.08061607916, 982.9746136314, 1126.32979917172, 1169.7222794088, 1171.7686410341598, 1237.71230106212, 1418.12173938916, 1456.2266409298397, 1467.4060930307999, 1493.1160860688801, 1708.0183916582798, 3005.45973103376, 3077.28153049564, 3083.54422110748, 3121.53925088304, 3213.405780494]

>  <E0_kJmol>  (2) 
-548883

>  <H298_kJmol>  (2) 
-548867

$$$$

     RDKit          3D

 26 24  0  0  0  0  0  0  0  0999 V2000
   -0.0269   -2.0143   -0.7049 C   0  0  0  0  0  3  0  0  0  1  0  0
   -0.8521   -1.2015   -1.4577 O   0  0  0  0  0  0  0  0  0  2  0  0
   -1.9476   -0.7918   -0.7198 N   0  0  0  0  0  0  0  0  0  3  0  0
   -2.6054    0.1003   -1.3247 C   0  0  0  0  0  0  0  0  0  4  0  0
   -0.5709   -2.6553   -0.0131 H   0  0  0  0  0  0  0  0  0  5  0  0
    0.6595   -2.5299   -1.3718 H   0  0  0  0  0  0  0  0  0  6  0  0
   -3.4928    0.4650   -0.8251 H   0  0  0  0  0  0  0  0  0  7  0  0
   -2.3081    0.4943   -2.2933 H   0  0  0  0  0  0  0  0  0  8  0  0
    1.9788    0.7856   -1.3006 C   0  0  0  0  0  0  0  0  0  9  0  0
    1.1211    0.8612   -0.0679 C   0  0  0  0  0  0  0  0  0 10  0  0
    0.3877    1.9276    0.1895 C   0  0  0  0  0  0  0  0  0 11  0  0
   -0.2700    3.0120    0.4717 C   0  0  0  0  0  0  0  0  0 12  0  0
    1.1868   -0.2546    0.7572 N   0  0  0  0  0  0  0  0  0 13  0  0
    0.3704   -0.2218    1.9610 C   0  0  0  0  0  0  0  0  0 14  0  0
    0.5966   -1.4685    2.7961 C   0  0  0  0  0  0  0  0  0 15  0  0
    3.0173    0.6050   -1.0184 H   0  0  0  0  0  0  0  0  0 16  0  0
    1.6529   -0.0444   -1.9321 H   0  0  0  0  0  0  0  0  0 17  0  0
    1.9170    1.7040   -1.8813 H   0  0  0  0  0  0  0  0  0 18  0  0
    0.1597    3.7991    1.0849 H   0  0  0  0  0  0  0  0  0 19  0  0
   -1.2798    3.1733    0.1049 H   0  0  0  0  0  0  0  0  0 20  0  0
    0.7670   -1.2018    0.0835 H   0  0  0  0  0  0  0  0  0 21  0  0
    0.6592    0.6652    2.5323 H   0  0  0  0  0  0  0  0  0 22  0  0
   -0.6948   -0.1057    1.7236 H   0  0  0  0  0  0  0  0  0 23  0  0
    1.6511   -1.5705    3.0554 H   0  0  0  0  0  0  0  0  0 24  0  0
    0.2932   -2.3673    2.2560 H   0  0  0  0  0  0  0  0  0 25  0  0
    0.0141   -1.4214    3.7174 H   0  0  0  0  0  0  0  0  0 26  0  0
  1  2  1  0
  1  5  1  0
  1  6  1  0
  2  3  1  0
  3  4  1  0
  4  7  1  0
  4  8  1  0
  9 17  1  0
  9 18  1  0
  9 16  1  0
  9 10  1  0
 10 13  1  0
 10 11  1  0
 11 12  1  0
 12 19  1  0
 12 20  1  0
 13 21  1  0
 13 14  1  0
 14 15  1  0
 14 23  1  0
 14 22  1  0
 15 25  1  0
 15 24  1  0
 15 26  1  0
M  RAD  1   1   2
M  END
>  <rmg_smiles>  (3) 
CCN[C]([C][CH2])C.[CH2]O[N][CH2]

>  <rmg_adjacency_list>  (3) 
multiplicity 2
1  O u0 p2 c0 {3,S} {9,S}
2  N u0 p1 c0 {4,S} {7,S} {20,S}
3  N u0 p1 c0 {1,S} {10,S}
4  C u0 p0 c0 {2,S} {5,S} {12,S} {13,S}
5  C u0 p0 c0 {4,S} {14,S} {15,S} {16,S}
6  C u0 p0 c0 {7,S} {17,S} {18,S} {19,S}
7  C u0 p0 c0 {2,S} {6,S} {11,S}
8  C u0 p0 c0 {11,S} {25,S} {26,S}
9  C u1 p0 c0 {1,S} {21,S} {22,S}
10 C u0 p0 c0 {3,S} {23,S} {24,S}
11 C u0 p1 c0 {7,S} {8,S}
12 H u0 p0 c0 {4,S}
13 H u0 p0 c0 {4,S}
14 H u0 p0 c0 {5,S}
15 H u0 p0 c0 {5,S}
16 H u0 p0 c0 {5,S}
17 H u0 p0 c0 {6,S}
18 H u0 p0 c0 {6,S}
19 H u0 p0 c0 {6,S}
20 H u0 p0 c0 {2,S}
21 H u0 p0 c0 {9,S}
22 H u0 p0 c0 {9,S}
23 H u0 p0 c0 {10,S}
24 H u0 p0 c0 {10,S}
25 H u0 p0 c0 {8,S}
26 H u0 p0 c0 {8,S}


>  <multiplicity>  (3) 
2

>  <reaction>  (3) 
rmg_rxn_15670

>  <type>  (3) 
ts

>  <role_mapnums>  (3) 
{"*2": 21, "*1": 13, "*3": 1, "*0": 10, "*4": 2}

>  <role_mapidx>  (3) 
{"*2": 20, "*1": 12, "*3": 0, "*0": 9, "*4": 1}

>  <ordered_mapped_smiles>  (3) 
[C:1]([O:2][NH:3][CH:4]([H:7])[H:8])([H:5])[H:6].[C:9]([CH:10]([CH2:11][CH:12]([H:19])[H:20])[N:13]([C:14]([C:15]([H:24])([H:25])[H:26])([H:22])[H:23])[H:21])([H:16])([H:17])[H:18]

>  <mol_properties>  (3) 
{"0": {"label": "*3", "atom_type": "Cs"}, "1": {"label": "*4", "atom_type": "O2s"}, "9": {"label": "*0", "atom_type": "Cs"}, "12": {"label": "*1", "atom_type": "N3s"}, "20": {"label": "*2", "atom_type": "H0"}}

>  <level_of_theory>  (3) 
wb97xd/def2tzvp

>  <lot_method>  (3) 
wb97xd

>  <lot_basis>  (3) 
def2tzvp

>  <spin_multiplicity>  (3) 
2.0

>  <optical_isomers>  (3) 
2.0

>  <modes>  (3) 
IdealGasTranslation(mass=(155.118, 'amu')),         NonlinearRotor(             inertia = ([512.747, 571.877, 722.011

>  <frequency_value>  (3) 
-2051.73

>  <frequency_units>  (3) 
cm^-1

>  <frequency_list>  (3) 
unknown

>  <arkane_path>  (3) 
/home/calvin/Dropbox/PersonalFolders/Calvin/ZEUS_Converged/rmg_rxn_15670/output/rxns/TS0/arkane/output.py

>  <path_exists>  (3) 
True

>  <E0_value>  (3) 
-1308030.0

>  <E0_units>  (3) 
kJ/mol

>  <thermo_class>  (3) 
unknown

>  <Cp0_value>  (3) 
unknown

>  <Cp0_units>  (3) 
unknown

>  <CpInf_value>  (3) 
unknown

>  <CpInf_units>  (3) 
unknown

>  <Tmin_value>  (3) 
unknown

>  <Tmin_units>  (3) 
unknown

>  <Tmax_value>  (3) 
unknown

>  <Tmax_units>  (3) 
unknown

>  <polynomials>  (3) 
unknown

>  <H298_value>  (3) 
unknown

>  <H298_units>  (3) 
unknown

>  <S298_value>  (3) 
unknown

>  <S298_units>  (3) 
unknown

>  <Cp_T_value_list>  (3) 
unknown

>  <Cp_T_units>  (3) 
unknown

>  <T_list>  (3) 
unknown

>  <T_units>  (3) 
unknown

>  <yaml_path>  (3) 
unknown

>  <frequencies_cm1>  (3) 
unknown

>  <ZPE_kJmol>  (3) 
unknown

>  <E_elec_kJmol>  (3) 
unknown

>  <E0_minus_Eelec_plus_ZPE_kJmol>  (3) 
unknown

>  <rxn>  (3) 
unknown

>  <species_type>  (3) 
unknown

>  <species_folder>  (3) 
unknown

>  <frequencies_cm1_list>  (3) 
[]

>  <ts_imag_freq_cm1>  (3) 
-2076.654

>  <ts_freq_out_path>  (3) 
/home/calvin/Dropbox/PersonalFolders/Calvin/ZEUS_Converged/rmg_rxn_15670/output/rxns/TS0/geometry/freq.out

>  <E0_kJmol>  (3) 
-1.30803e+06

>  <H298_kJmol>  (3) 
unknown

$$$$

     RDKit          3D

 17 16  0  0  0  0  0  0  0  0999 V2000
   -0.9511   -0.9487    1.1699 C   0  0  0  0  0  0  0  0  0  1  0  0
   -0.7475    0.3259    0.3792 C   0  0  0  0  0  0  0  0  0  2  0  0
   -0.8088    1.5420    0.8961 N   0  0  0  0  0  2  0  0  0  3  0  0
   -1.0882    1.6612    2.3061 C   0  0  0  0  0  0  0  0  0  4  0  0
   -1.1214    3.1195    2.7255 C   0  0  0  0  0  0  0  0  0  5  0  0
   -0.4834    0.2151   -0.9533 C   0  0  0  0  0  0  0  0  0  6  0  0
   -0.2341    0.0881   -2.2152 C   0  0  0  0  0  0  0  0  0  7  0  0
   -1.9423   -0.9607    1.6278 H   0  0  0  0  0  0  0  0  0  8  0  0
   -0.2167   -1.0211    1.9748 H   0  0  0  0  0  0  0  0  0  9  0  0
   -0.8535   -1.8243    0.5318 H   0  0  0  0  0  0  0  0  0 10  0  0
   -0.3310    1.1223    2.8937 H   0  0  0  0  0  0  0  0  0 11  0  0
   -2.0479    1.1825    2.5484 H   0  0  0  0  0  0  0  0  0 12  0  0
   -1.8909    3.6574    2.1706 H   0  0  0  0  0  0  0  0  0 13  0  0
   -1.3327    3.2122    3.7924 H   0  0  0  0  0  0  0  0  0 14  0  0
   -0.1630    3.5968    2.5180 H   0  0  0  0  0  0  0  0  0 15  0  0
   -1.0315    0.0717   -2.9541 H   0  0  0  0  0  0  0  0  0 16  0  0
    0.7837    0.0081   -2.5891 H   0  0  0  0  0  0  0  0  0 17  0  0
  1 10  1  0
  1  8  1  0
  1  9  1  0
  1  2  1  0
  2  3  1  0
  2  6  1  0
  3  4  1  0
  4  5  1  0
  4 12  1  0
  4 11  1  0
  5 14  1  0
  5 15  1  0
  5 13  1  0
  6  7  1  0
  7 17  1  0
  7 16  1  0
M  RAD  1   3   2
M  END
>  <rmg_smiles>  (4) 
CC[N][C]([C][CH2])C

>  <rmg_adjacency_list>  (4) 
multiplicity 2
1  N u1 p1 c0 {2,S} {5,S}
2  C u0 p0 c0 {1,S} {3,S} {8,S} {9,S}
3  C u0 p0 c0 {2,S} {10,S} {11,S} {12,S}
4  C u0 p0 c0 {5,S} {13,S} {14,S} {15,S}
5  C u0 p0 c0 {1,S} {4,S} {7,S}
6  C u0 p0 c0 {7,S} {16,S} {17,S}
7  C u0 p1 c0 {5,S} {6,S}
8  H u0 p0 c0 {2,S}
9  H u0 p0 c0 {2,S}
10 H u0 p0 c0 {3,S}
11 H u0 p0 c0 {3,S}
12 H u0 p0 c0 {3,S}
13 H u0 p0 c0 {4,S}
14 H u0 p0 c0 {4,S}
15 H u0 p0 c0 {4,S}
16 H u0 p0 c0 {6,S}
17 H u0 p0 c0 {6,S}


>  <multiplicity>  (4) 
2

>  <reaction>  (4) 
rmg_rxn_15670

>  <type>  (4) 
r1

>  <role_mapnums>  (4) 
{}

>  <role_mapidx>  (4) 
{}

>  <ordered_mapped_smiles>  (4) 
[C:1]([CH:2]([N:3][C:4]([C:5]([H:13])([H:14])[H:15])([H:11])[H:12])[CH2:6][CH:7]([H:16])[H:17])([H:8])([H:9])[H:10]

>  <level_of_theory>  (4) 
wb97xd/def2tzvp

>  <lot_method>  (4) 
wb97xd

>  <lot_basis>  (4) 
def2tzvp

>  <spin_multiplicity>  (4) 
2.0

>  <optical_isomers>  (4) 
1.0

>  <modes>  (4) 
IdealGasTranslation(mass=(96.0813, 'amu')),         NonlinearRotor(             inertia = ([92.3757, 366.241, 445.802

>  <frequency_value>  (4) 
unknown

>  <frequency_units>  (4) 
unknown

>  <frequency_list>  (4) 
unknown

>  <arkane_path>  (4) 
/home/calvin/Dropbox/PersonalFolders/Calvin/ZEUS_Converged/rmg_rxn_15670/output/Species/rmg_rxn_15670_p2_CCrbr-=NCC-rbrsbr-C-sbr=C/arkane/output.py

>  <path_exists>  (4) 
True

>  <E0_value>  (4) 
-759221.4968560858

>  <E0_units>  (4) 
kJ/mol

>  <thermo_class>  (4) 
NASA

>  <Cp0_value>  (4) 
33.257888

>  <Cp0_units>  (4) 
J/(mol*K)

>  <CpInf_value>  (4) 
407.409128

>  <CpInf_units>  (4) 
J/(mol*K)

>  <Tmin_value>  (4) 
10.0

>  <Tmin_units>  (4) 
K

>  <Tmax_value>  (4) 
3000.0

>  <Tmax_units>  (4) 
K

>  <polynomials>  (4) 
[{"name": "polynomial1", "class": "NASAPolynomial", "Tmin_value": 10.0, "Tmin_units": "K", "Tmax_value": 1202.1331063634718, "Tmax_units": "K", "coeffs": [3.566423925933375, 0.04840254567933711, -9.767215195921527e-06, -1.107543424162142e-08, 4.9171179111268406e-12, -91313253.5269937, 12.331296813748947]}, {"name": "polynomial2", "class": "NASAPolynomial", "Tmin_value": 1202.1331063634718, "Tmin_units": "K", "Tmax_value": 3000.0, "Tmax_units": "K", "coeffs": [9.515728843371821, 0.04287469482936648, -2.0672986537486334e-05, 4.845761773799599e-09, -4.4717596645341963e-13, -91315714.84805606, -21.75391474324617]}]

>  <H298_value>  (4) 
-181452.1182102668

>  <H298_units>  (4) 
kcal/mol

>  <S298_value>  (4) 
92.50807485911533

>  <S298_units>  (4) 
cal/(mol*K)

>  <Cp_T_value_list>  (4) 
[33.68102426309964, 41.29760523905449, 48.18734032248904, 54.32370481358087, 64.34747916359426, 71.6257544671053, 82.27863387200172, 87.80362842596138, 90.39838022206985]

>  <Cp_T_units>  (4) 
cal/(mol*K)

>  <T_list>  (4) 
[300.0, 400.0, 500.0, 600.0, 800.0, 1000.0, 1500.0, 2000.0, 2400.0]

>  <T_units>  (4) 
K

>  <yaml_path>  (4) 
/home/calvin/Dropbox/PersonalFolders/Calvin/ZEUS_Converged/rmg_rxn_15670/output/Species/rmg_rxn_15670_p2_CCrbr-=NCC-rbrsbr-C-sbr=C/rmg_rxn_15670_p2_CCrbr-=NCC-rbrsbr-C-sbr=C.yml

>  <frequencies_cm1>  (4) 
[51.20710953123999, 115.37908734664, 132.40234395491998, 181.40515119844, 213.70745014372, 248.35825806844, 277.54294567844, 371.73051632756, 455.17125495088, 475.59366929256, 532.43857377152, 596.5350147484, 775.29637659864, 778.02256977068, 895.3724819041599, 904.4300355412399, 959.2423123654801, 993.41929830312, 1032.9044638931198, 1085.4231676204802, 1093.2583978705998, 1113.95549162508, 1229.3620469129999, 1284.8884902105196, 1326.24147580756, 1376.85115761596, 1394.8563931249998, 1408.47362501456, 1425.9089007420398, 1446.8463389827198, 1473.09195687576, 1475.2962591634798, 1475.5366036496798, 1487.5538279596797, 1898.5016974497598, 2944.96845734988, 2975.0527200367997, 3020.79370925332, 3021.42547190276, 3070.5518848820398, 3085.2678344227998, 3096.5640252742, 3102.15375132468, 3122.59676662232, 3140.9247504413997]

>  <ZPE_kJmol>  (4) 
374.2309080613149

>  <E_elec_kJmol>  (4) 
-759595.7277641471

>  <E0_minus_Eelec_plus_ZPE_kJmol>  (4) 
0.0

>  <rxn>  (4) 
rmg_rxn_15670

>  <species_type>  (4) 
p1

>  <species_folder>  (4) 
rmg_rxn_15670_p2_CCrbr-=NCC-rbrsbr-C-sbr=C

>  <frequencies_cm1_list>  (4) 
[51.20710953123999, 115.37908734664, 132.40234395491998, 181.40515119844, 213.70745014372, 248.35825806844, 277.54294567844, 371.73051632756, 455.17125495088, 475.59366929256, 532.43857377152, 596.5350147484, 775.29637659864, 778.02256977068, 895.3724819041599, 904.4300355412399, 959.2423123654801, 993.41929830312, 1032.9044638931198, 1085.4231676204802, 1093.2583978705998, 1113.95549162508, 1229.3620469129999, 1284.8884902105196, 1326.24147580756, 1376.85115761596, 1394.8563931249998, 1408.47362501456, 1425.9089007420398, 1446.8463389827198, 1473.09195687576, 1475.2962591634798, 1475.5366036496798, 1487.5538279596797, 1898.5016974497598, 2944.96845734988, 2975.0527200367997, 3020.79370925332, 3021.42547190276, 3070.5518848820398, 3085.2678344227998, 3096.5640252742, 3102.15375132468, 3122.59676662232, 3140.9247504413997]

>  <E0_kJmol>  (4) 
-759221

>  <H298_kJmol>  (4) 
-759196

$$$$

     RDKit          3D

  8  7  0  0  0  0  0  0  0  0999 V2000
    1.7077   -0.1964   -0.0607 C   0  0  0  0  0  3  0  0  0  1  0  0
    0.4209   -0.4565    0.2808 O   0  0  0  0  0  0  0  0  0  2  0  0
   -0.4607    0.4385   -0.2968 N   0  0  0  0  0  0  0  0  0  3  0  0
   -1.6584    0.1416   -0.0244 C   0  0  0  0  0  0  0  0  0  4  0  0
    2.4163   -0.7685    0.5170 H   0  0  0  0  0  0  0  0  0  5  0  0
    1.9214    0.7645   -0.5045 H   0  0  0  0  0  0  0  0  0  6  0  0
   -2.4185    0.7953   -0.4307 H   0  0  0  0  0  0  0  0  0  7  0  0
   -1.9286   -0.7185    0.5831 H   0  0  0  0  0  0  0  0  0  8  0  0
  1  6  1  0
  1  5  1  0
  1  2  1  0
  2  3  1  0
  3  4  1  0
  4  8  1  0
  4  7  1  0
M  RAD  1   1   2
M  END
>  <rmg_smiles>  (5) 
[CH2]O[N][CH2]

>  <rmg_adjacency_list>  (5) 
multiplicity 2
1 O u0 p2 c0 {2,S} {3,S}
2 N u0 p1 c0 {1,S} {4,S}
3 C u1 p0 c0 {1,S} {5,S} {6,S}
4 C u0 p0 c0 {2,S} {7,S} {8,S}
5 H u0 p0 c0 {3,S}
6 H u0 p0 c0 {3,S}
7 H u0 p0 c0 {4,S}
8 H u0 p0 c0 {4,S}


>  <multiplicity>  (5) 
2

>  <reaction>  (5) 
rmg_rxn_15670

>  <type>  (5) 
r2

>  <role_mapnums>  (5) 
{}

>  <role_mapidx>  (5) 
{}

>  <ordered_mapped_smiles>  (5) 
[C:1]([O:2][NH:3][CH:4]([H:7])[H:8])([H:5])[H:6]

>  <level_of_theory>  (5) 
wb97xd/def2tzvp

>  <lot_method>  (5) 
wb97xd

>  <lot_basis>  (5) 
def2tzvp

>  <spin_multiplicity>  (5) 
2.0

>  <optical_isomers>  (5) 
2.0

>  <modes>  (5) 
IdealGasTranslation(mass=(58.0293, 'amu')),         NonlinearRotor(             inertia = ([10.2741, 95.4529, 105.582

>  <frequency_value>  (5) 
unknown

>  <frequency_units>  (5) 
unknown

>  <frequency_list>  (5) 
unknown

>  <arkane_path>  (5) 
/home/calvin/Dropbox/PersonalFolders/Calvin/ZEUS_Converged/rmg_rxn_15670/output/Species/rmg_rxn_15670_r1_sbr-CH2-sbrON=C/arkane/output.py

>  <path_exists>  (5) 
True

>  <E0_value>  (5) 
-547168.2732446302

>  <E0_units>  (5) 
kJ/mol

>  <thermo_class>  (5) 
NASA

>  <Cp0_value>  (5) 
33.257888

>  <Cp0_units>  (5) 
J/(mol*K)

>  <CpInf_value>  (5) 
182.918384

>  <CpInf_units>  (5) 
J/(mol*K)

>  <Tmin_value>  (5) 
10.0

>  <Tmin_units>  (5) 
K

>  <Tmax_value>  (5) 
3000.0

>  <Tmax_units>  (5) 
K

>  <polynomials>  (5) 
[{"name": "polynomial1", "class": "NASAPolynomial", "Tmin_value": 10.0, "Tmin_units": "K", "Tmax_value": 253.2842427910515, "Tmax_units": "K", "coeffs": [3.956862909385456, 0.0038362890131335746, 0.00011727738047703725, -3.4736244039427427e-07, 3.472729073035136e-10, -65809144.38694886, 9.350338763280796]}, {"name": "polynomial2", "class": "NASAPolynomial", "Tmin_value": 253.2842427910515, "Tmin_units": "K", "Tmax_value": 3000.0, "Tmax_units": "K", "coeffs": [2.5252197328965313, 0.026445761179553072, -1.662161754135038e-05, 5.074735532607581e-09, -5.97403912324656e-13, -65809071.86505469, 14.291183066674913]}]

>  <H298_value>  (5) 
-130772.65860702786

>  <H298_units>  (5) 
kcal/mol

>  <S298_value>  (5) 
71.26914844977757

>  <S298_units>  (5) 
cal/(mol*K)

>  <Cp_T_value_list>  (5) 
[18.0740035969719, 21.369534269323825, 24.223451351766553, 26.683440747612977, 30.598134113509214, 33.438117676478754, 37.554421513360474, 39.68390492467901, 40.91110806828642]

>  <Cp_T_units>  (5) 
cal/(mol*K)

>  <T_list>  (5) 
[300.0, 400.0, 500.0, 600.0, 800.0, 1000.0, 1500.0, 2000.0, 2400.0]

>  <T_units>  (5) 
K

>  <yaml_path>  (5) 
/home/calvin/Dropbox/PersonalFolders/Calvin/ZEUS_Converged/rmg_rxn_15670/output/Species/rmg_rxn_15670_r1_sbr-CH2-sbrON=C/rmg_rxn_15670_r1_sbr-CH2-sbrON=C.yml

>  <frequencies_cm1>  (5) 
[132.13453152744, 273.14807507364, 360.4549264321199, 498.69420790903996, 595.9169860696, 789.3942974605999, 873.74834513148, 993.5360370535599, 1152.01232426852, 1206.54305469464, 1257.0497317232398, 1417.2771001948001, 1437.260027476, 1705.2166616477198, 3090.5210781926, 3134.7719315946797, 3218.94057066192, 3282.16490450316]

>  <ZPE_kJmol>  (5) 
152.0381400376291

>  <E_elec_kJmol>  (5) 
-547320.3113846679

>  <E0_minus_Eelec_plus_ZPE_kJmol>  (5) 
0.0

>  <rxn>  (5) 
rmg_rxn_15670

>  <species_type>  (5) 
r0

>  <species_folder>  (5) 
rmg_rxn_15670_r1_sbr-CH2-sbrON=C

>  <frequencies_cm1_list>  (5) 
[132.13453152744, 273.14807507364, 360.4549264321199, 498.69420790903996, 595.9169860696, 789.3942974605999, 873.74834513148, 993.5360370535599, 1152.01232426852, 1206.54305469464, 1257.0497317232398, 1417.2771001948001, 1437.260027476, 1705.2166616477198, 3090.5210781926, 3134.7719315946797, 3218.94057066192, 3282.16490450316]

>  <E0_kJmol>  (5) 
-547168

>  <H298_kJmol>  (5) 
-547153

$$$$
