
     RDKit          3D

 10  9  0  0  0  0  0  0  0  0999 V2000
   -0.1371    1.2787    0.1587 C   0  0  0  0  0  0  0  0  0  1  0  0
    0.3152   -0.0254   -0.4611 C   0  0  0  0  0  0  0  0  0  2  0  0
   -0.1024   -1.2330    0.2320 N   0  0  0  0  0  0  0  0  0  3  0  0
   -1.2276    1.2753    0.1351 H   0  0  0  0  0  0  0  0  0  4  0  0
    0.1424    2.1720   -0.4012 H   0  0  0  0  0  0  0  0  0  5  0  0
    0.1029    1.3776    1.2182 H   0  0  0  0  0  0  0  0  0  6  0  0
    1.4090   -0.0267   -0.5310 H   0  0  0  0  0  0  0  0  0  7  0  0
   -0.0504   -0.0831   -1.4896 H   0  0  0  0  0  0  0  0  0  8  0  0
   -1.1143   -1.2782    0.2609 H   0  0  0  0  0  0  0  0  0  9  0  0
    0.2277   -1.2270    1.1884 H   0  0  0  0  0  0  0  0  0 10  0  0
  1  5  1  0
  1  4  1  0
  1  6  1  0
  1  2  1  0
  2  3  1  0
  2  8  1  0
  2  7  1  0
  3  9  1  0
  3 10  1  0
M  END
>  <rmg_smiles>  (1) 
CCN

>  <rmg_adjacency_list>  (1) 
1  N u0 p1 c0 {2,S} {9,S} {10,S}
2  C u0 p0 c0 {1,S} {3,S} {4,S} {5,S}
3  C u0 p0 c0 {2,S} {6,S} {7,S} {8,S}
4  H u0 p0 c0 {2,S}
5  H u0 p0 c0 {2,S}
6  H u0 p0 c0 {3,S}
7  H u0 p0 c0 {3,S}
8  H u0 p0 c0 {3,S}
9  H u0 p0 c0 {1,S}
10 H u0 p0 c0 {1,S}


>  <multiplicity>  (1) 
1

>  <reaction>  (1) 
rmg_rxn_15478

>  <type>  (1) 
r1h

>  <role_mapnums>  (1) 
{"r1h_a": 1, "r1h_h": 4}

>  <role_mapidx>  (1) 
{"r1h_a": 0, "r1h_h": 3}

>  <ordered_mapped_smiles>  (1) 
[C:1]([C:2]([N:3]([H:9])[H:10])([H:7])[H:8])([H:4])([H:5])[H:6]

>  <mol_properties>  (1) 
{"0": {"label": "donator", "atom_type": "Cs"}, "3": {"label": "d_hydrogen", "atom_type": "H0"}}

>  <level_of_theory>  (1) 
wb97xd/def2tzvp

>  <lot_method>  (1) 
wb97xd

>  <lot_basis>  (1) 
def2tzvp

>  <spin_multiplicity>  (1) 
1.0

>  <optical_isomers>  (1) 
1.0

>  <modes>  (1) 
IdealGasTranslation(mass=(45.0579, 'amu')),         NonlinearRotor(             inertia = ([15.7277, 57.3635, 64.2089

>  <frequency_value>  (1) 
unknown

>  <frequency_units>  (1) 
unknown

>  <frequency_list>  (1) 
unknown

>  <arkane_path>  (1) 
/home/calvin/Dropbox/PersonalFolders/Calvin/ZEUS_Converged/rmg_rxn_15478/output/Species/rmg_rxn_15478_r2_CCN/arkane/output.py

>  <path_exists>  (1) 
True

>  <E0_value>  (1) 
-354689.8481847052

>  <E0_units>  (1) 
kJ/mol

>  <thermo_class>  (1) 
NASA

>  <Cp0_value>  (1) 
33.257888

>  <Cp0_units>  (1) 
J/(mol*K)

>  <CpInf_value>  (1) 
232.805216

>  <CpInf_units>  (1) 
J/(mol*K)

>  <Tmin_value>  (1) 
10.0

>  <Tmin_units>  (1) 
K

>  <Tmax_value>  (1) 
3000.0

>  <Tmax_units>  (1) 
K

>  <polynomials>  (1) 
[{"name": "polynomial1", "class": "NASAPolynomial", "Tmin_value": 10.0, "Tmin_units": "K", "Tmax_value": 549.7838717561445, "Tmax_units": "K", "coeffs": [3.9785025445646816, 0.0017919680462209866, 6.861725343965545e-05, -1.0050218802771508e-07, 4.741391283147984e-11, -42659334.495837465, 7.218737380561371]}, {"name": "polynomial2", "class": "NASAPolynomial", "Tmin_value": 549.7838717561445, "Tmin_units": "K", "Tmax_value": 3000.0, "Tmax_units": "K", "coeffs": [-0.4004262874718365, 0.03365142195427556, -1.8306813114701564e-05, 4.9023297565186025e-09, -5.163359881634178e-13, -42658853.00565824, 25.724906324443996]}]

>  <H298_value>  (1) 
-84769.53933941506

>  <H298_units>  (1) 
kcal/mol

>  <S298_value>  (1) 
64.92664026144712

>  <S298_units>  (1) 
cal/(mol*K)

>  <Cp_T_value_list>  (1) 
[16.617297748143308, 20.77764782577213, 24.699776486646936, 28.20235566443197, 33.98689966717954, 38.41305204863901, 45.34365888472791, 48.94971987117289, 50.78258626618426]

>  <Cp_T_units>  (1) 
cal/(mol*K)

>  <T_list>  (1) 
[300.0, 400.0, 500.0, 600.0, 800.0, 1000.0, 1500.0, 2000.0, 2400.0]

>  <T_units>  (1) 
K

>  <yaml_path>  (1) 
/home/calvin/Dropbox/PersonalFolders/Calvin/ZEUS_Converged/rmg_rxn_15478/output/Species/rmg_rxn_15478_r2_CCN/rmg_rxn_15478_r2_CCN.yml

>  <frequencies_cm1>  (1) 
[246.98486100443998, 284.44426592504, 404.4929032892799, 777.63801859276, 840.63574191844, 892.5364169669999, 1003.2871562079599, 1071.39391661172, 1149.12819043412, 1262.16563578664, 1372.6691635560799, 1379.0485929183599, 1398.4134915207599, 1475.28939217816, 1479.96580918108, 1492.8894755533202, 1650.9880785756798, 3000.7489791042394, 3017.20227593096, 3048.6874036231598, 3078.2154404991597, 3080.0832605062, 3485.1873254889597, 3564.0683858597995]

>  <ZPE_kJmol>  (1) 
241.98166850213624

>  <E_elec_kJmol>  (1) 
-354931.82985320734

>  <E0_minus_Eelec_plus_ZPE_kJmol>  (1) 
0.0

>  <rxn>  (1) 
rmg_rxn_15478

>  <species_type>  (1) 
r1

>  <species_folder>  (1) 
rmg_rxn_15478_r2_CCN

>  <frequencies_cm1_list>  (1) 
[246.98486100443998, 284.44426592504, 404.4929032892799, 777.63801859276, 840.63574191844, 892.5364169669999, 1003.2871562079599, 1071.39391661172, 1149.12819043412, 1262.16563578664, 1372.6691635560799, 1379.0485929183599, 1398.4134915207599, 1475.28939217816, 1479.96580918108, 1492.8894755533202, 1650.9880785756798, 3000.7489791042394, 3017.20227593096, 3048.6874036231598, 3078.2154404991597, 3080.0832605062, 3485.1873254889597, 3564.0683858597995]

>  <E0_kJmol>  (1) 
-354690

>  <H298_kJmol>  (1) 
-354676

$$$$

     RDKit          3D

  6  5  0  0  0  0  0  0  0  0999 V2000
   -0.9907   -0.4678   -0.1203 O   0  0  0  0  0  0  0  0  0  1  0  0
    0.3917   -0.3117    0.0215 N   0  0  0  0  0  0  0  0  0  2  0  0
    0.7626    0.8731    0.1228 C   0  0  0  0  0  0  0  0  0  3  0  0
   -1.0938   -1.4197   -0.1912 H   0  0  0  0  0  0  0  0  0  4  0  0
    0.1355    1.7644    0.1098 H   0  0  0  0  0  0  0  0  0  5  0  0
    1.8438    0.9829    0.2053 H   0  0  0  0  0  0  0  0  0  6  0  0
  1  4  1  0
  1  2  1  0
  2  3  1  0
  3  6  1  0
  3  5  1  0
M  END
>  <rmg_smiles>  (2) 
[CH2][N]O

>  <rmg_adjacency_list>  (2) 
1 O u0 p2 c0 {2,S} {6,S}
2 N u0 p1 c0 {1,S} {3,S}
3 C u0 p0 c0 {2,S} {4,S} {5,S}
4 H u0 p0 c0 {3,S}
5 H u0 p0 c0 {3,S}
6 H u0 p0 c0 {1,S}


>  <multiplicity>  (2) 
1

>  <reaction>  (2) 
rmg_rxn_15478

>  <type>  (2) 
r2h

>  <role_mapnums>  (2) 
{"r2h_a": 3, "r2h_h": 6}

>  <role_mapidx>  (2) 
{"r2h_a": 2, "r2h_h": 5}

>  <ordered_mapped_smiles>  (2) 
[O:1]([NH:2][CH:3]([H:5])[H:6])[H:4]

>  <mol_properties>  (2) 
{"2": {"label": "acceptor", "atom_type": "Cs"}, "5": {"label": "a_hydrogen", "atom_type": "H0"}}

>  <level_of_theory>  (2) 
wb97xd/def2tzvp

>  <lot_method>  (2) 
wb97xd

>  <lot_basis>  (2) 
def2tzvp

>  <spin_multiplicity>  (2) 
1.0

>  <optical_isomers>  (2) 
1.0

>  <modes>  (2) 
IdealGasTranslation(mass=(45.0215, 'amu')),         NonlinearRotor(             inertia = ([7.10552, 42.1368, 49.2423

>  <frequency_value>  (2) 
unknown

>  <frequency_units>  (2) 
unknown

>  <frequency_list>  (2) 
unknown

>  <arkane_path>  (2) 
/home/calvin/Dropbox/PersonalFolders/Calvin/ZEUS_Converged/rmg_rxn_15478/output/Species/rmg_rxn_15478_p1_ON=C/arkane/output.py

>  <path_exists>  (2) 
True

>  <E0_value>  (2) 
-445765.04652910994

>  <E0_units>  (2) 
kJ/mol

>  <thermo_class>  (2) 
NASA

>  <Cp0_value>  (2) 
33.257888

>  <Cp0_units>  (2) 
J/(mol*K)

>  <CpInf_value>  (2) 
133.031552

>  <CpInf_units>  (2) 
J/(mol*K)

>  <Tmin_value>  (2) 
10.0

>  <Tmin_units>  (2) 
K

>  <Tmax_value>  (2) 
3000.0

>  <Tmax_units>  (2) 
K

>  <polynomials>  (2) 
[{"name": "polynomial1", "class": "NASAPolynomial", "Tmin_value": 10.0, "Tmin_units": "K", "Tmax_value": 555.0008285415723, "Tmax_units": "K", "coeffs": [4.0729558966761115, -0.006525504673073184, 8.044401869233928e-05, -1.3643340673050255e-07, 7.605604608176978e-11, -53613151.050707266, 6.598063650688069]}, {"name": "polynomial2", "class": "NASAPolynomial", "Tmin_value": 555.0008285415723, "Tmin_units": "K", "Tmax_value": 3000.0, "Tmax_units": "K", "coeffs": [1.9629419554542669, 0.01794293278685335, -1.0716899102514014e-05, 3.1351804200574135e-09, -3.5588210478784073e-13, -53613059.472560614, 14.250328412630774]}]

>  <H298_value>  (2) 
-106537.6194767193

>  <H298_units>  (2) 
kcal/mol

>  <S298_value>  (2) 
60.36296822828259

>  <S298_units>  (2) 
cal/(mol*K)

>  <Cp_T_value_list>  (2) 
[12.494795700177992, 15.001608210431446, 17.130783734283074, 18.881829280437152, 21.69615330289245, 23.7834318087242, 26.9145239767162, 28.553257692891545, 29.47039525924992]

>  <Cp_T_units>  (2) 
cal/(mol*K)

>  <T_list>  (2) 
[300.0, 400.0, 500.0, 600.0, 800.0, 1000.0, 1500.0, 2000.0, 2400.0]

>  <T_units>  (2) 
K

>  <yaml_path>  (2) 
/home/calvin/Dropbox/PersonalFolders/Calvin/ZEUS_Converged/rmg_rxn_15478/output/Species/rmg_rxn_15478_p1_ON=C/rmg_rxn_15478_p1_ON=C.yml

>  <frequencies_cm1>  (2) 
[438.20980121048, 539.7244451960399, 801.7205361099999, 965.59427378648, 986.4836431299199, 1183.2914424011199, 1353.5034075279598, 1444.4016922088, 1728.97643085492, 3083.6403589019596, 3214.03754314344, 3841.1169085952]

>  <ZPE_kJmol>  (2) 
117.11863122037906

>  <E_elec_kJmol>  (2) 
-445882.1651603303

>  <E0_minus_Eelec_plus_ZPE_kJmol>  (2) 
0.0

>  <rxn>  (2) 
rmg_rxn_15478

>  <species_type>  (2) 
p0

>  <species_folder>  (2) 
rmg_rxn_15478_p1_ON=C

>  <frequencies_cm1_list>  (2) 
[438.20980121048, 539.7244451960399, 801.7205361099999, 965.59427378648, 986.4836431299199, 1183.2914424011199, 1353.5034075279598, 1444.4016922088, 1728.97643085492, 3083.6403589019596, 3214.03754314344, 3841.1169085952]

>  <E0_kJmol>  (2) 
-445765

>  <H298_kJmol>  (2) 
-445753

$$$$

     RDKit          3D

 15 13  0  0  0  0  0  0  0  0999 V2000
   -2.7710   -0.3249   -0.1797 O   0  0  0  0  0  0  0  0  0  1  0  0
   -1.3886   -0.1688   -0.0378 N   0  0  0  0  0  0  0  0  0  2  0  0
   -1.0177    1.0160    0.0634 C   0  0  0  0  0  3  0  0  0  3  0  0
   -2.8741   -1.2768   -0.2506 H   0  0  0  0  0  0  0  0  0  4  0  0
   -1.6448    1.9073    0.0504 H   0  0  0  0  0  0  0  0  0  5  0  0
    1.6561    1.1618    0.1976 C   0  0  0  0  0  0  0  0  0  6  0  0
    2.1085   -0.1424   -0.4222 C   0  0  0  0  0  0  0  0  0  7  0  0
    1.6909   -1.3499    0.2710 N   0  0  0  0  0  0  0  0  0  8  0  0
    0.3779    1.1578    0.1700 H   0  0  0  0  0  0  0  0  0  9  0  0
    1.9357    2.0551   -0.3622 H   0  0  0  0  0  0  0  0  0 10  0  0
    1.8962    1.2606    1.2571 H   0  0  0  0  0  0  0  0  0 11  0  0
    3.2022   -0.1437   -0.4920 H   0  0  0  0  0  0  0  0  0 12  0  0
    1.7429   -0.2001   -1.4506 H   0  0  0  0  0  0  0  0  0 13  0  0
    0.6790   -1.3952    0.2998 H   0  0  0  0  0  0  0  0  0 14  0  0
    2.0210   -1.3440    1.2274 H   0  0  0  0  0  0  0  0  0 15  0  0
  1  4  1  0
  1  2  1  0
  2  3  1  0
  3  5  1  0
  6  9  1  0
  6  7  1  0
  6 11  1  0
  6 10  1  0
  7 13  1  0
  7 12  1  0
  7  8  1  0
  8 14  1  0
  8 15  1  0
M  RAD  1   3   2
M  END
>  <rmg_smiles>  (3) 
[CH][N]O.CCN

>  <rmg_adjacency_list>  (3) 
multiplicity 2
1  O u0 p2 c0 {3,S} {14,S}
2  N u0 p1 c0 {4,S} {12,S} {13,S}
3  N u0 p1 c0 {1,S} {6,S}
4  C u0 p0 c0 {2,S} {5,S} {7,S} {8,S}
5  C u0 p0 c0 {4,S} {9,S} {10,S} {11,S}
6  C u1 p1 c0 {3,S} {15,S}
7  H u0 p0 c0 {4,S}
8  H u0 p0 c0 {4,S}
9  H u0 p0 c0 {5,S}
10 H u0 p0 c0 {5,S}
11 H u0 p0 c0 {5,S}
12 H u0 p0 c0 {2,S}
13 H u0 p0 c0 {2,S}
14 H u0 p0 c0 {1,S}
15 H u0 p0 c0 {6,S}


>  <multiplicity>  (3) 
2

>  <reaction>  (3) 
rmg_rxn_15478

>  <type>  (3) 
ts

>  <role_mapnums>  (3) 
{"*2": 9, "*1": 6, "*3": 3, "*0": 7, "*4": 2}

>  <role_mapidx>  (3) 
{"*2": 8, "*1": 5, "*3": 2, "*0": 6, "*4": 1}

>  <ordered_mapped_smiles>  (3) 
[O:1]([NH:2][CH:3][H:5])[H:4].[C:6]([C:7]([N:8]([H:14])[H:15])([H:12])[H:13])([H:9])([H:10])[H:11]

>  <mol_properties>  (3) 
{"1": {"label": "*4", "atom_type": "N3s"}, "2": {"label": "*3", "atom_type": "C2s"}, "5": {"label": "*1", "atom_type": "Cs"}, "6": {"label": "*0", "atom_type": "Cs"}, "8": {"label": "*2", "atom_type": "H0"}}

>  <level_of_theory>  (3) 
wb97xd/def2tzvp

>  <lot_method>  (3) 
wb97xd

>  <lot_basis>  (3) 
def2tzvp

>  <spin_multiplicity>  (3) 
2.0

>  <optical_isomers>  (3) 
2.0

>  <modes>  (3) 
IdealGasTranslation(mass=(89.0715, 'amu')),         NonlinearRotor(             inertia = ([82.4894, 335.185, 398.14

>  <frequency_value>  (3) 
-1553.73

>  <frequency_units>  (3) 
cm^-1

>  <frequency_list>  (3) 
unknown

>  <arkane_path>  (3) 
/home/calvin/Dropbox/PersonalFolders/Calvin/ZEUS_Converged/rmg_rxn_15478/output/rxns/TS0/arkane/output.py

>  <path_exists>  (3) 
True

>  <E0_value>  (3) 
-798663.0

>  <E0_units>  (3) 
kJ/mol

>  <thermo_class>  (3) 
unknown

>  <Cp0_value>  (3) 
unknown

>  <Cp0_units>  (3) 
unknown

>  <CpInf_value>  (3) 
unknown

>  <CpInf_units>  (3) 
unknown

>  <Tmin_value>  (3) 
unknown

>  <Tmin_units>  (3) 
unknown

>  <Tmax_value>  (3) 
unknown

>  <Tmax_units>  (3) 
unknown

>  <polynomials>  (3) 
unknown

>  <H298_value>  (3) 
unknown

>  <H298_units>  (3) 
unknown

>  <S298_value>  (3) 
unknown

>  <S298_units>  (3) 
unknown

>  <Cp_T_value_list>  (3) 
unknown

>  <Cp_T_units>  (3) 
unknown

>  <T_list>  (3) 
unknown

>  <T_units>  (3) 
unknown

>  <yaml_path>  (3) 
unknown

>  <frequencies_cm1>  (3) 
unknown

>  <ZPE_kJmol>  (3) 
unknown

>  <E_elec_kJmol>  (3) 
unknown

>  <E0_minus_Eelec_plus_ZPE_kJmol>  (3) 
unknown

>  <rxn>  (3) 
unknown

>  <species_type>  (3) 
unknown

>  <species_folder>  (3) 
unknown

>  <frequencies_cm1_list>  (3) 
[]

>  <ts_imag_freq_cm1>  (3) 
-1572.6058

>  <ts_freq_out_path>  (3) 
/home/calvin/Dropbox/PersonalFolders/Calvin/ZEUS_Converged/rmg_rxn_15478/output/rxns/TS0/geometry/freq.out

>  <E0_kJmol>  (3) 
-798663

>  <H298_kJmol>  (3) 
unknown

$$$$

     RDKit          3D

  9  8  0  0  0  0  0  0  0  0999 V2000
   -1.2868    0.1766    0.0689 C   0  0  0  0  0  3  0  0  0  1  0  0
    0.0524   -0.4053   -0.2125 C   0  0  0  0  0  0  0  0  0  2  0  0
    0.4381   -0.4743   -1.6185 N   0  0  0  0  0  0  0  0  0  3  0  0
   -2.0993    0.0348   -0.6334 H   0  0  0  0  0  0  0  0  0  4  0  0
   -1.5107    0.6312    1.0255 H   0  0  0  0  0  0  0  0  0  5  0  0
    0.1170   -1.4256    0.1926 H   0  0  0  0  0  0  0  0  0  6  0  0
    0.8199    0.1594    0.3261 H   0  0  0  0  0  0  0  0  0  7  0  0
   -0.1822   -1.0926   -2.1251 H   0  0  0  0  0  0  0  0  0  8  0  0
    0.3552    0.4394   -2.0455 H   0  0  0  0  0  0  0  0  0  9  0  0
  1  5  1  0
  1  4  1  0
  1  2  1  0
  2  3  1  0
  2  7  1  0
  2  6  1  0
  3  9  1  0
  3  8  1  0
M  RAD  1   1   2
M  END
>  <rmg_smiles>  (4) 
[CH2]CN

>  <rmg_adjacency_list>  (4) 
multiplicity 2
1 N u0 p1 c0 {2,S} {8,S} {9,S}
2 C u0 p0 c0 {1,S} {3,S} {4,S} {5,S}
3 C u1 p0 c0 {2,S} {6,S} {7,S}
4 H u0 p0 c0 {2,S}
5 H u0 p0 c0 {2,S}
6 H u0 p0 c0 {3,S}
7 H u0 p0 c0 {3,S}
8 H u0 p0 c0 {1,S}
9 H u0 p0 c0 {1,S}


>  <multiplicity>  (4) 
2

>  <reaction>  (4) 
rmg_rxn_15478

>  <type>  (4) 
r1

>  <role_mapnums>  (4) 
{}

>  <role_mapidx>  (4) 
{}

>  <ordered_mapped_smiles>  (4) 
[C:1]([C:2]([N:3]([H:8])[H:9])([H:6])[H:7])([H:4])[H:5]

>  <level_of_theory>  (4) 
wb97xd/def2tzvp

>  <lot_method>  (4) 
wb97xd

>  <lot_basis>  (4) 
def2tzvp

>  <spin_multiplicity>  (4) 
2.0

>  <optical_isomers>  (4) 
2.0

>  <modes>  (4) 
IdealGasTranslation(mass=(44.05, 'amu')),         NonlinearRotor(             inertia = ([14.0571, 53.5528, 61.2043

>  <frequency_value>  (4) 
unknown

>  <frequency_units>  (4) 
unknown

>  <frequency_list>  (4) 
unknown

>  <arkane_path>  (4) 
/home/calvin/Dropbox/PersonalFolders/Calvin/ZEUS_Converged/rmg_rxn_15478/output/Species/rmg_rxn_15478_p2_sbr-CH2-sbrCN/arkane/output.py

>  <path_exists>  (4) 
True

>  <E0_value>  (4) 
-352957.1397909701

>  <E0_units>  (4) 
kJ/mol

>  <thermo_class>  (4) 
NASA

>  <Cp0_value>  (4) 
33.257888

>  <Cp0_units>  (4) 
J/(mol*K)

>  <CpInf_value>  (4) 
207.8618

>  <CpInf_units>  (4) 
J/(mol*K)

>  <Tmin_value>  (4) 
10.0

>  <Tmin_units>  (4) 
K

>  <Tmax_value>  (4) 
3000.0

>  <Tmax_units>  (4) 
K

>  <polynomials>  (4) 
[{"name": "polynomial1", "class": "NASAPolynomial", "Tmin_value": 10.0, "Tmin_units": "K", "Tmax_value": 397.86468970177015, "Tmax_units": "K", "coeffs": [3.898983046969896, 0.00764454824065854, 5.8120082016211984e-05, -1.1786447981291421e-07, 7.608644884709514e-11, -42450935.962465055, 8.69045536773084]}, {"name": "polynomial2", "class": "NASAPolynomial", "Tmin_value": 397.86468970177015, "Tmin_units": "K", "Tmax_value": 3000.0, "Tmax_units": "K", "coeffs": [1.9822765259778783, 0.02691448212554493, -1.4529997924502821e-05, 3.868835630070388e-09, -4.052086681170432e-13, -42450783.44449963, 16.17093658874648]}]

>  <H298_value>  (4) 
-84355.16435451215

>  <H298_units>  (4) 
kcal/mol

>  <S298_value>  (4) 
69.29856262285199

>  <S298_units>  (4) 
cal/(mol*K)

>  <Cp_T_value_list>  (4) 
[17.600914880867286, 21.18461857320819, 24.373677973557562, 27.19158246102844, 31.853994026765847, 35.43266233009404, 41.07050243119651, 44.03370489004738, 45.553088791139515]

>  <Cp_T_units>  (4) 
cal/(mol*K)

>  <T_list>  (4) 
[300.0, 400.0, 500.0, 600.0, 800.0, 1000.0, 1500.0, 2000.0, 2400.0]

>  <T_units>  (4) 
K

>  <yaml_path>  (4) 
/home/calvin/Dropbox/PersonalFolders/Calvin/ZEUS_Converged/rmg_rxn_15478/output/Species/rmg_rxn_15478_p2_sbr-CH2-sbrCN/rmg_rxn_15478_p2_sbr-CH2-sbrCN.yml

>  <frequencies_cm1>  (4) 
[127.27957290619997, 263.2115473156, 405.0216611589199, 490.47442648099997, 799.9488538974399, 851.62291843044, 921.9271141365998, 1070.1509922687999, 1117.8559392868399, 1167.3875044, 1353.4690726013598, 1367.8828747880398, 1444.8274452986398, 1455.00431754288, 1650.2189762198398, 2950.9770695048796, 3021.5353436678797, 3113.97870004572, 3220.05302228376, 3487.92725263164, 3567.48814454916]

>  <ZPE_kJmol>  (4) 
202.45750980436225

>  <E_elec_kJmol>  (4) 
-353159.5973007744

>  <E0_minus_Eelec_plus_ZPE_kJmol>  (4) 
0.0

>  <rxn>  (4) 
rmg_rxn_15478

>  <species_type>  (4) 
p1

>  <species_folder>  (4) 
rmg_rxn_15478_p2_sbr-CH2-sbrCN

>  <frequencies_cm1_list>  (4) 
[127.27957290619997, 263.2115473156, 405.0216611589199, 490.47442648099997, 799.9488538974399, 851.62291843044, 921.9271141365998, 1070.1509922687999, 1117.8559392868399, 1167.3875044, 1353.4690726013598, 1367.8828747880398, 1444.8274452986398, 1455.00431754288, 1650.2189762198398, 2950.9770695048796, 3021.5353436678797, 3113.97870004572, 3220.05302228376, 3487.92725263164, 3567.48814454916]

>  <E0_kJmol>  (4) 
-352957

>  <H298_kJmol>  (4) 
-352942

$$$$

     RDKit          3D

  5  4  0  0  0  0  0  0  0  0999 V2000
    0.8934    0.3742    0.4948 O   0  0  0  0  0  0  0  0  0  1  0  0
    0.1582   -0.1610   -0.5904 N   0  0  0  0  0  0  0  0  0  2  0  0
   -1.0297   -0.3739   -0.4689 C   0  0  0  0  0  3  0  0  0  3  0  0
    1.7805    0.4382    0.1306 H   0  0  0  0  0  0  0  0  0  4  0  0
   -1.8023   -0.2775    0.2859 H   0  0  0  0  0  0  0  0  0  5  0  0
  1  4  1  0
  1  2  1  0
  2  3  1  0
  3  5  1  0
M  RAD  1   3   2
M  END
>  <rmg_smiles>  (5) 
[CH][N]O

>  <rmg_adjacency_list>  (5) 
multiplicity 2
1 O u0 p2 c0 {2,S} {4,S}
2 N u0 p1 c0 {1,S} {3,S}
3 C u1 p1 c0 {2,S} {5,S}
4 H u0 p0 c0 {1,S}
5 H u0 p0 c0 {3,S}


>  <multiplicity>  (5) 
2

>  <reaction>  (5) 
rmg_rxn_15478

>  <type>  (5) 
r2

>  <role_mapnums>  (5) 
{}

>  <role_mapidx>  (5) 
{}

>  <ordered_mapped_smiles>  (5) 
[O:1]([NH:2][CH:3][H:5])[H:4]

>  <level_of_theory>  (5) 
wb97xd/def2tzvp

>  <lot_method>  (5) 
wb97xd

>  <lot_basis>  (5) 
def2tzvp

>  <spin_multiplicity>  (5) 
2.0

>  <optical_isomers>  (5) 
1.0

>  <modes>  (5) 
IdealGasTranslation(mass=(44.0136, 'amu')),         NonlinearRotor(             inertia = ([5.81591, 41.4826, 47.2985

>  <frequency_value>  (5) 
unknown

>  <frequency_units>  (5) 
unknown

>  <frequency_list>  (5) 
unknown

>  <arkane_path>  (5) 
/home/calvin/Dropbox/PersonalFolders/Calvin/ZEUS_Converged/rmg_rxn_15478/output/Species/rmg_rxn_15478_r1_ON=sbr-CH-sbr/arkane/output.py

>  <path_exists>  (5) 
True

>  <E0_value>  (5) 
-444005.359324532

>  <E0_units>  (5) 
kJ/mol

>  <thermo_class>  (5) 
NASA

>  <Cp0_value>  (5) 
33.257888

>  <Cp0_units>  (5) 
J/(mol*K)

>  <CpInf_value>  (5) 
108.088136

>  <CpInf_units>  (5) 
J/(mol*K)

>  <Tmin_value>  (5) 
10.0

>  <Tmin_units>  (5) 
K

>  <Tmax_value>  (5) 
3000.0

>  <Tmax_units>  (5) 
K

>  <polynomials>  (5) 
[{"name": "polynomial1", "class": "NASAPolynomial", "Tmin_value": 10.0, "Tmin_units": "K", "Tmax_value": 581.5521855773558, "Tmax_units": "K", "coeffs": [3.9651854378376354, 0.0020096300724220997, 4.068547950040168e-05, -7.790242028845132e-08, 4.4772375189871534e-11, -53401508.17068676, 6.828671301777145]}, {"name": "polynomial2", "class": "NASAPolynomial", "Tmin_value": 581.5521855773558, "Tmin_units": "K", "Tmax_value": 3000.0, "Tmax_units": "K", "coeffs": [3.5849357627708427, 0.012844035212889389, -8.4590302800557e-06, 2.7367089532336234e-09, -3.401217371194876e-13, -53401602.928060964, 7.262096783490094]}]

>  <H298_value>  (5) 
-106116.84893693788

>  <H298_units>  (5) 
kcal/mol

>  <S298_value>  (5) 
62.05085615552054

>  <S298_units>  (5) 
cal/(mol*K)

>  <Cp_T_value_list>  (5) 
[12.895099247909474, 14.783091657217865, 16.298752276569193, 17.47381546838603, 19.292328661132526, 20.6004316585094, 22.520408903315662, 23.62512089396801, 24.312373577063074]

>  <Cp_T_units>  (5) 
cal/(mol*K)

>  <T_list>  (5) 
[300.0, 400.0, 500.0, 600.0, 800.0, 1000.0, 1500.0, 2000.0, 2400.0]

>  <T_units>  (5) 
K

>  <yaml_path>  (5) 
/home/calvin/Dropbox/PersonalFolders/Calvin/ZEUS_Converged/rmg_rxn_15478/output/Species/rmg_rxn_15478_r1_ON=sbr-CH-sbr/rmg_rxn_15478_r1_ON=sbr-CH-sbr.yml

>  <frequencies_cm1>  (5) 
[407.41137205027997, 410.42597860575995, 739.51938308144, 761.67227772376, 903.0703724478799, 1348.68965081864, 1755.81260948548, 3154.3291057860397, 3817.47387813844]

>  <ZPE_kJmol>  (5) 
79.54214655441899

>  <E_elec_kJmol>  (5) 
-444084.9014710864

>  <E0_minus_Eelec_plus_ZPE_kJmol>  (5) 
0.0

>  <rxn>  (5) 
rmg_rxn_15478

>  <species_type>  (5) 
r0

>  <species_folder>  (5) 
rmg_rxn_15478_r1_ON=sbr-CH-sbr

>  <frequencies_cm1_list>  (5) 
[407.41137205027997, 410.42597860575995, 739.51938308144, 761.67227772376, 903.0703724478799, 1348.68965081864, 1755.81260948548, 3154.3291057860397, 3817.47387813844]

>  <E0_kJmol>  (5) 
-444005

>  <H298_kJmol>  (5) 
-443993

$$$$
