
     RDKit          3D

 10  9  0  0  0  0  0  0  0  0999 V2000
    0.2764   -0.5824   -1.8491 C   0  0  0  0  0  0  0  0  0  1  0  0
    0.2126   -0.2662   -0.5770 C   0  0  0  0  0  2  0  0  0  2  0  0
    0.2366   -0.0001    0.6740 C   0  0  0  0  0  0  0  0  0  3  0  0
   -0.6553    0.7662    1.5882 C   0  0  0  0  0  0  0  0  0  4  0  0
    0.7713    0.0668   -2.5622 H   0  0  0  0  0  0  0  0  0  5  0  0
   -0.1816   -1.4898   -2.2249 H   0  0  0  0  0  0  0  0  0  6  0  0
    1.0999   -0.4253    1.1860 H   0  0  0  0  0  0  0  0  0  7  0  0
   -1.0301    0.1205    2.3837 H   0  0  0  0  0  0  0  0  0  8  0  0
   -1.5036    1.1830    1.0444 H   0  0  0  0  0  0  0  0  0  9  0  0
   -0.1043    1.5818    2.0593 H   0  0  0  0  0  0  0  0  0 10  0  0
  1  5  1  0
  1  6  1  0
  1  2  1  0
  2  3  1  0
  3  4  1  0
  3  7  1  0
  4  8  1  0
  4  9  1  0
  4 10  1  0
M  RAD  1   2   3
M  END
>  <rmg_smiles>  (1) 
[CH2][C][CH]C

>  <rmg_adjacency_list>  (1) 
1  C u0 p0 c0 {2,S} {5,S} {6,S} {7,S}
2  C u0 p0 c0 {1,S} {4,S} {8,S}
3  C u0 p0 c0 {4,S} {9,S} {10,S}
4  C u0 p1 c0 {2,S} {3,S}
5  H u0 p0 c0 {1,S}
6  H u0 p0 c0 {1,S}
7  H u0 p0 c0 {1,S}
8  H u0 p0 c0 {2,S}
9  H u0 p0 c0 {3,S}
10 H u0 p0 c0 {3,S}


>  <multiplicity>  (1) 
1

>  <reaction>  (1) 
rmg_rxn_13887

>  <type>  (1) 
r1h

>  <role_mapnums>  (1) 
{"r1h_a": 3, "r1h_h": 7}

>  <role_mapidx>  (1) 
{"r1h_a": 2, "r1h_h": 6}

>  <ordered_mapped_smiles>  (1) 
[CH:1]([C:2][CH:3]([C:4]([H:8])([H:9])[H:10])[H:7])([H:5])[H:6]

>  <mol_properties>  (1) 
{"2": {"label": "donator", "atom_type": "Cs"}, "6": {"label": "d_hydrogen", "atom_type": "H0"}}

>  <level_of_theory>  (1) 
wb97xd/def2tzvp

>  <lot_method>  (1) 
wb97xd

>  <lot_basis>  (1) 
def2tzvp

>  <spin_multiplicity>  (1) 
1.0

>  <optical_isomers>  (1) 
1.0

>  <modes>  (1) 
IdealGasTranslation(mass=(54.047, 'amu')),         NonlinearRotor(             inertia = ([14.6121, 119.467, 127.49

>  <frequency_value>  (1) 
unknown

>  <frequency_units>  (1) 
unknown

>  <frequency_list>  (1) 
unknown

>  <arkane_path>  (1) 
/home/calvin/Dropbox/PersonalFolders/Calvin/ZEUS_Converged/rmg_rxn_13887/output/Species/rmg_rxn_13887_r2_C=C=CC/arkane/output.py

>  <path_exists>  (1) 
True

>  <E0_value>  (1) 
-409296.6502421279

>  <E0_units>  (1) 
kJ/mol

>  <thermo_class>  (1) 
NASA

>  <Cp0_value>  (1) 
33.257888

>  <Cp0_units>  (1) 
J/(mol*K)

>  <CpInf_value>  (1) 
232.805216

>  <CpInf_units>  (1) 
J/(mol*K)

>  <Tmin_value>  (1) 
10.0

>  <Tmin_units>  (1) 
K

>  <Tmax_value>  (1) 
3000.0

>  <Tmax_units>  (1) 
K

>  <polynomials>  (1) 
[{"name": "polynomial1", "class": "NASAPolynomial", "Tmin_value": 10.0, "Tmin_units": "K", "Tmax_value": 452.8802664009696, "Tmax_units": "K", "coeffs": [3.9021943352433452, 0.007937521032632688, 6.664442489196733e-05, -1.2131953588307993e-07, 6.938885885775227e-11, -49227014.555544384, 8.255511443201872]}, {"name": "polynomial2", "class": "NASAPolynomial", "Tmin_value": 452.8802664009696, "Tmin_units": "K", "Tmax_value": 3000.0, "Tmax_units": "K", "coeffs": [0.958037882717614, 0.033941191741253485, -1.948265019694705e-05, 5.463813645242153e-09, -5.979209978345261e-13, -49226747.88374059, 20.12723627389473]}]

>  <H298_value>  (1) 
-97820.47439749332

>  <H298_units>  (1) 
kcal/mol

>  <S298_value>  (1) 
69.30943774444917

>  <S298_units>  (1) 
cal/(mol*K)

>  <Cp_T_value_list>  (1) 
[19.013335795722274, 23.35407848830737, 27.231838984706652, 30.626214617830076, 36.15654523435027, 40.30546036176962, 46.594544625367064, 49.786664420046236, 51.450781523093035]

>  <Cp_T_units>  (1) 
cal/(mol*K)

>  <T_list>  (1) 
[300.0, 400.0, 500.0, 600.0, 800.0, 1000.0, 1500.0, 2000.0, 2400.0]

>  <T_units>  (1) 
K

>  <yaml_path>  (1) 
/home/calvin/Dropbox/PersonalFolders/Calvin/ZEUS_Converged/rmg_rxn_13887/output/Species/rmg_rxn_13887_r2_C=C=CC/rmg_rxn_13887_r2_C=C=CC.yml

>  <frequencies_cm1>  (1) 
[164.84884959192, 210.28769145436, 340.98015606459995, 540.2944049775999, 574.7186023867599, 878.6239047086799, 884.0282221555199, 895.09093550604, 1017.79709618912, 1055.91573170044, 1088.91159616304, 1146.5530709391198, 1353.77808694076, 1399.01778622892, 1463.354571692, 1470.3726306890399, 1494.8053644576, 2061.4346581373993, 3012.63573069316, 3072.0282867258397, 3106.42501619372, 3110.62074422424, 3124.134971334, 3189.66661224276]

>  <ZPE_kJmol>  (1) 
219.25357474583132

>  <E_elec_kJmol>  (1) 
-409515.9038168737

>  <E0_minus_Eelec_plus_ZPE_kJmol>  (1) 
0.0

>  <rxn>  (1) 
rmg_rxn_13887

>  <species_type>  (1) 
r1

>  <species_folder>  (1) 
rmg_rxn_13887_r2_C=C=CC

>  <frequencies_cm1_list>  (1) 
[164.84884959192, 210.28769145436, 340.98015606459995, 540.2944049775999, 574.7186023867599, 878.6239047086799, 884.0282221555199, 895.09093550604, 1017.79709618912, 1055.91573170044, 1088.91159616304, 1146.5530709391198, 1353.77808694076, 1399.01778622892, 1463.354571692, 1470.3726306890399, 1494.8053644576, 2061.4346581373993, 3012.63573069316, 3072.0282867258397, 3106.42501619372, 3110.62074422424, 3124.134971334, 3189.66661224276]

>  <E0_kJmol>  (1) 
-409297

>  <H298_kJmol>  (1) 
-409281

$$$$

     RDKit          3D

 12 11  0  0  0  0  0  0  0  0999 V2000
    1.3013    1.0291    0.2438 C   0  0  0  0  0  0  0  0  0  1  0  0
    0.3953    0.4103   -0.8111 C   0  0  0  0  0  0  0  0  0  2  0  0
   -0.3469   -0.8201   -0.3077 C   0  0  0  0  0  0  0  0  0  3  0  0
   -1.1648   -0.5831    0.7875 O   0  0  0  0  0  0  0  0  0  4  0  0
    2.0811    0.3275    0.5503 H   0  0  0  0  0  0  0  0  0  5  0  0
    1.7900    1.9294   -0.1317 H   0  0  0  0  0  0  0  0  0  6  0  0
    0.7275    1.2978    1.1316 H   0  0  0  0  0  0  0  0  0  7  0  0
   -0.3457    1.1423   -1.1460 H   0  0  0  0  0  0  0  0  0  8  0  0
    0.9772    0.1254   -1.6930 H   0  0  0  0  0  0  0  0  0  9  0  0
   -0.9256   -1.2798   -1.1248 H   0  0  0  0  0  0  0  0  0 10  0  0
    0.3650   -1.5930    0.0206 H   0  0  0  0  0  0  0  0  0 11  0  0
   -1.9729   -0.2027    0.4355 H   0  0  0  0  0  0  0  0  0 12  0  0
  1  5  1  0
  1  7  1  0
  1  6  1  0
  1  2  1  0
  2  9  1  0
  2  8  1  0
  2  3  1  0
  3 11  1  0
  3  4  1  0
  3 10  1  0
  4 12  1  0
M  END
>  <rmg_smiles>  (2) 
CCCO

>  <rmg_adjacency_list>  (2) 
1  O u0 p2 c0 {3,S} {12,S}
2  C u0 p0 c0 {3,S} {4,S} {5,S} {6,S}
3  C u0 p0 c0 {1,S} {2,S} {7,S} {8,S}
4  C u0 p0 c0 {2,S} {9,S} {10,S} {11,S}
5  H u0 p0 c0 {2,S}
6  H u0 p0 c0 {2,S}
7  H u0 p0 c0 {3,S}
8  H u0 p0 c0 {3,S}
9  H u0 p0 c0 {4,S}
10 H u0 p0 c0 {4,S}
11 H u0 p0 c0 {4,S}
12 H u0 p0 c0 {1,S}


>  <multiplicity>  (2) 
1

>  <reaction>  (2) 
rmg_rxn_13887

>  <type>  (2) 
r2h

>  <role_mapnums>  (2) 
{"r2h_a": 4, "r2h_h": 12}

>  <role_mapidx>  (2) 
{"r2h_a": 3, "r2h_h": 11}

>  <ordered_mapped_smiles>  (2) 
[C:1]([C:2]([C:3]([O:4][H:12])([H:10])[H:11])([H:8])[H:9])([H:5])([H:6])[H:7]

>  <mol_properties>  (2) 
{"3": {"label": "acceptor", "atom_type": "O2s"}, "11": {"label": "a_hydrogen", "atom_type": "H0"}}

>  <level_of_theory>  (2) 
wb97xd/def2tzvp

>  <lot_method>  (2) 
wb97xd

>  <lot_basis>  (2) 
def2tzvp

>  <spin_multiplicity>  (2) 
1.0

>  <optical_isomers>  (2) 
2.0

>  <modes>  (2) 
IdealGasTranslation(mass=(60.0575, 'amu')),         NonlinearRotor(             inertia = ([35.1424, 100.065, 117.206

>  <frequency_value>  (2) 
unknown

>  <frequency_units>  (2) 
unknown

>  <frequency_list>  (2) 
unknown

>  <arkane_path>  (2) 
/home/calvin/Dropbox/PersonalFolders/Calvin/ZEUS_Converged/rmg_rxn_13887/output/Species/rmg_rxn_13887_p1_CCCO/arkane/output.py

>  <path_exists>  (2) 
True

>  <E0_value>  (2) 
-510044.1612319261

>  <E0_units>  (2) 
kJ/mol

>  <thermo_class>  (2) 
NASA

>  <Cp0_value>  (2) 
33.257888

>  <Cp0_units>  (2) 
J/(mol*K)

>  <CpInf_value>  (2) 
282.692048

>  <CpInf_units>  (2) 
J/(mol*K)

>  <Tmin_value>  (2) 
10.0

>  <Tmin_units>  (2) 
K

>  <Tmax_value>  (2) 
3000.0

>  <Tmax_units>  (2) 
K

>  <polynomials>  (2) 
[{"name": "polynomial1", "class": "NASAPolynomial", "Tmin_value": 10.0, "Tmin_units": "K", "Tmax_value": 846.6309193938728, "Tmax_units": "K", "coeffs": [3.872097774701738, 0.013345666554551246, 4.415013277136787e-05, -6.075836782335126e-08, 2.3383073067661656e-11, -61344143.92232225, 9.287814408278317]}, {"name": "polynomial2", "class": "NASAPolynomial", "Tmin_value": 846.6309193938728, "Tmin_units": "K", "Tmax_value": 3000.0, "Tmax_units": "K", "coeffs": [0.5209498099841658, 0.039762755770429016, -2.1406145636869936e-05, 5.6291996951626315e-09, -5.806863488298974e-13, -61343955.815359086, 22.65699895976629]}]

>  <H298_value>  (2) 
-121899.45329310188

>  <H298_units>  (2) 
kcal/mol

>  <S298_value>  (2) 
73.11930156339947

>  <S298_units>  (2) 
cal/(mol*K)

>  <Cp_T_value_list>  (2) 
[20.663443471560598, 25.802796904286783, 30.70057248897497, 35.13417722844269, 42.27610612073553, 47.54604838399181, 55.761173617687504, 59.943080131597, 62.009669940758435]

>  <Cp_T_units>  (2) 
cal/(mol*K)

>  <T_list>  (2) 
[300.0, 400.0, 500.0, 600.0, 800.0, 1000.0, 1500.0, 2000.0, 2400.0]

>  <T_units>  (2) 
K

>  <yaml_path>  (2) 
/home/calvin/Dropbox/PersonalFolders/Calvin/ZEUS_Converged/rmg_rxn_13887/output/Species/rmg_rxn_13887_p1_CCCO/rmg_rxn_13887_p1_CCCO.yml

>  <frequencies_cm1>  (2) 
[147.21443129015998, 221.70748804151998, 281.96528422451996, 327.68567248508, 495.52852767651996, 773.66203409248, 866.8264239289199, 907.7811243773999, 991.0089864557999, 1085.4025666645198, 1095.06441500976, 1132.10493382584, 1235.87194899636, 1297.47567430208, 1365.5206318379599, 1374.09062951732, 1401.64784160648, 1415.7594964390798, 1471.3065406925598, 1481.4628119808397, 1492.95814540652, 1498.9667575615201, 2976.8724711465998, 2996.07942908664, 3016.6597840906798, 3038.2633199074, 3059.4823045462003, 3086.4558228831597, 3100.9245609523996, 3838.2877106433593]

>  <ZPE_kJmol>  (2) 
283.9578863328584

>  <E_elec_kJmol>  (2) 
-510328.119118259

>  <E0_minus_Eelec_plus_ZPE_kJmol>  (2) 
0.0

>  <rxn>  (2) 
rmg_rxn_13887

>  <species_type>  (2) 
p0

>  <species_folder>  (2) 
rmg_rxn_13887_p1_CCCO

>  <frequencies_cm1_list>  (2) 
[147.21443129015998, 221.70748804151998, 281.96528422451996, 327.68567248508, 495.52852767651996, 773.66203409248, 866.8264239289199, 907.7811243773999, 991.0089864557999, 1085.4025666645198, 1095.06441500976, 1132.10493382584, 1235.87194899636, 1297.47567430208, 1365.5206318379599, 1374.09062951732, 1401.64784160648, 1415.7594964390798, 1471.3065406925598, 1481.4628119808397, 1492.95814540652, 1498.9667575615201, 2976.8724711465998, 2996.07942908664, 3016.6597840906798, 3038.2633199074, 3059.4823045462003, 3086.4558228831597, 3100.9245609523996, 3838.2877106433593]

>  <E0_kJmol>  (2) 
-510044

>  <H298_kJmol>  (2) 
-510027

$$$$

     RDKit          3D

 21 19  0  0  0  0  0  0  0  0999 V2000
    2.9051    0.8077    0.6613 C   0  0  0  0  0  0  0  0  0  1  0  0
    1.9991    0.1889   -0.3935 C   0  0  0  0  0  0  0  0  0  2  0  0
    1.2569   -1.0415    0.1098 C   0  0  0  0  0  0  0  0  0  3  0  0
    0.4391   -0.8045    1.2050 O   0  0  0  0  0  1  0  0  0  4  0  0
    3.6850    0.1061    0.9679 H   0  0  0  0  0  0  0  0  0  5  0  0
    3.3938    1.7079    0.2859 H   0  0  0  0  0  0  0  0  0  6  0  0
    2.3313    1.0764    1.5491 H   0  0  0  0  0  0  0  0  0  7  0  0
    1.2582    0.9209   -0.7284 H   0  0  0  0  0  0  0  0  0  8  0  0
    2.5811   -0.0960   -1.2754 H   0  0  0  0  0  0  0  0  0  9  0  0
    0.6783   -1.5012   -0.7073 H   0  0  0  0  0  0  0  0  0 10  0  0
    1.9689   -1.8144    0.4381 H   0  0  0  0  0  0  0  0  0 11  0  0
   -1.5835   -0.3948   -2.3700 C   0  0  0  0  0  0  0  0  0 12  0  0
   -1.6473   -0.0786   -1.0979 C   0  0  0  0  0  0  0  0  0 13  0  0
   -1.6233    0.1875    0.1532 C   0  0  0  0  0  0  0  0  0 14  0  0
   -2.5152    0.9539    1.0673 C   0  0  0  0  0  0  0  0  0 15  0  0
   -1.0886    0.2544   -3.0831 H   0  0  0  0  0  0  0  0  0 16  0  0
   -2.0415   -1.3022   -2.7458 H   0  0  0  0  0  0  0  0  0 17  0  0
   -0.6486   -0.2925    0.7313 H   0  0  0  0  0  0  0  0  0 18  0  0
   -2.8900    0.3081    1.8629 H   0  0  0  0  0  0  0  0  0 19  0  0
   -3.3635    1.3706    0.5235 H   0  0  0  0  0  0  0  0  0 20  0  0
   -1.9642    1.7694    1.5384 H   0  0  0  0  0  0  0  0  0 21  0  0
  1  7  1  0
  1  5  1  0
  1  6  1  0
  1  2  1  0
  2  8  1  0
  2  3  1  0
  2  9  1  0
  3  4  1  0
  3 11  1  0
  3 10  1  0
 12 17  1  0
 12 16  1  0
 12 13  1  0
 13 14  1  0
 14 15  1  0
 14 18  1  0
 15 20  1  0
 15 19  1  0
 15 21  1  0
M  RAD  1   4   2
M  END
>  <rmg_smiles>  (3) 
CCC[O].[CH2]C[CH]C

>  <rmg_adjacency_list>  (3) 
multiplicity 2
1  O u1 p2 c0 {4,S}
2  C u0 p0 c0 {3,S} {4,S} {9,S} {10,S}
3  C u0 p0 c0 {2,S} {11,S} {12,S} {13,S}
4  C u0 p0 c0 {1,S} {2,S} {14,S} {15,S}
5  C u0 p0 c0 {6,S} {16,S} {17,S} {18,S}
6  C u0 p0 c0 {5,S} {8,S} {19,S}
7  C u0 p0 c0 {8,S} {20,S} {21,S}
8  C u0 p1 c0 {6,S} {7,S}
9  H u0 p0 c0 {2,S}
10 H u0 p0 c0 {2,S}
11 H u0 p0 c0 {3,S}
12 H u0 p0 c0 {3,S}
13 H u0 p0 c0 {3,S}
14 H u0 p0 c0 {4,S}
15 H u0 p0 c0 {4,S}
16 H u0 p0 c0 {5,S}
17 H u0 p0 c0 {5,S}
18 H u0 p0 c0 {5,S}
19 H u0 p0 c0 {6,S}
20 H u0 p0 c0 {7,S}
21 H u0 p0 c0 {7,S}


>  <multiplicity>  (3) 
2

>  <reaction>  (3) 
rmg_rxn_13887

>  <type>  (3) 
ts

>  <role_mapnums>  (3) 
{"*2": 18, "*1": 14, "*3": 4, "*0": 13, "*4": 3}

>  <role_mapidx>  (3) 
{"*2": 17, "*1": 13, "*3": 3, "*0": 12, "*4": 2}

>  <ordered_mapped_smiles>  (3) 
[C:1]([C:2]([C:3]([O:4])([H:10])[H:11])([H:8])[H:9])([H:5])([H:6])[H:7].[CH:12]([CH2:13][CH:14]([C:15]([H:19])([H:20])[H:21])[H:18])([H:16])[H:17]

>  <mol_properties>  (3) 
{"2": {"label": "*4", "atom_type": "Cs"}, "3": {"label": "*3", "atom_type": "O2s"}, "12": {"label": "*0", "atom_type": "C2s"}, "13": {"label": "*1", "atom_type": "Cs"}, "17": {"label": "*2", "atom_type": "H0"}}

>  <level_of_theory>  (3) 
wb97xd/def2tzvp

>  <lot_method>  (3) 
wb97xd

>  <lot_basis>  (3) 
def2tzvp

>  <spin_multiplicity>  (3) 
2.0

>  <optical_isomers>  (3) 
2.0

>  <modes>  (3) 
IdealGasTranslation(mass=(113.097, 'amu')),         NonlinearRotor(             inertia = ([206.201, 482.416, 577.589

>  <frequency_value>  (3) 
-1574.63

>  <frequency_units>  (3) 
cm^-1

>  <frequency_list>  (3) 
unknown

>  <arkane_path>  (3) 
/home/calvin/Dropbox/PersonalFolders/Calvin/ZEUS_Converged/rmg_rxn_13887/output/rxns/TS0/arkane/output.py

>  <path_exists>  (3) 
True

>  <E0_value>  (3) 
-917587.0

>  <E0_units>  (3) 
kJ/mol

>  <thermo_class>  (3) 
unknown

>  <Cp0_value>  (3) 
unknown

>  <Cp0_units>  (3) 
unknown

>  <CpInf_value>  (3) 
unknown

>  <CpInf_units>  (3) 
unknown

>  <Tmin_value>  (3) 
unknown

>  <Tmin_units>  (3) 
unknown

>  <Tmax_value>  (3) 
unknown

>  <Tmax_units>  (3) 
unknown

>  <polynomials>  (3) 
unknown

>  <H298_value>  (3) 
unknown

>  <H298_units>  (3) 
unknown

>  <S298_value>  (3) 
unknown

>  <S298_units>  (3) 
unknown

>  <Cp_T_value_list>  (3) 
unknown

>  <Cp_T_units>  (3) 
unknown

>  <T_list>  (3) 
unknown

>  <T_units>  (3) 
unknown

>  <yaml_path>  (3) 
unknown

>  <frequencies_cm1>  (3) 
unknown

>  <ZPE_kJmol>  (3) 
unknown

>  <E_elec_kJmol>  (3) 
unknown

>  <E0_minus_Eelec_plus_ZPE_kJmol>  (3) 
unknown

>  <rxn>  (3) 
unknown

>  <species_type>  (3) 
unknown

>  <species_folder>  (3) 
unknown

>  <frequencies_cm1_list>  (3) 
[]

>  <ts_imag_freq_cm1>  (3) 
-1593.7554

>  <ts_freq_out_path>  (3) 
/home/calvin/Dropbox/PersonalFolders/Calvin/ZEUS_Converged/rmg_rxn_13887/output/rxns/TS0/geometry/freq.out

>  <E0_kJmol>  (3) 
-917587

>  <H298_kJmol>  (3) 
unknown

$$$$

     RDKit          3D

  9  8  0  0  0  0  0  0  0  0999 V2000
    2.2285    0.1429   -0.1875 C   0  0  0  0  0  0  0  0  0  1  0  0
    0.8689    0.0588   -0.0734 C   0  0  0  0  0  0  0  0  0  2  0  0
   -0.3436   -0.0148    0.0282 C   0  0  0  0  0  3  0  0  0  3  0  0
   -1.7876   -0.1130    0.1500 C   0  0  0  0  0  0  0  0  0  4  0  0
    2.8646    0.0330    0.6803 H   0  0  0  0  0  0  0  0  0  5  0  0
    2.6934    0.3211   -1.1477 H   0  0  0  0  0  0  0  0  0  6  0  0
   -2.1322    0.3380    1.0826 H   0  0  0  0  0  0  0  0  0  7  0  0
   -2.1068   -1.1583    0.1470 H   0  0  0  0  0  0  0  0  0  8  0  0
   -2.2854    0.3923   -0.6795 H   0  0  0  0  0  0  0  0  0  9  0  0
  1  5  1  0
  1  6  1  0
  1  2  1  0
  2  3  1  0
  3  4  1  0
  4  8  1  0
  4  9  1  0
  4  7  1  0
M  RAD  1   3   2
M  END
>  <rmg_smiles>  (4) 
[CH2]C[C]C

>  <rmg_adjacency_list>  (4) 
multiplicity 2
1 C u0 p0 c0 {3,S} {5,S} {6,S} {7,S}
2 C u0 p0 c0 {4,S} {8,S} {9,S}
3 C u1 p1 c0 {1,S} {4,S}
4 C u0 p1 c0 {2,S} {3,S}
5 H u0 p0 c0 {1,S}
6 H u0 p0 c0 {1,S}
7 H u0 p0 c0 {1,S}
8 H u0 p0 c0 {2,S}
9 H u0 p0 c0 {2,S}


>  <multiplicity>  (4) 
2

>  <reaction>  (4) 
rmg_rxn_13887

>  <type>  (4) 
r1

>  <role_mapnums>  (4) 
{}

>  <role_mapidx>  (4) 
{}

>  <ordered_mapped_smiles>  (4) 
[CH:1]([CH2:2][CH:3][C:4]([H:7])([H:8])[H:9])([H:5])[H:6]

>  <level_of_theory>  (4) 
wb97xd/def2tzvp

>  <lot_method>  (4) 
wb97xd

>  <lot_basis>  (4) 
def2tzvp

>  <spin_multiplicity>  (4) 
2.0

>  <optical_isomers>  (4) 
2.0

>  <modes>  (4) 
IdealGasTranslation(mass=(53.0391, 'amu')),         NonlinearRotor(             inertia = ([4.88746, 139.242, 140.992

>  <frequency_value>  (4) 
unknown

>  <frequency_units>  (4) 
unknown

>  <frequency_list>  (4) 
unknown

>  <arkane_path>  (4) 
/home/calvin/Dropbox/PersonalFolders/Calvin/ZEUS_Converged/rmg_rxn_13887/output/Species/rmg_rxn_13887_p2_sbr-CH2-sbrCtCC/arkane/output.py

>  <path_exists>  (4) 
True

>  <E0_value>  (4) 
-407625.4064849041

>  <E0_units>  (4) 
kJ/mol

>  <thermo_class>  (4) 
NASA

>  <Cp0_value>  (4) 
33.257888

>  <Cp0_units>  (4) 
J/(mol*K)

>  <CpInf_value>  (4) 
207.8618

>  <CpInf_units>  (4) 
J/(mol*K)

>  <Tmin_value>  (4) 
10.0

>  <Tmin_units>  (4) 
K

>  <Tmax_value>  (4) 
3000.0

>  <Tmax_units>  (4) 
K

>  <polynomials>  (4) 
[{"name": "polynomial1", "class": "NASAPolynomial", "Tmin_value": 10.0, "Tmin_units": "K", "Tmax_value": 502.0268159976515, "Tmax_units": "K", "coeffs": [3.687270830426517, 0.029053628934412008, -4.470123428186127e-05, 7.503439468745092e-08, -5.158529094876398e-11, -49026010.75493378, 10.46372665339021]}, {"name": "polynomial2", "class": "NASAPolynomial", "Tmin_value": 502.0268159976515, "Tmin_units": "K", "Tmax_value": 3000.0, "Tmax_units": "K", "coeffs": [2.898462070883104, 0.02729908073702909, -1.54375900595206e-05, 4.274702323061024e-09, -4.631616133105543e-13, -49025830.24365362, 14.734719774038638]}]

>  <H298_value>  (4) 
-97420.5979578768

>  <H298_units>  (4) 
kcal/mol

>  <S298_value>  (4) 
76.91244568160063

>  <S298_units>  (4) 
cal/(mol*K)

>  <Cp_T_value_list>  (4) 
[19.848886680568814, 23.127392893703846, 26.219193390336713, 28.980799697634083, 33.49755626219656, 36.90539253248215, 42.11858387906473, 44.77831245492002, 46.14816382733488]

>  <Cp_T_units>  (4) 
cal/(mol*K)

>  <T_list>  (4) 
[300.0, 400.0, 500.0, 600.0, 800.0, 1000.0, 1500.0, 2000.0, 2400.0]

>  <T_units>  (4) 
K

>  <yaml_path>  (4) 
/home/calvin/Dropbox/PersonalFolders/Calvin/ZEUS_Converged/rmg_rxn_13887/output/Species/rmg_rxn_13887_p2_sbr-CH2-sbrCtCC/rmg_rxn_13887_p2_sbr-CH2-sbrCtCC.yml

>  <frequencies_cm1>  (4) 
[24.18552229704, 186.74766577739996, 206.32544092471997, 398.28514856, 428.84323323399997, 670.45124473288, 768.8002084859199, 1023.53102893132, 1025.11730254024, 1044.32426048028, 1244.297739984, 1401.51050190008, 1455.78715386936, 1460.16829050352, 1460.7931861676398, 2137.33544687936, 3007.2588811876003, 3071.0325738544398, 3085.0961597897995, 3128.557309880079, 3222.30539346872]

>  <ZPE_kJmol>  (4) 
182.1360065892337

>  <E_elec_kJmol>  (4) 
-407807.5424914933

>  <E0_minus_Eelec_plus_ZPE_kJmol>  (4) 
0.0

>  <rxn>  (4) 
rmg_rxn_13887

>  <species_type>  (4) 
p1

>  <species_folder>  (4) 
rmg_rxn_13887_p2_sbr-CH2-sbrCtCC

>  <frequencies_cm1_list>  (4) 
[24.18552229704, 186.74766577739996, 206.32544092471997, 398.28514856, 428.84323323399997, 670.45124473288, 768.8002084859199, 1023.53102893132, 1025.11730254024, 1044.32426048028, 1244.297739984, 1401.51050190008, 1455.78715386936, 1460.16829050352, 1460.7931861676398, 2137.33544687936, 3007.2588811876003, 3071.0325738544398, 3085.0961597897995, 3128.557309880079, 3222.30539346872]

>  <E0_kJmol>  (4) 
-407625

>  <H298_kJmol>  (4) 
-407608

$$$$

     RDKit          3D

 11 10  0  0  0  0  0  0  0  0999 V2000
   -1.2230    0.3768   -0.0849 C   0  0  0  0  0  0  0  0  0  1  0  0
   -0.0734   -0.5533    0.2746 C   0  0  0  0  0  0  0  0  0  2  0  0
   -0.0853   -1.8426   -0.5372 C   0  0  0  0  0  0  0  0  0  3  0  0
    0.0319   -1.6944   -1.8815 O   0  0  0  0  0  1  0  0  0  4  0  0
   -2.1874   -0.0885    0.1341 H   0  0  0  0  0  0  0  0  0  5  0  0
   -1.1670    1.3099    0.4765 H   0  0  0  0  0  0  0  0  0  6  0  0
   -1.2014    0.6189   -1.1483 H   0  0  0  0  0  0  0  0  0  7  0  0
    0.8834   -0.0518    0.1071 H   0  0  0  0  0  0  0  0  0  8  0  0
   -0.1104   -0.8149    1.3362 H   0  0  0  0  0  0  0  0  0  9  0  0
    0.6767   -2.5604   -0.1861 H   0  0  0  0  0  0  0  0  0 10  0  0
   -1.0401   -2.3871   -0.3877 H   0  0  0  0  0  0  0  0  0 11  0  0
  1  5  1  0
  1  7  1  0
  1  6  1  0
  1  2  1  0
  2  9  1  0
  2  8  1  0
  2  3  1  0
  3 11  1  0
  3  4  1  0
  3 10  1  0
M  RAD  1   4   2
M  END
>  <rmg_smiles>  (5) 
CCC[O]

>  <rmg_adjacency_list>  (5) 
multiplicity 2
1  O u1 p2 c0 {4,S}
2  C u0 p0 c0 {3,S} {4,S} {5,S} {6,S}
3  C u0 p0 c0 {2,S} {7,S} {8,S} {9,S}
4  C u0 p0 c0 {1,S} {2,S} {10,S} {11,S}
5  H u0 p0 c0 {2,S}
6  H u0 p0 c0 {2,S}
7  H u0 p0 c0 {3,S}
8  H u0 p0 c0 {3,S}
9  H u0 p0 c0 {3,S}
10 H u0 p0 c0 {4,S}
11 H u0 p0 c0 {4,S}


>  <multiplicity>  (5) 
2

>  <reaction>  (5) 
rmg_rxn_13887

>  <type>  (5) 
r2

>  <role_mapnums>  (5) 
{}

>  <role_mapidx>  (5) 
{}

>  <ordered_mapped_smiles>  (5) 
[C:1]([C:2]([C:3]([O:4])([H:10])[H:11])([H:8])[H:9])([H:5])([H:6])[H:7]

>  <level_of_theory>  (5) 
wb97xd/def2tzvp

>  <lot_method>  (5) 
wb97xd

>  <lot_basis>  (5) 
def2tzvp

>  <spin_multiplicity>  (5) 
2.0

>  <optical_isomers>  (5) 
2.0

>  <modes>  (5) 
IdealGasTranslation(mass=(59.0497, 'amu')),         NonlinearRotor(             inertia = ([32.4351, 96.9472, 113.933

>  <frequency_value>  (5) 
unknown

>  <frequency_units>  (5) 
unknown

>  <frequency_list>  (5) 
unknown

>  <arkane_path>  (5) 
/home/calvin/Dropbox/PersonalFolders/Calvin/ZEUS_Converged/rmg_rxn_13887/output/Species/rmg_rxn_13887_r1_CCCsbr-O-sbr/arkane/output.py

>  <path_exists>  (5) 
True

>  <E0_value>  (5) 
-508312.776816168

>  <E0_units>  (5) 
kJ/mol

>  <thermo_class>  (5) 
NASA

>  <Cp0_value>  (5) 
33.257888

>  <Cp0_units>  (5) 
J/(mol*K)

>  <CpInf_value>  (5) 
257.748632

>  <CpInf_units>  (5) 
J/(mol*K)

>  <Tmin_value>  (5) 
10.0

>  <Tmin_units>  (5) 
K

>  <Tmax_value>  (5) 
3000.0

>  <Tmax_units>  (5) 
K

>  <polynomials>  (5) 
[{"name": "polynomial1", "class": "NASAPolynomial", "Tmin_value": 10.0, "Tmin_units": "K", "Tmax_value": 785.3716584362714, "Tmax_units": "K", "coeffs": [3.872427529480499, 0.012020698495689092, 4.544202932401844e-05, -6.564451027924457e-08, 2.6869476869302686e-11, -61135905.343969196, 9.973124693490796]}, {"name": "polynomial2", "class": "NASAPolynomial", "Tmin_value": 785.3716584362714, "Tmin_units": "K", "Tmax_value": 3000.0, "Tmax_units": "K", "coeffs": [0.684974724216813, 0.037501344205135234, -2.0884236761723293e-05, 5.647801085067134e-09, -5.962581640436549e-13, -61135689.844054565, 22.765167584811888]}]

>  <H298_value>  (5) 
-121485.75019145291

>  <H298_units>  (5) 
kcal/mol

>  <S298_value>  (5) 
73.74225739173865

>  <S298_units>  (5) 
cal/(mol*K)

>  <Cp_T_value_list>  (5) 
[19.899211646277756, 24.71695706623378, 29.245842528852666, 33.27984099906972, 39.67971546039624, 44.42126909610337, 51.64795406637226, 55.23041864286215, 57.00855166885003]

>  <Cp_T_units>  (5) 
cal/(mol*K)

>  <T_list>  (5) 
[300.0, 400.0, 500.0, 600.0, 800.0, 1000.0, 1500.0, 2000.0, 2400.0]

>  <T_units>  (5) 
K

>  <yaml_path>  (5) 
/home/calvin/Dropbox/PersonalFolders/Calvin/ZEUS_Converged/rmg_rxn_13887/output/Species/rmg_rxn_13887_r1_CCCsbr-O-sbr/rmg_rxn_13887_r1_CCCsbr-O-sbr.yml

>  <frequencies_cm1>  (5) 
[137.93713412284, 222.36671863223998, 308.28643895607996, 429.70160639899996, 504.1397272677999, 783.2964144964401, 869.12686401112, 973.4157700659599, 995.0261728679999, 1094.40518441904, 1104.0052298964, 1206.5018527827199, 1284.0026491042397, 1339.0209354880799, 1351.92400090436, 1370.7120727398797, 1408.8169742805599, 1470.9906593678397, 1485.0061764059599, 1493.1984898927199, 2865.86078646348, 2916.58720702232, 3013.99539378652, 3016.570513281519, 3055.2591085743998, 3086.8403740610793, 3099.85331124248]

>  <ZPE_kJmol>  (5) 
244.5577291513973

>  <E_elec_kJmol>  (5) 
-508557.3345453194

>  <E0_minus_Eelec_plus_ZPE_kJmol>  (5) 
0.0

>  <rxn>  (5) 
rmg_rxn_13887

>  <species_type>  (5) 
r0

>  <species_folder>  (5) 
rmg_rxn_13887_r1_CCCsbr-O-sbr

>  <frequencies_cm1_list>  (5) 
[137.93713412284, 222.36671863223998, 308.28643895607996, 429.70160639899996, 504.1397272677999, 783.2964144964401, 869.12686401112, 973.4157700659599, 995.0261728679999, 1094.40518441904, 1104.0052298964, 1206.5018527827199, 1284.0026491042397, 1339.0209354880799, 1351.92400090436, 1370.7120727398797, 1408.8169742805599, 1470.9906593678397, 1485.0061764059599, 1493.1984898927199, 2865.86078646348, 2916.58720702232, 3013.99539378652, 3016.570513281519, 3055.2591085743998, 3086.8403740610793, 3099.85331124248]

>  <E0_kJmol>  (5) 
-508313

>  <H298_kJmol>  (5) 
-508296

$$$$
