
     RDKit          3D

 14 14  0  0  0  0  0  0  0  0999 V2000
    1.1980   -0.7149   -0.4054 C   0  0  0  0  0  0  0  0  0  1  0  0
    0.6786   -0.7065    1.0098 C   0  0  0  0  0  0  0  0  0  2  0  0
   -0.7007   -0.4891    1.0601 O   0  0  0  0  0  0  0  0  0  3  0  0
   -1.0695    0.6784    0.3752 C   0  0  0  0  0  0  0  0  0  4  0  0
   -0.7072    0.6508   -0.9686 O   0  0  0  0  0  0  0  0  0  5  0  0
    0.6945    0.5354   -1.1228 C   0  0  0  0  0  0  0  0  0  6  0  0
    2.2891   -0.7508   -0.4142 H   0  0  0  0  0  0  0  0  0  7  0  0
    0.8197   -1.5980   -0.9262 H   0  0  0  0  0  0  0  0  0  8  0  0
    0.7930   -1.7128    1.4323 H   0  0  0  0  0  0  0  0  0  9  0  0
    1.2223   -0.0367    1.6880 H   0  0  0  0  0  0  0  0  0 10  0  0
   -0.6045    1.5498    0.8685 H   0  0  0  0  0  0  0  0  0 11  0  0
   -2.1543    0.7470    0.4194 H   0  0  0  0  0  0  0  0  0 12  0  0
    1.1855    1.4305   -0.7134 H   0  0  0  0  0  0  0  0  0 13  0  0
    0.8892    0.4956   -2.1940 H   0  0  0  0  0  0  0  0  0 14  0  0
  1  8  1  0
  1  7  1  0
  1  6  1  0
  1  2  1  0
  2 10  1  0
  2  9  1  0
  2  3  1  0
  3  4  1  0
  4 11  1  0
  4 12  1  0
  4  5  1  0
  5  6  1  0
  6 14  1  0
  6 13  1  0
M  END
>  <rmg_smiles>  (1) 
C1COCOC1

>  <rmg_adjacency_list>  (1) 
1  O u0 p2 c0 {4,S} {6,S}
2  O u0 p2 c0 {5,S} {6,S}
3  C u0 p0 c0 {4,S} {5,S} {7,S} {8,S}
4  C u0 p0 c0 {1,S} {3,S} {9,S} {10,S}
5  C u0 p0 c0 {2,S} {3,S} {11,S} {12,S}
6  C u0 p0 c0 {1,S} {2,S} {13,S} {14,S}
7  H u0 p0 c0 {3,S}
8  H u0 p0 c0 {3,S}
9  H u0 p0 c0 {4,S}
10 H u0 p0 c0 {4,S}
11 H u0 p0 c0 {5,S}
12 H u0 p0 c0 {5,S}
13 H u0 p0 c0 {6,S}
14 H u0 p0 c0 {6,S}


>  <multiplicity>  (1) 
1

>  <reaction>  (1) 
rmg_rxn_257

>  <type>  (1) 
r1h

>  <role_mapnums>  (1) 
{"r1h_a": 2, "r1h_h": 9}

>  <role_mapidx>  (1) 
{"r1h_a": 1, "r1h_h": 8}

>  <ordered_mapped_smiles>  (1) 
[C:1]1([H:7])([H:8])[C:2]([H:9])([H:10])[O:3][C:4]([H:11])([H:12])[O:5][C:6]1([H:13])[H:14]

>  <mol_properties>  (1) 
{"1": {"label": "donator", "atom_type": "Cs"}, "8": {"label": "d_hydrogen", "atom_type": "H0"}}

>  <level_of_theory>  (1) 
wb97xd/def2tzvp

>  <lot_method>  (1) 
wb97xd

>  <lot_basis>  (1) 
def2tzvp

>  <spin_multiplicity>  (1) 
1.0

>  <optical_isomers>  (1) 
1.0

>  <modes>  (1) 
IdealGasTranslation(mass=(88.0524, 'amu')),         NonlinearRotor(             inertia = ([100.123, 103.988, 181.806

>  <frequency_value>  (1) 
unknown

>  <frequency_units>  (1) 
unknown

>  <frequency_list>  (1) 
unknown

>  <arkane_path>  (1) 
/home/calvin/Dropbox/PersonalFolders/Calvin/ATLAS_Converged/rmg_rxn_257/output/Species/rmg_rxn_257_r1_C1COCOC1/arkane/output.py

>  <path_exists>  (1) 
True

>  <E0_value>  (1) 
-807534.4862541369

>  <E0_units>  (1) 
kJ/mol

>  <thermo_class>  (1) 
NASA

>  <Cp0_value>  (1) 
33.257888

>  <Cp0_units>  (1) 
J/(mol*K)

>  <CpInf_value>  (1) 
332.57888

>  <CpInf_units>  (1) 
J/(mol*K)

>  <Tmin_value>  (1) 
10.0

>  <Tmin_units>  (1) 
K

>  <Tmax_value>  (1) 
3000.0

>  <Tmax_units>  (1) 
K

>  <polynomials>  (1) 
[{"name": "polynomial1", "class": "NASAPolynomial", "Tmin_value": 10.0, "Tmin_units": "K", "Tmax_value": 635.616554573151, "Tmax_units": "K", "coeffs": [4.089858497697602, -0.00720848048360332, 0.00016188875003168496, -2.401508213073996e-07, 1.1440937882219611e-10, -97123964.81365098, 9.940070949440356]}, {"name": "polynomial2", "class": "NASAPolynomial", "Tmin_value": 635.616554573151, "Tmin_units": "K", "Tmax_value": 3000.0, "Tmax_units": "K", "coeffs": [-3.6233751272420895, 0.05886750722676344, -3.5427870905530145e-05, 1.0209382893823142e-08, -1.1338653155444558e-12, -97123338.5127768, 40.87012283464024]}]

>  <H298_value>  (1) 
-193001.58453999052

>  <H298_units>  (1) 
kcal/mol

>  <S298_value>  (1) 
72.30963326519604

>  <S298_units>  (1) 
cal/(mol*K)

>  <Cp_T_value_list>  (1) 
[21.739931113059615, 29.14813400113705, 35.94765005011551, 41.73053828287379, 50.792135881792035, 57.413930600437965, 66.93239440365458, 71.40703402864166, 73.74460734469625]

>  <Cp_T_units>  (1) 
cal/(mol*K)

>  <T_list>  (1) 
[300.0, 400.0, 500.0, 600.0, 800.0, 1000.0, 1500.0, 2000.0, 2400.0]

>  <T_units>  (1) 
K

>  <yaml_path>  (1) 
/home/calvin/Dropbox/PersonalFolders/Calvin/ATLAS_Converged/rmg_rxn_257/output/Species/rmg_rxn_257_r1_C1COCOC1/rmg_rxn_257_r1_C1COCOC1.yml

>  <frequencies_cm1>  (1) 
[264.26219606955993, 269.44676998615995, 439.22611503784, 466.70779028847994, 494.62208561427997, 656.81341188736, 851.50617968, 900.41284912904, 919.12538412604, 926.80954069912, 1013.8966485273598, 1037.6289497932798, 1094.57685905204, 1112.95291176836, 1188.75069573052, 1216.28730686372, 1226.8487302858798, 1252.366447735, 1315.55644664964, 1328.3633742714399, 1363.72148168412, 1380.93701388136, 1404.8272558096398, 1432.53554157584, 1460.95799381532, 1489.42164796672, 1490.0946125280798, 1506.58911126672, 2894.63345495428, 2944.5289702893997, 2950.530715459079, 3031.06671929204, 3080.8454958767197, 3088.2893079635996, 3091.87387430064, 3110.9160245929997]

>  <ZPE_kJmol>  (1) 
321.1850391352071

>  <E_elec_kJmol>  (1) 
-807855.671293272

>  <E0_minus_Eelec_plus_ZPE_kJmol>  (1) 
0.0

>  <rxn>  (1) 
rmg_rxn_257

>  <species_type>  (1) 
r0

>  <species_folder>  (1) 
rmg_rxn_257_r1_C1COCOC1

>  <frequencies_cm1_list>  (1) 
[264.26219606955993, 269.44676998615995, 439.22611503784, 466.70779028847994, 494.62208561427997, 656.81341188736, 851.50617968, 900.41284912904, 919.12538412604, 926.80954069912, 1013.8966485273598, 1037.6289497932798, 1094.57685905204, 1112.95291176836, 1188.75069573052, 1216.28730686372, 1226.8487302858798, 1252.366447735, 1315.55644664964, 1328.3633742714399, 1363.72148168412, 1380.93701388136, 1404.8272558096398, 1432.53554157584, 1460.95799381532, 1489.42164796672, 1490.0946125280798, 1506.58911126672, 2894.63345495428, 2944.5289702893997, 2950.530715459079, 3031.06671929204, 3080.8454958767197, 3088.2893079635996, 3091.87387430064, 3110.9160245929997]

>  <E0_kJmol>  (1) 
-807534

>  <H298_kJmol>  (1) 
-807519

$$$$

     RDKit          3D

 14 13  0  0  0  0  0  0  0  0999 V2000
    0.9558    2.5018    0.5619 H   0  0  0  0  0  0  0  0  0  1  0  0
    0.8979    1.4661    0.8957 C   0  0  0  0  0  0  0  0  0  2  0  0
    0.1566    0.7151   -0.1782 C   0  0  0  0  0  0  0  0  0  3  0  0
   -0.1529   -0.7356    0.1971 C   0  0  0  0  0  0  0  0  0  4  0  0
   -0.9005   -1.4799   -0.9014 C   0  0  0  0  0  0  0  0  0  5  0  0
    1.9347    1.1640    1.0425 H   0  0  0  0  0  0  0  0  0  6  0  0
    0.3634    1.5502    1.8412 H   0  0  0  0  0  0  0  0  0  7  0  0
    0.7408    0.7222   -1.1045 H   0  0  0  0  0  0  0  0  0  8  0  0
   -0.7805    1.2353   -0.4007 H   0  0  0  0  0  0  0  0  0  9  0  0
    0.7823   -1.2557    0.4258 H   0  0  0  0  0  0  0  0  0 10  0  0
   -0.7432   -0.7466    1.1182 H   0  0  0  0  0  0  0  0  0 11  0  0
   -0.3154   -1.5076   -1.8238 H   0  0  0  0  0  0  0  0  0 12  0  0
   -1.8507   -0.9907   -1.1276 H   0  0  0  0  0  0  0  0  0 13  0  0
   -1.1150   -2.5097   -0.6110 H   0  0  0  0  0  0  0  0  0 14  0  0
  1  2  1  0
  2  7  1  0
  2  6  1  0
  2  3  1  0
  3  4  1  0
  3  8  1  0
  3  9  1  0
  4  5  1  0
  4 10  1  0
  4 11  1  0
  5 12  1  0
  5 14  1  0
  5 13  1  0
M  END
>  <rmg_smiles>  (2) 
CCCC

>  <rmg_adjacency_list>  (2) 
1  C u0 p0 c0 {2,S} {3,S} {5,S} {6,S}
2  C u0 p0 c0 {1,S} {4,S} {7,S} {8,S}
3  C u0 p0 c0 {1,S} {9,S} {10,S} {11,S}
4  C u0 p0 c0 {2,S} {12,S} {13,S} {14,S}
5  H u0 p0 c0 {1,S}
6  H u0 p0 c0 {1,S}
7  H u0 p0 c0 {2,S}
8  H u0 p0 c0 {2,S}
9  H u0 p0 c0 {3,S}
10 H u0 p0 c0 {3,S}
11 H u0 p0 c0 {3,S}
12 H u0 p0 c0 {4,S}
13 H u0 p0 c0 {4,S}
14 H u0 p0 c0 {4,S}


>  <multiplicity>  (2) 
1

>  <reaction>  (2) 
rmg_rxn_257

>  <type>  (2) 
r2h

>  <role_mapnums>  (2) 
{"r2h_a": 2, "r2h_h": 1}

>  <role_mapidx>  (2) 
{"r2h_a": 1, "r2h_h": 0}

>  <ordered_mapped_smiles>  (2) 
[H:1][C:2]([C:3]([C:4]([C:5]([H:12])([H:13])[H:14])([H:10])[H:11])([H:8])[H:9])([H:6])[H:7]

>  <mol_properties>  (2) 
{"0": {"label": "a_hydrogen", "atom_type": "H0"}, "1": {"label": "acceptor", "atom_type": "Cs"}}

>  <level_of_theory>  (2) 
wb97xd/def2tzvp

>  <lot_method>  (2) 
wb97xd

>  <lot_basis>  (2) 
def2tzvp

>  <spin_multiplicity>  (2) 
1.0

>  <optical_isomers>  (2) 
1.0

>  <modes>  (2) 
IdealGasTranslation(mass=(58.0782, 'amu')),         NonlinearRotor(             inertia = ([21.4183, 138.436, 147.416

>  <frequency_value>  (2) 
unknown

>  <frequency_units>  (2) 
unknown

>  <frequency_list>  (2) 
unknown

>  <arkane_path>  (2) 
/home/calvin/Dropbox/PersonalFolders/Calvin/ATLAS_Converged/rmg_rxn_257/output/Species/rmg_rxn_257_p2_CCCC/arkane/output.py

>  <path_exists>  (2) 
True

>  <E0_value>  (2) 
-415711.4770347972

>  <E0_units>  (2) 
kJ/mol

>  <thermo_class>  (2) 
NASA

>  <Cp0_value>  (2) 
33.257888

>  <Cp0_units>  (2) 
J/(mol*K)

>  <CpInf_value>  (2) 
332.57888

>  <CpInf_units>  (2) 
J/(mol*K)

>  <Tmin_value>  (2) 
10.0

>  <Tmin_units>  (2) 
K

>  <Tmax_value>  (2) 
3000.0

>  <Tmax_units>  (2) 
K

>  <polynomials>  (2) 
[{"name": "polynomial1", "class": "NASAPolynomial", "Tmin_value": 10.0, "Tmin_units": "K", "Tmax_value": 1025.0239672813746, "Tmax_units": "K", "coeffs": [3.915013592071844, 0.015190476507378274, 4.499566831623061e-05, -5.4452087887537436e-08, 1.803189229500368e-11, -49998546.31449076, 7.728184054699678]}, {"name": "polynomial2", "class": "NASAPolynomial", "Tmin_value": 1025.0239672813746, "Tmin_units": "K", "Tmax_value": 3000.0, "Tmax_units": "K", "coeffs": [0.8557434606866323, 0.04413202068529884, -2.2238982520549216e-05, 5.4598853249734095e-09, -5.274578153178241e-13, -49998812.39100051, 18.205832942846666]}]

>  <H298_value>  (2) 
-99353.185245995

>  <H298_units>  (2) 
kcal/mol

>  <S298_value>  (2) 
71.76251802442486

>  <S298_units>  (2) 
cal/(mol*K)

>  <Cp_T_value_list>  (2) 
[22.251980571284225, 28.1531399049666, 33.94079391323614, 39.35269474865459, 48.430242634303475, 55.007789274879656, 65.12656285712895, 70.35428852741721, 72.83851882766015]

>  <Cp_T_units>  (2) 
cal/(mol*K)

>  <T_list>  (2) 
[300.0, 400.0, 500.0, 600.0, 800.0, 1000.0, 1500.0, 2000.0, 2400.0]

>  <T_units>  (2) 
K

>  <yaml_path>  (2) 
/home/calvin/Dropbox/PersonalFolders/Calvin/ATLAS_Converged/rmg_rxn_257/output/Species/rmg_rxn_257_p2_CCCC/rmg_rxn_257_p2_CCCC.yml

>  <frequencies_cm1>  (2) 
[117.85806904715999, 224.50921805207997, 259.37290252171994, 260.8081024536, 427.68957970024, 733.9639919575599, 810.5171443049198, 844.8383369342799, 959.6886664112799, 978.69648177704, 1024.40313606696, 1072.73297874912, 1166.6664709414, 1201.7086970293599, 1282.4438434365998, 1315.46030885516, 1324.99168447932, 1392.23320473276, 1403.41265683372, 1404.42210367576, 1477.30828586224, 1478.9082934418, 1485.02677736192, 1486.84652847172, 1491.0285225316, 1497.33241505536, 2994.3077468740794, 3001.82022881416, 3007.36875295272, 3008.254594059, 3019.68125763148, 3041.7654824206, 3075.78452769588, 3079.10128160544, 3084.83521434764, 3085.5356468502796]

>  <ZPE_kJmol>  (2) 
344.05401570070524

>  <E_elec_kJmol>  (2) 
-416055.5310504979

>  <E0_minus_Eelec_plus_ZPE_kJmol>  (2) 
0.0

>  <rxn>  (2) 
rmg_rxn_257

>  <species_type>  (2) 
p1

>  <species_folder>  (2) 
rmg_rxn_257_p2_CCCC

>  <frequencies_cm1_list>  (2) 
[117.85806904715999, 224.50921805207997, 259.37290252171994, 260.8081024536, 427.68957970024, 733.9639919575599, 810.5171443049198, 844.8383369342799, 959.6886664112799, 978.69648177704, 1024.40313606696, 1072.73297874912, 1166.6664709414, 1201.7086970293599, 1282.4438434365998, 1315.46030885516, 1324.99168447932, 1392.23320473276, 1403.41265683372, 1404.42210367576, 1477.30828586224, 1478.9082934418, 1485.02677736192, 1486.84652847172, 1491.0285225316, 1497.33241505536, 2994.3077468740794, 3001.82022881416, 3007.36875295272, 3008.254594059, 3019.68125763148, 3041.7654824206, 3075.78452769588, 3079.10128160544, 3084.83521434764, 3085.5356468502796]

>  <E0_kJmol>  (2) 
-415711

>  <H298_kJmol>  (2) 
-415694

$$$$

     RDKit          3D

 27 26  0  0  0  0  0  0  0  0999 V2000
    1.2570    1.0070   -0.8762 C   0  0  0  0  0  0  0  0  0  1  0  0
    0.7376    1.0154    0.5389 C   0  0  0  0  0  0  0  0  0  2  0  0
   -0.6417    1.2328    0.5893 O   0  0  0  0  0  0  0  0  0  3  0  0
   -1.0106    2.4003   -0.0957 C   0  0  0  0  0  0  0  0  0  4  0  0
   -0.6482    2.3727   -1.4394 O   0  0  0  0  0  0  0  0  0  5  0  0
    0.7534    2.2573   -1.5936 C   0  0  0  0  0  0  0  0  0  6  0  0
    2.3481    0.9711   -0.8851 H   0  0  0  0  0  0  0  0  0  7  0  0
    0.8787    0.1239   -1.3971 H   0  0  0  0  0  0  0  0  0  8  0  0
    0.8768   -0.2091    1.0531 H   0  0  0  0  0  0  0  0  0  9  0  0
    1.2813    1.6852    1.2171 H   0  0  0  0  0  0  0  0  0 10  0  0
   -0.5455    3.2717    0.3977 H   0  0  0  0  0  0  0  0  0 11  0  0
   -2.0953    2.4689   -0.0514 H   0  0  0  0  0  0  0  0  0 12  0  0
    1.2445    3.1525   -1.1842 H   0  0  0  0  0  0  0  0  0 13  0  0
    0.9481    2.2175   -2.6648 H   0  0  0  0  0  0  0  0  0 14  0  0
    0.8054   -1.4890    1.4655 C   0  0  0  0  0  3  0  0  0 15  0  0
    0.0640   -2.2400    0.3916 C   0  0  0  0  0  0  0  0  0 16  0  0
   -0.2455   -3.6907    0.7669 C   0  0  0  0  0  0  0  0  0 17  0  0
   -0.9931   -4.4350   -0.3316 C   0  0  0  0  0  0  0  0  0 18  0  0
    1.8421   -1.7911    1.6123 H   0  0  0  0  0  0  0  0  0 19  0  0
    0.2708   -1.4049    2.4110 H   0  0  0  0  0  0  0  0  0 20  0  0
    0.6482   -2.2329   -0.5347 H   0  0  0  0  0  0  0  0  0 21  0  0
   -0.8731   -1.7198    0.1691 H   0  0  0  0  0  0  0  0  0 22  0  0
    0.6897   -4.2108    0.9956 H   0  0  0  0  0  0  0  0  0 23  0  0
   -0.8357   -3.7018    1.6880 H   0  0  0  0  0  0  0  0  0 24  0  0
   -0.4080   -4.4627   -1.2539 H   0  0  0  0  0  0  0  0  0 25  0  0
   -1.9433   -3.9458   -0.5578 H   0  0  0  0  0  0  0  0  0 26  0  0
   -1.2075   -5.4648   -0.0412 H   0  0  0  0  0  0  0  0  0 27  0  0
  1  7  1  0
  1  8  1  0
  1  6  1  0
  1  2  1  0
  2  3  1  0
  2 10  1  0
  2  9  1  0
  3  4  1  0
  4 11  1  0
  4  5  1  0
  4 12  1  0
  5  6  1  0
  6 13  1  0
  6 14  1  0
 15 20  1  0
 15 16  1  0
 15 19  1  0
 16 21  1  0
 16 22  1  0
 16 17  1  0
 17 18  1  0
 17 23  1  0
 17 24  1  0
 18 25  1  0
 18 27  1  0
 18 26  1  0
M  RAD  1  15   2
M  END
>  <rmg_smiles>  (3) 
C1COCOC1.[CH2]CCC

>  <rmg_adjacency_list>  (3) 
multiplicity 2
1  O u0 p2 c0 {6,S} {9,S}
2  O u0 p2 c0 {7,S} {9,S}
3  C u0 p0 c0 {6,S} {7,S} {11,S} {12,S}
4  C u0 p0 c0 {5,S} {8,S} {13,S} {14,S}
5  C u0 p0 c0 {4,S} {10,S} {15,S} {16,S}
6  C u0 p0 c0 {1,S} {3,S} {17,S} {18,S}
7  C u0 p0 c0 {2,S} {3,S} {19,S} {20,S}
8  C u0 p0 c0 {4,S} {21,S} {22,S} {23,S}
9  C u0 p0 c0 {1,S} {2,S} {24,S} {25,S}
10 C u1 p0 c0 {5,S} {26,S} {27,S}
11 H u0 p0 c0 {3,S}
12 H u0 p0 c0 {3,S}
13 H u0 p0 c0 {4,S}
14 H u0 p0 c0 {4,S}
15 H u0 p0 c0 {5,S}
16 H u0 p0 c0 {5,S}
17 H u0 p0 c0 {6,S}
18 H u0 p0 c0 {6,S}
19 H u0 p0 c0 {7,S}
20 H u0 p0 c0 {7,S}
21 H u0 p0 c0 {8,S}
22 H u0 p0 c0 {8,S}
23 H u0 p0 c0 {8,S}
24 H u0 p0 c0 {9,S}
25 H u0 p0 c0 {9,S}
26 H u0 p0 c0 {10,S}
27 H u0 p0 c0 {10,S}


>  <multiplicity>  (3) 
2

>  <reaction>  (3) 
rmg_rxn_257

>  <type>  (3) 
ts

>  <role_mapnums>  (3) 
{"*2": 9, "*1": 2, "*3": 15, "*0": 3, "*4": 16}

>  <role_mapidx>  (3) 
{"*2": 8, "*1": 1, "*3": 14, "*0": 2, "*4": 15}

>  <ordered_mapped_smiles>  (3) 
[C:1]1([H:7])([H:8])[C:2]([H:9])([H:10])[O:3][C:4]([H:11])([H:12])[O:5][C:6]1([H:13])[H:14].[C:15]([C:16]([C:17]([C:18]([H:25])([H:26])[H:27])([H:23])[H:24])([H:21])[H:22])([H:19])[H:20]

>  <mol_properties>  (3) 
{"1": {"label": "*1", "atom_type": "Cs"}, "2": {"label": "*0", "atom_type": "O2s"}, "8": {"label": "*2", "atom_type": "H0"}, "14": {"label": "*3", "atom_type": "Cs"}, "15": {"label": "*4", "atom_type": "Cs"}}

>  <level_of_theory>  (3) 
wb97xd/def2tzvp

>  <lot_method>  (3) 
wb97xd

>  <lot_basis>  (3) 
def2tzvp

>  <spin_multiplicity>  (3) 
2.0

>  <optical_isomers>  (3) 
2.0

>  <modes>  (3) 
IdealGasTranslation(mass=(145.123, 'amu')),         NonlinearRotor(             inertia = ([215.855, 1031.26, 1054.61

>  <frequency_value>  (3) 
-1739.58

>  <frequency_units>  (3) 
cm^-1

>  <frequency_list>  (3) 
unknown

>  <arkane_path>  (3) 
/home/calvin/Dropbox/PersonalFolders/Calvin/ATLAS_Converged/rmg_rxn_257/output/rxns/TS0/arkane/output.py

>  <path_exists>  (3) 
True

>  <E0_value>  (3) 
-1221460.0

>  <E0_units>  (3) 
kJ/mol

>  <thermo_class>  (3) 
unknown

>  <Cp0_value>  (3) 
unknown

>  <Cp0_units>  (3) 
unknown

>  <CpInf_value>  (3) 
unknown

>  <CpInf_units>  (3) 
unknown

>  <Tmin_value>  (3) 
unknown

>  <Tmin_units>  (3) 
unknown

>  <Tmax_value>  (3) 
unknown

>  <Tmax_units>  (3) 
unknown

>  <polynomials>  (3) 
unknown

>  <H298_value>  (3) 
unknown

>  <H298_units>  (3) 
unknown

>  <S298_value>  (3) 
unknown

>  <S298_units>  (3) 
unknown

>  <Cp_T_value_list>  (3) 
unknown

>  <Cp_T_units>  (3) 
unknown

>  <T_list>  (3) 
unknown

>  <T_units>  (3) 
unknown

>  <yaml_path>  (3) 
unknown

>  <frequencies_cm1>  (3) 
unknown

>  <ZPE_kJmol>  (3) 
unknown

>  <E_elec_kJmol>  (3) 
unknown

>  <E0_minus_Eelec_plus_ZPE_kJmol>  (3) 
unknown

>  <rxn>  (3) 
unknown

>  <species_type>  (3) 
unknown

>  <species_folder>  (3) 
unknown

>  <frequencies_cm1_list>  (3) 
[]

>  <ts_imag_freq_cm1>  (3) 
-1760.7116

>  <ts_freq_out_path>  (3) 
/home/calvin/Dropbox/PersonalFolders/Calvin/ATLAS_Converged/rmg_rxn_257/output/rxns/TS0/geometry/freq.out

>  <E0_kJmol>  (3) 
-1.22146e+06

>  <H298_kJmol>  (3) 
unknown

$$$$

     RDKit          3D

 13 13  0  0  0  0  0  0  0  0999 V2000
   -0.9087    1.0135    0.2744 C   0  0  0  0  0  3  0  0  0  1  0  0
   -1.1528   -0.4306   -0.0132 C   0  0  0  0  0  0  0  0  0  2  0  0
    0.1597   -1.1985    0.0580 C   0  0  0  0  0  0  0  0  0  3  0  0
    1.1497   -0.5125   -0.6902 O   0  0  0  0  0  0  0  0  0  4  0  0
    1.3593    0.7608   -0.1866 C   0  0  0  0  0  0  0  0  0  5  0  0
    0.2092    1.5798   -0.2538 O   0  0  0  0  0  0  0  0  0  6  0  0
   -1.7260    1.7182    0.3534 H   0  0  0  0  0  0  0  0  0  7  0  0
   -1.8796   -0.8393    0.6913 H   0  0  0  0  0  0  0  0  0  8  0  0
   -1.5725   -0.5507   -1.0227 H   0  0  0  0  0  0  0  0  0  9  0  0
    0.4914   -1.2968    1.1007 H   0  0  0  0  0  0  0  0  0 10  0  0
    0.0732   -2.1931   -0.3758 H   0  0  0  0  0  0  0  0  0 11  0  0
    1.6805    0.7077    0.8652 H   0  0  0  0  0  0  0  0  0 12  0  0
    2.1167    1.2415   -0.8007 H   0  0  0  0  0  0  0  0  0 13  0  0
  1  6  1  0
  1  7  1  0
  1  2  1  0
  2  9  1  0
  2  8  1  0
  2  3  1  0
  3 11  1  0
  3  4  1  0
  3 10  1  0
  4  5  1  0
  5 13  1  0
  5  6  1  0
  5 12  1  0
M  RAD  1   1   2
M  END
>  <rmg_smiles>  (4) 
[CH]1CCOCO1

>  <rmg_adjacency_list>  (4) 
multiplicity 2
1  O u0 p2 c0 {4,S} {5,S}
2  O u0 p2 c0 {5,S} {6,S}
3  C u0 p0 c0 {4,S} {6,S} {7,S} {8,S}
4  C u0 p0 c0 {1,S} {3,S} {9,S} {10,S}
5  C u0 p0 c0 {1,S} {2,S} {11,S} {12,S}
6  C u1 p0 c0 {2,S} {3,S} {13,S}
7  H u0 p0 c0 {3,S}
8  H u0 p0 c0 {3,S}
9  H u0 p0 c0 {4,S}
10 H u0 p0 c0 {4,S}
11 H u0 p0 c0 {5,S}
12 H u0 p0 c0 {5,S}
13 H u0 p0 c0 {6,S}


>  <multiplicity>  (4) 
2

>  <reaction>  (4) 
rmg_rxn_257

>  <type>  (4) 
r1

>  <role_mapnums>  (4) 
{}

>  <role_mapidx>  (4) 
{}

>  <ordered_mapped_smiles>  (4) 
[C:1]1([H:7])[C:2]([H:8])([H:9])[C:3]([H:10])([H:11])[O:4][C:5]([H:12])([H:13])[O:6]1

>  <level_of_theory>  (4) 
wb97xd/def2tzvp

>  <lot_method>  (4) 
wb97xd

>  <lot_basis>  (4) 
def2tzvp

>  <spin_multiplicity>  (4) 
2.0

>  <optical_isomers>  (4) 
2.0

>  <modes>  (4) 
IdealGasTranslation(mass=(87.0446, 'amu')),         NonlinearRotor(             inertia = ([96.9848, 100.571, 180.326

>  <frequency_value>  (4) 
unknown

>  <frequency_units>  (4) 
unknown

>  <frequency_list>  (4) 
unknown

>  <arkane_path>  (4) 
/home/calvin/Dropbox/PersonalFolders/Calvin/ATLAS_Converged/rmg_rxn_257/output/Species/rmg_rxn_257_p1_sbr-CH-sbr1CCOCO1/arkane/output.py

>  <path_exists>  (4) 
True

>  <E0_value>  (4) 
-805827.3421493819

>  <E0_units>  (4) 
kJ/mol

>  <thermo_class>  (4) 
NASA

>  <Cp0_value>  (4) 
33.257888

>  <Cp0_units>  (4) 
J/(mol*K)

>  <CpInf_value>  (4) 
307.635464

>  <CpInf_units>  (4) 
J/(mol*K)

>  <Tmin_value>  (4) 
10.0

>  <Tmin_units>  (4) 
K

>  <Tmax_value>  (4) 
3000.0

>  <Tmax_units>  (4) 
K

>  <polynomials>  (4) 
[{"name": "polynomial1", "class": "NASAPolynomial", "Tmin_value": 10.0, "Tmin_units": "K", "Tmax_value": 594.5881445366083, "Tmax_units": "K", "coeffs": [4.0448110838926565, -0.004287247298286005, 0.0001561678296055211, -2.5056792670345e-07, 1.28608989510542e-10, -96918641.31425966, 11.310846190181683]}, {"name": "polynomial2", "class": "NASAPolynomial", "Tmin_value": 594.5881445366083, "Tmin_units": "K", "Tmax_value": 3000.0, "Tmax_units": "K", "coeffs": [-2.0223142792396813, 0.05358769196829288, -3.287284368824778e-05, 9.64252563065185e-09, -1.0874709432735165e-12, -96918221.37894577, 34.89119071361758]}]

>  <H298_value>  (4) 
-192593.46110107773

>  <H298_units>  (4) 
kcal/mol

>  <S298_value>  (4) 
75.62180337642914

>  <S298_units>  (4) 
cal/(mol*K)

>  <Cp_T_value_list>  (4) 
[22.038399005889005, 28.959178246137498, 35.09449573071628, 40.21693905885679, 48.29063691328946, 54.14658537653456, 62.464910648605866, 66.37739659151993, 68.47747700545682]

>  <Cp_T_units>  (4) 
cal/(mol*K)

>  <T_list>  (4) 
[300.0, 400.0, 500.0, 600.0, 800.0, 1000.0, 1500.0, 2000.0, 2400.0]

>  <T_units>  (4) 
K

>  <yaml_path>  (4) 
/home/calvin/Dropbox/PersonalFolders/Calvin/ATLAS_Converged/rmg_rxn_257/output/Species/rmg_rxn_257_p1_sbr-CH-sbr1CCOCO1/rmg_rxn_257_p1_sbr-CH-sbr1CCOCO1.yml

>  <frequencies_cm1>  (4) 
[225.5461328354, 251.49647035968, 410.99593838732, 475.95761951452, 495.8306750306, 591.7830609069599, 728.8686888501201, 860.14484721256, 919.0292463315599, 933.8413336668, 1002.5523887787199, 1034.68988007632, 1061.81447209032, 1129.37187366848, 1164.5789074041202, 1229.20410625064, 1259.04115746604, 1263.30555534976, 1323.45347976764, 1354.19010605996, 1364.1609687445998, 1410.3689129628801, 1445.48667588936, 1452.1064497378397, 1489.32551017224, 1505.45605868892, 2941.13667954132, 2947.4199711091196, 2972.12051730516, 3065.6282564076, 3096.83183770168, 3120.1177849217997, 3169.457074446]

>  <ZPE_kJmol>  (4) 
285.28140433887154

>  <E_elec_kJmol>  (4) 
-806112.6235537208

>  <E0_minus_Eelec_plus_ZPE_kJmol>  (4) 
0.0

>  <rxn>  (4) 
rmg_rxn_257

>  <species_type>  (4) 
p0

>  <species_folder>  (4) 
rmg_rxn_257_p1_sbr-CH-sbr1CCOCO1

>  <frequencies_cm1_list>  (4) 
[225.5461328354, 251.49647035968, 410.99593838732, 475.95761951452, 495.8306750306, 591.7830609069599, 728.8686888501201, 860.14484721256, 919.0292463315599, 933.8413336668, 1002.5523887787199, 1034.68988007632, 1061.81447209032, 1129.37187366848, 1164.5789074041202, 1229.20410625064, 1259.04115746604, 1263.30555534976, 1323.45347976764, 1354.19010605996, 1364.1609687445998, 1410.3689129628801, 1445.48667588936, 1452.1064497378397, 1489.32551017224, 1505.45605868892, 2941.13667954132, 2947.4199711091196, 2972.12051730516, 3065.6282564076, 3096.83183770168, 3120.1177849217997, 3169.457074446]

>  <E0_kJmol>  (4) 
-805827

>  <H298_kJmol>  (4) 
-805811

$$$$

     RDKit          3D

 13 12  0  0  0  0  0  0  0  0999 V2000
    2.0654   -0.2739   -0.0844 C   0  0  0  0  0  3  0  0  0  1  0  0
    0.6326   -0.4110   -0.4406 C   0  0  0  0  0  0  0  0  0  2  0  0
   -0.3055    0.4151    0.4359 C   0  0  0  0  0  0  0  0  0  3  0  0
   -1.7714    0.2357    0.0671 C   0  0  0  0  0  0  0  0  0  4  0  0
    2.3610    0.0676    0.8995 H   0  0  0  0  0  0  0  0  0  5  0  0
    2.8408   -0.6127   -0.7582 H   0  0  0  0  0  0  0  0  0  6  0  0
    0.3313   -1.4695   -0.3768 H   0  0  0  0  0  0  0  0  0  7  0  0
    0.4826   -0.1432   -1.4940 H   0  0  0  0  0  0  0  0  0  8  0  0
   -0.1518    0.1351    1.4826 H   0  0  0  0  0  0  0  0  0  9  0  0
   -0.0303    1.4705    0.3565 H   0  0  0  0  0  0  0  0  0 10  0  0
   -2.0768   -0.8084    0.1692 H   0  0  0  0  0  0  0  0  0 11  0  0
   -1.9546    0.5339   -0.9679 H   0  0  0  0  0  0  0  0  0 12  0  0
   -2.4194    0.8370    0.7066 H   0  0  0  0  0  0  0  0  0 13  0  0
  1  5  1  0
  1  6  1  0
  1  2  1  0
  2  8  1  0
  2  7  1  0
  2  3  1  0
  3  4  1  0
  3  9  1  0
  3 10  1  0
  4 13  1  0
  4 12  1  0
  4 11  1  0
M  RAD  1   1   2
M  END
>  <rmg_smiles>  (5) 
[CH2]CCC

>  <rmg_adjacency_list>  (5) 
multiplicity 2
1  C u0 p0 c0 {2,S} {3,S} {5,S} {6,S}
2  C u0 p0 c0 {1,S} {4,S} {7,S} {8,S}
3  C u0 p0 c0 {1,S} {9,S} {10,S} {11,S}
4  C u1 p0 c0 {2,S} {12,S} {13,S}
5  H u0 p0 c0 {1,S}
6  H u0 p0 c0 {1,S}
7  H u0 p0 c0 {2,S}
8  H u0 p0 c0 {2,S}
9  H u0 p0 c0 {3,S}
10 H u0 p0 c0 {3,S}
11 H u0 p0 c0 {3,S}
12 H u0 p0 c0 {4,S}
13 H u0 p0 c0 {4,S}


>  <multiplicity>  (5) 
2

>  <reaction>  (5) 
rmg_rxn_257

>  <type>  (5) 
r2

>  <role_mapnums>  (5) 
{}

>  <role_mapidx>  (5) 
{}

>  <ordered_mapped_smiles>  (5) 
[C:1]([C:2]([C:3]([C:4]([H:11])([H:12])[H:13])([H:9])[H:10])([H:7])[H:8])([H:5])[H:6]

>  <level_of_theory>  (5) 
wb97xd/def2tzvp

>  <lot_method>  (5) 
wb97xd

>  <lot_basis>  (5) 
def2tzvp

>  <spin_multiplicity>  (5) 
2.0

>  <optical_isomers>  (5) 
2.0

>  <modes>  (5) 
IdealGasTranslation(mass=(57.0704, 'amu')),         NonlinearRotor(             inertia = ([19.9061, 131.501, 141.822

>  <frequency_value>  (5) 
unknown

>  <frequency_units>  (5) 
unknown

>  <frequency_list>  (5) 
unknown

>  <arkane_path>  (5) 
/home/calvin/Dropbox/PersonalFolders/Calvin/ATLAS_Converged/rmg_rxn_257/output/Species/rmg_rxn_257_r2_sbr-CH2-sbrCCC/arkane/output.py

>  <path_exists>  (5) 
True

>  <E0_value>  (5) 
-413980.515065041

>  <E0_units>  (5) 
kJ/mol

>  <thermo_class>  (5) 
NASA

>  <Cp0_value>  (5) 
33.257888

>  <Cp0_units>  (5) 
J/(mol*K)

>  <CpInf_value>  (5) 
307.635464

>  <CpInf_units>  (5) 
J/(mol*K)

>  <Tmin_value>  (5) 
10.0

>  <Tmin_units>  (5) 
K

>  <Tmax_value>  (5) 
3000.0

>  <Tmax_units>  (5) 
K

>  <polynomials>  (5) 
[{"name": "polynomial1", "class": "NASAPolynomial", "Tmin_value": 10.0, "Tmin_units": "K", "Tmax_value": 1154.93799035051, "Tmax_units": "K", "coeffs": [3.8608583449208367, 0.02312895427514024, 1.718157563784362e-05, -2.653261595233422e-08, 8.598323666501713e-12, -49790358.451797806, 9.98302976614612]}, {"name": "polynomial2", "class": "NASAPolynomial", "Tmin_value": 1154.93799035051, "Tmin_units": "K", "Tmax_value": 3000.0, "Tmax_units": "K", "coeffs": [5.006671859828862, 0.03390757519761412, -1.5970386346220703e-05, 3.659460065945614e-09, -3.3024942479245143e-13, -49791606.659514256, 0.032118084025620754]}]

>  <H298_value>  (5) 
-98939.19157782634

>  <H298_units>  (5) 
kcal/mol

>  <S298_value>  (5) 
78.32957530726806

>  <S298_units>  (5) 
cal/(mol*K)

>  <Cp_T_value_list>  (5) 
[23.248631358892137, 28.583028071211853, 33.66635358076252, 38.36678892872091, 46.296753040816824, 52.13852768190894, 60.835257561392275, 65.44261811889302, 67.61851586744878]

>  <Cp_T_units>  (5) 
cal/(mol*K)

>  <T_list>  (5) 
[300.0, 400.0, 500.0, 600.0, 800.0, 1000.0, 1500.0, 2000.0, 2400.0]

>  <T_units>  (5) 
K

>  <yaml_path>  (5) 
/home/calvin/Dropbox/PersonalFolders/Calvin/ATLAS_Converged/rmg_rxn_257/output/Species/rmg_rxn_257_r2_sbr-CH2-sbrCCC/rmg_rxn_257_r2_sbr-CH2-sbrCCC.yml

>  <frequencies_cm1>  (5) 
[73.35313718823998, 132.16886645403997, 238.64147384063997, 264.99696349879997, 431.39775177304, 467.79277396904, 728.50473862816, 827.3275243682799, 860.37832471344, 963.38310451344, 1040.3208080387199, 1067.46600100868, 1094.96141022996, 1160.5617209919199, 1239.42904739212, 1306.10747484932, 1314.7118074552798, 1388.4151608948398, 1404.06502043912, 1451.2686775288, 1453.0952956239198, 1480.39842925624, 1485.157250083, 1493.0199482744, 2921.4421656435597, 2989.1849758253597, 3008.40566773604, 3009.2159720037994, 3044.3474689009204, 3079.04634572288, 3088.11076634528, 3121.2096355876797, 3223.96720391616]

>  <ZPE_kJmol>  (5) 
304.16171338229066

>  <E_elec_kJmol>  (5) 
-414284.6767784233

>  <E0_minus_Eelec_plus_ZPE_kJmol>  (5) 
0.0

>  <rxn>  (5) 
rmg_rxn_257

>  <species_type>  (5) 
r1

>  <species_folder>  (5) 
rmg_rxn_257_r2_sbr-CH2-sbrCCC

>  <frequencies_cm1_list>  (5) 
[73.35313718823998, 132.16886645403997, 238.64147384063997, 264.99696349879997, 431.39775177304, 467.79277396904, 728.50473862816, 827.3275243682799, 860.37832471344, 963.38310451344, 1040.3208080387199, 1067.46600100868, 1094.96141022996, 1160.5617209919199, 1239.42904739212, 1306.10747484932, 1314.7118074552798, 1388.4151608948398, 1404.06502043912, 1451.2686775288, 1453.0952956239198, 1480.39842925624, 1485.157250083, 1493.0199482744, 2921.4421656435597, 2989.1849758253597, 3008.40566773604, 3009.2159720037994, 3044.3474689009204, 3079.04634572288, 3088.11076634528, 3121.2096355876797, 3223.96720391616]

>  <E0_kJmol>  (5) 
-413981

>  <H298_kJmol>  (5) 
-413962

$$$$
