
     RDKit          3D

 14 13  0  0  0  0  0  0  0  0999 V2000
    2.0958   -0.2243   -0.0484 C   0  0  0  0  0  0  0  0  0  1  0  0
    1.1958   -1.0971    0.3828 C   0  0  0  0  0  0  0  0  0  2  0  0
   -0.1388   -1.1150    0.1482 O   0  0  0  0  0  0  0  0  0  3  0  0
   -0.6582   -0.2139   -0.7972 C   0  0  0  0  0  0  0  0  0  4  0  0
   -0.6516    1.1114   -0.3636 O   0  0  0  0  0  0  0  0  0  5  0  0
   -1.5067    1.3785    0.6929 C   0  0  0  0  0  0  0  0  0  6  0  0
    1.8447    0.6499   -0.6311 H   0  0  0  0  0  0  0  0  0  7  0  0
    3.1315   -0.3811    0.2157 H   0  0  0  0  0  0  0  0  0  8  0  0
    1.4699   -1.9397    1.0063 H   0  0  0  0  0  0  0  0  0  9  0  0
   -1.6781   -0.5585   -0.9810 H   0  0  0  0  0  0  0  0  0 10  0  0
   -0.0546   -0.2374   -1.7076 H   0  0  0  0  0  0  0  0  0 11  0  0
   -2.5337    1.3662    0.3301 H   0  0  0  0  0  0  0  0  0 12  0  0
   -1.4726    0.6339    1.4903 H   0  0  0  0  0  0  0  0  0 13  0  0
   -1.3346    2.3926    1.0444 H   0  0  0  0  0  0  0  0  0 14  0  0
  1  8  1  0
  1  7  1  0
  1  2  1  0
  2  9  1  0
  2  3  1  0
  3  4  1  0
  4 10  1  0
  4 11  1  0
  4  5  1  0
  5  6  1  0
  6 14  1  0
  6 13  1  0
  6 12  1  0
M  END
>  <rmg_smiles>  (1) 
[CH2][CH]OCOC

>  <rmg_adjacency_list>  (1) 
1  O u0 p2 c0 {3,S} {4,S}
2  O u0 p2 c0 {3,S} {5,S}
3  C u0 p0 c0 {1,S} {2,S} {7,S} {8,S}
4  C u0 p0 c0 {1,S} {9,S} {10,S} {11,S}
5  C u0 p0 c0 {2,S} {6,S} {12,S}
6  C u0 p0 c0 {5,S} {13,S} {14,S}
7  H u0 p0 c0 {3,S}
8  H u0 p0 c0 {3,S}
9  H u0 p0 c0 {4,S}
10 H u0 p0 c0 {4,S}
11 H u0 p0 c0 {4,S}
12 H u0 p0 c0 {5,S}
13 H u0 p0 c0 {6,S}
14 H u0 p0 c0 {6,S}


>  <multiplicity>  (1) 
1

>  <reaction>  (1) 
rmg_rxn_15671

>  <type>  (1) 
r1h

>  <role_mapnums>  (1) 
{"r1h_a": 6, "r1h_h": 12}

>  <role_mapidx>  (1) 
{"r1h_a": 5, "r1h_h": 11}

>  <ordered_mapped_smiles>  (1) 
[CH:1]([CH:2]([O:3][C:4]([O:5][C:6]([H:12])([H:13])[H:14])([H:10])[H:11])[H:9])([H:7])[H:8]

>  <mol_properties>  (1) 
{"5": {"label": "donator", "atom_type": "Cs"}, "11": {"label": "d_hydrogen", "atom_type": "H0"}}

>  <level_of_theory>  (1) 
wb97xd/def2tzvp

>  <lot_method>  (1) 
wb97xd

>  <lot_basis>  (1) 
def2tzvp

>  <spin_multiplicity>  (1) 
1.0

>  <optical_isomers>  (1) 
2.0

>  <modes>  (1) 
IdealGasTranslation(mass=(88.0524, 'amu')),         NonlinearRotor(inertia=([74.6, 207.265, 226.772

>  <frequency_value>  (1) 
unknown

>  <frequency_units>  (1) 
unknown

>  <frequency_list>  (1) 
unknown

>  <arkane_path>  (1) 
/home/calvin/Dropbox/PersonalFolders/Calvin/ZEUS_Converged/rmg_rxn_15671/output/Species/rmg_rxn_15671_r2_C=COCOC/arkane/output.py

>  <path_exists>  (1) 
True

>  <E0_value>  (1) 
-807464.8692775278

>  <E0_units>  (1) 
kJ/mol

>  <thermo_class>  (1) 
NASA

>  <Cp0_value>  (1) 
33.257888

>  <Cp0_units>  (1) 
J/(mol*K)

>  <CpInf_value>  (1) 
332.57888

>  <CpInf_units>  (1) 
J/(mol*K)

>  <Tmin_value>  (1) 
10.0

>  <Tmin_units>  (1) 
K

>  <Tmax_value>  (1) 
3000.0

>  <Tmax_units>  (1) 
K

>  <polynomials>  (1) 
[{"name": "polynomial1", "class": "NASAPolynomial", "Tmin_value": 10.0, "Tmin_units": "K", "Tmax_value": 1126.325395573665, "Tmax_units": "K", "coeffs": [3.8695029423973812, 0.028498299453807118, 1.7022190512316403e-05, -3.0641801015141055e-08, 1.0501484226634505e-11, -97115598.3407524, 10.801996699490312]}, {"name": "polynomial2", "class": "NASAPolynomial", "Tmin_value": 1126.325395573665, "Tmin_units": "K", "Tmax_value": 3000.0, "Tmax_units": "K", "coeffs": [6.683476251086028, 0.03655855886471113, -1.7755481766857817e-05, 4.174057536267347e-09, -3.850184221734767e-13, -97117377.38643233, -8.192141503345525]}]

>  <H298_value>  (1) 
-192983.75417154783

>  <H298_units>  (1) 
kcal/mol

>  <S298_value>  (1) 
83.1559197898133

>  <S298_units>  (1) 
cal/(mol*K)

>  <Cp_T_value_list>  (1) 
[26.248460849789986, 32.39173610071906, 38.15499662016311, 43.39827396248086, 52.01542874587051, 58.12514653655066, 66.98827209332843, 71.56096034637841, 73.68686249171367]

>  <Cp_T_units>  (1) 
cal/(mol*K)

>  <T_list>  (1) 
[300.0, 400.0, 500.0, 600.0, 800.0, 1000.0, 1500.0, 2000.0, 2400.0]

>  <T_units>  (1) 
K

>  <yaml_path>  (1) 
/home/calvin/Dropbox/PersonalFolders/Calvin/ZEUS_Converged/rmg_rxn_15671/output/Species/rmg_rxn_15671_r2_C=COCOC/rmg_rxn_15671_r2_C=COCOC.yml

>  <frequencies_cm1>  (1) 
[74.04670270556, 138.48649294843997, 165.9063653312, 221.56328134979998, 286.20908115227996, 409.34786191051995, 520.22907387256, 668.65896156436, 725.4145952341601, 872.38868203812, 904.47123745316, 964.57795995912, 1001.1995926706799, 1023.65463466708, 1124.2216346784799, 1173.32057971648, 1192.9807586876398, 1223.72425196528, 1242.86254005212, 1330.47153876468, 1353.0501864968398, 1415.64275768864, 1444.00340706024, 1470.2558919386001, 1478.18039299788, 1491.75642297552, 1501.1229909519998, 1698.26040551856, 2978.5205476233996, 2998.82622321464, 3051.1320503970796, 3063.76730338588, 3117.3572568231602, 3151.1908934947996, 3170.4459203320794, 3245.9552909107997]

>  <ZPE_kJmol>  (1) 
310.3903764968326

>  <E_elec_kJmol>  (1) 
-807775.2596540246

>  <E0_minus_Eelec_plus_ZPE_kJmol>  (1) 
0.0

>  <rxn>  (1) 
rmg_rxn_15671

>  <species_type>  (1) 
r1

>  <species_folder>  (1) 
rmg_rxn_15671_r2_C=COCOC

>  <frequencies_cm1_list>  (1) 
[74.04670270556, 138.48649294843997, 165.9063653312, 221.56328134979998, 286.20908115227996, 409.34786191051995, 520.22907387256, 668.65896156436, 725.4145952341601, 872.38868203812, 904.47123745316, 964.57795995912, 1001.1995926706799, 1023.65463466708, 1124.2216346784799, 1173.32057971648, 1192.9807586876398, 1223.72425196528, 1242.86254005212, 1330.47153876468, 1353.0501864968398, 1415.64275768864, 1444.00340706024, 1470.2558919386001, 1478.18039299788, 1491.75642297552, 1501.1229909519998, 1698.26040551856, 2978.5205476233996, 2998.82622321464, 3051.1320503970796, 3063.76730338588, 3117.3572568231602, 3151.1908934947996, 3170.4459203320794, 3245.9552909107997]

>  <E0_kJmol>  (1) 
-807465

>  <H298_kJmol>  (1) 
-807444

$$$$

     RDKit          3D

  9  8  0  0  0  0  0  0  0  0999 V2000
    0.2508    1.6451   -0.2543 C   0  0  0  0  0  0  0  0  0  1  0  0
   -0.3123    0.4910    0.2793 O   0  0  0  0  0  0  0  0  0  2  0  0
    0.2568   -0.6298   -0.2802 N   0  0  0  0  0  0  0  0  0  3  0  0
   -0.2017   -1.6951    0.2217 C   0  0  0  0  0  0  0  0  0  4  0  0
    0.3441    1.6157   -1.3400 H   0  0  0  0  0  0  0  0  0  5  0  0
   -0.3079    2.4968    0.1240 H   0  0  0  0  0  0  0  0  0  6  0  0
    0.1955   -2.6226   -0.1680 H   0  0  0  0  0  0  0  0  0  7  0  0
   -0.9553   -1.6965    1.0057 H   0  0  0  0  0  0  0  0  0  8  0  0
    1.2659    1.7356    0.1273 H   0  0  0  0  0  0  0  0  0  9  0  0
  1  6  1  0
  1  5  1  0
  1  9  1  0
  1  2  1  0
  2  3  1  0
  3  4  1  0
  4  8  1  0
  4  7  1  0
M  END
>  <rmg_smiles>  (2) 
CO[N][CH2]

>  <rmg_adjacency_list>  (2) 
1 O u0 p2 c0 {2,S} {3,S}
2 N u0 p1 c0 {1,S} {4,S}
3 C u0 p0 c0 {1,S} {5,S} {6,S} {7,S}
4 C u0 p0 c0 {2,S} {8,S} {9,S}
5 H u0 p0 c0 {3,S}
6 H u0 p0 c0 {3,S}
7 H u0 p0 c0 {3,S}
8 H u0 p0 c0 {4,S}
9 H u0 p0 c0 {4,S}


>  <multiplicity>  (2) 
1

>  <reaction>  (2) 
rmg_rxn_15671

>  <type>  (2) 
r2h

>  <role_mapnums>  (2) 
{"r2h_a": 1, "r2h_h": 9}

>  <role_mapidx>  (2) 
{"r2h_a": 0, "r2h_h": 8}

>  <ordered_mapped_smiles>  (2) 
[C:1]([O:2][NH:3][CH:4]([H:7])[H:8])([H:5])([H:6])[H:9]

>  <mol_properties>  (2) 
{"0": {"label": "acceptor", "atom_type": "Cs"}, "8": {"label": "a_hydrogen", "atom_type": "H0"}}

>  <level_of_theory>  (2) 
wb97xd/def2tzvp

>  <lot_method>  (2) 
wb97xd

>  <lot_basis>  (2) 
def2tzvp

>  <spin_multiplicity>  (2) 
1.0

>  <optical_isomers>  (2) 
1.0

>  <modes>  (2) 
IdealGasTranslation(mass=(59.0371, 'amu')),         NonlinearRotor(             inertia = ([11.9742, 101.538, 110.304

>  <frequency_value>  (2) 
unknown

>  <frequency_units>  (2) 
unknown

>  <frequency_list>  (2) 
unknown

>  <arkane_path>  (2) 
/home/calvin/Dropbox/PersonalFolders/Calvin/ZEUS_Converged/rmg_rxn_15671/output/Species/rmg_rxn_15671_p1_CON=C/arkane/output.py

>  <path_exists>  (2) 
True

>  <E0_value>  (2) 
-548882.9200394232

>  <E0_units>  (2) 
kJ/mol

>  <thermo_class>  (2) 
NASA

>  <Cp0_value>  (2) 
33.257888

>  <Cp0_units>  (2) 
J/(mol*K)

>  <CpInf_value>  (2) 
207.8618

>  <CpInf_units>  (2) 
J/(mol*K)

>  <Tmin_value>  (2) 
10.0

>  <Tmin_units>  (2) 
K

>  <Tmax_value>  (2) 
3000.0

>  <Tmax_units>  (2) 
K

>  <polynomials>  (2) 
[{"name": "polynomial1", "class": "NASAPolynomial", "Tmin_value": 10.0, "Tmin_units": "K", "Tmax_value": 1066.0445442103917, "Tmax_units": "K", "coeffs": [3.9488472240731216, 0.012909444164008412, 1.8432835387873368e-05, -2.5565901414715004e-08, 8.632634293818456e-12, -66015370.98001154, 7.906058800048573]}, {"name": "polynomial2", "class": "NASAPolynomial", "Tmin_value": 1066.0445442103917, "Tmin_units": "K", "Tmax_value": 3000.0, "Tmax_units": "K", "coeffs": [4.051174026649639, 0.02340322367340144, -1.163838712217072e-05, 2.8112466199843713e-09, -2.6680947262736413e-13, -66016010.897278614, 4.506810904924114]}]

>  <H298_value>  (2) 
-131182.46582067996

>  <H298_units>  (2) 
kcal/mol

>  <S298_value>  (2) 
69.27397375028742

>  <S298_units>  (2) 
cal/(mol*K)

>  <Cp_T_value_list>  (2) 
[17.607207323409234, 21.157104611048137, 24.5530891366924, 27.67560467885903, 32.827861850696166, 36.480858050170255, 41.94371504002133, 44.76201379304356, 46.08804102499818]

>  <Cp_T_units>  (2) 
cal/(mol*K)

>  <T_list>  (2) 
[300.0, 400.0, 500.0, 600.0, 800.0, 1000.0, 1500.0, 2000.0, 2400.0]

>  <T_units>  (2) 
K

>  <yaml_path>  (2) 
/home/calvin/Dropbox/PersonalFolders/Calvin/ZEUS_Converged/rmg_rxn_15671/output/Species/rmg_rxn_15671_p1_CON=C/rmg_rxn_15671_p1_CON=C.yml

>  <frequencies_cm1>  (2) 
[119.61601728907998, 180.59484693068, 346.29520270228, 574.9726808436, 796.6046320465999, 891.08061607916, 982.9746136314, 1126.32979917172, 1169.7222794088, 1171.7686410341598, 1237.71230106212, 1418.12173938916, 1456.2266409298397, 1467.4060930307999, 1493.1160860688801, 1708.0183916582798, 3005.45973103376, 3077.28153049564, 3083.54422110748, 3121.53925088304, 3213.405780494]

>  <ZPE_kJmol>  (2) 
189.2599943319938

>  <E_elec_kJmol>  (2) 
-549072.1800337551

>  <E0_minus_Eelec_plus_ZPE_kJmol>  (2) 
0.0

>  <rxn>  (2) 
rmg_rxn_15671

>  <species_type>  (2) 
p0

>  <species_folder>  (2) 
rmg_rxn_15671_p1_CON=C

>  <frequencies_cm1_list>  (2) 
[119.61601728907998, 180.59484693068, 346.29520270228, 574.9726808436, 796.6046320465999, 891.08061607916, 982.9746136314, 1126.32979917172, 1169.7222794088, 1171.7686410341598, 1237.71230106212, 1418.12173938916, 1456.2266409298397, 1467.4060930307999, 1493.1160860688801, 1708.0183916582798, 3005.45973103376, 3077.28153049564, 3083.54422110748, 3121.53925088304, 3213.405780494]

>  <E0_kJmol>  (2) 
-548883

>  <H298_kJmol>  (2) 
-548867

$$$$

     RDKit          3D

 22 20  0  0  0  0  0  0  0  0999 V2000
   -2.3325    1.4227   -0.2495 C   0  0  0  0  0  3  0  0  0  1  0  0
   -2.8955    0.2686    0.2841 O   0  0  0  0  0  0  0  0  0  2  0  0
   -2.3264   -0.8522   -0.2754 N   0  0  0  0  0  0  0  0  0  3  0  0
   -2.7850   -1.9176    0.2265 C   0  0  0  0  0  0  0  0  0  4  0  0
   -2.2391    1.3932   -1.3352 H   0  0  0  0  0  0  0  0  0  5  0  0
   -2.8911    2.2743    0.1288 H   0  0  0  0  0  0  0  0  0  6  0  0
   -2.3877   -2.8451   -0.1632 H   0  0  0  0  0  0  0  0  0  7  0  0
   -3.5385   -1.9189    1.0105 H   0  0  0  0  0  0  0  0  0  8  0  0
    3.8181   -0.0511   -0.0618 C   0  0  0  0  0  0  0  0  0  9  0  0
    2.9181   -0.9239    0.3694 C   0  0  0  0  0  0  0  0  0 10  0  0
    1.5835   -0.9418    0.1348 O   0  0  0  0  0  0  0  0  0 11  0  0
    1.0641   -0.0407   -0.8106 C   0  0  0  0  0  0  0  0  0 12  0  0
    1.0706    1.2846   -0.3770 O   0  0  0  0  0  0  0  0  0 13  0  0
    0.2156    1.5517    0.6795 C   0  0  0  0  0  0  0  0  0 14  0  0
    3.5670    0.8231   -0.6445 H   0  0  0  0  0  0  0  0  0 15  0  0
    4.8537   -0.2079    0.2023 H   0  0  0  0  0  0  0  0  0 16  0  0
    3.1922   -1.7665    0.9929 H   0  0  0  0  0  0  0  0  0 17  0  0
    0.0441   -0.3853   -0.9943 H   0  0  0  0  0  0  0  0  0 18  0  0
    1.6677   -0.0642   -1.7209 H   0  0  0  0  0  0  0  0  0 19  0  0
   -1.0554    1.5364    0.2305 H   0  0  0  0  0  0  0  0  0 20  0  0
    0.2497    0.8071    1.4769 H   0  0  0  0  0  0  0  0  0 21  0  0
    0.3876    2.5658    1.0310 H   0  0  0  0  0  0  0  0  0 22  0  0
  1  2  1  0
  1  5  1  0
  1  6  1  0
  2  3  1  0
  3  4  1  0
  4  7  1  0
  4  8  1  0
  9 16  1  0
  9 15  1  0
  9 10  1  0
 10 11  1  0
 10 17  1  0
 11 12  1  0
 12 19  1  0
 12 13  1  0
 12 18  1  0
 13 14  1  0
 14 20  1  0
 14 22  1  0
 14 21  1  0
M  RAD  1   1   2
M  END
>  <rmg_smiles>  (3) 
COCO[CH][CH2].[CH2]O[N][CH2]

>  <rmg_adjacency_list>  (3) 
multiplicity 2
1  O u0 p2 c0 {5,S} {6,S}
2  O u0 p2 c0 {5,S} {7,S}
3  O u0 p2 c0 {4,S} {9,S}
4  N u0 p1 c0 {3,S} {10,S}
5  C u0 p0 c0 {1,S} {2,S} {11,S} {12,S}
6  C u0 p0 c0 {1,S} {13,S} {14,S} {15,S}
7  C u0 p0 c0 {2,S} {8,S} {16,S}
8  C u0 p0 c0 {7,S} {17,S} {18,S}
9  C u1 p0 c0 {3,S} {19,S} {20,S}
10 C u0 p0 c0 {4,S} {21,S} {22,S}
11 H u0 p0 c0 {5,S}
12 H u0 p0 c0 {5,S}
13 H u0 p0 c0 {6,S}
14 H u0 p0 c0 {6,S}
15 H u0 p0 c0 {6,S}
16 H u0 p0 c0 {7,S}
17 H u0 p0 c0 {8,S}
18 H u0 p0 c0 {8,S}
19 H u0 p0 c0 {9,S}
20 H u0 p0 c0 {9,S}
21 H u0 p0 c0 {10,S}
22 H u0 p0 c0 {10,S}


>  <multiplicity>  (3) 
2

>  <reaction>  (3) 
rmg_rxn_15671

>  <type>  (3) 
ts

>  <role_mapnums>  (3) 
{"*2": 20, "*1": 14, "*3": 1, "*0": 13, "*4": 2}

>  <role_mapidx>  (3) 
{"*2": 19, "*1": 13, "*3": 0, "*0": 12, "*4": 1}

>  <ordered_mapped_smiles>  (3) 
[C:1]([O:2][NH:3][CH:4]([H:7])[H:8])([H:5])[H:6].[CH:9]([CH:10]([O:11][C:12]([O:13][C:14]([H:20])([H:21])[H:22])([H:18])[H:19])[H:17])([H:15])[H:16]

>  <mol_properties>  (3) 
{"0": {"label": "*3", "atom_type": "Cs"}, "1": {"label": "*4", "atom_type": "O2s"}, "12": {"label": "*0", "atom_type": "O2s"}, "13": {"label": "*1", "atom_type": "Cs"}, "19": {"label": "*2", "atom_type": "H0"}}

>  <level_of_theory>  (3) 
wb97xd/def2tzvp

>  <lot_method>  (3) 
wb97xd

>  <lot_basis>  (3) 
def2tzvp

>  <spin_multiplicity>  (3) 
2.0

>  <optical_isomers>  (3) 
2.0

>  <modes>  (3) 
IdealGasTranslation(mass=(146.082, 'amu')),         NonlinearRotor(             inertia = ([225.111, 833.587, 993.335

>  <frequency_value>  (3) 
-1801.36

>  <frequency_units>  (3) 
cm^-1

>  <frequency_list>  (3) 
unknown

>  <arkane_path>  (3) 
/home/calvin/Dropbox/PersonalFolders/Calvin/ZEUS_Converged/rmg_rxn_15671/output/rxns/TS0/arkane/output.py

>  <path_exists>  (3) 
True

>  <E0_value>  (3) 
-1354580.0

>  <E0_units>  (3) 
kJ/mol

>  <thermo_class>  (3) 
unknown

>  <Cp0_value>  (3) 
unknown

>  <Cp0_units>  (3) 
unknown

>  <CpInf_value>  (3) 
unknown

>  <CpInf_units>  (3) 
unknown

>  <Tmin_value>  (3) 
unknown

>  <Tmin_units>  (3) 
unknown

>  <Tmax_value>  (3) 
unknown

>  <Tmax_units>  (3) 
unknown

>  <polynomials>  (3) 
unknown

>  <H298_value>  (3) 
unknown

>  <H298_units>  (3) 
unknown

>  <S298_value>  (3) 
unknown

>  <S298_units>  (3) 
unknown

>  <Cp_T_value_list>  (3) 
unknown

>  <Cp_T_units>  (3) 
unknown

>  <T_list>  (3) 
unknown

>  <T_units>  (3) 
unknown

>  <yaml_path>  (3) 
unknown

>  <frequencies_cm1>  (3) 
unknown

>  <ZPE_kJmol>  (3) 
unknown

>  <E_elec_kJmol>  (3) 
unknown

>  <E0_minus_Eelec_plus_ZPE_kJmol>  (3) 
unknown

>  <rxn>  (3) 
unknown

>  <species_type>  (3) 
unknown

>  <species_folder>  (3) 
unknown

>  <frequencies_cm1_list>  (3) 
[]

>  <ts_imag_freq_cm1>  (3) 
-1823.2392

>  <ts_freq_out_path>  (3) 
/home/calvin/Dropbox/PersonalFolders/Calvin/ZEUS_Converged/rmg_rxn_15671/output/rxns/TS0/geometry/freq.out

>  <E0_kJmol>  (3) 
-1.35458e+06

>  <H298_kJmol>  (3) 
unknown

$$$$

     RDKit          3D

 13 12  0  0  0  0  0  0  0  0999 V2000
    2.6140   -0.1760    0.1061 C   0  0  0  0  0  3  0  0  0  1  0  0
    1.7369    0.6015    0.7849 O   0  0  0  0  0  0  0  0  0  2  0  0
    0.3829    0.2955    0.5984 C   0  0  0  0  0  0  0  0  0  3  0  0
    0.0214   -0.9610    1.0915 O   0  0  0  0  0  0  0  0  0  4  0  0
   -0.0421   -1.1265    2.4384 C   0  0  0  0  0  0  0  0  0  5  0  0
    0.3542   -0.2893    3.3854 C   0  0  0  0  0  0  0  0  0  6  0  0
    3.6468    0.0574    0.3129 H   0  0  0  0  0  0  0  0  0  7  0  0
    2.2997   -1.1687   -0.1909 H   0  0  0  0  0  0  0  0  0  8  0  0
    0.1461    0.2666   -0.4670 H   0  0  0  0  0  0  0  0  0  9  0  0
   -0.1746    1.0839    1.1083 H   0  0  0  0  0  0  0  0  0 10  0  0
   -0.4863   -2.0871    2.6674 H   0  0  0  0  0  0  0  0  0 11  0  0
    0.8422    0.6530    3.1826 H   0  0  0  0  0  0  0  0  0 12  0  0
    0.2043   -0.5722    4.4170 H   0  0  0  0  0  0  0  0  0 13  0  0
  1  8  1  0
  1  7  1  0
  1  2  1  0
  2  3  1  0
  3  4  1  0
  3  9  1  0
  3 10  1  0
  4  5  1  0
  5 11  1  0
  5  6  1  0
  6 12  1  0
  6 13  1  0
M  RAD  1   1   2
M  END
>  <rmg_smiles>  (4) 
[CH2][CH]OCO[CH2]

>  <rmg_adjacency_list>  (4) 
multiplicity 2
1  O u0 p2 c0 {3,S} {4,S}
2  O u0 p2 c0 {3,S} {6,S}
3  C u0 p0 c0 {1,S} {2,S} {7,S} {8,S}
4  C u0 p0 c0 {1,S} {5,S} {9,S}
5  C u0 p0 c0 {4,S} {10,S} {11,S}
6  C u1 p0 c0 {2,S} {12,S} {13,S}
7  H u0 p0 c0 {3,S}
8  H u0 p0 c0 {3,S}
9  H u0 p0 c0 {4,S}
10 H u0 p0 c0 {5,S}
11 H u0 p0 c0 {5,S}
12 H u0 p0 c0 {6,S}
13 H u0 p0 c0 {6,S}


>  <multiplicity>  (4) 
2

>  <reaction>  (4) 
rmg_rxn_15671

>  <type>  (4) 
r1

>  <role_mapnums>  (4) 
{}

>  <role_mapidx>  (4) 
{}

>  <ordered_mapped_smiles>  (4) 
[C:1]([O:2][C:3]([O:4][CH:5]([CH:6]([H:12])[H:13])[H:11])([H:9])[H:10])([H:7])[H:8]

>  <level_of_theory>  (4) 
wb97xd/def2tzvp

>  <lot_method>  (4) 
wb97xd

>  <lot_basis>  (4) 
def2tzvp

>  <spin_multiplicity>  (4) 
2.0

>  <optical_isomers>  (4) 
2.0

>  <modes>  (4) 
IdealGasTranslation(mass=(87.0446, 'amu')),         NonlinearRotor(             inertia = ([72.7273, 199.476, 220.908

>  <frequency_value>  (4) 
unknown

>  <frequency_units>  (4) 
unknown

>  <frequency_list>  (4) 
unknown

>  <arkane_path>  (4) 
/home/calvin/Dropbox/PersonalFolders/Calvin/ZEUS_Converged/rmg_rxn_15671/output/Species/rmg_rxn_15671_p2_sbr-CH2-sbrOCOC=C/arkane/output.py

>  <path_exists>  (4) 
True

>  <E0_value>  (4) 
-805750.711592887

>  <E0_units>  (4) 
kJ/mol

>  <thermo_class>  (4) 
NASA

>  <Cp0_value>  (4) 
33.257888

>  <Cp0_units>  (4) 
J/(mol*K)

>  <CpInf_value>  (4) 
307.635464

>  <CpInf_units>  (4) 
J/(mol*K)

>  <Tmin_value>  (4) 
10.0

>  <Tmin_units>  (4) 
K

>  <Tmax_value>  (4) 
3000.0

>  <Tmax_units>  (4) 
K

>  <polynomials>  (4) 
[{"name": "polynomial1", "class": "NASAPolynomial", "Tmin_value": 10.0, "Tmin_units": "K", "Tmax_value": 795.833183974657, "Tmax_units": "K", "coeffs": [3.6724417656433466, 0.029821680697272538, 2.0678152124366964e-05, -4.852398163950526e-08, 2.215152792395944e-11, -96909423.41612482, 12.022685191557494]}, {"name": "polynomial2", "class": "NASAPolynomial", "Tmin_value": 795.833183974657, "Tmin_units": "K", "Tmax_value": 3000.0, "Tmax_units": "K", "coeffs": [3.3688646664144435, 0.042491831872105854, -2.420776744185498e-05, 6.6726121260221715e-09, -7.152020713564091e-13, -96909728.00973469, 11.200688031175948]}]

>  <H298_value>  (4) 
-192574.037039463

>  <H298_units>  (4) 
kcal/mol

>  <S298_value>  (4) 
84.18914479572827

>  <S298_units>  (4) 
cal/(mol*K)

>  <Cp_T_value_list>  (4) 
[26.527735336734747, 32.53288089472878, 37.899590906671776, 42.524714673169235, 49.66583405243175, 54.86744545512572, 62.67349468233981, 66.4901857675222, 68.41161567804997]

>  <Cp_T_units>  (4) 
cal/(mol*K)

>  <T_list>  (4) 
[300.0, 400.0, 500.0, 600.0, 800.0, 1000.0, 1500.0, 2000.0, 2400.0]

>  <T_units>  (4) 
K

>  <yaml_path>  (4) 
/home/calvin/Dropbox/PersonalFolders/Calvin/ZEUS_Converged/rmg_rxn_15671/output/Species/rmg_rxn_15671_p2_sbr-CH2-sbrOCOC=C/rmg_rxn_15671_p2_sbr-CH2-sbrOCOC=C.yml

>  <frequencies_cm1>  (4) 
[76.86216668676, 146.69940739115998, 181.7004315672, 260.23814267204, 288.06316718868, 406.52553094399997, 518.1071754086801, 574.4233220179999, 660.8031303582799, 723.2789627996399, 874.46937859008, 906.81287944728, 980.6467056079199, 1000.80817450744, 1037.944831118, 1128.2388210906797, 1214.24781222368, 1224.7336988073198, 1265.413719843, 1331.5908573718398, 1353.20126017388, 1416.0685107784798, 1439.55360057288, 1472.40525834376, 1500.951316319, 1699.97715184856, 3028.2924572227603, 3089.51163135056, 3117.30918792592, 3151.7951882029597, 3176.8665516062797, 3244.2248106101597, 3258.02058411804]

>  <ZPE_kJmol>  (4) 
273.6445664469421

>  <E_elec_kJmol>  (4) 
-806024.3561593338

>  <E0_minus_Eelec_plus_ZPE_kJmol>  (4) 
0.0

>  <rxn>  (4) 
rmg_rxn_15671

>  <species_type>  (4) 
p1

>  <species_folder>  (4) 
rmg_rxn_15671_p2_sbr-CH2-sbrOCOC=C

>  <frequencies_cm1_list>  (4) 
[76.86216668676, 146.69940739115998, 181.7004315672, 260.23814267204, 288.06316718868, 406.52553094399997, 518.1071754086801, 574.4233220179999, 660.8031303582799, 723.2789627996399, 874.46937859008, 906.81287944728, 980.6467056079199, 1000.80817450744, 1037.944831118, 1128.2388210906797, 1214.24781222368, 1224.7336988073198, 1265.413719843, 1331.5908573718398, 1353.20126017388, 1416.0685107784798, 1439.55360057288, 1472.40525834376, 1500.951316319, 1699.97715184856, 3028.2924572227603, 3089.51163135056, 3117.30918792592, 3151.7951882029597, 3176.8665516062797, 3244.2248106101597, 3258.02058411804]

>  <E0_kJmol>  (4) 
-805751

>  <H298_kJmol>  (4) 
-805730

$$$$

     RDKit          3D

  8  7  0  0  0  0  0  0  0  0999 V2000
    1.7077   -0.1964   -0.0607 C   0  0  0  0  0  3  0  0  0  1  0  0
    0.4209   -0.4565    0.2808 O   0  0  0  0  0  0  0  0  0  2  0  0
   -0.4607    0.4385   -0.2968 N   0  0  0  0  0  0  0  0  0  3  0  0
   -1.6584    0.1416   -0.0244 C   0  0  0  0  0  0  0  0  0  4  0  0
    2.4163   -0.7685    0.5170 H   0  0  0  0  0  0  0  0  0  5  0  0
    1.9214    0.7645   -0.5045 H   0  0  0  0  0  0  0  0  0  6  0  0
   -2.4185    0.7953   -0.4307 H   0  0  0  0  0  0  0  0  0  7  0  0
   -1.9286   -0.7185    0.5831 H   0  0  0  0  0  0  0  0  0  8  0  0
  1  6  1  0
  1  5  1  0
  1  2  1  0
  2  3  1  0
  3  4  1  0
  4  8  1  0
  4  7  1  0
M  RAD  1   1   2
M  END
>  <rmg_smiles>  (5) 
[CH2]O[N][CH2]

>  <rmg_adjacency_list>  (5) 
multiplicity 2
1 O u0 p2 c0 {2,S} {3,S}
2 N u0 p1 c0 {1,S} {4,S}
3 C u1 p0 c0 {1,S} {5,S} {6,S}
4 C u0 p0 c0 {2,S} {7,S} {8,S}
5 H u0 p0 c0 {3,S}
6 H u0 p0 c0 {3,S}
7 H u0 p0 c0 {4,S}
8 H u0 p0 c0 {4,S}


>  <multiplicity>  (5) 
2

>  <reaction>  (5) 
rmg_rxn_15671

>  <type>  (5) 
r2

>  <role_mapnums>  (5) 
{}

>  <role_mapidx>  (5) 
{}

>  <ordered_mapped_smiles>  (5) 
[C:1]([O:2][NH:3][CH:4]([H:7])[H:8])([H:5])[H:6]

>  <level_of_theory>  (5) 
wb97xd/def2tzvp

>  <lot_method>  (5) 
wb97xd

>  <lot_basis>  (5) 
def2tzvp

>  <spin_multiplicity>  (5) 
2.0

>  <optical_isomers>  (5) 
2.0

>  <modes>  (5) 
IdealGasTranslation(mass=(58.0293, 'amu')),         NonlinearRotor(             inertia = ([10.2741, 95.4529, 105.582

>  <frequency_value>  (5) 
unknown

>  <frequency_units>  (5) 
unknown

>  <frequency_list>  (5) 
unknown

>  <arkane_path>  (5) 
/home/calvin/Dropbox/PersonalFolders/Calvin/ZEUS_Converged/rmg_rxn_15671/output/Species/rmg_rxn_15671_r1_sbr-CH2-sbrON=C/arkane/output.py

>  <path_exists>  (5) 
True

>  <E0_value>  (5) 
-547168.2732446302

>  <E0_units>  (5) 
kJ/mol

>  <thermo_class>  (5) 
NASA

>  <Cp0_value>  (5) 
33.257888

>  <Cp0_units>  (5) 
J/(mol*K)

>  <CpInf_value>  (5) 
182.918384

>  <CpInf_units>  (5) 
J/(mol*K)

>  <Tmin_value>  (5) 
10.0

>  <Tmin_units>  (5) 
K

>  <Tmax_value>  (5) 
3000.0

>  <Tmax_units>  (5) 
K

>  <polynomials>  (5) 
[{"name": "polynomial1", "class": "NASAPolynomial", "Tmin_value": 10.0, "Tmin_units": "K", "Tmax_value": 253.2842427910515, "Tmax_units": "K", "coeffs": [3.956862909385456, 0.0038362890131335746, 0.00011727738047703725, -3.4736244039427427e-07, 3.472729073035136e-10, -65809144.38694886, 9.350338763280796]}, {"name": "polynomial2", "class": "NASAPolynomial", "Tmin_value": 253.2842427910515, "Tmin_units": "K", "Tmax_value": 3000.0, "Tmax_units": "K", "coeffs": [2.5252197328965313, 0.026445761179553072, -1.662161754135038e-05, 5.074735532607581e-09, -5.97403912324656e-13, -65809071.86505469, 14.291183066674913]}]

>  <H298_value>  (5) 
-130772.65860702786

>  <H298_units>  (5) 
kcal/mol

>  <S298_value>  (5) 
71.26914844977757

>  <S298_units>  (5) 
cal/(mol*K)

>  <Cp_T_value_list>  (5) 
[18.0740035969719, 21.369534269323825, 24.223451351766553, 26.683440747612977, 30.598134113509214, 33.438117676478754, 37.554421513360474, 39.68390492467901, 40.91110806828642]

>  <Cp_T_units>  (5) 
cal/(mol*K)

>  <T_list>  (5) 
[300.0, 400.0, 500.0, 600.0, 800.0, 1000.0, 1500.0, 2000.0, 2400.0]

>  <T_units>  (5) 
K

>  <yaml_path>  (5) 
/home/calvin/Dropbox/PersonalFolders/Calvin/ZEUS_Converged/rmg_rxn_15671/output/Species/rmg_rxn_15671_r1_sbr-CH2-sbrON=C/rmg_rxn_15671_r1_sbr-CH2-sbrON=C.yml

>  <frequencies_cm1>  (5) 
[132.13453152744, 273.14807507364, 360.4549264321199, 498.69420790903996, 595.9169860696, 789.3942974605999, 873.74834513148, 993.5360370535599, 1152.01232426852, 1206.54305469464, 1257.0497317232398, 1417.2771001948001, 1437.260027476, 1705.2166616477198, 3090.5210781926, 3134.7719315946797, 3218.94057066192, 3282.16490450316]

>  <ZPE_kJmol>  (5) 
152.0381400376291

>  <E_elec_kJmol>  (5) 
-547320.3113846679

>  <E0_minus_Eelec_plus_ZPE_kJmol>  (5) 
0.0

>  <rxn>  (5) 
rmg_rxn_15671

>  <species_type>  (5) 
r0

>  <species_folder>  (5) 
rmg_rxn_15671_r1_sbr-CH2-sbrON=C

>  <frequencies_cm1_list>  (5) 
[132.13453152744, 273.14807507364, 360.4549264321199, 498.69420790903996, 595.9169860696, 789.3942974605999, 873.74834513148, 993.5360370535599, 1152.01232426852, 1206.54305469464, 1257.0497317232398, 1417.2771001948001, 1437.260027476, 1705.2166616477198, 3090.5210781926, 3134.7719315946797, 3218.94057066192, 3282.16490450316]

>  <E0_kJmol>  (5) 
-547168

>  <H298_kJmol>  (5) 
-547153

$$$$
