
     RDKit          3D

  6  5  0  0  0  0  0  0  0  0999 V2000
    0.9975    0.6557    0.0977 C   0  0  0  0  0  0  0  0  0  1  0  0
   -0.0436   -0.2195   -0.4889 N   0  0  0  0  0  0  0  0  0  2  0  0
   -0.9561   -0.4583    0.3098 O   0  0  0  0  0  0  0  0  0  3  0  0
    1.9700    0.1596    0.0894 H   0  0  0  0  0  0  0  0  0  4  0  0
    0.7002    0.8854    1.1227 H   0  0  0  0  0  0  0  0  0  5  0  0
    1.0362    1.5709   -0.4963 H   0  0  0  0  0  0  0  0  0  6  0  0
  1  5  1  0
  1  2  1  0
  1  4  1  0
  1  6  1  0
  2  3  1  0
M  END
>  <rmg_smiles>  (1) 
C[N][O]

>  <rmg_adjacency_list>  (1) 
1 O u0 p2 c0 {2,S}
2 N u0 p1 c0 {1,S} {3,S}
3 C u0 p0 c0 {2,S} {4,S} {5,S} {6,S}
4 H u0 p0 c0 {3,S}
5 H u0 p0 c0 {3,S}
6 H u0 p0 c0 {3,S}


>  <multiplicity>  (1) 
1

>  <reaction>  (1) 
rmg_rxn_1129

>  <type>  (1) 
r1h

>  <role_mapnums>  (1) 
{"r1h_a": 1, "r1h_h": 4}

>  <role_mapidx>  (1) 
{"r1h_a": 0, "r1h_h": 3}

>  <ordered_mapped_smiles>  (1) 
[C:1]([NH:2][OH:3])([H:4])([H:5])[H:6]

>  <mol_properties>  (1) 
{"0": {"label": "donator", "atom_type": "Cs"}, "3": {"label": "d_hydrogen", "atom_type": "H0"}}

>  <level_of_theory>  (1) 
wb97xd/def2tzvp

>  <lot_method>  (1) 
wb97xd

>  <lot_basis>  (1) 
def2tzvp

>  <spin_multiplicity>  (1) 
1.0

>  <optical_isomers>  (1) 
2.0

>  <modes>  (1) 
IdealGasTranslation(mass=(45.0215, 'amu')),         NonlinearRotor(             inertia = ([8.54474, 44.1684, 49.4809

>  <frequency_value>  (1) 
unknown

>  <frequency_units>  (1) 
unknown

>  <frequency_list>  (1) 
unknown

>  <arkane_path>  (1) 
/home/calvin/Dropbox/PersonalFolders/Calvin/ATLAS_Converged/rmg_rxn_1129/output/Species/rmg_rxn_1129_r2_CN=O/arkane/output.py

>  <path_exists>  (1) 
True

>  <E0_value>  (1) 
-445719.92228708166

>  <E0_units>  (1) 
kJ/mol

>  <thermo_class>  (1) 
NASA

>  <Cp0_value>  (1) 
33.257888

>  <Cp0_units>  (1) 
J/(mol*K)

>  <CpInf_value>  (1) 
133.031552

>  <CpInf_units>  (1) 
J/(mol*K)

>  <Tmin_value>  (1) 
10.0

>  <Tmin_units>  (1) 
K

>  <Tmax_value>  (1) 
3000.0

>  <Tmax_units>  (1) 
K

>  <polynomials>  (1) 
[{"name": "polynomial1", "class": "NASAPolynomial", "Tmin_value": 10.0, "Tmin_units": "K", "Tmax_value": 523.1623109062334, "Tmax_units": "K", "coeffs": [3.997048777821599, 1.3976034005065675e-05, 4.21423064686843e-05, -6.423039506503605e-08, 3.177852239918246e-11, -53607723.660720214, 7.500723454444557]}, {"name": "polynomial2", "class": "NASAPolynomial", "Tmin_value": 523.1623109062334, "Tmin_units": "K", "Tmax_value": 3000.0, "Tmax_units": "K", "coeffs": [1.593353190730867, 0.018393088440867983, -1.0556510799675463e-05, 2.9271301173799887e-09, -3.151758894982931e-13, -53607472.16859879, 17.53977937551701]}]

>  <H298_value>  (1) 
-106526.73195265616

>  <H298_units>  (1) 
kcal/mol

>  <S298_value>  (1) 
62.88259640884365

>  <S298_units>  (1) 
cal/(mol*K)

>  <Cp_T_value_list>  (1) 
[12.55364953578163, 14.801097779835075, 16.885237358579595, 18.7200330670138, 21.7027821927878, 23.929712274609866, 27.25319134157325, 28.86956687185685, 29.687137037438973]

>  <Cp_T_units>  (1) 
cal/(mol*K)

>  <T_list>  (1) 
[300.0, 400.0, 500.0, 600.0, 800.0, 1000.0, 1500.0, 2000.0, 2400.0]

>  <T_units>  (1) 
K

>  <yaml_path>  (1) 
/home/calvin/Dropbox/PersonalFolders/Calvin/ATLAS_Converged/rmg_rxn_1129/output/Species/rmg_rxn_1129_r2_CN=O/rmg_rxn_1129_r2_CN=O.yml

>  <frequencies_cm1>  (1) 
[216.63278589004003, 613.26985797324, 854.4589833675999, 964.5985609150799, 1156.3934609026799, 1369.93610339872, 1421.5483650638398, 1453.2601032716, 1480.22675462324, 3002.6099321259594, 3100.49194087724, 3105.5254411167994]

>  <ZPE_kJmol>  (1) 
112.08385749791076

>  <E_elec_kJmol>  (1) 
-445832.0061445796

>  <E0_minus_Eelec_plus_ZPE_kJmol>  (1) 
0.0

>  <rxn>  (1) 
rmg_rxn_1129

>  <species_type>  (1) 
r1

>  <species_folder>  (1) 
rmg_rxn_1129_r2_CN=O

>  <frequencies_cm1_list>  (1) 
[216.63278589004003, 613.26985797324, 854.4589833675999, 964.5985609150799, 1156.3934609026799, 1369.93610339872, 1421.5483650638398, 1453.2601032716, 1480.22675462324, 3002.6099321259594, 3100.49194087724, 3105.5254411167994]

>  <E0_kJmol>  (1) 
-445720

>  <H298_kJmol>  (1) 
-445708

$$$$

     RDKit          3D

  2  1  0  0  0  0  0  0  0  0999 V2000
    0.0615   -0.0314   -0.0005 O   0  0  0  0  0  1  0  0  0  1  0  0
   -0.7936    0.4049    0.0067 H   0  0  0  0  0  0  0  0  0  2  0  0
  1  2  1  0
M  RAD  1   1   2
M  END
>  <rmg_smiles>  (2) 
[OH]

>  <rmg_adjacency_list>  (2) 
multiplicity 2
1 O u1 p2 c0 {2,S}
2 H u0 p0 c0 {1,S}


>  <multiplicity>  (2) 
2

>  <reaction>  (2) 
rmg_rxn_1129

>  <type>  (2) 
r2h

>  <role_mapnums>  (2) 
{"r2h_a": 1, "r2h_h": 2}

>  <role_mapidx>  (2) 
{"r2h_a": 0, "r2h_h": 1}

>  <ordered_mapped_smiles>  (2) 
[O:1][H:2]

>  <mol_properties>  (2) 
{"0": {"label": "acceptor", "atom_type": "O2s"}, "1": {"label": "a_hydrogen", "atom_type": "H0"}}

>  <level_of_theory>  (2) 
wb97xd/def2tzvp

>  <lot_method>  (2) 
wb97xd

>  <lot_basis>  (2) 
def2tzvp

>  <spin_multiplicity>  (2) 
2.0

>  <optical_isomers>  (2) 
1.0

>  <modes>  (2) 
IdealGasTranslation(mass=(17.0027, 'amu')),         LinearRotor(inertia=(0.893962, 'amu*angstrom^2'), symmetry=1),         HarmonicOscillator(frequencies=([3724.63

>  <frequency_value>  (2) 
unknown

>  <frequency_units>  (2) 
unknown

>  <frequency_list>  (2) 
unknown

>  <arkane_path>  (2) 
/home/calvin/Dropbox/PersonalFolders/Calvin/ATLAS_Converged/rmg_rxn_1129/output/Species/rmg_rxn_1129_p1_sbr-OH-sbr/arkane/output.py

>  <path_exists>  (2) 
True

>  <E0_value>  (2) 
-198836.11500662245

>  <E0_units>  (2) 
kJ/mol

>  <thermo_class>  (2) 
NASA

>  <Cp0_value>  (2) 
29.100652

>  <Cp0_units>  (2) 
J/(mol*K)

>  <CpInf_value>  (2) 
37.415124

>  <CpInf_units>  (2) 
J/(mol*K)

>  <Tmin_value>  (2) 
10.0

>  <Tmin_units>  (2) 
K

>  <Tmax_value>  (2) 
3000.0

>  <Tmax_units>  (2) 
K

>  <polynomials>  (2) 
[{"name": "polynomial1", "class": "NASAPolynomial", "Tmin_value": 10.0, "Tmin_units": "K", "Tmax_value": 985.4633103339054, "Tmax_units": "K", "coeffs": [3.496867247333508, 0.00018342449890259614, -9.934008380455364e-07, 1.5607090885398485e-09, -6.057976047375529e-13, -23914460.713281557, 1.4723763541989374]}, {"name": "polynomial2", "class": "NASAPolynomial", "Tmin_value": 985.4633103339054, "Tmin_units": "K", "Tmax_value": 3000.0, "Tmax_units": "K", "coeffs": [3.453605826539838, -0.000298394996284096, 7.406626419620715e-07, -2.893423009710026e-10, 3.527332886378172e-14, -23914420.264604878, 1.842419488011591]}]

>  <H298_value>  (2) 
-47520.896675510776

>  <H298_units>  (2) 
kcal/mol

>  <S298_value>  (2) 
42.56095640204575

>  <S298_units>  (2) 
cal/(mol*K)

>  <Cp_T_value_list>  (2) 
[6.954667739233619, 6.946617902371048, 6.950166451559511, 6.9709205689453935, 7.072028097634187, 7.2370175778306685, 7.699521485448446, 8.086144468717986, 8.29478093025019]

>  <Cp_T_units>  (2) 
cal/(mol*K)

>  <T_list>  (2) 
[300.0, 400.0, 500.0, 600.0, 800.0, 1000.0, 1500.0, 2000.0, 2400.0]

>  <T_units>  (2) 
K

>  <yaml_path>  (2) 
/home/calvin/Dropbox/PersonalFolders/Calvin/ATLAS_Converged/rmg_rxn_1129/output/Species/rmg_rxn_1129_p1_sbr-OH-sbr/rmg_rxn_1129_p1_sbr-OH-sbr.yml

>  <frequencies_cm1>  (2) 
[3724.62536962672]

>  <ZPE_kJmol>  (2) 
22.278213462109388

>  <E_elec_kJmol>  (2) 
-198858.39322008457

>  <E0_minus_Eelec_plus_ZPE_kJmol>  (2) 
0.0

>  <rxn>  (2) 
rmg_rxn_1129

>  <species_type>  (2) 
p0

>  <species_folder>  (2) 
rmg_rxn_1129_p1_sbr-OH-sbr

>  <frequencies_cm1_list>  (2) 
[3724.62536962672]

>  <E0_kJmol>  (2) 
-198836

>  <H298_kJmol>  (2) 
-198827

$$$$

     RDKit          3D

  7  5  0  0  0  0  0  0  0  0999 V2000
    2.3421   -0.3912    0.0481 O   0  0  0  0  0  1  0  0  0  1  0  0
    0.1363    0.7341    0.0668 C   0  0  0  0  0  0  0  0  0  2  0  0
   -0.9049   -0.1410   -0.5198 N   0  0  0  0  0  0  0  0  0  3  0  0
   -1.8173   -0.3799    0.2789 O   0  0  0  0  0  1  0  0  0  4  0  0
    1.3042    0.1383    0.0569 H   0  0  0  0  0  0  0  0  0  5  0  0
   -0.1611    0.9639    1.0919 H   0  0  0  0  0  0  0  0  0  6  0  0
    0.1749    1.6494   -0.5271 H   0  0  0  0  0  0  0  0  0  7  0  0
  1  5  1  0
  2  3  1  0
  2  7  1  0
  2  6  1  0
  3  4  1  0
M  RAD  2   1   2   4   2
M  END
>  <rmg_smiles>  (3) 
[CH2][N][O].[OH]

>  <rmg_adjacency_list>  (3) 
multiplicity 3
1 O u1 p2 c0 {3,S}
2 O u1 p2 c0 {7,S}
3 N u0 p1 c0 {1,S} {4,S}
4 C u0 p0 c0 {3,S} {5,S} {6,S}
5 H u0 p0 c0 {4,S}
6 H u0 p0 c0 {4,S}
7 H u0 p0 c0 {2,S}


>  <multiplicity>  (3) 
3

>  <reaction>  (3) 
rmg_rxn_1129

>  <type>  (3) 
ts

>  <role_mapnums>  (3) 
{"*2": 5, "*1": 2, "*3": 1, "*0": null, "*4": 3}

>  <role_mapidx>  (3) 
{"*2": 4, "*1": 1, "*3": 0, "*4": 2}

>  <ordered_mapped_smiles>  (3) 
[O:1][H:5].[CH:2]([NH:3][O:4])([H:6])[H:7]

>  <mol_properties>  (3) 
{"0": {"label": "*3", "atom_type": "O2s"}, "1": {"label": "*1", "atom_type": "Cs"}, "2": {"label": "*4", "atom_type": "N3s"}, "4": {"label": "*2", "atom_type": "H0"}}

>  <level_of_theory>  (3) 
wb97xd/def2tzvp

>  <lot_method>  (3) 
wb97xd

>  <lot_basis>  (3) 
def2tzvp

>  <spin_multiplicity>  (3) 
3.0

>  <optical_isomers>  (3) 
2.0

>  <modes>  (3) 
IdealGasTranslation(mass=(61.0164, 'amu')),         NonlinearRotor(             inertia = ([21.6728, 160.593, 169.083

>  <frequency_value>  (3) 
-1631.57

>  <frequency_units>  (3) 
cm^-1

>  <frequency_list>  (3) 
unknown

>  <arkane_path>  (3) 
/home/calvin/Dropbox/PersonalFolders/Calvin/ATLAS_Converged/rmg_rxn_1129/output/rxns/TS0/arkane/output.py

>  <path_exists>  (3) 
True

>  <E0_value>  (3) 
-642810.0

>  <E0_units>  (3) 
kJ/mol

>  <thermo_class>  (3) 
unknown

>  <Cp0_value>  (3) 
unknown

>  <Cp0_units>  (3) 
unknown

>  <CpInf_value>  (3) 
unknown

>  <CpInf_units>  (3) 
unknown

>  <Tmin_value>  (3) 
unknown

>  <Tmin_units>  (3) 
unknown

>  <Tmax_value>  (3) 
unknown

>  <Tmax_units>  (3) 
unknown

>  <polynomials>  (3) 
unknown

>  <H298_value>  (3) 
unknown

>  <H298_units>  (3) 
unknown

>  <S298_value>  (3) 
unknown

>  <S298_units>  (3) 
unknown

>  <Cp_T_value_list>  (3) 
unknown

>  <Cp_T_units>  (3) 
unknown

>  <T_list>  (3) 
unknown

>  <T_units>  (3) 
unknown

>  <yaml_path>  (3) 
unknown

>  <frequencies_cm1>  (3) 
unknown

>  <ZPE_kJmol>  (3) 
unknown

>  <E_elec_kJmol>  (3) 
unknown

>  <E0_minus_Eelec_plus_ZPE_kJmol>  (3) 
unknown

>  <rxn>  (3) 
unknown

>  <species_type>  (3) 
unknown

>  <species_folder>  (3) 
unknown

>  <frequencies_cm1_list>  (3) 
[]

>  <ts_imag_freq_cm1>  (3) 
-1651.3841

>  <ts_freq_out_path>  (3) 
/home/calvin/Dropbox/PersonalFolders/Calvin/ATLAS_Converged/rmg_rxn_1129/output/rxns/TS0/geometry/freq.out

>  <E0_kJmol>  (3) 
-642810

>  <H298_kJmol>  (3) 
unknown

$$$$

     RDKit          3D

  5  4  0  0  0  0  0  0  0  0999 V2000
    1.0414   -0.2152    0.0000 C   0  0  0  0  0  0  0  0  0  1  0  0
    0.0000    0.5432    0.0000 N   0  0  0  0  0  0  0  0  0  2  0  0
   -1.1618   -0.1793    0.0000 O   0  0  0  0  0  1  0  0  0  3  0  0
    2.0423    0.2423    0.0000 H   0  0  0  0  0  0  0  0  0  4  0  0
    1.0038   -1.3196    0.0000 H   0  0  0  0  0  0  0  0  0  5  0  0
  1  5  1  0
  1  4  1  0
  1  2  1  0
  2  3  1  0
M  RAD  1   3   2
M  END
>  <rmg_smiles>  (4) 
[CH2][N][O]

>  <rmg_adjacency_list>  (4) 
multiplicity 2
1 O u1 p2 c0 {2,S}
2 N u0 p1 c0 {1,S} {3,S}
3 C u0 p0 c0 {2,S} {4,S} {5,S}
4 H u0 p0 c0 {3,S}
5 H u0 p0 c0 {3,S}


>  <multiplicity>  (4) 
2

>  <reaction>  (4) 
rmg_rxn_1129

>  <type>  (4) 
r1

>  <role_mapnums>  (4) 
{}

>  <role_mapidx>  (4) 
{}

>  <ordered_mapped_smiles>  (4) 
[CH:1]([NH:2][O:3])([H:4])[H:5]

>  <level_of_theory>  (4) 
wb97xd/def2tzvp

>  <lot_method>  (4) 
wb97xd

>  <lot_basis>  (4) 
def2tzvp

>  <spin_multiplicity>  (4) 
2.0

>  <optical_isomers>  (4) 
1.0

>  <modes>  (4) 
IdealGasTranslation(mass=(44.0136, 'amu')),         NonlinearRotor(             inertia = ([6.98843, 39.6155, 46.604

>  <frequency_value>  (4) 
unknown

>  <frequency_units>  (4) 
unknown

>  <frequency_list>  (4) 
unknown

>  <arkane_path>  (4) 
/home/calvin/Dropbox/PersonalFolders/Calvin/ATLAS_Converged/rmg_rxn_1129/output/Species/rmg_rxn_1129_p2_sbr-CH2-sbrN=O/arkane/output.py

>  <path_exists>  (4) 
True

>  <E0_value>  (4) 
-444130.5104532136

>  <E0_units>  (4) 
kJ/mol

>  <thermo_class>  (4) 
NASA

>  <Cp0_value>  (4) 
33.257888

>  <Cp0_units>  (4) 
J/(mol*K)

>  <CpInf_value>  (4) 
108.088136

>  <CpInf_units>  (4) 
J/(mol*K)

>  <Tmin_value>  (4) 
10.0

>  <Tmin_units>  (4) 
K

>  <Tmax_value>  (4) 
3000.0

>  <Tmax_units>  (4) 
K

>  <polynomials>  (4) 
[{"name": "polynomial1", "class": "NASAPolynomial", "Tmin_value": 10.0, "Tmin_units": "K", "Tmax_value": 578.5945325717779, "Tmax_units": "K", "coeffs": [4.050383698379211, -0.004408289965888416, 5.816687662989515e-05, -9.504894964492476e-08, 5.066667843738809e-11, -53416561.929485634, 7.1896189661654475]}, {"name": "polynomial2", "class": "NASAPolynomial", "Tmin_value": 578.5945325717779, "Tmin_units": "K", "Tmax_value": 3000.0, "Tmax_units": "K", "coeffs": [2.257129411303006, 0.014762716327759464, -9.094475067580945e-06, 2.6845227582243328e-09, -3.0478813764735956e-13, -53416467.79808951, 13.880043668309895]}]

>  <H298_value>  (4) 
-106147.03493350018

>  <H298_units>  (4) 
kcal/mol

>  <S298_value>  (4) 
61.19708639657305

>  <S298_units>  (4) 
cal/(mol*K)

>  <Cp_T_value_list>  (4) 
[11.53969634750828, 13.528309995937247, 15.248842140297391, 16.654985460399338, 18.87145260610648, 20.47837222941496, 22.765257560620785, 23.85489116801807, 24.446963929836652]

>  <Cp_T_units>  (4) 
cal/(mol*K)

>  <T_list>  (4) 
[300.0, 400.0, 500.0, 600.0, 800.0, 1000.0, 1500.0, 2000.0, 2400.0]

>  <T_units>  (4) 
K

>  <yaml_path>  (4) 
/home/calvin/Dropbox/PersonalFolders/Calvin/ATLAS_Converged/rmg_rxn_1129/output/Species/rmg_rxn_1129_p2_sbr-CH2-sbrN=O/rmg_rxn_1129_p2_sbr-CH2-sbrN=O.yml

>  <frequencies_cm1>  (4) 
[401.27228717419996, 744.02412545136, 836.5018167558001, 1031.03664388608, 1152.5342151528398, 1429.5552699469602, 1599.5268905876, 2940.717793436799, 3039.92513035484]

>  <ZPE_kJmol>  (4) 
78.80458602827369

>  <E_elec_kJmol>  (4) 
-444209.31503924186

>  <E0_minus_Eelec_plus_ZPE_kJmol>  (4) 
0.0

>  <rxn>  (4) 
rmg_rxn_1129

>  <species_type>  (4) 
p1

>  <species_folder>  (4) 
rmg_rxn_1129_p2_sbr-CH2-sbrN=O

>  <frequencies_cm1_list>  (4) 
[401.27228717419996, 744.02412545136, 836.5018167558001, 1031.03664388608, 1152.5342151528398, 1429.5552699469602, 1599.5268905876, 2940.717793436799, 3039.92513035484]

>  <E0_kJmol>  (4) 
-444131

>  <H298_kJmol>  (4) 
-444119

$$$$

     RDKit          3D

  1  0  0  0  0  0  0  0  0  0999 V2000
    0.0000    0.0000    0.0000 O   0  0  0  0  0 15  0  0  0  1  0  0
M  END
>  <rmg_smiles>  (5) 
[O]

>  <rmg_adjacency_list>  (5) 
multiplicity 3
1 O u2 p3 c0


>  <multiplicity>  (5) 
3

>  <reaction>  (5) 
rmg_rxn_1129

>  <type>  (5) 
r2

>  <role_mapnums>  (5) 
{}

>  <role_mapidx>  (5) 
{}

>  <ordered_mapped_smiles>  (5) 
[O:1]

>  <level_of_theory>  (5) 
wb97xd/def2tzvp

>  <lot_method>  (5) 
wb97xd

>  <lot_basis>  (5) 
def2tzvp

>  <spin_multiplicity>  (5) 
3.0

>  <optical_isomers>  (5) 
1.0

>  <modes>  (5) 
IdealGasTranslation(mass=(15.9994, 'amu')),

>  <frequency_value>  (5) 
unknown

>  <frequency_units>  (5) 
unknown

>  <frequency_list>  (5) 
unknown

>  <arkane_path>  (5) 
/home/calvin/Dropbox/PersonalFolders/Calvin/ATLAS_Converged/rmg_rxn_1129/output/Species/rmg_rxn_1129_r1_sbr-O-sbr/arkane/output.py

>  <path_exists>  (5) 
True

>  <E0_value>  (5) 
-197098.59938458708

>  <E0_units>  (5) 
kJ/mol

>  <thermo_class>  (5) 
NASA

>  <Cp0_value>  (5) 
20.78618

>  <Cp0_units>  (5) 
J/(mol*K)

>  <CpInf_value>  (5) 
20.78618

>  <CpInf_units>  (5) 
J/(mol*K)

>  <Tmin_value>  (5) 
10.0

>  <Tmin_units>  (5) 
K

>  <Tmax_value>  (5) 
3000.0

>  <Tmax_units>  (5) 
K

>  <polynomials>  (5) 
[{"name": "polynomial1", "class": "NASAPolynomial", "Tmin_value": 10.0, "Tmin_units": "K", "Tmax_value": 1853.5663026740365, "Tmax_units": "K", "coeffs": [2.500000000000126, -2.814048095438137e-15, 9.047587538332909e-18, -8.591944598242694e-21, 2.4182720553650057e-24, -23705485.977386568, 4.091313385047355]}, {"name": "polynomial2", "class": "NASAPolynomial", "Tmin_value": 1853.5663026740365, "Tmin_units": "K", "Tmax_value": 3000.0, "Tmax_units": "K", "coeffs": [2.500000000696122, -1.3129776766613561e-12, 9.140875080033424e-16, -2.782806647322001e-19, 3.1263265306749967e-23, -23705485.97738686, 4.091313381171202]}]

>  <H298_value>  (5) 
-47106.215373741215

>  <H298_units>  (5) 
kcal/mol

>  <S298_value>  (5) 
36.4335375885593

>  <S298_units>  (5) 
cal/(mol*K)

>  <Cp_T_value_list>  (5) 
[4.968016252389826, 4.968016252389978, 4.968016252390173, 4.96801625239036, 4.968016252390567, 4.968016252390427, 4.968016252389077, 4.968016252391019, 4.968016252390868]

>  <Cp_T_units>  (5) 
cal/(mol*K)

>  <T_list>  (5) 
[300.0, 400.0, 500.0, 600.0, 800.0, 1000.0, 1500.0, 2000.0, 2400.0]

>  <T_units>  (5) 
K

>  <yaml_path>  (5) 
/home/calvin/Dropbox/PersonalFolders/Calvin/ATLAS_Converged/rmg_rxn_1129/output/Species/rmg_rxn_1129_r1_sbr-O-sbr/rmg_rxn_1129_r1_sbr-O-sbr.yml

>  <frequencies_cm1>  (5) 
[]

>  <ZPE_kJmol>  (5) 
unknown

>  <E_elec_kJmol>  (5) 
unknown

>  <E0_minus_Eelec_plus_ZPE_kJmol>  (5) 
unknown

>  <rxn>  (5) 
rmg_rxn_1129

>  <species_type>  (5) 
r0

>  <species_folder>  (5) 
rmg_rxn_1129_r1_sbr-O-sbr

>  <frequencies_cm1_list>  (5) 
[]

>  <E0_kJmol>  (5) 
-197099

>  <H298_kJmol>  (5) 
-197092

$$$$
