
     RDKit          3D

  6  5  0  0  0  0  0  0  0  0999 V2000
    0.1368   -1.1154    0.5882 C   0  0  0  0  0  0  0  0  0  1  0  0
    0.0138    0.1453   -0.0763 C   0  0  0  0  0  2  0  0  0  2  0  0
   -0.1379    1.1536   -0.6083 N   0  0  0  0  0  0  0  0  0  3  0  0
   -0.8701   -1.4814    0.7693 H   0  0  0  0  0  0  0  0  0  4  0  0
    0.5968   -1.8861   -0.0243 H   0  0  0  0  0  0  0  0  0  5  0  0
    0.5787   -1.0433    1.5782 H   0  0  0  0  0  0  0  0  0  6  0  0
  1  5  1  0
  1  4  1  0
  1  6  1  0
  1  2  1  0
  2  3  1  0
M  RAD  1   2   3
M  END
>  <rmg_smiles>  (1) 
C[C][N]

>  <rmg_adjacency_list>  (1) 
1 N u0 p2 c0 {3,S}
2 C u0 p0 c0 {3,S} {4,S} {5,S} {6,S}
3 C u0 p1 c0 {1,S} {2,S}
4 H u0 p0 c0 {2,S}
5 H u0 p0 c0 {2,S}
6 H u0 p0 c0 {2,S}


>  <multiplicity>  (1) 
1

>  <reaction>  (1) 
rmg_rxn_15412

>  <type>  (1) 
r1h

>  <role_mapnums>  (1) 
{"r1h_a": 1, "r1h_h": 4}

>  <role_mapidx>  (1) 
{"r1h_a": 0, "r1h_h": 3}

>  <ordered_mapped_smiles>  (1) 
[C:1]([C:2][NH2:3])([H:4])([H:5])[H:6]

>  <mol_properties>  (1) 
{"0": {"label": "donator", "atom_type": "Cs"}, "3": {"label": "d_hydrogen", "atom_type": "H0"}}

>  <level_of_theory>  (1) 
wb97xd/def2tzvp

>  <lot_method>  (1) 
wb97xd

>  <lot_basis>  (1) 
def2tzvp

>  <spin_multiplicity>  (1) 
1.0

>  <optical_isomers>  (1) 
1.0

>  <modes>  (1) 
IdealGasTranslation(mass=(41.0266, 'amu')),         NonlinearRotor(             inertia = ([3.17088, 54.2986, 54.2986

>  <frequency_value>  (1) 
unknown

>  <frequency_units>  (1) 
unknown

>  <frequency_list>  (1) 
unknown

>  <arkane_path>  (1) 
/home/calvin/Dropbox/PersonalFolders/Calvin/ZEUS_Converged/rmg_rxn_15412/output/Species/rmg_rxn_15412_r2_CCtN/arkane/output.py

>  <path_exists>  (1) 
True

>  <E0_value>  (1) 
-348435.7290944858

>  <E0_units>  (1) 
kJ/mol

>  <thermo_class>  (1) 
NASA

>  <Cp0_value>  (1) 
33.257888

>  <Cp0_units>  (1) 
J/(mol*K)

>  <CpInf_value>  (1) 
133.031552

>  <CpInf_units>  (1) 
J/(mol*K)

>  <Tmin_value>  (1) 
10.0

>  <Tmin_units>  (1) 
K

>  <Tmax_value>  (1) 
3000.0

>  <Tmax_units>  (1) 
K

>  <polynomials>  (1) 
[{"name": "polynomial1", "class": "NASAPolynomial", "Tmin_value": 10.0, "Tmin_units": "K", "Tmax_value": 511.0047217811454, "Tmax_units": "K", "coeffs": [3.9891826765760365, 0.0005009089420291138, 3.81914805026896e-05, -5.897492548510201e-08, 2.9733594077892804e-11, -41907137.48145763, 5.038698918911015]}, {"name": "polynomial2", "class": "NASAPolynomial", "Tmin_value": 511.0047217811454, "Tmin_units": "K", "Tmax_value": 3000.0, "Tmax_units": "K", "coeffs": [1.9459503138127907, 0.016494897079574664, -8.757595355908857e-06, 2.2763036875881413e-09, -2.327551492775615e-13, -41906928.66307153, 13.524317380785753]}]

>  <H298_value>  (1) 
-83275.2633014586

>  <H298_units>  (1) 
kcal/mol

>  <S298_value>  (1) 
57.92485573002877

>  <S298_units>  (1) 
cal/(mol*K)

>  <Cp_T_value_list>  (1) 
[12.37077326759869, 14.480710005326102, 16.442129136256206, 18.18625963405398, 21.078573448235012, 23.303574339623086, 26.803259226518527, 28.599299992988165, 29.480842343276066]

>  <Cp_T_units>  (1) 
cal/(mol*K)

>  <T_list>  (1) 
[300.0, 400.0, 500.0, 600.0, 800.0, 1000.0, 1500.0, 2000.0, 2400.0]

>  <T_units>  (1) 
K

>  <yaml_path>  (1) 
/home/calvin/Dropbox/PersonalFolders/Calvin/ZEUS_Converged/rmg_rxn_15412/output/Species/rmg_rxn_15412_r2_CCtN/rmg_rxn_15412_r2_CCtN.yml

>  <frequencies_cm1>  (1) 
[383.692804755, 383.87134637331997, 927.5237071724, 1053.3268782348, 1053.59469066228, 1399.2855986564, 1460.8824569768, 1461.14340241896, 2373.9992289478396, 3039.28650072008, 3120.96242411616, 3121.60792073624]

>  <ZPE_kJmol>  (1) 
118.30578452478277

>  <E_elec_kJmol>  (1) 
-348554.0348790106

>  <E0_minus_Eelec_plus_ZPE_kJmol>  (1) 
0.0

>  <rxn>  (1) 
rmg_rxn_15412

>  <species_type>  (1) 
r1

>  <species_folder>  (1) 
rmg_rxn_15412_r2_CCtN

>  <frequencies_cm1_list>  (1) 
[383.692804755, 383.87134637331997, 927.5237071724, 1053.3268782348, 1053.59469066228, 1399.2855986564, 1460.8824569768, 1461.14340241896, 2373.9992289478396, 3039.28650072008, 3120.96242411616, 3121.60792073624]

>  <E0_kJmol>  (1) 
-348436

>  <H298_kJmol>  (1) 
-348424

$$$$

     RDKit          3D

  6  5  0  0  0  0  0  0  0  0999 V2000
   -0.7750   -0.6970    0.3578 O   0  0  0  0  0  0  0  0  0  1  0  0
    0.4660   -0.1360    0.0768 N   0  0  0  0  0  0  0  0  0  2  0  0
    0.4280    0.9597   -0.4999 C   0  0  0  0  0  0  0  0  0  3  0  0
   -0.5465   -1.5216    0.7941 H   0  0  0  0  0  0  0  0  0  4  0  0
   -0.4194    1.5606   -0.8255 H   0  0  0  0  0  0  0  0  0  5  0  0
    1.4158    1.3694   -0.7042 H   0  0  0  0  0  0  0  0  0  6  0  0
  1  4  1  0
  1  2  1  0
  2  3  1  0
  3  6  1  0
  3  5  1  0
M  END
>  <rmg_smiles>  (2) 
[CH2][N]O

>  <rmg_adjacency_list>  (2) 
1 O u0 p2 c0 {2,S} {6,S}
2 N u0 p1 c0 {1,S} {3,S}
3 C u0 p0 c0 {2,S} {4,S} {5,S}
4 H u0 p0 c0 {3,S}
5 H u0 p0 c0 {3,S}
6 H u0 p0 c0 {1,S}


>  <multiplicity>  (2) 
1

>  <reaction>  (2) 
rmg_rxn_15412

>  <type>  (2) 
r2h

>  <role_mapnums>  (2) 
{"r2h_a": 3, "r2h_h": 6}

>  <role_mapidx>  (2) 
{"r2h_a": 2, "r2h_h": 5}

>  <ordered_mapped_smiles>  (2) 
[O:1]([NH:2][CH:3]([H:5])[H:6])[H:4]

>  <mol_properties>  (2) 
{"2": {"label": "acceptor", "atom_type": "Cs"}, "5": {"label": "a_hydrogen", "atom_type": "H0"}}

>  <level_of_theory>  (2) 
wb97xd/def2tzvp

>  <lot_method>  (2) 
wb97xd

>  <lot_basis>  (2) 
def2tzvp

>  <spin_multiplicity>  (2) 
1.0

>  <optical_isomers>  (2) 
1.0

>  <modes>  (2) 
IdealGasTranslation(mass=(45.0215, 'amu')),         NonlinearRotor(             inertia = ([7.10552, 42.1368, 49.2423

>  <frequency_value>  (2) 
unknown

>  <frequency_units>  (2) 
unknown

>  <frequency_list>  (2) 
unknown

>  <arkane_path>  (2) 
/home/calvin/Dropbox/PersonalFolders/Calvin/ZEUS_Converged/rmg_rxn_15412/output/Species/rmg_rxn_15412_p1_ON=C/arkane/output.py

>  <path_exists>  (2) 
True

>  <E0_value>  (2) 
-445765.04652910994

>  <E0_units>  (2) 
kJ/mol

>  <thermo_class>  (2) 
NASA

>  <Cp0_value>  (2) 
33.257888

>  <Cp0_units>  (2) 
J/(mol*K)

>  <CpInf_value>  (2) 
133.031552

>  <CpInf_units>  (2) 
J/(mol*K)

>  <Tmin_value>  (2) 
10.0

>  <Tmin_units>  (2) 
K

>  <Tmax_value>  (2) 
3000.0

>  <Tmax_units>  (2) 
K

>  <polynomials>  (2) 
[{"name": "polynomial1", "class": "NASAPolynomial", "Tmin_value": 10.0, "Tmin_units": "K", "Tmax_value": 555.0008285415723, "Tmax_units": "K", "coeffs": [4.0729558966761115, -0.006525504673073184, 8.044401869233928e-05, -1.3643340673050255e-07, 7.605604608176978e-11, -53613151.050707266, 6.598063650688069]}, {"name": "polynomial2", "class": "NASAPolynomial", "Tmin_value": 555.0008285415723, "Tmin_units": "K", "Tmax_value": 3000.0, "Tmax_units": "K", "coeffs": [1.9629419554542669, 0.01794293278685335, -1.0716899102514014e-05, 3.1351804200574135e-09, -3.5588210478784073e-13, -53613059.472560614, 14.250328412630774]}]

>  <H298_value>  (2) 
-106537.6194767193

>  <H298_units>  (2) 
kcal/mol

>  <S298_value>  (2) 
60.36296822828259

>  <S298_units>  (2) 
cal/(mol*K)

>  <Cp_T_value_list>  (2) 
[12.494795700177992, 15.001608210431446, 17.130783734283074, 18.881829280437152, 21.69615330289245, 23.7834318087242, 26.9145239767162, 28.553257692891545, 29.47039525924992]

>  <Cp_T_units>  (2) 
cal/(mol*K)

>  <T_list>  (2) 
[300.0, 400.0, 500.0, 600.0, 800.0, 1000.0, 1500.0, 2000.0, 2400.0]

>  <T_units>  (2) 
K

>  <yaml_path>  (2) 
/home/calvin/Dropbox/PersonalFolders/Calvin/ZEUS_Converged/rmg_rxn_15412/output/Species/rmg_rxn_15412_p1_ON=C/rmg_rxn_15412_p1_ON=C.yml

>  <frequencies_cm1>  (2) 
[438.20980121048, 539.7244451960399, 801.7205361099999, 965.59427378648, 986.4836431299199, 1183.2914424011199, 1353.5034075279598, 1444.4016922088, 1728.97643085492, 3083.6403589019596, 3214.03754314344, 3841.1169085952]

>  <ZPE_kJmol>  (2) 
117.11863122037906

>  <E_elec_kJmol>  (2) 
-445882.1651603303

>  <E0_minus_Eelec_plus_ZPE_kJmol>  (2) 
0.0

>  <rxn>  (2) 
rmg_rxn_15412

>  <species_type>  (2) 
p0

>  <species_folder>  (2) 
rmg_rxn_15412_p1_ON=C

>  <frequencies_cm1_list>  (2) 
[438.20980121048, 539.7244451960399, 801.7205361099999, 965.59427378648, 986.4836431299199, 1183.2914424011199, 1353.5034075279598, 1444.4016922088, 1728.97643085492, 3083.6403589019596, 3214.03754314344, 3841.1169085952]

>  <E0_kJmol>  (2) 
-445765

>  <H298_kJmol>  (2) 
-445753

$$$$

     RDKit          3D

 11  9  0  0  0  0  0  0  0  0999 V2000
   -2.0670   -1.8607    1.4111 O   0  0  0  0  0  0  0  0  0  1  0  0
   -0.8261   -1.2998    1.1301 N   0  0  0  0  0  0  0  0  0  2  0  0
   -0.8640   -0.2040    0.5534 C   0  0  0  0  0  3  0  0  0  3  0  0
   -1.8386   -2.6853    1.8474 H   0  0  0  0  0  0  0  0  0  4  0  0
   -1.7114    0.3968    0.2278 H   0  0  0  0  0  0  0  0  0  5  0  0
    1.5912    0.7533    0.0777 C   0  0  0  0  0  0  0  0  0  6  0  0
    1.4682    2.0140   -0.5868 C   0  0  0  0  0  0  0  0  0  7  0  0
    1.3165    3.0223   -1.1188 N   0  0  0  0  0  0  0  0  0  8  0  0
    0.4021    0.3211    0.2915 H   0  0  0  0  0  0  0  0  0  9  0  0
    2.0512   -0.0174   -0.5349 H   0  0  0  0  0  0  0  0  0 10  0  0
    2.0331    0.8255    1.0677 H   0  0  0  0  0  0  0  0  0 11  0  0
  1  4  1  0
  1  2  1  0
  2  3  1  0
  3  5  1  0
  6  9  1  0
  6  7  1  0
  6 11  1  0
  6 10  1  0
  7  8  1  0
M  RAD  1   3   2
M  END
>  <rmg_smiles>  (3) 
[CH][N]O.C[C][N]

>  <rmg_adjacency_list>  (3) 
multiplicity 2
1  O u0 p2 c0 {2,S} {10,S}
2  N u0 p1 c0 {1,S} {6,S}
3  N u0 p2 c0 {5,S}
4  C u0 p0 c0 {5,S} {7,S} {8,S} {9,S}
5  C u0 p1 c0 {3,S} {4,S}
6  C u1 p1 c0 {2,S} {11,S}
7  H u0 p0 c0 {4,S}
8  H u0 p0 c0 {4,S}
9  H u0 p0 c0 {4,S}
10 H u0 p0 c0 {1,S}
11 H u0 p0 c0 {6,S}


>  <multiplicity>  (3) 
2

>  <reaction>  (3) 
rmg_rxn_15412

>  <type>  (3) 
ts

>  <role_mapnums>  (3) 
{"*2": 9, "*1": 6, "*3": 3, "*0": 7, "*4": 2}

>  <role_mapidx>  (3) 
{"*2": 8, "*1": 5, "*3": 2, "*0": 6, "*4": 1}

>  <ordered_mapped_smiles>  (3) 
[O:1]([NH:2][CH:3][H:5])[H:4].[C:6]([CH2:7][NH2:8])([H:9])([H:10])[H:11]

>  <mol_properties>  (3) 
{"1": {"label": "*4", "atom_type": "N3s"}, "2": {"label": "*3", "atom_type": "C2s"}, "5": {"label": "*1", "atom_type": "Cs"}, "6": {"label": "*0", "atom_type": "C2s"}, "8": {"label": "*2", "atom_type": "H0"}}

>  <level_of_theory>  (3) 
wb97xd/def2tzvp

>  <lot_method>  (3) 
wb97xd

>  <lot_basis>  (3) 
def2tzvp

>  <spin_multiplicity>  (3) 
2.0

>  <optical_isomers>  (3) 
1.0

>  <modes>  (3) 
IdealGasTranslation(mass=(85.0402, 'amu')),         NonlinearRotor(             inertia = ([33.2621, 487.173, 517.128

>  <frequency_value>  (3) 
-1650.13

>  <frequency_units>  (3) 
cm^-1

>  <frequency_list>  (3) 
unknown

>  <arkane_path>  (3) 
/home/calvin/Dropbox/PersonalFolders/Calvin/ZEUS_Converged/rmg_rxn_15412/output/rxns/TS0/arkane/output.py

>  <path_exists>  (3) 
True

>  <E0_value>  (3) 
-792407.0

>  <E0_units>  (3) 
kJ/mol

>  <thermo_class>  (3) 
unknown

>  <Cp0_value>  (3) 
unknown

>  <Cp0_units>  (3) 
unknown

>  <CpInf_value>  (3) 
unknown

>  <CpInf_units>  (3) 
unknown

>  <Tmin_value>  (3) 
unknown

>  <Tmin_units>  (3) 
unknown

>  <Tmax_value>  (3) 
unknown

>  <Tmax_units>  (3) 
unknown

>  <polynomials>  (3) 
unknown

>  <H298_value>  (3) 
unknown

>  <H298_units>  (3) 
unknown

>  <S298_value>  (3) 
unknown

>  <S298_units>  (3) 
unknown

>  <Cp_T_value_list>  (3) 
unknown

>  <Cp_T_units>  (3) 
unknown

>  <T_list>  (3) 
unknown

>  <T_units>  (3) 
unknown

>  <yaml_path>  (3) 
unknown

>  <frequencies_cm1>  (3) 
unknown

>  <ZPE_kJmol>  (3) 
unknown

>  <E_elec_kJmol>  (3) 
unknown

>  <E0_minus_Eelec_plus_ZPE_kJmol>  (3) 
unknown

>  <rxn>  (3) 
unknown

>  <species_type>  (3) 
unknown

>  <species_folder>  (3) 
unknown

>  <frequencies_cm1_list>  (3) 
[]

>  <ts_imag_freq_cm1>  (3) 
-1670.1683

>  <ts_freq_out_path>  (3) 
/home/calvin/Dropbox/PersonalFolders/Calvin/ZEUS_Converged/rmg_rxn_15412/output/rxns/TS0/geometry/freq.out

>  <E0_kJmol>  (3) 
-792407

>  <H298_kJmol>  (3) 
unknown

$$$$

     RDKit          3D

  5  4  0  0  0  0  0  0  0  0999 V2000
   -0.5684   -0.0010    0.0059 C   0  0  0  0  0  0  0  0  0  1  0  0
    0.8107    0.0015   -0.0083 C   0  0  0  0  0  0  0  0  0  2  0  0
    1.9722    0.0036   -0.0203 N   0  0  0  0  0  2  0  0  0  3  0  0
   -1.1085    0.9327    0.0554 H   0  0  0  0  0  0  0  0  0  4  0  0
   -1.1060   -0.9368   -0.0326 H   0  0  0  0  0  0  0  0  0  5  0  0
  1  5  1  0
  1  4  1  0
  1  2  1  0
  2  3  1  0
M  RAD  1   3   2
M  END
>  <rmg_smiles>  (4) 
[CH2][C][N]

>  <rmg_adjacency_list>  (4) 
multiplicity 2
1 N u1 p2 c0 {3,S}
2 C u0 p0 c0 {3,S} {4,S} {5,S}
3 C u0 p1 c0 {1,S} {2,S}
4 H u0 p0 c0 {2,S}
5 H u0 p0 c0 {2,S}


>  <multiplicity>  (4) 
2

>  <reaction>  (4) 
rmg_rxn_15412

>  <type>  (4) 
r1

>  <role_mapnums>  (4) 
{}

>  <role_mapidx>  (4) 
{}

>  <ordered_mapped_smiles>  (4) 
[CH:1]([CH2:2][NH:3])([H:4])[H:5]

>  <level_of_theory>  (4) 
wb97xd/def2tzvp

>  <lot_method>  (4) 
wb97xd

>  <lot_basis>  (4) 
def2tzvp

>  <spin_multiplicity>  (4) 
2.0

>  <optical_isomers>  (4) 
1.0

>  <modes>  (4) 
IdealGasTranslation(mass=(40.0187, 'amu')),         NonlinearRotor(             inertia = ([1.76513, 48.7017, 50.4668

>  <frequency_value>  (4) 
unknown

>  <frequency_units>  (4) 
unknown

>  <frequency_list>  (4) 
unknown

>  <arkane_path>  (4) 
/home/calvin/Dropbox/PersonalFolders/Calvin/ZEUS_Converged/rmg_rxn_15412/output/Species/rmg_rxn_15412_p2_C=C=sbr-N-sbr/arkane/output.py

>  <path_exists>  (4) 
True

>  <E0_value>  (4) 
-346728.38264853635

>  <E0_units>  (4) 
kJ/mol

>  <thermo_class>  (4) 
NASA

>  <Cp0_value>  (4) 
33.257888

>  <Cp0_units>  (4) 
J/(mol*K)

>  <CpInf_value>  (4) 
108.088136

>  <CpInf_units>  (4) 
J/(mol*K)

>  <Tmin_value>  (4) 
10.0

>  <Tmin_units>  (4) 
K

>  <Tmax_value>  (4) 
3000.0

>  <Tmax_units>  (4) 
K

>  <polynomials>  (4) 
[{"name": "polynomial1", "class": "NASAPolynomial", "Tmin_value": 10.0, "Tmin_units": "K", "Tmax_value": 527.0040671405167, "Tmax_units": "K", "coeffs": [3.9747449037282667, 0.0015353266756051366, 3.910302806424709e-05, -7.628994234029245e-08, 4.625865338238857e-11, -41701791.02109744, 5.577294410619089]}, {"name": "polynomial2", "class": "NASAPolynomial", "Tmin_value": 527.0040671405167, "Tmin_units": "K", "Tmax_value": 3000.0, "Tmax_units": "K", "coeffs": [3.239686817488942, 0.012530223097608446, -7.6062340101612755e-06, 2.2976789442675366e-09, -2.720349597801524e-13, -41701788.75209308, 7.939154814916592]}]

>  <H298_value>  (4) 
-82867.15118152696

>  <H298_units>  (4) 
kcal/mol

>  <S298_value>  (4) 
59.28592081605119

>  <S298_units>  (4) 
cal/(mol*K)

>  <Cp_T_value_list>  (4) 
[12.458755549788354, 14.202615101020045, 15.645452255252858, 16.852741911548225, 18.800685733817065, 20.248282724582875, 22.45242163881558, 23.65584364189494, 24.31935565202786]

>  <Cp_T_units>  (4) 
cal/(mol*K)

>  <T_list>  (4) 
[300.0, 400.0, 500.0, 600.0, 800.0, 1000.0, 1500.0, 2000.0, 2400.0]

>  <T_units>  (4) 
K

>  <yaml_path>  (4) 
/home/calvin/Dropbox/PersonalFolders/Calvin/ZEUS_Converged/rmg_rxn_15412/output/Species/rmg_rxn_15412_p2_C=C=sbr-N-sbr/rmg_rxn_15412_p2_C=C=sbr-N-sbr.yml

>  <frequencies_cm1>  (4) 
[384.97006402451996, 436.79520223456, 664.47696750448, 1026.5799704134, 1046.4118240175599, 1433.3733137848799, 2141.73031748416, 3149.6183538565197, 3258.5150070610794]

>  <ZPE_kJmol>  (4) 
81.00198818833644

>  <E_elec_kJmol>  (4) 
-346809.3846367247

>  <E0_minus_Eelec_plus_ZPE_kJmol>  (4) 
0.0

>  <rxn>  (4) 
rmg_rxn_15412

>  <species_type>  (4) 
p1

>  <species_folder>  (4) 
rmg_rxn_15412_p2_C=C=sbr-N-sbr

>  <frequencies_cm1_list>  (4) 
[384.97006402451996, 436.79520223456, 664.47696750448, 1026.5799704134, 1046.4118240175599, 1433.3733137848799, 2141.73031748416, 3149.6183538565197, 3258.5150070610794]

>  <E0_kJmol>  (4) 
-346728

>  <H298_kJmol>  (4) 
-346716

$$$$

     RDKit          3D

  5  4  0  0  0  0  0  0  0  0999 V2000
    0.8934    0.3742    0.4948 O   0  0  0  0  0  0  0  0  0  1  0  0
    0.1582   -0.1610   -0.5904 N   0  0  0  0  0  0  0  0  0  2  0  0
   -1.0297   -0.3739   -0.4689 C   0  0  0  0  0  3  0  0  0  3  0  0
    1.7804    0.4382    0.1306 H   0  0  0  0  0  0  0  0  0  4  0  0
   -1.8023   -0.2775    0.2859 H   0  0  0  0  0  0  0  0  0  5  0  0
  1  4  1  0
  1  2  1  0
  2  3  1  0
  3  5  1  0
M  RAD  1   3   2
M  END
>  <rmg_smiles>  (5) 
[CH][N]O

>  <rmg_adjacency_list>  (5) 
multiplicity 2
1 O u0 p2 c0 {2,S} {4,S}
2 N u0 p1 c0 {1,S} {3,S}
3 C u1 p1 c0 {2,S} {5,S}
4 H u0 p0 c0 {1,S}
5 H u0 p0 c0 {3,S}


>  <multiplicity>  (5) 
2

>  <reaction>  (5) 
rmg_rxn_15412

>  <type>  (5) 
r2

>  <role_mapnums>  (5) 
{}

>  <role_mapidx>  (5) 
{}

>  <ordered_mapped_smiles>  (5) 
[O:1]([NH:2][CH:3][H:5])[H:4]

>  <level_of_theory>  (5) 
wb97xd/def2tzvp

>  <lot_method>  (5) 
wb97xd

>  <lot_basis>  (5) 
def2tzvp

>  <spin_multiplicity>  (5) 
2.0

>  <optical_isomers>  (5) 
1.0

>  <modes>  (5) 
IdealGasTranslation(mass=(44.0136, 'amu')),         NonlinearRotor(inertia=([5.8161, 41.482, 47.298

>  <frequency_value>  (5) 
unknown

>  <frequency_units>  (5) 
unknown

>  <frequency_list>  (5) 
unknown

>  <arkane_path>  (5) 
/home/calvin/Dropbox/PersonalFolders/Calvin/ZEUS_Converged/rmg_rxn_15412/output/Species/rmg_rxn_15412_r1_ON=sbr-CH-sbr/arkane/output.py

>  <path_exists>  (5) 
True

>  <E0_value>  (5) 
-444005.3444875403

>  <E0_units>  (5) 
kJ/mol

>  <thermo_class>  (5) 
NASA

>  <Cp0_value>  (5) 
33.257888

>  <Cp0_units>  (5) 
J/(mol*K)

>  <CpInf_value>  (5) 
108.088136

>  <CpInf_units>  (5) 
J/(mol*K)

>  <Tmin_value>  (5) 
10.0

>  <Tmin_units>  (5) 
K

>  <Tmax_value>  (5) 
3000.0

>  <Tmax_units>  (5) 
K

>  <polynomials>  (5) 
[{"name": "polynomial1", "class": "NASAPolynomial", "Tmin_value": 10.0, "Tmin_units": "K", "Tmax_value": 582.3897944984312, "Tmax_units": "K", "coeffs": [3.9652725251487997, 0.0020023225588121428, 4.0599056262928875e-05, -7.75899274364692e-08, 4.4513181050887496e-11, -53401506.385814846, 6.827044892789236]}, {"name": "polynomial2", "class": "NASAPolynomial", "Tmin_value": 582.3897944984312, "Tmin_units": "K", "Tmax_value": 3000.0, "Tmax_units": "K", "coeffs": [3.5772944330084147, 0.012861032030441071, -8.472942585347425e-06, 2.741567682664952e-09, -3.4073253039207466e-13, -53401600.15572128, 7.296045717872725]}]

>  <H298_value>  (5) 
-106116.8465159924

>  <H298_units>  (5) 
kcal/mol

>  <S298_value>  (5) 
62.04111940413777

>  <S298_units>  (5) 
cal/(mol*K)

>  <Cp_T_value_list>  (5) 
[12.888053758950505, 14.776534941782554, 16.29416082392464, 17.47087173516364, 19.290917222749155, 20.599817847495114, 22.5201252902908, 23.62472390428687, 24.312211768096834]

>  <Cp_T_units>  (5) 
cal/(mol*K)

>  <T_list>  (5) 
[300.0, 400.0, 500.0, 600.0, 800.0, 1000.0, 1500.0, 2000.0, 2400.0]

>  <T_units>  (5) 
K

>  <yaml_path>  (5) 
/home/calvin/Dropbox/PersonalFolders/Calvin/ZEUS_Converged/rmg_rxn_15412/output/Species/rmg_rxn_15412_r1_ON=sbr-CH-sbr/rmg_rxn_15412_r1_ON=sbr-CH-sbr.yml

>  <frequencies_cm1>  (5) 
[408.41395190699996, 412.06718809724, 739.15543285948, 761.7272136063199, 904.39570061464, 1348.7789216278, 1755.3113195571198, 3153.319658944, 3818.4558570392]

>  <ZPE_kJmol>  (5) 
79.5614101222066

>  <E_elec_kJmol>  (5) 
-444084.9058976625

>  <E0_minus_Eelec_plus_ZPE_kJmol>  (5) 
0.0

>  <rxn>  (5) 
rmg_rxn_15412

>  <species_type>  (5) 
r0

>  <species_folder>  (5) 
rmg_rxn_15412_r1_ON=sbr-CH-sbr

>  <frequencies_cm1_list>  (5) 
[408.41395190699996, 412.06718809724, 739.15543285948, 761.7272136063199, 904.39570061464, 1348.7789216278, 1755.3113195571198, 3153.319658944, 3818.4558570392]

>  <E0_kJmol>  (5) 
-444005

>  <H298_kJmol>  (5) 
-443993

$$$$
