
     RDKit          3D

 18 17  0  0  0  0  0  0  0  0999 V2000
    0.2138   -2.1917   -1.2771 C   0  0  0  0  0  0  0  0  0  1  0  0
    0.7150   -1.8666    0.1236 C   0  0  0  0  0  0  0  0  0  2  0  0
    0.9648   -0.3897    0.3411 C   0  0  0  0  0  0  0  0  0  3  0  0
   -0.2514    0.3138    0.1964 O   0  0  0  0  0  0  0  0  0  4  0  0
   -0.1546    1.6654    0.4634 C   0  0  0  0  0  0  0  0  0  5  0  0
   -1.4410    2.3722    0.1535 C   0  0  0  0  0  0  0  0  0  6  0  0
    0.9354   -1.8730   -2.0332 H   0  0  0  0  0  0  0  0  0  7  0  0
   -0.7297   -1.6845   -1.4790 H   0  0  0  0  0  0  0  0  0  8  0  0
    0.0556   -3.2643   -1.3964 H   0  0  0  0  0  0  0  0  0  9  0  0
    1.6515   -2.3953    0.3207 H   0  0  0  0  0  0  0  0  0 10  0  0
   -0.0054   -2.2108    0.8703 H   0  0  0  0  0  0  0  0  0 11  0  0
    1.6955   -0.0101   -0.3879 H   0  0  0  0  0  0  0  0  0 12  0  0
    1.3757   -0.2134    1.3434 H   0  0  0  0  0  0  0  0  0 13  0  0
    0.0123    1.7587    1.5442 H   0  0  0  0  0  0  0  0  0 14  0  0
    0.7304    2.1214    0.0012 H   0  0  0  0  0  0  0  0  0 15  0  0
   -2.2641    1.9312    0.7188 H   0  0  0  0  0  0  0  0  0 16  0  0
   -1.6840    2.3018   -0.9097 H   0  0  0  0  0  0  0  0  0 17  0  0
   -1.3637    3.4270    0.4205 H   0  0  0  0  0  0  0  0  0 18  0  0
  1  8  1  0
  1  7  1  0
  1  9  1  0
  1  2  1  0
  2 10  1  0
  2 11  1  0
  2  3  1  0
  3  4  1  0
  3 13  1  0
  3 12  1  0
  4  5  1  0
  5  6  1  0
  5 14  1  0
  5 15  1  0
  6 17  1  0
  6 18  1  0
  6 16  1  0
M  END
>  <rmg_smiles>  (1) 
CCCOCC

>  <rmg_adjacency_list>  (1) 
1  O u0 p2 c0 {3,S} {4,S}
2  C u0 p0 c0 {3,S} {5,S} {7,S} {8,S}
3  C u0 p0 c0 {1,S} {2,S} {9,S} {10,S}
4  C u0 p0 c0 {1,S} {6,S} {11,S} {12,S}
5  C u0 p0 c0 {2,S} {13,S} {14,S} {15,S}
6  C u0 p0 c0 {4,S} {16,S} {17,S} {18,S}
7  H u0 p0 c0 {2,S}
8  H u0 p0 c0 {2,S}
9  H u0 p0 c0 {3,S}
10 H u0 p0 c0 {3,S}
11 H u0 p0 c0 {4,S}
12 H u0 p0 c0 {4,S}
13 H u0 p0 c0 {5,S}
14 H u0 p0 c0 {5,S}
15 H u0 p0 c0 {5,S}
16 H u0 p0 c0 {6,S}
17 H u0 p0 c0 {6,S}
18 H u0 p0 c0 {6,S}


>  <multiplicity>  (1) 
1

>  <reaction>  (1) 
rmg_rxn_289

>  <type>  (1) 
r1h

>  <role_mapnums>  (1) 
{"r1h_a": 5, "r1h_h": 14}

>  <role_mapidx>  (1) 
{"r1h_a": 4, "r1h_h": 13}

>  <ordered_mapped_smiles>  (1) 
[C:1]([C:2]([C:3]([O:4][C:5]([C:6]([H:16])([H:17])[H:18])([H:14])[H:15])([H:12])[H:13])([H:10])[H:11])([H:7])([H:8])[H:9]

>  <mol_properties>  (1) 
{"4": {"label": "donator", "atom_type": "Cs"}, "13": {"label": "d_hydrogen", "atom_type": "H0"}}

>  <level_of_theory>  (1) 
wb97xd/def2tzvp

>  <lot_method>  (1) 
wb97xd

>  <lot_basis>  (1) 
def2tzvp

>  <spin_multiplicity>  (1) 
1.0

>  <optical_isomers>  (1) 
2.0

>  <modes>  (1) 
IdealGasTranslation(mass=(88.0888, 'amu')),         NonlinearRotor(             inertia = ([59.5652, 317.445, 349.634

>  <frequency_value>  (1) 
unknown

>  <frequency_units>  (1) 
unknown

>  <frequency_list>  (1) 
unknown

>  <arkane_path>  (1) 
/home/calvin/Dropbox/PersonalFolders/Calvin/ATLAS_Converged/rmg_rxn_289/output/Species/rmg_rxn_289_r2_CCCOCC/arkane/output.py

>  <path_exists>  (1) 
True

>  <E0_value>  (1) 
-716327.3605709573

>  <E0_units>  (1) 
kJ/mol

>  <thermo_class>  (1) 
NASA

>  <Cp0_value>  (1) 
33.257888

>  <Cp0_units>  (1) 
J/(mol*K)

>  <CpInf_value>  (1) 
432.352544

>  <CpInf_units>  (1) 
J/(mol*K)

>  <Tmin_value>  (1) 
10.0

>  <Tmin_units>  (1) 
K

>  <Tmax_value>  (1) 
3000.0

>  <Tmax_units>  (1) 
K

>  <polynomials>  (1) 
[{"name": "polynomial1", "class": "NASAPolynomial", "Tmin_value": 10.0, "Tmin_units": "K", "Tmax_value": 424.14701041358796, "Tmax_units": "K", "coeffs": [3.4707042336928127, 0.05746545203879795, -0.00016719847115372115, 4.780470157694204e-07, -4.3347206706639054e-10, -86154279.58985142, 11.635447004604476]}, {"name": "polynomial2", "class": "NASAPolynomial", "Tmin_value": 424.14701041358796, "Tmin_units": "K", "Tmax_value": 3000.0, "Tmax_units": "K", "coeffs": [-2.8535624465972114, 0.06921008708460846, -3.934323609424939e-05, 1.0841890934368647e-08, -1.163418506360095e-12, -86153312.26572455, 41.80111524234505]}]

>  <H298_value>  (1) 
-171200.6815246165

>  <H298_units>  (1) 
kcal/mol

>  <S298_value>  (1) 
88.37399878129293

>  <S298_units>  (1) 
cal/(mol*K)

>  <Cp_T_value_list>  (1) 
[29.924593767526826, 38.16083070533892, 46.09960348181722, 53.05840207682852, 64.40406715451496, 72.91410593462665, 85.72980278110597, 92.03567805993791, 95.21197800865355]

>  <Cp_T_units>  (1) 
cal/(mol*K)

>  <T_list>  (1) 
[300.0, 400.0, 500.0, 600.0, 800.0, 1000.0, 1500.0, 2000.0, 2400.0]

>  <T_units>  (1) 
K

>  <yaml_path>  (1) 
/home/calvin/Dropbox/PersonalFolders/Calvin/ATLAS_Converged/rmg_rxn_289/output/Species/rmg_rxn_289_r2_CCCOCC/rmg_rxn_289_r2_CCCOCC.yml

>  <frequencies_cm1>  (1) 
[76.60808822992, 85.88538539723999, 152.39213822143998, 171.44115549912, 250.05440344247998, 256.05614861216003, 329.51915756551995, 440.0707542322, 493.7774464199199, 767.98990421816, 823.02879155796, 891.3896304185598, 900.4815189822399, 929.41899512072, 1002.9850088538799, 1082.00340893112, 1102.9065122452, 1152.52734816752, 1174.9617892079598, 1182.44680320676, 1190.2339645596398, 1270.1176047871998, 1295.23017010244, 1305.6473868328799, 1368.30176089256, 1380.4425909383199, 1399.7456866728398, 1405.4521514737598, 1443.92787022172, 1468.7794900948002, 1470.37949767436, 1482.5752636026798, 1487.2448136202797, 1494.6336898246, 1500.58049911172, 1519.49904366832, 2928.8997117010795, 2942.5512785172396, 2962.4655359452395, 2968.54281795344, 3015.14904732028, 3021.7276192568397, 3024.0692612509597, 3058.7338031463196, 3085.2403664815197, 3101.8035350733594, 3104.27564978856, 3105.2988306012394]

>  <ZPE_kJmol>  (1) 
431.0594598774012

>  <E_elec_kJmol>  (1) 
-716758.4200308347

>  <E0_minus_Eelec_plus_ZPE_kJmol>  (1) 
0.0

>  <rxn>  (1) 
rmg_rxn_289

>  <species_type>  (1) 
r1

>  <species_folder>  (1) 
rmg_rxn_289_r2_CCCOCC

>  <frequencies_cm1_list>  (1) 
[76.60808822992, 85.88538539723999, 152.39213822143998, 171.44115549912, 250.05440344247998, 256.05614861216003, 329.51915756551995, 440.0707542322, 493.7774464199199, 767.98990421816, 823.02879155796, 891.3896304185598, 900.4815189822399, 929.41899512072, 1002.9850088538799, 1082.00340893112, 1102.9065122452, 1152.52734816752, 1174.9617892079598, 1182.44680320676, 1190.2339645596398, 1270.1176047871998, 1295.23017010244, 1305.6473868328799, 1368.30176089256, 1380.4425909383199, 1399.7456866728398, 1405.4521514737598, 1443.92787022172, 1468.7794900948002, 1470.37949767436, 1482.5752636026798, 1487.2448136202797, 1494.6336898246, 1500.58049911172, 1519.49904366832, 2928.8997117010795, 2942.5512785172396, 2962.4655359452395, 2968.54281795344, 3015.14904732028, 3021.7276192568397, 3024.0692612509597, 3058.7338031463196, 3085.2403664815197, 3101.8035350733594, 3104.27564978856, 3105.2988306012394]

>  <E0_kJmol>  (1) 
-716327

>  <H298_kJmol>  (1) 
-716304

$$$$

     RDKit          3D

 14 14  0  0  0  0  0  0  0  0999 V2000
    0.9227    0.0795   -1.0972 C   0  0  0  0  0  0  0  0  0  1  0  0
    0.1792    1.2832   -0.5836 C   0  0  0  0  0  0  0  0  0  2  0  0
   -0.1495    1.1102    0.7913 O   0  0  0  0  0  0  0  0  0  3  0  0
   -0.8687   -0.0703    0.9859 C   0  0  0  0  0  0  0  0  0  4  0  0
   -0.1579   -1.2131    0.6194 O   0  0  0  0  0  0  0  0  0  5  0  0
    0.1746   -1.1839   -0.7655 C   0  0  0  0  0  0  0  0  0  6  0  0
    1.9737    0.0584   -0.8148 H   0  0  0  0  0  0  0  0  0  7  0  0
    0.7688    2.1963   -0.6492 H   0  0  0  0  0  0  0  0  0  8  0  0
   -0.7504    1.4287   -1.1552 H   0  0  0  0  0  0  0  0  0  9  0  0
   -1.8115   -0.0237    0.4096 H   0  0  0  0  0  0  0  0  0 10  0  0
   -1.0790   -0.1479    2.0506 H   0  0  0  0  0  0  0  0  0 11  0  0
   -0.7495   -1.2456   -1.3599 H   0  0  0  0  0  0  0  0  0 12  0  0
    0.7615   -2.0798   -0.9622 H   0  0  0  0  0  0  0  0  0 13  0  0
    0.9133    0.1377   -2.1842 H   0  0  0  0  0  0  0  0  0 14  0  0
  1  7  1  0
  1  6  1  0
  1 14  1  0
  1  2  1  0
  2  9  1  0
  2  8  1  0
  2  3  1  0
  3  4  1  0
  4 11  1  0
  4 10  1  0
  4  5  1  0
  5  6  1  0
  6 12  1  0
  6 13  1  0
M  END
>  <rmg_smiles>  (2) 
C1COCOC1

>  <rmg_adjacency_list>  (2) 
1  O u0 p2 c0 {4,S} {6,S}
2  O u0 p2 c0 {5,S} {6,S}
3  C u0 p0 c0 {4,S} {5,S} {7,S} {8,S}
4  C u0 p0 c0 {1,S} {3,S} {9,S} {10,S}
5  C u0 p0 c0 {2,S} {3,S} {11,S} {12,S}
6  C u0 p0 c0 {1,S} {2,S} {13,S} {14,S}
7  H u0 p0 c0 {3,S}
8  H u0 p0 c0 {3,S}
9  H u0 p0 c0 {4,S}
10 H u0 p0 c0 {4,S}
11 H u0 p0 c0 {5,S}
12 H u0 p0 c0 {5,S}
13 H u0 p0 c0 {6,S}
14 H u0 p0 c0 {6,S}


>  <multiplicity>  (2) 
1

>  <reaction>  (2) 
rmg_rxn_289

>  <type>  (2) 
r2h

>  <role_mapnums>  (2) 
{"r2h_a": 1, "r2h_h": 14}

>  <role_mapidx>  (2) 
{"r2h_a": 0, "r2h_h": 13}

>  <ordered_mapped_smiles>  (2) 
[C:1]1([H:7])([H:14])[C:2]([H:8])([H:9])[O:3][C:4]([H:10])([H:11])[O:5][C:6]1([H:12])[H:13]

>  <mol_properties>  (2) 
{"0": {"label": "acceptor", "atom_type": "Cs"}, "13": {"label": "a_hydrogen", "atom_type": "H0"}}

>  <level_of_theory>  (2) 
wb97xd/def2tzvp

>  <lot_method>  (2) 
wb97xd

>  <lot_basis>  (2) 
def2tzvp

>  <spin_multiplicity>  (2) 
1.0

>  <optical_isomers>  (2) 
1.0

>  <modes>  (2) 
IdealGasTranslation(mass=(88.0524, 'amu')),         NonlinearRotor(             inertia = ([100.123, 103.988, 181.806

>  <frequency_value>  (2) 
unknown

>  <frequency_units>  (2) 
unknown

>  <frequency_list>  (2) 
unknown

>  <arkane_path>  (2) 
/home/calvin/Dropbox/PersonalFolders/Calvin/ATLAS_Converged/rmg_rxn_289/output/Species/rmg_rxn_289_p1_C1COCOC1/arkane/output.py

>  <path_exists>  (2) 
True

>  <E0_value>  (2) 
-807534.4862541369

>  <E0_units>  (2) 
kJ/mol

>  <thermo_class>  (2) 
NASA

>  <Cp0_value>  (2) 
33.257888

>  <Cp0_units>  (2) 
J/(mol*K)

>  <CpInf_value>  (2) 
332.57888

>  <CpInf_units>  (2) 
J/(mol*K)

>  <Tmin_value>  (2) 
10.0

>  <Tmin_units>  (2) 
K

>  <Tmax_value>  (2) 
3000.0

>  <Tmax_units>  (2) 
K

>  <polynomials>  (2) 
[{"name": "polynomial1", "class": "NASAPolynomial", "Tmin_value": 10.0, "Tmin_units": "K", "Tmax_value": 635.616554573151, "Tmax_units": "K", "coeffs": [4.089858497697602, -0.00720848048360332, 0.00016188875003168496, -2.401508213073996e-07, 1.1440937882219611e-10, -97123964.81365098, 9.940070949440356]}, {"name": "polynomial2", "class": "NASAPolynomial", "Tmin_value": 635.616554573151, "Tmin_units": "K", "Tmax_value": 3000.0, "Tmax_units": "K", "coeffs": [-3.6233751272420895, 0.05886750722676344, -3.5427870905530145e-05, 1.0209382893823142e-08, -1.1338653155444558e-12, -97123338.5127768, 40.87012283464024]}]

>  <H298_value>  (2) 
-193001.58453999052

>  <H298_units>  (2) 
kcal/mol

>  <S298_value>  (2) 
72.30963326519604

>  <S298_units>  (2) 
cal/(mol*K)

>  <Cp_T_value_list>  (2) 
[21.739931113059615, 29.14813400113705, 35.94765005011551, 41.73053828287379, 50.792135881792035, 57.413930600437965, 66.93239440365458, 71.40703402864166, 73.74460734469625]

>  <Cp_T_units>  (2) 
cal/(mol*K)

>  <T_list>  (2) 
[300.0, 400.0, 500.0, 600.0, 800.0, 1000.0, 1500.0, 2000.0, 2400.0]

>  <T_units>  (2) 
K

>  <yaml_path>  (2) 
/home/calvin/Dropbox/PersonalFolders/Calvin/ATLAS_Converged/rmg_rxn_289/output/Species/rmg_rxn_289_p1_C1COCOC1/rmg_rxn_289_p1_C1COCOC1.yml

>  <frequencies_cm1>  (2) 
[264.26219606955993, 269.44676998615995, 439.22611503784, 466.70779028847994, 494.62208561427997, 656.81341188736, 851.50617968, 900.41284912904, 919.12538412604, 926.80954069912, 1013.8966485273598, 1037.6289497932798, 1094.57685905204, 1112.95291176836, 1188.75069573052, 1216.28730686372, 1226.8487302858798, 1252.366447735, 1315.55644664964, 1328.3633742714399, 1363.72148168412, 1380.93701388136, 1404.8272558096398, 1432.53554157584, 1460.95799381532, 1489.42164796672, 1490.0946125280798, 1506.58911126672, 2894.63345495428, 2944.5289702893997, 2950.530715459079, 3031.06671929204, 3080.8454958767197, 3088.2893079635996, 3091.87387430064, 3110.9160245929997]

>  <ZPE_kJmol>  (2) 
321.1850391352071

>  <E_elec_kJmol>  (2) 
-807855.671293272

>  <E0_minus_Eelec_plus_ZPE_kJmol>  (2) 
0.0

>  <rxn>  (2) 
rmg_rxn_289

>  <species_type>  (2) 
p0

>  <species_folder>  (2) 
rmg_rxn_289_p1_C1COCOC1

>  <frequencies_cm1_list>  (2) 
[264.26219606955993, 269.44676998615995, 439.22611503784, 466.70779028847994, 494.62208561427997, 656.81341188736, 851.50617968, 900.41284912904, 919.12538412604, 926.80954069912, 1013.8966485273598, 1037.6289497932798, 1094.57685905204, 1112.95291176836, 1188.75069573052, 1216.28730686372, 1226.8487302858798, 1252.366447735, 1315.55644664964, 1328.3633742714399, 1363.72148168412, 1380.93701388136, 1404.8272558096398, 1432.53554157584, 1460.95799381532, 1489.42164796672, 1490.0946125280798, 1506.58911126672, 2894.63345495428, 2944.5289702893997, 2950.530715459079, 3031.06671929204, 3080.8454958767197, 3088.2893079635996, 3091.87387430064, 3110.9160245929997]

>  <E0_kJmol>  (2) 
-807534

>  <H298_kJmol>  (2) 
-807519

$$$$

     RDKit          3D

 31 30  0  0  0  0  0  0  0  0999 V2000
    0.4880    0.8906    1.0199 C   0  0  0  0  0  3  0  0  0  1  0  0
   -0.2554    2.0943    1.5336 C   0  0  0  0  0  0  0  0  0  2  0  0
   -0.5842    1.9213    2.9084 O   0  0  0  0  0  0  0  0  0  3  0  0
   -1.3033    0.7408    3.1030 C   0  0  0  0  0  0  0  0  0  4  0  0
   -0.5926   -0.4020    2.7366 O   0  0  0  0  0  0  0  0  0  5  0  0
   -0.2600   -0.3728    1.3516 C   0  0  0  0  0  0  0  0  0  6  0  0
    1.5391    0.8695    1.3024 H   0  0  0  0  0  0  0  0  0  7  0  0
    0.3342    3.0074    1.4680 H   0  0  0  0  0  0  0  0  0  8  0  0
   -1.1850    2.2398    0.9619 H   0  0  0  0  0  0  0  0  0  9  0  0
   -2.2461    0.7874    2.5268 H   0  0  0  0  0  0  0  0  0 10  0  0
   -1.5136    0.6632    4.1678 H   0  0  0  0  0  0  0  0  0 11  0  0
   -1.1841   -0.4345    0.7572 H   0  0  0  0  0  0  0  0  0 12  0  0
    0.3269   -1.2687    1.1550 H   0  0  0  0  0  0  0  0  0 13  0  0
    0.6466   -3.0009   -3.4201 C   0  0  0  0  0  0  0  0  0 14  0  0
    1.1479   -2.6759   -2.0194 C   0  0  0  0  0  0  0  0  0 15  0  0
    1.3977   -1.1990   -1.8019 C   0  0  0  0  0  0  0  0  0 16  0  0
    0.1815   -0.4954   -1.9466 O   0  0  0  0  0  0  0  0  0 17  0  0
    0.2783    0.8561   -1.6796 C   0  0  0  0  0  0  0  0  0 18  0  0
   -1.0081    1.5630   -1.9895 C   0  0  0  0  0  0  0  0  0 19  0  0
    1.3682   -2.6822   -4.1762 H   0  0  0  0  0  0  0  0  0 20  0  0
   -0.2968   -2.4938   -3.6219 H   0  0  0  0  0  0  0  0  0 21  0  0
    0.4885   -4.0735   -3.5394 H   0  0  0  0  0  0  0  0  0 22  0  0
    2.0843   -3.2046   -1.8223 H   0  0  0  0  0  0  0  0  0 23  0  0
    0.4274   -3.0201   -1.2727 H   0  0  0  0  0  0  0  0  0 24  0  0
    2.1283   -0.8194   -2.5309 H   0  0  0  0  0  0  0  0  0 25  0  0
    1.8086   -1.0227   -0.7996 H   0  0  0  0  0  0  0  0  0 26  0  0
    0.4758    0.9666   -0.4004 H   0  0  0  0  0  0  0  0  0 27  0  0
    1.1632    1.3122   -2.1418 H   0  0  0  0  0  0  0  0  0 28  0  0
   -1.8312    1.1219   -1.4242 H   0  0  0  0  0  0  0  0  0 29  0  0
   -1.2511    1.4925   -3.0527 H   0  0  0  0  0  0  0  0  0 30  0  0
   -0.9308    2.6178   -1.7225 H   0  0  0  0  0  0  0  0  0 31  0  0
  1  7  1  0
  1  6  1  0
  1  2  1  0
  2  8  1  0
  2  3  1  0
  2  9  1  0
  3  4  1  0
  4 10  1  0
  4 11  1  0
  4  5  1  0
  5  6  1  0
  6 12  1  0
  6 13  1  0
 14 15  1  0
 14 20  1  0
 14 22  1  0
 14 21  1  0
 15 23  1  0
 15 16  1  0
 15 24  1  0
 16 17  1  0
 16 26  1  0
 16 25  1  0
 17 18  1  0
 18 19  1  0
 18 28  1  0
 18 27  1  0
 19 31  1  0
 19 29  1  0
 19 30  1  0
M  RAD  1   1   2
M  END
>  <rmg_smiles>  (3) 
CCCOCC.[CH]1COCOC1

>  <rmg_adjacency_list>  (3) 
multiplicity 2
1  O u0 p2 c0 {5,S} {6,S}
2  O u0 p2 c0 {7,S} {11,S}
3  O u0 p2 c0 {8,S} {11,S}
4  C u0 p0 c0 {5,S} {9,S} {13,S} {14,S}
5  C u0 p0 c0 {1,S} {4,S} {15,S} {16,S}
6  C u0 p0 c0 {1,S} {10,S} {17,S} {18,S}
7  C u0 p0 c0 {2,S} {12,S} {19,S} {20,S}
8  C u0 p0 c0 {3,S} {12,S} {21,S} {22,S}
9  C u0 p0 c0 {4,S} {23,S} {24,S} {25,S}
10 C u0 p0 c0 {6,S} {26,S} {27,S} {28,S}
11 C u0 p0 c0 {2,S} {3,S} {29,S} {30,S}
12 C u1 p0 c0 {7,S} {8,S} {31,S}
13 H u0 p0 c0 {4,S}
14 H u0 p0 c0 {4,S}
15 H u0 p0 c0 {5,S}
16 H u0 p0 c0 {5,S}
17 H u0 p0 c0 {6,S}
18 H u0 p0 c0 {6,S}
19 H u0 p0 c0 {7,S}
20 H u0 p0 c0 {7,S}
21 H u0 p0 c0 {8,S}
22 H u0 p0 c0 {8,S}
23 H u0 p0 c0 {9,S}
24 H u0 p0 c0 {9,S}
25 H u0 p0 c0 {9,S}
26 H u0 p0 c0 {10,S}
27 H u0 p0 c0 {10,S}
28 H u0 p0 c0 {10,S}
29 H u0 p0 c0 {11,S}
30 H u0 p0 c0 {11,S}
31 H u0 p0 c0 {12,S}


>  <multiplicity>  (3) 
2

>  <reaction>  (3) 
rmg_rxn_289

>  <type>  (3) 
ts

>  <role_mapnums>  (3) 
{"*2": 27, "*1": 18, "*3": 1, "*0": 17, "*4": 2}

>  <role_mapidx>  (3) 
{"*2": 26, "*1": 17, "*3": 0, "*0": 16, "*4": 1}

>  <ordered_mapped_smiles>  (3) 
[C:1]1([H:7])[C:2]([H:8])([H:9])[O:3][C:4]([H:10])([H:11])[O:5][C:6]1([H:12])[H:13].[C:14]([C:15]([C:16]([O:17][C:18]([C:19]([H:29])([H:30])[H:31])([H:27])[H:28])([H:25])[H:26])([H:23])[H:24])([H:20])([H:21])[H:22]

>  <mol_properties>  (3) 
{"0": {"label": "*3", "atom_type": "Cs"}, "1": {"label": "*4", "atom_type": "Cs"}, "16": {"label": "*0", "atom_type": "O2s"}, "17": {"label": "*1", "atom_type": "Cs"}, "26": {"label": "*2", "atom_type": "H0"}}

>  <level_of_theory>  (3) 
wb97xd/def2tzvp

>  <lot_method>  (3) 
wb97xd

>  <lot_basis>  (3) 
def2tzvp

>  <spin_multiplicity>  (3) 
2.0

>  <optical_isomers>  (3) 
2.0

>  <modes>  (3) 
IdealGasTranslation(mass=(175.133, 'amu')),         NonlinearRotor(             inertia = ([334.792, 1236.37, 1439.42

>  <frequency_value>  (3) 
-1634.25

>  <frequency_units>  (3) 
cm^-1

>  <frequency_list>  (3) 
unknown

>  <arkane_path>  (3) 
/home/calvin/Dropbox/PersonalFolders/Calvin/ATLAS_Converged/rmg_rxn_289/output/rxns/TS0/arkane/output.py

>  <path_exists>  (3) 
True

>  <E0_value>  (3) 
-1522090.0

>  <E0_units>  (3) 
kJ/mol

>  <thermo_class>  (3) 
unknown

>  <Cp0_value>  (3) 
unknown

>  <Cp0_units>  (3) 
unknown

>  <CpInf_value>  (3) 
unknown

>  <CpInf_units>  (3) 
unknown

>  <Tmin_value>  (3) 
unknown

>  <Tmin_units>  (3) 
unknown

>  <Tmax_value>  (3) 
unknown

>  <Tmax_units>  (3) 
unknown

>  <polynomials>  (3) 
unknown

>  <H298_value>  (3) 
unknown

>  <H298_units>  (3) 
unknown

>  <S298_value>  (3) 
unknown

>  <S298_units>  (3) 
unknown

>  <Cp_T_value_list>  (3) 
unknown

>  <Cp_T_units>  (3) 
unknown

>  <T_list>  (3) 
unknown

>  <T_units>  (3) 
unknown

>  <yaml_path>  (3) 
unknown

>  <frequencies_cm1>  (3) 
unknown

>  <ZPE_kJmol>  (3) 
unknown

>  <E_elec_kJmol>  (3) 
unknown

>  <E0_minus_Eelec_plus_ZPE_kJmol>  (3) 
unknown

>  <rxn>  (3) 
unknown

>  <species_type>  (3) 
unknown

>  <species_folder>  (3) 
unknown

>  <frequencies_cm1_list>  (3) 
[]

>  <ts_imag_freq_cm1>  (3) 
-1654.0988

>  <ts_freq_out_path>  (3) 
/home/calvin/Dropbox/PersonalFolders/Calvin/ATLAS_Converged/rmg_rxn_289/output/rxns/TS0/geometry/freq.out

>  <E0_kJmol>  (3) 
-1.52209e+06

>  <H298_kJmol>  (3) 
unknown

$$$$

     RDKit          3D

 17 16  0  0  0  0  0  0  0  0999 V2000
   -3.2378    0.0781    0.0468 C   0  0  0  0  0  0  0  0  0  1  0  0
   -1.9072   -0.5430    0.2348 C   0  0  0  0  0  3  0  0  0  2  0  0
   -1.5607   -0.7743    1.5229 O   0  0  0  0  0  0  0  0  0  3  0  0
   -0.2678   -1.3170    1.7206 C   0  0  0  0  0  0  0  0  0  4  0  0
    0.0055   -1.4164    3.2061 C   0  0  0  0  0  0  0  0  0  5  0  0
    0.0347   -0.0632    3.9042 C   0  0  0  0  0  0  0  0  0  6  0  0
   -3.2816    1.0982    0.4537 H   0  0  0  0  0  0  0  0  0  7  0  0
   -3.4818    0.1310   -1.0144 H   0  0  0  0  0  0  0  0  0  8  0  0
   -4.0139   -0.5033    0.5509 H   0  0  0  0  0  0  0  0  0  9  0  0
   -1.0896   -0.3480   -0.4562 H   0  0  0  0  0  0  0  0  0 10  0  0
   -0.2142   -2.3036    1.2476 H   0  0  0  0  0  0  0  0  0 11  0  0
    0.4751   -0.6679    1.2371 H   0  0  0  0  0  0  0  0  0 12  0  0
   -0.7555   -2.0574    3.6583 H   0  0  0  0  0  0  0  0  0 13  0  0
    0.9642   -1.9267    3.3334 H   0  0  0  0  0  0  0  0  0 14  0  0
   -0.9209    0.4499    3.7952 H   0  0  0  0  0  0  0  0  0 15  0  0
    0.2399   -0.1765    4.9695 H   0  0  0  0  0  0  0  0  0 16  0  0
    0.8109    0.5782    3.4796 H   0  0  0  0  0  0  0  0  0 17  0  0
  1  8  1  0
  1  7  1  0
  1  9  1  0
  1  2  1  0
  2 10  1  0
  2  3  1  0
  3  4  1  0
  4  5  1  0
  4 12  1  0
  4 11  1  0
  5 14  1  0
  5  6  1  0
  5 13  1  0
  6 17  1  0
  6 15  1  0
  6 16  1  0
M  RAD  1   2   2
M  END
>  <rmg_smiles>  (4) 
C[CH]OCCC

>  <rmg_adjacency_list>  (4) 
multiplicity 2
1  O u0 p2 c0 {3,S} {6,S}
2  C u0 p0 c0 {3,S} {4,S} {7,S} {8,S}
3  C u0 p0 c0 {1,S} {2,S} {9,S} {10,S}
4  C u0 p0 c0 {2,S} {11,S} {12,S} {13,S}
5  C u0 p0 c0 {6,S} {14,S} {15,S} {16,S}
6  C u1 p0 c0 {1,S} {5,S} {17,S}
7  H u0 p0 c0 {2,S}
8  H u0 p0 c0 {2,S}
9  H u0 p0 c0 {3,S}
10 H u0 p0 c0 {3,S}
11 H u0 p0 c0 {4,S}
12 H u0 p0 c0 {4,S}
13 H u0 p0 c0 {4,S}
14 H u0 p0 c0 {5,S}
15 H u0 p0 c0 {5,S}
16 H u0 p0 c0 {5,S}
17 H u0 p0 c0 {6,S}


>  <multiplicity>  (4) 
2

>  <reaction>  (4) 
rmg_rxn_289

>  <type>  (4) 
r1

>  <role_mapnums>  (4) 
{}

>  <role_mapidx>  (4) 
{}

>  <ordered_mapped_smiles>  (4) 
[C:1]([C:2]([O:3][C:4]([C:5]([C:6]([H:15])([H:16])[H:17])([H:13])[H:14])([H:11])[H:12])[H:10])([H:7])([H:8])[H:9]

>  <level_of_theory>  (4) 
wb97xd/def2tzvp

>  <lot_method>  (4) 
wb97xd

>  <lot_basis>  (4) 
def2tzvp

>  <spin_multiplicity>  (4) 
2.0

>  <optical_isomers>  (4) 
2.0

>  <modes>  (4) 
IdealGasTranslation(mass=(87.081, 'amu')),         NonlinearRotor(             inertia = ([57.4633, 312.694, 344.444

>  <frequency_value>  (4) 
unknown

>  <frequency_units>  (4) 
unknown

>  <frequency_list>  (4) 
unknown

>  <arkane_path>  (4) 
/home/calvin/Dropbox/PersonalFolders/Calvin/ATLAS_Converged/rmg_rxn_289/output/Species/rmg_rxn_289_p2_Csbr-CH-sbrOCCC/arkane/output.py

>  <path_exists>  (4) 
True

>  <E0_value>  (4) 
-714626.8773508471

>  <E0_units>  (4) 
kJ/mol

>  <thermo_class>  (4) 
NASA

>  <Cp0_value>  (4) 
33.257888

>  <Cp0_units>  (4) 
J/(mol*K)

>  <CpInf_value>  (4) 
407.409128

>  <CpInf_units>  (4) 
J/(mol*K)

>  <Tmin_value>  (4) 
10.0

>  <Tmin_units>  (4) 
K

>  <Tmax_value>  (4) 
3000.0

>  <Tmax_units>  (4) 
K

>  <polynomials>  (4) 
[{"name": "polynomial1", "class": "NASAPolynomial", "Tmin_value": 10.0, "Tmin_units": "K", "Tmax_value": 423.5582142761537, "Tmax_units": "K", "coeffs": [3.4253170232731796, 0.06108340118024817, -0.00016985724888107358, 4.441259709240837e-07, -3.8951194144019444e-10, -85949758.59070063, 12.50982010332502]}, {"name": "polynomial2", "class": "NASAPolynomial", "Tmin_value": 423.5582142761537, "Tmin_units": "K", "Tmax_value": 3000.0, "Tmax_units": "K", "coeffs": [-1.1025720144815276, 0.06363968334653308, -3.6529917834006736e-05, 1.0171382565296658e-08, -1.1023140222110514e-12, -85949014.39091305, 34.72172491292814]}]

>  <H298_value>  (4) 
-170794.10215544468

>  <H298_units>  (4) 
kcal/mol

>  <S298_value>  (4) 
91.08322998435028

>  <S298_units>  (4) 
cal/(mol*K)

>  <Cp_T_value_list>  (4) 
[30.403344291122735, 38.02335646647825, 45.283107253018876, 51.63681832818749, 61.97355311695585, 69.70377595737135, 81.30176342638504, 87.02207686178811, 89.93579983949942]

>  <Cp_T_units>  (4) 
cal/(mol*K)

>  <T_list>  (4) 
[300.0, 400.0, 500.0, 600.0, 800.0, 1000.0, 1500.0, 2000.0, 2400.0]

>  <T_units>  (4) 
K

>  <yaml_path>  (4) 
/home/calvin/Dropbox/PersonalFolders/Calvin/ATLAS_Converged/rmg_rxn_289/output/Species/rmg_rxn_289_p2_Csbr-CH-sbrOCCC/rmg_rxn_289_p2_Csbr-CH-sbrOCCC.yml

>  <frequencies_cm1>  (4) 
[62.256088911119996, 80.6184076568, 158.02306618384, 168.50208578215998, 182.09871671576, 251.82608565504, 327.37665814568, 441.4441512962, 492.0607000899199, 558.5605859287999, 768.1066429685999, 888.04540856772, 910.1090324008799, 927.2490277595999, 1010.4082199848, 1016.6709105966398, 1099.15027127516, 1117.79413641896, 1151.8612505914798, 1175.63475376932, 1265.93561072732, 1270.30988037616, 1304.10231513588, 1361.4965784404399, 1376.3567346729199, 1400.64526174976, 1406.7843466258398, 1443.5913879410398, 1453.0266257707199, 1468.7451551681997, 1477.39068968608, 1483.24136117872, 1494.41394629436, 1502.4483191187599, 2953.29811054304, 2963.1797024185194, 3009.8614686238802, 3016.1859621035996, 3027.0563998651596, 3039.68478586864, 3061.08231212576, 3087.3485309747603, 3090.2463987797996, 3104.30311772984, 3105.33316552784]

>  <ZPE_kJmol>  (4) 
394.4918275611198

>  <E_elec_kJmol>  (4) 
-715021.3691784083

>  <E0_minus_Eelec_plus_ZPE_kJmol>  (4) 
0.0

>  <rxn>  (4) 
rmg_rxn_289

>  <species_type>  (4) 
p1

>  <species_folder>  (4) 
rmg_rxn_289_p2_Csbr-CH-sbrOCCC

>  <frequencies_cm1_list>  (4) 
[62.256088911119996, 80.6184076568, 158.02306618384, 168.50208578215998, 182.09871671576, 251.82608565504, 327.37665814568, 441.4441512962, 492.0607000899199, 558.5605859287999, 768.1066429685999, 888.04540856772, 910.1090324008799, 927.2490277595999, 1010.4082199848, 1016.6709105966398, 1099.15027127516, 1117.79413641896, 1151.8612505914798, 1175.63475376932, 1265.93561072732, 1270.30988037616, 1304.10231513588, 1361.4965784404399, 1376.3567346729199, 1400.64526174976, 1406.7843466258398, 1443.5913879410398, 1453.0266257707199, 1468.7451551681997, 1477.39068968608, 1483.24136117872, 1494.41394629436, 1502.4483191187599, 2953.29811054304, 2963.1797024185194, 3009.8614686238802, 3016.1859621035996, 3027.0563998651596, 3039.68478586864, 3061.08231212576, 3087.3485309747603, 3090.2463987797996, 3104.30311772984, 3105.33316552784]

>  <E0_kJmol>  (4) 
-714627

>  <H298_kJmol>  (4) 
-714603

$$$$

     RDKit          3D

 13 13  0  0  0  0  0  0  0  0999 V2000
   -1.1371    0.3608    0.3110 C   0  0  0  0  0  3  0  0  0  1  0  0
   -0.0045    1.3224    0.2943 C   0  0  0  0  0  0  0  0  0  2  0  0
    1.2245    0.6965    0.6137 O   0  0  0  0  0  0  0  0  0  3  0  0
    1.3926   -0.4921   -0.0955 C   0  0  0  0  0  0  0  0  0  4  0  0
    0.4387   -1.4537    0.2351 O   0  0  0  0  0  0  0  0  0  5  0  0
   -0.8659   -1.0349   -0.1206 C   0  0  0  0  0  0  0  0  0  6  0  0
   -2.1544    0.7285    0.3341 H   0  0  0  0  0  0  0  0  0  7  0  0
   -0.1488    2.1272    1.0165 H   0  0  0  0  0  0  0  0  0  8  0  0
    0.0825    1.7949   -0.7036 H   0  0  0  0  0  0  0  0  0  9  0  0
    1.3549   -0.2872   -1.1815 H   0  0  0  0  0  0  0  0  0 10  0  0
    2.3646   -0.8956    0.1787 H   0  0  0  0  0  0  0  0  0 11  0  0
   -1.5620   -1.7401    0.3358 H   0  0  0  0  0  0  0  0  0 12  0  0
   -0.9852   -1.1268   -1.2179 H   0  0  0  0  0  0  0  0  0 13  0  0
  1  7  1  0
  1  6  1  0
  1  2  1  0
  2  9  1  0
  2  8  1  0
  2  3  1  0
  3  4  1  0
  4 10  1  0
  4 11  1  0
  4  5  1  0
  5  6  1  0
  6 13  1  0
  6 12  1  0
M  RAD  1   1   2
M  END
>  <rmg_smiles>  (5) 
[CH]1COCOC1

>  <rmg_adjacency_list>  (5) 
multiplicity 2
1  O u0 p2 c0 {3,S} {5,S}
2  O u0 p2 c0 {4,S} {5,S}
3  C u0 p0 c0 {1,S} {6,S} {7,S} {8,S}
4  C u0 p0 c0 {2,S} {6,S} {9,S} {10,S}
5  C u0 p0 c0 {1,S} {2,S} {11,S} {12,S}
6  C u1 p0 c0 {3,S} {4,S} {13,S}
7  H u0 p0 c0 {3,S}
8  H u0 p0 c0 {3,S}
9  H u0 p0 c0 {4,S}
10 H u0 p0 c0 {4,S}
11 H u0 p0 c0 {5,S}
12 H u0 p0 c0 {5,S}
13 H u0 p0 c0 {6,S}


>  <multiplicity>  (5) 
2

>  <reaction>  (5) 
rmg_rxn_289

>  <type>  (5) 
r2

>  <role_mapnums>  (5) 
{}

>  <role_mapidx>  (5) 
{}

>  <ordered_mapped_smiles>  (5) 
[C:1]1([H:7])[C:2]([H:8])([H:9])[O:3][C:4]([H:10])([H:11])[O:5][C:6]1([H:12])[H:13]

>  <level_of_theory>  (5) 
wb97xd/def2tzvp

>  <lot_method>  (5) 
wb97xd

>  <lot_basis>  (5) 
def2tzvp

>  <spin_multiplicity>  (5) 
2.0

>  <optical_isomers>  (5) 
1.0

>  <modes>  (5) 
IdealGasTranslation(mass=(87.0446, 'amu')),         NonlinearRotor(             inertia = ([94.1512, 104.116, 181.381

>  <frequency_value>  (5) 
unknown

>  <frequency_units>  (5) 
unknown

>  <frequency_list>  (5) 
unknown

>  <arkane_path>  (5) 
/home/calvin/Dropbox/PersonalFolders/Calvin/ATLAS_Converged/rmg_rxn_289/output/Species/rmg_rxn_289_r1_sbr-CH-sbr1COCOC1/arkane/output.py

>  <path_exists>  (5) 
True

>  <E0_value>  (5) 
-805805.5046036663

>  <E0_units>  (5) 
kJ/mol

>  <thermo_class>  (5) 
NASA

>  <Cp0_value>  (5) 
33.257888

>  <Cp0_units>  (5) 
J/(mol*K)

>  <CpInf_value>  (5) 
307.635464

>  <CpInf_units>  (5) 
J/(mol*K)

>  <Tmin_value>  (5) 
10.0

>  <Tmin_units>  (5) 
K

>  <Tmax_value>  (5) 
3000.0

>  <Tmax_units>  (5) 
K

>  <polynomials>  (5) 
[{"name": "polynomial1", "class": "NASAPolynomial", "Tmin_value": 10.0, "Tmin_units": "K", "Tmax_value": 532.6234384632435, "Tmax_units": "K", "coeffs": [3.9895632441253777, 0.00012573120731859374, 0.00014225277626324882, -2.393647807532974e-07, 1.2960002972211777e-10, -96916014.70318198, 10.80599494197436]}, {"name": "polynomial2", "class": "NASAPolynomial", "Tmin_value": 532.6234384632435, "Tmin_units": "K", "Tmax_value": 3000.0, "Tmax_units": "K", "coeffs": [-2.109707799159142, 0.05423092565181814, -3.349489651614801e-05, 9.869048606025939e-09, -1.1162728713998813e-12, -96915482.70627798, 35.284120928889635]}]

>  <H298_value>  (5) 
-192588.08392280544

>  <H298_units>  (5) 
kcal/mol

>  <S298_value>  (5) 
75.57885402958044

>  <S298_units>  (5) 
cal/(mol*K)

>  <Cp_T_value_list>  (5) 
[22.687824603425984, 29.40810210104957, 35.36239369095678, 40.45501415760785, 48.55545624595507, 54.40791969006955, 62.656762367093116, 66.5010316147293, 68.57528292327558]

>  <Cp_T_units>  (5) 
cal/(mol*K)

>  <T_list>  (5) 
[300.0, 400.0, 500.0, 600.0, 800.0, 1000.0, 1500.0, 2000.0, 2400.0]

>  <T_units>  (5) 
K

>  <yaml_path>  (5) 
/home/calvin/Dropbox/PersonalFolders/Calvin/ATLAS_Converged/rmg_rxn_289/output/Species/rmg_rxn_289_r1_sbr-CH-sbr1COCOC1/rmg_rxn_289_r1_sbr-CH-sbr1COCOC1.yml

>  <frequencies_cm1>  (5) 
[160.7904612678, 218.47313795579996, 380.63699628759997, 397.61905098395994, 478.6700787159199, 564.4249913920801, 779.7187151447199, 882.67542604748, 889.45314055832, 925.19579914892, 971.94623520748, 1029.1550899084, 1052.7912533798399, 1117.945210096, 1165.49221645168, 1207.6761072724398, 1217.9628512817999, 1281.02237747536, 1319.57363306184, 1356.37380739172, 1370.56099906284, 1398.8323776252798, 1427.65311501332, 1465.7648835393202, 1466.5751878070798, 1501.09552301072, 2858.88392937836, 2864.07537028028, 2892.532157446359, 3063.8291062537596, 3064.5570066976798, 3113.5117450439598, 3176.61934013476]

>  <ZPE_kJmol>  (5) 
281.49387475166685

>  <E_elec_kJmol>  (5) 
-806086.9984784179

>  <E0_minus_Eelec_plus_ZPE_kJmol>  (5) 
0.0

>  <rxn>  (5) 
rmg_rxn_289

>  <species_type>  (5) 
r0

>  <species_folder>  (5) 
rmg_rxn_289_r1_sbr-CH-sbr1COCOC1

>  <frequencies_cm1_list>  (5) 
[160.7904612678, 218.47313795579996, 380.63699628759997, 397.61905098395994, 478.6700787159199, 564.4249913920801, 779.7187151447199, 882.67542604748, 889.45314055832, 925.19579914892, 971.94623520748, 1029.1550899084, 1052.7912533798399, 1117.945210096, 1165.49221645168, 1207.6761072724398, 1217.9628512817999, 1281.02237747536, 1319.57363306184, 1356.37380739172, 1370.56099906284, 1398.8323776252798, 1427.65311501332, 1465.7648835393202, 1466.5751878070798, 1501.09552301072, 2858.88392937836, 2864.07537028028, 2892.532157446359, 3063.8291062537596, 3064.5570066976798, 3113.5117450439598, 3176.61934013476]

>  <E0_kJmol>  (5) 
-805806

>  <H298_kJmol>  (5) 
-805789

$$$$
