
     RDKit          3D

 14 14  0  0  0  0  0  0  0  0999 V2000
    1.1956   -0.7974    0.2349 C   0  0  0  0  0  0  0  0  0  1  0  0
    0.3663   -0.1948    1.3563 C   0  0  0  0  0  0  0  0  0  2  0  0
   -0.9851   -0.0624    0.9400 O   0  0  0  0  0  0  0  0  0  3  0  0
   -1.1047    0.6813   -0.2162 C   0  0  0  0  0  0  0  0  0  4  0  0
   -0.3785    0.2171   -1.2932 O   0  0  0  0  0  0  0  0  0  5  0  0
    1.0055    0.0549   -1.0089 C   0  0  0  0  0  0  0  0  0  6  0  0
    2.2505   -0.8221    0.5145 H   0  0  0  0  0  0  0  0  0  7  0  0
    0.8655   -1.8205    0.0423 H   0  0  0  0  0  0  0  0  0  8  0  0
    0.3534   -0.8271    2.2431 H   0  0  0  0  0  0  0  0  0  9  0  0
    0.7624    0.7925    1.6240 H   0  0  0  0  0  0  0  0  0 10  0  0
   -0.8212    1.7056    0.0182 H   0  0  0  0  0  0  0  0  0 11  0  0
   -2.1550    0.7241   -0.4981 H   0  0  0  0  0  0  0  0  0 12  0  0
    1.4677    1.0360   -0.8551 H   0  0  0  0  0  0  0  0  0 13  0  0
    1.4417   -0.4098   -1.8921 H   0  0  0  0  0  0  0  0  0 14  0  0
  1  8  1  0
  1  7  1  0
  1  6  1  0
  1  2  1  0
  2 10  1  0
  2  9  1  0
  2  3  1  0
  3  4  1  0
  4 11  1  0
  4 12  1  0
  4  5  1  0
  5  6  1  0
  6 14  1  0
  6 13  1  0
M  END
>  <rmg_smiles>  (1) 
C1COCOC1

>  <rmg_adjacency_list>  (1) 
1  O u0 p2 c0 {4,S} {6,S}
2  O u0 p2 c0 {5,S} {6,S}
3  C u0 p0 c0 {4,S} {5,S} {7,S} {8,S}
4  C u0 p0 c0 {1,S} {3,S} {9,S} {10,S}
5  C u0 p0 c0 {2,S} {3,S} {11,S} {12,S}
6  C u0 p0 c0 {1,S} {2,S} {13,S} {14,S}
7  H u0 p0 c0 {3,S}
8  H u0 p0 c0 {3,S}
9  H u0 p0 c0 {4,S}
10 H u0 p0 c0 {4,S}
11 H u0 p0 c0 {5,S}
12 H u0 p0 c0 {5,S}
13 H u0 p0 c0 {6,S}
14 H u0 p0 c0 {6,S}


>  <multiplicity>  (1) 
1

>  <reaction>  (1) 
rmg_rxn_237

>  <type>  (1) 
r1h

>  <role_mapnums>  (1) 
{"r1h_a": 4, "r1h_h": 11}

>  <role_mapidx>  (1) 
{"r1h_a": 3, "r1h_h": 10}

>  <ordered_mapped_smiles>  (1) 
[C:1]1([H:7])([H:8])[C:2]([H:9])([H:10])[O:3][C:4]([H:11])([H:12])[O:5][C:6]1([H:13])[H:14]

>  <mol_properties>  (1) 
{"3": {"label": "donator", "atom_type": "Cs"}, "10": {"label": "d_hydrogen", "atom_type": "H0"}}

>  <level_of_theory>  (1) 
wb97xd/def2tzvp

>  <lot_method>  (1) 
wb97xd

>  <lot_basis>  (1) 
def2tzvp

>  <spin_multiplicity>  (1) 
1.0

>  <optical_isomers>  (1) 
1.0

>  <modes>  (1) 
IdealGasTranslation(mass=(88.0524, 'amu')),         NonlinearRotor(             inertia = ([100.123, 103.988, 181.806

>  <frequency_value>  (1) 
unknown

>  <frequency_units>  (1) 
unknown

>  <frequency_list>  (1) 
unknown

>  <arkane_path>  (1) 
/home/calvin/Dropbox/PersonalFolders/Calvin/ATLAS_Converged/rmg_rxn_237/output/Species/rmg_rxn_237_r1_C1COCOC1/arkane/output.py

>  <path_exists>  (1) 
True

>  <E0_value>  (1) 
-807534.4862541369

>  <E0_units>  (1) 
kJ/mol

>  <thermo_class>  (1) 
NASA

>  <Cp0_value>  (1) 
33.257888

>  <Cp0_units>  (1) 
J/(mol*K)

>  <CpInf_value>  (1) 
332.57888

>  <CpInf_units>  (1) 
J/(mol*K)

>  <Tmin_value>  (1) 
10.0

>  <Tmin_units>  (1) 
K

>  <Tmax_value>  (1) 
3000.0

>  <Tmax_units>  (1) 
K

>  <polynomials>  (1) 
[{"name": "polynomial1", "class": "NASAPolynomial", "Tmin_value": 10.0, "Tmin_units": "K", "Tmax_value": 635.616554573151, "Tmax_units": "K", "coeffs": [4.089858497697602, -0.00720848048360332, 0.00016188875003168496, -2.401508213073996e-07, 1.1440937882219611e-10, -97123964.81365098, 9.940070949440356]}, {"name": "polynomial2", "class": "NASAPolynomial", "Tmin_value": 635.616554573151, "Tmin_units": "K", "Tmax_value": 3000.0, "Tmax_units": "K", "coeffs": [-3.6233751272420895, 0.05886750722676344, -3.5427870905530145e-05, 1.0209382893823142e-08, -1.1338653155444558e-12, -97123338.5127768, 40.87012283464024]}]

>  <H298_value>  (1) 
-193001.58453999052

>  <H298_units>  (1) 
kcal/mol

>  <S298_value>  (1) 
72.30963326519604

>  <S298_units>  (1) 
cal/(mol*K)

>  <Cp_T_value_list>  (1) 
[21.739931113059615, 29.14813400113705, 35.94765005011551, 41.73053828287379, 50.792135881792035, 57.413930600437965, 66.93239440365458, 71.40703402864166, 73.74460734469625]

>  <Cp_T_units>  (1) 
cal/(mol*K)

>  <T_list>  (1) 
[300.0, 400.0, 500.0, 600.0, 800.0, 1000.0, 1500.0, 2000.0, 2400.0]

>  <T_units>  (1) 
K

>  <yaml_path>  (1) 
/home/calvin/Dropbox/PersonalFolders/Calvin/ATLAS_Converged/rmg_rxn_237/output/Species/rmg_rxn_237_r1_C1COCOC1/rmg_rxn_237_r1_C1COCOC1.yml

>  <frequencies_cm1>  (1) 
[264.26219606955993, 269.44676998615995, 439.22611503784, 466.70779028847994, 494.62208561427997, 656.81341188736, 851.50617968, 900.41284912904, 919.12538412604, 926.80954069912, 1013.8966485273598, 1037.6289497932798, 1094.57685905204, 1112.95291176836, 1188.75069573052, 1216.28730686372, 1226.8487302858798, 1252.366447735, 1315.55644664964, 1328.3633742714399, 1363.72148168412, 1380.93701388136, 1404.8272558096398, 1432.53554157584, 1460.95799381532, 1489.42164796672, 1490.0946125280798, 1506.58911126672, 2894.63345495428, 2944.5289702893997, 2950.530715459079, 3031.06671929204, 3080.8454958767197, 3088.2893079635996, 3091.87387430064, 3110.9160245929997]

>  <ZPE_kJmol>  (1) 
321.1850391352071

>  <E_elec_kJmol>  (1) 
-807855.671293272

>  <E0_minus_Eelec_plus_ZPE_kJmol>  (1) 
0.0

>  <rxn>  (1) 
rmg_rxn_237

>  <species_type>  (1) 
r0

>  <species_folder>  (1) 
rmg_rxn_237_r1_C1COCOC1

>  <frequencies_cm1_list>  (1) 
[264.26219606955993, 269.44676998615995, 439.22611503784, 466.70779028847994, 494.62208561427997, 656.81341188736, 851.50617968, 900.41284912904, 919.12538412604, 926.80954069912, 1013.8966485273598, 1037.6289497932798, 1094.57685905204, 1112.95291176836, 1188.75069573052, 1216.28730686372, 1226.8487302858798, 1252.366447735, 1315.55644664964, 1328.3633742714399, 1363.72148168412, 1380.93701388136, 1404.8272558096398, 1432.53554157584, 1460.95799381532, 1489.42164796672, 1490.0946125280798, 1506.58911126672, 2894.63345495428, 2944.5289702893997, 2950.530715459079, 3031.06671929204, 3080.8454958767197, 3088.2893079635996, 3091.87387430064, 3110.9160245929997]

>  <E0_kJmol>  (1) 
-807534

>  <H298_kJmol>  (1) 
-807519

$$$$

     RDKit          3D

 18 17  0  0  0  0  0  0  0  0999 V2000
   -2.6502   -0.7634   -0.5228 H   0  0  0  0  0  0  0  0  0  1  0  0
   -2.5234    0.2906   -0.2833 C   0  0  0  0  0  0  0  0  0  2  0  0
   -1.4142    0.8818   -1.1212 C   0  0  0  0  0  0  0  0  0  3  0  0
   -0.0929    1.0105   -0.3921 C   0  0  0  0  0  0  0  0  0  4  0  0
    0.3746   -0.2609   -0.0085 O   0  0  0  0  0  0  0  0  0  5  0  0
    1.5830   -0.2108    0.7090 C   0  0  0  0  0  0  0  0  0  6  0  0
    2.0216   -1.6188    1.0370 C   0  0  0  0  0  0  0  0  0  7  0  0
   -2.3469    0.2888    0.7908 H   0  0  0  0  0  0  0  0  0  8  0  0
   -3.5198    0.6524   -0.5281 H   0  0  0  0  0  0  0  0  0  9  0  0
   -1.6882    1.8863   -1.4616 H   0  0  0  0  0  0  0  0  0 10  0  0
   -1.2623    0.2917   -2.0322 H   0  0  0  0  0  0  0  0  0 11  0  0
   -0.2203    1.6417    0.5003 H   0  0  0  0  0  0  0  0  0 12  0  0
    0.6508    1.4987   -1.0380 H   0  0  0  0  0  0  0  0  0 13  0  0
    2.3514    0.2998    0.1110 H   0  0  0  0  0  0  0  0  0 14  0  0
    1.4461    0.3742    1.6296 H   0  0  0  0  0  0  0  0  0 15  0  0
    2.1742   -2.1941    0.1227 H   0  0  0  0  0  0  0  0  0 16  0  0
    2.9593   -1.6023    1.5941 H   0  0  0  0  0  0  0  0  0 17  0  0
    1.2698   -2.1250    1.6439 H   0  0  0  0  0  0  0  0  0 18  0  0
  1  2  1  0
  2  9  1  0
  2  8  1  0
  2  3  1  0
  3 11  1  0
  3  4  1  0
  3 10  1  0
  4 13  1  0
  4 12  1  0
  4  5  1  0
  5  6  1  0
  6 15  1  0
  6 14  1  0
  6  7  1  0
  7 17  1  0
  7 18  1  0
  7 16  1  0
M  END
>  <rmg_smiles>  (2) 
CCCOCC

>  <rmg_adjacency_list>  (2) 
1  O u0 p2 c0 {3,S} {4,S}
2  C u0 p0 c0 {3,S} {5,S} {7,S} {8,S}
3  C u0 p0 c0 {1,S} {2,S} {9,S} {10,S}
4  C u0 p0 c0 {1,S} {6,S} {11,S} {12,S}
5  C u0 p0 c0 {2,S} {13,S} {14,S} {15,S}
6  C u0 p0 c0 {4,S} {16,S} {17,S} {18,S}
7  H u0 p0 c0 {2,S}
8  H u0 p0 c0 {2,S}
9  H u0 p0 c0 {3,S}
10 H u0 p0 c0 {3,S}
11 H u0 p0 c0 {4,S}
12 H u0 p0 c0 {4,S}
13 H u0 p0 c0 {5,S}
14 H u0 p0 c0 {5,S}
15 H u0 p0 c0 {5,S}
16 H u0 p0 c0 {6,S}
17 H u0 p0 c0 {6,S}
18 H u0 p0 c0 {6,S}


>  <multiplicity>  (2) 
1

>  <reaction>  (2) 
rmg_rxn_237

>  <type>  (2) 
r2h

>  <role_mapnums>  (2) 
{"r2h_a": 2, "r2h_h": 1}

>  <role_mapidx>  (2) 
{"r2h_a": 1, "r2h_h": 0}

>  <ordered_mapped_smiles>  (2) 
[H:1][C:2]([C:3]([C:4]([O:5][C:6]([C:7]([H:16])([H:17])[H:18])([H:14])[H:15])([H:12])[H:13])([H:10])[H:11])([H:8])[H:9]

>  <mol_properties>  (2) 
{"0": {"label": "a_hydrogen", "atom_type": "H0"}, "1": {"label": "acceptor", "atom_type": "Cs"}}

>  <level_of_theory>  (2) 
wb97xd/def2tzvp

>  <lot_method>  (2) 
wb97xd

>  <lot_basis>  (2) 
def2tzvp

>  <spin_multiplicity>  (2) 
1.0

>  <optical_isomers>  (2) 
2.0

>  <modes>  (2) 
IdealGasTranslation(mass=(88.0888, 'amu')),         NonlinearRotor(             inertia = ([59.5652, 317.445, 349.634

>  <frequency_value>  (2) 
unknown

>  <frequency_units>  (2) 
unknown

>  <frequency_list>  (2) 
unknown

>  <arkane_path>  (2) 
/home/calvin/Dropbox/PersonalFolders/Calvin/ATLAS_Converged/rmg_rxn_237/output/Species/rmg_rxn_237_p2_CCCOCC/arkane/output.py

>  <path_exists>  (2) 
True

>  <E0_value>  (2) 
-716327.3605709573

>  <E0_units>  (2) 
kJ/mol

>  <thermo_class>  (2) 
NASA

>  <Cp0_value>  (2) 
33.257888

>  <Cp0_units>  (2) 
J/(mol*K)

>  <CpInf_value>  (2) 
432.352544

>  <CpInf_units>  (2) 
J/(mol*K)

>  <Tmin_value>  (2) 
10.0

>  <Tmin_units>  (2) 
K

>  <Tmax_value>  (2) 
3000.0

>  <Tmax_units>  (2) 
K

>  <polynomials>  (2) 
[{"name": "polynomial1", "class": "NASAPolynomial", "Tmin_value": 10.0, "Tmin_units": "K", "Tmax_value": 424.14701041358796, "Tmax_units": "K", "coeffs": [3.4707042336928127, 0.05746545203879795, -0.00016719847115372115, 4.780470157694204e-07, -4.3347206706639054e-10, -86154279.58985142, 11.635447004604476]}, {"name": "polynomial2", "class": "NASAPolynomial", "Tmin_value": 424.14701041358796, "Tmin_units": "K", "Tmax_value": 3000.0, "Tmax_units": "K", "coeffs": [-2.8535624465972114, 0.06921008708460846, -3.934323609424939e-05, 1.0841890934368647e-08, -1.163418506360095e-12, -86153312.26572455, 41.80111524234505]}]

>  <H298_value>  (2) 
-171200.6815246165

>  <H298_units>  (2) 
kcal/mol

>  <S298_value>  (2) 
88.37399878129293

>  <S298_units>  (2) 
cal/(mol*K)

>  <Cp_T_value_list>  (2) 
[29.924593767526826, 38.16083070533892, 46.09960348181722, 53.05840207682852, 64.40406715451496, 72.91410593462665, 85.72980278110597, 92.03567805993791, 95.21197800865355]

>  <Cp_T_units>  (2) 
cal/(mol*K)

>  <T_list>  (2) 
[300.0, 400.0, 500.0, 600.0, 800.0, 1000.0, 1500.0, 2000.0, 2400.0]

>  <T_units>  (2) 
K

>  <yaml_path>  (2) 
/home/calvin/Dropbox/PersonalFolders/Calvin/ATLAS_Converged/rmg_rxn_237/output/Species/rmg_rxn_237_p2_CCCOCC/rmg_rxn_237_p2_CCCOCC.yml

>  <frequencies_cm1>  (2) 
[76.60808822992, 85.88538539723999, 152.39213822143998, 171.44115549912, 250.05440344247998, 256.05614861216003, 329.51915756551995, 440.0707542322, 493.7774464199199, 767.98990421816, 823.02879155796, 891.3896304185598, 900.4815189822399, 929.41899512072, 1002.9850088538799, 1082.00340893112, 1102.9065122452, 1152.52734816752, 1174.9617892079598, 1182.44680320676, 1190.2339645596398, 1270.1176047871998, 1295.23017010244, 1305.6473868328799, 1368.30176089256, 1380.4425909383199, 1399.7456866728398, 1405.4521514737598, 1443.92787022172, 1468.7794900948002, 1470.37949767436, 1482.5752636026798, 1487.2448136202797, 1494.6336898246, 1500.58049911172, 1519.49904366832, 2928.8997117010795, 2942.5512785172396, 2962.4655359452395, 2968.54281795344, 3015.14904732028, 3021.7276192568397, 3024.0692612509597, 3058.7338031463196, 3085.2403664815197, 3101.8035350733594, 3104.27564978856, 3105.2988306012394]

>  <ZPE_kJmol>  (2) 
431.0594598774012

>  <E_elec_kJmol>  (2) 
-716758.4200308347

>  <E0_minus_Eelec_plus_ZPE_kJmol>  (2) 
0.0

>  <rxn>  (2) 
rmg_rxn_237

>  <species_type>  (2) 
p1

>  <species_folder>  (2) 
rmg_rxn_237_p2_CCCOCC

>  <frequencies_cm1_list>  (2) 
[76.60808822992, 85.88538539723999, 152.39213822143998, 171.44115549912, 250.05440344247998, 256.05614861216003, 329.51915756551995, 440.0707542322, 493.7774464199199, 767.98990421816, 823.02879155796, 891.3896304185598, 900.4815189822399, 929.41899512072, 1002.9850088538799, 1082.00340893112, 1102.9065122452, 1152.52734816752, 1174.9617892079598, 1182.44680320676, 1190.2339645596398, 1270.1176047871998, 1295.23017010244, 1305.6473868328799, 1368.30176089256, 1380.4425909383199, 1399.7456866728398, 1405.4521514737598, 1443.92787022172, 1468.7794900948002, 1470.37949767436, 1482.5752636026798, 1487.2448136202797, 1494.6336898246, 1500.58049911172, 1519.49904366832, 2928.8997117010795, 2942.5512785172396, 2962.4655359452395, 2968.54281795344, 3015.14904732028, 3021.7276192568397, 3024.0692612509597, 3058.7338031463196, 3085.2403664815197, 3101.8035350733594, 3104.27564978856, 3105.2988306012394]

>  <E0_kJmol>  (2) 
-716327

>  <H298_kJmol>  (2) 
-716304

$$$$

     RDKit          3D

 31 30  0  0  0  0  0  0  0  0999 V2000
    0.3238   -2.3181   -0.1928 C   0  0  0  0  0  0  0  0  0  1  0  0
   -0.5055   -1.7156    0.9285 C   0  0  0  0  0  0  0  0  0  2  0  0
   -1.8569   -1.5832    0.5122 O   0  0  0  0  0  0  0  0  0  3  0  0
   -1.9765   -0.8395   -0.6440 C   0  0  0  0  0  0  0  0  0  4  0  0
   -1.2503   -1.3036   -1.7209 O   0  0  0  0  0  0  0  0  0  5  0  0
    0.1337   -1.4658   -1.4366 C   0  0  0  0  0  0  0  0  0  6  0  0
    1.3787   -2.3428    0.0867 H   0  0  0  0  0  0  0  0  0  7  0  0
   -0.0063   -3.3412   -0.3854 H   0  0  0  0  0  0  0  0  0  8  0  0
   -0.5184   -2.3478    1.8153 H   0  0  0  0  0  0  0  0  0  9  0  0
   -0.1094   -0.7282    1.1963 H   0  0  0  0  0  0  0  0  0 10  0  0
   -1.6335    0.3998   -0.3604 H   0  0  0  0  0  0  0  0  0 11  0  0
   -3.0268   -0.7967   -0.9259 H   0  0  0  0  0  0  0  0  0 12  0  0
    0.5959   -0.4848   -1.2829 H   0  0  0  0  0  0  0  0  0 13  0  0
    0.5699   -1.9306   -2.3199 H   0  0  0  0  0  0  0  0  0 14  0  0
   -1.4688    1.7682   -0.0494 C   0  0  0  0  0  3  0  0  0 15  0  0
   -0.3596    2.3594   -0.8873 C   0  0  0  0  0  0  0  0  0 16  0  0
    0.9617    2.4881   -0.1582 C   0  0  0  0  0  0  0  0  0 17  0  0
    1.4293    1.2168    0.2254 O   0  0  0  0  0  0  0  0  0 18  0  0
    2.6376    1.2668    0.9429 C   0  0  0  0  0  0  0  0  0 19  0  0
    3.0763   -0.1412    1.2709 C   0  0  0  0  0  0  0  0  0 20  0  0
   -1.2923    1.7664    1.0247 H   0  0  0  0  0  0  0  0  0 21  0  0
   -2.4652    2.1300   -0.2942 H   0  0  0  0  0  0  0  0  0 22  0  0
   -0.6336    3.3639   -1.2277 H   0  0  0  0  0  0  0  0  0 23  0  0
   -0.2076    1.7694   -1.7983 H   0  0  0  0  0  0  0  0  0 24  0  0
    0.8344    3.1194    0.7342 H   0  0  0  0  0  0  0  0  0 25  0  0
    1.7055    2.9763   -0.8041 H   0  0  0  0  0  0  0  0  0 26  0  0
    3.4060    1.7775    0.3449 H   0  0  0  0  0  0  0  0  0 27  0  0
    2.5007    1.8519    1.8635 H   0  0  0  0  0  0  0  0  0 28  0  0
    3.2288   -0.7164    0.3566 H   0  0  0  0  0  0  0  0  0 29  0  0
    4.0140   -0.1247    1.8280 H   0  0  0  0  0  0  0  0  0 30  0  0
    2.3244   -0.6474    1.8778 H   0  0  0  0  0  0  0  0  0 31  0  0
  1  7  1  0
  1  8  1  0
  1  6  1  0
  1  2  1  0
  2  3  1  0
  2 10  1  0
  2  9  1  0
  3  4  1  0
  4 11  1  0
  4  5  1  0
  4 12  1  0
  5  6  1  0
  6 13  1  0
  6 14  1  0
 15 16  1  0
 15 22  1  0
 15 21  1  0
 16 17  1  0
 16 23  1  0
 16 24  1  0
 17 18  1  0
 17 26  1  0
 17 25  1  0
 18 19  1  0
 19 27  1  0
 19 28  1  0
 19 20  1  0
 20 31  1  0
 20 30  1  0
 20 29  1  0
M  RAD  1  15   2
M  END
>  <rmg_smiles>  (3) 
C1COCOC1.[CH2]CCOCC

>  <rmg_adjacency_list>  (3) 
multiplicity 2
1  O u0 p2 c0 {8,S} {9,S}
2  O u0 p2 c0 {6,S} {11,S}
3  O u0 p2 c0 {7,S} {11,S}
4  C u0 p0 c0 {6,S} {7,S} {13,S} {14,S}
5  C u0 p0 c0 {8,S} {12,S} {15,S} {16,S}
6  C u0 p0 c0 {2,S} {4,S} {17,S} {18,S}
7  C u0 p0 c0 {3,S} {4,S} {19,S} {20,S}
8  C u0 p0 c0 {1,S} {5,S} {21,S} {22,S}
9  C u0 p0 c0 {1,S} {10,S} {23,S} {24,S}
10 C u0 p0 c0 {9,S} {25,S} {26,S} {27,S}
11 C u0 p0 c0 {2,S} {3,S} {28,S} {29,S}
12 C u1 p0 c0 {5,S} {30,S} {31,S}
13 H u0 p0 c0 {4,S}
14 H u0 p0 c0 {4,S}
15 H u0 p0 c0 {5,S}
16 H u0 p0 c0 {5,S}
17 H u0 p0 c0 {6,S}
18 H u0 p0 c0 {6,S}
19 H u0 p0 c0 {7,S}
20 H u0 p0 c0 {7,S}
21 H u0 p0 c0 {8,S}
22 H u0 p0 c0 {8,S}
23 H u0 p0 c0 {9,S}
24 H u0 p0 c0 {9,S}
25 H u0 p0 c0 {10,S}
26 H u0 p0 c0 {10,S}
27 H u0 p0 c0 {10,S}
28 H u0 p0 c0 {11,S}
29 H u0 p0 c0 {11,S}
30 H u0 p0 c0 {12,S}
31 H u0 p0 c0 {12,S}


>  <multiplicity>  (3) 
2

>  <reaction>  (3) 
rmg_rxn_237

>  <type>  (3) 
ts

>  <role_mapnums>  (3) 
{"*2": 11, "*1": 4, "*3": 15, "*0": 3, "*4": 16}

>  <role_mapidx>  (3) 
{"*2": 10, "*1": 3, "*3": 14, "*0": 2, "*4": 15}

>  <ordered_mapped_smiles>  (3) 
[C:1]1([H:7])([H:8])[C:2]([H:9])([H:10])[O:3][C:4]([H:11])([H:12])[O:5][C:6]1([H:13])[H:14].[C:15]([C:16]([C:17]([O:18][C:19]([C:20]([H:29])([H:30])[H:31])([H:27])[H:28])([H:25])[H:26])([H:23])[H:24])([H:21])[H:22]

>  <mol_properties>  (3) 
{"2": {"label": "*0", "atom_type": "O2s"}, "3": {"label": "*1", "atom_type": "Cs"}, "10": {"label": "*2", "atom_type": "H0"}, "14": {"label": "*3", "atom_type": "Cs"}, "15": {"label": "*4", "atom_type": "Cs"}}

>  <level_of_theory>  (3) 
wb97xd/def2tzvp

>  <lot_method>  (3) 
wb97xd

>  <lot_basis>  (3) 
def2tzvp

>  <spin_multiplicity>  (3) 
2.0

>  <optical_isomers>  (3) 
2.0

>  <modes>  (3) 
IdealGasTranslation(mass=(175.133, 'amu')),         NonlinearRotor(             inertia = ([479.573, 768.544, 1024.11

>  <frequency_value>  (3) 
-1721.9

>  <frequency_units>  (3) 
cm^-1

>  <frequency_list>  (3) 
unknown

>  <arkane_path>  (3) 
/home/calvin/Dropbox/PersonalFolders/Calvin/ATLAS_Converged/rmg_rxn_237/output/rxns/TS0/arkane/output.py

>  <path_exists>  (3) 
True

>  <E0_value>  (3) 
-1522090.0

>  <E0_units>  (3) 
kJ/mol

>  <thermo_class>  (3) 
unknown

>  <Cp0_value>  (3) 
unknown

>  <Cp0_units>  (3) 
unknown

>  <CpInf_value>  (3) 
unknown

>  <CpInf_units>  (3) 
unknown

>  <Tmin_value>  (3) 
unknown

>  <Tmin_units>  (3) 
unknown

>  <Tmax_value>  (3) 
unknown

>  <Tmax_units>  (3) 
unknown

>  <polynomials>  (3) 
unknown

>  <H298_value>  (3) 
unknown

>  <H298_units>  (3) 
unknown

>  <S298_value>  (3) 
unknown

>  <S298_units>  (3) 
unknown

>  <Cp_T_value_list>  (3) 
unknown

>  <Cp_T_units>  (3) 
unknown

>  <T_list>  (3) 
unknown

>  <T_units>  (3) 
unknown

>  <yaml_path>  (3) 
unknown

>  <frequencies_cm1>  (3) 
unknown

>  <ZPE_kJmol>  (3) 
unknown

>  <E_elec_kJmol>  (3) 
unknown

>  <E0_minus_Eelec_plus_ZPE_kJmol>  (3) 
unknown

>  <rxn>  (3) 
unknown

>  <species_type>  (3) 
unknown

>  <species_folder>  (3) 
unknown

>  <frequencies_cm1_list>  (3) 
[]

>  <ts_imag_freq_cm1>  (3) 
-1742.8091

>  <ts_freq_out_path>  (3) 
/home/calvin/Dropbox/PersonalFolders/Calvin/ATLAS_Converged/rmg_rxn_237/output/rxns/TS0/geometry/freq.out

>  <E0_kJmol>  (3) 
-1.52209e+06

>  <H298_kJmol>  (3) 
unknown

$$$$

     RDKit          3D

 13 13  0  0  0  0  0  0  0  0999 V2000
    0.5794    1.5990    0.2108 C   0  0  0  0  0  3  0  0  0  1  0  0
    1.4528    0.6621   -0.2496 O   0  0  0  0  0  0  0  0  0  2  0  0
    1.0751   -0.6763    0.0423 C   0  0  0  0  0  0  0  0  0  3  0  0
   -0.3579   -0.9282   -0.3924 C   0  0  0  0  0  0  0  0  0  4  0  0
   -1.2426    0.1393    0.2269 C   0  0  0  0  0  0  0  0  0  5  0  0
   -0.7410    1.4341   -0.0749 O   0  0  0  0  0  0  0  0  0  6  0  0
    0.9183    2.6078    0.0084 H   0  0  0  0  0  0  0  0  0  7  0  0
    1.1839   -0.8508    1.1199 H   0  0  0  0  0  0  0  0  0  8  0  0
    1.7816   -1.3130   -0.4874 H   0  0  0  0  0  0  0  0  0  9  0  0
   -0.6818   -1.9210   -0.0736 H   0  0  0  0  0  0  0  0  0 10  0  0
   -0.4271   -0.8785   -1.4810 H   0  0  0  0  0  0  0  0  0 11  0  0
   -1.2832    0.0173    1.3164 H   0  0  0  0  0  0  0  0  0 12  0  0
   -2.2575    0.1083   -0.1657 H   0  0  0  0  0  0  0  0  0 13  0  0
  1  6  1  0
  1  7  1  0
  1  2  1  0
  2  3  1  0
  3  4  1  0
  3  9  1  0
  3  8  1  0
  4  5  1  0
  4 10  1  0
  4 11  1  0
  5  6  1  0
  5 12  1  0
  5 13  1  0
M  RAD  1   1   2
M  END
>  <rmg_smiles>  (4) 
[CH]1OCCCO1

>  <rmg_adjacency_list>  (4) 
multiplicity 2
1  O u0 p2 c0 {4,S} {6,S}
2  O u0 p2 c0 {5,S} {6,S}
3  C u0 p0 c0 {4,S} {5,S} {7,S} {8,S}
4  C u0 p0 c0 {1,S} {3,S} {9,S} {10,S}
5  C u0 p0 c0 {2,S} {3,S} {11,S} {12,S}
6  C u1 p0 c0 {1,S} {2,S} {13,S}
7  H u0 p0 c0 {3,S}
8  H u0 p0 c0 {3,S}
9  H u0 p0 c0 {4,S}
10 H u0 p0 c0 {4,S}
11 H u0 p0 c0 {5,S}
12 H u0 p0 c0 {5,S}
13 H u0 p0 c0 {6,S}


>  <multiplicity>  (4) 
2

>  <reaction>  (4) 
rmg_rxn_237

>  <type>  (4) 
r1

>  <role_mapnums>  (4) 
{}

>  <role_mapidx>  (4) 
{}

>  <ordered_mapped_smiles>  (4) 
[C:1]1([H:7])[O:2][C:3]([H:8])([H:9])[C:4]([H:10])([H:11])[C:5]([H:12])([H:13])[O:6]1

>  <level_of_theory>  (4) 
wb97xd/def2tzvp

>  <lot_method>  (4) 
wb97xd

>  <lot_basis>  (4) 
def2tzvp

>  <spin_multiplicity>  (4) 
2.0

>  <optical_isomers>  (4) 
1.0

>  <modes>  (4) 
IdealGasTranslation(mass=(87.0446, 'amu')),         NonlinearRotor(             inertia = ([96.7564, 101.33, 180.793

>  <frequency_value>  (4) 
unknown

>  <frequency_units>  (4) 
unknown

>  <frequency_list>  (4) 
unknown

>  <arkane_path>  (4) 
/home/calvin/Dropbox/PersonalFolders/Calvin/ATLAS_Converged/rmg_rxn_237/output/Species/rmg_rxn_237_p1_sbr-CH-sbr1OCCCO1/arkane/output.py

>  <path_exists>  (4) 
True

>  <E0_value>  (4) 
-805829.6077087377

>  <E0_units>  (4) 
kJ/mol

>  <thermo_class>  (4) 
NASA

>  <Cp0_value>  (4) 
33.257888

>  <Cp0_units>  (4) 
J/(mol*K)

>  <CpInf_value>  (4) 
307.635464

>  <CpInf_units>  (4) 
J/(mol*K)

>  <Tmin_value>  (4) 
10.0

>  <Tmin_units>  (4) 
K

>  <Tmax_value>  (4) 
3000.0

>  <Tmax_units>  (4) 
K

>  <polynomials>  (4) 
[{"name": "polynomial1", "class": "NASAPolynomial", "Tmin_value": 10.0, "Tmin_units": "K", "Tmax_value": 608.112492343142, "Tmax_units": "K", "coeffs": [4.052680972350976, -0.0047882923899246685, 0.00015490339112890275, -2.438945344349935e-07, 1.2271144192742085e-10, -96918914.0547554, 10.641162980593737]}, {"name": "polynomial2", "class": "NASAPolynomial", "Tmin_value": 608.112492343142, "Tmin_units": "K", "Tmax_value": 3000.0, "Tmax_units": "K", "coeffs": [-2.1801652399204463, 0.053800847786724684, -3.3006657387032914e-05, 9.678351907920253e-09, -1.0905566594576255e-12, -96918481.26165283, 34.93650323250774]}]

>  <H298_value>  (4) 
-192594.04417056424

>  <H298_units>  (4) 
kcal/mol

>  <S298_value>  (4) 
74.06569612686815

>  <S298_units>  (4) 
cal/(mol*K)

>  <Cp_T_value_list>  (4) 
[21.79231995372727, 28.72322049116149, 34.90931795869405, 40.07621166157428, 48.17957605835906, 54.05563435308073, 62.397532807122666, 66.31866398847424, 68.42946986859195]

>  <Cp_T_units>  (4) 
cal/(mol*K)

>  <T_list>  (4) 
[300.0, 400.0, 500.0, 600.0, 800.0, 1000.0, 1500.0, 2000.0, 2400.0]

>  <T_units>  (4) 
K

>  <yaml_path>  (4) 
/home/calvin/Dropbox/PersonalFolders/Calvin/ATLAS_Converged/rmg_rxn_237/output/Species/rmg_rxn_237_p1_sbr-CH-sbr1OCCCO1/rmg_rxn_237_p1_sbr-CH-sbr1OCCCO1.yml

>  <frequencies_cm1>  (4) 
[221.38473973147995, 259.92912833264, 404.37616453883993, 465.21765447404, 498.2203859219599, 675.711355488, 843.04605376576, 891.5750390221999, 897.2334349258798, 928.91083820704, 951.5993577043199, 1041.5293974550398, 1054.4736647832399, 1157.30676995024, 1159.53167319392, 1231.5732161860399, 1233.0290170738797, 1266.9931264665997, 1307.989028827, 1348.11969103708, 1377.30437864708, 1407.0796269946, 1418.3758178459998, 1462.8532817636399, 1490.6165034123997, 1500.0792091833598, 2984.3712191160403, 2988.60128207316, 3033.3465584182795, 3083.9562402266797, 3096.46788747972, 3099.4824940352, 3160.91454470792]

>  <ZPE_kJmol>  (4) 
286.7521305046946

>  <E_elec_kJmol>  (4) 
-806116.3598392424

>  <E0_minus_Eelec_plus_ZPE_kJmol>  (4) 
0.0

>  <rxn>  (4) 
rmg_rxn_237

>  <species_type>  (4) 
p0

>  <species_folder>  (4) 
rmg_rxn_237_p1_sbr-CH-sbr1OCCCO1

>  <frequencies_cm1_list>  (4) 
[221.38473973147995, 259.92912833264, 404.37616453883993, 465.21765447404, 498.2203859219599, 675.711355488, 843.04605376576, 891.5750390221999, 897.2334349258798, 928.91083820704, 951.5993577043199, 1041.5293974550398, 1054.4736647832399, 1157.30676995024, 1159.53167319392, 1231.5732161860399, 1233.0290170738797, 1266.9931264665997, 1307.989028827, 1348.11969103708, 1377.30437864708, 1407.0796269946, 1418.3758178459998, 1462.8532817636399, 1490.6165034123997, 1500.0792091833598, 2984.3712191160403, 2988.60128207316, 3033.3465584182795, 3083.9562402266797, 3096.46788747972, 3099.4824940352, 3160.91454470792]

>  <E0_kJmol>  (4) 
-805830

>  <H298_kJmol>  (4) 
-805813

$$$$

     RDKit          3D

 17 16  0  0  0  0  0  0  0  0999 V2000
    2.3128   -0.1525    1.1777 C   0  0  0  0  0  3  0  0  0  1  0  0
    1.7469    0.7266    0.1254 C   0  0  0  0  0  0  0  0  0  2  0  0
    1.6374    2.1830    0.5408 C   0  0  0  0  0  0  0  0  0  3  0  0
    2.9245    2.6874    0.7877 O   0  0  0  0  0  0  0  0  0  4  0  0
    2.9227    4.0197    1.2361 C   0  0  0  0  0  0  0  0  0  5  0  0
    4.3491    4.4603    1.4693 C   0  0  0  0  0  0  0  0  0  6  0  0
    2.1393   -1.2196    1.1557 H   0  0  0  0  0  0  0  0  0  7  0  0
    3.0313    0.2400    1.8838 H   0  0  0  0  0  0  0  0  0  8  0  0
    0.7555    0.3746   -0.1764 H   0  0  0  0  0  0  0  0  0  9  0  0
    2.3678    0.6841   -0.7826 H   0  0  0  0  0  0  0  0  0 10  0  0
    1.0170    2.2718    1.4449 H   0  0  0  0  0  0  0  0  0 11  0  0
    1.1499    2.7653   -0.2546 H   0  0  0  0  0  0  0  0  0 12  0  0
    2.4379    4.6655    0.4891 H   0  0  0  0  0  0  0  0  0 13  0  0
    2.3377    4.1015    2.1638 H   0  0  0  0  0  0  0  0  0 14  0  0
    4.9261    4.3920    0.5465 H   0  0  0  0  0  0  0  0  0 15  0  0
    4.3728    5.4939    1.8180 H   0  0  0  0  0  0  0  0  0 16  0  0
    4.8260    3.8299    2.2206 H   0  0  0  0  0  0  0  0  0 17  0  0
  1  8  1  0
  1  7  1  0
  1  2  1  0
  2 10  1  0
  2  9  1  0
  2  3  1  0
  3 11  1  0
  3  4  1  0
  3 12  1  0
  4  5  1  0
  5 13  1  0
  5  6  1  0
  5 14  1  0
  6 17  1  0
  6 15  1  0
  6 16  1  0
M  RAD  1   1   2
M  END
>  <rmg_smiles>  (5) 
[CH2]CCOCC

>  <rmg_adjacency_list>  (5) 
multiplicity 2
1  O u0 p2 c0 {3,S} {4,S}
2  C u0 p0 c0 {3,S} {6,S} {7,S} {8,S}
3  C u0 p0 c0 {1,S} {2,S} {9,S} {10,S}
4  C u0 p0 c0 {1,S} {5,S} {11,S} {12,S}
5  C u0 p0 c0 {4,S} {13,S} {14,S} {15,S}
6  C u1 p0 c0 {2,S} {16,S} {17,S}
7  H u0 p0 c0 {2,S}
8  H u0 p0 c0 {2,S}
9  H u0 p0 c0 {3,S}
10 H u0 p0 c0 {3,S}
11 H u0 p0 c0 {4,S}
12 H u0 p0 c0 {4,S}
13 H u0 p0 c0 {5,S}
14 H u0 p0 c0 {5,S}
15 H u0 p0 c0 {5,S}
16 H u0 p0 c0 {6,S}
17 H u0 p0 c0 {6,S}


>  <multiplicity>  (5) 
2

>  <reaction>  (5) 
rmg_rxn_237

>  <type>  (5) 
r2

>  <role_mapnums>  (5) 
{}

>  <role_mapidx>  (5) 
{}

>  <ordered_mapped_smiles>  (5) 
[C:1]([C:2]([C:3]([O:4][C:5]([C:6]([H:15])([H:16])[H:17])([H:13])[H:14])([H:11])[H:12])([H:9])[H:10])([H:7])[H:8]

>  <level_of_theory>  (5) 
wb97xd/def2tzvp

>  <lot_method>  (5) 
wb97xd

>  <lot_basis>  (5) 
def2tzvp

>  <spin_multiplicity>  (5) 
2.0

>  <optical_isomers>  (5) 
2.0

>  <modes>  (5) 
IdealGasTranslation(mass=(87.081, 'amu')),         NonlinearRotor(             inertia = ([56.1942, 309.598, 341.445

>  <frequency_value>  (5) 
unknown

>  <frequency_units>  (5) 
unknown

>  <frequency_list>  (5) 
unknown

>  <arkane_path>  (5) 
/home/calvin/Dropbox/PersonalFolders/Calvin/ATLAS_Converged/rmg_rxn_237/output/Species/rmg_rxn_237_r2_sbr-CH2-sbrCCOCC/arkane/output.py

>  <path_exists>  (5) 
True

>  <E0_value>  (5) 
-714594.9534761205

>  <E0_units>  (5) 
kJ/mol

>  <thermo_class>  (5) 
NASA

>  <Cp0_value>  (5) 
33.257888

>  <Cp0_units>  (5) 
J/(mol*K)

>  <CpInf_value>  (5) 
407.409128

>  <CpInf_units>  (5) 
J/(mol*K)

>  <Tmin_value>  (5) 
10.0

>  <Tmin_units>  (5) 
K

>  <Tmax_value>  (5) 
3000.0

>  <Tmax_units>  (5) 
K

>  <polynomials>  (5) 
[{"name": "polynomial1", "class": "NASAPolynomial", "Tmin_value": 10.0, "Tmin_units": "K", "Tmax_value": 428.2196342565028, "Tmax_units": "K", "coeffs": [3.449989296280544, 0.057423832316827995, -0.00013332000129952934, 3.4481867882035973e-07, -3.039663546787581e-10, -85945919.20509715, 12.33173677011069]}, {"name": "polynomial2", "class": "NASAPolynomial", "Tmin_value": 428.2196342565028, "Tmin_units": "K", "Tmax_value": 3000.0, "Tmax_units": "K", "coeffs": [-0.8337724645043922, 0.06365483127668993, -3.68065916523196e-05, 1.0327972414463865e-08, -1.1275406847880222e-12, -85945242.57829364, 32.98197379692207]}]

>  <H298_value>  (5) 
-170786.4494875034

>  <H298_units>  (5) 
kcal/mol

>  <S298_value>  (5) 
90.65975504557764

>  <S298_units>  (5) 
cal/(mol*K)

>  <Cp_T_value_list>  (5) 
[30.85399555380273, 38.5024812284313, 45.73063038026963, 52.05182606770565, 62.3187066664259, 69.97927600380646, 81.44044284908489, 87.10453068800588, 90.01380036436508]

>  <Cp_T_units>  (5) 
cal/(mol*K)

>  <T_list>  (5) 
[300.0, 400.0, 500.0, 600.0, 800.0, 1000.0, 1500.0, 2000.0, 2400.0]

>  <T_units>  (5) 
K

>  <yaml_path>  (5) 
/home/calvin/Dropbox/PersonalFolders/Calvin/ATLAS_Converged/rmg_rxn_237/output/Species/rmg_rxn_237_r2_sbr-CH2-sbrCCOCC/rmg_rxn_237_r2_sbr-CH2-sbrCCOCC.yml

>  <frequencies_cm1>  (5) 
[77.74114080771999, 86.7643595182, 154.72691323024, 159.93208810279998, 205.28852614139996, 250.85784072491998, 323.93629850035995, 437.44756583995996, 463.20562777527994, 521.1423829201199, 769.3220993702398, 823.3858747945999, 896.9312875718, 917.44297272264, 996.1248905191999, 1038.9886128866399, 1087.27038667156, 1111.9984008088798, 1157.1694302438398, 1177.7154503212798, 1186.02450255848, 1226.1551647685599, 1286.5434336726398, 1297.95636327448, 1365.48629691136, 1376.61081312976, 1398.7293728454802, 1437.088352843, 1439.70467424992, 1453.5004477578, 1470.50997039544, 1487.1830107523997, 1499.68779102012, 1519.27930013808, 2936.7761438631196, 2941.988185721, 2946.20451470748, 2969.2432504560797, 2976.1926395999203, 3024.23406889864, 3030.8195078205194, 3102.0438795595596, 3104.5915311132794, 3130.6998092999197, 3236.4651171985597]

>  <ZPE_kJmol>  (5) 
391.7837560230114

>  <E_elec_kJmol>  (5) 
-714986.7372321435

>  <E0_minus_Eelec_plus_ZPE_kJmol>  (5) 
0.0

>  <rxn>  (5) 
rmg_rxn_237

>  <species_type>  (5) 
r1

>  <species_folder>  (5) 
rmg_rxn_237_r2_sbr-CH2-sbrCCOCC

>  <frequencies_cm1_list>  (5) 
[77.74114080771999, 86.7643595182, 154.72691323024, 159.93208810279998, 205.28852614139996, 250.85784072491998, 323.93629850035995, 437.44756583995996, 463.20562777527994, 521.1423829201199, 769.3220993702398, 823.3858747945999, 896.9312875718, 917.44297272264, 996.1248905191999, 1038.9886128866399, 1087.27038667156, 1111.9984008088798, 1157.1694302438398, 1177.7154503212798, 1186.02450255848, 1226.1551647685599, 1286.5434336726398, 1297.95636327448, 1365.48629691136, 1376.61081312976, 1398.7293728454802, 1437.088352843, 1439.70467424992, 1453.5004477578, 1470.50997039544, 1487.1830107523997, 1499.68779102012, 1519.27930013808, 2936.7761438631196, 2941.988185721, 2946.20451470748, 2969.2432504560797, 2976.1926395999203, 3024.23406889864, 3030.8195078205194, 3102.0438795595596, 3104.5915311132794, 3130.6998092999197, 3236.4651171985597]

>  <E0_kJmol>  (5) 
-714595

>  <H298_kJmol>  (5) 
-714571

$$$$
