
     RDKit          3D

  9  9  0  0  0  0  0  0  0  0999 V2000
    0.0192   -1.0986    0.8529 O   0  0  0  0  0  0  0  0  0  1  0  0
   -0.3949   -0.2652   -0.0925 N   0  0  0  0  0  0  0  0  0  2  0  0
    0.5088    0.4000   -0.9888 C   0  0  0  0  0  0  0  0  0  3  0  0
   -0.2434    1.1593    0.0727 C   0  0  0  0  0  0  0  0  0  4  0  0
    0.9475   -1.3269    0.7650 H   0  0  0  0  0  0  0  0  0  5  0  0
    0.1884    0.4575   -2.0211 H   0  0  0  0  0  0  0  0  0  6  0  0
    1.5658    0.2291   -0.8242 H   0  0  0  0  0  0  0  0  0  7  0  0
    0.3205    1.4534    0.9499 H   0  0  0  0  0  0  0  0  0  8  0  0
   -1.0974    1.7636   -0.2029 H   0  0  0  0  0  0  0  0  0  9  0  0
  1  5  1  0
  1  2  1  0
  2  3  1  0
  2  4  1  0
  3  4  1  0
  3  6  1  0
  3  7  1  0
  4  8  1  0
  4  9  1  0
M  END
>  <rmg_smiles>  (1) 
ON1CC1

>  <rmg_adjacency_list>  (1) 
1 O u0 p2 c0 {2,S} {9,S}
2 N u0 p1 c0 {1,S} {3,S} {4,S}
3 C u0 p0 c0 {2,S} {4,S} {5,S} {6,S}
4 C u0 p0 c0 {2,S} {3,S} {7,S} {8,S}
5 H u0 p0 c0 {3,S}
6 H u0 p0 c0 {3,S}
7 H u0 p0 c0 {4,S}
8 H u0 p0 c0 {4,S}
9 H u0 p0 c0 {1,S}


>  <multiplicity>  (1) 
1

>  <reaction>  (1) 
rmg_rxn_3076

>  <type>  (1) 
r1h

>  <role_mapnums>  (1) 
{"r1h_a": 1, "r1h_h": 5}

>  <role_mapidx>  (1) 
{"r1h_a": 0, "r1h_h": 4}

>  <ordered_mapped_smiles>  (1) 
[O:1]([N:2]1[C:3]([H:6])([H:7])[C:4]1([H:8])[H:9])[H:5]

>  <mol_properties>  (1) 
{"0": {"label": "donator", "atom_type": "O2s"}, "4": {"label": "d_hydrogen", "atom_type": "H0"}}

>  <level_of_theory>  (1) 
wb97xd/def2tzvp

>  <lot_method>  (1) 
wb97xd

>  <lot_basis>  (1) 
def2tzvp

>  <spin_multiplicity>  (1) 
1.0

>  <optical_isomers>  (1) 
1.0

>  <modes>  (1) 
IdealGasTranslation(mass=(59.0371, 'amu')),         NonlinearRotor(             inertia = ([28.1872, 66.5407, 77.6102

>  <frequency_value>  (1) 
unknown

>  <frequency_units>  (1) 
unknown

>  <frequency_list>  (1) 
unknown

>  <arkane_path>  (1) 
/home/calvin/Dropbox/PersonalFolders/Calvin/ATLAS_Converged/rmg_rxn_3076/output/Species/rmg_rxn_3076_r2_ON1CC1/arkane/output.py

>  <path_exists>  (1) 
True

>  <E0_value>  (1) 
-548830.9755880404

>  <E0_units>  (1) 
kJ/mol

>  <thermo_class>  (1) 
NASA

>  <Cp0_value>  (1) 
33.257888

>  <Cp0_units>  (1) 
J/(mol*K)

>  <CpInf_value>  (1) 
207.8618

>  <CpInf_units>  (1) 
J/(mol*K)

>  <Tmin_value>  (1) 
10.0

>  <Tmin_units>  (1) 
K

>  <Tmax_value>  (1) 
3000.0

>  <Tmax_units>  (1) 
K

>  <polynomials>  (1) 
[{"name": "polynomial1", "class": "NASAPolynomial", "Tmin_value": 10.0, "Tmin_units": "K", "Tmax_value": 587.2199948559334, "Tmax_units": "K", "coeffs": [4.01290829659194, -0.0016502474955422339, 9.708642231333483e-05, -1.6094228553485929e-07, 8.484346380941685e-11, -66009118.08554968, 8.391880568105824]}, {"name": "polynomial2", "class": "NASAPolynomial", "Tmin_value": 587.2199948559334, "Tmin_units": "K", "Tmax_value": 3000.0, "Tmax_units": "K", "coeffs": [0.7337841600207903, 0.03241844705827431, -1.990752940299833e-05, 5.903220459412223e-09, -6.732998606532043e-13, -66008935.2494822, 20.743767898900355]}]

>  <H298_value>  (1) 
-131170.36722140852

>  <H298_units>  (1) 
kcal/mol

>  <S298_value>  (1) 
67.20815903717752

>  <S298_units>  (1) 
cal/(mol*K)

>  <Cp_T_value_list>  (1) 
[17.084813947658525, 21.379009937156017, 25.126876739126274, 28.23021137141331, 33.135452712013276, 36.71288976391953, 41.89886219457449, 44.500561578088046, 45.980647572639626]

>  <Cp_T_units>  (1) 
cal/(mol*K)

>  <T_list>  (1) 
[300.0, 400.0, 500.0, 600.0, 800.0, 1000.0, 1500.0, 2000.0, 2400.0]

>  <T_units>  (1) 
K

>  <yaml_path>  (1) 
/home/calvin/Dropbox/PersonalFolders/Calvin/ATLAS_Converged/rmg_rxn_3076/output/Species/rmg_rxn_3076_r2_ON1CC1/rmg_rxn_3076_r2_ON1CC1.yml

>  <frequencies_cm1>  (1) 
[133.13711138415997, 422.03805078188, 447.52830028972, 737.70649895696, 837.0649095520399, 880.14837544972, 977.55656221392, 1021.37479554084, 1108.8807894735999, 1123.8508174712, 1174.6390408979198, 1175.03732604648, 1241.8668271807198, 1382.8803707269199, 1458.29360351116, 1496.32296821332, 3107.7915462724, 3111.1083001819597, 3196.87694682876, 3210.06155864316, 3845.8619954513197]

>  <ZPE_kJmol>  (1) 
191.94103937201209

>  <E_elec_kJmol>  (1) 
-549022.9166274124

>  <E0_minus_Eelec_plus_ZPE_kJmol>  (1) 
0.0

>  <rxn>  (1) 
rmg_rxn_3076

>  <species_type>  (1) 
r1

>  <species_folder>  (1) 
rmg_rxn_3076_r2_ON1CC1

>  <frequencies_cm1_list>  (1) 
[133.13711138415997, 422.03805078188, 447.52830028972, 737.70649895696, 837.0649095520399, 880.14837544972, 977.55656221392, 1021.37479554084, 1108.8807894735999, 1123.8508174712, 1174.6390408979198, 1175.03732604648, 1241.8668271807198, 1382.8803707269199, 1458.29360351116, 1496.32296821332, 3107.7915462724, 3111.1083001819597, 3196.87694682876, 3210.06155864316, 3845.8619954513197]

>  <E0_kJmol>  (1) 
-548831

>  <H298_kJmol>  (1) 
-548817

$$$$

     RDKit          3D

  4  3  0  0  0  0  0  0  0  0999 V2000
   -0.1705   -0.9934   -0.3330 O   0  0  0  0  0  0  0  0  0  1  0  0
    0.4406   -0.0076    0.1130 N   0  0  0  0  0  0  0  0  0  2  0  0
   -0.1168    1.0481    0.2642 O   0  0  0  0  0  0  0  0  0  3  0  0
   -1.1125   -0.8374   -0.4319 H   0  0  0  0  0  0  0  0  0  4  0  0
  1  2  1  0
  1  4  1  0
  2  3  1  0
M  END
>  <rmg_smiles>  (2) 
[O][N]O

>  <rmg_adjacency_list>  (2) 
1 O u0 p2 c0 {3,S} {4,S}
2 O u0 p2 c0 {3,S}
3 N u0 p1 c0 {1,S} {2,S}
4 H u0 p0 c0 {1,S}


>  <multiplicity>  (2) 
1

>  <reaction>  (2) 
rmg_rxn_3076

>  <type>  (2) 
r2h

>  <role_mapnums>  (2) 
{"r2h_a": 1, "r2h_h": 4}

>  <role_mapidx>  (2) 
{"r2h_a": 0, "r2h_h": 3}

>  <ordered_mapped_smiles>  (2) 
[O:1]([NH:2][OH:3])[H:4]

>  <mol_properties>  (2) 
{"0": {"label": "acceptor", "atom_type": "O2s"}, "3": {"label": "a_hydrogen", "atom_type": "H0"}}

>  <level_of_theory>  (2) 
wb97xd/def2tzvp

>  <lot_method>  (2) 
wb97xd

>  <lot_basis>  (2) 
def2tzvp

>  <spin_multiplicity>  (2) 
1.0

>  <optical_isomers>  (2) 
1.0

>  <modes>  (2) 
IdealGasTranslation(mass=(47.0007, 'amu')),         NonlinearRotor(             inertia = ([5.85585, 37.1292, 42.985

>  <frequency_value>  (2) 
unknown

>  <frequency_units>  (2) 
unknown

>  <frequency_list>  (2) 
unknown

>  <arkane_path>  (2) 
/home/calvin/Dropbox/PersonalFolders/Calvin/ATLAS_Converged/rmg_rxn_3076/output/Species/rmg_rxn_3076_p1_ON=O/arkane/output.py

>  <path_exists>  (2) 
True

>  <E0_value>  (2) 
-540078.5942529333

>  <E0_units>  (2) 
kJ/mol

>  <thermo_class>  (2) 
NASA

>  <Cp0_value>  (2) 
33.257888

>  <Cp0_units>  (2) 
J/(mol*K)

>  <CpInf_value>  (2) 
83.14472

>  <CpInf_units>  (2) 
J/(mol*K)

>  <Tmin_value>  (2) 
10.0

>  <Tmin_units>  (2) 
K

>  <Tmax_value>  (2) 
3000.0

>  <Tmax_units>  (2) 
K

>  <polynomials>  (2) 
[{"name": "polynomial1", "class": "NASAPolynomial", "Tmin_value": 10.0, "Tmin_units": "K", "Tmax_value": 612.0643897395777, "Tmax_units": "K", "coeffs": [4.0600857452062735, -0.005003345064429928, 4.853845019464716e-05, -7.775324969230841e-08, 4.0459407904253375e-11, -64956451.21114784, 6.457820799308927]}, {"name": "polynomial2", "class": "NASAPolynomial", "Tmin_value": 612.0643897395777, "Tmin_units": "K", "Tmax_value": 3000.0, "Tmax_units": "K", "coeffs": [2.9193437592381053, 0.009916245223045126, -6.318854045102609e-06, 1.923369739597041e-09, -2.2344958697478614e-13, -64956451.389076084, 10.259035440863206]}]

>  <H298_value>  (2) 
-129079.33524779696

>  <H298_units>  (2) 
kcal/mol

>  <S298_value>  (2) 
58.91392971376136

>  <S298_units>  (2) 
cal/(mol*K)

>  <Cp_T_value_list>  (2) 
[10.245890074471536, 11.693622486364122, 12.921974304699056, 13.872207892773629, 15.304498101096991, 16.328190410569672, 17.758570202857868, 18.457536745620374, 18.872252251724756]

>  <Cp_T_units>  (2) 
cal/(mol*K)

>  <T_list>  (2) 
[300.0, 400.0, 500.0, 600.0, 800.0, 1000.0, 1500.0, 2000.0, 2400.0]

>  <T_units>  (2) 
K

>  <yaml_path>  (2) 
/home/calvin/Dropbox/PersonalFolders/Calvin/ATLAS_Converged/rmg_rxn_3076/output/Species/rmg_rxn_3076_p1_ON=O/rmg_rxn_3076_p1_ON=O.yml

>  <frequencies_cm1>  (2) 
[677.3800329207598, 710.56817297232, 946.5109215821999, 1350.5025349431198, 1733.8176555055202, 3605.3046327064]

>  <ZPE_kJmol>  (2) 
53.97602405642365

>  <E_elec_kJmol>  (2) 
-540132.5702769897

>  <E0_minus_Eelec_plus_ZPE_kJmol>  (2) 
0.0

>  <rxn>  (2) 
rmg_rxn_3076

>  <species_type>  (2) 
p0

>  <species_folder>  (2) 
rmg_rxn_3076_p1_ON=O

>  <frequencies_cm1_list>  (2) 
[677.3800329207598, 710.56817297232, 946.5109215821999, 1350.5025349431198, 1733.8176555055202, 3605.3046327064]

>  <E0_kJmol>  (2) 
-540079

>  <H298_kJmol>  (2) 
-540068

$$$$

     RDKit          3D

 12 11  0  0  0  0  0  0  0  0999 V2000
    1.2329   -1.0752    0.4478 O   0  0  0  0  0  0  0  0  0  1  0  0
    1.8440   -0.0894    0.8938 N   0  0  0  0  0  0  0  0  0  2  0  0
    1.2865    0.9662    1.0450 O   0  0  0  0  0  1  0  0  0  3  0  0
   -1.1851   -0.5923    0.3988 O   0  0  0  0  0  0  0  0  0  4  0  0
   -1.5991    0.2411   -0.5466 N   0  0  0  0  0  0  0  0  0  5  0  0
   -0.6954    0.9063   -1.4429 C   0  0  0  0  0  0  0  0  0  6  0  0
   -1.4477    1.6655   -0.3814 C   0  0  0  0  0  0  0  0  0  7  0  0
   -0.1588   -0.8448    0.3016 H   0  0  0  0  0  0  0  0  0  8  0  0
   -1.0158    0.9637   -2.4752 H   0  0  0  0  0  0  0  0  0  9  0  0
    0.3616    0.7353   -1.2784 H   0  0  0  0  0  0  0  0  0 10  0  0
   -0.8837    1.9596    0.4958 H   0  0  0  0  0  0  0  0  0 11  0  0
   -2.3017    2.2698   -0.6571 H   0  0  0  0  0  0  0  0  0 12  0  0
  1  2  1  0
  2  3  1  0
  4  5  1  0
  4  8  1  0
  5  6  1  0
  5  7  1  0
  6  9  1  0
  6  7  1  0
  6 10  1  0
  7 12  1  0
  7 11  1  0
M  RAD  1   3   2
M  END
>  <rmg_smiles>  (3) 
ON1CC1.[O][N][O]

>  <rmg_adjacency_list>  (3) 
multiplicity 2
1  O u0 p2 c0 {4,S} {12,S}
2  O u1 p2 c0 {5,S}
3  O u0 p2 c0 {5,S}
4  N u0 p1 c0 {1,S} {6,S} {7,S}
5  N u0 p1 c0 {2,S} {3,S}
6  C u0 p0 c0 {4,S} {7,S} {8,S} {9,S}
7  C u0 p0 c0 {4,S} {6,S} {10,S} {11,S}
8  H u0 p0 c0 {6,S}
9  H u0 p0 c0 {6,S}
10 H u0 p0 c0 {7,S}
11 H u0 p0 c0 {7,S}
12 H u0 p0 c0 {1,S}


>  <multiplicity>  (3) 
2

>  <reaction>  (3) 
rmg_rxn_3076

>  <type>  (3) 
ts

>  <role_mapnums>  (3) 
{"*2": 8, "*1": 4, "*3": 1, "*0": 5, "*4": 2}

>  <role_mapidx>  (3) 
{"*2": 7, "*1": 3, "*3": 0, "*0": 4, "*4": 1}

>  <ordered_mapped_smiles>  (3) 
[OH:1][NH:2][O:3].[O:4]([N:5]1[C:6]([H:9])([H:10])[C:7]1([H:11])[H:12])[H:8]

>  <mol_properties>  (3) 
{"0": {"label": "*3", "atom_type": "O2s"}, "1": {"label": "*4", "atom_type": "N3s"}, "3": {"label": "*1", "atom_type": "O2s"}, "4": {"label": "*0", "atom_type": "N3s"}, "7": {"label": "*2", "atom_type": "H0"}}

>  <level_of_theory>  (3) 
wb97xd/def2tzvp

>  <lot_method>  (3) 
wb97xd

>  <lot_basis>  (3) 
def2tzvp

>  <spin_multiplicity>  (3) 
2.0

>  <optical_isomers>  (3) 
2.0

>  <modes>  (3) 
IdealGasTranslation(mass=(105.03, 'amu')),         NonlinearRotor(             inertia = ([105.804, 281.373, 323.292

>  <frequency_value>  (3) 
-1190.56

>  <frequency_units>  (3) 
cm^-1

>  <frequency_list>  (3) 
unknown

>  <arkane_path>  (3) 
/home/calvin/Dropbox/PersonalFolders/Calvin/ATLAS_Converged/rmg_rxn_3076/output/rxns/TS0/arkane/output.py

>  <path_exists>  (3) 
True

>  <E0_value>  (3) 
-1087230.0

>  <E0_units>  (3) 
kJ/mol

>  <thermo_class>  (3) 
unknown

>  <Cp0_value>  (3) 
unknown

>  <Cp0_units>  (3) 
unknown

>  <CpInf_value>  (3) 
unknown

>  <CpInf_units>  (3) 
unknown

>  <Tmin_value>  (3) 
unknown

>  <Tmin_units>  (3) 
unknown

>  <Tmax_value>  (3) 
unknown

>  <Tmax_units>  (3) 
unknown

>  <polynomials>  (3) 
unknown

>  <H298_value>  (3) 
unknown

>  <H298_units>  (3) 
unknown

>  <S298_value>  (3) 
unknown

>  <S298_units>  (3) 
unknown

>  <Cp_T_value_list>  (3) 
unknown

>  <Cp_T_units>  (3) 
unknown

>  <T_list>  (3) 
unknown

>  <T_units>  (3) 
unknown

>  <yaml_path>  (3) 
unknown

>  <frequencies_cm1>  (3) 
unknown

>  <ZPE_kJmol>  (3) 
unknown

>  <E_elec_kJmol>  (3) 
unknown

>  <E0_minus_Eelec_plus_ZPE_kJmol>  (3) 
unknown

>  <rxn>  (3) 
unknown

>  <species_type>  (3) 
unknown

>  <species_folder>  (3) 
unknown

>  <frequencies_cm1_list>  (3) 
[]

>  <ts_imag_freq_cm1>  (3) 
-1205.0163

>  <ts_freq_out_path>  (3) 
/home/calvin/Dropbox/PersonalFolders/Calvin/ATLAS_Converged/rmg_rxn_3076/output/rxns/TS0/geometry/freq.out

>  <E0_kJmol>  (3) 
-1.08723e+06

>  <H298_kJmol>  (3) 
unknown

$$$$

     RDKit          3D

  8  8  0  0  0  0  0  0  0  0999 V2000
    0.0257    1.9818    0.0485 O   0  0  0  0  0  1  0  0  0  1  0  0
    0.0179    0.8208   -0.4484 N   0  0  0  0  0  0  0  0  0  2  0  0
    0.7557   -0.3258    0.0134 C   0  0  0  0  0  0  0  0  0  3  0  0
   -0.7642   -0.3055   -0.0101 C   0  0  0  0  0  0  0  0  0  4  0  0
    1.2844   -0.9009   -0.7365 H   0  0  0  0  0  0  0  0  0  5  0  0
    1.2442   -0.2188    0.9742 H   0  0  0  0  0  0  0  0  0  6  0  0
   -1.2791   -0.1851    0.9352 H   0  0  0  0  0  0  0  0  0  7  0  0
   -1.2846   -0.8666   -0.7762 H   0  0  0  0  0  0  0  0  0  8  0  0
  1  2  1  0
  2  3  1  0
  2  4  1  0
  3  4  1  0
  3  6  1  0
  3  5  1  0
  4  8  1  0
  4  7  1  0
M  RAD  1   1   2
M  END
>  <rmg_smiles>  (4) 
[O]N1CC1

>  <rmg_adjacency_list>  (4) 
multiplicity 2
1 O u1 p2 c0 {2,S}
2 N u0 p1 c0 {1,S} {3,S} {4,S}
3 C u0 p0 c0 {2,S} {4,S} {5,S} {6,S}
4 C u0 p0 c0 {2,S} {3,S} {7,S} {8,S}
5 H u0 p0 c0 {3,S}
6 H u0 p0 c0 {3,S}
7 H u0 p0 c0 {4,S}
8 H u0 p0 c0 {4,S}


>  <multiplicity>  (4) 
2

>  <reaction>  (4) 
rmg_rxn_3076

>  <type>  (4) 
r1

>  <role_mapnums>  (4) 
{}

>  <role_mapidx>  (4) 
{}

>  <ordered_mapped_smiles>  (4) 
[O:1][N:2]1[C:3]([H:5])([H:6])[C:4]1([H:7])[H:8]

>  <level_of_theory>  (4) 
wb97xd/def2tzvp

>  <lot_method>  (4) 
wb97xd

>  <lot_basis>  (4) 
def2tzvp

>  <spin_multiplicity>  (4) 
2.0

>  <optical_isomers>  (4) 
1.0

>  <modes>  (4) 
IdealGasTranslation(mass=(58.0293, 'amu')),         NonlinearRotor(             inertia = ([25.8055, 62.4608, 77.4626

>  <frequency_value>  (4) 
unknown

>  <frequency_units>  (4) 
unknown

>  <frequency_list>  (4) 
unknown

>  <arkane_path>  (4) 
/home/calvin/Dropbox/PersonalFolders/Calvin/ATLAS_Converged/rmg_rxn_3076/output/Species/rmg_rxn_3076_p2_sbr-O-sbrN1CC1/arkane/output.py

>  <path_exists>  (4) 
True

>  <E0_value>  (4) 
-547181.0539800306

>  <E0_units>  (4) 
kJ/mol

>  <thermo_class>  (4) 
NASA

>  <Cp0_value>  (4) 
33.257888

>  <Cp0_units>  (4) 
J/(mol*K)

>  <CpInf_value>  (4) 
182.918384

>  <CpInf_units>  (4) 
J/(mol*K)

>  <Tmin_value>  (4) 
10.0

>  <Tmin_units>  (4) 
K

>  <Tmax_value>  (4) 
3000.0

>  <Tmax_units>  (4) 
K

>  <polynomials>  (4) 
[{"name": "polynomial1", "class": "NASAPolynomial", "Tmin_value": 10.0, "Tmin_units": "K", "Tmax_value": 624.7357386490204, "Tmax_units": "K", "coeffs": [4.1105451907420125, -0.009033090615102013, 0.00011173695653622377, -1.734104128021453e-07, 8.700249676344132e-11, -65810679.90864667, 8.7112352700631]}, {"name": "polynomial2", "class": "NASAPolynomial", "Tmin_value": 624.7357386490204, "Tmin_units": "K", "Tmax_value": 3000.0, "Tmax_units": "K", "coeffs": [0.5509038236468667, 0.029424195237818408, -1.8213741851288973e-05, 5.401052377808208e-09, -6.146368474763313e-13, -65810540.85840035, 21.763128585627033]}]

>  <H298_value>  (4) 
-130776.41321357674

>  <H298_units>  (4) 
kcal/mol

>  <S298_value>  (4) 
65.65873371157244

>  <S298_units>  (4) 
cal/(mol*K)

>  <Cp_T_value_list>  (4) 
[14.863476305027024, 18.886846753670252, 22.43475352619028, 25.306815638075097, 29.702872533122694, 32.883841566280715, 37.40564552125166, 39.58228468223397, 40.796935988510995]

>  <Cp_T_units>  (4) 
cal/(mol*K)

>  <T_list>  (4) 
[300.0, 400.0, 500.0, 600.0, 800.0, 1000.0, 1500.0, 2000.0, 2400.0]

>  <T_units>  (4) 
K

>  <yaml_path>  (4) 
/home/calvin/Dropbox/PersonalFolders/Calvin/ATLAS_Converged/rmg_rxn_3076/output/Species/rmg_rxn_3076_p2_sbr-O-sbrN1CC1/rmg_rxn_3076_p2_sbr-O-sbrN1CC1.yml

>  <frequencies_cm1>  (4) 
[350.08577859892, 463.25369667251994, 761.6104748558798, 793.3977499021601, 893.5939327062799, 1016.15588669764, 1066.6762976968798, 1105.1726174008, 1123.1366509979198, 1153.9625480994, 1164.4896365949598, 1431.4917598071997, 1454.9768496016, 1497.97791167544, 3102.6413072824, 3105.09282104164, 3197.1310252856, 3209.5328007735197]

>  <ZPE_kJmol>  (4) 
160.84023508429246

>  <E_elec_kJmol>  (4) 
-547341.8942151149

>  <E0_minus_Eelec_plus_ZPE_kJmol>  (4) 
0.0

>  <rxn>  (4) 
rmg_rxn_3076

>  <species_type>  (4) 
p1

>  <species_folder>  (4) 
rmg_rxn_3076_p2_sbr-O-sbrN1CC1

>  <frequencies_cm1_list>  (4) 
[350.08577859892, 463.25369667251994, 761.6104748558798, 793.3977499021601, 893.5939327062799, 1016.15588669764, 1066.6762976968798, 1105.1726174008, 1123.1366509979198, 1153.9625480994, 1164.4896365949598, 1431.4917598071997, 1454.9768496016, 1497.97791167544, 3102.6413072824, 3105.09282104164, 3197.1310252856, 3209.5328007735197]

>  <E0_kJmol>  (4) 
-547181

>  <H298_kJmol>  (4) 
-547169

$$$$

     RDKit          3D

  3  2  0  0  0  0  0  0  0  0999 V2000
    1.0961   -0.1123    0.0000 O   0  0  0  0  0  0  0  0  0  1  0  0
   -0.0112    0.3049    0.0000 N   0  0  0  0  0  0  0  0  0  2  0  0
   -1.0848   -0.1926    0.0000 O   0  0  0  0  0  1  0  0  0  3  0  0
  1  2  1  0
  2  3  1  0
M  RAD  1   3   2
M  END
>  <rmg_smiles>  (5) 
[O][N][O]

>  <rmg_adjacency_list>  (5) 
multiplicity 2
1 O u1 p2 c0 {3,S}
2 O u0 p2 c0 {3,S}
3 N u0 p1 c0 {1,S} {2,S}


>  <multiplicity>  (5) 
2

>  <reaction>  (5) 
rmg_rxn_3076

>  <type>  (5) 
r2

>  <role_mapnums>  (5) 
{}

>  <role_mapidx>  (5) 
{}

>  <ordered_mapped_smiles>  (5) 
[OH:1][NH:2][O:3]

>  <level_of_theory>  (5) 
wb97xd/def2tzvp

>  <lot_method>  (5) 
wb97xd

>  <lot_basis>  (5) 
def2tzvp

>  <spin_multiplicity>  (5) 
2.0

>  <optical_isomers>  (5) 
1.0

>  <modes>  (5) 
IdealGasTranslation(mass=(45.9929, 'amu')),         NonlinearRotor(             inertia = ([2.03949, 38.09, 40.1295

>  <frequency_value>  (5) 
unknown

>  <frequency_units>  (5) 
unknown

>  <frequency_list>  (5) 
unknown

>  <arkane_path>  (5) 
/home/calvin/Dropbox/PersonalFolders/Calvin/ATLAS_Converged/rmg_rxn_3076/output/Species/rmg_rxn_3076_r1_sbr-O--sbrsbr-Np-sbr=O/arkane/output.py

>  <path_exists>  (5) 
True

>  <E0_value>  (5) 
-538456.0889257833

>  <E0_units>  (5) 
kJ/mol

>  <thermo_class>  (5) 
NASA

>  <Cp0_value>  (5) 
33.257888

>  <Cp0_units>  (5) 
J/(mol*K)

>  <CpInf_value>  (5) 
58.201304

>  <CpInf_units>  (5) 
J/(mol*K)

>  <Tmin_value>  (5) 
10.0

>  <Tmin_units>  (5) 
K

>  <Tmax_value>  (5) 
3000.0

>  <Tmax_units>  (5) 
K

>  <polynomials>  (5) 
[{"name": "polynomial1", "class": "NASAPolynomial", "Tmin_value": 10.0, "Tmin_units": "K", "Tmax_value": 829.6569664713601, "Tmax_units": "K", "coeffs": [4.03089636799025, -0.0019750039052565515, 1.6098845778790944e-05, -1.920739616755687e-08, 7.297907389699296e-12, -64761309.7824354, 5.8680775999309605]}, {"name": "polynomial2", "class": "NASAPolynomial", "Tmin_value": 829.6569664713601, "Tmin_units": "K", "Tmax_value": 3000.0, "Tmax_units": "K", "coeffs": [2.9737910070195195, 0.006084739080733844, -3.83028703701791e-06, 1.1113971313799636e-09, -1.2191596389898882e-13, -64761236.35692391, 10.155992803159362]}]

>  <H298_value>  (5) 
-128691.66925982916

>  <H298_units>  (5) 
kcal/mol

>  <S298_value>  (5) 
57.23889332642445

>  <S298_units>  (5) 
cal/(mol*K)

>  <Cp_T_value_list>  (5) 
[8.79896222486352, 9.487446878145503, 10.181056161241756, 10.807402148257042, 11.742781918561981, 12.355901987591391, 13.148390655511276, 13.438767435877251, 13.58014461694549]

>  <Cp_T_units>  (5) 
cal/(mol*K)

>  <T_list>  (5) 
[300.0, 400.0, 500.0, 600.0, 800.0, 1000.0, 1500.0, 2000.0, 2400.0]

>  <T_units>  (5) 
K

>  <yaml_path>  (5) 
/home/calvin/Dropbox/PersonalFolders/Calvin/ATLAS_Converged/rmg_rxn_3076/output/Species/rmg_rxn_3076_r1_sbr-O--sbrsbr-Np-sbr=O/rmg_rxn_3076_r1_sbr-O--sbrsbr-Np-sbr=O.yml

>  <frequencies_cm1>  (5) 
[773.57963026864, 1428.1132030297597, 1743.1018196581601]

>  <ZPE_kJmol>  (5) 
23.59511860156866

>  <E_elec_kJmol>  (5) 
-538479.6840443849

>  <E0_minus_Eelec_plus_ZPE_kJmol>  (5) 
0.0

>  <rxn>  (5) 
rmg_rxn_3076

>  <species_type>  (5) 
r0

>  <species_folder>  (5) 
rmg_rxn_3076_r1_sbr-O--sbrsbr-Np-sbr=O

>  <frequencies_cm1_list>  (5) 
[773.57963026864, 1428.1132030297597, 1743.1018196581601]

>  <E0_kJmol>  (5) 
-538456

>  <H298_kJmol>  (5) 
-538446

$$$$
