
     RDKit          3D

 13 12  0  0  0  0  0  0  0  0999 V2000
    1.5377   -0.7648   -0.0109 N   0  0  0  0  0  0  0  0  0  1  0  0
    1.1650    0.4771   -0.1413 N   0  0  0  0  0  0  0  0  0  2  0  0
   -0.0386    0.9325   -0.3499 C   0  0  0  0  0  0  0  0  0  3  0  0
   -1.1940    0.0034   -0.4605 C   0  0  0  0  0  0  0  0  0  4  0  0
   -1.6191   -0.5983    0.8840 C   0  0  0  0  0  0  0  0  0  5  0  0
    2.5679   -0.6807    0.1040 H   0  0  0  0  0  0  0  0  0  6  0  0
    1.9348    1.1719   -0.0742 H   0  0  0  0  0  0  0  0  0  7  0  0
   -0.1288    2.0059   -0.4164 H   0  0  0  0  0  0  0  0  0  8  0  0
   -0.9163   -0.8128   -1.1373 H   0  0  0  0  0  0  0  0  0  9  0  0
   -2.0328    0.5341   -0.9138 H   0  0  0  0  0  0  0  0  0 10  0  0
   -0.7846   -1.1317    1.3401 H   0  0  0  0  0  0  0  0  0 11  0  0
   -2.4408   -1.3032    0.7467 H   0  0  0  0  0  0  0  0  0 12  0  0
   -1.9494    0.1810    1.5730 H   0  0  0  0  0  0  0  0  0 13  0  0
  1  2  1  0
  1  6  1  0
  2  3  1  0
  2  7  1  0
  3  4  1  0
  3  8  1  0
  4  5  1  0
  4  9  1  0
  4 10  1  0
  5 11  1  0
  5 12  1  0
  5 13  1  0
M  END
>  <rmg_smiles>  (1) 
CC[CH]N[NH]

>  <rmg_adjacency_list>  (1) 
1  N u0 p1 c0 {2,S} {5,S} {12,S}
2  N u0 p1 c0 {1,S} {13,S}
3  C u0 p0 c0 {4,S} {5,S} {6,S} {7,S}
4  C u0 p0 c0 {3,S} {8,S} {9,S} {10,S}
5  C u0 p0 c0 {1,S} {3,S} {11,S}
6  H u0 p0 c0 {3,S}
7  H u0 p0 c0 {3,S}
8  H u0 p0 c0 {4,S}
9  H u0 p0 c0 {4,S}
10 H u0 p0 c0 {4,S}
11 H u0 p0 c0 {5,S}
12 H u0 p0 c0 {1,S}
13 H u0 p0 c0 {2,S}


>  <multiplicity>  (1) 
1

>  <reaction>  (1) 
rmg_rxn_16690

>  <type>  (1) 
r1h

>  <role_mapnums>  (1) 
{"r1h_a": 1, "r1h_h": 6}

>  <role_mapidx>  (1) 
{"r1h_a": 0, "r1h_h": 5}

>  <ordered_mapped_smiles>  (1) 
[NH:1]([N:2]([CH:3]([C:4]([C:5]([H:11])([H:12])[H:13])([H:9])[H:10])[H:8])[H:7])[H:6]

>  <mol_properties>  (1) 
{"0": {"label": "donator", "atom_type": "N3s"}, "5": {"label": "d_hydrogen", "atom_type": "H0"}}

>  <level_of_theory>  (1) 
wb97xd/def2tzvp

>  <lot_method>  (1) 
wb97xd

>  <lot_basis>  (1) 
def2tzvp

>  <spin_multiplicity>  (1) 
1.0

>  <optical_isomers>  (1) 
2.0

>  <modes>  (1) 
IdealGasTranslation(mass=(72.0687, 'amu')),         NonlinearRotor(             inertia = ([54.1798, 139.96, 170.595

>  <frequency_value>  (1) 
unknown

>  <frequency_units>  (1) 
unknown

>  <frequency_list>  (1) 
unknown

>  <arkane_path>  (1) 
/home/calvin/Dropbox/PersonalFolders/Calvin/ZEUS_Converged/rmg_rxn_16690/output/Species/rmg_rxn_16690_r2_sbr-NH--sbrsbr-NHp-sbr=CCC/arkane/output.py

>  <path_exists>  (1) 
True

>  <E0_value>  (1) 
-599821.079029405

>  <E0_units>  (1) 
kJ/mol

>  <thermo_class>  (1) 
NASA

>  <Cp0_value>  (1) 
33.257888

>  <Cp0_units>  (1) 
J/(mol*K)

>  <CpInf_value>  (1) 
307.635464

>  <CpInf_units>  (1) 
J/(mol*K)

>  <Tmin_value>  (1) 
10.0

>  <Tmin_units>  (1) 
K

>  <Tmax_value>  (1) 
3000.0

>  <Tmax_units>  (1) 
K

>  <polynomials>  (1) 
[{"name": "polynomial1", "class": "NASAPolynomial", "Tmin_value": 10.0, "Tmin_units": "K", "Tmax_value": 474.61964594595537, "Tmax_units": "K", "coeffs": [3.863859039499797, 0.011851414997180223, 8.53535865737404e-05, -1.5103226257020405e-07, 8.284203353652934e-11, -72141810.5277553, 10.25563896568167]}, {"name": "polynomial2", "class": "NASAPolynomial", "Tmin_value": 474.61964594595537, "Tmin_units": "K", "Tmax_value": 3000.0, "Tmax_units": "K", "coeffs": [-0.3841571886278731, 0.04765297595337663, -2.779497189906821e-05, 7.900550442960667e-09, -8.741425450704264e-13, -72141407.29077029, 27.584048703490318]}]

>  <H298_value>  (1) 
-143356.3591586957

>  <H298_units>  (1) 
kcal/mol

>  <S298_value>  (1) 
76.35053558304934

>  <S298_units>  (1) 
cal/(mol*K)

>  <Cp_T_value_list>  (1) 
[23.238900975803343, 29.24311512063344, 34.630099217568066, 39.336093970337274, 46.970555982824216, 52.66147854315868, 61.19727828144441, 65.49838577723882, 67.76216102079822]

>  <Cp_T_units>  (1) 
cal/(mol*K)

>  <T_list>  (1) 
[300.0, 400.0, 500.0, 600.0, 800.0, 1000.0, 1500.0, 2000.0, 2400.0]

>  <T_units>  (1) 
K

>  <yaml_path>  (1) 
/home/calvin/Dropbox/PersonalFolders/Calvin/ZEUS_Converged/rmg_rxn_16690/output/Species/rmg_rxn_16690_r2_sbr-NH--sbrsbr-NHp-sbr=CCC/rmg_rxn_16690_r2_sbr-NH--sbrsbr-NHp-sbr=CCC.yml

>  <frequencies_cm1>  (1) 
[136.9620222074, 209.61472689299998, 254.75828838668, 308.30703991204, 470.9447202309199, 604.68612632324, 687.9689242841999, 696.4839860809999, 805.7651904634799, 897.4737794120799, 920.54685008728, 1021.0932491427199, 1079.8334415699999, 1128.5341014594399, 1155.1642705303998, 1288.91941059336, 1343.4638749901198, 1373.9807577522, 1387.87266905456, 1398.0289403428399, 1456.3021777683598, 1482.71260330908, 1494.942704164, 1535.7257299794799, 1699.6338025825598, 3005.54900184292, 3019.50958299848, 3066.781909941359, 3090.26699973576, 3110.5040054737997, 3206.03063826032, 3439.3158635513596, 3491.6972275723197]

>  <ZPE_kJmol>  (1) 
300.67771847728307

>  <E_elec_kJmol>  (1) 
-600121.7567478823

>  <E0_minus_Eelec_plus_ZPE_kJmol>  (1) 
0.0

>  <rxn>  (1) 
rmg_rxn_16690

>  <species_type>  (1) 
r1

>  <species_folder>  (1) 
rmg_rxn_16690_r2_sbr-NH--sbrsbr-NHp-sbr=CCC

>  <frequencies_cm1_list>  (1) 
[136.9620222074, 209.61472689299998, 254.75828838668, 308.30703991204, 470.9447202309199, 604.68612632324, 687.9689242841999, 696.4839860809999, 805.7651904634799, 897.4737794120799, 920.54685008728, 1021.0932491427199, 1079.8334415699999, 1128.5341014594399, 1155.1642705303998, 1288.91941059336, 1343.4638749901198, 1373.9807577522, 1387.87266905456, 1398.0289403428399, 1456.3021777683598, 1482.71260330908, 1494.942704164, 1535.7257299794799, 1699.6338025825598, 3005.54900184292, 3019.50958299848, 3066.781909941359, 3090.26699973576, 3110.5040054737997, 3206.03063826032, 3439.3158635513596, 3491.6972275723197]

>  <E0_kJmol>  (1) 
-599821

>  <H298_kJmol>  (1) 
-599803

$$$$

     RDKit          3D

  8  7  0  0  0  0  0  0  0  0999 V2000
    0.8250   -0.9607    0.1424 C   0  0  0  0  0  0  0  0  0  1  0  0
   -0.3902   -0.1198   -0.0378 C   0  0  0  0  0  0  0  0  0  2  0  0
   -0.5219    1.1187   -0.1167 N   0  0  0  0  0  0  0  0  0  3  0  0
    0.9155   -1.6535   -0.6958 H   0  0  0  0  0  0  0  0  0  4  0  0
    1.7333   -0.3547    0.2132 H   0  0  0  0  0  0  0  0  0  5  0  0
    0.7199   -1.5635    1.0460 H   0  0  0  0  0  0  0  0  0  6  0  0
    0.3351    1.6715   -0.0484 H   0  0  0  0  0  0  0  0  0  7  0  0
   -1.3504   -0.6295   -0.1173 H   0  0  0  0  0  0  0  0  0  8  0  0
  1  5  1  0
  1  4  1  0
  1  6  1  0
  1  2  1  0
  2  3  1  0
  2  8  1  0
  3  7  1  0
M  END
>  <rmg_smiles>  (2) 
C[CH][NH]

>  <rmg_adjacency_list>  (2) 
1 N u0 p1 c0 {3,S} {8,S}
2 C u0 p0 c0 {3,S} {4,S} {5,S} {6,S}
3 C u0 p0 c0 {1,S} {2,S} {7,S}
4 H u0 p0 c0 {2,S}
5 H u0 p0 c0 {2,S}
6 H u0 p0 c0 {2,S}
7 H u0 p0 c0 {3,S}
8 H u0 p0 c0 {1,S}


>  <multiplicity>  (2) 
1

>  <reaction>  (2) 
rmg_rxn_16690

>  <type>  (2) 
r2h

>  <role_mapnums>  (2) 
{"r2h_a": 2, "r2h_h": 8}

>  <role_mapidx>  (2) 
{"r2h_a": 1, "r2h_h": 7}

>  <ordered_mapped_smiles>  (2) 
[C:1]([CH:2]([NH:3][H:7])[H:8])([H:4])([H:5])[H:6]

>  <mol_properties>  (2) 
{"1": {"label": "acceptor", "atom_type": "Cs"}, "7": {"label": "a_hydrogen", "atom_type": "H0"}}

>  <level_of_theory>  (2) 
wb97xd/def2tzvp

>  <lot_method>  (2) 
wb97xd

>  <lot_basis>  (2) 
def2tzvp

>  <spin_multiplicity>  (2) 
1.0

>  <optical_isomers>  (2) 
1.0

>  <modes>  (2) 
IdealGasTranslation(mass=(43.0422, 'amu')),         NonlinearRotor(             inertia = ([9.32783, 51.3348, 57.5532

>  <frequency_value>  (2) 
unknown

>  <frequency_units>  (2) 
unknown

>  <frequency_list>  (2) 
unknown

>  <arkane_path>  (2) 
/home/calvin/Dropbox/PersonalFolders/Calvin/ZEUS_Converged/rmg_rxn_16690/output/Species/rmg_rxn_16690_p1_CC=N/arkane/output.py

>  <path_exists>  (2) 
True

>  <E0_value>  (2) 
-351535.20335661684

>  <E0_units>  (2) 
kJ/mol

>  <thermo_class>  (2) 
NASA

>  <Cp0_value>  (2) 
33.257888

>  <Cp0_units>  (2) 
J/(mol*K)

>  <CpInf_value>  (2) 
182.918384

>  <CpInf_units>  (2) 
J/(mol*K)

>  <Tmin_value>  (2) 
10.0

>  <Tmin_units>  (2) 
K

>  <Tmax_value>  (2) 
3000.0

>  <Tmax_units>  (2) 
K

>  <polynomials>  (2) 
[{"name": "polynomial1", "class": "NASAPolynomial", "Tmin_value": 10.0, "Tmin_units": "K", "Tmax_value": 834.0183041901832, "Tmax_units": "K", "coeffs": [4.020859284868709, 0.0012406595733239277, 4.4482903010182226e-05, -5.482114439751344e-08, 2.0739201558559772e-11, -42279921.71645892, 6.726586383468645]}, {"name": "polynomial2", "class": "NASAPolynomial", "Tmin_value": 834.0183041901832, "Tmin_units": "K", "Tmax_value": 3000.0, "Tmax_units": "K", "coeffs": [0.8146767610859666, 0.025012560508124084, -1.3369721411120483e-05, 3.4917002293006827e-09, -3.579375529269218e-13, -42279678.881200545, 19.862274208798944]}]

>  <H298_value>  (2) 
-84015.86036687854

>  <H298_units>  (2) 
kcal/mol

>  <S298_value>  (2) 
62.66843297179497

>  <S298_units>  (2) 
cal/(mol*K)

>  <Cp_T_value_list>  (2) 
[14.078036689508782, 17.202765604471058, 20.2803800489589, 23.1023356383003, 27.639649626797436, 30.983090061901617, 36.21499785066487, 38.88468928045463, 40.19916387517873]

>  <Cp_T_units>  (2) 
cal/(mol*K)

>  <T_list>  (2) 
[300.0, 400.0, 500.0, 600.0, 800.0, 1000.0, 1500.0, 2000.0, 2400.0]

>  <T_units>  (2) 
K

>  <yaml_path>  (2) 
/home/calvin/Dropbox/PersonalFolders/Calvin/ZEUS_Converged/rmg_rxn_16690/output/Species/rmg_rxn_16690_p1_CC=N/rmg_rxn_16690_p1_CC=N.yml

>  <frequencies_cm1>  (2) 
[185.42920459596, 489.9250676554, 680.6761858743599, 921.32968641376, 1055.89513074448, 1069.62910138448, 1130.4431233784, 1267.5150173509198, 1378.7876474762, 1425.071128533, 1456.56312321052, 1463.3683056626398, 1737.36788691596, 2989.2124437666403, 3014.6889593038395, 3075.43431144456, 3123.3452680222, 3455.8927661138396]

>  <ZPE_kJmol>  (2) 
178.96482902382195

>  <E_elec_kJmol>  (2) 
-351714.16818564065

>  <E0_minus_Eelec_plus_ZPE_kJmol>  (2) 
0.0

>  <rxn>  (2) 
rmg_rxn_16690

>  <species_type>  (2) 
p0

>  <species_folder>  (2) 
rmg_rxn_16690_p1_CC=N

>  <frequencies_cm1_list>  (2) 
[185.42920459596, 489.9250676554, 680.6761858743599, 921.32968641376, 1055.89513074448, 1069.62910138448, 1130.4431233784, 1267.5150173509198, 1378.7876474762, 1425.071128533, 1456.56312321052, 1463.3683056626398, 1737.36788691596, 2989.2124437666403, 3014.6889593038395, 3075.43431144456, 3123.3452680222, 3455.8927661138396]

>  <E0_kJmol>  (2) 
-351535

>  <H298_kJmol>  (2) 
-351522

$$$$

     RDKit          3D

 20 18  0  0  0  0  0  0  0  0999 V2000
    3.5249   -0.8626    0.2990 C   0  0  0  0  0  0  0  0  0  1  0  0
    2.3098   -0.0217    0.1188 C   0  0  0  0  0  3  0  0  0  2  0  0
    2.1781    1.2168    0.0399 N   0  0  0  0  0  0  0  0  0  3  0  0
    3.6155   -1.5554   -0.5393 H   0  0  0  0  0  0  0  0  0  4  0  0
    4.4332   -0.2566    0.3697 H   0  0  0  0  0  0  0  0  0  5  0  0
    3.4198   -1.4653    1.2026 H   0  0  0  0  0  0  0  0  0  6  0  0
    3.0350    1.7696    0.1081 H   0  0  0  0  0  0  0  0  0  7  0  0
   -0.1117   -0.7760   -0.1158 N   0  0  0  0  0  0  0  0  0  8  0  0
   -0.4844    0.4659   -0.2461 N   0  0  0  0  0  0  0  0  0  9  0  0
   -1.6880    0.9213   -0.4548 C   0  0  0  0  0  0  0  0  0 10  0  0
   -2.8434   -0.0078   -0.5654 C   0  0  0  0  0  0  0  0  0 11  0  0
   -3.2685   -0.6095    0.7792 C   0  0  0  0  0  0  0  0  0 12  0  0
    1.0704   -0.6795    0.0161 H   0  0  0  0  0  0  0  0  0 13  0  0
    0.2854    1.1606   -0.1791 H   0  0  0  0  0  0  0  0  0 14  0  0
   -1.7782    1.9947   -0.5212 H   0  0  0  0  0  0  0  0  0 15  0  0
   -2.5657   -0.8240   -1.2421 H   0  0  0  0  0  0  0  0  0 16  0  0
   -3.6822    0.5229   -1.0187 H   0  0  0  0  0  0  0  0  0 17  0  0
   -2.4340   -1.1429    1.2352 H   0  0  0  0  0  0  0  0  0 18  0  0
   -4.0902   -1.3144    0.6418 H   0  0  0  0  0  0  0  0  0 19  0  0
   -3.5988    0.1698    1.4681 H   0  0  0  0  0  0  0  0  0 20  0  0
  1  5  1  0
  1  4  1  0
  1  6  1  0
  1  2  1  0
  2  3  1  0
  3  7  1  0
  8 13  1  0
  8  9  1  0
  9 10  1  0
  9 14  1  0
 10 11  1  0
 10 15  1  0
 11 12  1  0
 11 16  1  0
 11 17  1  0
 12 19  1  0
 12 20  1  0
 12 18  1  0
M  RAD  1   2   2
M  END
>  <rmg_smiles>  (3) 
CC[CH]N[NH].C[C][NH]

>  <rmg_adjacency_list>  (3) 
multiplicity 2
1  N u0 p1 c0 {2,S} {7,S} {18,S}
2  N u0 p1 c0 {1,S} {19,S}
3  N u0 p1 c0 {8,S} {20,S}
4  C u0 p0 c0 {5,S} {7,S} {9,S} {10,S}
5  C u0 p0 c0 {4,S} {11,S} {12,S} {13,S}
6  C u0 p0 c0 {8,S} {14,S} {15,S} {16,S}
7  C u0 p0 c0 {1,S} {4,S} {17,S}
8  C u1 p1 c0 {3,S} {6,S}
9  H u0 p0 c0 {4,S}
10 H u0 p0 c0 {4,S}
11 H u0 p0 c0 {5,S}
12 H u0 p0 c0 {5,S}
13 H u0 p0 c0 {5,S}
14 H u0 p0 c0 {6,S}
15 H u0 p0 c0 {6,S}
16 H u0 p0 c0 {6,S}
17 H u0 p0 c0 {7,S}
18 H u0 p0 c0 {1,S}
19 H u0 p0 c0 {2,S}
20 H u0 p0 c0 {3,S}


>  <multiplicity>  (3) 
2

>  <reaction>  (3) 
rmg_rxn_16690

>  <type>  (3) 
ts

>  <role_mapnums>  (3) 
{"*2": 13, "*1": 8, "*3": 2, "*0": 9, "*4": 3}

>  <role_mapidx>  (3) 
{"*2": 12, "*1": 7, "*3": 1, "*0": 8, "*4": 2}

>  <ordered_mapped_smiles>  (3) 
[C:1]([CH:2][NH:3][H:7])([H:4])([H:5])[H:6].[NH:8]([N:9]([CH:10]([C:11]([C:12]([H:18])([H:19])[H:20])([H:16])[H:17])[H:15])[H:14])[H:13]

>  <mol_properties>  (3) 
{"1": {"label": "*3", "atom_type": "C2s"}, "2": {"label": "*4", "atom_type": "N3s"}, "7": {"label": "*1", "atom_type": "N3s"}, "8": {"label": "*0", "atom_type": "N3s"}, "12": {"label": "*2", "atom_type": "H0"}}

>  <level_of_theory>  (3) 
wb97xd/def2tzvp

>  <lot_method>  (3) 
wb97xd

>  <lot_basis>  (3) 
def2tzvp

>  <spin_multiplicity>  (3) 
2.0

>  <optical_isomers>  (3) 
2.0

>  <modes>  (3) 
IdealGasTranslation(mass=(114.103, 'amu')),         NonlinearRotor(             inertia = ([97.6593, 676.418, 736.178

>  <frequency_value>  (3) 
-1557.5

>  <frequency_units>  (3) 
cm^-1

>  <frequency_list>  (3) 
unknown

>  <arkane_path>  (3) 
/home/calvin/Dropbox/PersonalFolders/Calvin/ZEUS_Converged/rmg_rxn_16690/output/rxns/TS0/arkane/output.py

>  <path_exists>  (3) 
True

>  <E0_value>  (3) 
-949637.0

>  <E0_units>  (3) 
kJ/mol

>  <thermo_class>  (3) 
unknown

>  <Cp0_value>  (3) 
unknown

>  <Cp0_units>  (3) 
unknown

>  <CpInf_value>  (3) 
unknown

>  <CpInf_units>  (3) 
unknown

>  <Tmin_value>  (3) 
unknown

>  <Tmin_units>  (3) 
unknown

>  <Tmax_value>  (3) 
unknown

>  <Tmax_units>  (3) 
unknown

>  <polynomials>  (3) 
unknown

>  <H298_value>  (3) 
unknown

>  <H298_units>  (3) 
unknown

>  <S298_value>  (3) 
unknown

>  <S298_units>  (3) 
unknown

>  <Cp_T_value_list>  (3) 
unknown

>  <Cp_T_units>  (3) 
unknown

>  <T_list>  (3) 
unknown

>  <T_units>  (3) 
unknown

>  <yaml_path>  (3) 
unknown

>  <frequencies_cm1>  (3) 
unknown

>  <ZPE_kJmol>  (3) 
unknown

>  <E_elec_kJmol>  (3) 
unknown

>  <E0_minus_Eelec_plus_ZPE_kJmol>  (3) 
unknown

>  <rxn>  (3) 
unknown

>  <species_type>  (3) 
unknown

>  <species_folder>  (3) 
unknown

>  <frequencies_cm1_list>  (3) 
[]

>  <ts_imag_freq_cm1>  (3) 
-1576.4178

>  <ts_freq_out_path>  (3) 
/home/calvin/Dropbox/PersonalFolders/Calvin/ZEUS_Converged/rmg_rxn_16690/output/rxns/TS0/geometry/freq.out

>  <E0_kJmol>  (3) 
-949637

>  <H298_kJmol>  (3) 
unknown

$$$$

     RDKit          3D

 12 11  0  0  0  0  0  0  0  0999 V2000
    1.5035    1.1817    1.1766 N   0  0  0  0  0  2  0  0  0  1  0  0
    1.5580   -0.0511    0.8125 N   0  0  0  0  0  0  0  0  0  2  0  0
    0.8483   -0.7137   -0.0804 C   0  0  0  0  0  0  0  0  0  3  0  0
   -0.2212   -0.0125   -0.8376 C   0  0  0  0  0  0  0  0  0  4  0  0
   -1.4527    0.3302    0.0094 C   0  0  0  0  0  0  0  0  0  5  0  0
    2.2746   -0.5859    1.3051 H   0  0  0  0  0  0  0  0  0  6  0  0
    1.0804   -1.7613   -0.1832 H   0  0  0  0  0  0  0  0  0  7  0  0
    0.1929    0.9174   -1.2475 H   0  0  0  0  0  0  0  0  0  8  0  0
   -0.5138   -0.6336   -1.6852 H   0  0  0  0  0  0  0  0  0  9  0  0
   -1.1741    0.9508    0.8624 H   0  0  0  0  0  0  0  0  0 10  0  0
   -2.1844    0.8814   -0.5832 H   0  0  0  0  0  0  0  0  0 11  0  0
   -1.9295   -0.5758    0.3866 H   0  0  0  0  0  0  0  0  0 12  0  0
  1  2  1  0
  2  6  1  0
  2  3  1  0
  3  4  1  0
  3  7  1  0
  4  8  1  0
  4  5  1  0
  4  9  1  0
  5 11  1  0
  5 12  1  0
  5 10  1  0
M  RAD  1   1   2
M  END
>  <rmg_smiles>  (4) 
CC[CH]N[N]

>  <rmg_adjacency_list>  (4) 
multiplicity 2
1  N u0 p1 c0 {2,S} {5,S} {12,S}
2  N u1 p2 c0 {1,S}
3  C u0 p0 c0 {4,S} {5,S} {6,S} {7,S}
4  C u0 p0 c0 {3,S} {8,S} {9,S} {10,S}
5  C u0 p0 c0 {1,S} {3,S} {11,S}
6  H u0 p0 c0 {3,S}
7  H u0 p0 c0 {3,S}
8  H u0 p0 c0 {4,S}
9  H u0 p0 c0 {4,S}
10 H u0 p0 c0 {4,S}
11 H u0 p0 c0 {5,S}
12 H u0 p0 c0 {1,S}


>  <multiplicity>  (4) 
2

>  <reaction>  (4) 
rmg_rxn_16690

>  <type>  (4) 
r1

>  <role_mapnums>  (4) 
{}

>  <role_mapidx>  (4) 
{}

>  <ordered_mapped_smiles>  (4) 
[NH:1][N:2]([CH:3]([C:4]([C:5]([H:10])([H:11])[H:12])([H:8])[H:9])[H:7])[H:6]

>  <level_of_theory>  (4) 
wb97xd/def2tzvp

>  <lot_method>  (4) 
wb97xd

>  <lot_basis>  (4) 
def2tzvp

>  <spin_multiplicity>  (4) 
2.0

>  <optical_isomers>  (4) 
2.0

>  <modes>  (4) 
IdealGasTranslation(mass=(71.0609, 'amu')),         NonlinearRotor(             inertia = ([53.0503, 135.065, 165.702

>  <frequency_value>  (4) 
unknown

>  <frequency_units>  (4) 
unknown

>  <frequency_list>  (4) 
unknown

>  <arkane_path>  (4) 
/home/calvin/Dropbox/PersonalFolders/Calvin/ZEUS_Converged/rmg_rxn_16690/output/Species/rmg_rxn_16690_p2_sbr-N--sbrsbr-NHp-sbr=CCC/arkane/output.py

>  <path_exists>  (4) 
True

>  <E0_value>  (4) 
-598127.5170683578

>  <E0_units>  (4) 
kJ/mol

>  <thermo_class>  (4) 
NASA

>  <Cp0_value>  (4) 
33.257888

>  <Cp0_units>  (4) 
J/(mol*K)

>  <CpInf_value>  (4) 
282.692048

>  <CpInf_units>  (4) 
J/(mol*K)

>  <Tmin_value>  (4) 
10.0

>  <Tmin_units>  (4) 
K

>  <Tmax_value>  (4) 
3000.0

>  <Tmax_units>  (4) 
K

>  <polynomials>  (4) 
[{"name": "polynomial1", "class": "NASAPolynomial", "Tmin_value": 10.0, "Tmin_units": "K", "Tmax_value": 739.4987449668242, "Tmax_units": "K", "coeffs": [3.821237841218982, 0.01680233831714634, 4.763006898661869e-05, -7.71175415403906e-08, 3.416658450336572e-11, -71938122.51592126, 10.943749159718502]}, {"name": "polynomial2", "class": "NASAPolynomial", "Tmin_value": 739.4987449668242, "Tmin_units": "K", "Tmax_value": 3000.0, "Tmax_units": "K", "coeffs": [1.2981950792052557, 0.041135693680169456, -2.3403312091834742e-05, 6.460657189340593e-09, -6.94523789165287e-13, -71938041.54612035, 20.37898271293223]}]

>  <H298_value>  (4) 
-142951.5945603881

>  <H298_units>  (4) 
kcal/mol

>  <S298_value>  (4) 
77.94371803628228

>  <S298_units>  (4) 
cal/(mol*K)

>  <Cp_T_value_list>  (4) 
[22.541323025770144, 28.02383668436086, 33.03858602179868, 37.3993575942407, 44.21933857655624, 49.27618344888546, 56.89963351365265, 60.667846489336924, 62.57767876105476]

>  <Cp_T_units>  (4) 
cal/(mol*K)

>  <T_list>  (4) 
[300.0, 400.0, 500.0, 600.0, 800.0, 1000.0, 1500.0, 2000.0, 2400.0]

>  <T_units>  (4) 
K

>  <yaml_path>  (4) 
/home/calvin/Dropbox/PersonalFolders/Calvin/ZEUS_Converged/rmg_rxn_16690/output/Species/rmg_rxn_16690_p2_sbr-N--sbrsbr-NHp-sbr=CCC/rmg_rxn_16690_p2_sbr-N--sbrsbr-NHp-sbr=CCC.yml

>  <frequencies_cm1>  (4) 
[108.841717322, 198.85416089656, 256.05614861216003, 294.31212382987997, 511.21958913272005, 575.24049327108, 667.51904200124, 801.3153839761201, 827.2863224563599, 887.88060092004, 1013.14128014216, 1072.9046533821202, 1121.7838548898799, 1135.2019442051599, 1287.1133934542, 1337.173716437, 1345.67504426316, 1400.50792204336, 1452.9854238588, 1475.6464754148, 1488.28859538892, 1496.5701796848398, 1535.3961146841198, 2981.79609962104, 3018.4795352004803, 3067.0977912660796, 3094.0507086470793, 3099.5786318296796, 3217.4298338915196, 3404.9603359954]

>  <ZPE_kJmol>  (4) 
264.22110838643863

>  <E_elec_kJmol>  (4) 
-598391.7381767442

>  <E0_minus_Eelec_plus_ZPE_kJmol>  (4) 
0.0

>  <rxn>  (4) 
rmg_rxn_16690

>  <species_type>  (4) 
p1

>  <species_folder>  (4) 
rmg_rxn_16690_p2_sbr-N--sbrsbr-NHp-sbr=CCC

>  <frequencies_cm1_list>  (4) 
[108.841717322, 198.85416089656, 256.05614861216003, 294.31212382987997, 511.21958913272005, 575.24049327108, 667.51904200124, 801.3153839761201, 827.2863224563599, 887.88060092004, 1013.14128014216, 1072.9046533821202, 1121.7838548898799, 1135.2019442051599, 1287.1133934542, 1337.173716437, 1345.67504426316, 1400.50792204336, 1452.9854238588, 1475.6464754148, 1488.28859538892, 1496.5701796848398, 1535.3961146841198, 2981.79609962104, 3018.4795352004803, 3067.0977912660796, 3094.0507086470793, 3099.5786318296796, 3217.4298338915196, 3404.9603359954]

>  <E0_kJmol>  (4) 
-598128

>  <H298_kJmol>  (4) 
-598109

$$$$

     RDKit          3D

  7  6  0  0  0  0  0  0  0  0999 V2000
   -0.8790   -0.0485   -0.1139 C   0  0  0  0  0  0  0  0  0  1  0  0
    0.2566    0.5075    0.6625 C   0  0  0  0  0  3  0  0  0  2  0  0
    1.4635    0.2854    0.5626 N   0  0  0  0  0  0  0  0  0  3  0  0
   -0.5287   -0.7543   -0.8725 H   0  0  0  0  0  0  0  0  0  4  0  0
   -1.5724   -0.5516    0.5613 H   0  0  0  0  0  0  0  0  0  5  0  0
   -1.4260    0.7636   -0.5947 H   0  0  0  0  0  0  0  0  0  6  0  0
    2.0849    0.7767    1.2004 H   0  0  0  0  0  0  0  0  0  7  0  0
  1  5  1  0
  1  4  1  0
  1  6  1  0
  1  2  1  0
  2  3  1  0
  3  7  1  0
M  RAD  1   2   2
M  END
>  <rmg_smiles>  (5) 
C[C][NH]

>  <rmg_adjacency_list>  (5) 
multiplicity 2
1 N u0 p1 c0 {3,S} {7,S}
2 C u0 p0 c0 {3,S} {4,S} {5,S} {6,S}
3 C u1 p1 c0 {1,S} {2,S}
4 H u0 p0 c0 {2,S}
5 H u0 p0 c0 {2,S}
6 H u0 p0 c0 {2,S}
7 H u0 p0 c0 {1,S}


>  <multiplicity>  (5) 
2

>  <reaction>  (5) 
rmg_rxn_16690

>  <type>  (5) 
r2

>  <role_mapnums>  (5) 
{}

>  <role_mapidx>  (5) 
{}

>  <ordered_mapped_smiles>  (5) 
[C:1]([CH:2][NH:3][H:7])([H:4])([H:5])[H:6]

>  <level_of_theory>  (5) 
wb97xd/def2tzvp

>  <lot_method>  (5) 
wb97xd

>  <lot_basis>  (5) 
def2tzvp

>  <spin_multiplicity>  (5) 
2.0

>  <optical_isomers>  (5) 
1.0

>  <modes>  (5) 
IdealGasTranslation(mass=(42.0344, 'amu')),         NonlinearRotor(             inertia = ([5.99171, 53.2819, 56.1621

>  <frequency_value>  (5) 
unknown

>  <frequency_units>  (5) 
unknown

>  <frequency_list>  (5) 
unknown

>  <arkane_path>  (5) 
/home/calvin/Dropbox/PersonalFolders/Calvin/ZEUS_Converged/rmg_rxn_16690/output/Species/rmg_rxn_16690_r1_Csbr-C-sbr=N/arkane/output.py

>  <path_exists>  (5) 
True

>  <E0_value>  (5) 
-349829.7649423173

>  <E0_units>  (5) 
kJ/mol

>  <thermo_class>  (5) 
NASA

>  <Cp0_value>  (5) 
33.257888

>  <Cp0_units>  (5) 
J/(mol*K)

>  <CpInf_value>  (5) 
157.97496800000002

>  <CpInf_units>  (5) 
J/(mol*K)

>  <Tmin_value>  (5) 
10.0

>  <Tmin_units>  (5) 
K

>  <Tmax_value>  (5) 
3000.0

>  <Tmax_units>  (5) 
K

>  <polynomials>  (5) 
[{"name": "polynomial1", "class": "NASAPolynomial", "Tmin_value": 10.0, "Tmin_units": "K", "Tmax_value": 738.414600342838, "Tmax_units": "K", "coeffs": [3.9481640097150597, 0.005049457413895168, 2.913648412595472e-05, -4.145723221454257e-08, 1.744276697716434e-11, -42074802.02929193, 7.367045152353382]}, {"name": "polynomial2", "class": "NASAPolynomial", "Tmin_value": 738.414600342838, "Tmin_units": "K", "Tmax_value": 3000.0, "Tmax_units": "K", "coeffs": [1.8715706616327448, 0.020638742508001566, -1.1348172878433495e-05, 3.0539550163516746e-09, -3.221182576091643e-13, -42074613.6822098, 15.954435525173993]}]

>  <H298_value>  (5) 
-83608.17190419506

>  <H298_units>  (5) 
kcal/mol

>  <S298_value>  (5) 
64.24091686299433

>  <S298_units>  (5) 
cal/(mol*K)

>  <Cp_T_value_list>  (5) 
[14.123525607513509, 16.738352452514043, 19.206415728750013, 21.407764651273283, 24.942262140253654, 27.61020151778116, 31.740993558688416, 33.85029844813746, 34.91490095126585]

>  <Cp_T_units>  (5) 
cal/(mol*K)

>  <T_list>  (5) 
[300.0, 400.0, 500.0, 600.0, 800.0, 1000.0, 1500.0, 2000.0, 2400.0]

>  <T_units>  (5) 
K

>  <yaml_path>  (5) 
/home/calvin/Dropbox/PersonalFolders/Calvin/ZEUS_Converged/rmg_rxn_16690/output/Species/rmg_rxn_16690_r1_Csbr-C-sbr=N/rmg_rxn_16690_r1_Csbr-C-sbr=N.yml

>  <frequencies_cm1>  (5) 
[141.6659071516, 434.27501862211994, 665.3078727282, 899.7673525089599, 963.6234489996399, 1033.0212026435597, 1158.24754693908, 1370.993619138, 1448.09613031096, 1452.31932628276, 1834.0687741922, 3001.5592833719998, 3089.40862657076, 3102.8061149300793, 3454.3957633140794]

>  <ZPE_kJmol>  (5) 
143.84833071593354

>  <E_elec_kJmol>  (5) 
-349973.6132730333

>  <E0_minus_Eelec_plus_ZPE_kJmol>  (5) 
0.0

>  <rxn>  (5) 
rmg_rxn_16690

>  <species_type>  (5) 
r0

>  <species_folder>  (5) 
rmg_rxn_16690_r1_Csbr-C-sbr=N

>  <frequencies_cm1_list>  (5) 
[141.6659071516, 434.27501862211994, 665.3078727282, 899.7673525089599, 963.6234489996399, 1033.0212026435597, 1158.24754693908, 1370.993619138, 1448.09613031096, 1452.31932628276, 1834.0687741922, 3001.5592833719998, 3089.40862657076, 3102.8061149300793, 3454.3957633140794]

>  <E0_kJmol>  (5) 
-349830

>  <H298_kJmol>  (5) 
-349817

$$$$
