
     RDKit          3D

 14 13  0  0  0  0  0  0  0  0999 V2000
    0.4488   -1.1738   -1.4885 C   0  0  0  0  0  0  0  0  0  1  0  0
    0.2785   -0.7081   -0.0492 C   0  0  0  0  0  0  0  0  0  2  0  0
   -0.2521    0.7182    0.0543 C   0  0  0  0  0  0  0  0  0  3  0  0
   -0.4508    1.1826    1.4730 C   0  0  0  0  0  0  0  0  0  4  0  0
    1.1465   -0.5295   -2.0285 H   0  0  0  0  0  0  0  0  0  5  0  0
   -0.5040   -1.1476   -2.0227 H   0  0  0  0  0  0  0  0  0  6  0  0
    0.8313   -2.1946   -1.5367 H   0  0  0  0  0  0  0  0  0  7  0  0
   -0.4021   -1.3847    0.4770 H   0  0  0  0  0  0  0  0  0  8  0  0
    1.2363   -0.7740    0.4766 H   0  0  0  0  0  0  0  0  0  9  0  0
   -1.2014    0.7983   -0.4853 H   0  0  0  0  0  0  0  0  0 10  0  0
    0.4428    1.3930   -0.4626 H   0  0  0  0  0  0  0  0  0 11  0  0
    0.4194    1.0616    2.1189 H   0  0  0  0  0  0  0  0  0 12  0  0
   -1.1985    0.5271    1.9176 H   0  0  0  0  0  0  0  0  0 13  0  0
   -0.8957    2.1708    1.5704 H   0  0  0  0  0  0  0  0  0 14  0  0
  1  5  1  0
  1  7  1  0
  1  6  1  0
  1  2  1  0
  2  9  1  0
  2  8  1  0
  2  3  1  0
  3 11  1  0
  3  4  1  0
  3 10  1  0
  4 14  1  0
  4 13  1  0
  4 12  1  0
M  END
>  <rmg_smiles>  (1) 
CCCC

>  <rmg_adjacency_list>  (1) 
1  C u0 p0 c0 {2,S} {3,S} {5,S} {6,S}
2  C u0 p0 c0 {1,S} {4,S} {7,S} {8,S}
3  C u0 p0 c0 {1,S} {9,S} {10,S} {11,S}
4  C u0 p0 c0 {2,S} {12,S} {13,S} {14,S}
5  H u0 p0 c0 {1,S}
6  H u0 p0 c0 {1,S}
7  H u0 p0 c0 {2,S}
8  H u0 p0 c0 {2,S}
9  H u0 p0 c0 {3,S}
10 H u0 p0 c0 {3,S}
11 H u0 p0 c0 {3,S}
12 H u0 p0 c0 {4,S}
13 H u0 p0 c0 {4,S}
14 H u0 p0 c0 {4,S}


>  <multiplicity>  (1) 
1

>  <reaction>  (1) 
rmg_rxn_34

>  <type>  (1) 
r1h

>  <role_mapnums>  (1) 
{"r1h_a": 4, "r1h_h": 13}

>  <role_mapidx>  (1) 
{"r1h_a": 3, "r1h_h": 12}

>  <ordered_mapped_smiles>  (1) 
[C:1]([C:2]([C:3]([C:4]([H:12])([H:13])[H:14])([H:10])[H:11])([H:8])[H:9])([H:5])([H:6])[H:7]

>  <mol_properties>  (1) 
{"3": {"label": "donator", "atom_type": "Cs"}, "12": {"label": "d_hydrogen", "atom_type": "H0"}}

>  <level_of_theory>  (1) 
wb97xd/def2tzvp

>  <lot_method>  (1) 
wb97xd

>  <lot_basis>  (1) 
def2tzvp

>  <spin_multiplicity>  (1) 
1.0

>  <optical_isomers>  (1) 
1.0

>  <modes>  (1) 
IdealGasTranslation(mass=(58.0782, 'amu')),         NonlinearRotor(             inertia = ([21.4183, 138.436, 147.416

>  <frequency_value>  (1) 
unknown

>  <frequency_units>  (1) 
unknown

>  <frequency_list>  (1) 
unknown

>  <arkane_path>  (1) 
/home/calvin/Dropbox/PersonalFolders/Calvin/ATLAS_Converged/rmg_rxn_34/output/Species/rmg_rxn_34_r2_CCCC/arkane/output.py

>  <path_exists>  (1) 
True

>  <E0_value>  (1) 
-415711.4770347972

>  <E0_units>  (1) 
kJ/mol

>  <thermo_class>  (1) 
NASA

>  <Cp0_value>  (1) 
33.257888

>  <Cp0_units>  (1) 
J/(mol*K)

>  <CpInf_value>  (1) 
332.57888

>  <CpInf_units>  (1) 
J/(mol*K)

>  <Tmin_value>  (1) 
10.0

>  <Tmin_units>  (1) 
K

>  <Tmax_value>  (1) 
3000.0

>  <Tmax_units>  (1) 
K

>  <polynomials>  (1) 
[{"name": "polynomial1", "class": "NASAPolynomial", "Tmin_value": 10.0, "Tmin_units": "K", "Tmax_value": 1025.0239672813746, "Tmax_units": "K", "coeffs": [3.915013592071844, 0.015190476507378274, 4.499566831623061e-05, -5.4452087887537436e-08, 1.803189229500368e-11, -49998546.31449076, 7.728184054699678]}, {"name": "polynomial2", "class": "NASAPolynomial", "Tmin_value": 1025.0239672813746, "Tmin_units": "K", "Tmax_value": 3000.0, "Tmax_units": "K", "coeffs": [0.8557434606866323, 0.04413202068529884, -2.2238982520549216e-05, 5.4598853249734095e-09, -5.274578153178241e-13, -49998812.39100051, 18.205832942846666]}]

>  <H298_value>  (1) 
-99353.185245995

>  <H298_units>  (1) 
kcal/mol

>  <S298_value>  (1) 
71.76251802442486

>  <S298_units>  (1) 
cal/(mol*K)

>  <Cp_T_value_list>  (1) 
[22.251980571284225, 28.1531399049666, 33.94079391323614, 39.35269474865459, 48.430242634303475, 55.007789274879656, 65.12656285712895, 70.35428852741721, 72.83851882766015]

>  <Cp_T_units>  (1) 
cal/(mol*K)

>  <T_list>  (1) 
[300.0, 400.0, 500.0, 600.0, 800.0, 1000.0, 1500.0, 2000.0, 2400.0]

>  <T_units>  (1) 
K

>  <yaml_path>  (1) 
/home/calvin/Dropbox/PersonalFolders/Calvin/ATLAS_Converged/rmg_rxn_34/output/Species/rmg_rxn_34_r2_CCCC/rmg_rxn_34_r2_CCCC.yml

>  <frequencies_cm1>  (1) 
[117.85806904715999, 224.50921805207997, 259.37290252171994, 260.8081024536, 427.68957970024, 733.9639919575599, 810.5171443049198, 844.8383369342799, 959.6886664112799, 978.69648177704, 1024.40313606696, 1072.73297874912, 1166.6664709414, 1201.7086970293599, 1282.4438434365998, 1315.46030885516, 1324.99168447932, 1392.23320473276, 1403.41265683372, 1404.42210367576, 1477.30828586224, 1478.9082934418, 1485.02677736192, 1486.84652847172, 1491.0285225316, 1497.33241505536, 2994.3077468740794, 3001.82022881416, 3007.36875295272, 3008.254594059, 3019.68125763148, 3041.7654824206, 3075.78452769588, 3079.10128160544, 3084.83521434764, 3085.5356468502796]

>  <ZPE_kJmol>  (1) 
344.05401570070524

>  <E_elec_kJmol>  (1) 
-416055.5310504979

>  <E0_minus_Eelec_plus_ZPE_kJmol>  (1) 
0.0

>  <rxn>  (1) 
rmg_rxn_34

>  <species_type>  (1) 
r1

>  <species_folder>  (1) 
rmg_rxn_34_r2_CCCC

>  <frequencies_cm1_list>  (1) 
[117.85806904715999, 224.50921805207997, 259.37290252171994, 260.8081024536, 427.68957970024, 733.9639919575599, 810.5171443049198, 844.8383369342799, 959.6886664112799, 978.69648177704, 1024.40313606696, 1072.73297874912, 1166.6664709414, 1201.7086970293599, 1282.4438434365998, 1315.46030885516, 1324.99168447932, 1392.23320473276, 1403.41265683372, 1404.42210367576, 1477.30828586224, 1478.9082934418, 1485.02677736192, 1486.84652847172, 1491.0285225316, 1497.33241505536, 2994.3077468740794, 3001.82022881416, 3007.36875295272, 3008.254594059, 3019.68125763148, 3041.7654824206, 3075.78452769588, 3079.10128160544, 3084.83521434764, 3085.5356468502796]

>  <E0_kJmol>  (1) 
-415711

>  <H298_kJmol>  (1) 
-415694

$$$$

     RDKit          3D

 15 14  0  0  0  0  0  0  0  0999 V2000
    1.7379   -0.9711    0.7438 C   0  0  0  0  0  0  0  0  0  1  0  0
    0.7312   -1.1593   -0.3565 C   0  0  0  0  0  0  0  0  0  2  0  0
   -0.0154    0.3621   -1.0058 S   0  0  0  0  0  0  0  0  0  3  0  0
   -0.7136    1.1088    0.4875 C   0  0  0  0  0  0  0  0  0  4  0  0
   -1.7460    0.2571    1.2073 C   0  0  0  0  0  0  0  0  0  5  0  0
    1.3567   -0.4854    1.6402 H   0  0  0  0  0  0  0  0  0  6  0  0
    2.2858   -1.8795    0.9909 H   0  0  0  0  0  0  0  0  0  7  0  0
   -0.0686   -1.8393   -0.0479 H   0  0  0  0  0  0  0  0  0  8  0  0
    1.2024   -1.6131   -1.2313 H   0  0  0  0  0  0  0  0  0  9  0  0
    0.0964    1.3937    1.1612 H   0  0  0  0  0  0  0  0  0 10  0  0
   -1.1652    2.0350    0.1282 H   0  0  0  0  0  0  0  0  0 11  0  0
   -1.3008   -0.6567    1.6045 H   0  0  0  0  0  0  0  0  0 12  0  0
   -2.1711    0.8081    2.0491 H   0  0  0  0  0  0  0  0  0 13  0  0
   -2.5559   -0.0253    0.5338 H   0  0  0  0  0  0  0  0  0 14  0  0
    2.5060   -0.2912    0.3786 H   0  0  0  0  0  0  0  0  0 15  0  0
  1 15  1  0
  1  7  1  0
  1  6  1  0
  1  2  1  0
  2  9  1  0
  2  8  1  0
  2  3  1  0
  3  4  1  0
  4  5  1  0
  4 10  1  0
  4 11  1  0
  5 12  1  0
  5 14  1  0
  5 13  1  0
M  END
>  <rmg_smiles>  (2) 
CCSCC

>  <rmg_adjacency_list>  (2) 
1  S u0 p2 c0 {2,S} {3,S}
2  C u0 p0 c0 {1,S} {4,S} {6,S} {7,S}
3  C u0 p0 c0 {1,S} {5,S} {8,S} {9,S}
4  C u0 p0 c0 {2,S} {10,S} {11,S} {15,S}
5  C u0 p0 c0 {3,S} {12,S} {13,S} {14,S}
6  H u0 p0 c0 {2,S}
7  H u0 p0 c0 {2,S}
8  H u0 p0 c0 {3,S}
9  H u0 p0 c0 {3,S}
10 H u0 p0 c0 {4,S}
11 H u0 p0 c0 {4,S}
12 H u0 p0 c0 {5,S}
13 H u0 p0 c0 {5,S}
14 H u0 p0 c0 {5,S}
15 H u0 p0 c0 {4,S}


>  <multiplicity>  (2) 
1

>  <reaction>  (2) 
rmg_rxn_34

>  <type>  (2) 
r2h

>  <role_mapnums>  (2) 
{"r2h_a": 1, "r2h_h": 15}

>  <role_mapidx>  (2) 
{"r2h_a": 0, "r2h_h": 14}

>  <ordered_mapped_smiles>  (2) 
[C:1]([C:2]([S:3][C:4]([C:5]([H:12])([H:13])[H:14])([H:10])[H:11])([H:8])[H:9])([H:6])([H:7])[H:15]

>  <mol_properties>  (2) 
{"0": {"label": "acceptor", "atom_type": "Cs"}, "14": {"label": "a_hydrogen", "atom_type": "H0"}}

>  <level_of_theory>  (2) 
wb97xd/def2tzvp

>  <lot_method>  (2) 
wb97xd

>  <lot_basis>  (2) 
def2tzvp

>  <spin_multiplicity>  (2) 
1.0

>  <optical_isomers>  (2) 
2.0

>  <modes>  (2) 
IdealGasTranslation(mass=(90.0503, 'amu')),         NonlinearRotor(             inertia = ([97.9259, 182.785, 231.685

>  <frequency_value>  (2) 
unknown

>  <frequency_units>  (2) 
unknown

>  <frequency_list>  (2) 
unknown

>  <arkane_path>  (2) 
/home/calvin/Dropbox/PersonalFolders/Calvin/ATLAS_Converged/rmg_rxn_34/output/Species/rmg_rxn_34_p2_CCSCC/arkane/output.py

>  <path_exists>  (2) 
True

>  <E0_value>  (2) 
-1461176.7123028408

>  <E0_units>  (2) 
kJ/mol

>  <thermo_class>  (2) 
NASA

>  <Cp0_value>  (2) 
33.257888

>  <Cp0_units>  (2) 
J/(mol*K)

>  <CpInf_value>  (2) 
357.522296

>  <CpInf_units>  (2) 
J/(mol*K)

>  <Tmin_value>  (2) 
10.0

>  <Tmin_units>  (2) 
K

>  <Tmax_value>  (2) 
3000.0

>  <Tmax_units>  (2) 
K

>  <polynomials>  (2) 
[{"name": "polynomial1", "class": "NASAPolynomial", "Tmin_value": 10.0, "Tmin_units": "K", "Tmax_value": 1062.740332266501, "Tmax_units": "K", "coeffs": [3.7240768769611408, 0.031177750271788266, 1.590200165997747e-05, -3.1138888238628924e-08, 1.1081299545578661e-11, -175738967.30653694, 10.691637972640313]}, {"name": "polynomial2", "class": "NASAPolynomial", "Tmin_value": 1062.740332266501, "Tmin_units": "K", "Tmax_value": 3000.0, "Tmax_units": "K", "coeffs": [4.272256190616837, 0.04355880957526612, -2.1960566897444118e-05, 5.4018330156847166e-09, -5.231130586129144e-13, -175739899.50439465, 4.175990433518907]}]

>  <H298_value>  (2) 
-349224.4948454063

>  <H298_units>  (2) 
kcal/mol

>  <S298_value>  (2) 
82.77165630085062

>  <S298_units>  (2) 
cal/(mol*K)

>  <Cp_T_value_list>  (2) 
[27.339173580692723, 33.84270235009273, 39.920340825285514, 45.438637568785964, 54.52765007672161, 61.099128237827436, 71.10646466743047, 76.29375194018085, 78.77254304981717]

>  <Cp_T_units>  (2) 
cal/(mol*K)

>  <T_list>  (2) 
[300.0, 400.0, 500.0, 600.0, 800.0, 1000.0, 1500.0, 2000.0, 2400.0]

>  <T_units>  (2) 
K

>  <yaml_path>  (2) 
/home/calvin/Dropbox/PersonalFolders/Calvin/ATLAS_Converged/rmg_rxn_34/output/Species/rmg_rxn_34_p2_CCSCC/rmg_rxn_34_p2_CCSCC.yml

>  <frequencies_cm1>  (2) 
[66.48615186823999, 121.63491097315999, 224.63969077315997, 254.99863287287997, 273.62876404604003, 341.45397805167994, 381.0490154068, 647.6597204558, 701.8333676452798, 742.1151035324, 786.8329119362398, 985.17891591912, 988.88708799192, 1023.0091380469999, 1055.1809642711999, 1060.18699656948, 1093.14852610548, 1263.72444145428, 1273.9013136985197, 1289.2490258887199, 1308.3598460342798, 1399.5396771132398, 1399.8967603498797, 1460.7725852116798, 1462.4000607325202, 1478.53747623452, 1481.2362014652797, 1489.1538355392402, 1493.6723118798, 3015.6091353367196, 3016.10355827976, 3035.3242501904397, 3036.18262335544, 3073.69009717328, 3077.2334615983996, 3086.3528181033594, 3086.8953099436403, 3101.4052499247996, 3104.1520440527997]

>  <ZPE_kJmol>  (2) 
348.0016505911852

>  <E_elec_kJmol>  (2) 
-1461524.713953432

>  <E0_minus_Eelec_plus_ZPE_kJmol>  (2) 
0.0

>  <rxn>  (2) 
rmg_rxn_34

>  <species_type>  (2) 
p1

>  <species_folder>  (2) 
rmg_rxn_34_p2_CCSCC

>  <frequencies_cm1_list>  (2) 
[66.48615186823999, 121.63491097315999, 224.63969077315997, 254.99863287287997, 273.62876404604003, 341.45397805167994, 381.0490154068, 647.6597204558, 701.8333676452798, 742.1151035324, 786.8329119362398, 985.17891591912, 988.88708799192, 1023.0091380469999, 1055.1809642711999, 1060.18699656948, 1093.14852610548, 1263.72444145428, 1273.9013136985197, 1289.2490258887199, 1308.3598460342798, 1399.5396771132398, 1399.8967603498797, 1460.7725852116798, 1462.4000607325202, 1478.53747623452, 1481.2362014652797, 1489.1538355392402, 1493.6723118798, 3015.6091353367196, 3016.10355827976, 3035.3242501904397, 3036.18262335544, 3073.69009717328, 3077.2334615983996, 3086.3528181033594, 3086.8953099436403, 3101.4052499247996, 3104.1520440527997]

>  <E0_kJmol>  (2) 
-1.46118e+06

>  <H298_kJmol>  (2) 
-1.46116e+06

$$$$

     RDKit          3D

 28 26  0  0  0  0  0  0  0  0999 V2000
    0.0570   -0.6452    1.4500 C   0  0  0  0  0  3  0  0  0  1  0  0
   -0.9498   -0.8334    0.3497 C   0  0  0  0  0  0  0  0  0  2  0  0
   -1.6963    0.6880   -0.2996 S   0  0  0  0  0  0  0  0  0  3  0  0
   -2.3945    1.4346    1.1937 C   0  0  0  0  0  0  0  0  0  4  0  0
   -3.4269    0.5830    1.9135 C   0  0  0  0  0  0  0  0  0  5  0  0
   -0.3242   -0.1596    2.3464 H   0  0  0  0  0  0  0  0  0  6  0  0
    0.6049   -1.5536    1.6971 H   0  0  0  0  0  0  0  0  0  7  0  0
   -1.7495   -1.5135    0.6583 H   0  0  0  0  0  0  0  0  0  8  0  0
   -0.4785   -1.2872   -0.5251 H   0  0  0  0  0  0  0  0  0  9  0  0
   -1.5845    1.7196    1.8674 H   0  0  0  0  0  0  0  0  0 10  0  0
   -2.8461    2.3608    0.8344 H   0  0  0  0  0  0  0  0  0 11  0  0
   -2.9817   -0.3309    2.3106 H   0  0  0  0  0  0  0  0  0 12  0  0
   -3.8520    1.1340    2.7552 H   0  0  0  0  0  0  0  0  0 13  0  0
   -4.2368    0.3005    1.2400 H   0  0  0  0  0  0  0  0  0 14  0  0
    2.8280   -1.3530   -2.5102 C   0  0  0  0  0  0  0  0  0 15  0  0
    2.6577   -0.8873   -1.0709 C   0  0  0  0  0  0  0  0  0 16  0  0
    2.1271    0.5390   -0.9674 C   0  0  0  0  0  0  0  0  0 17  0  0
    1.9284    1.0035    0.4512 C   0  0  0  0  0  0  0  0  0 18  0  0
    3.5257   -0.7086   -3.0502 H   0  0  0  0  0  0  0  0  0 19  0  0
    1.8752   -1.3268   -3.0444 H   0  0  0  0  0  0  0  0  0 20  0  0
    3.2105   -2.3738   -2.5584 H   0  0  0  0  0  0  0  0  0 21  0  0
    1.9771   -1.5638   -0.5447 H   0  0  0  0  0  0  0  0  0 22  0  0
    3.6155   -0.9532   -0.5451 H   0  0  0  0  0  0  0  0  0 23  0  0
    1.1779    0.6192   -1.5070 H   0  0  0  0  0  0  0  0  0 24  0  0
    2.8220    1.2138   -1.4843 H   0  0  0  0  0  0  0  0  0 25  0  0
    2.7986    0.8825    1.0972 H   0  0  0  0  0  0  0  0  0 26  0  0
    1.0148    0.2025    0.9946 H   0  0  0  0  0  0  0  0  0 27  0  0
    1.4835    1.9917    0.5487 H   0  0  0  0  0  0  0  0  0 28  0  0
  1  7  1  0
  1  6  1  0
  1  2  1  0
  2  8  1  0
  2  3  1  0
  2  9  1  0
  3  4  1  0
  4 10  1  0
  4 11  1  0
  4  5  1  0
  5 12  1  0
  5 14  1  0
  5 13  1  0
 15 20  1  0
 15 16  1  0
 15 19  1  0
 15 21  1  0
 16 22  1  0
 16 17  1  0
 16 23  1  0
 17 18  1  0
 17 24  1  0
 17 25  1  0
 18 28  1  0
 18 27  1  0
 18 26  1  0
M  RAD  1   1   2
M  END
>  <rmg_smiles>  (3) 
[CH2]CSCC.CCCC

>  <rmg_adjacency_list>  (3) 
multiplicity 2
1  S u0 p2 c0 {4,S} {5,S}
2  C u0 p0 c0 {3,S} {6,S} {10,S} {11,S}
3  C u0 p0 c0 {2,S} {7,S} {12,S} {13,S}
4  C u0 p0 c0 {1,S} {8,S} {14,S} {15,S}
5  C u0 p0 c0 {1,S} {9,S} {16,S} {17,S}
6  C u0 p0 c0 {2,S} {21,S} {22,S} {23,S}
7  C u0 p0 c0 {3,S} {24,S} {25,S} {26,S}
8  C u0 p0 c0 {4,S} {18,S} {19,S} {20,S}
9  C u1 p0 c0 {5,S} {27,S} {28,S}
10 H u0 p0 c0 {2,S}
11 H u0 p0 c0 {2,S}
12 H u0 p0 c0 {3,S}
13 H u0 p0 c0 {3,S}
14 H u0 p0 c0 {4,S}
15 H u0 p0 c0 {4,S}
16 H u0 p0 c0 {5,S}
17 H u0 p0 c0 {5,S}
18 H u0 p0 c0 {8,S}
19 H u0 p0 c0 {8,S}
20 H u0 p0 c0 {8,S}
21 H u0 p0 c0 {6,S}
22 H u0 p0 c0 {6,S}
23 H u0 p0 c0 {6,S}
24 H u0 p0 c0 {7,S}
25 H u0 p0 c0 {7,S}
26 H u0 p0 c0 {7,S}
27 H u0 p0 c0 {9,S}
28 H u0 p0 c0 {9,S}


>  <multiplicity>  (3) 
2

>  <reaction>  (3) 
rmg_rxn_34

>  <type>  (3) 
ts

>  <role_mapnums>  (3) 
{"*2": 27, "*1": 18, "*3": 1, "*0": 17, "*4": 2}

>  <role_mapidx>  (3) 
{"*2": 26, "*1": 17, "*3": 0, "*0": 16, "*4": 1}

>  <ordered_mapped_smiles>  (3) 
[C:1]([C:2]([S:3][C:4]([C:5]([H:12])([H:13])[H:14])([H:10])[H:11])([H:8])[H:9])([H:6])[H:7].[C:15]([C:16]([C:17]([C:18]([H:26])([H:27])[H:28])([H:24])[H:25])([H:22])[H:23])([H:19])([H:20])[H:21]

>  <mol_properties>  (3) 
{"0": {"label": "*3", "atom_type": "Cs"}, "1": {"label": "*4", "atom_type": "Cs"}, "16": {"label": "*0", "atom_type": "Cs"}, "17": {"label": "*1", "atom_type": "Cs"}, "26": {"label": "*2", "atom_type": "H0"}}

>  <level_of_theory>  (3) 
wb97xd/def2tzvp

>  <lot_method>  (3) 
wb97xd

>  <lot_basis>  (3) 
def2tzvp

>  <spin_multiplicity>  (3) 
2.0

>  <optical_isomers>  (3) 
2.0

>  <modes>  (3) 
IdealGasTranslation(mass=(147.121, 'amu')),         NonlinearRotor(             inertia = ([210.86, 986.356, 1007.55

>  <frequency_value>  (3) 
-1716.33

>  <frequency_units>  (3) 
cm^-1

>  <frequency_list>  (3) 
unknown

>  <arkane_path>  (3) 
/home/calvin/Dropbox/PersonalFolders/Calvin/ATLAS_Converged/rmg_rxn_34/output/rxns/TS0/arkane/output.py

>  <path_exists>  (3) 
True

>  <E0_value>  (3) 
-1875100.0

>  <E0_units>  (3) 
kJ/mol

>  <thermo_class>  (3) 
unknown

>  <Cp0_value>  (3) 
unknown

>  <Cp0_units>  (3) 
unknown

>  <CpInf_value>  (3) 
unknown

>  <CpInf_units>  (3) 
unknown

>  <Tmin_value>  (3) 
unknown

>  <Tmin_units>  (3) 
unknown

>  <Tmax_value>  (3) 
unknown

>  <Tmax_units>  (3) 
unknown

>  <polynomials>  (3) 
unknown

>  <H298_value>  (3) 
unknown

>  <H298_units>  (3) 
unknown

>  <S298_value>  (3) 
unknown

>  <S298_units>  (3) 
unknown

>  <Cp_T_value_list>  (3) 
unknown

>  <Cp_T_units>  (3) 
unknown

>  <T_list>  (3) 
unknown

>  <T_units>  (3) 
unknown

>  <yaml_path>  (3) 
unknown

>  <frequencies_cm1>  (3) 
unknown

>  <ZPE_kJmol>  (3) 
unknown

>  <E_elec_kJmol>  (3) 
unknown

>  <E0_minus_Eelec_plus_ZPE_kJmol>  (3) 
unknown

>  <rxn>  (3) 
unknown

>  <species_type>  (3) 
unknown

>  <species_folder>  (3) 
unknown

>  <frequencies_cm1_list>  (3) 
[]

>  <ts_imag_freq_cm1>  (3) 
-1737.18

>  <ts_freq_out_path>  (3) 
/home/calvin/Dropbox/PersonalFolders/Calvin/ATLAS_Converged/rmg_rxn_34/output/rxns/TS0/geometry/freq.out

>  <E0_kJmol>  (3) 
-1.8751e+06

>  <H298_kJmol>  (3) 
unknown

$$$$

     RDKit          3D

 13 12  0  0  0  0  0  0  0  0999 V2000
    2.0654   -0.2739   -0.0844 C   0  0  0  0  0  3  0  0  0  1  0  0
    0.6326   -0.4110   -0.4406 C   0  0  0  0  0  0  0  0  0  2  0  0
   -0.3055    0.4151    0.4359 C   0  0  0  0  0  0  0  0  0  3  0  0
   -1.7714    0.2357    0.0671 C   0  0  0  0  0  0  0  0  0  4  0  0
    2.3610    0.0676    0.8995 H   0  0  0  0  0  0  0  0  0  5  0  0
    2.8408   -0.6127   -0.7582 H   0  0  0  0  0  0  0  0  0  6  0  0
    0.3313   -1.4695   -0.3768 H   0  0  0  0  0  0  0  0  0  7  0  0
    0.4826   -0.1432   -1.4940 H   0  0  0  0  0  0  0  0  0  8  0  0
   -0.1518    0.1351    1.4826 H   0  0  0  0  0  0  0  0  0  9  0  0
   -0.0303    1.4705    0.3565 H   0  0  0  0  0  0  0  0  0 10  0  0
   -2.0768   -0.8084    0.1692 H   0  0  0  0  0  0  0  0  0 11  0  0
   -1.9546    0.5339   -0.9679 H   0  0  0  0  0  0  0  0  0 12  0  0
   -2.4194    0.8370    0.7066 H   0  0  0  0  0  0  0  0  0 13  0  0
  1  5  1  0
  1  6  1  0
  1  2  1  0
  2  8  1  0
  2  7  1  0
  2  3  1  0
  3  4  1  0
  3  9  1  0
  3 10  1  0
  4 13  1  0
  4 12  1  0
  4 11  1  0
M  RAD  1   1   2
M  END
>  <rmg_smiles>  (4) 
[CH2]CCC

>  <rmg_adjacency_list>  (4) 
multiplicity 2
1  C u0 p0 c0 {2,S} {3,S} {5,S} {6,S}
2  C u0 p0 c0 {1,S} {4,S} {7,S} {8,S}
3  C u0 p0 c0 {1,S} {9,S} {10,S} {11,S}
4  C u1 p0 c0 {2,S} {12,S} {13,S}
5  H u0 p0 c0 {1,S}
6  H u0 p0 c0 {1,S}
7  H u0 p0 c0 {2,S}
8  H u0 p0 c0 {2,S}
9  H u0 p0 c0 {3,S}
10 H u0 p0 c0 {3,S}
11 H u0 p0 c0 {3,S}
12 H u0 p0 c0 {4,S}
13 H u0 p0 c0 {4,S}


>  <multiplicity>  (4) 
2

>  <reaction>  (4) 
rmg_rxn_34

>  <type>  (4) 
r1

>  <role_mapnums>  (4) 
{}

>  <role_mapidx>  (4) 
{}

>  <ordered_mapped_smiles>  (4) 
[C:1]([C:2]([C:3]([C:4]([H:11])([H:12])[H:13])([H:9])[H:10])([H:7])[H:8])([H:5])[H:6]

>  <level_of_theory>  (4) 
wb97xd/def2tzvp

>  <lot_method>  (4) 
wb97xd

>  <lot_basis>  (4) 
def2tzvp

>  <spin_multiplicity>  (4) 
2.0

>  <optical_isomers>  (4) 
2.0

>  <modes>  (4) 
IdealGasTranslation(mass=(57.0704, 'amu')),         NonlinearRotor(             inertia = ([19.9061, 131.501, 141.822

>  <frequency_value>  (4) 
unknown

>  <frequency_units>  (4) 
unknown

>  <frequency_list>  (4) 
unknown

>  <arkane_path>  (4) 
/home/calvin/Dropbox/PersonalFolders/Calvin/ATLAS_Converged/rmg_rxn_34/output/Species/rmg_rxn_34_p1_sbr-CH2-sbrCCC/arkane/output.py

>  <path_exists>  (4) 
True

>  <E0_value>  (4) 
-413980.515065041

>  <E0_units>  (4) 
kJ/mol

>  <thermo_class>  (4) 
NASA

>  <Cp0_value>  (4) 
33.257888

>  <Cp0_units>  (4) 
J/(mol*K)

>  <CpInf_value>  (4) 
307.635464

>  <CpInf_units>  (4) 
J/(mol*K)

>  <Tmin_value>  (4) 
10.0

>  <Tmin_units>  (4) 
K

>  <Tmax_value>  (4) 
3000.0

>  <Tmax_units>  (4) 
K

>  <polynomials>  (4) 
[{"name": "polynomial1", "class": "NASAPolynomial", "Tmin_value": 10.0, "Tmin_units": "K", "Tmax_value": 1154.93799035051, "Tmax_units": "K", "coeffs": [3.8608583449208367, 0.02312895427514024, 1.718157563784362e-05, -2.653261595233422e-08, 8.598323666501713e-12, -49790358.451797806, 9.98302976614612]}, {"name": "polynomial2", "class": "NASAPolynomial", "Tmin_value": 1154.93799035051, "Tmin_units": "K", "Tmax_value": 3000.0, "Tmax_units": "K", "coeffs": [5.006671859828862, 0.03390757519761412, -1.5970386346220703e-05, 3.659460065945614e-09, -3.3024942479245143e-13, -49791606.659514256, 0.032118084025620754]}]

>  <H298_value>  (4) 
-98939.19157782634

>  <H298_units>  (4) 
kcal/mol

>  <S298_value>  (4) 
78.32957530726806

>  <S298_units>  (4) 
cal/(mol*K)

>  <Cp_T_value_list>  (4) 
[23.248631358892137, 28.583028071211853, 33.66635358076252, 38.36678892872091, 46.296753040816824, 52.13852768190894, 60.835257561392275, 65.44261811889302, 67.61851586744878]

>  <Cp_T_units>  (4) 
cal/(mol*K)

>  <T_list>  (4) 
[300.0, 400.0, 500.0, 600.0, 800.0, 1000.0, 1500.0, 2000.0, 2400.0]

>  <T_units>  (4) 
K

>  <yaml_path>  (4) 
/home/calvin/Dropbox/PersonalFolders/Calvin/ATLAS_Converged/rmg_rxn_34/output/Species/rmg_rxn_34_p1_sbr-CH2-sbrCCC/rmg_rxn_34_p1_sbr-CH2-sbrCCC.yml

>  <frequencies_cm1>  (4) 
[73.35313718823998, 132.16886645403997, 238.64147384063997, 264.99696349879997, 431.39775177304, 467.79277396904, 728.50473862816, 827.3275243682799, 860.37832471344, 963.38310451344, 1040.3208080387199, 1067.46600100868, 1094.96141022996, 1160.5617209919199, 1239.42904739212, 1306.10747484932, 1314.7118074552798, 1388.4151608948398, 1404.06502043912, 1451.2686775288, 1453.0952956239198, 1480.39842925624, 1485.157250083, 1493.0199482744, 2921.4421656435597, 2989.1849758253597, 3008.40566773604, 3009.2159720037994, 3044.3474689009204, 3079.04634572288, 3088.11076634528, 3121.2096355876797, 3223.96720391616]

>  <ZPE_kJmol>  (4) 
304.16171338229066

>  <E_elec_kJmol>  (4) 
-414284.6767784233

>  <E0_minus_Eelec_plus_ZPE_kJmol>  (4) 
0.0

>  <rxn>  (4) 
rmg_rxn_34

>  <species_type>  (4) 
p0

>  <species_folder>  (4) 
rmg_rxn_34_p1_sbr-CH2-sbrCCC

>  <frequencies_cm1_list>  (4) 
[73.35313718823998, 132.16886645403997, 238.64147384063997, 264.99696349879997, 431.39775177304, 467.79277396904, 728.50473862816, 827.3275243682799, 860.37832471344, 963.38310451344, 1040.3208080387199, 1067.46600100868, 1094.96141022996, 1160.5617209919199, 1239.42904739212, 1306.10747484932, 1314.7118074552798, 1388.4151608948398, 1404.06502043912, 1451.2686775288, 1453.0952956239198, 1480.39842925624, 1485.157250083, 1493.0199482744, 2921.4421656435597, 2989.1849758253597, 3008.40566773604, 3009.2159720037994, 3044.3474689009204, 3079.04634572288, 3088.11076634528, 3121.2096355876797, 3223.96720391616]

>  <E0_kJmol>  (4) 
-413981

>  <H298_kJmol>  (4) 
-413962

$$$$

     RDKit          3D

 14 13  0  0  0  0  0  0  0  0999 V2000
    2.5796   -0.5432    0.2329 C   0  0  0  0  0  3  0  0  0  1  0  0
    1.2594    0.0982    0.3029 C   0  0  0  0  0  0  0  0  0  2  0  0
   -0.0483   -1.0244    0.9576 S   0  0  0  0  0  0  0  0  0  3  0  0
   -0.0049   -2.3732   -0.2491 C   0  0  0  0  0  0  0  0  0  4  0  0
   -0.3891   -1.9781   -1.6653 C   0  0  0  0  0  0  0  0  0  5  0  0
    2.9359   -0.9798   -0.6903 H   0  0  0  0  0  0  0  0  0  6  0  0
    3.1327   -0.7454    1.1400 H   0  0  0  0  0  0  0  0  0  7  0  0
    0.9347    0.4858   -0.6621 H   0  0  0  0  0  0  0  0  0  8  0  0
    1.2442    0.9220    1.0193 H   0  0  0  0  0  0  0  0  0  9  0  0
    0.9819   -2.8380   -0.2257 H   0  0  0  0  0  0  0  0  0 10  0  0
   -0.7110   -3.1037    0.1493 H   0  0  0  0  0  0  0  0  0 11  0  0
    0.3274   -1.2737   -2.0913 H   0  0  0  0  0  0  0  0  0 12  0  0
   -0.4075   -2.8581   -2.3121 H   0  0  0  0  0  0  0  0  0 13  0  0
   -1.3749   -1.5123   -1.6865 H   0  0  0  0  0  0  0  0  0 14  0  0
  1  7  1  0
  1  6  1  0
  1  2  1  0
  2  9  1  0
  2  8  1  0
  2  3  1  0
  3  4  1  0
  4  5  1  0
  4 10  1  0
  4 11  1  0
  5 12  1  0
  5 14  1  0
  5 13  1  0
M  RAD  1   1   2
M  END
>  <rmg_smiles>  (5) 
[CH2]CSCC

>  <rmg_adjacency_list>  (5) 
multiplicity 2
1  S u0 p2 c0 {2,S} {3,S}
2  C u0 p0 c0 {1,S} {4,S} {6,S} {7,S}
3  C u0 p0 c0 {1,S} {5,S} {8,S} {9,S}
4  C u0 p0 c0 {2,S} {10,S} {11,S} {12,S}
5  C u1 p0 c0 {3,S} {13,S} {14,S}
6  H u0 p0 c0 {2,S}
7  H u0 p0 c0 {2,S}
8  H u0 p0 c0 {3,S}
9  H u0 p0 c0 {3,S}
10 H u0 p0 c0 {4,S}
11 H u0 p0 c0 {4,S}
12 H u0 p0 c0 {4,S}
13 H u0 p0 c0 {5,S}
14 H u0 p0 c0 {5,S}


>  <multiplicity>  (5) 
2

>  <reaction>  (5) 
rmg_rxn_34

>  <type>  (5) 
r2

>  <role_mapnums>  (5) 
{}

>  <role_mapidx>  (5) 
{}

>  <ordered_mapped_smiles>  (5) 
[C:1]([C:2]([S:3][C:4]([C:5]([H:12])([H:13])[H:14])([H:10])[H:11])([H:8])[H:9])([H:6])[H:7]

>  <level_of_theory>  (5) 
wb97xd/def2tzvp

>  <lot_method>  (5) 
wb97xd

>  <lot_basis>  (5) 
def2tzvp

>  <spin_multiplicity>  (5) 
2.0

>  <optical_isomers>  (5) 
2.0

>  <modes>  (5) 
IdealGasTranslation(mass=(89.0425, 'amu')),         NonlinearRotor(             inertia = ([94.593, 177.437, 223.626

>  <frequency_value>  (5) 
unknown

>  <frequency_units>  (5) 
unknown

>  <frequency_list>  (5) 
unknown

>  <arkane_path>  (5) 
/home/calvin/Dropbox/PersonalFolders/Calvin/ATLAS_Converged/rmg_rxn_34/output/Species/rmg_rxn_34_r1_sbr-CH2-sbrCSCC/arkane/output.py

>  <path_exists>  (5) 
True

>  <E0_value>  (5) 
-1459449.5066336358

>  <E0_units>  (5) 
kJ/mol

>  <thermo_class>  (5) 
NASA

>  <Cp0_value>  (5) 
33.257888

>  <Cp0_units>  (5) 
J/(mol*K)

>  <CpInf_value>  (5) 
332.57888

>  <CpInf_units>  (5) 
J/(mol*K)

>  <Tmin_value>  (5) 
10.0

>  <Tmin_units>  (5) 
K

>  <Tmax_value>  (5) 
3000.0

>  <Tmax_units>  (5) 
K

>  <polynomials>  (5) 
[{"name": "polynomial1", "class": "NASAPolynomial", "Tmin_value": 10.0, "Tmin_units": "K", "Tmax_value": 1031.5071007618787, "Tmax_units": "K", "coeffs": [3.5714943853963943, 0.03773739256401581, -4.950950990783628e-06, -1.3018660382700517e-08, 5.857037102171146e-12, -175531227.33815667, 12.507822262108592]}, {"name": "polynomial2", "class": "NASAPolynomial", "Tmin_value": 1031.5071007618787, "Tmin_units": "K", "Tmax_value": 3000.0, "Tmax_units": "K", "coeffs": [5.15471759391017, 0.04014233483809902, -2.0873295447536622e-05, 5.302404611852929e-09, -5.296040450423311e-13, -175532008.5243079, 2.617170435341213]}]

>  <H298_value>  (5) 
-348811.48362080817

>  <H298_units>  (5) 
kcal/mol

>  <S298_value>  (5) 
86.99508703546594

>  <S298_units>  (5) 
cal/(mol*K)

>  <Cp_T_value_list>  (5) 
[28.10519018607643, 34.16215665606476, 39.62725284783934, 44.470956897945086, 52.31577082579914, 58.01910235786348, 66.80551106767905, 71.32437388511126, 73.51787619359425]

>  <Cp_T_units>  (5) 
cal/(mol*K)

>  <T_list>  (5) 
[300.0, 400.0, 500.0, 600.0, 800.0, 1000.0, 1500.0, 2000.0, 2400.0]

>  <T_units>  (5) 
K

>  <yaml_path>  (5) 
/home/calvin/Dropbox/PersonalFolders/Calvin/ATLAS_Converged/rmg_rxn_34/output/Species/rmg_rxn_34_r1_sbr-CH2-sbrCSCC/rmg_rxn_34_r1_sbr-CH2-sbrCSCC.yml

>  <frequencies_cm1>  (5) 
[55.01828638384, 115.49582609707998, 192.74254396176, 233.70411139555998, 259.89479340604, 323.54488033712, 364.23176835811995, 563.4155445500401, 638.47169409764, 687.12428508984, 740.0206730098, 780.7556299280399, 985.7694766566399, 1009.68031954088, 1055.6959881701998, 1069.5123626340398, 1077.49179957588, 1214.7147672254398, 1255.0102370831999, 1271.8892869997599, 1297.5512111406, 1400.98174403044, 1442.24545881832, 1457.86785042132, 1467.7288413408398, 1480.70744359564, 1491.3787387829198, 3015.89754872016, 3034.4590100401197, 3035.7156683536796, 3075.4068435032796, 3086.44895589784, 3092.5949077592395, 3102.88851875392, 3127.8568773774396, 3233.1826982156]

>  <ZPE_kJmol>  (5) 
309.45664795415496

>  <E_elec_kJmol>  (5) 
-1459758.96328159

>  <E0_minus_Eelec_plus_ZPE_kJmol>  (5) 
0.0

>  <rxn>  (5) 
rmg_rxn_34

>  <species_type>  (5) 
r0

>  <species_folder>  (5) 
rmg_rxn_34_r1_sbr-CH2-sbrCSCC

>  <frequencies_cm1_list>  (5) 
[55.01828638384, 115.49582609707998, 192.74254396176, 233.70411139555998, 259.89479340604, 323.54488033712, 364.23176835811995, 563.4155445500401, 638.47169409764, 687.12428508984, 740.0206730098, 780.7556299280399, 985.7694766566399, 1009.68031954088, 1055.6959881701998, 1069.5123626340398, 1077.49179957588, 1214.7147672254398, 1255.0102370831999, 1271.8892869997599, 1297.5512111406, 1400.98174403044, 1442.24545881832, 1457.86785042132, 1467.7288413408398, 1480.70744359564, 1491.3787387829198, 3015.89754872016, 3034.4590100401197, 3035.7156683536796, 3075.4068435032796, 3086.44895589784, 3092.5949077592395, 3102.88851875392, 3127.8568773774396, 3233.1826982156]

>  <E0_kJmol>  (5) 
-1.45945e+06

>  <H298_kJmol>  (5) 
-1.45943e+06

$$$$
