
     RDKit          3D

  9  8  0  0  0  0  0  0  0  0999 V2000
   -1.1763   -0.9966    0.2614 C   0  0  0  0  0  0  0  0  0  1  0  0
   -0.2591    0.0337    0.8679 C   0  0  0  0  0  0  0  0  0  2  0  0
    0.5907    0.7904   -0.0033 N   0  0  0  0  0  0  0  0  0  3  0  0
    0.8358    0.2587   -1.0632 O   0  0  0  0  0  0  0  0  0  4  0  0
   -0.6177   -1.7078   -0.3452 H   0  0  0  0  0  0  0  0  0  5  0  0
   -1.6988   -1.5361    1.0515 H   0  0  0  0  0  0  0  0  0  6  0  0
   -1.9208   -0.5219   -0.3808 H   0  0  0  0  0  0  0  0  0  7  0  0
    0.4688   -0.4986    1.4774 H   0  0  0  0  0  0  0  0  0  8  0  0
   -0.7100    0.7128    1.5892 H   0  0  0  0  0  0  0  0  0  9  0  0
  1  5  1  0
  1  7  1  0
  1  6  1  0
  1  2  1  0
  2  3  1  0
  2  9  1  0
  2  8  1  0
  3  4  1  0
M  END
>  <rmg_smiles>  (1) 
CC[N][O]

>  <rmg_adjacency_list>  (1) 
1 O u0 p2 c0 {2,S}
2 N u0 p1 c0 {1,S} {3,S}
3 C u0 p0 c0 {2,S} {4,S} {5,S} {6,S}
4 C u0 p0 c0 {3,S} {7,S} {8,S} {9,S}
5 H u0 p0 c0 {3,S}
6 H u0 p0 c0 {3,S}
7 H u0 p0 c0 {4,S}
8 H u0 p0 c0 {4,S}
9 H u0 p0 c0 {4,S}


>  <multiplicity>  (1) 
1

>  <reaction>  (1) 
rmg_rxn_634

>  <type>  (1) 
r1h

>  <role_mapnums>  (1) 
{"r1h_a": 2, "r1h_h": 8}

>  <role_mapidx>  (1) 
{"r1h_a": 1, "r1h_h": 7}

>  <ordered_mapped_smiles>  (1) 
[C:1]([C:2]([NH:3][OH:4])([H:8])[H:9])([H:5])([H:6])[H:7]

>  <mol_properties>  (1) 
{"1": {"label": "donator", "atom_type": "Cs"}, "7": {"label": "d_hydrogen", "atom_type": "H0"}}

>  <level_of_theory>  (1) 
wb97xd/def2tzvp

>  <lot_method>  (1) 
wb97xd

>  <lot_basis>  (1) 
def2tzvp

>  <spin_multiplicity>  (1) 
1.0

>  <optical_isomers>  (1) 
1.0

>  <modes>  (1) 
IdealGasTranslation(mass=(59.0371, 'amu')),         NonlinearRotor(             inertia = ([29.0143, 77.6306, 100.462

>  <frequency_value>  (1) 
unknown

>  <frequency_units>  (1) 
unknown

>  <frequency_list>  (1) 
unknown

>  <arkane_path>  (1) 
/home/calvin/Dropbox/PersonalFolders/Calvin/ATLAS_Converged/rmg_rxn_634/output/Species/rmg_rxn_634_r1_CCN=O/arkane/output.py

>  <path_exists>  (1) 
True

>  <E0_value>  (1) 
-548877.558747515

>  <E0_units>  (1) 
kJ/mol

>  <thermo_class>  (1) 
NASA

>  <Cp0_value>  (1) 
33.257888

>  <Cp0_units>  (1) 
J/(mol*K)

>  <CpInf_value>  (1) 
207.8618

>  <CpInf_units>  (1) 
J/(mol*K)

>  <Tmin_value>  (1) 
10.0

>  <Tmin_units>  (1) 
K

>  <Tmax_value>  (1) 
3000.0

>  <Tmax_units>  (1) 
K

>  <polynomials>  (1) 
[{"name": "polynomial1", "class": "NASAPolynomial", "Tmin_value": 10.0, "Tmin_units": "K", "Tmax_value": 852.4467273079296, "Tmax_units": "K", "coeffs": [3.8936881543548516, 0.010863357132079992, 2.9518886027981582e-05, -4.241660668924857e-08, 1.6548322072430634e-11, -66014722.52296326, 8.31212640355373]}, {"name": "polynomial2", "class": "NASAPolynomial", "Tmin_value": 852.4467273079296, "Tmin_units": "K", "Tmax_value": 3000.0, "Tmax_units": "K", "coeffs": [1.958278249526995, 0.028191398788375954, -1.5482894354402147e-05, 4.125838418636631e-09, -4.294786972329381e-13, -66014692.17386343, 15.58298456087749]}]

>  <H298_value>  (1) 
-131181.2546973709

>  <H298_units>  (1) 
kcal/mol

>  <S298_value>  (1) 
68.95858975357608

>  <S298_units>  (1) 
cal/(mol*K)

>  <Cp_T_value_list>  (1) 
[17.483816518754196, 21.205534203635445, 24.715448679483146, 27.862973885513348, 32.86313144341251, 36.49135596500743, 42.04796388055017, 44.80066956867266, 46.148264111815415]

>  <Cp_T_units>  (1) 
cal/(mol*K)

>  <T_list>  (1) 
[300.0, 400.0, 500.0, 600.0, 800.0, 1000.0, 1500.0, 2000.0, 2400.0]

>  <T_units>  (1) 
K

>  <yaml_path>  (1) 
/home/calvin/Dropbox/PersonalFolders/Calvin/ATLAS_Converged/rmg_rxn_634/output/Species/rmg_rxn_634_r1_CCN=O/rmg_rxn_634_r1_CCN=O.yml

>  <frequencies_cm1>  (1) 
[158.20847478748, 231.91869521236, 304.63320276584, 688.52515009512, 725.82661435336, 817.79614874412, 992.8287375655999, 1036.4272273622798, 1118.5151698775599, 1253.84971656412, 1336.8441011416398, 1399.8555584379599, 1435.5776160726, 1473.98466496736, 1481.49027992212, 1699.7642753036398, 3019.11129784992, 3032.8315345192796, 3052.86253069772, 3109.68683422072, 3112.3100226129595]

>  <ZPE_kJmol>  (1) 
188.30930234902567

>  <E_elec_kJmol>  (1) 
-549065.868049864

>  <E0_minus_Eelec_plus_ZPE_kJmol>  (1) 
0.0

>  <rxn>  (1) 
rmg_rxn_634

>  <species_type>  (1) 
r0

>  <species_folder>  (1) 
rmg_rxn_634_r1_CCN=O

>  <frequencies_cm1_list>  (1) 
[158.20847478748, 231.91869521236, 304.63320276584, 688.52515009512, 725.82661435336, 817.79614874412, 992.8287375655999, 1036.4272273622798, 1118.5151698775599, 1253.84971656412, 1336.8441011416398, 1399.8555584379599, 1435.5776160726, 1473.98466496736, 1481.49027992212, 1699.7642753036398, 3019.11129784992, 3032.8315345192796, 3052.86253069772, 3109.68683422072, 3112.3100226129595]

>  <E0_kJmol>  (1) 
-548878

>  <H298_kJmol>  (1) 
-548862

$$$$

     RDKit          3D

 15 14  0  0  0  0  0  0  0  0999 V2000
   -1.4475   -1.6338   -1.2931 H   0  0  0  0  0  0  0  0  0  1  0  0
   -0.6948   -2.1640   -0.7186 C   0  0  0  0  0  0  0  0  0  2  0  0
    0.3323   -1.0943   -0.5993 C   0  0  0  0  0  0  0  0  0  3  0  0
   -0.1929   -0.0429    0.1640 O   0  0  0  0  0  0  0  0  0  4  0  0
    0.6334    1.0992    0.1789 C   0  0  0  0  0  0  0  0  0  5  0  0
   -0.0350    2.1712    1.0064 C   0  0  0  0  0  0  0  0  0  6  0  0
   -1.2371   -2.4176    0.1866 H   0  0  0  0  0  0  0  0  0  7  0  0
   -0.4538   -2.9986   -1.3689 H   0  0  0  0  0  0  0  0  0  8  0  0
    0.6242   -0.7381   -1.5984 H   0  0  0  0  0  0  0  0  0  9  0  0
    1.2460   -1.4954   -0.1255 H   0  0  0  0  0  0  0  0  0 10  0  0
    1.6165    0.8430    0.5996 H   0  0  0  0  0  0  0  0  0 11  0  0
    0.7940    1.4501   -0.8493 H   0  0  0  0  0  0  0  0  0 12  0  0
   -0.1915    1.8261    2.0291 H   0  0  0  0  0  0  0  0  0 13  0  0
    0.5867    3.0672    1.0339 H   0  0  0  0  0  0  0  0  0 14  0  0
   -1.0023    2.4348    0.5774 H   0  0  0  0  0  0  0  0  0 15  0  0
  1  2  1  0
  2  8  1  0
  2  7  1  0
  2  3  1  0
  3  4  1  0
  3  9  1  0
  3 10  1  0
  4  5  1  0
  5 11  1  0
  5 12  1  0
  5  6  1  0
  6 15  1  0
  6 14  1  0
  6 13  1  0
M  END
>  <rmg_smiles>  (2) 
CCOCC

>  <rmg_adjacency_list>  (2) 
1  O u0 p2 c0 {2,S} {3,S}
2  C u0 p0 c0 {1,S} {4,S} {6,S} {7,S}
3  C u0 p0 c0 {1,S} {5,S} {8,S} {9,S}
4  C u0 p0 c0 {2,S} {10,S} {11,S} {12,S}
5  C u0 p0 c0 {3,S} {13,S} {14,S} {15,S}
6  H u0 p0 c0 {2,S}
7  H u0 p0 c0 {2,S}
8  H u0 p0 c0 {3,S}
9  H u0 p0 c0 {3,S}
10 H u0 p0 c0 {4,S}
11 H u0 p0 c0 {4,S}
12 H u0 p0 c0 {4,S}
13 H u0 p0 c0 {5,S}
14 H u0 p0 c0 {5,S}
15 H u0 p0 c0 {5,S}


>  <multiplicity>  (2) 
1

>  <reaction>  (2) 
rmg_rxn_634

>  <type>  (2) 
r2h

>  <role_mapnums>  (2) 
{"r2h_a": 2, "r2h_h": 1}

>  <role_mapidx>  (2) 
{"r2h_a": 1, "r2h_h": 0}

>  <ordered_mapped_smiles>  (2) 
[H:1][C:2]([C:3]([O:4][C:5]([C:6]([H:13])([H:14])[H:15])([H:11])[H:12])([H:9])[H:10])([H:7])[H:8]

>  <mol_properties>  (2) 
{"0": {"label": "a_hydrogen", "atom_type": "H0"}, "1": {"label": "acceptor", "atom_type": "Cs"}}

>  <level_of_theory>  (2) 
wb97xd/def2tzvp

>  <lot_method>  (2) 
wb97xd

>  <lot_basis>  (2) 
def2tzvp

>  <spin_multiplicity>  (2) 
1.0

>  <optical_isomers>  (2) 
1.0

>  <modes>  (2) 
IdealGasTranslation(mass=(74.0732, 'amu')),         NonlinearRotor(             inertia = ([27.7055, 224.199, 239.286

>  <frequency_value>  (2) 
unknown

>  <frequency_units>  (2) 
unknown

>  <frequency_list>  (2) 
unknown

>  <arkane_path>  (2) 
/home/calvin/Dropbox/PersonalFolders/Calvin/ATLAS_Converged/rmg_rxn_634/output/Species/rmg_rxn_634_p2_CCOCC/arkane/output.py

>  <path_exists>  (2) 
True

>  <E0_value>  (2) 
-613176.3128110756

>  <E0_units>  (2) 
kJ/mol

>  <thermo_class>  (2) 
NASA

>  <Cp0_value>  (2) 
33.257888

>  <Cp0_units>  (2) 
J/(mol*K)

>  <CpInf_value>  (2) 
357.522296

>  <CpInf_units>  (2) 
J/(mol*K)

>  <Tmin_value>  (2) 
10.0

>  <Tmin_units>  (2) 
K

>  <Tmax_value>  (2) 
3000.0

>  <Tmax_units>  (2) 
K

>  <polynomials>  (2) 
[{"name": "polynomial1", "class": "NASAPolynomial", "Tmin_value": 10.0, "Tmin_units": "K", "Tmax_value": 447.8675776386012, "Tmax_units": "K", "coeffs": [3.6145674548663025, 0.04016229737238276, -9.26716676667475e-05, 2.7059440243079876e-07, -2.426777252164927e-10, -73748075.28187743, 9.084384782318237]}, {"name": "polynomial2", "class": "NASAPolynomial", "Tmin_value": 447.8675776386012, "Tmin_units": "K", "Tmax_value": 3000.0, "Tmax_units": "K", "coeffs": [-2.0346716801386466, 0.056284897785958125, -3.168484191016198e-05, 8.654575683408253e-09, -9.217706924539855e-13, -73747224.93534479, 35.6449449802163]}]

>  <H298_value>  (2) 
-146547.7613808907

>  <H298_units>  (2) 
kcal/mol

>  <S298_value>  (2) 
78.37341548181337

>  <S298_units>  (2) 
cal/(mol*K)

>  <Cp_T_value_list>  (2) 
[25.164325535478298, 31.710870725358603, 38.17578298456695, 43.876825548291244, 53.19460319689213, 60.208758518830386, 70.83300100554185, 76.07827456888258, 78.69955471915]

>  <Cp_T_units>  (2) 
cal/(mol*K)

>  <T_list>  (2) 
[300.0, 400.0, 500.0, 600.0, 800.0, 1000.0, 1500.0, 2000.0, 2400.0]

>  <T_units>  (2) 
K

>  <yaml_path>  (2) 
/home/calvin/Dropbox/PersonalFolders/Calvin/ATLAS_Converged/rmg_rxn_634/output/Species/rmg_rxn_634_p2_CCOCC/rmg_rxn_634_p2_CCOCC.yml

>  <frequencies_cm1>  (2) 
[97.33264992568, 110.05030673831997, 194.58289602751998, 248.33079012716, 254.60721470963998, 436.05356782, 444.0673396884399, 815.26909814636, 829.360152023, 865.38435701172, 947.98045644068, 1068.20763542324, 1096.27300442608, 1164.469035639, 1181.3961544528, 1184.7335093183199, 1192.65114339228, 1290.03872920052, 1301.0533736538, 1374.4477127539599, 1392.16453487956, 1405.93970743148, 1446.2214433186, 1470.736580911, 1470.98379238252, 1486.2834356754797, 1488.7761513466398, 1505.1745122908, 1522.6784578714798, 2933.80960620488, 2943.4577205794803, 2963.1797024185194, 2967.5127701554397, 3022.8812727906, 3023.35509477768, 3101.1992403652002, 3101.4601858073597, 3102.6138393411197, 3102.76491301816]

>  <ZPE_kJmol>  (2) 
356.17314104031504

>  <E_elec_kJmol>  (2) 
-613532.4859521159

>  <E0_minus_Eelec_plus_ZPE_kJmol>  (2) 
0.0

>  <rxn>  (2) 
rmg_rxn_634

>  <species_type>  (2) 
p1

>  <species_folder>  (2) 
rmg_rxn_634_p2_CCOCC

>  <frequencies_cm1_list>  (2) 
[97.33264992568, 110.05030673831997, 194.58289602751998, 248.33079012716, 254.60721470963998, 436.05356782, 444.0673396884399, 815.26909814636, 829.360152023, 865.38435701172, 947.98045644068, 1068.20763542324, 1096.27300442608, 1164.469035639, 1181.3961544528, 1184.7335093183199, 1192.65114339228, 1290.03872920052, 1301.0533736538, 1374.4477127539599, 1392.16453487956, 1405.93970743148, 1446.2214433186, 1470.736580911, 1470.98379238252, 1486.2834356754797, 1488.7761513466398, 1505.1745122908, 1522.6784578714798, 2933.80960620488, 2943.4577205794803, 2963.1797024185194, 2967.5127701554397, 3022.8812727906, 3023.35509477768, 3101.1992403652002, 3101.4601858073597, 3102.6138393411197, 3102.76491301816]

>  <E0_kJmol>  (2) 
-613176

>  <H298_kJmol>  (2) 
-613156

$$$$

     RDKit          3D

 23 21  0  0  0  0  0  0  0  0999 V2000
   -2.2125   -1.6317   -1.7963 C   0  0  0  0  0  0  0  0  0  1  0  0
   -1.2954   -0.6014   -1.1898 C   0  0  0  0  0  0  0  0  0  2  0  0
   -0.4455    0.1553   -2.0610 N   0  0  0  0  0  0  0  0  0  3  0  0
   -0.2004   -0.3764   -3.1208 O   0  0  0  0  0  0  0  0  0  4  0  0
   -1.6540   -2.3429   -2.4029 H   0  0  0  0  0  0  0  0  0  5  0  0
   -2.7350   -2.1712   -1.0061 H   0  0  0  0  0  0  0  0  0  6  0  0
   -2.9571   -1.1570   -2.4384 H   0  0  0  0  0  0  0  0  0  7  0  0
   -0.4705   -1.2046   -0.4990 H   0  0  0  0  0  0  0  0  0  8  0  0
   -1.7463    0.0777   -0.4685 H   0  0  0  0  0  0  0  0  0  9  0  0
    0.5648   -1.9339    0.2912 C   0  0  0  0  0  3  0  0  0 10  0  0
    1.5920   -0.8642    0.4105 C   0  0  0  0  0  0  0  0  0 11  0  0
    1.0668    0.1872    1.1738 O   0  0  0  0  0  0  0  0  0 12  0  0
    1.8930    1.3293    1.1888 C   0  0  0  0  0  0  0  0  0 13  0  0
    1.2246    2.4013    2.0162 C   0  0  0  0  0  0  0  0  0 14  0  0
    0.0225   -2.1875    1.1964 H   0  0  0  0  0  0  0  0  0 15  0  0
    0.8058   -2.7685   -0.3590 H   0  0  0  0  0  0  0  0  0 16  0  0
    1.8839   -0.5080   -0.5886 H   0  0  0  0  0  0  0  0  0 17  0  0
    2.5056   -1.2653    0.8844 H   0  0  0  0  0  0  0  0  0 18  0  0
    2.8761    1.0731    1.6094 H   0  0  0  0  0  0  0  0  0 19  0  0
    2.0537    1.6802    0.1605 H   0  0  0  0  0  0  0  0  0 20  0  0
    1.0681    2.0562    3.0389 H   0  0  0  0  0  0  0  0  0 21  0  0
    1.8463    3.2973    2.0438 H   0  0  0  0  0  0  0  0  0 22  0  0
    0.2573    2.6649    1.5873 H   0  0  0  0  0  0  0  0  0 23  0  0
  1  7  1  0
  1  5  1  0
  1  6  1  0
  1  2  1  0
  2  8  1  0
  2  3  1  0
  2  9  1  0
  3  4  1  0
 10 16  1  0
 10 15  1  0
 10 11  1  0
 11 12  1  0
 11 17  1  0
 11 18  1  0
 12 13  1  0
 13 19  1  0
 13 20  1  0
 13 14  1  0
 14 23  1  0
 14 22  1  0
 14 21  1  0
M  RAD  1  10   2
M  END
>  <rmg_smiles>  (3) 
[CH2]COCC.CC[N][O]

>  <rmg_adjacency_list>  (3) 
multiplicity 2
1  O u0 p2 c0 {4,S} {6,S}
2  O u0 p2 c0 {3,S}
3  N u0 p1 c0 {2,S} {5,S}
4  C u0 p0 c0 {1,S} {8,S} {12,S} {13,S}
5  C u0 p0 c0 {3,S} {7,S} {10,S} {11,S}
6  C u0 p0 c0 {1,S} {9,S} {17,S} {18,S}
7  C u0 p0 c0 {5,S} {14,S} {15,S} {16,S}
8  C u0 p0 c0 {4,S} {19,S} {20,S} {21,S}
9  C u1 p0 c0 {6,S} {22,S} {23,S}
10 H u0 p0 c0 {5,S}
11 H u0 p0 c0 {5,S}
12 H u0 p0 c0 {4,S}
13 H u0 p0 c0 {4,S}
14 H u0 p0 c0 {7,S}
15 H u0 p0 c0 {7,S}
16 H u0 p0 c0 {7,S}
17 H u0 p0 c0 {6,S}
18 H u0 p0 c0 {6,S}
19 H u0 p0 c0 {8,S}
20 H u0 p0 c0 {8,S}
21 H u0 p0 c0 {8,S}
22 H u0 p0 c0 {9,S}
23 H u0 p0 c0 {9,S}


>  <multiplicity>  (3) 
2

>  <reaction>  (3) 
rmg_rxn_634

>  <type>  (3) 
ts

>  <role_mapnums>  (3) 
{"*2": 8, "*1": 2, "*3": 10, "*0": 3, "*4": 11}

>  <role_mapidx>  (3) 
{"*2": 7, "*1": 1, "*3": 9, "*0": 2, "*4": 10}

>  <ordered_mapped_smiles>  (3) 
[C:1]([C:2]([NH:3][OH:4])([H:8])[H:9])([H:5])([H:6])[H:7].[C:10]([C:11]([O:12][C:13]([C:14]([H:21])([H:22])[H:23])([H:19])[H:20])([H:17])[H:18])([H:15])[H:16]

>  <mol_properties>  (3) 
{"1": {"label": "*1", "atom_type": "Cs"}, "2": {"label": "*0", "atom_type": "N3s"}, "7": {"label": "*2", "atom_type": "H0"}, "9": {"label": "*3", "atom_type": "Cs"}, "10": {"label": "*4", "atom_type": "Cs"}}

>  <level_of_theory>  (3) 
wb97xd/def2tzvp

>  <lot_method>  (3) 
wb97xd

>  <lot_basis>  (3) 
def2tzvp

>  <spin_multiplicity>  (3) 
2.0

>  <optical_isomers>  (3) 
2.0

>  <modes>  (3) 
IdealGasTranslation(mass=(132.102, 'amu')),         NonlinearRotor(             inertia = ([224.47, 709.603, 772.031

>  <frequency_value>  (3) 
-1277.29

>  <frequency_units>  (3) 
cm^-1

>  <frequency_list>  (3) 
unknown

>  <arkane_path>  (3) 
/home/calvin/Dropbox/PersonalFolders/Calvin/ATLAS_Converged/rmg_rxn_634/output/rxns/TS0/arkane/output.py

>  <path_exists>  (3) 
True

>  <E0_value>  (3) 
-1160300.0

>  <E0_units>  (3) 
kJ/mol

>  <thermo_class>  (3) 
unknown

>  <Cp0_value>  (3) 
unknown

>  <Cp0_units>  (3) 
unknown

>  <CpInf_value>  (3) 
unknown

>  <CpInf_units>  (3) 
unknown

>  <Tmin_value>  (3) 
unknown

>  <Tmin_units>  (3) 
unknown

>  <Tmax_value>  (3) 
unknown

>  <Tmax_units>  (3) 
unknown

>  <polynomials>  (3) 
unknown

>  <H298_value>  (3) 
unknown

>  <H298_units>  (3) 
unknown

>  <S298_value>  (3) 
unknown

>  <S298_units>  (3) 
unknown

>  <Cp_T_value_list>  (3) 
unknown

>  <Cp_T_units>  (3) 
unknown

>  <T_list>  (3) 
unknown

>  <T_units>  (3) 
unknown

>  <yaml_path>  (3) 
unknown

>  <frequencies_cm1>  (3) 
unknown

>  <ZPE_kJmol>  (3) 
unknown

>  <E_elec_kJmol>  (3) 
unknown

>  <E0_minus_Eelec_plus_ZPE_kJmol>  (3) 
unknown

>  <rxn>  (3) 
unknown

>  <species_type>  (3) 
unknown

>  <species_folder>  (3) 
unknown

>  <frequencies_cm1_list>  (3) 
[]

>  <ts_imag_freq_cm1>  (3) 
-1292.8006

>  <ts_freq_out_path>  (3) 
/home/calvin/Dropbox/PersonalFolders/Calvin/ATLAS_Converged/rmg_rxn_634/output/rxns/TS0/geometry/freq.out

>  <E0_kJmol>  (3) 
-1.1603e+06

>  <H298_kJmol>  (3) 
unknown

$$$$

     RDKit          3D

  8  7  0  0  0  0  0  0  0  0999 V2000
   -0.9728    0.1768    0.1542 C   0  0  0  0  0  0  0  0  0  1  0  0
    0.4518   -0.2348    0.0047 C   0  0  0  0  0  0  0  0  0  2  0  0
    1.3116    0.0208    0.9062 N   0  0  0  0  0  0  0  0  0  3  0  0
    2.5018   -0.1901    1.0428 O   0  0  0  0  0  1  0  0  0  4  0  0
   -1.2701    0.8423   -0.6593 H   0  0  0  0  0  0  0  0  0  5  0  0
   -1.6318   -0.6936    0.1212 H   0  0  0  0  0  0  0  0  0  6  0  0
   -1.1258    0.6936    1.1003 H   0  0  0  0  0  0  0  0  0  7  0  0
    0.7882   -0.7655   -0.8838 H   0  0  0  0  0  0  0  0  0  8  0  0
  1  5  1  0
  1  7  1  0
  1  6  1  0
  1  2  1  0
  2  3  1  0
  2  8  1  0
  3  4  1  0
M  RAD  1   4   2
M  END
>  <rmg_smiles>  (4) 
C[CH][N][O]

>  <rmg_adjacency_list>  (4) 
multiplicity 2
1 O u1 p2 c0 {2,S}
2 N u0 p1 c0 {1,S} {4,S}
3 C u0 p0 c0 {4,S} {5,S} {6,S} {7,S}
4 C u0 p0 c0 {2,S} {3,S} {8,S}
5 H u0 p0 c0 {3,S}
6 H u0 p0 c0 {3,S}
7 H u0 p0 c0 {3,S}
8 H u0 p0 c0 {4,S}


>  <multiplicity>  (4) 
2

>  <reaction>  (4) 
rmg_rxn_634

>  <type>  (4) 
r1

>  <role_mapnums>  (4) 
{}

>  <role_mapidx>  (4) 
{}

>  <ordered_mapped_smiles>  (4) 
[C:1]([CH:2]([NH:3][O:4])[H:8])([H:5])([H:6])[H:7]

>  <level_of_theory>  (4) 
wb97xd/def2tzvp

>  <lot_method>  (4) 
wb97xd

>  <lot_basis>  (4) 
def2tzvp

>  <spin_multiplicity>  (4) 
2.0

>  <optical_isomers>  (4) 
1.0

>  <modes>  (4) 
IdealGasTranslation(mass=(58.0293, 'amu')),         NonlinearRotor(             inertia = ([9.31113, 114.15, 120.338

>  <frequency_value>  (4) 
unknown

>  <frequency_units>  (4) 
unknown

>  <frequency_list>  (4) 
unknown

>  <arkane_path>  (4) 
/home/calvin/Dropbox/PersonalFolders/Calvin/ATLAS_Converged/rmg_rxn_634/output/Species/rmg_rxn_634_p1_CC=Nsbr-O-sbr/arkane/output.py

>  <path_exists>  (4) 
True

>  <E0_value>  (4) 
-547291.9822369756

>  <E0_units>  (4) 
kJ/mol

>  <thermo_class>  (4) 
NASA

>  <Cp0_value>  (4) 
33.257888

>  <Cp0_units>  (4) 
J/(mol*K)

>  <CpInf_value>  (4) 
182.918384

>  <CpInf_units>  (4) 
J/(mol*K)

>  <Tmin_value>  (4) 
10.0

>  <Tmin_units>  (4) 
K

>  <Tmax_value>  (4) 
3000.0

>  <Tmax_units>  (4) 
K

>  <polynomials>  (4) 
[{"name": "polynomial1", "class": "NASAPolynomial", "Tmin_value": 10.0, "Tmin_units": "K", "Tmax_value": 448.469821583942, "Tmax_units": "K", "coeffs": [3.8887722230996813, 0.008399169692485739, 4.23423230637367e-05, -8.042531461118158e-08, 4.6620175661053446e-11, -65824018.56271867, 8.787674089328345]}, {"name": "polynomial2", "class": "NASAPolynomial", "Tmin_value": 448.469821583942, "Tmin_units": "K", "Tmax_value": 3000.0, "Tmax_units": "K", "coeffs": [1.9857514593635577, 0.025372613622198854, -1.4428825534244759e-05, 3.966995228918133e-09, -4.24376034853994e-13, -65823847.87311471, 16.442591867910245]}]

>  <H298_value>  (4) 
-130802.40292482237

>  <H298_units>  (4) 
kcal/mol

>  <S298_value>  (4) 
68.97171532665904

>  <S298_units>  (4) 
cal/(mol*K)

>  <Cp_T_value_list>  (4) 
[16.743153000165332, 20.010112573021154, 22.92084276433073, 25.469656650185197, 29.622633813984088, 32.733580935653485, 37.39926541997259, 39.66786469099458, 40.797255640626396]

>  <Cp_T_units>  (4) 
cal/(mol*K)

>  <T_list>  (4) 
[300.0, 400.0, 500.0, 600.0, 800.0, 1000.0, 1500.0, 2000.0, 2400.0]

>  <T_units>  (4) 
K

>  <yaml_path>  (4) 
/home/calvin/Dropbox/PersonalFolders/Calvin/ATLAS_Converged/rmg_rxn_634/output/Species/rmg_rxn_634_p1_CC=Nsbr-O-sbr/rmg_rxn_634_p1_CC=Nsbr-O-sbr.yml

>  <frequencies_cm1>  (4) 
[167.29349636583999, 305.41603909232, 336.48228068, 536.4488931984, 789.99859216876, 920.0661611148798, 1055.0848264767199, 1131.0542850718798, 1256.94672694344, 1389.69928714968, 1433.0368315041999, 1463.78719176716, 1488.27486141828, 1754.1988679352798, 3017.2297438722394, 3076.07294107932, 3099.7159715360795, 3119.71263278792]

>  <ZPE_kJmol>  (4) 
157.55134027947926

>  <E_elec_kJmol>  (4) 
-547449.5335772551

>  <E0_minus_Eelec_plus_ZPE_kJmol>  (4) 
0.0

>  <rxn>  (4) 
rmg_rxn_634

>  <species_type>  (4) 
p0

>  <species_folder>  (4) 
rmg_rxn_634_p1_CC=Nsbr-O-sbr

>  <frequencies_cm1_list>  (4) 
[167.29349636583999, 305.41603909232, 336.48228068, 536.4488931984, 789.99859216876, 920.0661611148798, 1055.0848264767199, 1131.0542850718798, 1256.94672694344, 1389.69928714968, 1433.0368315041999, 1463.78719176716, 1488.27486141828, 1754.1988679352798, 3017.2297438722394, 3076.07294107932, 3099.7159715360795, 3119.71263278792]

>  <E0_kJmol>  (4) 
-547292

>  <H298_kJmol>  (4) 
-547277

$$$$

     RDKit          3D

 14 13  0  0  0  0  0  0  0  0999 V2000
    2.6694    0.2813   -0.6046 C   0  0  0  0  0  3  0  0  0  1  0  0
    1.5626   -0.5075   -0.0103 C   0  0  0  0  0  0  0  0  0  2  0  0
    0.5522   -0.8487   -0.9278 O   0  0  0  0  0  0  0  0  0  3  0  0
    0.9505   -1.8204   -1.8682 C   0  0  0  0  0  0  0  0  0  4  0  0
   -0.2101   -2.1029   -2.7930 C   0  0  0  0  0  0  0  0  0  5  0  0
    2.4666    0.9443   -1.4355 H   0  0  0  0  0  0  0  0  0  6  0  0
    3.6339    0.3312   -0.1179 H   0  0  0  0  0  0  0  0  0  7  0  0
    1.0573    0.0741    0.7733 H   0  0  0  0  0  0  0  0  0  8  0  0
    1.9580   -1.4106    0.4809 H   0  0  0  0  0  0  0  0  0  9  0  0
    1.8195   -1.4649   -2.4379 H   0  0  0  0  0  0  0  0  0 10  0  0
    1.2587   -2.7372   -1.3440 H   0  0  0  0  0  0  0  0  0 11  0  0
   -0.5051   -1.1971   -3.3238 H   0  0  0  0  0  0  0  0  0 12  0  0
    0.0686   -2.8601   -3.5276 H   0  0  0  0  0  0  0  0  0 13  0  0
   -1.0699   -2.4661   -2.2289 H   0  0  0  0  0  0  0  0  0 14  0  0
  1  7  1  0
  1  6  1  0
  1  2  1  0
  2  9  1  0
  2  8  1  0
  2  3  1  0
  3  4  1  0
  4  5  1  0
  4 10  1  0
  4 11  1  0
  5 12  1  0
  5 14  1  0
  5 13  1  0
M  RAD  1   1   2
M  END
>  <rmg_smiles>  (5) 
[CH2]COCC

>  <rmg_adjacency_list>  (5) 
multiplicity 2
1  O u0 p2 c0 {2,S} {3,S}
2  C u0 p0 c0 {1,S} {4,S} {6,S} {7,S}
3  C u0 p0 c0 {1,S} {5,S} {8,S} {9,S}
4  C u0 p0 c0 {2,S} {10,S} {11,S} {12,S}
5  C u1 p0 c0 {3,S} {13,S} {14,S}
6  H u0 p0 c0 {2,S}
7  H u0 p0 c0 {2,S}
8  H u0 p0 c0 {3,S}
9  H u0 p0 c0 {3,S}
10 H u0 p0 c0 {4,S}
11 H u0 p0 c0 {4,S}
12 H u0 p0 c0 {4,S}
13 H u0 p0 c0 {5,S}
14 H u0 p0 c0 {5,S}


>  <multiplicity>  (5) 
2

>  <reaction>  (5) 
rmg_rxn_634

>  <type>  (5) 
r2

>  <role_mapnums>  (5) 
{}

>  <role_mapidx>  (5) 
{}

>  <ordered_mapped_smiles>  (5) 
[C:1]([C:2]([O:3][C:4]([C:5]([H:12])([H:13])[H:14])([H:10])[H:11])([H:8])[H:9])([H:6])[H:7]

>  <level_of_theory>  (5) 
wb97xd/def2tzvp

>  <lot_method>  (5) 
wb97xd

>  <lot_basis>  (5) 
def2tzvp

>  <spin_multiplicity>  (5) 
2.0

>  <optical_isomers>  (5) 
2.0

>  <modes>  (5) 
IdealGasTranslation(mass=(73.0653, 'amu')),         NonlinearRotor(             inertia = ([36.1087, 191.263, 204.688

>  <frequency_value>  (5) 
unknown

>  <frequency_units>  (5) 
unknown

>  <frequency_list>  (5) 
unknown

>  <arkane_path>  (5) 
/home/calvin/Dropbox/PersonalFolders/Calvin/ATLAS_Converged/rmg_rxn_634/output/Species/rmg_rxn_634_r2_sbr-CH2-sbrCOCC/arkane/output.py

>  <path_exists>  (5) 
True

>  <E0_value>  (5) 
-611438.6030950935

>  <E0_units>  (5) 
kJ/mol

>  <thermo_class>  (5) 
NASA

>  <Cp0_value>  (5) 
33.257888

>  <Cp0_units>  (5) 
J/(mol*K)

>  <CpInf_value>  (5) 
332.57888

>  <CpInf_units>  (5) 
J/(mol*K)

>  <Tmin_value>  (5) 
10.0

>  <Tmin_units>  (5) 
K

>  <Tmax_value>  (5) 
3000.0

>  <Tmax_units>  (5) 
K

>  <polynomials>  (5) 
[{"name": "polynomial1", "class": "NASAPolynomial", "Tmin_value": 10.0, "Tmin_units": "K", "Tmax_value": 1129.3959237558668, "Tmax_units": "K", "coeffs": [3.767687254331021, 0.030025181353026488, 1.0783022290029728e-05, -2.4093154306759102e-08, 8.382058777565432e-12, -73539079.86675207, 10.999960770951583]}, {"name": "polynomial2", "class": "NASAPolynomial", "Tmin_value": 1129.3959237558668, "Tmin_units": "K", "Tmax_value": 3000.0, "Tmax_units": "K", "coeffs": [5.6857834097634, 0.037592019875525746, -1.833922228791922e-05, 4.3554701728670094e-09, -4.0732880567514265e-13, -73540428.97117028, -2.5417292363783583]}]

>  <H298_value>  (5) 
-146132.3546509215

>  <H298_units>  (5) 
kcal/mol

>  <S298_value>  (5) 
82.85680191938049

>  <S298_units>  (5) 
cal/(mol*K)

>  <Cp_T_value_list>  (5) 
[26.1577843323499, 32.14438106326243, 37.73360939012966, 42.81809519804709, 51.24322537774468, 57.36030900443956, 66.46842649273657, 71.22035723151492, 73.4641194799488]

>  <Cp_T_units>  (5) 
cal/(mol*K)

>  <T_list>  (5) 
[300.0, 400.0, 500.0, 600.0, 800.0, 1000.0, 1500.0, 2000.0, 2400.0]

>  <T_units>  (5) 
K

>  <yaml_path>  (5) 
/home/calvin/Dropbox/PersonalFolders/Calvin/ATLAS_Converged/rmg_rxn_634/output/Species/rmg_rxn_634_r2_sbr-CH2-sbrCOCC/rmg_rxn_634_r2_sbr-CH2-sbrCOCC.yml

>  <frequencies_cm1>  (5) 
[76.09993131623999, 140.58779045635998, 186.73393180675998, 253.66643772079996, 286.93011461087997, 382.93743636979997, 472.70266847283995, 529.9115231737599, 822.58930449748, 853.7036149823999, 871.2762304162799, 982.3771859085599, 1056.19727809856, 1096.42407810312, 1136.3281297976398, 1169.37206315748, 1177.12488958376, 1281.42066262392, 1292.2086965616397, 1373.79534914856, 1391.2512258319998, 1423.8488051460397, 1437.4660370355998, 1459.749404399, 1470.3382957624399, 1487.2654145762401, 1513.826913794, 2933.2739813499197, 2947.7839213310795, 2970.7608542117996, 2983.3205703620797, 3023.4924344840797, 3101.41211691012, 3103.7537589042395, 3126.2774707538397, 3235.73034976932]

>  <ZPE_kJmol>  (5) 
317.3211535298422

>  <E_elec_kJmol>  (5) 
-611755.9242486233

>  <E0_minus_Eelec_plus_ZPE_kJmol>  (5) 
0.0

>  <rxn>  (5) 
rmg_rxn_634

>  <species_type>  (5) 
r1

>  <species_folder>  (5) 
rmg_rxn_634_r2_sbr-CH2-sbrCOCC

>  <frequencies_cm1_list>  (5) 
[76.09993131623999, 140.58779045635998, 186.73393180675998, 253.66643772079996, 286.93011461087997, 382.93743636979997, 472.70266847283995, 529.9115231737599, 822.58930449748, 853.7036149823999, 871.2762304162799, 982.3771859085599, 1056.19727809856, 1096.42407810312, 1136.3281297976398, 1169.37206315748, 1177.12488958376, 1281.42066262392, 1292.2086965616397, 1373.79534914856, 1391.2512258319998, 1423.8488051460397, 1437.4660370355998, 1459.749404399, 1470.3382957624399, 1487.2654145762401, 1513.826913794, 2933.2739813499197, 2947.7839213310795, 2970.7608542117996, 2983.3205703620797, 3023.4924344840797, 3101.41211691012, 3103.7537589042395, 3126.2774707538397, 3235.73034976932]

>  <E0_kJmol>  (5) 
-611439

>  <H298_kJmol>  (5) 
-611418

$$$$
