
     RDKit          3D

 10  9  0  0  0  0  0  0  0  0999 V2000
    0.6155    0.1026   -1.8588 C   0  0  0  0  0  0  0  0  0  1  0  0
    0.3324   -0.0065   -0.5810 C   0  0  0  0  0  2  0  0  0  2  0  0
    0.1498   -0.1651    0.6739 C   0  0  0  0  0  0  0  0  0  3  0  0
   -0.9922    0.0654    1.6013 C   0  0  0  0  0  0  0  0  0  4  0  0
    1.0362    1.0151   -2.2646 H   0  0  0  0  0  0  0  0  0  5  0  0
    0.4156   -0.7133   -2.5436 H   0  0  0  0  0  0  0  0  0  6  0  0
    1.0293   -0.5725    1.1725 H   0  0  0  0  0  0  0  0  0  7  0  0
   -1.2817   -0.8694    2.0838 H   0  0  0  0  0  0  0  0  0  8  0  0
   -1.8528    0.4643    1.0635 H   0  0  0  0  0  0  0  0  0  9  0  0
   -0.7112    0.7690    2.3864 H   0  0  0  0  0  0  0  0  0 10  0  0
  1  5  1  0
  1  6  1  0
  1  2  1  0
  2  3  1  0
  3  4  1  0
  3  7  1  0
  4  8  1  0
  4  9  1  0
  4 10  1  0
M  RAD  1   2   3
M  END
>  <rmg_smiles>  (1) 
[CH2][C][CH]C

>  <rmg_adjacency_list>  (1) 
1  C u0 p0 c0 {2,S} {5,S} {6,S} {7,S}
2  C u0 p0 c0 {1,S} {4,S} {8,S}
3  C u0 p0 c0 {4,S} {9,S} {10,S}
4  C u0 p1 c0 {2,S} {3,S}
5  H u0 p0 c0 {1,S}
6  H u0 p0 c0 {1,S}
7  H u0 p0 c0 {1,S}
8  H u0 p0 c0 {2,S}
9  H u0 p0 c0 {3,S}
10 H u0 p0 c0 {3,S}


>  <multiplicity>  (1) 
1

>  <reaction>  (1) 
rmg_rxn_13936

>  <type>  (1) 
r1h

>  <role_mapnums>  (1) 
{"r1h_a": 3, "r1h_h": 7}

>  <role_mapidx>  (1) 
{"r1h_a": 2, "r1h_h": 6}

>  <ordered_mapped_smiles>  (1) 
[CH:1]([C:2][CH:3]([C:4]([H:8])([H:9])[H:10])[H:7])([H:5])[H:6]

>  <mol_properties>  (1) 
{"2": {"label": "donator", "atom_type": "Cs"}, "6": {"label": "d_hydrogen", "atom_type": "H0"}}

>  <level_of_theory>  (1) 
wb97xd/def2tzvp

>  <lot_method>  (1) 
wb97xd

>  <lot_basis>  (1) 
def2tzvp

>  <spin_multiplicity>  (1) 
1.0

>  <optical_isomers>  (1) 
1.0

>  <modes>  (1) 
IdealGasTranslation(mass=(54.047, 'amu')),         NonlinearRotor(             inertia = ([14.6121, 119.467, 127.49

>  <frequency_value>  (1) 
unknown

>  <frequency_units>  (1) 
unknown

>  <frequency_list>  (1) 
unknown

>  <arkane_path>  (1) 
/home/calvin/Dropbox/PersonalFolders/Calvin/ZEUS_Converged/rmg_rxn_13936/output/Species/rmg_rxn_13936_r1_C=C=CC/arkane/output.py

>  <path_exists>  (1) 
True

>  <E0_value>  (1) 
-409296.6502421279

>  <E0_units>  (1) 
kJ/mol

>  <thermo_class>  (1) 
NASA

>  <Cp0_value>  (1) 
33.257888

>  <Cp0_units>  (1) 
J/(mol*K)

>  <CpInf_value>  (1) 
232.805216

>  <CpInf_units>  (1) 
J/(mol*K)

>  <Tmin_value>  (1) 
10.0

>  <Tmin_units>  (1) 
K

>  <Tmax_value>  (1) 
3000.0

>  <Tmax_units>  (1) 
K

>  <polynomials>  (1) 
[{"name": "polynomial1", "class": "NASAPolynomial", "Tmin_value": 10.0, "Tmin_units": "K", "Tmax_value": 452.8802664009696, "Tmax_units": "K", "coeffs": [3.9021943352433452, 0.007937521032632688, 6.664442489196733e-05, -1.2131953588307993e-07, 6.938885885775227e-11, -49227014.555544384, 8.255511443201872]}, {"name": "polynomial2", "class": "NASAPolynomial", "Tmin_value": 452.8802664009696, "Tmin_units": "K", "Tmax_value": 3000.0, "Tmax_units": "K", "coeffs": [0.958037882717614, 0.033941191741253485, -1.948265019694705e-05, 5.463813645242153e-09, -5.979209978345261e-13, -49226747.88374059, 20.12723627389473]}]

>  <H298_value>  (1) 
-97820.47439749332

>  <H298_units>  (1) 
kcal/mol

>  <S298_value>  (1) 
69.30943774444917

>  <S298_units>  (1) 
cal/(mol*K)

>  <Cp_T_value_list>  (1) 
[19.013335795722274, 23.35407848830737, 27.231838984706652, 30.626214617830076, 36.15654523435027, 40.30546036176962, 46.594544625367064, 49.786664420046236, 51.450781523093035]

>  <Cp_T_units>  (1) 
cal/(mol*K)

>  <T_list>  (1) 
[300.0, 400.0, 500.0, 600.0, 800.0, 1000.0, 1500.0, 2000.0, 2400.0]

>  <T_units>  (1) 
K

>  <yaml_path>  (1) 
/home/calvin/Dropbox/PersonalFolders/Calvin/ZEUS_Converged/rmg_rxn_13936/output/Species/rmg_rxn_13936_r1_C=C=CC/rmg_rxn_13936_r1_C=C=CC.yml

>  <frequencies_cm1>  (1) 
[164.84884959192, 210.28769145436, 340.98015606459995, 540.2944049775999, 574.7186023867599, 878.6239047086799, 884.0282221555199, 895.09093550604, 1017.79709618912, 1055.91573170044, 1088.91159616304, 1146.5530709391198, 1353.77808694076, 1399.01778622892, 1463.354571692, 1470.3726306890399, 1494.8053644576, 2061.4346581373993, 3012.63573069316, 3072.0282867258397, 3106.42501619372, 3110.62074422424, 3124.134971334, 3189.66661224276]

>  <ZPE_kJmol>  (1) 
219.25357474583132

>  <E_elec_kJmol>  (1) 
-409515.9038168737

>  <E0_minus_Eelec_plus_ZPE_kJmol>  (1) 
0.0

>  <rxn>  (1) 
rmg_rxn_13936

>  <species_type>  (1) 
r0

>  <species_folder>  (1) 
rmg_rxn_13936_r1_C=C=CC

>  <frequencies_cm1_list>  (1) 
[164.84884959192, 210.28769145436, 340.98015606459995, 540.2944049775999, 574.7186023867599, 878.6239047086799, 884.0282221555199, 895.09093550604, 1017.79709618912, 1055.91573170044, 1088.91159616304, 1146.5530709391198, 1353.77808694076, 1399.01778622892, 1463.354571692, 1470.3726306890399, 1494.8053644576, 2061.4346581373993, 3012.63573069316, 3072.0282867258397, 3106.42501619372, 3110.62074422424, 3124.134971334, 3189.66661224276]

>  <E0_kJmol>  (1) 
-409297

>  <H298_kJmol>  (1) 
-409281

$$$$

     RDKit          3D

 14 13  0  0  0  0  0  0  0  0999 V2000
   -1.5863    2.3161    0.5253 H   0  0  0  0  0  0  0  0  0  1  0  0
    1.6975   -1.4272   -0.6985 C   0  0  0  0  0  0  0  0  0  2  0  0
    0.8022   -1.6101    0.2578 C   0  0  0  0  0  0  0  0  0  3  0  0
   -0.5194   -0.9063    0.3608 C   0  0  0  0  0  0  0  0  0  4  0  0
   -0.7043    0.1074   -0.5988 O   0  0  0  0  0  0  0  0  0  5  0  0
   -0.1764    1.3522   -0.2305 C   0  0  0  0  0  0  0  0  0  6  0  0
   -0.7698    1.9287    0.8490 O   0  0  0  0  0  0  0  0  0  7  0  0
    2.6287   -1.9785   -0.7088 H   0  0  0  0  0  0  0  0  0  8  0  0
    1.5203   -0.7263   -1.5053 H   0  0  0  0  0  0  0  0  0  9  0  0
    0.9968   -2.3280    1.0504 H   0  0  0  0  0  0  0  0  0 10  0  0
   -0.6472   -0.5008    1.3715 H   0  0  0  0  0  0  0  0  0 11  0  0
   -1.3256   -1.6302    0.2124 H   0  0  0  0  0  0  0  0  0 12  0  0
   -0.2648    1.9799   -1.1297 H   0  0  0  0  0  0  0  0  0 13  0  0
    0.8936    1.2664    0.0269 H   0  0  0  0  0  0  0  0  0 14  0  0
  1  7  1  0
  2  9  1  0
  2  8  1  0
  2  3  1  0
  3  4  1  0
  3 10  1  0
  4 11  1  0
  4 12  1  0
  4  5  1  0
  5  6  1  0
  6 14  1  0
  6 13  1  0
  6  7  1  0
M  END
>  <rmg_smiles>  (2) 
[CH2][CH]COCO

>  <rmg_adjacency_list>  (2) 
1  O u0 p2 c0 {3,S} {4,S}
2  O u0 p2 c0 {4,S} {14,S}
3  C u0 p0 c0 {1,S} {5,S} {7,S} {8,S}
4  C u0 p0 c0 {1,S} {2,S} {9,S} {10,S}
5  C u0 p0 c0 {3,S} {6,S} {11,S}
6  C u0 p0 c0 {5,S} {12,S} {13,S}
7  H u0 p0 c0 {3,S}
8  H u0 p0 c0 {3,S}
9  H u0 p0 c0 {4,S}
10 H u0 p0 c0 {4,S}
11 H u0 p0 c0 {5,S}
12 H u0 p0 c0 {6,S}
13 H u0 p0 c0 {6,S}
14 H u0 p0 c0 {2,S}


>  <multiplicity>  (2) 
1

>  <reaction>  (2) 
rmg_rxn_13936

>  <type>  (2) 
r2h

>  <role_mapnums>  (2) 
{"r2h_a": 7, "r2h_h": 1}

>  <role_mapidx>  (2) 
{"r2h_a": 6, "r2h_h": 0}

>  <ordered_mapped_smiles>  (2) 
[H:1][O:7][C:6]([O:5][C:4]([CH:3]([CH:2]([H:8])[H:9])[H:10])([H:11])[H:12])([H:13])[H:14]

>  <mol_properties>  (2) 
{"0": {"label": "a_hydrogen", "atom_type": "H0"}, "6": {"label": "acceptor", "atom_type": "O2s"}}

>  <level_of_theory>  (2) 
wb97xd/def2tzvp

>  <lot_method>  (2) 
wb97xd

>  <lot_basis>  (2) 
def2tzvp

>  <spin_multiplicity>  (2) 
1.0

>  <optical_isomers>  (2) 
2.0

>  <modes>  (2) 
IdealGasTranslation(mass=(88.0524, 'amu')),         NonlinearRotor(             inertia = ([62.4755, 247.019, 267.132

>  <frequency_value>  (2) 
unknown

>  <frequency_units>  (2) 
unknown

>  <frequency_list>  (2) 
unknown

>  <arkane_path>  (2) 
/home/calvin/Dropbox/PersonalFolders/Calvin/ZEUS_Converged/rmg_rxn_13936/output/Species/rmg_rxn_13936_p2_C=CCOCO/arkane/output.py

>  <path_exists>  (2) 
True

>  <E0_value>  (2) 
-807484.8524164247

>  <E0_units>  (2) 
kJ/mol

>  <thermo_class>  (2) 
NASA

>  <Cp0_value>  (2) 
33.257888

>  <Cp0_units>  (2) 
J/(mol*K)

>  <CpInf_value>  (2) 
332.57888

>  <CpInf_units>  (2) 
J/(mol*K)

>  <Tmin_value>  (2) 
10.0

>  <Tmin_units>  (2) 
K

>  <Tmax_value>  (2) 
3000.0

>  <Tmax_units>  (2) 
K

>  <polynomials>  (2) 
[{"name": "polynomial1", "class": "NASAPolynomial", "Tmin_value": 10.0, "Tmin_units": "K", "Tmax_value": 951.0524616383826, "Tmax_units": "K", "coeffs": [3.7830136747009746, 0.02730165264485492, 2.7115848956578007e-05, -4.6900329274322994e-08, 1.7949605140138815e-11, -97117998.47242273, 11.22324422463901]}, {"name": "polynomial2", "class": "NASAPolynomial", "Tmin_value": 951.0524616383826, "Tmin_units": "K", "Tmax_value": 3000.0, "Tmax_units": "K", "coeffs": [3.8273289179743215, 0.04312708482250014, -2.3097861092757227e-05, 6.000746502449904e-09, -6.096905264168253e-13, -97118731.03666244, 7.204653499089413]}]

>  <H298_value>  (2) 
-192988.56033858497

>  <H298_units>  (2) 
kcal/mol

>  <S298_value>  (2) 
82.94001480928443

>  <S298_units>  (2) 
cal/(mol*K)

>  <Cp_T_value_list>  (2) 
[26.41597334783217, 32.78910476176138, 38.69510635792486, 43.96000567879716, 52.298642528855424, 58.12103799453406, 66.99614312701847, 71.42214471276988, 73.55625753975892]

>  <Cp_T_units>  (2) 
cal/(mol*K)

>  <T_list>  (2) 
[300.0, 400.0, 500.0, 600.0, 800.0, 1000.0, 1500.0, 2000.0, 2400.0]

>  <T_units>  (2) 
K

>  <yaml_path>  (2) 
/home/calvin/Dropbox/PersonalFolders/Calvin/ZEUS_Converged/rmg_rxn_13936/output/Species/rmg_rxn_13936_p2_C=CCOCO/rmg_rxn_13936_p2_C=CCOCO.yml

>  <frequencies_cm1>  (2) 
[77.30165374724, 129.47014122328, 172.533006165, 253.86558029507995, 363.03004592712, 386.96148976731996, 559.06187585716, 591.1993671547599, 632.7240273847999, 885.1818756892799, 957.0654780190399, 964.95564415172, 1007.4279483559199, 1029.52590711568, 1057.08311920484, 1080.95276017716, 1096.3622752352398, 1165.6776250553198, 1270.907308099, 1310.55041435136, 1321.207975568, 1376.8442906306398, 1389.3284699424, 1434.01194341964, 1437.9535929933202, 1480.0413460196, 1512.3917138621198, 1719.32831648032, 2998.7369524054798, 3010.3146896549997, 3044.57407941648, 3064.1243866225195, 3120.2551246282, 3133.81055364988, 3215.56201388448, 3829.6490431107995]

>  <ZPE_kJmol>  (2) 
311.5074991336928

>  <E_elec_kJmol>  (2) 
-807796.3599155584

>  <E0_minus_Eelec_plus_ZPE_kJmol>  (2) 
0.0

>  <rxn>  (2) 
rmg_rxn_13936

>  <species_type>  (2) 
p1

>  <species_folder>  (2) 
rmg_rxn_13936_p2_C=CCOCO

>  <frequencies_cm1_list>  (2) 
[77.30165374724, 129.47014122328, 172.533006165, 253.86558029507995, 363.03004592712, 386.96148976731996, 559.06187585716, 591.1993671547599, 632.7240273847999, 885.1818756892799, 957.0654780190399, 964.95564415172, 1007.4279483559199, 1029.52590711568, 1057.08311920484, 1080.95276017716, 1096.3622752352398, 1165.6776250553198, 1270.907308099, 1310.55041435136, 1321.207975568, 1376.8442906306398, 1389.3284699424, 1434.01194341964, 1437.9535929933202, 1480.0413460196, 1512.3917138621198, 1719.32831648032, 2998.7369524054798, 3010.3146896549997, 3044.57407941648, 3064.1243866225195, 3120.2551246282, 3133.81055364988, 3215.56201388448, 3829.6490431107995]

>  <E0_kJmol>  (2) 
-807485

>  <H298_kJmol>  (2) 
-807464

$$$$

     RDKit          3D

 23 21  0  0  0  0  0  0  0  0999 V2000
   -1.2775    2.0190   -2.3719 C   0  0  0  0  0  0  0  0  0  1  0  0
   -1.5605    1.9099   -1.0941 C   0  0  0  0  0  0  0  0  0  2  0  0
   -1.7431    1.7514    0.1608 C   0  0  0  0  0  0  0  0  0  3  0  0
   -2.8852    1.9819    1.0882 C   0  0  0  0  0  0  0  0  0  4  0  0
   -0.8568    2.9315   -2.7777 H   0  0  0  0  0  0  0  0  0  5  0  0
   -1.4773    1.2031   -3.0567 H   0  0  0  0  0  0  0  0  0  6  0  0
   -0.7548    1.2935    0.7211 H   0  0  0  0  0  0  0  0  0  7  0  0
   -3.1747    1.0471    1.5707 H   0  0  0  0  0  0  0  0  0  8  0  0
   -3.7457    2.3807    0.5503 H   0  0  0  0  0  0  0  0  0  9  0  0
   -2.6041    2.6854    1.8733 H   0  0  0  0  0  0  0  0  0 10  0  0
    2.8283   -2.5918   -0.3841 C   0  0  0  0  0  0  0  0  0 11  0  0
    1.9331   -2.7747    0.5723 C   0  0  0  0  0  0  0  0  0 12  0  0
    0.6115   -2.0709    0.6753 C   0  0  0  0  0  0  0  0  0 13  0  0
    0.4265   -1.0573   -0.2843 O   0  0  0  0  0  0  0  0  0 14  0  0
    0.9544    0.1876    0.0840 C   0  0  0  0  0  0  0  0  0 15  0  0
    0.3610    0.7641    1.1635 O   0  0  0  0  0  1  0  0  0 16  0  0
    3.7595   -3.1431   -0.3943 H   0  0  0  0  0  0  0  0  0 17  0  0
    2.6511   -1.8910   -1.1909 H   0  0  0  0  0  0  0  0  0 18  0  0
    2.1276   -3.4926    1.3648 H   0  0  0  0  0  0  0  0  0 19  0  0
    0.4837   -1.6654    1.6860 H   0  0  0  0  0  0  0  0  0 20  0  0
   -0.1948   -2.7948    0.5268 H   0  0  0  0  0  0  0  0  0 21  0  0
    0.8660    0.8153   -0.8153 H   0  0  0  0  0  0  0  0  0 22  0  0
    2.0245    0.1017    0.3413 H   0  0  0  0  0  0  0  0  0 23  0  0
  1  5  1  0
  1  6  1  0
  1  2  1  0
  2  3  1  0
  3  4  1  0
  3  7  1  0
  4 10  1  0
  4  9  1  0
  4  8  1  0
 11 17  1  0
 11 12  1  0
 11 18  1  0
 12 19  1  0
 12 13  1  0
 13 21  1  0
 13 20  1  0
 13 14  1  0
 14 15  1  0
 15 16  1  0
 15 23  1  0
 15 22  1  0
M  RAD  1  16   2
M  END
>  <rmg_smiles>  (3) 
[CH2]C[CH]C.[CH2][CH]COC[O]

>  <rmg_adjacency_list>  (3) 
multiplicity 2
1  O u0 p2 c0 {3,S} {5,S}
2  O u1 p2 c0 {5,S}
3  C u0 p0 c0 {1,S} {6,S} {11,S} {12,S}
4  C u0 p0 c0 {7,S} {13,S} {14,S} {15,S}
5  C u0 p0 c0 {1,S} {2,S} {16,S} {17,S}
6  C u0 p0 c0 {3,S} {8,S} {18,S}
7  C u0 p0 c0 {4,S} {10,S} {19,S}
8  C u0 p0 c0 {6,S} {20,S} {21,S}
9  C u0 p0 c0 {10,S} {22,S} {23,S}
10 C u0 p1 c0 {7,S} {9,S}
11 H u0 p0 c0 {3,S}
12 H u0 p0 c0 {3,S}
13 H u0 p0 c0 {4,S}
14 H u0 p0 c0 {4,S}
15 H u0 p0 c0 {4,S}
16 H u0 p0 c0 {5,S}
17 H u0 p0 c0 {5,S}
18 H u0 p0 c0 {6,S}
19 H u0 p0 c0 {7,S}
20 H u0 p0 c0 {8,S}
21 H u0 p0 c0 {8,S}
22 H u0 p0 c0 {9,S}
23 H u0 p0 c0 {9,S}


>  <multiplicity>  (3) 
2

>  <reaction>  (3) 
rmg_rxn_13936

>  <type>  (3) 
ts

>  <role_mapnums>  (3) 
{"*2": 7, "*1": 3, "*3": 16, "*0": 2, "*4": 15}

>  <role_mapidx>  (3) 
{"*2": 6, "*1": 2, "*3": 15, "*0": 1, "*4": 14}

>  <ordered_mapped_smiles>  (3) 
[CH:1]([CH2:2][CH:3]([C:4]([H:8])([H:9])[H:10])[H:7])([H:5])[H:6].[CH:11]([CH:12]([C:13]([O:14][C:15]([O:16])([H:22])[H:23])([H:20])[H:21])[H:19])([H:17])[H:18]

>  <mol_properties>  (3) 
{"1": {"label": "*0", "atom_type": "C2s"}, "2": {"label": "*1", "atom_type": "Cs"}, "6": {"label": "*2", "atom_type": "H0"}, "14": {"label": "*4", "atom_type": "Cs"}, "15": {"label": "*3", "atom_type": "O2s"}}

>  <level_of_theory>  (3) 
wb97xd/def2tzvp

>  <lot_method>  (3) 
wb97xd

>  <lot_basis>  (3) 
def2tzvp

>  <spin_multiplicity>  (3) 
2.0

>  <optical_isomers>  (3) 
2.0

>  <modes>  (3) 
IdealGasTranslation(mass=(141.092, 'amu')),         NonlinearRotor(             inertia = ([217.464, 901.079, 1013.33

>  <frequency_value>  (3) 
-1471.46

>  <frequency_units>  (3) 
cm^-1

>  <frequency_list>  (3) 
unknown

>  <arkane_path>  (3) 
/home/calvin/Dropbox/PersonalFolders/Calvin/ZEUS_Converged/rmg_rxn_13936/output/rxns/TS0/arkane/output.py

>  <path_exists>  (3) 
True

>  <E0_value>  (3) 
-1215030.0

>  <E0_units>  (3) 
kJ/mol

>  <thermo_class>  (3) 
unknown

>  <Cp0_value>  (3) 
unknown

>  <Cp0_units>  (3) 
unknown

>  <CpInf_value>  (3) 
unknown

>  <CpInf_units>  (3) 
unknown

>  <Tmin_value>  (3) 
unknown

>  <Tmin_units>  (3) 
unknown

>  <Tmax_value>  (3) 
unknown

>  <Tmax_units>  (3) 
unknown

>  <polynomials>  (3) 
unknown

>  <H298_value>  (3) 
unknown

>  <H298_units>  (3) 
unknown

>  <S298_value>  (3) 
unknown

>  <S298_units>  (3) 
unknown

>  <Cp_T_value_list>  (3) 
unknown

>  <Cp_T_units>  (3) 
unknown

>  <T_list>  (3) 
unknown

>  <T_units>  (3) 
unknown

>  <yaml_path>  (3) 
unknown

>  <frequencies_cm1>  (3) 
unknown

>  <ZPE_kJmol>  (3) 
unknown

>  <E_elec_kJmol>  (3) 
unknown

>  <E0_minus_Eelec_plus_ZPE_kJmol>  (3) 
unknown

>  <rxn>  (3) 
unknown

>  <species_type>  (3) 
unknown

>  <species_folder>  (3) 
unknown

>  <frequencies_cm1_list>  (3) 
[]

>  <ts_imag_freq_cm1>  (3) 
-1489.3284

>  <ts_freq_out_path>  (3) 
/home/calvin/Dropbox/PersonalFolders/Calvin/ZEUS_Converged/rmg_rxn_13936/output/rxns/TS0/geometry/freq.out

>  <E0_kJmol>  (3) 
-1.21503e+06

>  <H298_kJmol>  (3) 
unknown

$$$$

     RDKit          3D

  9  8  0  0  0  0  0  0  0  0999 V2000
    2.2285    0.1429   -0.1875 C   0  0  0  0  0  0  0  0  0  1  0  0
    0.8689    0.0588   -0.0734 C   0  0  0  0  0  0  0  0  0  2  0  0
   -0.3436   -0.0148    0.0282 C   0  0  0  0  0  3  0  0  0  3  0  0
   -1.7876   -0.1130    0.1500 C   0  0  0  0  0  0  0  0  0  4  0  0
    2.8646    0.0330    0.6803 H   0  0  0  0  0  0  0  0  0  5  0  0
    2.6934    0.3211   -1.1477 H   0  0  0  0  0  0  0  0  0  6  0  0
   -2.1322    0.3380    1.0826 H   0  0  0  0  0  0  0  0  0  7  0  0
   -2.1068   -1.1583    0.1470 H   0  0  0  0  0  0  0  0  0  8  0  0
   -2.2854    0.3923   -0.6795 H   0  0  0  0  0  0  0  0  0  9  0  0
  1  5  1  0
  1  6  1  0
  1  2  1  0
  2  3  1  0
  3  4  1  0
  4  8  1  0
  4  9  1  0
  4  7  1  0
M  RAD  1   3   2
M  END
>  <rmg_smiles>  (4) 
[CH2]C[C]C

>  <rmg_adjacency_list>  (4) 
multiplicity 2
1 C u0 p0 c0 {3,S} {5,S} {6,S} {7,S}
2 C u0 p0 c0 {4,S} {8,S} {9,S}
3 C u1 p1 c0 {1,S} {4,S}
4 C u0 p1 c0 {2,S} {3,S}
5 H u0 p0 c0 {1,S}
6 H u0 p0 c0 {1,S}
7 H u0 p0 c0 {1,S}
8 H u0 p0 c0 {2,S}
9 H u0 p0 c0 {2,S}


>  <multiplicity>  (4) 
2

>  <reaction>  (4) 
rmg_rxn_13936

>  <type>  (4) 
r1

>  <role_mapnums>  (4) 
{}

>  <role_mapidx>  (4) 
{}

>  <ordered_mapped_smiles>  (4) 
[CH:1]([CH2:2][CH:3][C:4]([H:7])([H:8])[H:9])([H:5])[H:6]

>  <level_of_theory>  (4) 
wb97xd/def2tzvp

>  <lot_method>  (4) 
wb97xd

>  <lot_basis>  (4) 
def2tzvp

>  <spin_multiplicity>  (4) 
2.0

>  <optical_isomers>  (4) 
2.0

>  <modes>  (4) 
IdealGasTranslation(mass=(53.0391, 'amu')),         NonlinearRotor(             inertia = ([4.88746, 139.242, 140.992

>  <frequency_value>  (4) 
unknown

>  <frequency_units>  (4) 
unknown

>  <frequency_list>  (4) 
unknown

>  <arkane_path>  (4) 
/home/calvin/Dropbox/PersonalFolders/Calvin/ZEUS_Converged/rmg_rxn_13936/output/Species/rmg_rxn_13936_p1_sbr-CH2-sbrCtCC/arkane/output.py

>  <path_exists>  (4) 
True

>  <E0_value>  (4) 
-407625.4064849041

>  <E0_units>  (4) 
kJ/mol

>  <thermo_class>  (4) 
NASA

>  <Cp0_value>  (4) 
33.257888

>  <Cp0_units>  (4) 
J/(mol*K)

>  <CpInf_value>  (4) 
207.8618

>  <CpInf_units>  (4) 
J/(mol*K)

>  <Tmin_value>  (4) 
10.0

>  <Tmin_units>  (4) 
K

>  <Tmax_value>  (4) 
3000.0

>  <Tmax_units>  (4) 
K

>  <polynomials>  (4) 
[{"name": "polynomial1", "class": "NASAPolynomial", "Tmin_value": 10.0, "Tmin_units": "K", "Tmax_value": 502.0268159976515, "Tmax_units": "K", "coeffs": [3.687270830426517, 0.029053628934412008, -4.470123428186127e-05, 7.503439468745092e-08, -5.158529094876398e-11, -49026010.75493378, 10.46372665339021]}, {"name": "polynomial2", "class": "NASAPolynomial", "Tmin_value": 502.0268159976515, "Tmin_units": "K", "Tmax_value": 3000.0, "Tmax_units": "K", "coeffs": [2.898462070883104, 0.02729908073702909, -1.54375900595206e-05, 4.274702323061024e-09, -4.631616133105543e-13, -49025830.24365362, 14.734719774038638]}]

>  <H298_value>  (4) 
-97420.5979578768

>  <H298_units>  (4) 
kcal/mol

>  <S298_value>  (4) 
76.91244568160063

>  <S298_units>  (4) 
cal/(mol*K)

>  <Cp_T_value_list>  (4) 
[19.848886680568814, 23.127392893703846, 26.219193390336713, 28.980799697634083, 33.49755626219656, 36.90539253248215, 42.11858387906473, 44.77831245492002, 46.14816382733488]

>  <Cp_T_units>  (4) 
cal/(mol*K)

>  <T_list>  (4) 
[300.0, 400.0, 500.0, 600.0, 800.0, 1000.0, 1500.0, 2000.0, 2400.0]

>  <T_units>  (4) 
K

>  <yaml_path>  (4) 
/home/calvin/Dropbox/PersonalFolders/Calvin/ZEUS_Converged/rmg_rxn_13936/output/Species/rmg_rxn_13936_p1_sbr-CH2-sbrCtCC/rmg_rxn_13936_p1_sbr-CH2-sbrCtCC.yml

>  <frequencies_cm1>  (4) 
[24.18552229704, 186.74766577739996, 206.32544092471997, 398.28514856, 428.84323323399997, 670.45124473288, 768.8002084859199, 1023.53102893132, 1025.11730254024, 1044.32426048028, 1244.297739984, 1401.51050190008, 1455.78715386936, 1460.16829050352, 1460.7931861676398, 2137.33544687936, 3007.2588811876003, 3071.0325738544398, 3085.0961597897995, 3128.557309880079, 3222.30539346872]

>  <ZPE_kJmol>  (4) 
182.1360065892337

>  <E_elec_kJmol>  (4) 
-407807.5424914933

>  <E0_minus_Eelec_plus_ZPE_kJmol>  (4) 
0.0

>  <rxn>  (4) 
rmg_rxn_13936

>  <species_type>  (4) 
p0

>  <species_folder>  (4) 
rmg_rxn_13936_p1_sbr-CH2-sbrCtCC

>  <frequencies_cm1_list>  (4) 
[24.18552229704, 186.74766577739996, 206.32544092471997, 398.28514856, 428.84323323399997, 670.45124473288, 768.8002084859199, 1023.53102893132, 1025.11730254024, 1044.32426048028, 1244.297739984, 1401.51050190008, 1455.78715386936, 1460.16829050352, 1460.7931861676398, 2137.33544687936, 3007.2588811876003, 3071.0325738544398, 3085.0961597897995, 3128.557309880079, 3222.30539346872]

>  <E0_kJmol>  (4) 
-407625

>  <H298_kJmol>  (4) 
-407608

$$$$

     RDKit          3D

 13 12  0  0  0  0  0  0  0  0999 V2000
    2.4430   -0.3849    0.0540 C   0  0  0  0  0  0  0  0  0  1  0  0
    1.2567   -0.6322    0.5818 C   0  0  0  0  0  0  0  0  0  2  0  0
    0.0753    0.2775    0.5273 C   0  0  0  0  0  0  0  0  0  3  0  0
    0.3842    1.4616   -0.1714 O   0  0  0  0  0  0  0  0  0  4  0  0
   -0.6866    2.3343   -0.3126 C   0  0  0  0  0  0  0  0  0  5  0  0
   -1.2216    2.8361    0.7984 O   0  0  0  0  0  1  0  0  0  6  0  0
    3.2507   -1.0998    0.1431 H   0  0  0  0  0  0  0  0  0  7  0  0
    2.6411    0.5367   -0.4774 H   0  0  0  0  0  0  0  0  0  8  0  0
    1.0785   -1.5620    1.1139 H   0  0  0  0  0  0  0  0  0  9  0  0
   -0.2540    0.5126    1.5468 H   0  0  0  0  0  0  0  0  0 10  0  0
   -0.7614   -0.2409    0.0324 H   0  0  0  0  0  0  0  0  0 11  0  0
   -1.5299    1.8457   -0.8558 H   0  0  0  0  0  0  0  0  0 12  0  0
   -0.3398    3.1546   -0.9632 H   0  0  0  0  0  0  0  0  0 13  0  0
  1  8  1  0
  1  7  1  0
  1  2  1  0
  2  9  1  0
  2  3  1  0
  3 11  1  0
  3  4  1  0
  3 10  1  0
  4  5  1  0
  5 13  1  0
  5  6  1  0
  5 12  1  0
M  RAD  1   6   2
M  END
>  <rmg_smiles>  (5) 
[CH2][CH]COC[O]

>  <rmg_adjacency_list>  (5) 
multiplicity 2
1  O u0 p2 c0 {3,S} {4,S}
2  O u1 p2 c0 {4,S}
3  C u0 p0 c0 {1,S} {5,S} {7,S} {8,S}
4  C u0 p0 c0 {1,S} {2,S} {9,S} {10,S}
5  C u0 p0 c0 {3,S} {6,S} {11,S}
6  C u0 p0 c0 {5,S} {12,S} {13,S}
7  H u0 p0 c0 {3,S}
8  H u0 p0 c0 {3,S}
9  H u0 p0 c0 {4,S}
10 H u0 p0 c0 {4,S}
11 H u0 p0 c0 {5,S}
12 H u0 p0 c0 {6,S}
13 H u0 p0 c0 {6,S}


>  <multiplicity>  (5) 
2

>  <reaction>  (5) 
rmg_rxn_13936

>  <type>  (5) 
r2

>  <role_mapnums>  (5) 
{}

>  <role_mapidx>  (5) 
{}

>  <ordered_mapped_smiles>  (5) 
[CH:1]([CH:2]([C:3]([O:4][C:5]([O:6])([H:12])[H:13])([H:10])[H:11])[H:9])([H:7])[H:8]

>  <level_of_theory>  (5) 
wb97xd/def2tzvp

>  <lot_method>  (5) 
wb97xd

>  <lot_basis>  (5) 
def2tzvp

>  <spin_multiplicity>  (5) 
2.0

>  <optical_isomers>  (5) 
2.0

>  <modes>  (5) 
IdealGasTranslation(mass=(87.0446, 'amu')),         NonlinearRotor(             inertia = ([43.2701, 281.035, 303.214

>  <frequency_value>  (5) 
unknown

>  <frequency_units>  (5) 
unknown

>  <frequency_list>  (5) 
unknown

>  <arkane_path>  (5) 
/home/calvin/Dropbox/PersonalFolders/Calvin/ZEUS_Converged/rmg_rxn_13936/output/Species/rmg_rxn_13936_r2_C=CCOCsbr-O-sbr/arkane/output.py

>  <path_exists>  (5) 
True

>  <E0_value>  (5) 
-805752.0639491953

>  <E0_units>  (5) 
kJ/mol

>  <thermo_class>  (5) 
NASA

>  <Cp0_value>  (5) 
33.257888

>  <Cp0_units>  (5) 
J/(mol*K)

>  <CpInf_value>  (5) 
307.635464

>  <CpInf_units>  (5) 
J/(mol*K)

>  <Tmin_value>  (5) 
10.0

>  <Tmin_units>  (5) 
K

>  <Tmax_value>  (5) 
3000.0

>  <Tmax_units>  (5) 
K

>  <polynomials>  (5) 
[{"name": "polynomial1", "class": "NASAPolynomial", "Tmin_value": 10.0, "Tmin_units": "K", "Tmax_value": 1110.8015768620794, "Tmax_units": "K", "coeffs": [3.9202118391312752, 0.027294825020104153, 1.6753512074739745e-05, -3.116163751948595e-08, 1.0945960395583141e-11, -96909597.71400224, 11.85312846623316]}, {"name": "polynomial2", "class": "NASAPolynomial", "Tmin_value": 1110.8015768620794, "Tmin_units": "K", "Tmax_value": 3000.0, "Tmax_units": "K", "coeffs": [7.537118238775617, 0.03302300665239599, -1.630485116508982e-05, 3.8770394226038425e-09, -3.6047132707891035e-13, -96911558.17461371, -11.184050222850306]}]

>  <H298_value>  (5) 
-192574.47087869825

>  <H298_units>  (5) 
kcal/mol

>  <S298_value>  (5) 
85.07506560459476

>  <S298_units>  (5) 
cal/(mol*K)

>  <Cp_T_value_list>  (5) 
[25.56297432218494, 31.406955305653604, 36.852585986429666, 41.76323905605712, 49.69412573192994, 55.15068728117495, 62.88680914722946, 66.79498056175008, 68.58447976792732]

>  <Cp_T_units>  (5) 
cal/(mol*K)

>  <T_list>  (5) 
[300.0, 400.0, 500.0, 600.0, 800.0, 1000.0, 1500.0, 2000.0, 2400.0]

>  <T_units>  (5) 
K

>  <yaml_path>  (5) 
/home/calvin/Dropbox/PersonalFolders/Calvin/ZEUS_Converged/rmg_rxn_13936/output/Species/rmg_rxn_13936_r2_C=CCOCsbr-O-sbr/rmg_rxn_13936_r2_C=CCOCsbr-O-sbr.yml

>  <frequencies_cm1>  (5) 
[41.43538942088, 126.51733753568001, 186.47985334991998, 206.13316533576, 313.49161382863997, 541.2214479958, 570.70141597456, 654.9249909243599, 769.1847596638399, 925.45674459108, 961.22000413764, 977.07587324152, 1016.9661909654, 1043.47962128592, 1068.38617704156, 1112.7606361793999, 1168.74716749336, 1212.37999221664, 1265.5167246228, 1314.14871465904, 1317.4311336419998, 1369.91550244276, 1416.02044188124, 1439.09351255644, 1490.4516957647197, 1724.9386434867597, 2794.08018891352, 2936.60446923012, 2938.6645648261197, 3002.2391149186797, 3127.0877750216, 3141.1238930156796, 3222.75861449984]

>  <ZPE_kJmol>  (5) 
271.5322690042694

>  <E_elec_kJmol>  (5) 
-806023.5962181996

>  <E0_minus_Eelec_plus_ZPE_kJmol>  (5) 
0.0

>  <rxn>  (5) 
rmg_rxn_13936

>  <species_type>  (5) 
r1

>  <species_folder>  (5) 
rmg_rxn_13936_r2_C=CCOCsbr-O-sbr

>  <frequencies_cm1_list>  (5) 
[41.43538942088, 126.51733753568001, 186.47985334991998, 206.13316533576, 313.49161382863997, 541.2214479958, 570.70141597456, 654.9249909243599, 769.1847596638399, 925.45674459108, 961.22000413764, 977.07587324152, 1016.9661909654, 1043.47962128592, 1068.38617704156, 1112.7606361793999, 1168.74716749336, 1212.37999221664, 1265.5167246228, 1314.14871465904, 1317.4311336419998, 1369.91550244276, 1416.02044188124, 1439.09351255644, 1490.4516957647197, 1724.9386434867597, 2794.08018891352, 2936.60446923012, 2938.6645648261197, 3002.2391149186797, 3127.0877750216, 3141.1238930156796, 3222.75861449984]

>  <E0_kJmol>  (5) 
-805752

>  <H298_kJmol>  (5) 
-805732

$$$$
