
     RDKit          3D

  7  6  0  0  0  0  0  0  0  0999 V2000
    0.3765   -0.7082   -0.8965 C   0  0  0  0  0  0  0  0  0  1  0  0
    0.1910   -0.1089    0.4269 N   0  0  0  0  0  0  0  0  0  2  0  0
   -0.5676    0.8211    0.4855 N   0  0  0  0  0  0  0  0  0  3  0  0
    1.4388   -0.6526   -1.1351 H   0  0  0  0  0  0  0  0  0  4  0  0
    0.1051   -1.7614   -0.8203 H   0  0  0  0  0  0  0  0  0  5  0  0
   -0.2210   -0.2063   -1.6595 H   0  0  0  0  0  0  0  0  0  6  0  0
   -0.5721    1.1193    1.4818 H   0  0  0  0  0  0  0  0  0  7  0  0
  1  5  1  0
  1  2  1  0
  1  4  1  0
  1  6  1  0
  2  3  1  0
  3  7  1  0
M  END
>  <rmg_smiles>  (1) 
C[N][NH]

>  <rmg_adjacency_list>  (1) 
1 N u0 p1 c0 {2,S} {3,S}
2 N u0 p1 c0 {1,S} {7,S}
3 C u0 p0 c0 {1,S} {4,S} {5,S} {6,S}
4 H u0 p0 c0 {3,S}
5 H u0 p0 c0 {3,S}
6 H u0 p0 c0 {3,S}
7 H u0 p0 c0 {2,S}


>  <multiplicity>  (1) 
1

>  <reaction>  (1) 
rmg_rxn_14108

>  <type>  (1) 
r1h

>  <role_mapnums>  (1) 
{"r1h_a": 3, "r1h_h": 7}

>  <role_mapidx>  (1) 
{"r1h_a": 2, "r1h_h": 6}

>  <ordered_mapped_smiles>  (1) 
[C:1]([NH:2][NH:3][H:7])([H:4])([H:5])[H:6]

>  <mol_properties>  (1) 
{"2": {"label": "donator", "atom_type": "N3s"}, "6": {"label": "d_hydrogen", "atom_type": "H0"}}

>  <level_of_theory>  (1) 
wb97xd/def2tzvp

>  <lot_method>  (1) 
wb97xd

>  <lot_basis>  (1) 
def2tzvp

>  <spin_multiplicity>  (1) 
1.0

>  <optical_isomers>  (1) 
1.0

>  <modes>  (1) 
IdealGasTranslation(mass=(44.0374, 'amu')),         NonlinearRotor(             inertia = ([8.23677, 45.0992, 50.2205

>  <frequency_value>  (1) 
unknown

>  <frequency_units>  (1) 
unknown

>  <frequency_list>  (1) 
unknown

>  <arkane_path>  (1) 
/home/calvin/Dropbox/PersonalFolders/Calvin/ZEUS_Converged/rmg_rxn_14108/output/Species/rmg_rxn_14108_r1_CN=N/arkane/output.py

>  <path_exists>  (1) 
True

>  <E0_value>  (1) 
-393587.49053709424

>  <E0_units>  (1) 
kJ/mol

>  <thermo_class>  (1) 
NASA

>  <Cp0_value>  (1) 
33.257888

>  <Cp0_units>  (1) 
J/(mol*K)

>  <CpInf_value>  (1) 
157.97496800000002

>  <CpInf_units>  (1) 
J/(mol*K)

>  <Tmin_value>  (1) 
10.0

>  <Tmin_units>  (1) 
K

>  <Tmax_value>  (1) 
3000.0

>  <Tmax_units>  (1) 
K

>  <polynomials>  (1) 
[{"name": "polynomial1", "class": "NASAPolynomial", "Tmin_value": 10.0, "Tmin_units": "K", "Tmax_value": 594.9639657079314, "Tmax_units": "K", "coeffs": [3.994177372758275, 0.00013386692778393056, 4.319937731174126e-05, -5.858249507934435e-08, 2.55997421131548e-11, -47337640.31429258, 6.866771830101672]}, {"name": "polynomial2", "class": "NASAPolynomial", "Tmin_value": 594.9639657079314, "Tmin_units": "K", "Tmax_value": 3000.0, "Tmax_units": "K", "coeffs": [0.7475738341828827, 0.021961835024589815, -1.183431232262963e-05, 3.0857275495096352e-09, -3.1372359596535523e-13, -47337254.00496767, 20.843833820516924]}]

>  <H298_value>  (1) 
-94066.73780029836

>  <H298_units>  (1) 
kcal/mol

>  <S298_value>  (1) 
61.82936265764643

>  <S298_units>  (1) 
cal/(mol*K)

>  <Cp_T_value_list>  (1) 
[13.012053200936506, 15.630766650793966, 18.159345702371915, 20.44871455029448, 24.232936593277145, 27.119606812306824, 31.575178011739702, 33.782982385342365, 34.85329802333024]

>  <Cp_T_units>  (1) 
cal/(mol*K)

>  <T_list>  (1) 
[300.0, 400.0, 500.0, 600.0, 800.0, 1000.0, 1500.0, 2000.0, 2400.0]

>  <T_units>  (1) 
K

>  <yaml_path>  (1) 
/home/calvin/Dropbox/PersonalFolders/Calvin/ZEUS_Converged/rmg_rxn_14108/output/Species/rmg_rxn_14108_r1_CN=N/rmg_rxn_14108_r1_CN=N.yml

>  <frequencies_cm1>  (1) 
[189.67986850904, 560.31853417072, 862.0401351608799, 951.2148065263999, 1139.87836120808, 1167.6141149155599, 1401.2770243992, 1457.2086198306001, 1457.84724946536, 1489.29117524564, 1682.1504579578398, 3004.62882581004, 3096.20694203756, 3100.6842164662, 3290.18554335692]

>  <ZPE_kJmol>  (1) 
148.63740153327285

>  <E_elec_kJmol>  (1) 
-393736.1279386275

>  <E0_minus_Eelec_plus_ZPE_kJmol>  (1) 
0.0

>  <rxn>  (1) 
rmg_rxn_14108

>  <species_type>  (1) 
r0

>  <species_folder>  (1) 
rmg_rxn_14108_r1_CN=N

>  <frequencies_cm1_list>  (1) 
[189.67986850904, 560.31853417072, 862.0401351608799, 951.2148065263999, 1139.87836120808, 1167.6141149155599, 1401.2770243992, 1457.2086198306001, 1457.84724946536, 1489.29117524564, 1682.1504579578398, 3004.62882581004, 3096.20694203756, 3100.6842164662, 3290.18554335692]

>  <E0_kJmol>  (1) 
-393587

>  <H298_kJmol>  (1) 
-393575

$$$$

     RDKit          3D

 10  9  0  0  0  0  0  0  0  0999 V2000
   -1.1939    1.3824   -1.5420 H   0  0  0  0  0  0  0  0  0  1  0  0
   -1.0290    1.4979   -0.4850 C   0  0  0  0  0  0  0  0  0  2  0  0
   -0.1607    0.6671   -0.1116 C   0  0  0  0  0  2  0  0  0  3  0  0
    0.7563   -0.2664    0.1322 C   0  0  0  0  0  0  0  0  0  4  0  0
    0.4347   -1.6848    0.4811 C   0  0  0  0  0  0  0  0  0  5  0  0
   -1.6442    2.2662   -0.0503 H   0  0  0  0  0  0  0  0  0  6  0  0
    1.8021    0.0195    0.0816 H   0  0  0  0  0  0  0  0  0  7  0  0
   -0.6412   -1.8514    0.5032 H   0  0  0  0  0  0  0  0  0  8  0  0
    0.8488   -1.9519    1.4573 H   0  0  0  0  0  0  0  0  0  9  0  0
    0.8750   -2.3668   -0.2517 H   0  0  0  0  0  0  0  0  0 10  0  0
  1  2  1  0
  2  6  1  0
  2  3  1  0
  3  4  1  0
  4  5  1  0
  4  7  1  0
  5  8  1  0
  5  9  1  0
  5 10  1  0
M  RAD  1   3   3
M  END
>  <rmg_smiles>  (2) 
[CH2][C][CH]C

>  <rmg_adjacency_list>  (2) 
1  C u0 p0 c0 {2,S} {5,S} {6,S} {7,S}
2  C u0 p0 c0 {1,S} {4,S} {8,S}
3  C u0 p0 c0 {4,S} {9,S} {10,S}
4  C u0 p1 c0 {2,S} {3,S}
5  H u0 p0 c0 {1,S}
6  H u0 p0 c0 {1,S}
7  H u0 p0 c0 {1,S}
8  H u0 p0 c0 {2,S}
9  H u0 p0 c0 {3,S}
10 H u0 p0 c0 {3,S}


>  <multiplicity>  (2) 
1

>  <reaction>  (2) 
rmg_rxn_14108

>  <type>  (2) 
r2h

>  <role_mapnums>  (2) 
{"r2h_a": 2, "r2h_h": 1}

>  <role_mapidx>  (2) 
{"r2h_a": 1, "r2h_h": 0}

>  <ordered_mapped_smiles>  (2) 
[H:1][CH:2]([C:3][CH:4]([C:5]([H:8])([H:9])[H:10])[H:7])[H:6]

>  <mol_properties>  (2) 
{"0": {"label": "a_hydrogen", "atom_type": "H0"}, "1": {"label": "acceptor", "atom_type": "Cs"}}

>  <level_of_theory>  (2) 
wb97xd/def2tzvp

>  <lot_method>  (2) 
wb97xd

>  <lot_basis>  (2) 
def2tzvp

>  <spin_multiplicity>  (2) 
1.0

>  <optical_isomers>  (2) 
1.0

>  <modes>  (2) 
IdealGasTranslation(mass=(54.047, 'amu')),         NonlinearRotor(             inertia = ([14.6121, 119.467, 127.49

>  <frequency_value>  (2) 
unknown

>  <frequency_units>  (2) 
unknown

>  <frequency_list>  (2) 
unknown

>  <arkane_path>  (2) 
/home/calvin/Dropbox/PersonalFolders/Calvin/ZEUS_Converged/rmg_rxn_14108/output/Species/rmg_rxn_14108_p2_C=C=CC/arkane/output.py

>  <path_exists>  (2) 
True

>  <E0_value>  (2) 
-409296.6502421279

>  <E0_units>  (2) 
kJ/mol

>  <thermo_class>  (2) 
NASA

>  <Cp0_value>  (2) 
33.257888

>  <Cp0_units>  (2) 
J/(mol*K)

>  <CpInf_value>  (2) 
232.805216

>  <CpInf_units>  (2) 
J/(mol*K)

>  <Tmin_value>  (2) 
10.0

>  <Tmin_units>  (2) 
K

>  <Tmax_value>  (2) 
3000.0

>  <Tmax_units>  (2) 
K

>  <polynomials>  (2) 
[{"name": "polynomial1", "class": "NASAPolynomial", "Tmin_value": 10.0, "Tmin_units": "K", "Tmax_value": 452.8802664009696, "Tmax_units": "K", "coeffs": [3.9021943352433452, 0.007937521032632688, 6.664442489196733e-05, -1.2131953588307993e-07, 6.938885885775227e-11, -49227014.555544384, 8.255511443201872]}, {"name": "polynomial2", "class": "NASAPolynomial", "Tmin_value": 452.8802664009696, "Tmin_units": "K", "Tmax_value": 3000.0, "Tmax_units": "K", "coeffs": [0.958037882717614, 0.033941191741253485, -1.948265019694705e-05, 5.463813645242153e-09, -5.979209978345261e-13, -49226747.88374059, 20.12723627389473]}]

>  <H298_value>  (2) 
-97820.47439749332

>  <H298_units>  (2) 
kcal/mol

>  <S298_value>  (2) 
69.30943774444917

>  <S298_units>  (2) 
cal/(mol*K)

>  <Cp_T_value_list>  (2) 
[19.013335795722274, 23.35407848830737, 27.231838984706652, 30.626214617830076, 36.15654523435027, 40.30546036176962, 46.594544625367064, 49.786664420046236, 51.450781523093035]

>  <Cp_T_units>  (2) 
cal/(mol*K)

>  <T_list>  (2) 
[300.0, 400.0, 500.0, 600.0, 800.0, 1000.0, 1500.0, 2000.0, 2400.0]

>  <T_units>  (2) 
K

>  <yaml_path>  (2) 
/home/calvin/Dropbox/PersonalFolders/Calvin/ZEUS_Converged/rmg_rxn_14108/output/Species/rmg_rxn_14108_p2_C=C=CC/rmg_rxn_14108_p2_C=C=CC.yml

>  <frequencies_cm1>  (2) 
[164.84884959192, 210.28769145436, 340.98015606459995, 540.2944049775999, 574.7186023867599, 878.6239047086799, 884.0282221555199, 895.09093550604, 1017.79709618912, 1055.91573170044, 1088.91159616304, 1146.5530709391198, 1353.77808694076, 1399.01778622892, 1463.354571692, 1470.3726306890399, 1494.8053644576, 2061.4346581373993, 3012.63573069316, 3072.0282867258397, 3106.42501619372, 3110.62074422424, 3124.134971334, 3189.66661224276]

>  <ZPE_kJmol>  (2) 
219.25357474583132

>  <E_elec_kJmol>  (2) 
-409515.9038168737

>  <E0_minus_Eelec_plus_ZPE_kJmol>  (2) 
0.0

>  <rxn>  (2) 
rmg_rxn_14108

>  <species_type>  (2) 
p1

>  <species_folder>  (2) 
rmg_rxn_14108_p2_C=C=CC

>  <frequencies_cm1_list>  (2) 
[164.84884959192, 210.28769145436, 340.98015606459995, 540.2944049775999, 574.7186023867599, 878.6239047086799, 884.0282221555199, 895.09093550604, 1017.79709618912, 1055.91573170044, 1088.91159616304, 1146.5530709391198, 1353.77808694076, 1399.01778622892, 1463.354571692, 1470.3726306890399, 1494.8053644576, 2061.4346581373993, 3012.63573069316, 3072.0282867258397, 3106.42501619372, 3110.62074422424, 3124.134971334, 3189.66661224276]

>  <E0_kJmol>  (2) 
-409297

>  <H298_kJmol>  (2) 
-409281

$$$$

     RDKit          3D

 16 14  0  0  0  0  0  0  0  0999 V2000
   -0.0228   -0.4895   -2.7721 C   0  0  0  0  0  0  0  0  0  1  0  0
   -0.2083    0.1098   -1.4486 N   0  0  0  0  0  0  0  0  0  2  0  0
   -0.9669    1.0398   -1.3900 N   0  0  0  0  0  0  0  0  0  3  0  0
    1.0395   -0.4338   -3.0106 H   0  0  0  0  0  0  0  0  0  4  0  0
   -0.2942   -1.5426   -2.6958 H   0  0  0  0  0  0  0  0  0  5  0  0
   -0.6203    0.0125   -3.5350 H   0  0  0  0  0  0  0  0  0  6  0  0
   -0.9720    1.3771   -0.2634 H   0  0  0  0  0  0  0  0  0  7  0  0
   -0.7452    1.5358    1.1904 C   0  0  0  0  0  0  0  0  0  8  0  0
    0.1231    0.7051    1.5637 C   0  0  0  0  0  0  0  0  0  9  0  0
    1.0400   -0.2285    1.8075 C   0  0  0  0  0  3  0  0  0 10  0  0
    0.7184   -1.6468    2.1565 C   0  0  0  0  0  0  0  0  0 11  0  0
   -1.3604    2.3041    1.6251 H   0  0  0  0  0  0  0  0  0 12  0  0
    2.0858    0.0575    1.7570 H   0  0  0  0  0  0  0  0  0 13  0  0
   -0.3574   -1.8135    2.1786 H   0  0  0  0  0  0  0  0  0 14  0  0
    1.1325   -1.9139    3.1326 H   0  0  0  0  0  0  0  0  0 15  0  0
    1.1588   -2.3288    1.4237 H   0  0  0  0  0  0  0  0  0 16  0  0
  1  5  1  0
  1  2  1  0
  1  4  1  0
  1  6  1  0
  2  3  1  0
  3  7  1  0
  8  9  1  0
  8 12  1  0
  9 10  1  0
 10 13  1  0
 10 11  1  0
 11 14  1  0
 11 16  1  0
 11 15  1  0
M  RAD  1  10   2
M  END
>  <rmg_smiles>  (3) 
[CH][C][CH]C.C[N][NH]

>  <rmg_adjacency_list>  (3) 
multiplicity 2
1  N u0 p1 c0 {2,S} {4,S}
2  N u0 p1 c0 {1,S} {15,S}
3  C u0 p0 c0 {5,S} {8,S} {9,S} {10,S}
4  C u0 p0 c0 {1,S} {11,S} {12,S} {13,S}
5  C u1 p0 c0 {3,S} {6,S} {14,S}
6  C u0 p1 c0 {5,S} {7,S}
7  C u0 p1 c0 {6,S} {16,S}
8  H u0 p0 c0 {3,S}
9  H u0 p0 c0 {3,S}
10 H u0 p0 c0 {3,S}
11 H u0 p0 c0 {4,S}
12 H u0 p0 c0 {4,S}
13 H u0 p0 c0 {4,S}
14 H u0 p0 c0 {5,S}
15 H u0 p0 c0 {2,S}
16 H u0 p0 c0 {7,S}


>  <multiplicity>  (3) 
2

>  <reaction>  (3) 
rmg_rxn_14108

>  <type>  (3) 
ts

>  <role_mapnums>  (3) 
{"*2": 7, "*1": 3, "*3": 8, "*0": 2, "*4": 9}

>  <role_mapidx>  (3) 
{"*2": 6, "*1": 2, "*3": 7, "*0": 1, "*4": 8}

>  <ordered_mapped_smiles>  (3) 
[C:1]([NH:2][NH:3][H:7])([H:4])([H:5])[H:6].[CH2:8]([CH2:9][C:10]([C:11]([H:14])([H:15])[H:16])[H:13])[H:12]

>  <mol_properties>  (3) 
{"1": {"label": "*0", "atom_type": "N3s"}, "2": {"label": "*1", "atom_type": "N3s"}, "6": {"label": "*2", "atom_type": "H0"}, "7": {"label": "*3", "atom_type": "C2s"}, "8": {"label": "*4", "atom_type": "C2s"}}

>  <level_of_theory>  (3) 
wb97xd/def2tzvp

>  <lot_method>  (3) 
wb97xd

>  <lot_basis>  (3) 
def2tzvp

>  <spin_multiplicity>  (3) 
2.0

>  <optical_isomers>  (3) 
2.0

>  <modes>  (3) 
IdealGasTranslation(mass=(97.0766, 'amu')),         NonlinearRotor(             inertia = ([140.372, 372.646, 485.046

>  <frequency_value>  (3) 
-1614.09

>  <frequency_units>  (3) 
cm^-1

>  <frequency_list>  (3) 
unknown

>  <arkane_path>  (3) 
/home/calvin/Dropbox/PersonalFolders/Calvin/ZEUS_Converged/rmg_rxn_14108/output/rxns/TS0/arkane/output.py

>  <path_exists>  (3) 
True

>  <E0_value>  (3) 
-801176.0

>  <E0_units>  (3) 
kJ/mol

>  <thermo_class>  (3) 
unknown

>  <Cp0_value>  (3) 
unknown

>  <Cp0_units>  (3) 
unknown

>  <CpInf_value>  (3) 
unknown

>  <CpInf_units>  (3) 
unknown

>  <Tmin_value>  (3) 
unknown

>  <Tmin_units>  (3) 
unknown

>  <Tmax_value>  (3) 
unknown

>  <Tmax_units>  (3) 
unknown

>  <polynomials>  (3) 
unknown

>  <H298_value>  (3) 
unknown

>  <H298_units>  (3) 
unknown

>  <S298_value>  (3) 
unknown

>  <S298_units>  (3) 
unknown

>  <Cp_T_value_list>  (3) 
unknown

>  <Cp_T_units>  (3) 
unknown

>  <T_list>  (3) 
unknown

>  <T_units>  (3) 
unknown

>  <yaml_path>  (3) 
unknown

>  <frequencies_cm1>  (3) 
unknown

>  <ZPE_kJmol>  (3) 
unknown

>  <E_elec_kJmol>  (3) 
unknown

>  <E0_minus_Eelec_plus_ZPE_kJmol>  (3) 
unknown

>  <rxn>  (3) 
unknown

>  <species_type>  (3) 
unknown

>  <species_folder>  (3) 
unknown

>  <frequencies_cm1_list>  (3) 
[]

>  <ts_imag_freq_cm1>  (3) 
-1633.6957

>  <ts_freq_out_path>  (3) 
/home/calvin/Dropbox/PersonalFolders/Calvin/ZEUS_Converged/rmg_rxn_14108/output/rxns/TS0/geometry/freq.out

>  <E0_kJmol>  (3) 
-801176

>  <H298_kJmol>  (3) 
unknown

$$$$

     RDKit          3D

  6  5  0  0  0  0  0  0  0  0999 V2000
   -0.4548   -0.0448   -0.0247 C   0  0  0  0  0  0  0  0  0  1  0  0
    0.9431    0.3695   -0.3569 N   0  0  0  0  0  0  0  0  0  2  0  0
    1.8630    0.0599    0.2831 N   0  0  0  0  0  2  0  0  0  3  0  0
   -0.4747   -0.6581    0.8759 H   0  0  0  0  0  0  0  0  0  4  0  0
   -0.8397   -0.5920   -0.8828 H   0  0  0  0  0  0  0  0  0  5  0  0
   -1.0368    0.8654    0.1054 H   0  0  0  0  0  0  0  0  0  6  0  0
  1  5  1  0
  1  2  1  0
  1  4  1  0
  1  6  1  0
  2  3  1  0
M  RAD  1   3   2
M  END
>  <rmg_smiles>  (4) 
C[N][N]

>  <rmg_adjacency_list>  (4) 
multiplicity 2
1 N u0 p1 c0 {2,S} {3,S}
2 N u1 p2 c0 {1,S}
3 C u0 p0 c0 {1,S} {4,S} {5,S} {6,S}
4 H u0 p0 c0 {3,S}
5 H u0 p0 c0 {3,S}
6 H u0 p0 c0 {3,S}


>  <multiplicity>  (4) 
2

>  <reaction>  (4) 
rmg_rxn_14108

>  <type>  (4) 
r1

>  <role_mapnums>  (4) 
{}

>  <role_mapidx>  (4) 
{}

>  <ordered_mapped_smiles>  (4) 
[C:1]([NH:2][NH:3])([H:4])([H:5])[H:6]

>  <level_of_theory>  (4) 
wb97xd/def2tzvp

>  <lot_method>  (4) 
wb97xd

>  <lot_basis>  (4) 
def2tzvp

>  <spin_multiplicity>  (4) 
2.0

>  <optical_isomers>  (4) 
1.0

>  <modes>  (4) 
IdealGasTranslation(mass=(43.0296, 'amu')),         NonlinearRotor(             inertia = ([6.79305, 44.7133, 48.3424

>  <frequency_value>  (4) 
unknown

>  <frequency_units>  (4) 
unknown

>  <frequency_list>  (4) 
unknown

>  <arkane_path>  (4) 
/home/calvin/Dropbox/PersonalFolders/Calvin/ZEUS_Converged/rmg_rxn_14108/output/Species/rmg_rxn_14108_p1_CN=sbr-N-sbr/arkane/output.py

>  <path_exists>  (4) 
True

>  <E0_value>  (4) 
-392010.2639174963

>  <E0_units>  (4) 
kJ/mol

>  <thermo_class>  (4) 
NASA

>  <Cp0_value>  (4) 
33.257888

>  <Cp0_units>  (4) 
J/(mol*K)

>  <CpInf_value>  (4) 
133.031552

>  <CpInf_units>  (4) 
J/(mol*K)

>  <Tmin_value>  (4) 
10.0

>  <Tmin_units>  (4) 
K

>  <Tmax_value>  (4) 
3000.0

>  <Tmax_units>  (4) 
K

>  <polynomials>  (4) 
[{"name": "polynomial1", "class": "NASAPolynomial", "Tmin_value": 10.0, "Tmin_units": "K", "Tmax_value": 1063.519705467384, "Tmax_units": "K", "coeffs": [3.9596866505904624, 0.0061647600691959875, 1.1818509085251943e-05, -1.4875027758981063e-08, 4.8562152567768906e-12, -47147945.61746397, 7.190225575377297]}, {"name": "polynomial2", "class": "NASAPolynomial", "Tmin_value": 1063.519705467384, "Tmin_units": "K", "Tmax_value": 3000.0, "Tmax_units": "K", "coeffs": [3.2987196602000943, 0.014062533402261424, -6.953479031963606e-06, 1.676847996632361e-09, -1.5933412896869065e-13, -47148111.08526487, 8.980821742007373]}]

>  <H298_value>  (4) 
-93689.66177658476

>  <H298_units>  (4) 
kcal/mol

>  <S298_value>  (4) 
63.56905319489228

>  <S298_units>  (4) 
cal/(mol*K)

>  <Cp_T_value_list>  (4) 
[12.937688217564592, 14.881930087463179, 16.773670143378197, 18.539773141428103, 21.518330618746038, 23.695735089723385, 27.025859178571608, 28.76542665064475, 29.591856279946313]

>  <Cp_T_units>  (4) 
cal/(mol*K)

>  <T_list>  (4) 
[300.0, 400.0, 500.0, 600.0, 800.0, 1000.0, 1500.0, 2000.0, 2400.0]

>  <T_units>  (4) 
K

>  <yaml_path>  (4) 
/home/calvin/Dropbox/PersonalFolders/Calvin/ZEUS_Converged/rmg_rxn_14108/output/Species/rmg_rxn_14108_p1_CN=sbr-N-sbr/rmg_rxn_14108_p1_CN=sbr-N-sbr.yml

>  <frequencies_cm1>  (4) 
[149.02044842932, 460.259691073, 785.4457809015998, 1042.73111988604, 1085.86952166628, 1380.48379285024, 1459.9622809439197, 1462.8532817636399, 1915.7858995001998, 3027.9834428833597, 3132.38222070332, 3137.0861056475196]

>  <ZPE_kJmol>  (4) 
113.88370726433536

>  <E_elec_kJmol>  (4) 
-392124.14762476063

>  <E0_minus_Eelec_plus_ZPE_kJmol>  (4) 
0.0

>  <rxn>  (4) 
rmg_rxn_14108

>  <species_type>  (4) 
p0

>  <species_folder>  (4) 
rmg_rxn_14108_p1_CN=sbr-N-sbr

>  <frequencies_cm1_list>  (4) 
[149.02044842932, 460.259691073, 785.4457809015998, 1042.73111988604, 1085.86952166628, 1380.48379285024, 1459.9622809439197, 1462.8532817636399, 1915.7858995001998, 3027.9834428833597, 3132.38222070332, 3137.0861056475196]

>  <E0_kJmol>  (4) 
-392010

>  <H298_kJmol>  (4) 
-391998

$$$$

     RDKit          3D

  9  8  0  0  0  0  0  0  0  0999 V2000
    2.3032   -0.0159    0.1474 C   0  0  0  0  0  0  0  0  0  1  0  0
    1.1288    0.2882    0.0537 C   0  0  0  0  0  0  0  0  0  2  0  0
   -0.1975    0.6198   -0.0514 C   0  0  0  0  0  3  0  0  0  3  0  0
   -1.2977   -0.3866   -0.0637 C   0  0  0  0  0  0  0  0  0  4  0  0
    3.3305   -0.2768    0.2290 H   0  0  0  0  0  0  0  0  0  5  0  0
   -0.4545    1.6699   -0.1294 H   0  0  0  0  0  0  0  0  0  6  0  0
   -1.9941   -0.2122    0.7624 H   0  0  0  0  0  0  0  0  0  7  0  0
   -0.9106   -1.4008    0.0205 H   0  0  0  0  0  0  0  0  0  8  0  0
   -1.8810   -0.3144   -0.9870 H   0  0  0  0  0  0  0  0  0  9  0  0
  1  5  1  0
  1  2  1  0
  2  3  1  0
  3  4  1  0
  3  6  1  0
  4  8  1  0
  4  9  1  0
  4  7  1  0
M  RAD  1   3   2
M  END
>  <rmg_smiles>  (5) 
[CH]C[CH]C

>  <rmg_adjacency_list>  (5) 
multiplicity 2
1 C u0 p0 c0 {2,S} {5,S} {6,S} {7,S}
2 C u1 p0 c0 {1,S} {3,S} {8,S}
3 C u0 p1 c0 {2,S} {4,S}
4 C u0 p1 c0 {3,S} {9,S}
5 H u0 p0 c0 {1,S}
6 H u0 p0 c0 {1,S}
7 H u0 p0 c0 {1,S}
8 H u0 p0 c0 {2,S}
9 H u0 p0 c0 {4,S}


>  <multiplicity>  (5) 
2

>  <reaction>  (5) 
rmg_rxn_14108

>  <type>  (5) 
r2

>  <role_mapnums>  (5) 
{}

>  <role_mapidx>  (5) 
{}

>  <ordered_mapped_smiles>  (5) 
[CH2:1]([CH2:2][C:3]([C:4]([H:7])([H:8])[H:9])[H:6])[H:5]

>  <level_of_theory>  (5) 
wb97xd/def2tzvp

>  <lot_method>  (5) 
wb97xd

>  <lot_basis>  (5) 
def2tzvp

>  <spin_multiplicity>  (5) 
2.0

>  <optical_isomers>  (5) 
1.0

>  <modes>  (5) 
IdealGasTranslation(mass=(53.0391, 'amu')),         NonlinearRotor(             inertia = ([13.0163, 113.224, 123.133

>  <frequency_value>  (5) 
unknown

>  <frequency_units>  (5) 
unknown

>  <frequency_list>  (5) 
unknown

>  <arkane_path>  (5) 
/home/calvin/Dropbox/PersonalFolders/Calvin/ZEUS_Converged/rmg_rxn_14108/output/Species/rmg_rxn_14108_r2_CtCsbr-CH-sbrC/arkane/output.py

>  <path_exists>  (5) 
True

>  <E0_value>  (5) 
-407611.0178676695

>  <E0_units>  (5) 
kJ/mol

>  <thermo_class>  (5) 
NASA

>  <Cp0_value>  (5) 
33.257888

>  <Cp0_units>  (5) 
J/(mol*K)

>  <CpInf_value>  (5) 
207.8618

>  <CpInf_units>  (5) 
J/(mol*K)

>  <Tmin_value>  (5) 
10.0

>  <Tmin_units>  (5) 
K

>  <Tmax_value>  (5) 
3000.0

>  <Tmax_units>  (5) 
K

>  <polynomials>  (5) 
[{"name": "polynomial1", "class": "NASAPolynomial", "Tmin_value": 10.0, "Tmin_units": "K", "Tmax_value": 225.11887521318957, "Tmax_units": "K", "coeffs": [3.926630915296947, 0.006749895207816258, 0.00012836532533525932, -4.255246557274593e-07, 4.774973939090027e-10, -49024283.36301313, 9.039132667777825]}, {"name": "polynomial2", "class": "NASAPolynomial", "Tmin_value": 225.11887521318957, "Tmin_units": "K", "Tmax_value": 3000.0, "Tmax_units": "K", "coeffs": [2.6986748332678068, 0.028568074177661083, -1.700823692128483e-05, 4.972064259878094e-09, -5.660420030452739e-13, -49024228.07421419, 13.132307964760544]}]

>  <H298_value>  (5) 
-97417.4250763192

>  <H298_units>  (5) 
kcal/mol

>  <S298_value>  (5) 
72.15097842486317

>  <S298_units>  (5) 
cal/(mol*K)

>  <Cp_T_value_list>  (5) 
[19.60978665647869, 23.26682584091865, 26.463197946296326, 29.246037785772845, 33.74616181148779, 37.09028399063582, 42.12357583735745, 44.755303495765276, 46.19958894045869]

>  <Cp_T_units>  (5) 
cal/(mol*K)

>  <T_list>  (5) 
[300.0, 400.0, 500.0, 600.0, 800.0, 1000.0, 1500.0, 2000.0, 2400.0]

>  <T_units>  (5) 
K

>  <yaml_path>  (5) 
/home/calvin/Dropbox/PersonalFolders/Calvin/ZEUS_Converged/rmg_rxn_14108/output/Species/rmg_rxn_14108_r2_CtCsbr-CH-sbrC/rmg_rxn_14108_r2_CtCsbr-CH-sbrC.yml

>  <frequencies_cm1>  (5) 
[83.48880752056, 211.55808373855996, 392.1460636839199, 478.7318815838, 554.46786267808, 595.8689171723599, 660.0408949877599, 865.1234115695598, 998.98842339764, 1092.3794237496397, 1143.5041294570399, 1380.42198998236, 1394.47184194708, 1461.2464071987597, 1480.32289241772, 2005.2901861610799, 2994.3489487859997, 3043.5921005157197, 3109.5494945143196, 3150.5453968747197, 3427.4428459330793]

>  <ZPE_kJmol>  (5) 
182.57130571804632

>  <E_elec_kJmol>  (5) 
-407793.5891733875

>  <E0_minus_Eelec_plus_ZPE_kJmol>  (5) 
0.0

>  <rxn>  (5) 
rmg_rxn_14108

>  <species_type>  (5) 
r1

>  <species_folder>  (5) 
rmg_rxn_14108_r2_CtCsbr-CH-sbrC

>  <frequencies_cm1_list>  (5) 
[83.48880752056, 211.55808373855996, 392.1460636839199, 478.7318815838, 554.46786267808, 595.8689171723599, 660.0408949877599, 865.1234115695598, 998.98842339764, 1092.3794237496397, 1143.5041294570399, 1380.42198998236, 1394.47184194708, 1461.2464071987597, 1480.32289241772, 2005.2901861610799, 2994.3489487859997, 3043.5921005157197, 3109.5494945143196, 3150.5453968747197, 3427.4428459330793]

>  <E0_kJmol>  (5) 
-407611

>  <H298_kJmol>  (5) 
-407595

$$$$
