
     RDKit          3D

 10  9  0  0  0  0  0  0  0  0999 V2000
    0.3009   -0.5739   -1.8505 C   0  0  0  0  0  0  0  0  0  1  0  0
    0.1976   -0.2732   -0.5756 C   0  0  0  0  0  2  0  0  0  2  0  0
    0.1815   -0.0633    0.6868 C   0  0  0  0  0  0  0  0  0  3  0  0
   -0.6171    0.8251    1.5735 C   0  0  0  0  0  0  0  0  0  4  0  0
    0.9671   -0.0231   -2.5039 H   0  0  0  0  0  0  0  0  0  5  0  0
   -0.3059   -1.3561   -2.2918 H   0  0  0  0  0  0  0  0  0  6  0  0
    0.9154   -0.6547    1.2344 H   0  0  0  0  0  0  0  0  0  7  0  0
   -1.1626    0.2360    2.3136 H   0  0  0  0  0  0  0  0  0  8  0  0
   -1.3355    1.4137    1.0019 H   0  0  0  0  0  0  0  0  0  9  0  0
    0.0361    1.5096    2.1187 H   0  0  0  0  0  0  0  0  0 10  0  0
  1  5  1  0
  1  6  1  0
  1  2  1  0
  2  3  1  0
  3  4  1  0
  3  7  1  0
  4  8  1  0
  4  9  1  0
  4 10  1  0
M  RAD  1   2   3
M  END
>  <rmg_smiles>  (1) 
[CH2][C][CH]C

>  <rmg_adjacency_list>  (1) 
1  C u0 p0 c0 {2,S} {5,S} {6,S} {7,S}
2  C u0 p0 c0 {1,S} {4,S} {8,S}
3  C u0 p0 c0 {4,S} {9,S} {10,S}
4  C u0 p1 c0 {2,S} {3,S}
5  H u0 p0 c0 {1,S}
6  H u0 p0 c0 {1,S}
7  H u0 p0 c0 {1,S}
8  H u0 p0 c0 {2,S}
9  H u0 p0 c0 {3,S}
10 H u0 p0 c0 {3,S}


>  <multiplicity>  (1) 
1

>  <reaction>  (1) 
rmg_rxn_13899

>  <type>  (1) 
r1h

>  <role_mapnums>  (1) 
{"r1h_a": 3, "r1h_h": 7}

>  <role_mapidx>  (1) 
{"r1h_a": 2, "r1h_h": 6}

>  <ordered_mapped_smiles>  (1) 
[CH:1]([C:2][CH:3]([C:4]([H:8])([H:9])[H:10])[H:7])([H:5])[H:6]

>  <mol_properties>  (1) 
{"2": {"label": "donator", "atom_type": "Cs"}, "6": {"label": "d_hydrogen", "atom_type": "H0"}}

>  <level_of_theory>  (1) 
wb97xd/def2tzvp

>  <lot_method>  (1) 
wb97xd

>  <lot_basis>  (1) 
def2tzvp

>  <spin_multiplicity>  (1) 
1.0

>  <optical_isomers>  (1) 
1.0

>  <modes>  (1) 
IdealGasTranslation(mass=(54.047, 'amu')),         NonlinearRotor(             inertia = ([14.6121, 119.467, 127.49

>  <frequency_value>  (1) 
unknown

>  <frequency_units>  (1) 
unknown

>  <frequency_list>  (1) 
unknown

>  <arkane_path>  (1) 
/home/calvin/Dropbox/PersonalFolders/Calvin/ZEUS_Converged/rmg_rxn_13899/output/Species/rmg_rxn_13899_r2_C=C=CC/arkane/output.py

>  <path_exists>  (1) 
True

>  <E0_value>  (1) 
-409296.6502421279

>  <E0_units>  (1) 
kJ/mol

>  <thermo_class>  (1) 
NASA

>  <Cp0_value>  (1) 
33.257888

>  <Cp0_units>  (1) 
J/(mol*K)

>  <CpInf_value>  (1) 
232.805216

>  <CpInf_units>  (1) 
J/(mol*K)

>  <Tmin_value>  (1) 
10.0

>  <Tmin_units>  (1) 
K

>  <Tmax_value>  (1) 
3000.0

>  <Tmax_units>  (1) 
K

>  <polynomials>  (1) 
[{"name": "polynomial1", "class": "NASAPolynomial", "Tmin_value": 10.0, "Tmin_units": "K", "Tmax_value": 452.8802664009696, "Tmax_units": "K", "coeffs": [3.9021943352433452, 0.007937521032632688, 6.664442489196733e-05, -1.2131953588307993e-07, 6.938885885775227e-11, -49227014.555544384, 8.255511443201872]}, {"name": "polynomial2", "class": "NASAPolynomial", "Tmin_value": 452.8802664009696, "Tmin_units": "K", "Tmax_value": 3000.0, "Tmax_units": "K", "coeffs": [0.958037882717614, 0.033941191741253485, -1.948265019694705e-05, 5.463813645242153e-09, -5.979209978345261e-13, -49226747.88374059, 20.12723627389473]}]

>  <H298_value>  (1) 
-97820.47439749332

>  <H298_units>  (1) 
kcal/mol

>  <S298_value>  (1) 
69.30943774444917

>  <S298_units>  (1) 
cal/(mol*K)

>  <Cp_T_value_list>  (1) 
[19.013335795722274, 23.35407848830737, 27.231838984706652, 30.626214617830076, 36.15654523435027, 40.30546036176962, 46.594544625367064, 49.786664420046236, 51.450781523093035]

>  <Cp_T_units>  (1) 
cal/(mol*K)

>  <T_list>  (1) 
[300.0, 400.0, 500.0, 600.0, 800.0, 1000.0, 1500.0, 2000.0, 2400.0]

>  <T_units>  (1) 
K

>  <yaml_path>  (1) 
/home/calvin/Dropbox/PersonalFolders/Calvin/ZEUS_Converged/rmg_rxn_13899/output/Species/rmg_rxn_13899_r2_C=C=CC/rmg_rxn_13899_r2_C=C=CC.yml

>  <frequencies_cm1>  (1) 
[164.84884959192, 210.28769145436, 340.98015606459995, 540.2944049775999, 574.7186023867599, 878.6239047086799, 884.0282221555199, 895.09093550604, 1017.79709618912, 1055.91573170044, 1088.91159616304, 1146.5530709391198, 1353.77808694076, 1399.01778622892, 1463.354571692, 1470.3726306890399, 1494.8053644576, 2061.4346581373993, 3012.63573069316, 3072.0282867258397, 3106.42501619372, 3110.62074422424, 3124.134971334, 3189.66661224276]

>  <ZPE_kJmol>  (1) 
219.25357474583132

>  <E_elec_kJmol>  (1) 
-409515.9038168737

>  <E0_minus_Eelec_plus_ZPE_kJmol>  (1) 
0.0

>  <rxn>  (1) 
rmg_rxn_13899

>  <species_type>  (1) 
r1

>  <species_folder>  (1) 
rmg_rxn_13899_r2_C=C=CC

>  <frequencies_cm1_list>  (1) 
[164.84884959192, 210.28769145436, 340.98015606459995, 540.2944049775999, 574.7186023867599, 878.6239047086799, 884.0282221555199, 895.09093550604, 1017.79709618912, 1055.91573170044, 1088.91159616304, 1146.5530709391198, 1353.77808694076, 1399.01778622892, 1463.354571692, 1470.3726306890399, 1494.8053644576, 2061.4346581373993, 3012.63573069316, 3072.0282867258397, 3106.42501619372, 3110.62074422424, 3124.134971334, 3189.66661224276]

>  <E0_kJmol>  (1) 
-409297

>  <H298_kJmol>  (1) 
-409281

$$$$

     RDKit          3D

  9  8  0  0  0  0  0  0  0  0999 V2000
   -0.4386    0.5086    1.1000 C   0  0  0  0  0  0  0  0  0  1  0  0
    0.5273    0.1858   -0.0029 C   0  0  0  0  0  0  0  0  0  2  0  0
   -0.0109   -0.6884   -0.9691 O   0  0  0  0  0  0  0  0  0  3  0  0
   -0.0733    1.2066    1.8509 H   0  0  0  0  0  0  0  0  0  4  0  0
   -0.9640   -0.3483    1.5153 H   0  0  0  0  0  0  0  0  0  5  0  0
    0.8883    1.1143   -0.4652 H   0  0  0  0  0  0  0  0  0  6  0  0
    1.4042   -0.3235    0.4104 H   0  0  0  0  0  0  0  0  0  7  0  0
   -0.6901   -0.2151   -1.4594 H   0  0  0  0  0  0  0  0  0  8  0  0
   -1.2284    1.0680    0.6031 H   0  0  0  0  0  0  0  0  0  9  0  0
  1  5  1  0
  1  9  1  0
  1  4  1  0
  1  2  1  0
  2  7  1  0
  2  3  1  0
  2  6  1  0
  3  8  1  0
M  END
>  <rmg_smiles>  (2) 
CCO

>  <rmg_adjacency_list>  (2) 
1 O u0 p2 c0 {2,S} {9,S}
2 C u0 p0 c0 {1,S} {3,S} {4,S} {5,S}
3 C u0 p0 c0 {2,S} {6,S} {7,S} {8,S}
4 H u0 p0 c0 {2,S}
5 H u0 p0 c0 {2,S}
6 H u0 p0 c0 {3,S}
7 H u0 p0 c0 {3,S}
8 H u0 p0 c0 {3,S}
9 H u0 p0 c0 {1,S}


>  <multiplicity>  (2) 
1

>  <reaction>  (2) 
rmg_rxn_13899

>  <type>  (2) 
r2h

>  <role_mapnums>  (2) 
{"r2h_a": 1, "r2h_h": 9}

>  <role_mapidx>  (2) 
{"r2h_a": 0, "r2h_h": 8}

>  <ordered_mapped_smiles>  (2) 
[C:1]([C:2]([O:3][H:8])([H:6])[H:7])([H:4])([H:5])[H:9]

>  <mol_properties>  (2) 
{"0": {"label": "acceptor", "atom_type": "Cs"}, "8": {"label": "a_hydrogen", "atom_type": "H0"}}

>  <level_of_theory>  (2) 
wb97xd/def2tzvp

>  <lot_method>  (2) 
wb97xd

>  <lot_basis>  (2) 
def2tzvp

>  <spin_multiplicity>  (2) 
1.0

>  <optical_isomers>  (2) 
2.0

>  <modes>  (2) 
IdealGasTranslation(mass=(46.0419, 'amu')),         NonlinearRotor(             inertia = ([14.5784, 54.5856, 61.8154

>  <frequency_value>  (2) 
unknown

>  <frequency_units>  (2) 
unknown

>  <frequency_list>  (2) 
unknown

>  <arkane_path>  (2) 
/home/calvin/Dropbox/PersonalFolders/Calvin/ZEUS_Converged/rmg_rxn_13899/output/Species/rmg_rxn_13899_p1_CCO/arkane/output.py

>  <path_exists>  (2) 
True

>  <E0_value>  (2) 
-406893.3272689957

>  <E0_units>  (2) 
kJ/mol

>  <thermo_class>  (2) 
NASA

>  <Cp0_value>  (2) 
33.257888

>  <Cp0_units>  (2) 
J/(mol*K)

>  <CpInf_value>  (2) 
207.8618

>  <CpInf_units>  (2) 
J/(mol*K)

>  <Tmin_value>  (2) 
10.0

>  <Tmin_units>  (2) 
K

>  <Tmax_value>  (2) 
3000.0

>  <Tmax_units>  (2) 
K

>  <polynomials>  (2) 
[{"name": "polynomial1", "class": "NASAPolynomial", "Tmin_value": 10.0, "Tmin_units": "K", "Tmax_value": 551.3187644177538, "Tmax_units": "K", "coeffs": [3.9713940621371306, 0.0023957688295192063, 5.809032256050214e-05, -8.561591068586481e-08, 4.0358423418077714e-11, -48937962.79914544, 7.862489799764338]}, {"name": "polynomial2", "class": "NASAPolynomial", "Tmin_value": 551.3187644177538, "Tmin_units": "K", "Tmax_value": 3000.0, "Tmax_units": "K", "coeffs": [0.19952339087951126, 0.02976190624661279, -1.6365982652687387e-05, 4.418171321701085e-09, -4.682193007149357e-13, -48937546.89804419, 23.81365918801819]}]

>  <H298_value>  (2) 
-97246.55405342489

>  <H298_units>  (2) 
kcal/mol

>  <S298_value>  (2) 
65.78744884704368

>  <S298_units>  (2) 
cal/(mol*K)

>  <Cp_T_value_list>  (2) 
[15.765557190227591, 19.430727429073556, 22.877261252275424, 25.95004969734455, 31.01063681206419, 34.86633096617534, 40.85674665583515, 43.94362801037231, 45.51188954534454]

>  <Cp_T_units>  (2) 
cal/(mol*K)

>  <T_list>  (2) 
[300.0, 400.0, 500.0, 600.0, 800.0, 1000.0, 1500.0, 2000.0, 2400.0]

>  <T_units>  (2) 
K

>  <yaml_path>  (2) 
/home/calvin/Dropbox/PersonalFolders/Calvin/ZEUS_Converged/rmg_rxn_13899/output/Species/rmg_rxn_13899_p1_CCO/rmg_rxn_13899_p1_CCO.yml

>  <frequencies_cm1>  (2) 
[261.26819047004, 286.81337586044, 426.24064579772, 804.5016651646, 891.82911747904, 1059.86424825944, 1088.932197119, 1140.44145400432, 1273.9562495810799, 1364.90260315916, 1391.5053042888399, 1416.6247365893998, 1475.59153953224, 1480.8997191846001, 1506.73331795844, 2975.9454281283997, 3008.37133280944, 3061.6454049219997, 3084.9794210393593, 3098.7957955031998, 3839.53063498628]

>  <ZPE_kJmol>  (2) 
208.9839162086533

>  <E_elec_kJmol>  (2) 
-407102.3111852043

>  <E0_minus_Eelec_plus_ZPE_kJmol>  (2) 
0.0

>  <rxn>  (2) 
rmg_rxn_13899

>  <species_type>  (2) 
p0

>  <species_folder>  (2) 
rmg_rxn_13899_p1_CCO

>  <frequencies_cm1_list>  (2) 
[261.26819047004, 286.81337586044, 426.24064579772, 804.5016651646, 891.82911747904, 1059.86424825944, 1088.932197119, 1140.44145400432, 1273.9562495810799, 1364.90260315916, 1391.5053042888399, 1416.6247365893998, 1475.59153953224, 1480.8997191846001, 1506.73331795844, 2975.9454281283997, 3008.37133280944, 3061.6454049219997, 3084.9794210393593, 3098.7957955031998, 3839.53063498628]

>  <E0_kJmol>  (2) 
-406893

>  <H298_kJmol>  (2) 
-406880

$$$$

     RDKit          3D

 18 16  0  0  0  0  0  0  0  0999 V2000
    0.9375   -0.5664    1.5346 C   0  0  0  0  0  3  0  0  0  1  0  0
    1.9034   -0.8892    0.4317 C   0  0  0  0  0  0  0  0  0  2  0  0
    1.3652   -1.7635   -0.5345 O   0  0  0  0  0  0  0  0  0  3  0  0
    1.3028    0.1315    2.2855 H   0  0  0  0  0  0  0  0  0  4  0  0
    0.4121   -1.4234    1.9499 H   0  0  0  0  0  0  0  0  0  5  0  0
    2.2644    0.0392   -0.0305 H   0  0  0  0  0  0  0  0  0  6  0  0
    2.7803   -1.3986    0.8450 H   0  0  0  0  0  0  0  0  0  7  0  0
    0.6860   -1.2901   -1.0248 H   0  0  0  0  0  0  0  0  0  8  0  0
   -0.8219    0.3385   -2.2865 C   0  0  0  0  0  0  0  0  0  9  0  0
   -0.9251    0.6391   -1.0116 C   0  0  0  0  0  0  0  0  0 10  0  0
   -0.9413    0.8491    0.2508 C   0  0  0  0  0  0  0  0  0 11  0  0
   -1.7399    1.7375    1.1375 C   0  0  0  0  0  0  0  0  0 12  0  0
   -0.1557    0.8892   -2.9399 H   0  0  0  0  0  0  0  0  0 13  0  0
   -1.4287   -0.4437   -2.7278 H   0  0  0  0  0  0  0  0  0 14  0  0
   -0.0718    0.1484    0.8997 H   0  0  0  0  0  0  0  0  0 15  0  0
   -2.2853    1.1483    1.8776 H   0  0  0  0  0  0  0  0  0 16  0  0
   -2.4583    2.3261    0.5659 H   0  0  0  0  0  0  0  0  0 17  0  0
   -1.0867    2.4220    1.6827 H   0  0  0  0  0  0  0  0  0 18  0  0
  1  5  1  0
  1  4  1  0
  1  2  1  0
  2  7  1  0
  2  3  1  0
  2  6  1  0
  3  8  1  0
  9 10  1  0
  9 14  1  0
  9 13  1  0
 10 11  1  0
 11 15  1  0
 11 12  1  0
 12 17  1  0
 12 18  1  0
 12 16  1  0
M  RAD  1   1   2
M  END
>  <rmg_smiles>  (3) 
[CH2]CO.[CH2]C[CH]C

>  <rmg_adjacency_list>  (3) 
multiplicity 2
1  O u0 p2 c0 {2,S} {18,S}
2  C u0 p0 c0 {1,S} {5,S} {8,S} {9,S}
3  C u0 p0 c0 {4,S} {10,S} {11,S} {12,S}
4  C u0 p0 c0 {3,S} {7,S} {13,S}
5  C u1 p0 c0 {2,S} {14,S} {15,S}
6  C u0 p0 c0 {7,S} {16,S} {17,S}
7  C u0 p1 c0 {4,S} {6,S}
8  H u0 p0 c0 {2,S}
9  H u0 p0 c0 {2,S}
10 H u0 p0 c0 {3,S}
11 H u0 p0 c0 {3,S}
12 H u0 p0 c0 {3,S}
13 H u0 p0 c0 {4,S}
14 H u0 p0 c0 {5,S}
15 H u0 p0 c0 {5,S}
16 H u0 p0 c0 {6,S}
17 H u0 p0 c0 {6,S}
18 H u0 p0 c0 {1,S}


>  <multiplicity>  (3) 
2

>  <reaction>  (3) 
rmg_rxn_13899

>  <type>  (3) 
ts

>  <role_mapnums>  (3) 
{"*2": 15, "*1": 11, "*3": 1, "*0": 10, "*4": 2}

>  <role_mapidx>  (3) 
{"*2": 14, "*1": 10, "*3": 0, "*0": 9, "*4": 1}

>  <ordered_mapped_smiles>  (3) 
[C:1]([C:2]([O:3][H:8])([H:6])[H:7])([H:4])[H:5].[CH:9]([CH2:10][CH:11]([C:12]([H:16])([H:17])[H:18])[H:15])([H:13])[H:14]

>  <mol_properties>  (3) 
{"0": {"label": "*3", "atom_type": "Cs"}, "1": {"label": "*4", "atom_type": "Cs"}, "9": {"label": "*0", "atom_type": "C2s"}, "10": {"label": "*1", "atom_type": "Cs"}, "14": {"label": "*2", "atom_type": "H0"}}

>  <level_of_theory>  (3) 
wb97xd/def2tzvp

>  <lot_method>  (3) 
wb97xd

>  <lot_basis>  (3) 
def2tzvp

>  <spin_multiplicity>  (3) 
2.0

>  <optical_isomers>  (3) 
2.0

>  <modes>  (3) 
IdealGasTranslation(mass=(99.081, 'amu')),         NonlinearRotor(             inertia = ([177.257, 308.86, 460.839

>  <frequency_value>  (3) 
-1642.73

>  <frequency_units>  (3) 
cm^-1

>  <frequency_list>  (3) 
unknown

>  <arkane_path>  (3) 
/home/calvin/Dropbox/PersonalFolders/Calvin/ZEUS_Converged/rmg_rxn_13899/output/rxns/TS0/arkane/output.py

>  <path_exists>  (3) 
True

>  <E0_value>  (3) 
-814425.0

>  <E0_units>  (3) 
kJ/mol

>  <thermo_class>  (3) 
unknown

>  <Cp0_value>  (3) 
unknown

>  <Cp0_units>  (3) 
unknown

>  <CpInf_value>  (3) 
unknown

>  <CpInf_units>  (3) 
unknown

>  <Tmin_value>  (3) 
unknown

>  <Tmin_units>  (3) 
unknown

>  <Tmax_value>  (3) 
unknown

>  <Tmax_units>  (3) 
unknown

>  <polynomials>  (3) 
unknown

>  <H298_value>  (3) 
unknown

>  <H298_units>  (3) 
unknown

>  <S298_value>  (3) 
unknown

>  <S298_units>  (3) 
unknown

>  <Cp_T_value_list>  (3) 
unknown

>  <Cp_T_units>  (3) 
unknown

>  <T_list>  (3) 
unknown

>  <T_units>  (3) 
unknown

>  <yaml_path>  (3) 
unknown

>  <frequencies_cm1>  (3) 
unknown

>  <ZPE_kJmol>  (3) 
unknown

>  <E_elec_kJmol>  (3) 
unknown

>  <E0_minus_Eelec_plus_ZPE_kJmol>  (3) 
unknown

>  <rxn>  (3) 
unknown

>  <species_type>  (3) 
unknown

>  <species_folder>  (3) 
unknown

>  <frequencies_cm1_list>  (3) 
[]

>  <ts_imag_freq_cm1>  (3) 
-1662.6864

>  <ts_freq_out_path>  (3) 
/home/calvin/Dropbox/PersonalFolders/Calvin/ZEUS_Converged/rmg_rxn_13899/output/rxns/TS0/geometry/freq.out

>  <E0_kJmol>  (3) 
-814425

>  <H298_kJmol>  (3) 
unknown

$$$$

     RDKit          3D

  9  8  0  0  0  0  0  0  0  0999 V2000
    2.2285    0.1429   -0.1875 C   0  0  0  0  0  0  0  0  0  1  0  0
    0.8689    0.0588   -0.0734 C   0  0  0  0  0  0  0  0  0  2  0  0
   -0.3436   -0.0148    0.0282 C   0  0  0  0  0  3  0  0  0  3  0  0
   -1.7876   -0.1130    0.1500 C   0  0  0  0  0  0  0  0  0  4  0  0
    2.8646    0.0330    0.6803 H   0  0  0  0  0  0  0  0  0  5  0  0
    2.6934    0.3211   -1.1477 H   0  0  0  0  0  0  0  0  0  6  0  0
   -2.1322    0.3380    1.0826 H   0  0  0  0  0  0  0  0  0  7  0  0
   -2.1068   -1.1583    0.1470 H   0  0  0  0  0  0  0  0  0  8  0  0
   -2.2854    0.3923   -0.6795 H   0  0  0  0  0  0  0  0  0  9  0  0
  1  5  1  0
  1  6  1  0
  1  2  1  0
  2  3  1  0
  3  4  1  0
  4  8  1  0
  4  9  1  0
  4  7  1  0
M  RAD  1   3   2
M  END
>  <rmg_smiles>  (4) 
[CH2]C[C]C

>  <rmg_adjacency_list>  (4) 
multiplicity 2
1 C u0 p0 c0 {3,S} {5,S} {6,S} {7,S}
2 C u0 p0 c0 {4,S} {8,S} {9,S}
3 C u1 p1 c0 {1,S} {4,S}
4 C u0 p1 c0 {2,S} {3,S}
5 H u0 p0 c0 {1,S}
6 H u0 p0 c0 {1,S}
7 H u0 p0 c0 {1,S}
8 H u0 p0 c0 {2,S}
9 H u0 p0 c0 {2,S}


>  <multiplicity>  (4) 
2

>  <reaction>  (4) 
rmg_rxn_13899

>  <type>  (4) 
r1

>  <role_mapnums>  (4) 
{}

>  <role_mapidx>  (4) 
{}

>  <ordered_mapped_smiles>  (4) 
[CH:1]([CH2:2][CH:3][C:4]([H:7])([H:8])[H:9])([H:5])[H:6]

>  <level_of_theory>  (4) 
wb97xd/def2tzvp

>  <lot_method>  (4) 
wb97xd

>  <lot_basis>  (4) 
def2tzvp

>  <spin_multiplicity>  (4) 
2.0

>  <optical_isomers>  (4) 
2.0

>  <modes>  (4) 
IdealGasTranslation(mass=(53.0391, 'amu')),         NonlinearRotor(             inertia = ([4.88746, 139.242, 140.992

>  <frequency_value>  (4) 
unknown

>  <frequency_units>  (4) 
unknown

>  <frequency_list>  (4) 
unknown

>  <arkane_path>  (4) 
/home/calvin/Dropbox/PersonalFolders/Calvin/ZEUS_Converged/rmg_rxn_13899/output/Species/rmg_rxn_13899_p2_sbr-CH2-sbrCtCC/arkane/output.py

>  <path_exists>  (4) 
True

>  <E0_value>  (4) 
-407625.4064849041

>  <E0_units>  (4) 
kJ/mol

>  <thermo_class>  (4) 
NASA

>  <Cp0_value>  (4) 
33.257888

>  <Cp0_units>  (4) 
J/(mol*K)

>  <CpInf_value>  (4) 
207.8618

>  <CpInf_units>  (4) 
J/(mol*K)

>  <Tmin_value>  (4) 
10.0

>  <Tmin_units>  (4) 
K

>  <Tmax_value>  (4) 
3000.0

>  <Tmax_units>  (4) 
K

>  <polynomials>  (4) 
[{"name": "polynomial1", "class": "NASAPolynomial", "Tmin_value": 10.0, "Tmin_units": "K", "Tmax_value": 502.0268159976515, "Tmax_units": "K", "coeffs": [3.687270830426517, 0.029053628934412008, -4.470123428186127e-05, 7.503439468745092e-08, -5.158529094876398e-11, -49026010.75493378, 10.46372665339021]}, {"name": "polynomial2", "class": "NASAPolynomial", "Tmin_value": 502.0268159976515, "Tmin_units": "K", "Tmax_value": 3000.0, "Tmax_units": "K", "coeffs": [2.898462070883104, 0.02729908073702909, -1.54375900595206e-05, 4.274702323061024e-09, -4.631616133105543e-13, -49025830.24365362, 14.734719774038638]}]

>  <H298_value>  (4) 
-97420.5979578768

>  <H298_units>  (4) 
kcal/mol

>  <S298_value>  (4) 
76.91244568160063

>  <S298_units>  (4) 
cal/(mol*K)

>  <Cp_T_value_list>  (4) 
[19.848886680568814, 23.127392893703846, 26.219193390336713, 28.980799697634083, 33.49755626219656, 36.90539253248215, 42.11858387906473, 44.77831245492002, 46.14816382733488]

>  <Cp_T_units>  (4) 
cal/(mol*K)

>  <T_list>  (4) 
[300.0, 400.0, 500.0, 600.0, 800.0, 1000.0, 1500.0, 2000.0, 2400.0]

>  <T_units>  (4) 
K

>  <yaml_path>  (4) 
/home/calvin/Dropbox/PersonalFolders/Calvin/ZEUS_Converged/rmg_rxn_13899/output/Species/rmg_rxn_13899_p2_sbr-CH2-sbrCtCC/rmg_rxn_13899_p2_sbr-CH2-sbrCtCC.yml

>  <frequencies_cm1>  (4) 
[24.18552229704, 186.74766577739996, 206.32544092471997, 398.28514856, 428.84323323399997, 670.45124473288, 768.8002084859199, 1023.53102893132, 1025.11730254024, 1044.32426048028, 1244.297739984, 1401.51050190008, 1455.78715386936, 1460.16829050352, 1460.7931861676398, 2137.33544687936, 3007.2588811876003, 3071.0325738544398, 3085.0961597897995, 3128.557309880079, 3222.30539346872]

>  <ZPE_kJmol>  (4) 
182.1360065892337

>  <E_elec_kJmol>  (4) 
-407807.5424914933

>  <E0_minus_Eelec_plus_ZPE_kJmol>  (4) 
0.0

>  <rxn>  (4) 
rmg_rxn_13899

>  <species_type>  (4) 
p1

>  <species_folder>  (4) 
rmg_rxn_13899_p2_sbr-CH2-sbrCtCC

>  <frequencies_cm1_list>  (4) 
[24.18552229704, 186.74766577739996, 206.32544092471997, 398.28514856, 428.84323323399997, 670.45124473288, 768.8002084859199, 1023.53102893132, 1025.11730254024, 1044.32426048028, 1244.297739984, 1401.51050190008, 1455.78715386936, 1460.16829050352, 1460.7931861676398, 2137.33544687936, 3007.2588811876003, 3071.0325738544398, 3085.0961597897995, 3128.557309880079, 3222.30539346872]

>  <E0_kJmol>  (4) 
-407625

>  <H298_kJmol>  (4) 
-407608

$$$$

     RDKit          3D

  8  7  0  0  0  0  0  0  0  0999 V2000
    0.9383    0.2996   -0.2216 C   0  0  0  0  0  3  0  0  0  1  0  0
   -0.2599   -0.3612    0.3424 C   0  0  0  0  0  0  0  0  0  2  0  0
   -1.4623    0.3337    0.0690 O   0  0  0  0  0  0  0  0  0  3  0  0
    1.8278   -0.2698   -0.4548 H   0  0  0  0  0  0  0  0  0  4  0  0
    0.9841    1.3806   -0.2544 H   0  0  0  0  0  0  0  0  0  5  0  0
   -0.3172   -1.4027   -0.0032 H   0  0  0  0  0  0  0  0  0  6  0  0
   -0.1994   -0.4050    1.4381 H   0  0  0  0  0  0  0  0  0  7  0  0
   -1.5169    0.4672   -0.8790 H   0  0  0  0  0  0  0  0  0  8  0  0
  1  5  1  0
  1  4  1  0
  1  2  1  0
  2  7  1  0
  2  3  1  0
  2  6  1  0
  3  8  1  0
M  RAD  1   1   2
M  END
>  <rmg_smiles>  (5) 
[CH2]CO

>  <rmg_adjacency_list>  (5) 
multiplicity 2
1 O u0 p2 c0 {2,S} {8,S}
2 C u0 p0 c0 {1,S} {3,S} {4,S} {5,S}
3 C u1 p0 c0 {2,S} {6,S} {7,S}
4 H u0 p0 c0 {2,S}
5 H u0 p0 c0 {2,S}
6 H u0 p0 c0 {3,S}
7 H u0 p0 c0 {3,S}
8 H u0 p0 c0 {1,S}


>  <multiplicity>  (5) 
2

>  <reaction>  (5) 
rmg_rxn_13899

>  <type>  (5) 
r2

>  <role_mapnums>  (5) 
{}

>  <role_mapidx>  (5) 
{}

>  <ordered_mapped_smiles>  (5) 
[C:1]([C:2]([O:3][H:8])([H:6])[H:7])([H:4])[H:5]

>  <level_of_theory>  (5) 
wb97xd/def2tzvp

>  <lot_method>  (5) 
wb97xd

>  <lot_basis>  (5) 
def2tzvp

>  <spin_multiplicity>  (5) 
2.0

>  <optical_isomers>  (5) 
2.0

>  <modes>  (5) 
IdealGasTranslation(mass=(45.034, 'amu')),         NonlinearRotor(             inertia = ([12.9684, 50.7519, 58.6402

>  <frequency_value>  (5) 
unknown

>  <frequency_units>  (5) 
unknown

>  <frequency_list>  (5) 
unknown

>  <arkane_path>  (5) 
/home/calvin/Dropbox/PersonalFolders/Calvin/ZEUS_Converged/rmg_rxn_13899/output/Species/rmg_rxn_13899_r1_sbr-CH2-sbrCO/arkane/output.py

>  <path_exists>  (5) 
True

>  <E0_value>  (5) 
-405160.2801959205

>  <E0_units>  (5) 
kJ/mol

>  <thermo_class>  (5) 
NASA

>  <Cp0_value>  (5) 
33.257888

>  <Cp0_units>  (5) 
J/(mol*K)

>  <CpInf_value>  (5) 
182.918384

>  <CpInf_units>  (5) 
J/(mol*K)

>  <Tmin_value>  (5) 
10.0

>  <Tmin_units>  (5) 
K

>  <Tmax_value>  (5) 
3000.0

>  <Tmax_units>  (5) 
K

>  <polynomials>  (5) 
[{"name": "polynomial1", "class": "NASAPolynomial", "Tmin_value": 10.0, "Tmin_units": "K", "Tmax_value": 432.37106492057706, "Tmax_units": "K", "coeffs": [3.9682870721440966, 0.0021271080526700996, 8.113780199813727e-05, -1.697245262154038e-07, 1.1543298301949729e-10, -48729525.72806512, 8.402193619581457]}, {"name": "polynomial2", "class": "NASAPolynomial", "Tmin_value": 432.37106492057706, "Tmin_units": "K", "Tmax_value": 3000.0, "Tmax_units": "K", "coeffs": [2.0627788986688302, 0.02471769343071533, -1.444925513196767e-05, 4.203084264219392e-09, -4.807204096358159e-13, -48729407.33297884, 15.461084819761618]}]

>  <H298_value>  (5) 
-96832.22748875976

>  <H298_units>  (5) 
kcal/mol

>  <S298_value>  (5) 
67.51904077744345

>  <S298_units>  (5) 
cal/(mol*K)

>  <Cp_T_value_list>  (5) 
[16.416842738203048, 19.661209086374544, 22.464678618034952, 24.914060877408705, 28.902897971412052, 31.901780630158964, 36.52536682715, 39.01739427756058, 40.36378269391036]

>  <Cp_T_units>  (5) 
cal/(mol*K)

>  <T_list>  (5) 
[300.0, 400.0, 500.0, 600.0, 800.0, 1000.0, 1500.0, 2000.0, 2400.0]

>  <T_units>  (5) 
K

>  <yaml_path>  (5) 
/home/calvin/Dropbox/PersonalFolders/Calvin/ZEUS_Converged/rmg_rxn_13899/output/Species/rmg_rxn_13899_r1_sbr-CH2-sbrCO/rmg_rxn_13899_r1_sbr-CH2-sbrCO.yml

>  <frequencies_cm1>  (5) 
[207.47222747316, 325.43330130012004, 428.45868205608, 525.37244587724, 830.8022189401999, 950.9675950548799, 1100.2764568676398, 1120.35552194332, 1173.6707959678001, 1354.9592084158, 1391.16882200816, 1441.7098339633599, 1471.91083540072, 2956.1410424655196, 2981.25360778076, 3124.12123736336, 3233.9449335861195, 3835.0464935723203]

>  <ZPE_kJmol>  (5) 
170.1871728318145

>  <E_elec_kJmol>  (5) 
-405330.4673687523

>  <E0_minus_Eelec_plus_ZPE_kJmol>  (5) 
0.0

>  <rxn>  (5) 
rmg_rxn_13899

>  <species_type>  (5) 
r0

>  <species_folder>  (5) 
rmg_rxn_13899_r1_sbr-CH2-sbrCO

>  <frequencies_cm1_list>  (5) 
[207.47222747316, 325.43330130012004, 428.45868205608, 525.37244587724, 830.8022189401999, 950.9675950548799, 1100.2764568676398, 1120.35552194332, 1173.6707959678001, 1354.9592084158, 1391.16882200816, 1441.7098339633599, 1471.91083540072, 2956.1410424655196, 2981.25360778076, 3124.12123736336, 3233.9449335861195, 3835.0464935723203]

>  <E0_kJmol>  (5) 
-405160

>  <H298_kJmol>  (5) 
-405146

$$$$
