
     RDKit          3D

 14 13  0  0  0  0  0  0  0  0999 V2000
   -1.0554   -0.2815   -1.6159 C   0  0  0  0  0  0  0  0  0  1  0  0
   -0.1032   -0.6023   -0.4713 C   0  0  0  0  0  0  0  0  0  2  0  0
    0.0905    0.5502    0.4842 C   0  0  0  0  0  0  0  0  0  3  0  0
    1.0536    0.3110    1.6187 C   0  0  0  0  0  0  0  0  0  4  0  0
   -0.6894    0.5624   -2.2047 H   0  0  0  0  0  0  0  0  0  5  0  0
   -2.0445   -0.0146   -1.2369 H   0  0  0  0  0  0  0  0  0  6  0  0
   -1.1727   -1.1334   -2.2872 H   0  0  0  0  0  0  0  0  0  7  0  0
   -0.4765   -1.4731    0.0827 H   0  0  0  0  0  0  0  0  0  8  0  0
    0.8715   -0.9016   -0.8723 H   0  0  0  0  0  0  0  0  0  9  0  0
   -0.8563    0.9849    0.8124 H   0  0  0  0  0  0  0  0  0 10  0  0
    0.5317    1.3541   -0.1091 H   0  0  0  0  0  0  0  0  0 11  0  0
    2.0326    0.0036    1.2414 H   0  0  0  0  0  0  0  0  0 12  0  0
    0.6967   -0.4827    2.2834 H   0  0  0  0  0  0  0  0  0 13  0  0
    1.1933    1.2100    2.2212 H   0  0  0  0  0  0  0  0  0 14  0  0
  1  5  1  0
  1  7  1  0
  1  6  1  0
  1  2  1  0
  2  9  1  0
  2  8  1  0
  2  3  1  0
  3 11  1  0
  3  4  1  0
  3 10  1  0
  4 14  1  0
  4 13  1  0
  4 12  1  0
M  END
>  <rmg_smiles>  (1) 
CCCC

>  <rmg_adjacency_list>  (1) 
1  C u0 p0 c0 {2,S} {3,S} {5,S} {6,S}
2  C u0 p0 c0 {1,S} {4,S} {7,S} {8,S}
3  C u0 p0 c0 {1,S} {9,S} {10,S} {11,S}
4  C u0 p0 c0 {2,S} {12,S} {13,S} {14,S}
5  H u0 p0 c0 {1,S}
6  H u0 p0 c0 {1,S}
7  H u0 p0 c0 {2,S}
8  H u0 p0 c0 {2,S}
9  H u0 p0 c0 {3,S}
10 H u0 p0 c0 {3,S}
11 H u0 p0 c0 {3,S}
12 H u0 p0 c0 {4,S}
13 H u0 p0 c0 {4,S}
14 H u0 p0 c0 {4,S}


>  <multiplicity>  (1) 
1

>  <reaction>  (1) 
rmg_rxn_159

>  <type>  (1) 
r1h

>  <role_mapnums>  (1) 
{"r1h_a": 3, "r1h_h": 11}

>  <role_mapidx>  (1) 
{"r1h_a": 2, "r1h_h": 10}

>  <ordered_mapped_smiles>  (1) 
[C:1]([C:2]([C:3]([C:4]([H:12])([H:13])[H:14])([H:10])[H:11])([H:8])[H:9])([H:5])([H:6])[H:7]

>  <mol_properties>  (1) 
{"2": {"label": "donator", "atom_type": "Cs"}, "10": {"label": "d_hydrogen", "atom_type": "H0"}}

>  <level_of_theory>  (1) 
wb97xd/def2tzvp

>  <lot_method>  (1) 
wb97xd

>  <lot_basis>  (1) 
def2tzvp

>  <spin_multiplicity>  (1) 
1.0

>  <optical_isomers>  (1) 
1.0

>  <modes>  (1) 
IdealGasTranslation(mass=(58.0782, 'amu')),         NonlinearRotor(             inertia = ([21.4183, 138.436, 147.416

>  <frequency_value>  (1) 
unknown

>  <frequency_units>  (1) 
unknown

>  <frequency_list>  (1) 
unknown

>  <arkane_path>  (1) 
/home/calvin/Dropbox/PersonalFolders/Calvin/ATLAS_Converged/rmg_rxn_159/output/Species/rmg_rxn_159_r1_CCCC/arkane/output.py

>  <path_exists>  (1) 
True

>  <E0_value>  (1) 
-415711.4770347972

>  <E0_units>  (1) 
kJ/mol

>  <thermo_class>  (1) 
NASA

>  <Cp0_value>  (1) 
33.257888

>  <Cp0_units>  (1) 
J/(mol*K)

>  <CpInf_value>  (1) 
332.57888

>  <CpInf_units>  (1) 
J/(mol*K)

>  <Tmin_value>  (1) 
10.0

>  <Tmin_units>  (1) 
K

>  <Tmax_value>  (1) 
3000.0

>  <Tmax_units>  (1) 
K

>  <polynomials>  (1) 
[{"name": "polynomial1", "class": "NASAPolynomial", "Tmin_value": 10.0, "Tmin_units": "K", "Tmax_value": 1025.0239672813746, "Tmax_units": "K", "coeffs": [3.915013592071844, 0.015190476507378274, 4.499566831623061e-05, -5.4452087887537436e-08, 1.803189229500368e-11, -49998546.31449076, 7.728184054699678]}, {"name": "polynomial2", "class": "NASAPolynomial", "Tmin_value": 1025.0239672813746, "Tmin_units": "K", "Tmax_value": 3000.0, "Tmax_units": "K", "coeffs": [0.8557434606866323, 0.04413202068529884, -2.2238982520549216e-05, 5.4598853249734095e-09, -5.274578153178241e-13, -49998812.39100051, 18.205832942846666]}]

>  <H298_value>  (1) 
-99353.185245995

>  <H298_units>  (1) 
kcal/mol

>  <S298_value>  (1) 
71.76251802442486

>  <S298_units>  (1) 
cal/(mol*K)

>  <Cp_T_value_list>  (1) 
[22.251980571284225, 28.1531399049666, 33.94079391323614, 39.35269474865459, 48.430242634303475, 55.007789274879656, 65.12656285712895, 70.35428852741721, 72.83851882766015]

>  <Cp_T_units>  (1) 
cal/(mol*K)

>  <T_list>  (1) 
[300.0, 400.0, 500.0, 600.0, 800.0, 1000.0, 1500.0, 2000.0, 2400.0]

>  <T_units>  (1) 
K

>  <yaml_path>  (1) 
/home/calvin/Dropbox/PersonalFolders/Calvin/ATLAS_Converged/rmg_rxn_159/output/Species/rmg_rxn_159_r1_CCCC/rmg_rxn_159_r1_CCCC.yml

>  <frequencies_cm1>  (1) 
[117.85806904715999, 224.50921805207997, 259.37290252171994, 260.8081024536, 427.68957970024, 733.9639919575599, 810.5171443049198, 844.8383369342799, 959.6886664112799, 978.69648177704, 1024.40313606696, 1072.73297874912, 1166.6664709414, 1201.7086970293599, 1282.4438434365998, 1315.46030885516, 1324.99168447932, 1392.23320473276, 1403.41265683372, 1404.42210367576, 1477.30828586224, 1478.9082934418, 1485.02677736192, 1486.84652847172, 1491.0285225316, 1497.33241505536, 2994.3077468740794, 3001.82022881416, 3007.36875295272, 3008.254594059, 3019.68125763148, 3041.7654824206, 3075.78452769588, 3079.10128160544, 3084.83521434764, 3085.5356468502796]

>  <ZPE_kJmol>  (1) 
344.05401570070524

>  <E_elec_kJmol>  (1) 
-416055.5310504979

>  <E0_minus_Eelec_plus_ZPE_kJmol>  (1) 
0.0

>  <rxn>  (1) 
rmg_rxn_159

>  <species_type>  (1) 
r0

>  <species_folder>  (1) 
rmg_rxn_159_r1_CCCC

>  <frequencies_cm1_list>  (1) 
[117.85806904715999, 224.50921805207997, 259.37290252171994, 260.8081024536, 427.68957970024, 733.9639919575599, 810.5171443049198, 844.8383369342799, 959.6886664112799, 978.69648177704, 1024.40313606696, 1072.73297874912, 1166.6664709414, 1201.7086970293599, 1282.4438434365998, 1315.46030885516, 1324.99168447932, 1392.23320473276, 1403.41265683372, 1404.42210367576, 1477.30828586224, 1478.9082934418, 1485.02677736192, 1486.84652847172, 1491.0285225316, 1497.33241505536, 2994.3077468740794, 3001.82022881416, 3007.36875295272, 3008.254594059, 3019.68125763148, 3041.7654824206, 3075.78452769588, 3079.10128160544, 3084.83521434764, 3085.5356468502796]

>  <E0_kJmol>  (1) 
-415711

>  <H298_kJmol>  (1) 
-415694

$$$$

     RDKit          3D

 18 17  0  0  0  0  0  0  0  0999 V2000
   -2.7774   -0.7826    2.2464 H   0  0  0  0  0  0  0  0  0  1  0  0
   -2.2367   -0.0506    1.6510 C   0  0  0  0  0  0  0  0  0  2  0  0
   -1.2487   -0.8467    0.8584 C   0  0  0  0  0  0  0  0  0  3  0  0
   -0.4455    0.0151    0.0819 O   0  0  0  0  0  0  0  0  0  4  0  0
    0.5066   -0.6701   -0.6934 C   0  0  0  0  0  0  0  0  0  5  0  0
    1.3464    0.3327   -1.4577 C   0  0  0  0  0  0  0  0  0  6  0  0
    2.1560    1.2499   -0.5508 C   0  0  0  0  0  0  0  0  0  7  0  0
   -1.7925    0.6071    2.3946 H   0  0  0  0  0  0  0  0  0  8  0  0
   -3.0033    0.4441    1.0594 H   0  0  0  0  0  0  0  0  0  9  0  0
   -1.7704   -1.5577    0.2002 H   0  0  0  0  0  0  0  0  0 10  0  0
   -0.6099   -1.4392    1.5309 H   0  0  0  0  0  0  0  0  0 11  0  0
    1.1497   -1.2833   -0.0420 H   0  0  0  0  0  0  0  0  0 12  0  0
    0.0008   -1.3543   -1.3906 H   0  0  0  0  0  0  0  0  0 13  0  0
    0.6850    0.9245   -2.0958 H   0  0  0  0  0  0  0  0  0 14  0  0
    2.0133   -0.2239   -2.1221 H   0  0  0  0  0  0  0  0  0 15  0  0
    2.8397    0.6727    0.0767 H   0  0  0  0  0  0  0  0  0 16  0  0
    1.4995    1.8207    0.1058 H   0  0  0  0  0  0  0  0  0 17  0  0
    2.7512    1.9537   -1.1346 H   0  0  0  0  0  0  0  0  0 18  0  0
  1  2  1  0
  2  9  1  0
  2  8  1  0
  2  3  1  0
  3 11  1  0
  3  4  1  0
  3 10  1  0
  4  5  1  0
  5 13  1  0
  5 12  1  0
  5  6  1  0
  6 15  1  0
  6 14  1  0
  6  7  1  0
  7 18  1  0
  7 17  1  0
  7 16  1  0
M  END
>  <rmg_smiles>  (2) 
CCCOCC

>  <rmg_adjacency_list>  (2) 
1  O u0 p2 c0 {3,S} {4,S}
2  C u0 p0 c0 {3,S} {5,S} {7,S} {8,S}
3  C u0 p0 c0 {1,S} {2,S} {11,S} {12,S}
4  C u0 p0 c0 {1,S} {6,S} {9,S} {10,S}
5  C u0 p0 c0 {2,S} {16,S} {17,S} {18,S}
6  C u0 p0 c0 {4,S} {13,S} {14,S} {15,S}
7  H u0 p0 c0 {2,S}
8  H u0 p0 c0 {2,S}
9  H u0 p0 c0 {4,S}
10 H u0 p0 c0 {4,S}
11 H u0 p0 c0 {3,S}
12 H u0 p0 c0 {3,S}
13 H u0 p0 c0 {6,S}
14 H u0 p0 c0 {6,S}
15 H u0 p0 c0 {6,S}
16 H u0 p0 c0 {5,S}
17 H u0 p0 c0 {5,S}
18 H u0 p0 c0 {5,S}


>  <multiplicity>  (2) 
1

>  <reaction>  (2) 
rmg_rxn_159

>  <type>  (2) 
r2h

>  <role_mapnums>  (2) 
{"r2h_a": 2, "r2h_h": 1}

>  <role_mapidx>  (2) 
{"r2h_a": 1, "r2h_h": 0}

>  <ordered_mapped_smiles>  (2) 
[H:1][C:2]([C:3]([O:4][C:5]([C:6]([C:7]([H:16])([H:17])[H:18])([H:14])[H:15])([H:12])[H:13])([H:10])[H:11])([H:8])[H:9]

>  <mol_properties>  (2) 
{"0": {"label": "a_hydrogen", "atom_type": "H0"}, "1": {"label": "acceptor", "atom_type": "Cs"}}

>  <level_of_theory>  (2) 
wb97xd/def2tzvp

>  <lot_method>  (2) 
wb97xd

>  <lot_basis>  (2) 
def2tzvp

>  <spin_multiplicity>  (2) 
1.0

>  <optical_isomers>  (2) 
2.0

>  <modes>  (2) 
IdealGasTranslation(mass=(88.0888, 'amu')),         NonlinearRotor(             inertia = ([59.5652, 317.445, 349.634

>  <frequency_value>  (2) 
unknown

>  <frequency_units>  (2) 
unknown

>  <frequency_list>  (2) 
unknown

>  <arkane_path>  (2) 
/home/calvin/Dropbox/PersonalFolders/Calvin/ATLAS_Converged/rmg_rxn_159/output/Species/rmg_rxn_159_p2_CCCOCC/arkane/output.py

>  <path_exists>  (2) 
True

>  <E0_value>  (2) 
-716327.3605709573

>  <E0_units>  (2) 
kJ/mol

>  <thermo_class>  (2) 
NASA

>  <Cp0_value>  (2) 
33.257888

>  <Cp0_units>  (2) 
J/(mol*K)

>  <CpInf_value>  (2) 
432.352544

>  <CpInf_units>  (2) 
J/(mol*K)

>  <Tmin_value>  (2) 
10.0

>  <Tmin_units>  (2) 
K

>  <Tmax_value>  (2) 
3000.0

>  <Tmax_units>  (2) 
K

>  <polynomials>  (2) 
[{"name": "polynomial1", "class": "NASAPolynomial", "Tmin_value": 10.0, "Tmin_units": "K", "Tmax_value": 424.14701041358796, "Tmax_units": "K", "coeffs": [3.4707042336928127, 0.05746545203879795, -0.00016719847115372115, 4.780470157694204e-07, -4.3347206706639054e-10, -86154279.58985142, 11.635447004604476]}, {"name": "polynomial2", "class": "NASAPolynomial", "Tmin_value": 424.14701041358796, "Tmin_units": "K", "Tmax_value": 3000.0, "Tmax_units": "K", "coeffs": [-2.8535624465972114, 0.06921008708460846, -3.934323609424939e-05, 1.0841890934368647e-08, -1.163418506360095e-12, -86153312.26572455, 41.80111524234505]}]

>  <H298_value>  (2) 
-171200.6815246165

>  <H298_units>  (2) 
kcal/mol

>  <S298_value>  (2) 
88.37399878129293

>  <S298_units>  (2) 
cal/(mol*K)

>  <Cp_T_value_list>  (2) 
[29.924593767526826, 38.16083070533892, 46.09960348181722, 53.05840207682852, 64.40406715451496, 72.91410593462665, 85.72980278110597, 92.03567805993791, 95.21197800865355]

>  <Cp_T_units>  (2) 
cal/(mol*K)

>  <T_list>  (2) 
[300.0, 400.0, 500.0, 600.0, 800.0, 1000.0, 1500.0, 2000.0, 2400.0]

>  <T_units>  (2) 
K

>  <yaml_path>  (2) 
/home/calvin/Dropbox/PersonalFolders/Calvin/ATLAS_Converged/rmg_rxn_159/output/Species/rmg_rxn_159_p2_CCCOCC/rmg_rxn_159_p2_CCCOCC.yml

>  <frequencies_cm1>  (2) 
[76.60808822992, 85.88538539723999, 152.39213822143998, 171.44115549912, 250.05440344247998, 256.05614861216003, 329.51915756551995, 440.0707542322, 493.7774464199199, 767.98990421816, 823.02879155796, 891.3896304185598, 900.4815189822399, 929.41899512072, 1002.9850088538799, 1082.00340893112, 1102.9065122452, 1152.52734816752, 1174.9617892079598, 1182.44680320676, 1190.2339645596398, 1270.1176047871998, 1295.23017010244, 1305.6473868328799, 1368.30176089256, 1380.4425909383199, 1399.7456866728398, 1405.4521514737598, 1443.92787022172, 1468.7794900948002, 1470.37949767436, 1482.5752636026798, 1487.2448136202797, 1494.6336898246, 1500.58049911172, 1519.49904366832, 2928.8997117010795, 2942.5512785172396, 2962.4655359452395, 2968.54281795344, 3015.14904732028, 3021.7276192568397, 3024.0692612509597, 3058.7338031463196, 3085.2403664815197, 3101.8035350733594, 3104.27564978856, 3105.2988306012394]

>  <ZPE_kJmol>  (2) 
431.0594598774012

>  <E_elec_kJmol>  (2) 
-716758.4200308347

>  <E0_minus_Eelec_plus_ZPE_kJmol>  (2) 
0.0

>  <rxn>  (2) 
rmg_rxn_159

>  <species_type>  (2) 
p1

>  <species_folder>  (2) 
rmg_rxn_159_p2_CCCOCC

>  <frequencies_cm1_list>  (2) 
[76.60808822992, 85.88538539723999, 152.39213822143998, 171.44115549912, 250.05440344247998, 256.05614861216003, 329.51915756551995, 440.0707542322, 493.7774464199199, 767.98990421816, 823.02879155796, 891.3896304185598, 900.4815189822399, 929.41899512072, 1002.9850088538799, 1082.00340893112, 1102.9065122452, 1152.52734816752, 1174.9617892079598, 1182.44680320676, 1190.2339645596398, 1270.1176047871998, 1295.23017010244, 1305.6473868328799, 1368.30176089256, 1380.4425909383199, 1399.7456866728398, 1405.4521514737598, 1443.92787022172, 1468.7794900948002, 1470.37949767436, 1482.5752636026798, 1487.2448136202797, 1494.6336898246, 1500.58049911172, 1519.49904366832, 2928.8997117010795, 2942.5512785172396, 2962.4655359452395, 2968.54281795344, 3015.14904732028, 3021.7276192568397, 3024.0692612509597, 3058.7338031463196, 3085.2403664815197, 3101.8035350733594, 3104.27564978856, 3105.2988306012394]

>  <E0_kJmol>  (2) 
-716327

>  <H298_kJmol>  (2) 
-716304

$$$$

     RDKit          3D

 31 29  0  0  0  0  0  0  0  0999 V2000
   -3.2201   -1.7892   -0.0385 C   0  0  0  0  0  0  0  0  0  1  0  0
   -2.2678   -2.1100    1.1060 C   0  0  0  0  0  0  0  0  0  2  0  0
   -2.0742   -0.9575    2.0616 C   0  0  0  0  0  0  0  0  0  3  0  0
   -1.1110   -1.1967    3.1960 C   0  0  0  0  0  0  0  0  0  4  0  0
   -2.8540   -0.9453   -0.6273 H   0  0  0  0  0  0  0  0  0  5  0  0
   -4.2091   -1.5223    0.3405 H   0  0  0  0  0  0  0  0  0  6  0  0
   -3.3374   -2.6412   -0.7098 H   0  0  0  0  0  0  0  0  0  7  0  0
   -2.6411   -2.9808    1.6601 H   0  0  0  0  0  0  0  0  0  8  0  0
   -1.2932   -2.4094    0.7051 H   0  0  0  0  0  0  0  0  0  9  0  0
   -3.0210   -0.5228    2.3898 H   0  0  0  0  0  0  0  0  0 10  0  0
   -1.5458    0.0052    1.3510 H   0  0  0  0  0  0  0  0  0 11  0  0
   -0.1321   -1.5041    2.8188 H   0  0  0  0  0  0  0  0  0 12  0  0
   -1.4679   -1.9904    3.8608 H   0  0  0  0  0  0  0  0  0 13  0  0
   -0.9714   -0.2977    3.7986 H   0  0  0  0  0  0  0  0  0 14  0  0
   -0.8560    0.9389    0.5916 C   0  0  0  0  0  3  0  0  0 15  0  0
    0.1320    0.1429   -0.2011 C   0  0  0  0  0  0  0  0  0 16  0  0
    0.9351    1.0047   -0.9775 O   0  0  0  0  0  0  0  0  0 17  0  0
    1.8872    0.3194   -1.7528 C   0  0  0  0  0  0  0  0  0 18  0  0
    2.7271    1.3223   -2.5172 C   0  0  0  0  0  0  0  0  0 19  0  0
    3.5367    2.2395   -1.6103 C   0  0  0  0  0  0  0  0  0 20  0  0
   -0.4118    1.5967    1.3351 H   0  0  0  0  0  0  0  0  0 21  0  0
   -1.6226    1.4337   -0.0001 H   0  0  0  0  0  0  0  0  0 22  0  0
   -0.3897   -0.5682   -0.8593 H   0  0  0  0  0  0  0  0  0 23  0  0
    0.7708   -0.4497    0.4715 H   0  0  0  0  0  0  0  0  0 24  0  0
    2.5303   -0.2937   -1.1015 H   0  0  0  0  0  0  0  0  0 25  0  0
    1.3815   -0.3648   -2.4501 H   0  0  0  0  0  0  0  0  0 26  0  0
    2.0657    1.9140   -3.1552 H   0  0  0  0  0  0  0  0  0 27  0  0
    3.3940    0.7657   -3.1816 H   0  0  0  0  0  0  0  0  0 28  0  0
    4.2204    1.6623   -0.9827 H   0  0  0  0  0  0  0  0  0 29  0  0
    2.8802    2.8103   -0.9536 H   0  0  0  0  0  0  0  0  0 30  0  0
    4.1318    2.9433   -2.1941 H   0  0  0  0  0  0  0  0  0 31  0  0
  1  7  1  0
  1  5  1  0
  1  6  1  0
  1  2  1  0
  2  8  1  0
  2  3  1  0
  2  9  1  0
  3  4  1  0
  3 11  1  0
  3 10  1  0
  4 12  1  0
  4 14  1  0
  4 13  1  0
 15 16  1  0
 15 22  1  0
 15 21  1  0
 16 17  1  0
 16 23  1  0
 16 24  1  0
 17 18  1  0
 18 19  1  0
 18 25  1  0
 18 26  1  0
 19 27  1  0
 19 28  1  0
 19 20  1  0
 20 31  1  0
 20 30  1  0
 20 29  1  0
M  RAD  1  15   2
M  END
>  <rmg_smiles>  (3) 
CCCC.[CH2]COCCC

>  <rmg_adjacency_list>  (3) 
multiplicity 2
1  O u0 p2 c0 {5,S} {8,S}
2  C u0 p0 c0 {3,S} {6,S} {11,S} {12,S}
3  C u0 p0 c0 {2,S} {7,S} {13,S} {14,S}
4  C u0 p0 c0 {5,S} {9,S} {15,S} {16,S}
5  C u0 p0 c0 {1,S} {4,S} {17,S} {18,S}
6  C u0 p0 c0 {2,S} {19,S} {20,S} {21,S}
7  C u0 p0 c0 {3,S} {22,S} {23,S} {24,S}
8  C u0 p0 c0 {1,S} {10,S} {25,S} {26,S}
9  C u0 p0 c0 {4,S} {27,S} {28,S} {29,S}
10 C u1 p0 c0 {8,S} {30,S} {31,S}
11 H u0 p0 c0 {2,S}
12 H u0 p0 c0 {2,S}
13 H u0 p0 c0 {3,S}
14 H u0 p0 c0 {3,S}
15 H u0 p0 c0 {4,S}
16 H u0 p0 c0 {4,S}
17 H u0 p0 c0 {5,S}
18 H u0 p0 c0 {5,S}
19 H u0 p0 c0 {6,S}
20 H u0 p0 c0 {6,S}
21 H u0 p0 c0 {6,S}
22 H u0 p0 c0 {7,S}
23 H u0 p0 c0 {7,S}
24 H u0 p0 c0 {7,S}
25 H u0 p0 c0 {8,S}
26 H u0 p0 c0 {8,S}
27 H u0 p0 c0 {9,S}
28 H u0 p0 c0 {9,S}
29 H u0 p0 c0 {9,S}
30 H u0 p0 c0 {10,S}
31 H u0 p0 c0 {10,S}


>  <multiplicity>  (3) 
2

>  <reaction>  (3) 
rmg_rxn_159

>  <type>  (3) 
ts

>  <role_mapnums>  (3) 
{"*2": 11, "*1": 3, "*3": 15, "*0": 2, "*4": 16}

>  <role_mapidx>  (3) 
{"*2": 10, "*1": 2, "*3": 14, "*0": 1, "*4": 15}

>  <ordered_mapped_smiles>  (3) 
[C:1]([C:2]([C:3]([C:4]([H:12])([H:13])[H:14])([H:10])[H:11])([H:8])[H:9])([H:5])([H:6])[H:7].[C:15]([C:16]([O:17][C:18]([C:19]([C:20]([H:29])([H:30])[H:31])([H:27])[H:28])([H:25])[H:26])([H:23])[H:24])([H:21])[H:22]

>  <mol_properties>  (3) 
{"1": {"label": "*0", "atom_type": "Cs"}, "2": {"label": "*1", "atom_type": "Cs"}, "10": {"label": "*2", "atom_type": "H0"}, "14": {"label": "*3", "atom_type": "Cs"}, "15": {"label": "*4", "atom_type": "Cs"}}

>  <level_of_theory>  (3) 
wb97xd/def2tzvp

>  <lot_method>  (3) 
wb97xd

>  <lot_basis>  (3) 
def2tzvp

>  <spin_multiplicity>  (3) 
2.0

>  <optical_isomers>  (3) 
2.0

>  <modes>  (3) 
IdealGasTranslation(mass=(145.159, 'amu')),         NonlinearRotor(             inertia = ([221.691, 1256.1, 1359.53

>  <frequency_value>  (3) 
-1672.63

>  <frequency_units>  (3) 
cm^-1

>  <frequency_list>  (3) 
unknown

>  <arkane_path>  (3) 
/home/calvin/Dropbox/PersonalFolders/Calvin/ATLAS_Converged/rmg_rxn_159/output/rxns/TS0/arkane/output.py

>  <path_exists>  (3) 
True

>  <E0_value>  (3) 
-1130250.0

>  <E0_units>  (3) 
kJ/mol

>  <thermo_class>  (3) 
unknown

>  <Cp0_value>  (3) 
unknown

>  <Cp0_units>  (3) 
unknown

>  <CpInf_value>  (3) 
unknown

>  <CpInf_units>  (3) 
unknown

>  <Tmin_value>  (3) 
unknown

>  <Tmin_units>  (3) 
unknown

>  <Tmax_value>  (3) 
unknown

>  <Tmax_units>  (3) 
unknown

>  <polynomials>  (3) 
unknown

>  <H298_value>  (3) 
unknown

>  <H298_units>  (3) 
unknown

>  <S298_value>  (3) 
unknown

>  <S298_units>  (3) 
unknown

>  <Cp_T_value_list>  (3) 
unknown

>  <Cp_T_units>  (3) 
unknown

>  <T_list>  (3) 
unknown

>  <T_units>  (3) 
unknown

>  <yaml_path>  (3) 
unknown

>  <frequencies_cm1>  (3) 
unknown

>  <ZPE_kJmol>  (3) 
unknown

>  <E_elec_kJmol>  (3) 
unknown

>  <E0_minus_Eelec_plus_ZPE_kJmol>  (3) 
unknown

>  <rxn>  (3) 
unknown

>  <species_type>  (3) 
unknown

>  <species_folder>  (3) 
unknown

>  <frequencies_cm1_list>  (3) 
[]

>  <ts_imag_freq_cm1>  (3) 
-1692.9483

>  <ts_freq_out_path>  (3) 
/home/calvin/Dropbox/PersonalFolders/Calvin/ATLAS_Converged/rmg_rxn_159/output/rxns/TS0/geometry/freq.out

>  <E0_kJmol>  (3) 
-1.13025e+06

>  <H298_kJmol>  (3) 
unknown

$$$$

     RDKit          3D

 13 12  0  0  0  0  0  0  0  0999 V2000
    1.9060    0.2628    0.3980 C   0  0  0  0  0  0  0  0  0  1  0  0
    0.6330   -0.4250    0.0685 C   0  0  0  0  0  3  0  0  0  2  0  0
   -0.2610   -0.9325    1.1416 C   0  0  0  0  0  0  0  0  0  3  0  0
   -1.4364   -1.7546    0.6268 C   0  0  0  0  0  0  0  0  0  4  0  0
    2.4899   -0.3070    1.1292 H   0  0  0  0  0  0  0  0  0  5  0  0
    1.7297    1.2496    0.8515 H   0  0  0  0  0  0  0  0  0  6  0  0
    2.5269    0.4197   -0.4845 H   0  0  0  0  0  0  0  0  0  7  0  0
    0.2597   -0.3936   -0.9489 H   0  0  0  0  0  0  0  0  0  8  0  0
   -0.6439   -0.0868    1.7356 H   0  0  0  0  0  0  0  0  0  9  0  0
    0.3260   -1.5277    1.8536 H   0  0  0  0  0  0  0  0  0 10  0  0
   -1.0872   -2.6320    0.0792 H   0  0  0  0  0  0  0  0  0 11  0  0
   -2.0701   -2.0976    1.4459 H   0  0  0  0  0  0  0  0  0 12  0  0
   -2.0561   -1.1637   -0.0512 H   0  0  0  0  0  0  0  0  0 13  0  0
  1  5  1  0
  1  7  1  0
  1  6  1  0
  1  2  1  0
  2  8  1  0
  2  3  1  0
  3  4  1  0
  3  9  1  0
  3 10  1  0
  4 13  1  0
  4 12  1  0
  4 11  1  0
M  RAD  1   2   2
M  END
>  <rmg_smiles>  (4) 
C[CH]CC

>  <rmg_adjacency_list>  (4) 
multiplicity 2
1  C u0 p0 c0 {2,S} {4,S} {5,S} {6,S}
2  C u0 p0 c0 {1,S} {7,S} {8,S} {9,S}
3  C u0 p0 c0 {4,S} {10,S} {11,S} {12,S}
4  C u1 p0 c0 {1,S} {3,S} {13,S}
5  H u0 p0 c0 {1,S}
6  H u0 p0 c0 {1,S}
7  H u0 p0 c0 {2,S}
8  H u0 p0 c0 {2,S}
9  H u0 p0 c0 {2,S}
10 H u0 p0 c0 {3,S}
11 H u0 p0 c0 {3,S}
12 H u0 p0 c0 {3,S}
13 H u0 p0 c0 {4,S}


>  <multiplicity>  (4) 
2

>  <reaction>  (4) 
rmg_rxn_159

>  <type>  (4) 
r1

>  <role_mapnums>  (4) 
{}

>  <role_mapidx>  (4) 
{}

>  <ordered_mapped_smiles>  (4) 
[C:1]([C:2]([C:3]([C:4]([H:11])([H:12])[H:13])([H:9])[H:10])[H:8])([H:5])([H:6])[H:7]

>  <level_of_theory>  (4) 
wb97xd/def2tzvp

>  <lot_method>  (4) 
wb97xd

>  <lot_basis>  (4) 
def2tzvp

>  <spin_multiplicity>  (4) 
2.0

>  <optical_isomers>  (4) 
2.0

>  <modes>  (4) 
IdealGasTranslation(mass=(57.0704, 'amu')),         NonlinearRotor(             inertia = ([18.7542, 137.737, 146.856

>  <frequency_value>  (4) 
unknown

>  <frequency_units>  (4) 
unknown

>  <frequency_list>  (4) 
unknown

>  <arkane_path>  (4) 
/home/calvin/Dropbox/PersonalFolders/Calvin/ATLAS_Converged/rmg_rxn_159/output/Species/rmg_rxn_159_p1_Csbr-CH-sbrCC/arkane/output.py

>  <path_exists>  (4) 
True

>  <E0_value>  (4) 
-413995.2264405356

>  <E0_units>  (4) 
kJ/mol

>  <thermo_class>  (4) 
NASA

>  <Cp0_value>  (4) 
33.257888

>  <Cp0_units>  (4) 
J/(mol*K)

>  <CpInf_value>  (4) 
307.635464

>  <CpInf_units>  (4) 
J/(mol*K)

>  <Tmin_value>  (4) 
10.0

>  <Tmin_units>  (4) 
K

>  <Tmax_value>  (4) 
3000.0

>  <Tmax_units>  (4) 
K

>  <polynomials>  (4) 
[{"name": "polynomial1", "class": "NASAPolynomial", "Tmin_value": 10.0, "Tmin_units": "K", "Tmax_value": 437.64132334566835, "Tmax_units": "K", "coeffs": [3.6274282376646756, 0.03980524048628293, -0.00011211913315348379, 3.0275669442783334e-07, -2.6334100357152647e-10, -49792123.767797455, 10.477759673967103]}, {"name": "polynomial2", "class": "NASAPolynomial", "Tmin_value": 437.64132334566835, "Tmin_units": "K", "Tmax_value": 3000.0, "Tmax_units": "K", "coeffs": [-0.4712203043918067, 0.04588815729464738, -2.541997261504284e-05, 6.85639015424627e-09, -7.228277482308085e-13, -49791464.52563959, 30.297543071931177]}]

>  <H298_value>  (4) 
-98942.59688263848

>  <H298_units>  (4) 
kcal/mol

>  <S298_value>  (4) 
79.84336435797195

>  <S298_units>  (4) 
cal/(mol*K)

>  <Cp_T_value_list>  (4) 
[22.891917447574397, 28.308475735554, 33.64288387138264, 38.34868525299168, 46.07323283166112, 51.92675269306213, 60.90207372767515, 65.40111428959476, 67.64920413290923]

>  <Cp_T_units>  (4) 
cal/(mol*K)

>  <T_list>  (4) 
[300.0, 400.0, 500.0, 600.0, 800.0, 1000.0, 1500.0, 2000.0, 2400.0]

>  <T_units>  (4) 
K

>  <yaml_path>  (4) 
/home/calvin/Dropbox/PersonalFolders/Calvin/ATLAS_Converged/rmg_rxn_159/output/Species/rmg_rxn_159_p1_Csbr-CH-sbrCC/rmg_rxn_159_p1_Csbr-CH-sbrCC.yml

>  <frequencies_cm1>  (4) 
[56.84490447896, 98.78845081352, 231.15645984184, 255.98747875895998, 343.02651768996, 433.15570001495996, 765.0302335452399, 850.6821414415999, 969.8792726261601, 986.4561751886399, 1035.713060889, 1061.1277735583199, 1129.08346028504, 1177.0836876718397, 1262.3853793168798, 1303.7933007964798, 1389.89842972396, 1402.2452693293199, 1414.45476922828, 1456.0687002674797, 1460.55284168144, 1471.1898019421196, 1484.2096061088398, 1489.95040583636, 2924.0516200651596, 2943.40278469692, 2976.8244022493595, 3009.05803134144, 3013.50097084348, 3083.1390689736, 3085.4944449383597, 3091.2352446658797, 3146.1642602405595]

>  <ZPE_kJmol>  (4) 
303.861341375402

>  <E_elec_kJmol>  (4) 
-414299.087781911

>  <E0_minus_Eelec_plus_ZPE_kJmol>  (4) 
0.0

>  <rxn>  (4) 
rmg_rxn_159

>  <species_type>  (4) 
p0

>  <species_folder>  (4) 
rmg_rxn_159_p1_Csbr-CH-sbrCC

>  <frequencies_cm1_list>  (4) 
[56.84490447896, 98.78845081352, 231.15645984184, 255.98747875895998, 343.02651768996, 433.15570001495996, 765.0302335452399, 850.6821414415999, 969.8792726261601, 986.4561751886399, 1035.713060889, 1061.1277735583199, 1129.08346028504, 1177.0836876718397, 1262.3853793168798, 1303.7933007964798, 1389.89842972396, 1402.2452693293199, 1414.45476922828, 1456.0687002674797, 1460.55284168144, 1471.1898019421196, 1484.2096061088398, 1489.95040583636, 2924.0516200651596, 2943.40278469692, 2976.8244022493595, 3009.05803134144, 3013.50097084348, 3083.1390689736, 3085.4944449383597, 3091.2352446658797, 3146.1642602405595]

>  <E0_kJmol>  (4) 
-413995

>  <H298_kJmol>  (4) 
-413976

$$$$

     RDKit          3D

 17 16  0  0  0  0  0  0  0  0999 V2000
    3.2128    0.1260   -0.7228 C   0  0  0  0  0  3  0  0  0  1  0  0
    2.0005    0.6432   -0.0603 C   0  0  0  0  0  0  0  0  0  2  0  0
    0.8631    0.3123   -0.8103 O   0  0  0  0  0  0  0  0  0  3  0  0
   -0.3318    0.7959   -0.2483 C   0  0  0  0  0  0  0  0  0  4  0  0
   -1.5012    0.3530   -1.1031 C   0  0  0  0  0  0  0  0  0  5  0  0
   -1.6702   -1.1598   -1.1495 C   0  0  0  0  0  0  0  0  0  6  0  0
    4.1735    0.2150   -0.2365 H   0  0  0  0  0  0  0  0  0  7  0  0
    3.1498   -0.2831   -1.7202 H   0  0  0  0  0  0  0  0  0  8  0  0
    2.0642    1.7419    0.0625 H   0  0  0  0  0  0  0  0  0  9  0  0
    1.9152    0.2371    0.9639 H   0  0  0  0  0  0  0  0  0 10  0  0
   -0.4457    0.4113    0.7774 H   0  0  0  0  0  0  0  0  0 11  0  0
   -0.2986    1.8934   -0.1853 H   0  0  0  0  0  0  0  0  0 12  0  0
   -1.3614    0.7468   -2.1131 H   0  0  0  0  0  0  0  0  0 13  0  0
   -2.4051    0.8206   -0.7031 H   0  0  0  0  0  0  0  0  0 14  0  0
   -1.8374   -1.5641   -0.1481 H   0  0  0  0  0  0  0  0  0 15  0  0
   -0.7790   -1.6360   -1.5583 H   0  0  0  0  0  0  0  0  0 16  0  0
   -2.5223   -1.4403   -1.7702 H   0  0  0  0  0  0  0  0  0 17  0  0
  1  8  1  0
  1  7  1  0
  1  2  1  0
  2 10  1  0
  2  9  1  0
  2  3  1  0
  3  4  1  0
  4  5  1  0
  4 12  1  0
  4 11  1  0
  5  6  1  0
  5 14  1  0
  5 13  1  0
  6 17  1  0
  6 15  1  0
  6 16  1  0
M  RAD  1   1   2
M  END
>  <rmg_smiles>  (5) 
[CH2]COCCC

>  <rmg_adjacency_list>  (5) 
multiplicity 2
1  O u0 p2 c0 {3,S} {4,S}
2  C u0 p0 c0 {3,S} {5,S} {7,S} {8,S}
3  C u0 p0 c0 {1,S} {2,S} {9,S} {10,S}
4  C u0 p0 c0 {1,S} {6,S} {11,S} {12,S}
5  C u0 p0 c0 {2,S} {13,S} {14,S} {15,S}
6  C u1 p0 c0 {4,S} {16,S} {17,S}
7  H u0 p0 c0 {2,S}
8  H u0 p0 c0 {2,S}
9  H u0 p0 c0 {3,S}
10 H u0 p0 c0 {3,S}
11 H u0 p0 c0 {4,S}
12 H u0 p0 c0 {4,S}
13 H u0 p0 c0 {5,S}
14 H u0 p0 c0 {5,S}
15 H u0 p0 c0 {5,S}
16 H u0 p0 c0 {6,S}
17 H u0 p0 c0 {6,S}


>  <multiplicity>  (5) 
2

>  <reaction>  (5) 
rmg_rxn_159

>  <type>  (5) 
r2

>  <role_mapnums>  (5) 
{}

>  <role_mapidx>  (5) 
{}

>  <ordered_mapped_smiles>  (5) 
[C:1]([C:2]([O:3][C:4]([C:5]([C:6]([H:15])([H:16])[H:17])([H:13])[H:14])([H:11])[H:12])([H:9])[H:10])([H:7])[H:8]

>  <level_of_theory>  (5) 
wb97xd/def2tzvp

>  <lot_method>  (5) 
wb97xd

>  <lot_basis>  (5) 
def2tzvp

>  <spin_multiplicity>  (5) 
2.0

>  <optical_isomers>  (5) 
2.0

>  <modes>  (5) 
IdealGasTranslation(mass=(87.081, 'amu')),         NonlinearRotor(             inertia = ([56.6963, 308.928, 339.863

>  <frequency_value>  (5) 
unknown

>  <frequency_units>  (5) 
unknown

>  <frequency_list>  (5) 
unknown

>  <arkane_path>  (5) 
/home/calvin/Dropbox/PersonalFolders/Calvin/ATLAS_Converged/rmg_rxn_159/output/Species/rmg_rxn_159_r2_sbr-CH2-sbrCOCCC/arkane/output.py

>  <path_exists>  (5) 
True

>  <E0_value>  (5) 
-714592.2874509341

>  <E0_units>  (5) 
kJ/mol

>  <thermo_class>  (5) 
NASA

>  <Cp0_value>  (5) 
33.257888

>  <Cp0_units>  (5) 
J/(mol*K)

>  <CpInf_value>  (5) 
407.409128

>  <CpInf_units>  (5) 
J/(mol*K)

>  <Tmin_value>  (5) 
10.0

>  <Tmin_units>  (5) 
K

>  <Tmax_value>  (5) 
3000.0

>  <Tmax_units>  (5) 
K

>  <polynomials>  (5) 
[{"name": "polynomial1", "class": "NASAPolynomial", "Tmin_value": 10.0, "Tmin_units": "K", "Tmax_value": 421.0372535718615, "Tmax_units": "K", "coeffs": [3.37895132363267, 0.06590461652161297, -0.00019248777206659837, 4.899546729677533e-07, -4.2421819392305115e-10, -85945598.19192903, 12.514647140996344]}, {"name": "polynomial2", "class": "NASAPolynomial", "Tmin_value": 421.0372535718615, "Tmin_units": "K", "Tmax_value": 3000.0, "Tmax_units": "K", "coeffs": [-0.7031521655618634, 0.0634106032051468, -3.655349613385212e-05, 1.0213585385556378e-08, -1.1100160993194353e-12, -85944888.59888983, 33.02190026700972]}]

>  <H298_value>  (5) 
-170785.6862054507

>  <H298_units>  (5) 
kcal/mol

>  <S298_value>  (5) 
92.0935224625042

>  <S298_units>  (5) 
cal/(mol*K)

>  <Cp_T_value_list>  (5) 
[31.03826894208271, 38.631031485330254, 45.84703507635903, 52.15667392578775, 62.40978209891234, 70.06398128189656, 81.51278729958182, 87.14396355384976, 90.01865016734077]

>  <Cp_T_units>  (5) 
cal/(mol*K)

>  <T_list>  (5) 
[300.0, 400.0, 500.0, 600.0, 800.0, 1000.0, 1500.0, 2000.0, 2400.0]

>  <T_units>  (5) 
K

>  <yaml_path>  (5) 
/home/calvin/Dropbox/PersonalFolders/Calvin/ATLAS_Converged/rmg_rxn_159/output/Species/rmg_rxn_159_r2_sbr-CH2-sbrCOCCC/rmg_rxn_159_r2_sbr-CH2-sbrCOCCC.yml

>  <frequencies_cm1>  (5) 
[70.27672776488, 88.4467709216, 104.55671848231998, 153.07883675344, 172.60167601819998, 255.52052375720004, 329.3406159472, 414.08608178132, 453.8047248722, 492.96027516683995, 765.9229416368398, 873.5492025571998, 892.37160931932, 924.52970157288, 955.5272733073599, 1010.5936285884401, 1091.5691194818799, 1101.61551900504, 1147.9951378563198, 1175.99183700596, 1193.5163835426, 1228.5654766158798, 1271.8686860438, 1305.08429403664, 1367.51892456608, 1378.9249871825998, 1404.3190988959598, 1420.9784052822797, 1445.0952577261198, 1468.6833523003202, 1476.29197203488, 1483.39930184108, 1494.4551482062798, 1509.4526441451599, 2863.5603463812795, 2892.74503399128, 2932.7864253922, 2965.8028908107603, 3015.3275889386, 3021.99543168432, 3058.9535466765597, 3085.61805067412, 3105.36063346912, 3142.87497427228, 3256.06349330184]

>  <ZPE_kJmol>  (5) 
390.3630165565435

>  <E_elec_kJmol>  (5) 
-714982.6504674907

>  <E0_minus_Eelec_plus_ZPE_kJmol>  (5) 
0.0

>  <rxn>  (5) 
rmg_rxn_159

>  <species_type>  (5) 
r1

>  <species_folder>  (5) 
rmg_rxn_159_r2_sbr-CH2-sbrCOCCC

>  <frequencies_cm1_list>  (5) 
[70.27672776488, 88.4467709216, 104.55671848231998, 153.07883675344, 172.60167601819998, 255.52052375720004, 329.3406159472, 414.08608178132, 453.8047248722, 492.96027516683995, 765.9229416368398, 873.5492025571998, 892.37160931932, 924.52970157288, 955.5272733073599, 1010.5936285884401, 1091.5691194818799, 1101.61551900504, 1147.9951378563198, 1175.99183700596, 1193.5163835426, 1228.5654766158798, 1271.8686860438, 1305.08429403664, 1367.51892456608, 1378.9249871825998, 1404.3190988959598, 1420.9784052822797, 1445.0952577261198, 1468.6833523003202, 1476.29197203488, 1483.39930184108, 1494.4551482062798, 1509.4526441451599, 2863.5603463812795, 2892.74503399128, 2932.7864253922, 2965.8028908107603, 3015.3275889386, 3021.99543168432, 3058.9535466765597, 3085.61805067412, 3105.36063346912, 3142.87497427228, 3256.06349330184]

>  <E0_kJmol>  (5) 
-714592

>  <H298_kJmol>  (5) 
-714567

$$$$
