
     RDKit          3D

  5  4  0  0  0  0  0  0  0  0999 V2000
   -1.0228    0.2325   -0.2904 N   0  0  0  0  0  0  0  0  0  1  0  0
    0.2057    0.4011    0.0587 N   0  0  0  0  0  0  0  0  0  2  0  0
    0.9118   -0.5649    0.2106 O   0  0  0  0  0  0  0  0  0  3  0  0
   -1.4245   -0.6681   -0.0554 H   0  0  0  0  0  0  0  0  0  4  0  0
   -1.5928    1.0548   -0.1275 H   0  0  0  0  0  0  0  0  0  5  0  0
  1  5  1  0
  1  2  1  0
  1  4  1  0
  2  3  1  0
M  END
>  <rmg_smiles>  (1) 
N[N][O]

>  <rmg_adjacency_list>  (1) 
1 O u0 p2 c0 {3,S}
2 N u0 p1 c0 {3,S} {4,S} {5,S}
3 N u0 p1 c0 {1,S} {2,S}
4 H u0 p0 c0 {2,S}
5 H u0 p0 c0 {2,S}


>  <multiplicity>  (1) 
1

>  <reaction>  (1) 
rmg_rxn_1475

>  <type>  (1) 
r1h

>  <role_mapnums>  (1) 
{"r1h_a": 1, "r1h_h": 4}

>  <role_mapidx>  (1) 
{"r1h_a": 0, "r1h_h": 3}

>  <ordered_mapped_smiles>  (1) 
[N:1]([NH:2][OH:3])([H:4])[H:5]

>  <mol_properties>  (1) 
{"0": {"label": "donator", "atom_type": "N3s"}, "3": {"label": "d_hydrogen", "atom_type": "H0"}}

>  <level_of_theory>  (1) 
wb97xd/def2tzvp

>  <lot_method>  (1) 
wb97xd

>  <lot_basis>  (1) 
def2tzvp

>  <spin_multiplicity>  (1) 
1.0

>  <optical_isomers>  (1) 
1.0

>  <modes>  (1) 
IdealGasTranslation(mass=(46.0167, 'amu')),         NonlinearRotor(             inertia = ([6.03621, 38.6456, 44.6818

>  <frequency_value>  (1) 
unknown

>  <frequency_units>  (1) 
unknown

>  <frequency_list>  (1) 
unknown

>  <arkane_path>  (1) 
/home/calvin/Dropbox/PersonalFolders/Calvin/ATLAS_Converged/rmg_rxn_1475/output/Species/rmg_rxn_1475_r1_NN=O/arkane/output.py

>  <path_exists>  (1) 
True

>  <E0_value>  (1) 
-487909.5710036975

>  <E0_units>  (1) 
kJ/mol

>  <thermo_class>  (1) 
NASA

>  <Cp0_value>  (1) 
33.257888

>  <Cp0_units>  (1) 
J/(mol*K)

>  <CpInf_value>  (1) 
108.088136

>  <CpInf_units>  (1) 
J/(mol*K)

>  <Tmin_value>  (1) 
10.0

>  <Tmin_units>  (1) 
K

>  <Tmax_value>  (1) 
3000.0

>  <Tmax_units>  (1) 
K

>  <polynomials>  (1) 
[{"name": "polynomial1", "class": "NASAPolynomial", "Tmin_value": 10.0, "Tmin_units": "K", "Tmax_value": 491.3889412835894, "Tmax_units": "K", "coeffs": [3.982254985154104, 0.001109066907410209, 3.807622400219672e-05, -7.34801373598144e-08, 4.5205197130692525e-11, -58681966.3266894, 6.4941530339393]}, {"name": "polynomial2", "class": "NASAPolynomial", "Tmin_value": 491.3889412835894, "Tmin_units": "K", "Tmax_value": 3000.0, "Tmax_units": "K", "coeffs": [2.9404368052929843, 0.012865713030583807, -7.812149749761828e-06, 2.344037732853415e-09, -2.738787635374175e-13, -58681903.491322435, 10.377638282690032]}]

>  <H298_value>  (1) 
-116610.30707517578

>  <H298_units>  (1) 
kcal/mol

>  <S298_value>  (1) 
60.89503268429048

>  <S298_units>  (1) 
cal/(mol*K)

>  <Cp_T_value_list>  (1) 
[12.16971939315822, 13.855999712949458, 15.293825753682395, 16.530196084841165, 18.5231451978899, 19.99956230160783, 22.22945931121974, 23.436130825769936, 24.119725013813046]

>  <Cp_T_units>  (1) 
cal/(mol*K)

>  <T_list>  (1) 
[300.0, 400.0, 500.0, 600.0, 800.0, 1000.0, 1500.0, 2000.0, 2400.0]

>  <T_units>  (1) 
K

>  <yaml_path>  (1) 
/home/calvin/Dropbox/PersonalFolders/Calvin/ATLAS_Converged/rmg_rxn_1475/output/Species/rmg_rxn_1475_r1_NN=O/rmg_rxn_1475_r1_NN=O.yml

>  <frequencies_cm1>  (1) 
[224.96930606852, 638.8425113049199, 713.1638934232799, 1118.09628377304, 1228.5792105865198, 1578.89846668632, 1626.84375819056, 3477.7435134020793, 3702.4793419697194]

>  <ZPE_kJmol>  (1) 
85.59053717638125

>  <E_elec_kJmol>  (1) 
-487995.1615408739

>  <E0_minus_Eelec_plus_ZPE_kJmol>  (1) 
0.0

>  <rxn>  (1) 
rmg_rxn_1475

>  <species_type>  (1) 
r0

>  <species_folder>  (1) 
rmg_rxn_1475_r1_NN=O

>  <frequencies_cm1_list>  (1) 
[224.96930606852, 638.8425113049199, 713.1638934232799, 1118.09628377304, 1228.5792105865198, 1578.89846668632, 1626.84375819056, 3477.7435134020793, 3702.4793419697194]

>  <E0_kJmol>  (1) 
-487910

>  <H298_kJmol>  (1) 
-487898

$$$$

     RDKit          3D

 18 17  0  0  0  0  0  0  0  0999 V2000
    2.0863    0.1225   -0.0267 H   0  0  0  0  0  0  0  0  0  1  0  0
    2.2101   -1.9401   -0.4156 C   0  0  0  0  0  0  0  0  0  2  0  0
    1.5850   -0.7840    0.3111 C   0  0  0  0  0  0  0  0  0  3  0  0
    0.1549   -0.4809   -0.0248 C   0  0  0  0  0  0  0  0  0  4  0  0
   -0.2050    0.7480    0.5572 O   0  0  0  0  0  0  0  0  0  5  0  0
   -1.5845    1.0421    0.5106 C   0  0  0  0  0  0  0  0  0  6  0  0
   -2.0963    1.3691   -0.8820 C   0  0  0  0  0  0  0  0  0  7  0  0
    3.2649   -2.0318   -0.1623 H   0  0  0  0  0  0  0  0  0  8  0  0
    1.7130   -2.8807   -0.1510 H   0  0  0  0  0  0  0  0  0  9  0  0
    2.1295   -1.8191   -1.4980 H   0  0  0  0  0  0  0  0  0 10  0  0
    1.7827   -0.7562    1.3822 H   0  0  0  0  0  0  0  0  0 11  0  0
   -0.4964   -1.2853    0.3594 H   0  0  0  0  0  0  0  0  0 12  0  0
    0.0271   -0.4572   -1.1157 H   0  0  0  0  0  0  0  0  0 13  0  0
   -1.7184    1.9015    1.1689 H   0  0  0  0  0  0  0  0  0 14  0  0
   -2.1547    0.2056    0.9376 H   0  0  0  0  0  0  0  0  0 15  0  0
   -3.1379    1.6902   -0.8264 H   0  0  0  0  0  0  0  0  0 16  0  0
   -1.5110    2.1769   -1.3242 H   0  0  0  0  0  0  0  0  0 17  0  0
   -2.0518    0.5057   -1.5473 H   0  0  0  0  0  0  0  0  0 18  0  0
  1  3  1  0
  2 10  1  0
  2  9  1  0
  2  8  1  0
  2  3  1  0
  3  4  1  0
  3 11  1  0
  4 13  1  0
  4 12  1  0
  4  5  1  0
  5  6  1  0
  6 15  1  0
  6 14  1  0
  6  7  1  0
  7 18  1  0
  7 17  1  0
  7 16  1  0
M  END
>  <rmg_smiles>  (2) 
CCCOCC

>  <rmg_adjacency_list>  (2) 
1  O u0 p2 c0 {3,S} {4,S}
2  C u0 p0 c0 {3,S} {5,S} {7,S} {8,S}
3  C u0 p0 c0 {1,S} {2,S} {9,S} {10,S}
4  C u0 p0 c0 {1,S} {6,S} {11,S} {12,S}
5  C u0 p0 c0 {2,S} {13,S} {14,S} {15,S}
6  C u0 p0 c0 {4,S} {16,S} {17,S} {18,S}
7  H u0 p0 c0 {2,S}
8  H u0 p0 c0 {2,S}
9  H u0 p0 c0 {3,S}
10 H u0 p0 c0 {3,S}
11 H u0 p0 c0 {4,S}
12 H u0 p0 c0 {4,S}
13 H u0 p0 c0 {5,S}
14 H u0 p0 c0 {5,S}
15 H u0 p0 c0 {5,S}
16 H u0 p0 c0 {6,S}
17 H u0 p0 c0 {6,S}
18 H u0 p0 c0 {6,S}


>  <multiplicity>  (2) 
1

>  <reaction>  (2) 
rmg_rxn_1475

>  <type>  (2) 
r2h

>  <role_mapnums>  (2) 
{"r2h_a": 3, "r2h_h": 1}

>  <role_mapidx>  (2) 
{"r2h_a": 2, "r2h_h": 0}

>  <ordered_mapped_smiles>  (2) 
[H:1][C:3]([C:2]([H:8])([H:9])[H:10])([C:4]([O:5][C:6]([C:7]([H:16])([H:17])[H:18])([H:14])[H:15])([H:12])[H:13])[H:11]

>  <mol_properties>  (2) 
{"0": {"label": "a_hydrogen", "atom_type": "H0"}, "2": {"label": "acceptor", "atom_type": "Cs"}}

>  <level_of_theory>  (2) 
wb97xd/def2tzvp

>  <lot_method>  (2) 
wb97xd

>  <lot_basis>  (2) 
def2tzvp

>  <spin_multiplicity>  (2) 
1.0

>  <optical_isomers>  (2) 
2.0

>  <modes>  (2) 
IdealGasTranslation(mass=(88.0888, 'amu')),         NonlinearRotor(             inertia = ([59.5652, 317.445, 349.634

>  <frequency_value>  (2) 
unknown

>  <frequency_units>  (2) 
unknown

>  <frequency_list>  (2) 
unknown

>  <arkane_path>  (2) 
/home/calvin/Dropbox/PersonalFolders/Calvin/ATLAS_Converged/rmg_rxn_1475/output/Species/rmg_rxn_1475_p2_CCCOCC/arkane/output.py

>  <path_exists>  (2) 
True

>  <E0_value>  (2) 
-716327.3605709573

>  <E0_units>  (2) 
kJ/mol

>  <thermo_class>  (2) 
NASA

>  <Cp0_value>  (2) 
33.257888

>  <Cp0_units>  (2) 
J/(mol*K)

>  <CpInf_value>  (2) 
432.352544

>  <CpInf_units>  (2) 
J/(mol*K)

>  <Tmin_value>  (2) 
10.0

>  <Tmin_units>  (2) 
K

>  <Tmax_value>  (2) 
3000.0

>  <Tmax_units>  (2) 
K

>  <polynomials>  (2) 
[{"name": "polynomial1", "class": "NASAPolynomial", "Tmin_value": 10.0, "Tmin_units": "K", "Tmax_value": 424.14701041358796, "Tmax_units": "K", "coeffs": [3.4707042336928127, 0.05746545203879795, -0.00016719847115372115, 4.780470157694204e-07, -4.3347206706639054e-10, -86154279.58985142, 11.635447004604476]}, {"name": "polynomial2", "class": "NASAPolynomial", "Tmin_value": 424.14701041358796, "Tmin_units": "K", "Tmax_value": 3000.0, "Tmax_units": "K", "coeffs": [-2.8535624465972114, 0.06921008708460846, -3.934323609424939e-05, 1.0841890934368647e-08, -1.163418506360095e-12, -86153312.26572455, 41.80111524234505]}]

>  <H298_value>  (2) 
-171200.6815246165

>  <H298_units>  (2) 
kcal/mol

>  <S298_value>  (2) 
88.37399878129293

>  <S298_units>  (2) 
cal/(mol*K)

>  <Cp_T_value_list>  (2) 
[29.924593767526826, 38.16083070533892, 46.09960348181722, 53.05840207682852, 64.40406715451496, 72.91410593462665, 85.72980278110597, 92.03567805993791, 95.21197800865355]

>  <Cp_T_units>  (2) 
cal/(mol*K)

>  <T_list>  (2) 
[300.0, 400.0, 500.0, 600.0, 800.0, 1000.0, 1500.0, 2000.0, 2400.0]

>  <T_units>  (2) 
K

>  <yaml_path>  (2) 
/home/calvin/Dropbox/PersonalFolders/Calvin/ATLAS_Converged/rmg_rxn_1475/output/Species/rmg_rxn_1475_p2_CCCOCC/rmg_rxn_1475_p2_CCCOCC.yml

>  <frequencies_cm1>  (2) 
[76.60808822992, 85.88538539723999, 152.39213822143998, 171.44115549912, 250.05440344247998, 256.05614861216003, 329.51915756551995, 440.0707542322, 493.7774464199199, 767.98990421816, 823.02879155796, 891.3896304185598, 900.4815189822399, 929.41899512072, 1002.9850088538799, 1082.00340893112, 1102.9065122452, 1152.52734816752, 1174.9617892079598, 1182.44680320676, 1190.2339645596398, 1270.1176047871998, 1295.23017010244, 1305.6473868328799, 1368.30176089256, 1380.4425909383199, 1399.7456866728398, 1405.4521514737598, 1443.92787022172, 1468.7794900948002, 1470.37949767436, 1482.5752636026798, 1487.2448136202797, 1494.6336898246, 1500.58049911172, 1519.49904366832, 2928.8997117010795, 2942.5512785172396, 2962.4655359452395, 2968.54281795344, 3015.14904732028, 3021.7276192568397, 3024.0692612509597, 3058.7338031463196, 3085.2403664815197, 3101.8035350733594, 3104.27564978856, 3105.2988306012394]

>  <ZPE_kJmol>  (2) 
431.0594598774012

>  <E_elec_kJmol>  (2) 
-716758.4200308347

>  <E0_minus_Eelec_plus_ZPE_kJmol>  (2) 
0.0

>  <rxn>  (2) 
rmg_rxn_1475

>  <species_type>  (2) 
p1

>  <species_folder>  (2) 
rmg_rxn_1475_p2_CCCOCC

>  <frequencies_cm1_list>  (2) 
[76.60808822992, 85.88538539723999, 152.39213822143998, 171.44115549912, 250.05440344247998, 256.05614861216003, 329.51915756551995, 440.0707542322, 493.7774464199199, 767.98990421816, 823.02879155796, 891.3896304185598, 900.4815189822399, 929.41899512072, 1002.9850088538799, 1082.00340893112, 1102.9065122452, 1152.52734816752, 1174.9617892079598, 1182.44680320676, 1190.2339645596398, 1270.1176047871998, 1295.23017010244, 1305.6473868328799, 1368.30176089256, 1380.4425909383199, 1399.7456866728398, 1405.4521514737598, 1443.92787022172, 1468.7794900948002, 1470.37949767436, 1482.5752636026798, 1487.2448136202797, 1494.6336898246, 1500.58049911172, 1519.49904366832, 2928.8997117010795, 2942.5512785172396, 2962.4655359452395, 2968.54281795344, 3015.14904732028, 3021.7276192568397, 3024.0692612509597, 3058.7338031463196, 3085.2403664815197, 3101.8035350733594, 3104.27564978856, 3105.2988306012394]

>  <E0_kJmol>  (2) 
-716327

>  <H298_kJmol>  (2) 
-716304

$$$$

     RDKit          3D

 22 20  0  0  0  0  0  0  0  0999 V2000
    1.4087    0.9832   -0.3413 N   0  0  0  0  0  0  0  0  0  1  0  0
    2.6372    1.1519    0.0079 N   0  0  0  0  0  0  0  0  0  2  0  0
    3.3433    0.1858    0.1598 O   0  0  0  0  0  0  0  0  0  3  0  0
    0.9066   -0.1424   -0.0475 H   0  0  0  0  0  0  0  0  0  4  0  0
    0.8387    1.8056   -0.1783 H   0  0  0  0  0  0  0  0  0  5  0  0
    0.9153   -2.4132   -0.3588 C   0  0  0  0  0  0  0  0  0  6  0  0
    0.2902   -1.2570    0.3679 C   0  0  0  0  0  3  0  0  0  7  0  0
   -1.1399   -0.9539    0.0320 C   0  0  0  0  0  0  0  0  0  8  0  0
   -1.4999    0.2750    0.6140 O   0  0  0  0  0  0  0  0  0  9  0  0
   -2.8794    0.5691    0.5674 C   0  0  0  0  0  0  0  0  0 10  0  0
   -3.3911    0.8960   -0.8252 C   0  0  0  0  0  0  0  0  0 11  0  0
    1.9701   -2.5048   -0.1055 H   0  0  0  0  0  0  0  0  0 12  0  0
    0.4182   -3.3537   -0.0942 H   0  0  0  0  0  0  0  0  0 13  0  0
    0.8347   -2.2921   -1.4412 H   0  0  0  0  0  0  0  0  0 14  0  0
    0.4879   -1.2292    1.4390 H   0  0  0  0  0  0  0  0  0 15  0  0
   -1.7912   -1.7583    0.4162 H   0  0  0  0  0  0  0  0  0 16  0  0
   -1.2677   -0.9302   -1.0589 H   0  0  0  0  0  0  0  0  0 17  0  0
   -3.0132    1.4285    1.2257 H   0  0  0  0  0  0  0  0  0 18  0  0
   -3.4495   -0.2675    0.9944 H   0  0  0  0  0  0  0  0  0 19  0  0
   -4.4327    1.2172   -0.7696 H   0  0  0  0  0  0  0  0  0 20  0  0
   -2.8058    1.7039   -1.2673 H   0  0  0  0  0  0  0  0  0 21  0  0
   -3.3466    0.0327   -1.4905 H   0  0  0  0  0  0  0  0  0 22  0  0
  1  2  1  0
  1  5  1  0
  1  4  1  0
  2  3  1  0
  6  7  1  0
  6 12  1  0
  6 13  1  0
  6 14  1  0
  7 15  1  0
  7  8  1  0
  8 16  1  0
  8 17  1  0
  8  9  1  0
  9 10  1  0
 10 18  1  0
 10 11  1  0
 10 19  1  0
 11 21  1  0
 11 20  1  0
 11 22  1  0
M  RAD  1   7   2
M  END
>  <rmg_smiles>  (3) 
CCOC[CH]C.N[N][O]

>  <rmg_adjacency_list>  (3) 
multiplicity 2
1  O u0 p2 c0 {5,S} {6,S}
2  O u0 p2 c0 {4,S}
3  N u0 p1 c0 {4,S} {21,S} {22,S}
4  N u0 p1 c0 {2,S} {3,S}
5  C u0 p0 c0 {1,S} {7,S} {10,S} {11,S}
6  C u0 p0 c0 {1,S} {9,S} {12,S} {13,S}
7  C u0 p0 c0 {5,S} {14,S} {15,S} {16,S}
8  C u0 p0 c0 {9,S} {17,S} {18,S} {19,S}
9  C u1 p0 c0 {6,S} {8,S} {20,S}
10 H u0 p0 c0 {5,S}
11 H u0 p0 c0 {5,S}
12 H u0 p0 c0 {6,S}
13 H u0 p0 c0 {6,S}
14 H u0 p0 c0 {7,S}
15 H u0 p0 c0 {7,S}
16 H u0 p0 c0 {7,S}
17 H u0 p0 c0 {8,S}
18 H u0 p0 c0 {8,S}
19 H u0 p0 c0 {8,S}
20 H u0 p0 c0 {9,S}
21 H u0 p0 c0 {3,S}
22 H u0 p0 c0 {3,S}


>  <multiplicity>  (3) 
2

>  <reaction>  (3) 
rmg_rxn_1475

>  <type>  (3) 
ts

>  <role_mapnums>  (3) 
{"*2": 4, "*1": 1, "*3": 7, "*0": 2, "*4": 8}

>  <role_mapidx>  (3) 
{"*2": 3, "*1": 0, "*3": 6, "*0": 1, "*4": 7}

>  <ordered_mapped_smiles>  (3) 
[N:1]([NH:2][OH:3])([H:4])[H:5].[C:6]([C:7]([C:8]([O:9][C:10]([C:11]([H:20])([H:21])[H:22])([H:18])[H:19])([H:16])[H:17])[H:15])([H:12])([H:13])[H:14]

>  <mol_properties>  (3) 
{"0": {"label": "*1", "atom_type": "N3s"}, "1": {"label": "*0", "atom_type": "N3s"}, "3": {"label": "*2", "atom_type": "H0"}, "6": {"label": "*3", "atom_type": "Cs"}, "7": {"label": "*4", "atom_type": "Cs"}}

>  <level_of_theory>  (3) 
wb97xd/def2tzvp

>  <lot_method>  (3) 
wb97xd

>  <lot_basis>  (3) 
def2tzvp

>  <spin_multiplicity>  (3) 
2.0

>  <optical_isomers>  (3) 
2.0

>  <modes>  (3) 
IdealGasTranslation(mass=(133.098, 'amu')),         NonlinearRotor(             inertia = ([219.487, 712.685, 860.747

>  <frequency_value>  (3) 
-1976.73

>  <frequency_units>  (3) 
cm^-1

>  <frequency_list>  (3) 
unknown

>  <arkane_path>  (3) 
/home/calvin/Dropbox/PersonalFolders/Calvin/ATLAS_Converged/rmg_rxn_1475/output/rxns/TS0/arkane/output.py

>  <path_exists>  (3) 
True

>  <E0_value>  (3) 
-1202480.0

>  <E0_units>  (3) 
kJ/mol

>  <thermo_class>  (3) 
unknown

>  <Cp0_value>  (3) 
unknown

>  <Cp0_units>  (3) 
unknown

>  <CpInf_value>  (3) 
unknown

>  <CpInf_units>  (3) 
unknown

>  <Tmin_value>  (3) 
unknown

>  <Tmin_units>  (3) 
unknown

>  <Tmax_value>  (3) 
unknown

>  <Tmax_units>  (3) 
unknown

>  <polynomials>  (3) 
unknown

>  <H298_value>  (3) 
unknown

>  <H298_units>  (3) 
unknown

>  <S298_value>  (3) 
unknown

>  <S298_units>  (3) 
unknown

>  <Cp_T_value_list>  (3) 
unknown

>  <Cp_T_units>  (3) 
unknown

>  <T_list>  (3) 
unknown

>  <T_units>  (3) 
unknown

>  <yaml_path>  (3) 
unknown

>  <frequencies_cm1>  (3) 
unknown

>  <ZPE_kJmol>  (3) 
unknown

>  <E_elec_kJmol>  (3) 
unknown

>  <E0_minus_Eelec_plus_ZPE_kJmol>  (3) 
unknown

>  <rxn>  (3) 
unknown

>  <species_type>  (3) 
unknown

>  <species_folder>  (3) 
unknown

>  <frequencies_cm1_list>  (3) 
[]

>  <ts_imag_freq_cm1>  (3) 
-2000.742

>  <ts_freq_out_path>  (3) 
/home/calvin/Dropbox/PersonalFolders/Calvin/ATLAS_Converged/rmg_rxn_1475/output/rxns/TS0/geometry/freq.out

>  <E0_kJmol>  (3) 
-1.20248e+06

>  <H298_kJmol>  (3) 
unknown

$$$$

     RDKit          3D

  4  3  0  0  0  0  0  0  0  0999 V2000
   -0.8019    0.4189    0.0192 N   0  0  0  0  0  0  0  0  0  1  0  0
    0.3609    0.8266    0.0061 N   0  0  0  0  0  0  0  0  0  2  0  0
    0.8339    1.9183    0.0142 O   0  0  0  0  0  1  0  0  0  3  0  0
   -0.7779   -0.6002    0.0040 H   0  0  0  0  0  0  0  0  0  4  0  0
  1  2  1  0
  1  4  1  0
  2  3  1  0
M  RAD  1   3   2
M  END
>  <rmg_smiles>  (4) 
[NH][N][O]

>  <rmg_adjacency_list>  (4) 
multiplicity 2
1 O u1 p2 c0 {3,S}
2 N u0 p1 c0 {3,S} {4,S}
3 N u0 p1 c0 {1,S} {2,S}
4 H u0 p0 c0 {2,S}


>  <multiplicity>  (4) 
2

>  <reaction>  (4) 
rmg_rxn_1475

>  <type>  (4) 
r1

>  <role_mapnums>  (4) 
{}

>  <role_mapidx>  (4) 
{}

>  <ordered_mapped_smiles>  (4) 
[NH:1]([NH:2][O:3])[H:4]

>  <level_of_theory>  (4) 
wb97xd/def2tzvp

>  <lot_method>  (4) 
wb97xd

>  <lot_basis>  (4) 
def2tzvp

>  <spin_multiplicity>  (4) 
2.0

>  <optical_isomers>  (4) 
1.0

>  <modes>  (4) 
IdealGasTranslation(mass=(45.0089, 'amu')),         NonlinearRotor(             inertia = ([2.57086, 40.1656, 42.7365

>  <frequency_value>  (4) 
unknown

>  <frequency_units>  (4) 
unknown

>  <frequency_list>  (4) 
unknown

>  <arkane_path>  (4) 
/home/calvin/Dropbox/PersonalFolders/Calvin/ATLAS_Converged/rmg_rxn_1475/output/Species/rmg_rxn_1475_p1_sbr-NH-sbrN=O/arkane/output.py

>  <path_exists>  (4) 
True

>  <E0_value>  (4) 
-486262.5359899363

>  <E0_units>  (4) 
kJ/mol

>  <thermo_class>  (4) 
NASA

>  <Cp0_value>  (4) 
33.257888

>  <Cp0_units>  (4) 
J/(mol*K)

>  <CpInf_value>  (4) 
83.14472

>  <CpInf_units>  (4) 
J/(mol*K)

>  <Tmin_value>  (4) 
10.0

>  <Tmin_units>  (4) 
K

>  <Tmax_value>  (4) 
3000.0

>  <Tmax_units>  (4) 
K

>  <polynomials>  (4) 
[{"name": "polynomial1", "class": "NASAPolynomial", "Tmin_value": 10.0, "Tmin_units": "K", "Tmax_value": 676.9921071589606, "Tmax_units": "K", "coeffs": [4.052620261454503, -0.003954731767705262, 3.6687508557980155e-05, -5.192217441285821e-08, 2.3892499392073696e-11, -58483875.09093844, 6.697601255809246]}, {"name": "polynomial2", "class": "NASAPolynomial", "Tmin_value": 676.9921071589606, "Tmin_units": "K", "Tmax_value": 3000.0, "Tmax_units": "K", "coeffs": [2.568708180565944, 0.010096638421347922, -6.1528648012201994e-06, 1.7932353366274705e-09, -2.0078179070337678e-13, -58483795.25224596, 12.38349699742211]}]

>  <H298_value>  (4) 
-116217.0238123498

>  <H298_units>  (4) 
kcal/mol

>  <S298_value>  (4) 
59.269100903572784

>  <S298_units>  (4) 
cal/(mol*K)

>  <Cp_T_value_list>  (4) 
[9.855962067339554, 11.186696308389417, 12.420320683007862, 13.450531461225838, 14.991648229270968, 16.10618021062707, 17.69693128223604, 18.449026156308282, 18.8553435745084]

>  <Cp_T_units>  (4) 
cal/(mol*K)

>  <T_list>  (4) 
[300.0, 400.0, 500.0, 600.0, 800.0, 1000.0, 1500.0, 2000.0, 2400.0]

>  <T_units>  (4) 
K

>  <yaml_path>  (4) 
/home/calvin/Dropbox/PersonalFolders/Calvin/ATLAS_Converged/rmg_rxn_1475/output/Species/rmg_rxn_1475_p1_sbr-NH-sbrN=O/rmg_rxn_1475_p1_sbr-NH-sbrN=O.yml

>  <frequencies_cm1>  (4) 
[669.5654036266, 780.2955419115999, 1274.34766774432, 1377.4211173975198, 1744.5026846634398, 3450.4884486669994]

>  <ZPE_kJmol>  (4) 
55.6061572725318

>  <E_elec_kJmol>  (4) 
-486318.14214720886

>  <E0_minus_Eelec_plus_ZPE_kJmol>  (4) 
0.0

>  <rxn>  (4) 
rmg_rxn_1475

>  <species_type>  (4) 
p0

>  <species_folder>  (4) 
rmg_rxn_1475_p1_sbr-NH-sbrN=O

>  <frequencies_cm1_list>  (4) 
[669.5654036266, 780.2955419115999, 1274.34766774432, 1377.4211173975198, 1744.5026846634398, 3450.4884486669994]

>  <E0_kJmol>  (4) 
-486263

>  <H298_kJmol>  (4) 
-486252

$$$$

     RDKit          3D

 17 16  0  0  0  0  0  0  0  0999 V2000
    2.3993   -0.7259   -0.8796 C   0  0  0  0  0  0  0  0  0  1  0  0
    1.8173   -0.7170    0.4851 C   0  0  0  0  0  3  0  0  0  2  0  0
    2.6779   -0.5182    1.6852 C   0  0  0  0  0  0  0  0  0  3  0  0
    3.8710   -1.2723    1.6674 O   0  0  0  0  0  0  0  0  0  4  0  0
    3.6589   -2.6587    1.8015 C   0  0  0  0  0  0  0  0  0  5  0  0
    4.9969   -3.3586    1.7556 C   0  0  0  0  0  0  0  0  0  6  0  0
    3.3755   -1.2152   -0.8894 H   0  0  0  0  0  0  0  0  0  7  0  0
    1.7457   -1.2284   -1.5943 H   0  0  0  0  0  0  0  0  0  8  0  0
    2.5578    0.2962   -1.2545 H   0  0  0  0  0  0  0  0  0  9  0  0
    0.7445   -0.6275    0.6059 H   0  0  0  0  0  0  0  0  0 10  0  0
    2.1057   -0.7316    2.5992 H   0  0  0  0  0  0  0  0  0 11  0  0
    3.0103    0.5272    1.7516 H   0  0  0  0  0  0  0  0  0 12  0  0
    3.0050   -3.0235    0.9977 H   0  0  0  0  0  0  0  0  0 13  0  0
    3.1469   -2.8645    2.7531 H   0  0  0  0  0  0  0  0  0 14  0  0
    5.6430   -3.0039    2.5594 H   0  0  0  0  0  0  0  0  0 15  0  0
    4.8641   -4.4360    1.8660 H   0  0  0  0  0  0  0  0  0 16  0  0
    5.4957   -3.1672    0.8046 H   0  0  0  0  0  0  0  0  0 17  0  0
  1  8  1  0
  1  7  1  0
  1  9  1  0
  1  2  1  0
  2 10  1  0
  2  3  1  0
  3 11  1  0
  3  4  1  0
  3 12  1  0
  4  5  1  0
  5 13  1  0
  5  6  1  0
  5 14  1  0
  6 17  1  0
  6 15  1  0
  6 16  1  0
M  RAD  1   2   2
M  END
>  <rmg_smiles>  (5) 
C[CH]COCC

>  <rmg_adjacency_list>  (5) 
multiplicity 2
1  O u0 p2 c0 {2,S} {3,S}
2  C u0 p0 c0 {1,S} {4,S} {7,S} {8,S}
3  C u0 p0 c0 {1,S} {6,S} {9,S} {10,S}
4  C u0 p0 c0 {2,S} {11,S} {12,S} {13,S}
5  C u0 p0 c0 {6,S} {14,S} {15,S} {16,S}
6  C u1 p0 c0 {3,S} {5,S} {17,S}
7  H u0 p0 c0 {2,S}
8  H u0 p0 c0 {2,S}
9  H u0 p0 c0 {3,S}
10 H u0 p0 c0 {3,S}
11 H u0 p0 c0 {4,S}
12 H u0 p0 c0 {4,S}
13 H u0 p0 c0 {4,S}
14 H u0 p0 c0 {5,S}
15 H u0 p0 c0 {5,S}
16 H u0 p0 c0 {5,S}
17 H u0 p0 c0 {6,S}


>  <multiplicity>  (5) 
2

>  <reaction>  (5) 
rmg_rxn_1475

>  <type>  (5) 
r2

>  <role_mapnums>  (5) 
{}

>  <role_mapidx>  (5) 
{}

>  <ordered_mapped_smiles>  (5) 
[C:1]([C:2]([C:3]([O:4][C:5]([C:6]([H:15])([H:16])[H:17])([H:13])[H:14])([H:11])[H:12])[H:10])([H:7])([H:8])[H:9]

>  <level_of_theory>  (5) 
wb97xd/def2tzvp

>  <lot_method>  (5) 
wb97xd

>  <lot_basis>  (5) 
def2tzvp

>  <spin_multiplicity>  (5) 
2.0

>  <optical_isomers>  (5) 
2.0

>  <modes>  (5) 
IdealGasTranslation(mass=(87.081, 'amu')),         NonlinearRotor(             inertia = ([77.2255, 257.211, 294.472

>  <frequency_value>  (5) 
unknown

>  <frequency_units>  (5) 
unknown

>  <frequency_list>  (5) 
unknown

>  <arkane_path>  (5) 
/home/calvin/Dropbox/PersonalFolders/Calvin/ATLAS_Converged/rmg_rxn_1475/output/Species/rmg_rxn_1475_r2_Csbr-CH-sbrCOCC/arkane/output.py

>  <path_exists>  (5) 
True

>  <E0_value>  (5) 
-714606.8253684428

>  <E0_units>  (5) 
kJ/mol

>  <thermo_class>  (5) 
NASA

>  <Cp0_value>  (5) 
33.257888

>  <Cp0_units>  (5) 
J/(mol*K)

>  <CpInf_value>  (5) 
407.409128

>  <CpInf_units>  (5) 
J/(mol*K)

>  <Tmin_value>  (5) 
10.0

>  <Tmin_units>  (5) 
K

>  <Tmax_value>  (5) 
3000.0

>  <Tmax_units>  (5) 
K

>  <polynomials>  (5) 
[{"name": "polynomial1", "class": "NASAPolynomial", "Tmin_value": 10.0, "Tmin_units": "K", "Tmax_value": 417.48366752766907, "Tmax_units": "K", "coeffs": [3.371710260367717, 0.06751515529081918, -0.00021419326134089478, 5.55321486035094e-07, -4.841487901490717e-10, -85947346.52177061, 12.699399549539766]}, {"name": "polynomial2", "class": "NASAPolynomial", "Tmin_value": 417.48366752766907, "Tmin_units": "K", "Tmax_value": 3000.0, "Tmax_units": "K", "coeffs": [-0.983429943910518, 0.06366224875335745, -3.6581500232475296e-05, 1.0182072217773507e-08, -1.102266081168474e-12, -85946585.66515122, 34.66344723069078]}]

>  <H298_value>  (5) 
-170789.2030444093

>  <H298_units>  (5) 
kcal/mol

>  <S298_value>  (5) 
92.32827304571522

>  <S298_units>  (5) 
cal/(mol*K)

>  <Cp_T_value_list>  (5) 
[30.644588740591573, 38.260117272479235, 45.51932326502992, 51.86818248028013, 62.191498797087384, 69.90421091576034, 81.44732642755689, 87.10996617013711, 89.98657049419913]

>  <Cp_T_units>  (5) 
cal/(mol*K)

>  <T_list>  (5) 
[300.0, 400.0, 500.0, 600.0, 800.0, 1000.0, 1500.0, 2000.0, 2400.0]

>  <T_units>  (5) 
K

>  <yaml_path>  (5) 
/home/calvin/Dropbox/PersonalFolders/Calvin/ATLAS_Converged/rmg_rxn_1475/output/Species/rmg_rxn_1475_r2_Csbr-CH-sbrCOCC/rmg_rxn_1475_r2_Csbr-CH-sbrCOCC.yml

>  <frequencies_cm1>  (5) 
[58.486113970439995, 80.89995405491999, 91.01502343127999, 148.7045671046, 233.68351043959998, 268.54032792391996, 295.53444721683996, 386.91342087008, 426.66639888756004, 628.1780831029599, 820.4468050776399, 853.1130542448799, 876.6050110245999, 927.82585452648, 984.0183954000399, 1025.0280317310799, 1086.20600394696, 1127.14010343948, 1146.72474557212, 1165.95917145344, 1177.46823884976, 1286.9897877184399, 1294.8456189245198, 1363.7489496253997, 1371.8863272295998, 1388.0786786141598, 1403.05557359708, 1423.88314007264, 1459.15197667616, 1465.5382730237598, 1469.9674785551601, 1470.4687684835199, 1486.8533954570398, 1514.4861443847199, 2944.5564382306798, 2947.06288787248, 2949.60367244088, 2978.74029115364, 2981.5557551348397, 3022.6203273484402, 3042.07449676, 3090.13652701468, 3099.94258205164, 3102.6756422089998, 3156.8286884425197]

>  <ZPE_kJmol>  (5) 
391.920120724621

>  <E_elec_kJmol>  (5) 
-714998.7454891674

>  <E0_minus_Eelec_plus_ZPE_kJmol>  (5) 
0.0

>  <rxn>  (5) 
rmg_rxn_1475

>  <species_type>  (5) 
r1

>  <species_folder>  (5) 
rmg_rxn_1475_r2_Csbr-CH-sbrCOCC

>  <frequencies_cm1_list>  (5) 
[58.486113970439995, 80.89995405491999, 91.01502343127999, 148.7045671046, 233.68351043959998, 268.54032792391996, 295.53444721683996, 386.91342087008, 426.66639888756004, 628.1780831029599, 820.4468050776399, 853.1130542448799, 876.6050110245999, 927.82585452648, 984.0183954000399, 1025.0280317310799, 1086.20600394696, 1127.14010343948, 1146.72474557212, 1165.95917145344, 1177.46823884976, 1286.9897877184399, 1294.8456189245198, 1363.7489496253997, 1371.8863272295998, 1388.0786786141598, 1403.05557359708, 1423.88314007264, 1459.15197667616, 1465.5382730237598, 1469.9674785551601, 1470.4687684835199, 1486.8533954570398, 1514.4861443847199, 2944.5564382306798, 2947.06288787248, 2949.60367244088, 2978.74029115364, 2981.5557551348397, 3022.6203273484402, 3042.07449676, 3090.13652701468, 3099.94258205164, 3102.6756422089998, 3156.8286884425197]

>  <E0_kJmol>  (5) 
-714607

>  <H298_kJmol>  (5) 
-714582

$$$$
