
     RDKit          3D

  9  8  0  0  0  0  0  0  0  0999 V2000
    1.1145    0.5944    0.0001 C   0  0  0  0  0  0  0  0  0  1  0  0
    0.2280   -0.3849    0.0001 C   0  0  0  0  0  0  0  0  0  2  0  0
   -1.2637   -0.2045   -0.0002 C   0  0  0  0  0  0  0  0  0  3  0  0
    2.1591    0.2693    0.0001 H   0  0  0  0  0  0  0  0  0  4  0  0
    1.0023    1.6827   -0.0002 H   0  0  0  0  0  0  0  0  0  5  0  0
    0.6040   -1.4162    0.0003 H   0  0  0  0  0  0  0  0  0  6  0  0
   -1.7072   -0.6880   -0.8846 H   0  0  0  0  0  0  0  0  0  7  0  0
   -1.5489    0.8565   -0.0033 H   0  0  0  0  0  0  0  0  0  8  0  0
   -1.7069   -0.6827    0.8873 H   0  0  0  0  0  0  0  0  0  9  0  0
  1  5  1  0
  1  4  1  0
  1  2  1  0
  2  6  1  0
  2  3  1  0
  3  8  1  0
  3  7  1  0
  3  9  1  0
M  END
>  <rmg_smiles>  (1) 
[CH2][CH]C

>  <rmg_adjacency_list>  (1) 
1 C u0 p0 c0 {2,S} {4,S} {5,S} {6,S}
2 C u0 p0 c0 {1,S} {3,S} {7,S}
3 C u0 p0 c0 {2,S} {8,S} {9,S}
4 H u0 p0 c0 {1,S}
5 H u0 p0 c0 {1,S}
6 H u0 p0 c0 {1,S}
7 H u0 p0 c0 {2,S}
8 H u0 p0 c0 {3,S}
9 H u0 p0 c0 {3,S}


>  <multiplicity>  (1) 
1

>  <reaction>  (1) 
rmg_rxn_1163

>  <type>  (1) 
r1h

>  <role_mapnums>  (1) 
{"r1h_a": 1, "r1h_h": 4}

>  <role_mapidx>  (1) 
{"r1h_a": 0, "r1h_h": 3}

>  <ordered_mapped_smiles>  (1) 
[CH:1]([CH:2]([C:3]([H:7])([H:8])[H:9])[H:6])([H:4])[H:5]

>  <mol_properties>  (1) 
{"0": {"label": "donator", "atom_type": "Cs"}, "3": {"label": "d_hydrogen", "atom_type": "H0"}}

>  <level_of_theory>  (1) 
wb97xd/def2tzvp

>  <lot_method>  (1) 
wb97xd

>  <lot_basis>  (1) 
def2tzvp

>  <spin_multiplicity>  (1) 
1.0

>  <optical_isomers>  (1) 
2.0

>  <modes>  (1) 
IdealGasTranslation(mass=(42.047, 'amu')),         NonlinearRotor(             inertia = ([10.9527, 53.8719, 61.6581

>  <frequency_value>  (1) 
unknown

>  <frequency_units>  (1) 
unknown

>  <frequency_list>  (1) 
unknown

>  <arkane_path>  (1) 
/home/calvin/Dropbox/PersonalFolders/Calvin/ATLAS_Converged/rmg_rxn_1163/output/Species/rmg_rxn_1163_r2_C=CC/arkane/output.py

>  <path_exists>  (1) 
True

>  <E0_value>  (1) 
-309368.2939292528

>  <E0_units>  (1) 
kJ/mol

>  <thermo_class>  (1) 
NASA

>  <Cp0_value>  (1) 
33.257888

>  <Cp0_units>  (1) 
J/(mol*K)

>  <CpInf_value>  (1) 
207.8618

>  <CpInf_units>  (1) 
J/(mol*K)

>  <Tmin_value>  (1) 
10.0

>  <Tmin_units>  (1) 
K

>  <Tmax_value>  (1) 
3000.0

>  <Tmax_units>  (1) 
K

>  <polynomials>  (1) 
[{"name": "polynomial1", "class": "NASAPolynomial", "Tmin_value": 10.0, "Tmin_units": "K", "Tmax_value": 443.7702541275362, "Tmax_units": "K", "coeffs": [4.037493337650119, -0.0025529234821113555, 7.293202608482641e-05, -9.432145151020152e-08, 3.4462917424126785e-11, -37208411.363720745, 7.577786141789354]}, {"name": "polynomial2", "class": "NASAPolynomial", "Tmin_value": 443.7702541275362, "Tmin_units": "K", "Tmax_value": 3000.0, "Tmax_units": "K", "coeffs": [-0.5646047763679809, 0.03161671588859422, -1.7849647114209424e-05, 4.927519678875225e-09, -5.318542292203925e-13, -37207930.90885763, 26.852513235003023]}]

>  <H298_value>  (1) 
-73937.69014229135

>  <H298_units>  (1) 
kcal/mol

>  <S298_value>  (1) 
64.17332963526479

>  <S298_units>  (1) 
cal/(mol*K)

>  <Cp_T_value_list>  (1) 
[15.039117356819386, 18.940315365375863, 22.582695079060233, 25.783940239052157, 31.020365744109274, 34.97111724307873, 41.00924515537103, 44.077687488520375, 45.65394532147635]

>  <Cp_T_units>  (1) 
cal/(mol*K)

>  <T_list>  (1) 
[300.0, 400.0, 500.0, 600.0, 800.0, 1000.0, 1500.0, 2000.0, 2400.0]

>  <T_units>  (1) 
K

>  <yaml_path>  (1) 
/home/calvin/Dropbox/PersonalFolders/Calvin/ATLAS_Converged/rmg_rxn_1163/output/Species/rmg_rxn_1163_r2_C=CC/rmg_rxn_1163_r2_C=CC.yml

>  <frequencies_cm1>  (1) 
[248.41319395099998, 447.04761131732, 601.7607905769199, 928.0043961448, 949.7658726238799, 950.2946304935199, 1021.7044108361999, 1074.5458628735998, 1192.9601577316798, 1308.2637082398, 1396.09931746792, 1437.9535929933202, 1470.12541921752, 1479.8696713866, 1668.03880312524, 2988.2029969246, 3057.39474100892, 3063.6917665473593, 3096.47475446504, 3116.9727056452393, 3186.8786162028396]

>  <ZPE_kJmol>  (1) 
207.45921919406075

>  <E_elec_kJmol>  (1) 
-309575.75314844685

>  <E0_minus_Eelec_plus_ZPE_kJmol>  (1) 
0.0

>  <rxn>  (1) 
rmg_rxn_1163

>  <species_type>  (1) 
r1

>  <species_folder>  (1) 
rmg_rxn_1163_r2_C=CC

>  <frequencies_cm1_list>  (1) 
[248.41319395099998, 447.04761131732, 601.7607905769199, 928.0043961448, 949.7658726238799, 950.2946304935199, 1021.7044108361999, 1074.5458628735998, 1192.9601577316798, 1308.2637082398, 1396.09931746792, 1437.9535929933202, 1470.12541921752, 1479.8696713866, 1668.03880312524, 2988.2029969246, 3057.39474100892, 3063.6917665473593, 3096.47475446504, 3116.9727056452393, 3186.8786162028396]

>  <E0_kJmol>  (1) 
-309368

>  <H298_kJmol>  (1) 
-309355

$$$$

     RDKit          3D

  2  1  0  0  0  0  0  0  0  0999 V2000
    0.0589   -0.0323   -0.0000 O   0  0  0  0  0  1  0  0  0  1  0  0
   -0.7829    0.4291    0.0002 H   0  0  0  0  0  0  0  0  0  2  0  0
  1  2  1  0
M  RAD  1   1   2
M  END
>  <rmg_smiles>  (2) 
[OH]

>  <rmg_adjacency_list>  (2) 
multiplicity 2
1 O u1 p2 c0 {2,S}
2 H u0 p0 c0 {1,S}


>  <multiplicity>  (2) 
2

>  <reaction>  (2) 
rmg_rxn_1163

>  <type>  (2) 
r2h

>  <role_mapnums>  (2) 
{"r2h_a": 1, "r2h_h": 2}

>  <role_mapidx>  (2) 
{"r2h_a": 0, "r2h_h": 1}

>  <ordered_mapped_smiles>  (2) 
[O:1][H:2]

>  <mol_properties>  (2) 
{"0": {"label": "acceptor", "atom_type": "O2s"}, "1": {"label": "a_hydrogen", "atom_type": "H0"}}

>  <level_of_theory>  (2) 
wb97xd/def2tzvp

>  <lot_method>  (2) 
wb97xd

>  <lot_basis>  (2) 
def2tzvp

>  <spin_multiplicity>  (2) 
2.0

>  <optical_isomers>  (2) 
1.0

>  <modes>  (2) 
IdealGasTranslation(mass=(17.0027, 'amu')),         LinearRotor(inertia=(0.893962, 'amu*angstrom^2'), symmetry=1),         HarmonicOscillator(frequencies=([3724.63

>  <frequency_value>  (2) 
unknown

>  <frequency_units>  (2) 
unknown

>  <frequency_list>  (2) 
unknown

>  <arkane_path>  (2) 
/home/calvin/Dropbox/PersonalFolders/Calvin/ATLAS_Converged/rmg_rxn_1163/output/Species/rmg_rxn_1163_p1_sbr-OH-sbr/arkane/output.py

>  <path_exists>  (2) 
True

>  <E0_value>  (2) 
-198836.11500662245

>  <E0_units>  (2) 
kJ/mol

>  <thermo_class>  (2) 
NASA

>  <Cp0_value>  (2) 
29.100652

>  <Cp0_units>  (2) 
J/(mol*K)

>  <CpInf_value>  (2) 
37.415124

>  <CpInf_units>  (2) 
J/(mol*K)

>  <Tmin_value>  (2) 
10.0

>  <Tmin_units>  (2) 
K

>  <Tmax_value>  (2) 
3000.0

>  <Tmax_units>  (2) 
K

>  <polynomials>  (2) 
[{"name": "polynomial1", "class": "NASAPolynomial", "Tmin_value": 10.0, "Tmin_units": "K", "Tmax_value": 985.4633103339054, "Tmax_units": "K", "coeffs": [3.496867247333508, 0.00018342449890259614, -9.934008380455364e-07, 1.5607090885398485e-09, -6.057976047375529e-13, -23914460.713281557, 1.4723763541989374]}, {"name": "polynomial2", "class": "NASAPolynomial", "Tmin_value": 985.4633103339054, "Tmin_units": "K", "Tmax_value": 3000.0, "Tmax_units": "K", "coeffs": [3.453605826539838, -0.000298394996284096, 7.406626419620715e-07, -2.893423009710026e-10, 3.527332886378172e-14, -23914420.264604878, 1.842419488011591]}]

>  <H298_value>  (2) 
-47520.896675510776

>  <H298_units>  (2) 
kcal/mol

>  <S298_value>  (2) 
42.56095640204575

>  <S298_units>  (2) 
cal/(mol*K)

>  <Cp_T_value_list>  (2) 
[6.954667739233619, 6.946617902371048, 6.950166451559511, 6.9709205689453935, 7.072028097634187, 7.2370175778306685, 7.699521485448446, 8.086144468717986, 8.29478093025019]

>  <Cp_T_units>  (2) 
cal/(mol*K)

>  <T_list>  (2) 
[300.0, 400.0, 500.0, 600.0, 800.0, 1000.0, 1500.0, 2000.0, 2400.0]

>  <T_units>  (2) 
K

>  <yaml_path>  (2) 
/home/calvin/Dropbox/PersonalFolders/Calvin/ATLAS_Converged/rmg_rxn_1163/output/Species/rmg_rxn_1163_p1_sbr-OH-sbr/rmg_rxn_1163_p1_sbr-OH-sbr.yml

>  <frequencies_cm1>  (2) 
[3724.62536962672]

>  <ZPE_kJmol>  (2) 
22.278213462109388

>  <E_elec_kJmol>  (2) 
-198858.39322008457

>  <E0_minus_Eelec_plus_ZPE_kJmol>  (2) 
0.0

>  <rxn>  (2) 
rmg_rxn_1163

>  <species_type>  (2) 
p0

>  <species_folder>  (2) 
rmg_rxn_1163_p1_sbr-OH-sbr

>  <frequencies_cm1_list>  (2) 
[3724.62536962672]

>  <E0_kJmol>  (2) 
-198836

>  <H298_kJmol>  (2) 
-198827

$$$$

     RDKit          3D

 10  8  0  0  0  0  0  0  0  0999 V2000
    2.5731   -0.2660   -0.0001 O   0  0  0  0  0  1  0  0  0  1  0  0
    0.2762    0.6843    0.0002 C   0  0  0  0  0  3  0  0  0  2  0  0
   -0.6103   -0.2951    0.0001 C   0  0  0  0  0  0  0  0  0  3  0  0
   -2.1019   -0.1147   -0.0001 C   0  0  0  0  0  0  0  0  0  4  0  0
    1.5795    0.2787    0.0001 H   0  0  0  0  0  0  0  0  0  5  0  0
    0.1640    1.7725   -0.0002 H   0  0  0  0  0  0  0  0  0  6  0  0
   -0.2343   -1.3263    0.0004 H   0  0  0  0  0  0  0  0  0  7  0  0
   -2.5455   -0.5982   -0.8845 H   0  0  0  0  0  0  0  0  0  8  0  0
   -2.3872    0.9463   -0.0032 H   0  0  0  0  0  0  0  0  0  9  0  0
   -2.5452   -0.5929    0.8873 H   0  0  0  0  0  0  0  0  0 10  0  0
  1  5  1  0
  2  6  1  0
  2  3  1  0
  3  4  1  0
  3  7  1  0
  4  8  1  0
  4  9  1  0
  4 10  1  0
M  RAD  2   1   2   2   2
M  END
>  <rmg_smiles>  (3) 
[CH][CH]C.[OH]

>  <rmg_adjacency_list>  (3) 
multiplicity 3
1  O u1 p2 c0 {10,S}
2  C u0 p0 c0 {3,S} {5,S} {6,S} {7,S}
3  C u0 p0 c0 {2,S} {4,S} {8,S}
4  C u1 p1 c0 {3,S} {9,S}
5  H u0 p0 c0 {2,S}
6  H u0 p0 c0 {2,S}
7  H u0 p0 c0 {2,S}
8  H u0 p0 c0 {3,S}
9  H u0 p0 c0 {4,S}
10 H u0 p0 c0 {1,S}


>  <multiplicity>  (3) 
3

>  <reaction>  (3) 
rmg_rxn_1163

>  <type>  (3) 
ts

>  <role_mapnums>  (3) 
{"*2": 5, "*1": 2, "*3": 1, "*0": null, "*4": 3}

>  <role_mapidx>  (3) 
{"*2": 4, "*1": 1, "*3": 0, "*4": 2}

>  <ordered_mapped_smiles>  (3) 
[O:1][H:5].[CH:2]([CH:3]([C:4]([H:8])([H:9])[H:10])[H:7])[H:6]

>  <mol_properties>  (3) 
{"0": {"label": "*3", "atom_type": "O2s"}, "1": {"label": "*1", "atom_type": "C2s"}, "2": {"label": "*4", "atom_type": "Cs"}, "4": {"label": "*2", "atom_type": "H0"}}

>  <level_of_theory>  (3) 
wb97xd/def2tzvp

>  <lot_method>  (3) 
wb97xd

>  <lot_basis>  (3) 
def2tzvp

>  <spin_multiplicity>  (3) 
3.0

>  <optical_isomers>  (3) 
1.0

>  <modes>  (3) 
IdealGasTranslation(mass=(58.0419, 'amu')),         NonlinearRotor(             inertia = ([16.1488, 186.699, 199.684

>  <frequency_value>  (3) 
-1308.97

>  <frequency_units>  (3) 
cm^-1

>  <frequency_list>  (3) 
unknown

>  <arkane_path>  (3) 
/home/calvin/Dropbox/PersonalFolders/Calvin/ATLAS_Converged/rmg_rxn_1163/output/rxns/TS0/arkane/output.py

>  <path_exists>  (3) 
True

>  <E0_value>  (3) 
-506433.0

>  <E0_units>  (3) 
kJ/mol

>  <thermo_class>  (3) 
unknown

>  <Cp0_value>  (3) 
unknown

>  <Cp0_units>  (3) 
unknown

>  <CpInf_value>  (3) 
unknown

>  <CpInf_units>  (3) 
unknown

>  <Tmin_value>  (3) 
unknown

>  <Tmin_units>  (3) 
unknown

>  <Tmax_value>  (3) 
unknown

>  <Tmax_units>  (3) 
unknown

>  <polynomials>  (3) 
unknown

>  <H298_value>  (3) 
unknown

>  <H298_units>  (3) 
unknown

>  <S298_value>  (3) 
unknown

>  <S298_units>  (3) 
unknown

>  <Cp_T_value_list>  (3) 
unknown

>  <Cp_T_units>  (3) 
unknown

>  <T_list>  (3) 
unknown

>  <T_units>  (3) 
unknown

>  <yaml_path>  (3) 
unknown

>  <frequencies_cm1>  (3) 
unknown

>  <ZPE_kJmol>  (3) 
unknown

>  <E_elec_kJmol>  (3) 
unknown

>  <E0_minus_Eelec_plus_ZPE_kJmol>  (3) 
unknown

>  <rxn>  (3) 
unknown

>  <species_type>  (3) 
unknown

>  <species_folder>  (3) 
unknown

>  <frequencies_cm1_list>  (3) 
[]

>  <ts_imag_freq_cm1>  (3) 
-1324.8702

>  <ts_freq_out_path>  (3) 
/home/calvin/Dropbox/PersonalFolders/Calvin/ATLAS_Converged/rmg_rxn_1163/output/rxns/TS0/geometry/freq.out

>  <E0_kJmol>  (3) 
-506433

>  <H298_kJmol>  (3) 
unknown

$$$$

     RDKit          3D

  8  7  0  0  0  0  0  0  0  0999 V2000
   -1.2175   -0.3643    0.0005 C   0  0  0  0  0  3  0  0  0  1  0  0
   -0.2018    0.5132    0.0014 C   0  0  0  0  0  0  0  0  0  2  0  0
    1.1283   -0.1797    0.0010 C   0  0  0  0  0  0  0  0  0  3  0  0
   -2.5072   -0.2196   -0.0003 H   0  0  0  0  0  0  0  0  0  4  0  0
   -0.1961    1.5628    0.0026 H   0  0  0  0  0  0  0  0  0  5  0  0
    1.7141    0.0860   -0.8855 H   0  0  0  0  0  0  0  0  0  6  0  0
    1.0028   -1.2905   -0.0222 H   0  0  0  0  0  0  0  0  0  7  0  0
    1.7328    0.0460    0.8882 H   0  0  0  0  0  0  0  0  0  8  0  0
  1  4  1  0
  1  2  1  0
  2  5  1  0
  2  3  1  0
  3  6  1  0
  3  7  1  0
  3  8  1  0
M  RAD  1   1   2
M  END
>  <rmg_smiles>  (4) 
[CH][CH]C

>  <rmg_adjacency_list>  (4) 
multiplicity 2
1 C u0 p0 c0 {2,S} {4,S} {5,S} {6,S}
2 C u0 p0 c0 {1,S} {3,S} {7,S}
3 C u1 p1 c0 {2,S} {8,S}
4 H u0 p0 c0 {1,S}
5 H u0 p0 c0 {1,S}
6 H u0 p0 c0 {1,S}
7 H u0 p0 c0 {2,S}
8 H u0 p0 c0 {3,S}


>  <multiplicity>  (4) 
2

>  <reaction>  (4) 
rmg_rxn_1163

>  <type>  (4) 
r1

>  <role_mapnums>  (4) 
{}

>  <role_mapidx>  (4) 
{}

>  <ordered_mapped_smiles>  (4) 
[CH:1]([CH:2]([C:3]([H:6])([H:7])[H:8])[H:5])[H:4]

>  <level_of_theory>  (4) 
wb97xd/def2tzvp

>  <lot_method>  (4) 
wb97xd

>  <lot_basis>  (4) 
def2tzvp

>  <spin_multiplicity>  (4) 
2.0

>  <optical_isomers>  (4) 
2.0

>  <modes>  (4) 
IdealGasTranslation(mass=(41.0391, 'amu')),         NonlinearRotor(             inertia = ([10.9072, 48.4593, 56.1947

>  <frequency_value>  (4) 
unknown

>  <frequency_units>  (4) 
unknown

>  <frequency_list>  (4) 
unknown

>  <arkane_path>  (4) 
/home/calvin/Dropbox/PersonalFolders/Calvin/ATLAS_Converged/rmg_rxn_1163/output/Species/rmg_rxn_1163_p2_sbr-CH-sbr=CC/arkane/output.py

>  <path_exists>  (4) 
True

>  <E0_value>  (4) 
-307600.47452299425

>  <E0_units>  (4) 
kJ/mol

>  <thermo_class>  (4) 
NASA

>  <Cp0_value>  (4) 
33.257888

>  <Cp0_units>  (4) 
J/(mol*K)

>  <CpInf_value>  (4) 
182.918384

>  <CpInf_units>  (4) 
J/(mol*K)

>  <Tmin_value>  (4) 
10.0

>  <Tmin_units>  (4) 
K

>  <Tmax_value>  (4) 
3000.0

>  <Tmax_units>  (4) 
K

>  <polynomials>  (4) 
[{"name": "polynomial1", "class": "NASAPolynomial", "Tmin_value": 10.0, "Tmin_units": "K", "Tmax_value": 636.548892769453, "Tmax_units": "K", "coeffs": [4.055646515218961, -0.004356744052355037, 8.101367469816174e-05, -1.1843468828749175e-07, 5.594080804471229e-11, -36995792.00202264, 8.136782259487122]}, {"name": "polynomial2", "class": "NASAPolynomial", "Tmin_value": 636.548892769453, "Tmin_units": "K", "Tmax_value": 3000.0, "Tmax_units": "K", "coeffs": [0.06408641410342747, 0.029022902790588063, -1.7195880981148696e-05, 4.898507508207815e-09, -5.395877519998709e-13, -36995451.935211286, 24.270404256571084]}]

>  <H298_value>  (4) 
-73515.25272003894

>  <H298_units>  (4) 
kcal/mol

>  <S298_value>  (4) 
64.79603301015491

>  <S298_units>  (4) 
cal/(mol*K)

>  <Cp_T_value_list>  (4) 
[14.497144347323145, 18.13803156092805, 21.506855600831532, 24.392083496095957, 28.941805680942227, 32.29216124207793, 37.177669193947565, 39.50770034582645, 40.70895822697211]

>  <Cp_T_units>  (4) 
cal/(mol*K)

>  <T_list>  (4) 
[300.0, 400.0, 500.0, 600.0, 800.0, 1000.0, 1500.0, 2000.0, 2400.0]

>  <T_units>  (4) 
K

>  <yaml_path>  (4) 
/home/calvin/Dropbox/PersonalFolders/Calvin/ATLAS_Converged/rmg_rxn_1163/output/Species/rmg_rxn_1163_p2_sbr-CH-sbr=CC/rmg_rxn_1163_p2_sbr-CH-sbr=CC.yml

>  <frequencies_cm1>  (4) 
[312.87358514984, 502.74572924783996, 506.20668984912, 906.6892737115198, 1008.6571387281999, 1045.9792039424, 1105.4953657108397, 1142.1856682756, 1251.9063597185598, 1420.2642388089998, 1429.23938862224, 1486.873996413, 1491.7220880489199, 1656.60527256744, 2826.02540462216, 2996.7867285746, 3040.98951307944, 3471.3915519810794]

>  <ZPE_kJmol>  (4) 
165.10048194584184

>  <E_elec_kJmol>  (4) 
-307765.5750049401

>  <E0_minus_Eelec_plus_ZPE_kJmol>  (4) 
0.0

>  <rxn>  (4) 
rmg_rxn_1163

>  <species_type>  (4) 
p1

>  <species_folder>  (4) 
rmg_rxn_1163_p2_sbr-CH-sbr=CC

>  <frequencies_cm1_list>  (4) 
[312.87358514984, 502.74572924783996, 506.20668984912, 906.6892737115198, 1008.6571387281999, 1045.9792039424, 1105.4953657108397, 1142.1856682756, 1251.9063597185598, 1420.2642388089998, 1429.23938862224, 1486.873996413, 1491.7220880489199, 1656.60527256744, 2826.02540462216, 2996.7867285746, 3040.98951307944, 3471.3915519810794]

>  <E0_kJmol>  (4) 
-307600

>  <H298_kJmol>  (4) 
-307588

$$$$

     RDKit          3D

  1  0  0  0  0  0  0  0  0  0999 V2000
    0.0000    0.0000    0.0000 O   0  0  0  0  0 15  0  0  0  1  0  0
M  END
>  <rmg_smiles>  (5) 
[O]

>  <rmg_adjacency_list>  (5) 
multiplicity 3
1 O u2 p3 c0


>  <multiplicity>  (5) 
3

>  <reaction>  (5) 
rmg_rxn_1163

>  <type>  (5) 
r2

>  <role_mapnums>  (5) 
{}

>  <role_mapidx>  (5) 
{}

>  <ordered_mapped_smiles>  (5) 
[O:1]

>  <level_of_theory>  (5) 
wb97xd/def2tzvp

>  <lot_method>  (5) 
wb97xd

>  <lot_basis>  (5) 
def2tzvp

>  <spin_multiplicity>  (5) 
3.0

>  <optical_isomers>  (5) 
1.0

>  <modes>  (5) 
IdealGasTranslation(mass=(15.9994, 'amu')),

>  <frequency_value>  (5) 
unknown

>  <frequency_units>  (5) 
unknown

>  <frequency_list>  (5) 
unknown

>  <arkane_path>  (5) 
/home/calvin/Dropbox/PersonalFolders/Calvin/ATLAS_Converged/rmg_rxn_1163/output/Species/rmg_rxn_1163_r1_sbr-O-sbr/arkane/output.py

>  <path_exists>  (5) 
True

>  <E0_value>  (5) 
-197098.59938458708

>  <E0_units>  (5) 
kJ/mol

>  <thermo_class>  (5) 
NASA

>  <Cp0_value>  (5) 
20.78618

>  <Cp0_units>  (5) 
J/(mol*K)

>  <CpInf_value>  (5) 
20.78618

>  <CpInf_units>  (5) 
J/(mol*K)

>  <Tmin_value>  (5) 
10.0

>  <Tmin_units>  (5) 
K

>  <Tmax_value>  (5) 
3000.0

>  <Tmax_units>  (5) 
K

>  <polynomials>  (5) 
[{"name": "polynomial1", "class": "NASAPolynomial", "Tmin_value": 10.0, "Tmin_units": "K", "Tmax_value": 1853.5663026740365, "Tmax_units": "K", "coeffs": [2.500000000000126, -2.814048095438137e-15, 9.047587538332909e-18, -8.591944598242694e-21, 2.4182720553650057e-24, -23705485.977386568, 4.091313385047355]}, {"name": "polynomial2", "class": "NASAPolynomial", "Tmin_value": 1853.5663026740365, "Tmin_units": "K", "Tmax_value": 3000.0, "Tmax_units": "K", "coeffs": [2.500000000696122, -1.3129776766613561e-12, 9.140875080033424e-16, -2.782806647322001e-19, 3.1263265306749967e-23, -23705485.97738686, 4.091313381171202]}]

>  <H298_value>  (5) 
-47106.215373741215

>  <H298_units>  (5) 
kcal/mol

>  <S298_value>  (5) 
36.4335375885593

>  <S298_units>  (5) 
cal/(mol*K)

>  <Cp_T_value_list>  (5) 
[4.968016252389826, 4.968016252389978, 4.968016252390173, 4.96801625239036, 4.968016252390567, 4.968016252390427, 4.968016252389077, 4.968016252391019, 4.968016252390868]

>  <Cp_T_units>  (5) 
cal/(mol*K)

>  <T_list>  (5) 
[300.0, 400.0, 500.0, 600.0, 800.0, 1000.0, 1500.0, 2000.0, 2400.0]

>  <T_units>  (5) 
K

>  <yaml_path>  (5) 
/home/calvin/Dropbox/PersonalFolders/Calvin/ATLAS_Converged/rmg_rxn_1163/output/Species/rmg_rxn_1163_r1_sbr-O-sbr/rmg_rxn_1163_r1_sbr-O-sbr.yml

>  <frequencies_cm1>  (5) 
[]

>  <ZPE_kJmol>  (5) 
unknown

>  <E_elec_kJmol>  (5) 
unknown

>  <E0_minus_Eelec_plus_ZPE_kJmol>  (5) 
unknown

>  <rxn>  (5) 
rmg_rxn_1163

>  <species_type>  (5) 
r0

>  <species_folder>  (5) 
rmg_rxn_1163_r1_sbr-O-sbr

>  <frequencies_cm1_list>  (5) 
[]

>  <E0_kJmol>  (5) 
-197099

>  <H298_kJmol>  (5) 
-197092

$$$$
