
     RDKit          3D

 10  9  0  0  0  0  0  0  0  0999 V2000
    0.3907    1.2598    1.3544 C   0  0  0  0  0  0  0  0  0  1  0  0
    0.2018    0.2437    0.6051 C   0  0  0  0  0  2  0  0  0  2  0  0
   -0.1170   -0.7848   -0.1518 C   0  0  0  0  0  0  0  0  0  3  0  0
   -0.3933   -0.6990   -1.6228 C   0  0  0  0  0  0  0  0  0  4  0  0
   -0.5008    1.7258    1.7470 H   0  0  0  0  0  0  0  0  0  5  0  0
    1.3045    1.7483    1.6584 H   0  0  0  0  0  0  0  0  0  6  0  0
   -0.1666   -1.7655    0.3129 H   0  0  0  0  0  0  0  0  0  7  0  0
    0.3089   -1.3169   -2.1884 H   0  0  0  0  0  0  0  0  0  8  0  0
   -0.3141    0.3273   -1.9783 H   0  0  0  0  0  0  0  0  0  9  0  0
   -1.3986   -1.0647   -1.8475 H   0  0  0  0  0  0  0  0  0 10  0  0
  1  5  1  0
  1  6  1  0
  1  2  1  0
  2  3  1  0
  3  4  1  0
  3  7  1  0
  4  8  1  0
  4  9  1  0
  4 10  1  0
M  RAD  1   2   3
M  END
>  <rmg_smiles>  (1) 
[CH2][C][CH]C

>  <rmg_adjacency_list>  (1) 
1  C u0 p0 c0 {2,S} {5,S} {6,S} {7,S}
2  C u0 p0 c0 {1,S} {4,S} {8,S}
3  C u0 p0 c0 {4,S} {9,S} {10,S}
4  C u0 p1 c0 {2,S} {3,S}
5  H u0 p0 c0 {1,S}
6  H u0 p0 c0 {1,S}
7  H u0 p0 c0 {1,S}
8  H u0 p0 c0 {2,S}
9  H u0 p0 c0 {3,S}
10 H u0 p0 c0 {3,S}


>  <multiplicity>  (1) 
1

>  <reaction>  (1) 
rmg_rxn_14117

>  <type>  (1) 
r1h

>  <role_mapnums>  (1) 
{"r1h_a": 1, "r1h_h": 5}

>  <role_mapidx>  (1) 
{"r1h_a": 0, "r1h_h": 4}

>  <ordered_mapped_smiles>  (1) 
[CH:1]([C:2][CH:3]([C:4]([H:8])([H:9])[H:10])[H:7])([H:5])[H:6]

>  <mol_properties>  (1) 
{"0": {"label": "donator", "atom_type": "Cs"}, "4": {"label": "d_hydrogen", "atom_type": "H0"}}

>  <level_of_theory>  (1) 
wb97xd/def2tzvp

>  <lot_method>  (1) 
wb97xd

>  <lot_basis>  (1) 
def2tzvp

>  <spin_multiplicity>  (1) 
1.0

>  <optical_isomers>  (1) 
1.0

>  <modes>  (1) 
IdealGasTranslation(mass=(54.047, 'amu')),         NonlinearRotor(             inertia = ([14.6121, 119.467, 127.49

>  <frequency_value>  (1) 
unknown

>  <frequency_units>  (1) 
unknown

>  <frequency_list>  (1) 
unknown

>  <arkane_path>  (1) 
/home/calvin/Dropbox/PersonalFolders/Calvin/ZEUS_Converged/rmg_rxn_14117/output/Species/rmg_rxn_14117_r1_C=C=CC/arkane/output.py

>  <path_exists>  (1) 
True

>  <E0_value>  (1) 
-409296.6502421279

>  <E0_units>  (1) 
kJ/mol

>  <thermo_class>  (1) 
NASA

>  <Cp0_value>  (1) 
33.257888

>  <Cp0_units>  (1) 
J/(mol*K)

>  <CpInf_value>  (1) 
232.805216

>  <CpInf_units>  (1) 
J/(mol*K)

>  <Tmin_value>  (1) 
10.0

>  <Tmin_units>  (1) 
K

>  <Tmax_value>  (1) 
3000.0

>  <Tmax_units>  (1) 
K

>  <polynomials>  (1) 
[{"name": "polynomial1", "class": "NASAPolynomial", "Tmin_value": 10.0, "Tmin_units": "K", "Tmax_value": 452.8802664009696, "Tmax_units": "K", "coeffs": [3.9021943352433452, 0.007937521032632688, 6.664442489196733e-05, -1.2131953588307993e-07, 6.938885885775227e-11, -49227014.555544384, 8.255511443201872]}, {"name": "polynomial2", "class": "NASAPolynomial", "Tmin_value": 452.8802664009696, "Tmin_units": "K", "Tmax_value": 3000.0, "Tmax_units": "K", "coeffs": [0.958037882717614, 0.033941191741253485, -1.948265019694705e-05, 5.463813645242153e-09, -5.979209978345261e-13, -49226747.88374059, 20.12723627389473]}]

>  <H298_value>  (1) 
-97820.47439749332

>  <H298_units>  (1) 
kcal/mol

>  <S298_value>  (1) 
69.30943774444917

>  <S298_units>  (1) 
cal/(mol*K)

>  <Cp_T_value_list>  (1) 
[19.013335795722274, 23.35407848830737, 27.231838984706652, 30.626214617830076, 36.15654523435027, 40.30546036176962, 46.594544625367064, 49.786664420046236, 51.450781523093035]

>  <Cp_T_units>  (1) 
cal/(mol*K)

>  <T_list>  (1) 
[300.0, 400.0, 500.0, 600.0, 800.0, 1000.0, 1500.0, 2000.0, 2400.0]

>  <T_units>  (1) 
K

>  <yaml_path>  (1) 
/home/calvin/Dropbox/PersonalFolders/Calvin/ZEUS_Converged/rmg_rxn_14117/output/Species/rmg_rxn_14117_r1_C=C=CC/rmg_rxn_14117_r1_C=C=CC.yml

>  <frequencies_cm1>  (1) 
[164.84884959192, 210.28769145436, 340.98015606459995, 540.2944049775999, 574.7186023867599, 878.6239047086799, 884.0282221555199, 895.09093550604, 1017.79709618912, 1055.91573170044, 1088.91159616304, 1146.5530709391198, 1353.77808694076, 1399.01778622892, 1463.354571692, 1470.3726306890399, 1494.8053644576, 2061.4346581373993, 3012.63573069316, 3072.0282867258397, 3106.42501619372, 3110.62074422424, 3124.134971334, 3189.66661224276]

>  <ZPE_kJmol>  (1) 
219.25357474583132

>  <E_elec_kJmol>  (1) 
-409515.9038168737

>  <E0_minus_Eelec_plus_ZPE_kJmol>  (1) 
0.0

>  <rxn>  (1) 
rmg_rxn_14117

>  <species_type>  (1) 
r0

>  <species_folder>  (1) 
rmg_rxn_14117_r1_C=C=CC

>  <frequencies_cm1_list>  (1) 
[164.84884959192, 210.28769145436, 340.98015606459995, 540.2944049775999, 574.7186023867599, 878.6239047086799, 884.0282221555199, 895.09093550604, 1017.79709618912, 1055.91573170044, 1088.91159616304, 1146.5530709391198, 1353.77808694076, 1399.01778622892, 1463.354571692, 1470.3726306890399, 1494.8053644576, 2061.4346581373993, 3012.63573069316, 3072.0282867258397, 3106.42501619372, 3110.62074422424, 3124.134971334, 3189.66661224276]

>  <E0_kJmol>  (1) 
-409297

>  <H298_kJmol>  (1) 
-409281

$$$$

     RDKit          3D

 14 13  0  0  0  0  0  0  0  0999 V2000
    2.5413    1.0709   -0.8740 H   0  0  0  0  0  0  0  0  0  1  0  0
    1.5490    1.4056   -0.5774 C   0  0  0  0  0  0  0  0  0  2  0  0
    0.6734    0.4568   -1.0545 O   0  0  0  0  0  0  0  0  0  3  0  0
    0.6579   -0.7397   -0.3331 C   0  0  0  0  0  0  0  0  0  4  0  0
    0.1097   -0.6072    0.9502 O   0  0  0  0  0  0  0  0  0  5  0  0
   -1.2303   -0.4216    1.0561 C   0  0  0  0  0  0  0  0  0  6  0  0
   -2.1041   -0.1816    0.0890 C   0  0  0  0  0  0  0  0  0  7  0  0
    1.3952    2.3460   -1.0983 H   0  0  0  0  0  0  0  0  0  8  0  0
    1.5755    1.4936    0.5097 H   0  0  0  0  0  0  0  0  0  9  0  0
    1.6738   -1.1065   -0.1759 H   0  0  0  0  0  0  0  0  0 10  0  0
    0.0719   -1.4437   -0.9274 H   0  0  0  0  0  0  0  0  0 11  0  0
   -1.5299   -0.4999    2.0940 H   0  0  0  0  0  0  0  0  0 12  0  0
   -1.8255   -0.0526   -0.9467 H   0  0  0  0  0  0  0  0  0 13  0  0
   -3.1476   -0.0863    0.3512 H   0  0  0  0  0  0  0  0  0 14  0  0
  1  2  1  0
  2  9  1  0
  2  8  1  0
  2  3  1  0
  3  4  1  0
  4 10  1  0
  4 11  1  0
  4  5  1  0
  5  6  1  0
  6  7  1  0
  6 12  1  0
  7 13  1  0
  7 14  1  0
M  END
>  <rmg_smiles>  (2) 
[CH2][CH]OCOC

>  <rmg_adjacency_list>  (2) 
1  O u0 p2 c0 {3,S} {4,S}
2  O u0 p2 c0 {3,S} {5,S}
3  C u0 p0 c0 {1,S} {2,S} {7,S} {8,S}
4  C u0 p0 c0 {1,S} {9,S} {10,S} {11,S}
5  C u0 p0 c0 {2,S} {6,S} {12,S}
6  C u0 p0 c0 {5,S} {13,S} {14,S}
7  H u0 p0 c0 {3,S}
8  H u0 p0 c0 {3,S}
9  H u0 p0 c0 {4,S}
10 H u0 p0 c0 {4,S}
11 H u0 p0 c0 {4,S}
12 H u0 p0 c0 {5,S}
13 H u0 p0 c0 {6,S}
14 H u0 p0 c0 {6,S}


>  <multiplicity>  (2) 
1

>  <reaction>  (2) 
rmg_rxn_14117

>  <type>  (2) 
r2h

>  <role_mapnums>  (2) 
{"r2h_a": 2, "r2h_h": 1}

>  <role_mapidx>  (2) 
{"r2h_a": 1, "r2h_h": 0}

>  <ordered_mapped_smiles>  (2) 
[H:1][C:2]([O:3][C:4]([O:5][CH:6]([CH:7]([H:13])[H:14])[H:12])([H:10])[H:11])([H:8])[H:9]

>  <mol_properties>  (2) 
{"0": {"label": "a_hydrogen", "atom_type": "H0"}, "1": {"label": "acceptor", "atom_type": "Cs"}}

>  <level_of_theory>  (2) 
wb97xd/def2tzvp

>  <lot_method>  (2) 
wb97xd

>  <lot_basis>  (2) 
def2tzvp

>  <spin_multiplicity>  (2) 
1.0

>  <optical_isomers>  (2) 
2.0

>  <modes>  (2) 
IdealGasTranslation(mass=(88.0524, 'amu')),         NonlinearRotor(inertia=([74.6, 207.265, 226.772

>  <frequency_value>  (2) 
unknown

>  <frequency_units>  (2) 
unknown

>  <frequency_list>  (2) 
unknown

>  <arkane_path>  (2) 
/home/calvin/Dropbox/PersonalFolders/Calvin/ZEUS_Converged/rmg_rxn_14117/output/Species/rmg_rxn_14117_p2_C=COCOC/arkane/output.py

>  <path_exists>  (2) 
True

>  <E0_value>  (2) 
-807464.8692775278

>  <E0_units>  (2) 
kJ/mol

>  <thermo_class>  (2) 
NASA

>  <Cp0_value>  (2) 
33.257888

>  <Cp0_units>  (2) 
J/(mol*K)

>  <CpInf_value>  (2) 
332.57888

>  <CpInf_units>  (2) 
J/(mol*K)

>  <Tmin_value>  (2) 
10.0

>  <Tmin_units>  (2) 
K

>  <Tmax_value>  (2) 
3000.0

>  <Tmax_units>  (2) 
K

>  <polynomials>  (2) 
[{"name": "polynomial1", "class": "NASAPolynomial", "Tmin_value": 10.0, "Tmin_units": "K", "Tmax_value": 1126.325395573665, "Tmax_units": "K", "coeffs": [3.8695029423973812, 0.028498299453807118, 1.7022190512316403e-05, -3.0641801015141055e-08, 1.0501484226634505e-11, -97115598.3407524, 10.801996699490312]}, {"name": "polynomial2", "class": "NASAPolynomial", "Tmin_value": 1126.325395573665, "Tmin_units": "K", "Tmax_value": 3000.0, "Tmax_units": "K", "coeffs": [6.683476251086028, 0.03655855886471113, -1.7755481766857817e-05, 4.174057536267347e-09, -3.850184221734767e-13, -97117377.38643233, -8.192141503345525]}]

>  <H298_value>  (2) 
-192983.75417154783

>  <H298_units>  (2) 
kcal/mol

>  <S298_value>  (2) 
83.1559197898133

>  <S298_units>  (2) 
cal/(mol*K)

>  <Cp_T_value_list>  (2) 
[26.248460849789986, 32.39173610071906, 38.15499662016311, 43.39827396248086, 52.01542874587051, 58.12514653655066, 66.98827209332843, 71.56096034637841, 73.68686249171367]

>  <Cp_T_units>  (2) 
cal/(mol*K)

>  <T_list>  (2) 
[300.0, 400.0, 500.0, 600.0, 800.0, 1000.0, 1500.0, 2000.0, 2400.0]

>  <T_units>  (2) 
K

>  <yaml_path>  (2) 
/home/calvin/Dropbox/PersonalFolders/Calvin/ZEUS_Converged/rmg_rxn_14117/output/Species/rmg_rxn_14117_p2_C=COCOC/rmg_rxn_14117_p2_C=COCOC.yml

>  <frequencies_cm1>  (2) 
[74.04670270556, 138.48649294843997, 165.9063653312, 221.56328134979998, 286.20908115227996, 409.34786191051995, 520.22907387256, 668.65896156436, 725.4145952341601, 872.38868203812, 904.47123745316, 964.57795995912, 1001.1995926706799, 1023.65463466708, 1124.2216346784799, 1173.32057971648, 1192.9807586876398, 1223.72425196528, 1242.86254005212, 1330.47153876468, 1353.0501864968398, 1415.64275768864, 1444.00340706024, 1470.2558919386001, 1478.18039299788, 1491.75642297552, 1501.1229909519998, 1698.26040551856, 2978.5205476233996, 2998.82622321464, 3051.1320503970796, 3063.76730338588, 3117.3572568231602, 3151.1908934947996, 3170.4459203320794, 3245.9552909107997]

>  <ZPE_kJmol>  (2) 
310.3903764968326

>  <E_elec_kJmol>  (2) 
-807775.2596540246

>  <E0_minus_Eelec_plus_ZPE_kJmol>  (2) 
0.0

>  <rxn>  (2) 
rmg_rxn_14117

>  <species_type>  (2) 
p1

>  <species_folder>  (2) 
rmg_rxn_14117_p2_C=COCOC

>  <frequencies_cm1_list>  (2) 
[74.04670270556, 138.48649294843997, 165.9063653312, 221.56328134979998, 286.20908115227996, 409.34786191051995, 520.22907387256, 668.65896156436, 725.4145952341601, 872.38868203812, 904.47123745316, 964.57795995912, 1001.1995926706799, 1023.65463466708, 1124.2216346784799, 1173.32057971648, 1192.9807586876398, 1223.72425196528, 1242.86254005212, 1330.47153876468, 1353.0501864968398, 1415.64275768864, 1444.00340706024, 1470.2558919386001, 1478.18039299788, 1491.75642297552, 1501.1229909519998, 1698.26040551856, 2978.5205476233996, 2998.82622321464, 3051.1320503970796, 3063.76730338588, 3117.3572568231602, 3151.1908934947996, 3170.4459203320794, 3245.9552909107997]

>  <E0_kJmol>  (2) 
-807465

>  <H298_kJmol>  (2) 
-807444

$$$$

     RDKit          3D

 23 21  0  0  0  0  0  0  0  0999 V2000
    2.6088    0.7428   -0.3365 C   0  0  0  0  0  0  0  0  0  1  0  0
    2.4199   -0.2733   -1.0858 C   0  0  0  0  0  0  0  0  0  2  0  0
    2.1011   -1.3019   -1.8427 C   0  0  0  0  0  0  0  0  0  3  0  0
    1.8248   -1.2160   -3.3137 C   0  0  0  0  0  0  0  0  0  4  0  0
    1.5045    1.3200    0.1498 H   0  0  0  0  0  0  0  0  0  5  0  0
    3.5226    1.2313   -0.0325 H   0  0  0  0  0  0  0  0  0  6  0  0
    2.0515   -2.2826   -1.3781 H   0  0  0  0  0  0  0  0  0  7  0  0
    2.5269   -1.8339   -3.8793 H   0  0  0  0  0  0  0  0  0  8  0  0
    1.9040   -0.1897   -3.6692 H   0  0  0  0  0  0  0  0  0  9  0  0
    0.8195   -1.5817   -3.5385 H   0  0  0  0  0  0  0  0  0 10  0  0
    0.2707    1.7362    0.5185 C   0  0  0  0  0  3  0  0  0 11  0  0
   -0.6049    0.7874    0.0414 O   0  0  0  0  0  0  0  0  0 12  0  0
   -0.6203   -0.4091    0.7628 C   0  0  0  0  0  0  0  0  0 13  0  0
   -1.1686   -0.2766    2.0461 O   0  0  0  0  0  0  0  0  0 14  0  0
   -2.5086   -0.0910    2.1520 C   0  0  0  0  0  0  0  0  0 15  0  0
   -3.3823    0.1490    1.1849 C   0  0  0  0  0  0  0  0  0 16  0  0
    0.1169    2.6766   -0.0024 H   0  0  0  0  0  0  0  0  0 17  0  0
    0.2972    1.8242    1.6056 H   0  0  0  0  0  0  0  0  0 18  0  0
    0.3955   -0.7759    0.9200 H   0  0  0  0  0  0  0  0  0 19  0  0
   -1.2064   -1.1131    0.1685 H   0  0  0  0  0  0  0  0  0 20  0  0
   -2.8081   -0.1693    3.1899 H   0  0  0  0  0  0  0  0  0 21  0  0
   -3.1037    0.2780    0.1492 H   0  0  0  0  0  0  0  0  0 22  0  0
   -4.4259    0.2443    1.4471 H   0  0  0  0  0  0  0  0  0 23  0  0
  1  5  1  0
  1  6  1  0
  1  2  1  0
  2  3  1  0
  3  4  1  0
  3  7  1  0
  4 10  1  0
  4  9  1  0
  4  8  1  0
 11 12  1  0
 11 17  1  0
 11 18  1  0
 12 13  1  0
 13 19  1  0
 13 20  1  0
 13 14  1  0
 14 15  1  0
 15 16  1  0
 15 21  1  0
 16 22  1  0
 16 23  1  0
M  RAD  1  11   2
M  END
>  <rmg_smiles>  (3) 
[CH2]C[CH]C.[CH2][CH]OCO[CH2]

>  <rmg_adjacency_list>  (3) 
multiplicity 2
1  O u0 p2 c0 {3,S} {6,S}
2  O u0 p2 c0 {3,S} {8,S}
3  C u0 p0 c0 {1,S} {2,S} {14,S} {15,S}
4  C u0 p0 c0 {5,S} {11,S} {12,S} {13,S}
5  C u0 p0 c0 {4,S} {10,S} {16,S}
6  C u0 p0 c0 {1,S} {7,S} {17,S}
7  C u0 p0 c0 {6,S} {18,S} {19,S}
8  C u1 p0 c0 {2,S} {22,S} {23,S}
9  C u0 p0 c0 {10,S} {20,S} {21,S}
10 C u0 p1 c0 {5,S} {9,S}
11 H u0 p0 c0 {4,S}
12 H u0 p0 c0 {4,S}
13 H u0 p0 c0 {4,S}
14 H u0 p0 c0 {3,S}
15 H u0 p0 c0 {3,S}
16 H u0 p0 c0 {5,S}
17 H u0 p0 c0 {6,S}
18 H u0 p0 c0 {7,S}
19 H u0 p0 c0 {7,S}
20 H u0 p0 c0 {9,S}
21 H u0 p0 c0 {9,S}
22 H u0 p0 c0 {8,S}
23 H u0 p0 c0 {8,S}


>  <multiplicity>  (3) 
2

>  <reaction>  (3) 
rmg_rxn_14117

>  <type>  (3) 
ts

>  <role_mapnums>  (3) 
{"*2": 5, "*1": 1, "*3": 11, "*0": 2, "*4": 12}

>  <role_mapidx>  (3) 
{"*2": 4, "*1": 0, "*3": 10, "*0": 1, "*4": 11}

>  <ordered_mapped_smiles>  (3) 
[CH:1]([CH2:2][CH:3]([C:4]([H:8])([H:9])[H:10])[H:7])([H:5])[H:6].[C:11]([O:12][C:13]([O:14][CH:15]([CH:16]([H:22])[H:23])[H:21])([H:19])[H:20])([H:17])[H:18]

>  <mol_properties>  (3) 
{"0": {"label": "*1", "atom_type": "Cs"}, "1": {"label": "*0", "atom_type": "C2s"}, "4": {"label": "*2", "atom_type": "H0"}, "10": {"label": "*3", "atom_type": "Cs"}, "11": {"label": "*4", "atom_type": "O2s"}}

>  <level_of_theory>  (3) 
wb97xd/def2tzvp

>  <lot_method>  (3) 
wb97xd

>  <lot_basis>  (3) 
def2tzvp

>  <spin_multiplicity>  (3) 
2.0

>  <optical_isomers>  (3) 
2.0

>  <modes>  (3) 
IdealGasTranslation(mass=(141.092, 'amu')),         NonlinearRotor(             inertia = ([224.257, 920.964, 1011.87

>  <frequency_value>  (3) 
-1745.91

>  <frequency_units>  (3) 
cm^-1

>  <frequency_list>  (3) 
unknown

>  <arkane_path>  (3) 
/home/calvin/Dropbox/PersonalFolders/Calvin/ZEUS_Converged/rmg_rxn_14117/output/rxns/TS0/arkane/output.py

>  <path_exists>  (3) 
True

>  <E0_value>  (3) 
-1215000.0

>  <E0_units>  (3) 
kJ/mol

>  <thermo_class>  (3) 
unknown

>  <Cp0_value>  (3) 
unknown

>  <Cp0_units>  (3) 
unknown

>  <CpInf_value>  (3) 
unknown

>  <CpInf_units>  (3) 
unknown

>  <Tmin_value>  (3) 
unknown

>  <Tmin_units>  (3) 
unknown

>  <Tmax_value>  (3) 
unknown

>  <Tmax_units>  (3) 
unknown

>  <polynomials>  (3) 
unknown

>  <H298_value>  (3) 
unknown

>  <H298_units>  (3) 
unknown

>  <S298_value>  (3) 
unknown

>  <S298_units>  (3) 
unknown

>  <Cp_T_value_list>  (3) 
unknown

>  <Cp_T_units>  (3) 
unknown

>  <T_list>  (3) 
unknown

>  <T_units>  (3) 
unknown

>  <yaml_path>  (3) 
unknown

>  <frequencies_cm1>  (3) 
unknown

>  <ZPE_kJmol>  (3) 
unknown

>  <E_elec_kJmol>  (3) 
unknown

>  <E0_minus_Eelec_plus_ZPE_kJmol>  (3) 
unknown

>  <rxn>  (3) 
unknown

>  <species_type>  (3) 
unknown

>  <species_folder>  (3) 
unknown

>  <frequencies_cm1_list>  (3) 
[]

>  <ts_imag_freq_cm1>  (3) 
-1767.1117

>  <ts_freq_out_path>  (3) 
/home/calvin/Dropbox/PersonalFolders/Calvin/ZEUS_Converged/rmg_rxn_14117/output/rxns/TS0/geometry/freq.out

>  <E0_kJmol>  (3) 
-1.215e+06

>  <H298_kJmol>  (3) 
unknown

$$$$

     RDKit          3D

  9  8  0  0  0  0  0  0  0  0999 V2000
    2.3032   -0.0159    0.1474 C   0  0  0  0  0  0  0  0  0  1  0  0
    1.1288    0.2882    0.0537 C   0  0  0  0  0  0  0  0  0  2  0  0
   -0.1975    0.6198   -0.0514 C   0  0  0  0  0  3  0  0  0  3  0  0
   -1.2977   -0.3866   -0.0637 C   0  0  0  0  0  0  0  0  0  4  0  0
    3.3305   -0.2768    0.2290 H   0  0  0  0  0  0  0  0  0  5  0  0
   -0.4545    1.6699   -0.1294 H   0  0  0  0  0  0  0  0  0  6  0  0
   -1.9941   -0.2122    0.7624 H   0  0  0  0  0  0  0  0  0  7  0  0
   -0.9106   -1.4008    0.0205 H   0  0  0  0  0  0  0  0  0  8  0  0
   -1.8810   -0.3144   -0.9870 H   0  0  0  0  0  0  0  0  0  9  0  0
  1  5  1  0
  1  2  1  0
  2  3  1  0
  3  4  1  0
  3  6  1  0
  4  8  1  0
  4  9  1  0
  4  7  1  0
M  RAD  1   3   2
M  END
>  <rmg_smiles>  (4) 
[CH]C[CH]C

>  <rmg_adjacency_list>  (4) 
multiplicity 2
1 C u0 p0 c0 {2,S} {5,S} {6,S} {7,S}
2 C u1 p0 c0 {1,S} {3,S} {8,S}
3 C u0 p1 c0 {2,S} {4,S}
4 C u0 p1 c0 {3,S} {9,S}
5 H u0 p0 c0 {1,S}
6 H u0 p0 c0 {1,S}
7 H u0 p0 c0 {1,S}
8 H u0 p0 c0 {2,S}
9 H u0 p0 c0 {4,S}


>  <multiplicity>  (4) 
2

>  <reaction>  (4) 
rmg_rxn_14117

>  <type>  (4) 
r1

>  <role_mapnums>  (4) 
{}

>  <role_mapidx>  (4) 
{}

>  <ordered_mapped_smiles>  (4) 
[CH2:1]([CH2:2][C:3]([C:4]([H:7])([H:8])[H:9])[H:6])[H:5]

>  <level_of_theory>  (4) 
wb97xd/def2tzvp

>  <lot_method>  (4) 
wb97xd

>  <lot_basis>  (4) 
def2tzvp

>  <spin_multiplicity>  (4) 
2.0

>  <optical_isomers>  (4) 
1.0

>  <modes>  (4) 
IdealGasTranslation(mass=(53.0391, 'amu')),         NonlinearRotor(             inertia = ([13.0163, 113.224, 123.133

>  <frequency_value>  (4) 
unknown

>  <frequency_units>  (4) 
unknown

>  <frequency_list>  (4) 
unknown

>  <arkane_path>  (4) 
/home/calvin/Dropbox/PersonalFolders/Calvin/ZEUS_Converged/rmg_rxn_14117/output/Species/rmg_rxn_14117_p1_CtCsbr-CH-sbrC/arkane/output.py

>  <path_exists>  (4) 
True

>  <E0_value>  (4) 
-407611.0178676695

>  <E0_units>  (4) 
kJ/mol

>  <thermo_class>  (4) 
NASA

>  <Cp0_value>  (4) 
33.257888

>  <Cp0_units>  (4) 
J/(mol*K)

>  <CpInf_value>  (4) 
207.8618

>  <CpInf_units>  (4) 
J/(mol*K)

>  <Tmin_value>  (4) 
10.0

>  <Tmin_units>  (4) 
K

>  <Tmax_value>  (4) 
3000.0

>  <Tmax_units>  (4) 
K

>  <polynomials>  (4) 
[{"name": "polynomial1", "class": "NASAPolynomial", "Tmin_value": 10.0, "Tmin_units": "K", "Tmax_value": 225.11887521318957, "Tmax_units": "K", "coeffs": [3.926630915296947, 0.006749895207816258, 0.00012836532533525932, -4.255246557274593e-07, 4.774973939090027e-10, -49024283.36301313, 9.039132667777825]}, {"name": "polynomial2", "class": "NASAPolynomial", "Tmin_value": 225.11887521318957, "Tmin_units": "K", "Tmax_value": 3000.0, "Tmax_units": "K", "coeffs": [2.6986748332678068, 0.028568074177661083, -1.700823692128483e-05, 4.972064259878094e-09, -5.660420030452739e-13, -49024228.07421419, 13.132307964760544]}]

>  <H298_value>  (4) 
-97417.4250763192

>  <H298_units>  (4) 
kcal/mol

>  <S298_value>  (4) 
72.15097842486317

>  <S298_units>  (4) 
cal/(mol*K)

>  <Cp_T_value_list>  (4) 
[19.60978665647869, 23.26682584091865, 26.463197946296326, 29.246037785772845, 33.74616181148779, 37.09028399063582, 42.12357583735745, 44.755303495765276, 46.19958894045869]

>  <Cp_T_units>  (4) 
cal/(mol*K)

>  <T_list>  (4) 
[300.0, 400.0, 500.0, 600.0, 800.0, 1000.0, 1500.0, 2000.0, 2400.0]

>  <T_units>  (4) 
K

>  <yaml_path>  (4) 
/home/calvin/Dropbox/PersonalFolders/Calvin/ZEUS_Converged/rmg_rxn_14117/output/Species/rmg_rxn_14117_p1_CtCsbr-CH-sbrC/rmg_rxn_14117_p1_CtCsbr-CH-sbrC.yml

>  <frequencies_cm1>  (4) 
[83.48880752056, 211.55808373855996, 392.1460636839199, 478.7318815838, 554.46786267808, 595.8689171723599, 660.0408949877599, 865.1234115695598, 998.98842339764, 1092.3794237496397, 1143.5041294570399, 1380.42198998236, 1394.47184194708, 1461.2464071987597, 1480.32289241772, 2005.2901861610799, 2994.3489487859997, 3043.5921005157197, 3109.5494945143196, 3150.5453968747197, 3427.4428459330793]

>  <ZPE_kJmol>  (4) 
182.57130571804632

>  <E_elec_kJmol>  (4) 
-407793.5891733875

>  <E0_minus_Eelec_plus_ZPE_kJmol>  (4) 
0.0

>  <rxn>  (4) 
rmg_rxn_14117

>  <species_type>  (4) 
p0

>  <species_folder>  (4) 
rmg_rxn_14117_p1_CtCsbr-CH-sbrC

>  <frequencies_cm1_list>  (4) 
[83.48880752056, 211.55808373855996, 392.1460636839199, 478.7318815838, 554.46786267808, 595.8689171723599, 660.0408949877599, 865.1234115695598, 998.98842339764, 1092.3794237496397, 1143.5041294570399, 1380.42198998236, 1394.47184194708, 1461.2464071987597, 1480.32289241772, 2005.2901861610799, 2994.3489487859997, 3043.5921005157197, 3109.5494945143196, 3150.5453968747197, 3427.4428459330793]

>  <E0_kJmol>  (4) 
-407611

>  <H298_kJmol>  (4) 
-407595

$$$$

     RDKit          3D

 13 12  0  0  0  0  0  0  0  0999 V2000
    2.6140   -0.1760    0.1061 C   0  0  0  0  0  3  0  0  0  1  0  0
    1.7369    0.6015    0.7849 O   0  0  0  0  0  0  0  0  0  2  0  0
    0.3829    0.2955    0.5984 C   0  0  0  0  0  0  0  0  0  3  0  0
    0.0214   -0.9610    1.0915 O   0  0  0  0  0  0  0  0  0  4  0  0
   -0.0421   -1.1265    2.4384 C   0  0  0  0  0  0  0  0  0  5  0  0
    0.3542   -0.2893    3.3854 C   0  0  0  0  0  0  0  0  0  6  0  0
    3.6468    0.0574    0.3129 H   0  0  0  0  0  0  0  0  0  7  0  0
    2.2997   -1.1687   -0.1909 H   0  0  0  0  0  0  0  0  0  8  0  0
    0.1461    0.2666   -0.4670 H   0  0  0  0  0  0  0  0  0  9  0  0
   -0.1746    1.0839    1.1083 H   0  0  0  0  0  0  0  0  0 10  0  0
   -0.4863   -2.0871    2.6674 H   0  0  0  0  0  0  0  0  0 11  0  0
    0.8422    0.6530    3.1826 H   0  0  0  0  0  0  0  0  0 12  0  0
    0.2043   -0.5722    4.4170 H   0  0  0  0  0  0  0  0  0 13  0  0
  1  8  1  0
  1  7  1  0
  1  2  1  0
  2  3  1  0
  3  4  1  0
  3  9  1  0
  3 10  1  0
  4  5  1  0
  5 11  1  0
  5  6  1  0
  6 12  1  0
  6 13  1  0
M  RAD  1   1   2
M  END
>  <rmg_smiles>  (5) 
[CH2][CH]OCO[CH2]

>  <rmg_adjacency_list>  (5) 
multiplicity 2
1  O u0 p2 c0 {3,S} {4,S}
2  O u0 p2 c0 {3,S} {6,S}
3  C u0 p0 c0 {1,S} {2,S} {7,S} {8,S}
4  C u0 p0 c0 {1,S} {5,S} {9,S}
5  C u0 p0 c0 {4,S} {10,S} {11,S}
6  C u1 p0 c0 {2,S} {12,S} {13,S}
7  H u0 p0 c0 {3,S}
8  H u0 p0 c0 {3,S}
9  H u0 p0 c0 {4,S}
10 H u0 p0 c0 {5,S}
11 H u0 p0 c0 {5,S}
12 H u0 p0 c0 {6,S}
13 H u0 p0 c0 {6,S}


>  <multiplicity>  (5) 
2

>  <reaction>  (5) 
rmg_rxn_14117

>  <type>  (5) 
r2

>  <role_mapnums>  (5) 
{}

>  <role_mapidx>  (5) 
{}

>  <ordered_mapped_smiles>  (5) 
[C:1]([O:2][C:3]([O:4][CH:5]([CH:6]([H:12])[H:13])[H:11])([H:9])[H:10])([H:7])[H:8]

>  <level_of_theory>  (5) 
wb97xd/def2tzvp

>  <lot_method>  (5) 
wb97xd

>  <lot_basis>  (5) 
def2tzvp

>  <spin_multiplicity>  (5) 
2.0

>  <optical_isomers>  (5) 
2.0

>  <modes>  (5) 
IdealGasTranslation(mass=(87.0446, 'amu')),         NonlinearRotor(             inertia = ([72.7273, 199.476, 220.908

>  <frequency_value>  (5) 
unknown

>  <frequency_units>  (5) 
unknown

>  <frequency_list>  (5) 
unknown

>  <arkane_path>  (5) 
/home/calvin/Dropbox/PersonalFolders/Calvin/ZEUS_Converged/rmg_rxn_14117/output/Species/rmg_rxn_14117_r2_sbr-CH2-sbrOCOC=C/arkane/output.py

>  <path_exists>  (5) 
True

>  <E0_value>  (5) 
-805750.711592887

>  <E0_units>  (5) 
kJ/mol

>  <thermo_class>  (5) 
NASA

>  <Cp0_value>  (5) 
33.257888

>  <Cp0_units>  (5) 
J/(mol*K)

>  <CpInf_value>  (5) 
307.635464

>  <CpInf_units>  (5) 
J/(mol*K)

>  <Tmin_value>  (5) 
10.0

>  <Tmin_units>  (5) 
K

>  <Tmax_value>  (5) 
3000.0

>  <Tmax_units>  (5) 
K

>  <polynomials>  (5) 
[{"name": "polynomial1", "class": "NASAPolynomial", "Tmin_value": 10.0, "Tmin_units": "K", "Tmax_value": 795.833183974657, "Tmax_units": "K", "coeffs": [3.6724417656433466, 0.029821680697272538, 2.0678152124366964e-05, -4.852398163950526e-08, 2.215152792395944e-11, -96909423.41612482, 12.022685191557494]}, {"name": "polynomial2", "class": "NASAPolynomial", "Tmin_value": 795.833183974657, "Tmin_units": "K", "Tmax_value": 3000.0, "Tmax_units": "K", "coeffs": [3.3688646664144435, 0.042491831872105854, -2.420776744185498e-05, 6.6726121260221715e-09, -7.152020713564091e-13, -96909728.00973469, 11.200688031175948]}]

>  <H298_value>  (5) 
-192574.037039463

>  <H298_units>  (5) 
kcal/mol

>  <S298_value>  (5) 
84.18914479572827

>  <S298_units>  (5) 
cal/(mol*K)

>  <Cp_T_value_list>  (5) 
[26.527735336734747, 32.53288089472878, 37.899590906671776, 42.524714673169235, 49.66583405243175, 54.86744545512572, 62.67349468233981, 66.4901857675222, 68.41161567804997]

>  <Cp_T_units>  (5) 
cal/(mol*K)

>  <T_list>  (5) 
[300.0, 400.0, 500.0, 600.0, 800.0, 1000.0, 1500.0, 2000.0, 2400.0]

>  <T_units>  (5) 
K

>  <yaml_path>  (5) 
/home/calvin/Dropbox/PersonalFolders/Calvin/ZEUS_Converged/rmg_rxn_14117/output/Species/rmg_rxn_14117_r2_sbr-CH2-sbrOCOC=C/rmg_rxn_14117_r2_sbr-CH2-sbrOCOC=C.yml

>  <frequencies_cm1>  (5) 
[76.86216668676, 146.69940739115998, 181.7004315672, 260.23814267204, 288.06316718868, 406.52553094399997, 518.1071754086801, 574.4233220179999, 660.8031303582799, 723.2789627996399, 874.46937859008, 906.81287944728, 980.6467056079199, 1000.80817450744, 1037.944831118, 1128.2388210906797, 1214.24781222368, 1224.7336988073198, 1265.413719843, 1331.5908573718398, 1353.20126017388, 1416.0685107784798, 1439.55360057288, 1472.40525834376, 1500.951316319, 1699.97715184856, 3028.2924572227603, 3089.51163135056, 3117.30918792592, 3151.7951882029597, 3176.8665516062797, 3244.2248106101597, 3258.02058411804]

>  <ZPE_kJmol>  (5) 
273.6445664469421

>  <E_elec_kJmol>  (5) 
-806024.3561593338

>  <E0_minus_Eelec_plus_ZPE_kJmol>  (5) 
0.0

>  <rxn>  (5) 
rmg_rxn_14117

>  <species_type>  (5) 
r1

>  <species_folder>  (5) 
rmg_rxn_14117_r2_sbr-CH2-sbrOCOC=C

>  <frequencies_cm1_list>  (5) 
[76.86216668676, 146.69940739115998, 181.7004315672, 260.23814267204, 288.06316718868, 406.52553094399997, 518.1071754086801, 574.4233220179999, 660.8031303582799, 723.2789627996399, 874.46937859008, 906.81287944728, 980.6467056079199, 1000.80817450744, 1037.944831118, 1128.2388210906797, 1214.24781222368, 1224.7336988073198, 1265.413719843, 1331.5908573718398, 1353.20126017388, 1416.0685107784798, 1439.55360057288, 1472.40525834376, 1500.951316319, 1699.97715184856, 3028.2924572227603, 3089.51163135056, 3117.30918792592, 3151.7951882029597, 3176.8665516062797, 3244.2248106101597, 3258.02058411804]

>  <E0_kJmol>  (5) 
-805751

>  <H298_kJmol>  (5) 
-805730

$$$$
