
     RDKit          3D

 14 13  0  0  0  0  0  0  0  0999 V2000
    0.4506    2.4688   -0.5315 C   0  0  0  0  0  0  0  0  0  1  0  0
    1.0017    1.4824    0.2544 O   0  0  0  0  0  0  0  0  0  2  0  0
    0.6597    0.1597   -0.1150 C   0  0  0  0  0  0  0  0  0  3  0  0
   -0.4051   -0.3934    0.8145 C   0  0  0  0  0  0  0  0  0  4  0  0
   -1.0198   -1.6773    0.3482 C   0  0  0  0  0  0  0  0  0  5  0  0
   -0.7246   -2.2586   -0.6616 O   0  0  0  0  0  0  0  0  0  6  0  0
   -0.6362    2.5343   -0.4460 H   0  0  0  0  0  0  0  0  0  7  0  0
    0.5956    2.3086   -1.6059 H   0  0  0  0  0  0  0  0  0  8  0  0
    0.8142    3.4392   -0.1987 H   0  0  0  0  0  0  0  0  0  9  0  0
    0.3019    0.1271   -1.1469 H   0  0  0  0  0  0  0  0  0 10  0  0
    1.5682   -0.4420   -0.0571 H   0  0  0  0  0  0  0  0  0 11  0  0
   -1.2262    0.3220    0.9116 H   0  0  0  0  0  0  0  0  0 12  0  0
   -0.0117   -0.5453    1.8251 H   0  0  0  0  0  0  0  0  0 13  0  0
   -1.8098   -2.0819    1.0143 H   0  0  0  0  0  0  0  0  0 14  0  0
  1  8  1  0
  1  7  1  0
  1  9  1  0
  1  2  1  0
  2  3  1  0
  3 11  1  0
  3  4  1  0
  3 10  1  0
  4  5  1  0
  4 13  1  0
  4 12  1  0
  5  6  1  0
  5 14  1  0
M  END
>  <rmg_smiles>  (1) 
COCC[CH]O

>  <rmg_adjacency_list>  (1) 
1  O u0 p2 c0 {4,S} {5,S}
2  O u0 p2 c0 {6,S}
3  C u0 p0 c0 {4,S} {6,S} {7,S} {8,S}
4  C u0 p0 c0 {1,S} {3,S} {9,S} {10,S}
5  C u0 p0 c0 {1,S} {11,S} {12,S} {13,S}
6  C u0 p0 c0 {2,S} {3,S} {14,S}
7  H u0 p0 c0 {3,S}
8  H u0 p0 c0 {3,S}
9  H u0 p0 c0 {4,S}
10 H u0 p0 c0 {4,S}
11 H u0 p0 c0 {5,S}
12 H u0 p0 c0 {5,S}
13 H u0 p0 c0 {5,S}
14 H u0 p0 c0 {6,S}


>  <multiplicity>  (1) 
1

>  <reaction>  (1) 
rmg_rxn_15637

>  <type>  (1) 
r1h

>  <role_mapnums>  (1) 
{"r1h_a": 1, "r1h_h": 7}

>  <role_mapidx>  (1) 
{"r1h_a": 0, "r1h_h": 6}

>  <ordered_mapped_smiles>  (1) 
[C:1]([O:2][C:3]([C:4]([CH:5]([OH:6])[H:14])([H:12])[H:13])([H:10])[H:11])([H:7])([H:8])[H:9]

>  <mol_properties>  (1) 
{"0": {"label": "donator", "atom_type": "Cs"}, "6": {"label": "d_hydrogen", "atom_type": "H0"}}

>  <level_of_theory>  (1) 
wb97xd/def2tzvp

>  <lot_method>  (1) 
wb97xd

>  <lot_basis>  (1) 
def2tzvp

>  <spin_multiplicity>  (1) 
1.0

>  <optical_isomers>  (1) 
1.0

>  <modes>  (1) 
IdealGasTranslation(mass=(88.0524, 'amu')),         NonlinearRotor(             inertia = ([42.2252, 321.863, 354.694

>  <frequency_value>  (1) 
unknown

>  <frequency_units>  (1) 
unknown

>  <frequency_list>  (1) 
unknown

>  <arkane_path>  (1) 
/home/calvin/Dropbox/PersonalFolders/Calvin/ZEUS_Converged/rmg_rxn_15637/output/Species/rmg_rxn_15637_r2_COCCC=O/arkane/output.py

>  <path_exists>  (1) 
True

>  <E0_value>  (1) 
-807522.6100537925

>  <E0_units>  (1) 
kJ/mol

>  <thermo_class>  (1) 
NASA

>  <Cp0_value>  (1) 
33.257888

>  <Cp0_units>  (1) 
J/(mol*K)

>  <CpInf_value>  (1) 
332.57888

>  <CpInf_units>  (1) 
J/(mol*K)

>  <Tmin_value>  (1) 
10.0

>  <Tmin_units>  (1) 
K

>  <Tmax_value>  (1) 
3000.0

>  <Tmax_units>  (1) 
K

>  <polynomials>  (1) 
[{"name": "polynomial1", "class": "NASAPolynomial", "Tmin_value": 10.0, "Tmin_units": "K", "Tmax_value": 420.00192444716464, "Tmax_units": "K", "coeffs": [3.4815818701554897, 0.05515157389046968, -0.0001820077560420329, 4.74484230967253e-07, -4.124947682445814e-10, -97122534.66875581, 10.742579115213127]}, {"name": "polynomial2", "class": "NASAPolynomial", "Tmin_value": 420.00192444716464, "Tmin_units": "K", "Tmax_value": 3000.0, "Tmax_units": "K", "coeffs": [-0.4194230434848318, 0.05252343910960219, -3.0549424746644766e-05, 8.564921448695528e-09, -9.313737256728422e-13, -97121856.11656621, 30.355527057949544]}]

>  <H298_value>  (1) 
-192997.32101247305

>  <H298_units>  (1) 
kcal/mol

>  <S298_value>  (1) 
84.06560586374717

>  <S298_units>  (1) 
cal/(mol*K)

>  <Cp_T_value_list>  (1) 
[26.064642832315013, 32.24857622882198, 38.18883221539439, 43.37309600829853, 51.769601876854644, 58.002859656054916, 67.20943098501424, 71.63312718025382, 73.8701758084071]

>  <Cp_T_units>  (1) 
cal/(mol*K)

>  <T_list>  (1) 
[300.0, 400.0, 500.0, 600.0, 800.0, 1000.0, 1500.0, 2000.0, 2400.0]

>  <T_units>  (1) 
K

>  <yaml_path>  (1) 
/home/calvin/Dropbox/PersonalFolders/Calvin/ZEUS_Converged/rmg_rxn_15637/output/Species/rmg_rxn_15637_r2_COCCC=O/rmg_rxn_15637_r2_COCCC=O.yml

>  <frequencies_cm1>  (1) 
[83.92142759571999, 101.70691957452, 147.16636239292, 174.02314197943997, 230.32555461812, 307.31819402595994, 439.28791790572, 677.99119461424, 694.39642254372, 892.9209681449199, 910.4661156375198, 1006.6107771028398, 1094.1579729475197, 1124.7435255628, 1176.4450580370801, 1178.51888760372, 1225.7912145465998, 1230.8727836834, 1298.89714026332, 1325.85692462964, 1408.7002355301197, 1418.6710982147597, 1449.29785274196, 1473.5383109215597, 1476.52544953576, 1492.4019195956, 1511.0732526806798, 1821.48159010064, 2872.5766981064403, 2954.7951133427996, 2967.9316562599597, 2997.0614079873994, 3007.2108122903596, 3014.4829497442397, 3050.8230360576795, 3104.4610583922]

>  <ZPE_kJmol>  (1) 
307.0961421103297

>  <E_elec_kJmol>  (1) 
-807829.7061959028

>  <E0_minus_Eelec_plus_ZPE_kJmol>  (1) 
0.0

>  <rxn>  (1) 
rmg_rxn_15637

>  <species_type>  (1) 
r1

>  <species_folder>  (1) 
rmg_rxn_15637_r2_COCCC=O

>  <frequencies_cm1_list>  (1) 
[83.92142759571999, 101.70691957452, 147.16636239292, 174.02314197943997, 230.32555461812, 307.31819402595994, 439.28791790572, 677.99119461424, 694.39642254372, 892.9209681449199, 910.4661156375198, 1006.6107771028398, 1094.1579729475197, 1124.7435255628, 1176.4450580370801, 1178.51888760372, 1225.7912145465998, 1230.8727836834, 1298.89714026332, 1325.85692462964, 1408.7002355301197, 1418.6710982147597, 1449.29785274196, 1473.5383109215597, 1476.52544953576, 1492.4019195956, 1511.0732526806798, 1821.48159010064, 2872.5766981064403, 2954.7951133427996, 2967.9316562599597, 2997.0614079873994, 3007.2108122903596, 3014.4829497442397, 3050.8230360576795, 3104.4610583922]

>  <E0_kJmol>  (1) 
-807523

>  <H298_kJmol>  (1) 
-807501

$$$$

     RDKit          3D

  9  8  0  0  0  0  0  0  0  0999 V2000
    0.2371    1.3086    1.0317 C   0  0  0  0  0  0  0  0  0  1  0  0
   -0.1346    0.6240   -0.1204 O   0  0  0  0  0  0  0  0  0  2  0  0
    0.0513   -0.7314    0.0440 N   0  0  0  0  0  0  0  0  0  3  0  0
   -0.1908   -1.3805   -1.0128 C   0  0  0  0  0  0  0  0  0  4  0  0
   -0.0100    2.3575    0.8926 H   0  0  0  0  0  0  0  0  0  5  0  0
   -0.1744    0.8729    1.9429 H   0  0  0  0  0  0  0  0  0  6  0  0
   -0.0583   -2.4530   -0.9570 H   0  0  0  0  0  0  0  0  0  7  0  0
   -0.5063   -0.8984   -1.9352 H   0  0  0  0  0  0  0  0  0  8  0  0
    1.3213    1.2519    1.1101 H   0  0  0  0  0  0  0  0  0  9  0  0
  1  5  1  0
  1  9  1  0
  1  2  1  0
  1  6  1  0
  2  3  1  0
  3  4  1  0
  4  8  1  0
  4  7  1  0
M  END
>  <rmg_smiles>  (2) 
CO[N][CH2]

>  <rmg_adjacency_list>  (2) 
1 O u0 p2 c0 {2,S} {3,S}
2 N u0 p1 c0 {1,S} {4,S}
3 C u0 p0 c0 {1,S} {5,S} {6,S} {7,S}
4 C u0 p0 c0 {2,S} {8,S} {9,S}
5 H u0 p0 c0 {3,S}
6 H u0 p0 c0 {3,S}
7 H u0 p0 c0 {3,S}
8 H u0 p0 c0 {4,S}
9 H u0 p0 c0 {4,S}


>  <multiplicity>  (2) 
1

>  <reaction>  (2) 
rmg_rxn_15637

>  <type>  (2) 
r2h

>  <role_mapnums>  (2) 
{"r2h_a": 1, "r2h_h": 9}

>  <role_mapidx>  (2) 
{"r2h_a": 0, "r2h_h": 8}

>  <ordered_mapped_smiles>  (2) 
[C:1]([O:2][NH:3][CH:4]([H:7])[H:8])([H:5])([H:6])[H:9]

>  <mol_properties>  (2) 
{"0": {"label": "acceptor", "atom_type": "Cs"}, "8": {"label": "a_hydrogen", "atom_type": "H0"}}

>  <level_of_theory>  (2) 
wb97xd/def2tzvp

>  <lot_method>  (2) 
wb97xd

>  <lot_basis>  (2) 
def2tzvp

>  <spin_multiplicity>  (2) 
1.0

>  <optical_isomers>  (2) 
1.0

>  <modes>  (2) 
IdealGasTranslation(mass=(59.0371, 'amu')),         NonlinearRotor(             inertia = ([11.9742, 101.538, 110.304

>  <frequency_value>  (2) 
unknown

>  <frequency_units>  (2) 
unknown

>  <frequency_list>  (2) 
unknown

>  <arkane_path>  (2) 
/home/calvin/Dropbox/PersonalFolders/Calvin/ZEUS_Converged/rmg_rxn_15637/output/Species/rmg_rxn_15637_p1_CON=C/arkane/output.py

>  <path_exists>  (2) 
True

>  <E0_value>  (2) 
-548882.9200394232

>  <E0_units>  (2) 
kJ/mol

>  <thermo_class>  (2) 
NASA

>  <Cp0_value>  (2) 
33.257888

>  <Cp0_units>  (2) 
J/(mol*K)

>  <CpInf_value>  (2) 
207.8618

>  <CpInf_units>  (2) 
J/(mol*K)

>  <Tmin_value>  (2) 
10.0

>  <Tmin_units>  (2) 
K

>  <Tmax_value>  (2) 
3000.0

>  <Tmax_units>  (2) 
K

>  <polynomials>  (2) 
[{"name": "polynomial1", "class": "NASAPolynomial", "Tmin_value": 10.0, "Tmin_units": "K", "Tmax_value": 1066.0445442103917, "Tmax_units": "K", "coeffs": [3.9488472240731216, 0.012909444164008412, 1.8432835387873368e-05, -2.5565901414715004e-08, 8.632634293818456e-12, -66015370.98001154, 7.906058800048573]}, {"name": "polynomial2", "class": "NASAPolynomial", "Tmin_value": 1066.0445442103917, "Tmin_units": "K", "Tmax_value": 3000.0, "Tmax_units": "K", "coeffs": [4.051174026649639, 0.02340322367340144, -1.163838712217072e-05, 2.8112466199843713e-09, -2.6680947262736413e-13, -66016010.897278614, 4.506810904924114]}]

>  <H298_value>  (2) 
-131182.46582067996

>  <H298_units>  (2) 
kcal/mol

>  <S298_value>  (2) 
69.27397375028742

>  <S298_units>  (2) 
cal/(mol*K)

>  <Cp_T_value_list>  (2) 
[17.607207323409234, 21.157104611048137, 24.5530891366924, 27.67560467885903, 32.827861850696166, 36.480858050170255, 41.94371504002133, 44.76201379304356, 46.08804102499818]

>  <Cp_T_units>  (2) 
cal/(mol*K)

>  <T_list>  (2) 
[300.0, 400.0, 500.0, 600.0, 800.0, 1000.0, 1500.0, 2000.0, 2400.0]

>  <T_units>  (2) 
K

>  <yaml_path>  (2) 
/home/calvin/Dropbox/PersonalFolders/Calvin/ZEUS_Converged/rmg_rxn_15637/output/Species/rmg_rxn_15637_p1_CON=C/rmg_rxn_15637_p1_CON=C.yml

>  <frequencies_cm1>  (2) 
[119.61601728907998, 180.59484693068, 346.29520270228, 574.9726808436, 796.6046320465999, 891.08061607916, 982.9746136314, 1126.32979917172, 1169.7222794088, 1171.7686410341598, 1237.71230106212, 1418.12173938916, 1456.2266409298397, 1467.4060930307999, 1493.1160860688801, 1708.0183916582798, 3005.45973103376, 3077.28153049564, 3083.54422110748, 3121.53925088304, 3213.405780494]

>  <ZPE_kJmol>  (2) 
189.2599943319938

>  <E_elec_kJmol>  (2) 
-549072.1800337551

>  <E0_minus_Eelec_plus_ZPE_kJmol>  (2) 
0.0

>  <rxn>  (2) 
rmg_rxn_15637

>  <species_type>  (2) 
p0

>  <species_folder>  (2) 
rmg_rxn_15637_p1_CON=C

>  <frequencies_cm1_list>  (2) 
[119.61601728907998, 180.59484693068, 346.29520270228, 574.9726808436, 796.6046320465999, 891.08061607916, 982.9746136314, 1126.32979917172, 1169.7222794088, 1171.7686410341598, 1237.71230106212, 1418.12173938916, 1456.2266409298397, 1467.4060930307999, 1493.1160860688801, 1708.0183916582798, 3005.45973103376, 3077.28153049564, 3083.54422110748, 3121.53925088304, 3213.405780494]

>  <E0_kJmol>  (2) 
-548883

>  <H298_kJmol>  (2) 
-548867

$$$$

     RDKit          3D

 22 20  0  0  0  0  0  0  0  0999 V2000
   -1.2225    2.0957    0.1201 C   0  0  0  0  0  3  0  0  0  1  0  0
   -1.5942    1.4111   -1.0321 O   0  0  0  0  0  0  0  0  0  2  0  0
   -1.4083    0.0557   -0.8676 N   0  0  0  0  0  0  0  0  0  3  0  0
   -1.6504   -0.5934   -1.9244 C   0  0  0  0  0  0  0  0  0  4  0  0
   -1.4696    3.1446   -0.0190 H   0  0  0  0  0  0  0  0  0  5  0  0
   -1.6340    1.6600    1.0313 H   0  0  0  0  0  0  0  0  0  6  0  0
   -1.5179   -1.6659   -1.8687 H   0  0  0  0  0  0  0  0  0  7  0  0
   -1.9659   -0.1113   -2.8468 H   0  0  0  0  0  0  0  0  0  8  0  0
    1.4970    1.9428    0.1151 C   0  0  0  0  0  0  0  0  0  9  0  0
    2.0480    0.9564    0.9009 O   0  0  0  0  0  0  0  0  0 10  0  0
    1.7060   -0.3663    0.5316 C   0  0  0  0  0  0  0  0  0 11  0  0
    0.6413   -0.9195    1.4611 C   0  0  0  0  0  0  0  0  0 12  0  0
    0.0265   -2.2034    0.9948 C   0  0  0  0  0  0  0  0  0 13  0  0
    0.3217   -2.7846   -0.0150 O   0  0  0  0  0  0  0  0  0 14  0  0
    0.1617    2.0232    0.2202 H   0  0  0  0  0  0  0  0  0 15  0  0
    1.6419    1.7825   -0.9593 H   0  0  0  0  0  0  0  0  0 16  0  0
    1.8605    2.9132    0.4479 H   0  0  0  0  0  0  0  0  0 17  0  0
    1.3483   -0.3989   -0.5004 H   0  0  0  0  0  0  0  0  0 18  0  0
    2.6145   -0.9680    0.5895 H   0  0  0  0  0  0  0  0  0 19  0  0
   -0.1799   -0.2041    1.5582 H   0  0  0  0  0  0  0  0  0 20  0  0
    1.0346   -1.0713    2.4717 H   0  0  0  0  0  0  0  0  0 21  0  0
   -0.7635   -2.6080    1.6608 H   0  0  0  0  0  0  0  0  0 22  0  0
  1  2  1  0
  1  5  1  0
  1  6  1  0
  2  3  1  0
  3  4  1  0
  4  7  1  0
  4  8  1  0
  9 10  1  0
  9 17  1  0
  9 16  1  0
  9 15  1  0
 10 11  1  0
 11 19  1  0
 11 12  1  0
 11 18  1  0
 12 20  1  0
 12 21  1  0
 12 13  1  0
 13 22  1  0
 13 14  1  0
M  RAD  1   1   2
M  END
>  <rmg_smiles>  (3) 
COCC[CH][O].[CH2]O[N][CH2]

>  <rmg_adjacency_list>  (3) 
multiplicity 2
1  O u0 p2 c0 {6,S} {7,S}
2  O u0 p2 c0 {4,S} {9,S}
3  O u0 p2 c0 {8,S}
4  N u0 p1 c0 {2,S} {10,S}
5  C u0 p0 c0 {6,S} {8,S} {11,S} {12,S}
6  C u0 p0 c0 {1,S} {5,S} {13,S} {14,S}
7  C u0 p0 c0 {1,S} {15,S} {16,S} {17,S}
8  C u0 p0 c0 {3,S} {5,S} {18,S}
9  C u1 p0 c0 {2,S} {19,S} {20,S}
10 C u0 p0 c0 {4,S} {21,S} {22,S}
11 H u0 p0 c0 {5,S}
12 H u0 p0 c0 {5,S}
13 H u0 p0 c0 {6,S}
14 H u0 p0 c0 {6,S}
15 H u0 p0 c0 {7,S}
16 H u0 p0 c0 {7,S}
17 H u0 p0 c0 {7,S}
18 H u0 p0 c0 {8,S}
19 H u0 p0 c0 {9,S}
20 H u0 p0 c0 {9,S}
21 H u0 p0 c0 {10,S}
22 H u0 p0 c0 {10,S}


>  <multiplicity>  (3) 
2

>  <reaction>  (3) 
rmg_rxn_15637

>  <type>  (3) 
ts

>  <role_mapnums>  (3) 
{"*2": 15, "*1": 9, "*3": 1, "*0": 10, "*4": 2}

>  <role_mapidx>  (3) 
{"*2": 14, "*1": 8, "*3": 0, "*0": 9, "*4": 1}

>  <ordered_mapped_smiles>  (3) 
[C:1]([O:2][NH:3][CH:4]([H:7])[H:8])([H:5])[H:6].[C:9]([O:10][C:11]([C:12]([CH:13]([OH:14])[H:22])([H:20])[H:21])([H:18])[H:19])([H:15])([H:16])[H:17]

>  <mol_properties>  (3) 
{"0": {"label": "*3", "atom_type": "Cs"}, "1": {"label": "*4", "atom_type": "O2s"}, "8": {"label": "*1", "atom_type": "Cs"}, "9": {"label": "*0", "atom_type": "O2s"}, "14": {"label": "*2", "atom_type": "H0"}}

>  <level_of_theory>  (3) 
wb97xd/def2tzvp

>  <lot_method>  (3) 
wb97xd

>  <lot_basis>  (3) 
def2tzvp

>  <spin_multiplicity>  (3) 
2.0

>  <optical_isomers>  (3) 
2.0

>  <modes>  (3) 
IdealGasTranslation(mass=(146.082, 'amu')),         NonlinearRotor(             inertia = ([403.329, 473.894, 757.758

>  <frequency_value>  (3) 
-1813.65

>  <frequency_units>  (3) 
cm^-1

>  <frequency_list>  (3) 
unknown

>  <arkane_path>  (3) 
/home/calvin/Dropbox/PersonalFolders/Calvin/ZEUS_Converged/rmg_rxn_15637/output/rxns/TS0/arkane/output.py

>  <path_exists>  (3) 
True

>  <E0_value>  (3) 
-1354640.0

>  <E0_units>  (3) 
kJ/mol

>  <thermo_class>  (3) 
unknown

>  <Cp0_value>  (3) 
unknown

>  <Cp0_units>  (3) 
unknown

>  <CpInf_value>  (3) 
unknown

>  <CpInf_units>  (3) 
unknown

>  <Tmin_value>  (3) 
unknown

>  <Tmin_units>  (3) 
unknown

>  <Tmax_value>  (3) 
unknown

>  <Tmax_units>  (3) 
unknown

>  <polynomials>  (3) 
unknown

>  <H298_value>  (3) 
unknown

>  <H298_units>  (3) 
unknown

>  <S298_value>  (3) 
unknown

>  <S298_units>  (3) 
unknown

>  <Cp_T_value_list>  (3) 
unknown

>  <Cp_T_units>  (3) 
unknown

>  <T_list>  (3) 
unknown

>  <T_units>  (3) 
unknown

>  <yaml_path>  (3) 
unknown

>  <frequencies_cm1>  (3) 
unknown

>  <ZPE_kJmol>  (3) 
unknown

>  <E_elec_kJmol>  (3) 
unknown

>  <E0_minus_Eelec_plus_ZPE_kJmol>  (3) 
unknown

>  <rxn>  (3) 
unknown

>  <species_type>  (3) 
unknown

>  <species_folder>  (3) 
unknown

>  <frequencies_cm1_list>  (3) 
[]

>  <ts_imag_freq_cm1>  (3) 
-1835.6787

>  <ts_freq_out_path>  (3) 
/home/calvin/Dropbox/PersonalFolders/Calvin/ZEUS_Converged/rmg_rxn_15637/output/rxns/TS0/geometry/freq.out

>  <E0_kJmol>  (3) 
-1.35464e+06

>  <H298_kJmol>  (3) 
unknown

$$$$

     RDKit          3D

 13 12  0  0  0  0  0  0  0  0999 V2000
    2.2389    0.7017    0.3130 C   0  0  0  0  0  3  0  0  0  1  0  0
    0.9433    0.8223   -0.0376 O   0  0  0  0  0  0  0  0  0  2  0  0
    0.4736    2.1521   -0.1615 C   0  0  0  0  0  0  0  0  0  3  0  0
   -0.9782    2.0920   -0.5770 C   0  0  0  0  0  0  0  0  0  4  0  0
   -1.6070    3.4420   -0.7601 C   0  0  0  0  0  0  0  0  0  5  0  0
   -1.0369    4.4869   -0.6064 O   0  0  0  0  0  0  0  0  0  6  0  0
    2.5950   -0.3170    0.3352 H   0  0  0  0  0  0  0  0  0  7  0  0
    2.9060    1.5360    0.1249 H   0  0  0  0  0  0  0  0  0  8  0  0
    1.0668    2.6899   -0.9083 H   0  0  0  0  0  0  0  0  0  9  0  0
    0.5827    2.6771    0.7919 H   0  0  0  0  0  0  0  0  0 10  0  0
   -1.0904    1.5380   -1.5153 H   0  0  0  0  0  0  0  0  0 11  0  0
   -1.5701    1.5405    0.1613 H   0  0  0  0  0  0  0  0  0 12  0  0
   -2.6749    3.4222   -1.0597 H   0  0  0  0  0  0  0  0  0 13  0  0
  1  8  1  0
  1  7  1  0
  1  2  1  0
  2  3  1  0
  3  4  1  0
  3  9  1  0
  3 10  1  0
  4  5  1  0
  4 12  1  0
  4 11  1  0
  5  6  1  0
  5 13  1  0
M  RAD  1   1   2
M  END
>  <rmg_smiles>  (4) 
[CH2]OCC[CH]O

>  <rmg_adjacency_list>  (4) 
multiplicity 2
1  O u0 p2 c0 {4,S} {6,S}
2  O u0 p2 c0 {5,S}
3  C u0 p0 c0 {4,S} {5,S} {7,S} {8,S}
4  C u0 p0 c0 {1,S} {3,S} {9,S} {10,S}
5  C u0 p0 c0 {2,S} {3,S} {11,S}
6  C u1 p0 c0 {1,S} {12,S} {13,S}
7  H u0 p0 c0 {3,S}
8  H u0 p0 c0 {3,S}
9  H u0 p0 c0 {4,S}
10 H u0 p0 c0 {4,S}
11 H u0 p0 c0 {5,S}
12 H u0 p0 c0 {6,S}
13 H u0 p0 c0 {6,S}


>  <multiplicity>  (4) 
2

>  <reaction>  (4) 
rmg_rxn_15637

>  <type>  (4) 
r1

>  <role_mapnums>  (4) 
{}

>  <role_mapidx>  (4) 
{}

>  <ordered_mapped_smiles>  (4) 
[C:1]([O:2][C:3]([C:4]([CH:5]([OH:6])[H:13])([H:11])[H:12])([H:9])[H:10])([H:7])[H:8]

>  <level_of_theory>  (4) 
wb97xd/def2tzvp

>  <lot_method>  (4) 
wb97xd

>  <lot_basis>  (4) 
def2tzvp

>  <spin_multiplicity>  (4) 
2.0

>  <optical_isomers>  (4) 
2.0

>  <modes>  (4) 
IdealGasTranslation(mass=(87.0446, 'amu')),         NonlinearRotor(             inertia = ([39.3973, 312.178, 345.105

>  <frequency_value>  (4) 
unknown

>  <frequency_units>  (4) 
unknown

>  <frequency_list>  (4) 
unknown

>  <arkane_path>  (4) 
/home/calvin/Dropbox/PersonalFolders/Calvin/ZEUS_Converged/rmg_rxn_15637/output/Species/rmg_rxn_15637_p2_sbr-CH2-sbrOCCC=O/arkane/output.py

>  <path_exists>  (4) 
True

>  <E0_value>  (4) 
-805813.0942219706

>  <E0_units>  (4) 
kJ/mol

>  <thermo_class>  (4) 
NASA

>  <Cp0_value>  (4) 
33.257888

>  <Cp0_units>  (4) 
J/(mol*K)

>  <CpInf_value>  (4) 
307.635464

>  <CpInf_units>  (4) 
J/(mol*K)

>  <Tmin_value>  (4) 
10.0

>  <Tmin_units>  (4) 
K

>  <Tmax_value>  (4) 
3000.0

>  <Tmax_units>  (4) 
K

>  <polynomials>  (4) 
[{"name": "polynomial1", "class": "NASAPolynomial", "Tmin_value": 10.0, "Tmin_units": "K", "Tmax_value": 414.6583286272444, "Tmax_units": "K", "coeffs": [3.5213955153033742, 0.04950404286745499, -0.00011628352768887289, 2.7743390074715546e-07, -2.402472941983462e-10, -96916927.6005055, 12.199171526820466]}, {"name": "polynomial2", "class": "NASAPolynomial", "Tmin_value": 414.6583286272444, "Tmin_units": "K", "Tmax_value": 3000.0, "Tmax_units": "K", "coeffs": [1.4929641498847677, 0.04711565325611982, -2.8220538080782138e-05, 8.15817678604303e-09, -9.127599307789776e-13, -96916570.62495346, 22.475574150745093]}]

>  <H298_value>  (4) 
-192588.6710645513

>  <H298_units>  (4) 
kcal/mol

>  <S298_value>  (4) 
87.08637821339352

>  <S298_units>  (4) 
cal/(mol*K)

>  <Cp_T_value_list>  (4) 
[26.731510611051267, 32.4373448969841, 37.67421769324967, 42.221848424568755, 49.5360153930085, 54.91346325400621, 62.762405651918456, 66.57812208990578, 68.58979288190937]

>  <Cp_T_units>  (4) 
cal/(mol*K)

>  <T_list>  (4) 
[300.0, 400.0, 500.0, 600.0, 800.0, 1000.0, 1500.0, 2000.0, 2400.0]

>  <T_units>  (4) 
K

>  <yaml_path>  (4) 
/home/calvin/Dropbox/PersonalFolders/Calvin/ZEUS_Converged/rmg_rxn_15637/output/Species/rmg_rxn_15637_p2_sbr-CH2-sbrOCCC=O/rmg_rxn_15637_p2_sbr-CH2-sbrOCCC=O.yml

>  <frequencies_cm1>  (4) 
[80.60467368615998, 88.38496805372, 151.38955836472002, 173.47378315383997, 276.47169596852, 308.33450785331996, 451.06479772951997, 539.39482990068, 678.3894797627999, 693.0024245237599, 889.8926276188, 911.8875815987599, 1010.22281138116, 1095.8472513362399, 1123.5074682051998, 1202.08638122196, 1221.6229544573598, 1296.50742937196, 1300.0576607823998, 1325.6028461728001, 1408.20581258708, 1416.80327820772, 1451.6738296626797, 1476.58725240364, 1502.1805066912798, 1822.3811651775598, 2879.2926097493996, 3002.54812925808, 3016.6323161493997, 3039.33456961732, 3059.7501169736797, 3097.4567333657997, 3244.59562781744]

>  <ZPE_kJmol>  (4) 
270.56658511886525

>  <E_elec_kJmol>  (4) 
-806083.6608070895

>  <E0_minus_Eelec_plus_ZPE_kJmol>  (4) 
0.0

>  <rxn>  (4) 
rmg_rxn_15637

>  <species_type>  (4) 
p1

>  <species_folder>  (4) 
rmg_rxn_15637_p2_sbr-CH2-sbrOCCC=O

>  <frequencies_cm1_list>  (4) 
[80.60467368615998, 88.38496805372, 151.38955836472002, 173.47378315383997, 276.47169596852, 308.33450785331996, 451.06479772951997, 539.39482990068, 678.3894797627999, 693.0024245237599, 889.8926276188, 911.8875815987599, 1010.22281138116, 1095.8472513362399, 1123.5074682051998, 1202.08638122196, 1221.6229544573598, 1296.50742937196, 1300.0576607823998, 1325.6028461728001, 1408.20581258708, 1416.80327820772, 1451.6738296626797, 1476.58725240364, 1502.1805066912798, 1822.3811651775598, 2879.2926097493996, 3002.54812925808, 3016.6323161493997, 3039.33456961732, 3059.7501169736797, 3097.4567333657997, 3244.59562781744]

>  <E0_kJmol>  (4) 
-805813

>  <H298_kJmol>  (4) 
-805791

$$$$

     RDKit          3D

  8  7  0  0  0  0  0  0  0  0999 V2000
    1.7077   -0.1964   -0.0607 C   0  0  0  0  0  3  0  0  0  1  0  0
    0.4209   -0.4565    0.2808 O   0  0  0  0  0  0  0  0  0  2  0  0
   -0.4607    0.4385   -0.2968 N   0  0  0  0  0  0  0  0  0  3  0  0
   -1.6584    0.1416   -0.0244 C   0  0  0  0  0  0  0  0  0  4  0  0
    2.4163   -0.7685    0.5170 H   0  0  0  0  0  0  0  0  0  5  0  0
    1.9214    0.7645   -0.5045 H   0  0  0  0  0  0  0  0  0  6  0  0
   -2.4185    0.7953   -0.4307 H   0  0  0  0  0  0  0  0  0  7  0  0
   -1.9286   -0.7185    0.5831 H   0  0  0  0  0  0  0  0  0  8  0  0
  1  6  1  0
  1  5  1  0
  1  2  1  0
  2  3  1  0
  3  4  1  0
  4  8  1  0
  4  7  1  0
M  RAD  1   1   2
M  END
>  <rmg_smiles>  (5) 
[CH2]O[N][CH2]

>  <rmg_adjacency_list>  (5) 
multiplicity 2
1 O u0 p2 c0 {2,S} {3,S}
2 N u0 p1 c0 {1,S} {4,S}
3 C u1 p0 c0 {1,S} {5,S} {6,S}
4 C u0 p0 c0 {2,S} {7,S} {8,S}
5 H u0 p0 c0 {3,S}
6 H u0 p0 c0 {3,S}
7 H u0 p0 c0 {4,S}
8 H u0 p0 c0 {4,S}


>  <multiplicity>  (5) 
2

>  <reaction>  (5) 
rmg_rxn_15637

>  <type>  (5) 
r2

>  <role_mapnums>  (5) 
{}

>  <role_mapidx>  (5) 
{}

>  <ordered_mapped_smiles>  (5) 
[C:1]([O:2][NH:3][CH:4]([H:7])[H:8])([H:5])[H:6]

>  <level_of_theory>  (5) 
wb97xd/def2tzvp

>  <lot_method>  (5) 
wb97xd

>  <lot_basis>  (5) 
def2tzvp

>  <spin_multiplicity>  (5) 
2.0

>  <optical_isomers>  (5) 
2.0

>  <modes>  (5) 
IdealGasTranslation(mass=(58.0293, 'amu')),         NonlinearRotor(             inertia = ([10.2741, 95.4529, 105.582

>  <frequency_value>  (5) 
unknown

>  <frequency_units>  (5) 
unknown

>  <frequency_list>  (5) 
unknown

>  <arkane_path>  (5) 
/home/calvin/Dropbox/PersonalFolders/Calvin/ZEUS_Converged/rmg_rxn_15637/output/Species/rmg_rxn_15637_r1_sbr-CH2-sbrON=C/arkane/output.py

>  <path_exists>  (5) 
True

>  <E0_value>  (5) 
-547168.2732446302

>  <E0_units>  (5) 
kJ/mol

>  <thermo_class>  (5) 
NASA

>  <Cp0_value>  (5) 
33.257888

>  <Cp0_units>  (5) 
J/(mol*K)

>  <CpInf_value>  (5) 
182.918384

>  <CpInf_units>  (5) 
J/(mol*K)

>  <Tmin_value>  (5) 
10.0

>  <Tmin_units>  (5) 
K

>  <Tmax_value>  (5) 
3000.0

>  <Tmax_units>  (5) 
K

>  <polynomials>  (5) 
[{"name": "polynomial1", "class": "NASAPolynomial", "Tmin_value": 10.0, "Tmin_units": "K", "Tmax_value": 253.2842427910515, "Tmax_units": "K", "coeffs": [3.956862909385456, 0.0038362890131335746, 0.00011727738047703725, -3.4736244039427427e-07, 3.472729073035136e-10, -65809144.38694886, 9.350338763280796]}, {"name": "polynomial2", "class": "NASAPolynomial", "Tmin_value": 253.2842427910515, "Tmin_units": "K", "Tmax_value": 3000.0, "Tmax_units": "K", "coeffs": [2.5252197328965313, 0.026445761179553072, -1.662161754135038e-05, 5.074735532607581e-09, -5.97403912324656e-13, -65809071.86505469, 14.291183066674913]}]

>  <H298_value>  (5) 
-130772.65860702786

>  <H298_units>  (5) 
kcal/mol

>  <S298_value>  (5) 
71.26914844977757

>  <S298_units>  (5) 
cal/(mol*K)

>  <Cp_T_value_list>  (5) 
[18.0740035969719, 21.369534269323825, 24.223451351766553, 26.683440747612977, 30.598134113509214, 33.438117676478754, 37.554421513360474, 39.68390492467901, 40.91110806828642]

>  <Cp_T_units>  (5) 
cal/(mol*K)

>  <T_list>  (5) 
[300.0, 400.0, 500.0, 600.0, 800.0, 1000.0, 1500.0, 2000.0, 2400.0]

>  <T_units>  (5) 
K

>  <yaml_path>  (5) 
/home/calvin/Dropbox/PersonalFolders/Calvin/ZEUS_Converged/rmg_rxn_15637/output/Species/rmg_rxn_15637_r1_sbr-CH2-sbrON=C/rmg_rxn_15637_r1_sbr-CH2-sbrON=C.yml

>  <frequencies_cm1>  (5) 
[132.13453152744, 273.14807507364, 360.4549264321199, 498.69420790903996, 595.9169860696, 789.3942974605999, 873.74834513148, 993.5360370535599, 1152.01232426852, 1206.54305469464, 1257.0497317232398, 1417.2771001948001, 1437.260027476, 1705.2166616477198, 3090.5210781926, 3134.7719315946797, 3218.94057066192, 3282.16490450316]

>  <ZPE_kJmol>  (5) 
152.0381400376291

>  <E_elec_kJmol>  (5) 
-547320.3113846679

>  <E0_minus_Eelec_plus_ZPE_kJmol>  (5) 
0.0

>  <rxn>  (5) 
rmg_rxn_15637

>  <species_type>  (5) 
r0

>  <species_folder>  (5) 
rmg_rxn_15637_r1_sbr-CH2-sbrON=C

>  <frequencies_cm1_list>  (5) 
[132.13453152744, 273.14807507364, 360.4549264321199, 498.69420790903996, 595.9169860696, 789.3942974605999, 873.74834513148, 993.5360370535599, 1152.01232426852, 1206.54305469464, 1257.0497317232398, 1417.2771001948001, 1437.260027476, 1705.2166616477198, 3090.5210781926, 3134.7719315946797, 3218.94057066192, 3282.16490450316]

>  <E0_kJmol>  (5) 
-547168

>  <H298_kJmol>  (5) 
-547153

$$$$
