
     RDKit          3D

 15 14  0  0  0  0  0  0  0  0999 V2000
    1.0158   -0.0798    1.8548 C   0  0  0  0  0  0  0  0  0  1  0  0
   -0.1100    0.7419    1.2808 C   0  0  0  0  0  0  0  0  0  2  0  0
   -0.1578    0.7183   -0.2338 C   0  0  0  0  0  0  0  0  0  3  0  0
   -0.3873   -0.6007   -0.6681 O   0  0  0  0  0  0  0  0  0  4  0  0
   -0.3862   -0.7197   -2.0627 C   0  0  0  0  0  0  0  0  0  5  0  0
    1.9438    0.4112    1.5673 H   0  0  0  0  0  0  0  0  0  6  0  0
    1.0945   -1.0824    1.4388 H   0  0  0  0  0  0  0  0  0  7  0  0
    1.0569   -0.0867    2.9428 H   0  0  0  0  0  0  0  0  0  8  0  0
   -1.0673    0.3740    1.6667 H   0  0  0  0  0  0  0  0  0  9  0  0
   -0.0151    1.7818    1.6040 H   0  0  0  0  0  0  0  0  0 10  0  0
   -0.9603    1.3773   -0.5952 H   0  0  0  0  0  0  0  0  0 11  0  0
    0.7892    1.0943   -0.6454 H   0  0  0  0  0  0  0  0  0 12  0  0
    0.5780   -0.4157   -2.4917 H   0  0  0  0  0  0  0  0  0 13  0  0
   -1.1750   -0.1068   -2.5198 H   0  0  0  0  0  0  0  0  0 14  0  0
   -0.5677   -1.7659   -2.3054 H   0  0  0  0  0  0  0  0  0 15  0  0
  1  8  1  0
  1  7  1  0
  1  6  1  0
  1  2  1  0
  2 10  1  0
  2  9  1  0
  2  3  1  0
  3 11  1  0
  3  4  1  0
  3 12  1  0
  4  5  1  0
  5 13  1  0
  5 14  1  0
  5 15  1  0
M  END
>  <rmg_smiles>  (1) 
CCCOC

>  <rmg_adjacency_list>  (1) 
1  O u0 p2 c0 {3,S} {5,S}
2  C u0 p0 c0 {3,S} {4,S} {6,S} {7,S}
3  C u0 p0 c0 {1,S} {2,S} {8,S} {9,S}
4  C u0 p0 c0 {2,S} {10,S} {11,S} {12,S}
5  C u0 p0 c0 {1,S} {13,S} {14,S} {15,S}
6  H u0 p0 c0 {2,S}
7  H u0 p0 c0 {2,S}
8  H u0 p0 c0 {3,S}
9  H u0 p0 c0 {3,S}
10 H u0 p0 c0 {4,S}
11 H u0 p0 c0 {4,S}
12 H u0 p0 c0 {4,S}
13 H u0 p0 c0 {5,S}
14 H u0 p0 c0 {5,S}
15 H u0 p0 c0 {5,S}


>  <multiplicity>  (1) 
1

>  <reaction>  (1) 
rmg_rxn_15521

>  <type>  (1) 
r1h

>  <role_mapnums>  (1) 
{"r1h_a": 1, "r1h_h": 6}

>  <role_mapidx>  (1) 
{"r1h_a": 0, "r1h_h": 5}

>  <ordered_mapped_smiles>  (1) 
[C:1]([C:2]([C:3]([O:4][C:5]([H:13])([H:14])[H:15])([H:11])[H:12])([H:9])[H:10])([H:6])([H:7])[H:8]

>  <mol_properties>  (1) 
{"0": {"label": "donator", "atom_type": "Cs"}, "5": {"label": "d_hydrogen", "atom_type": "H0"}}

>  <level_of_theory>  (1) 
wb97xd/def2tzvp

>  <lot_method>  (1) 
wb97xd

>  <lot_basis>  (1) 
def2tzvp

>  <spin_multiplicity>  (1) 
1.0

>  <optical_isomers>  (1) 
2.0

>  <modes>  (1) 
IdealGasTranslation(mass=(74.0732, 'amu')),         NonlinearRotor(             inertia = ([40.784, 192.218, 211.735

>  <frequency_value>  (1) 
unknown

>  <frequency_units>  (1) 
unknown

>  <frequency_list>  (1) 
unknown

>  <arkane_path>  (1) 
/home/calvin/Dropbox/PersonalFolders/Calvin/ZEUS_Converged/rmg_rxn_15521/output/Species/rmg_rxn_15521_r2_CCCOC/arkane/output.py

>  <path_exists>  (1) 
True

>  <E0_value>  (1) 
-613163.1274359095

>  <E0_units>  (1) 
kJ/mol

>  <thermo_class>  (1) 
NASA

>  <Cp0_value>  (1) 
33.257888

>  <Cp0_units>  (1) 
J/(mol*K)

>  <CpInf_value>  (1) 
357.522296

>  <CpInf_units>  (1) 
J/(mol*K)

>  <Tmin_value>  (1) 
10.0

>  <Tmin_units>  (1) 
K

>  <Tmax_value>  (1) 
3000.0

>  <Tmax_units>  (1) 
K

>  <polynomials>  (1) 
[{"name": "polynomial1", "class": "NASAPolynomial", "Tmin_value": 10.0, "Tmin_units": "K", "Tmax_value": 456.12560324554056, "Tmax_units": "K", "coeffs": [3.62223196701835, 0.03879795217402279, -8.359648491421e-05, 2.4522721819815076e-07, -2.187140949836333e-10, -73746489.62884024, 10.515609438787227]}, {"name": "polynomial2", "class": "NASAPolynomial", "Tmin_value": 456.12560324554056, "Tmin_units": "K", "Tmax_value": 3000.0, "Tmax_units": "K", "coeffs": [-2.20935170520275, 0.056485006605310945, -3.174876766111153e-05, 8.65420390010314e-09, -9.198389746305381e-13, -73745609.6450763, 37.88661603232218]}]

>  <H298_value>  (1) 
-146544.64412500645

>  <H298_units>  (1) 
kcal/mol

>  <S298_value>  (1) 
80.94634663649457

>  <S298_units>  (1) 
cal/(mol*K)

>  <Cp_T_value_list>  (1) 
[25.013931424396034, 31.51994949570118, 37.99587562842776, 43.72290058989096, 53.08549647523409, 60.13535702830284, 70.81347633831932, 76.07383878332065, 78.6922399009724]

>  <Cp_T_units>  (1) 
cal/(mol*K)

>  <T_list>  (1) 
[300.0, 400.0, 500.0, 600.0, 800.0, 1000.0, 1500.0, 2000.0, 2400.0]

>  <T_units>  (1) 
K

>  <yaml_path>  (1) 
/home/calvin/Dropbox/PersonalFolders/Calvin/ZEUS_Converged/rmg_rxn_15521/output/Species/rmg_rxn_15521_r2_CCCOC/rmg_rxn_15521_r2_CCCOC.yml

>  <frequencies_cm1>  (1) 
[91.63991909539999, 126.96369158147998, 202.90568223536002, 229.57705321824, 300.01172164547995, 354.24717170284, 509.22129640459997, 764.38473692516, 888.9449836446399, 924.72884414716, 957.6835066978399, 1072.9458552940398, 1116.4482072962398, 1154.8689901616399, 1177.001283848, 1188.20133690492, 1229.14230338276, 1271.07211574668, 1307.65941353164, 1369.5858871474, 1403.3027850685999, 1415.972372984, 1467.6807724436, 1468.93743075716, 1475.31686011944, 1481.9915698504797, 1490.39675988216, 1494.07059702836, 1510.75737135596, 2928.3984217727198, 2950.9908034755194, 2962.18398954712, 2998.10518975604, 3014.75762915704, 3020.7181724148, 3057.78615917216, 3085.0343569219203, 3099.33828734348, 3104.91427942332]

>  <ZPE_kJmol>  (1) 
356.89332738911673

>  <E_elec_kJmol>  (1) 
-613520.0207632986

>  <E0_minus_Eelec_plus_ZPE_kJmol>  (1) 
0.0

>  <rxn>  (1) 
rmg_rxn_15521

>  <species_type>  (1) 
r1

>  <species_folder>  (1) 
rmg_rxn_15521_r2_CCCOC

>  <frequencies_cm1_list>  (1) 
[91.63991909539999, 126.96369158147998, 202.90568223536002, 229.57705321824, 300.01172164547995, 354.24717170284, 509.22129640459997, 764.38473692516, 888.9449836446399, 924.72884414716, 957.6835066978399, 1072.9458552940398, 1116.4482072962398, 1154.8689901616399, 1177.001283848, 1188.20133690492, 1229.14230338276, 1271.07211574668, 1307.65941353164, 1369.5858871474, 1403.3027850685999, 1415.972372984, 1467.6807724436, 1468.93743075716, 1475.31686011944, 1481.9915698504797, 1490.39675988216, 1494.07059702836, 1510.75737135596, 2928.3984217727198, 2950.9908034755194, 2962.18398954712, 2998.10518975604, 3014.75762915704, 3020.7181724148, 3057.78615917216, 3085.0343569219203, 3099.33828734348, 3104.91427942332]

>  <E0_kJmol>  (1) 
-613163

>  <H298_kJmol>  (1) 
-613143

$$$$

     RDKit          3D

  6  5  0  0  0  0  0  0  0  0999 V2000
    0.5986    0.8598   -0.3458 O   0  0  0  0  0  0  0  0  0  1  0  0
   -0.4997    0.0583   -0.0043 N   0  0  0  0  0  0  0  0  0  2  0  0
   -0.1896   -1.0743    0.4096 C   0  0  0  0  0  0  0  0  0  3  0  0
    0.1843    1.6765   -0.6336 H   0  0  0  0  0  0  0  0  0  4  0  0
    0.8142   -1.4822    0.5285 H   0  0  0  0  0  0  0  0  0  5  0  0
   -1.0489   -1.6819    0.6933 H   0  0  0  0  0  0  0  0  0  6  0  0
  1  4  1  0
  1  2  1  0
  2  3  1  0
  3  6  1  0
  3  5  1  0
M  END
>  <rmg_smiles>  (2) 
[CH2][N]O

>  <rmg_adjacency_list>  (2) 
1 O u0 p2 c0 {2,S} {6,S}
2 N u0 p1 c0 {1,S} {3,S}
3 C u0 p0 c0 {2,S} {4,S} {5,S}
4 H u0 p0 c0 {3,S}
5 H u0 p0 c0 {3,S}
6 H u0 p0 c0 {1,S}


>  <multiplicity>  (2) 
1

>  <reaction>  (2) 
rmg_rxn_15521

>  <type>  (2) 
r2h

>  <role_mapnums>  (2) 
{"r2h_a": 3, "r2h_h": 6}

>  <role_mapidx>  (2) 
{"r2h_a": 2, "r2h_h": 5}

>  <ordered_mapped_smiles>  (2) 
[O:1]([NH:2][CH:3]([H:5])[H:6])[H:4]

>  <mol_properties>  (2) 
{"2": {"label": "acceptor", "atom_type": "Cs"}, "5": {"label": "a_hydrogen", "atom_type": "H0"}}

>  <level_of_theory>  (2) 
wb97xd/def2tzvp

>  <lot_method>  (2) 
wb97xd

>  <lot_basis>  (2) 
def2tzvp

>  <spin_multiplicity>  (2) 
1.0

>  <optical_isomers>  (2) 
1.0

>  <modes>  (2) 
IdealGasTranslation(mass=(45.0215, 'amu')),         NonlinearRotor(             inertia = ([7.10552, 42.1368, 49.2423

>  <frequency_value>  (2) 
unknown

>  <frequency_units>  (2) 
unknown

>  <frequency_list>  (2) 
unknown

>  <arkane_path>  (2) 
/home/calvin/Dropbox/PersonalFolders/Calvin/ZEUS_Converged/rmg_rxn_15521/output/Species/rmg_rxn_15521_p1_ON=C/arkane/output.py

>  <path_exists>  (2) 
True

>  <E0_value>  (2) 
-445765.04652910994

>  <E0_units>  (2) 
kJ/mol

>  <thermo_class>  (2) 
NASA

>  <Cp0_value>  (2) 
33.257888

>  <Cp0_units>  (2) 
J/(mol*K)

>  <CpInf_value>  (2) 
133.031552

>  <CpInf_units>  (2) 
J/(mol*K)

>  <Tmin_value>  (2) 
10.0

>  <Tmin_units>  (2) 
K

>  <Tmax_value>  (2) 
3000.0

>  <Tmax_units>  (2) 
K

>  <polynomials>  (2) 
[{"name": "polynomial1", "class": "NASAPolynomial", "Tmin_value": 10.0, "Tmin_units": "K", "Tmax_value": 555.0008285415723, "Tmax_units": "K", "coeffs": [4.0729558966761115, -0.006525504673073184, 8.044401869233928e-05, -1.3643340673050255e-07, 7.605604608176978e-11, -53613151.050707266, 6.598063650688069]}, {"name": "polynomial2", "class": "NASAPolynomial", "Tmin_value": 555.0008285415723, "Tmin_units": "K", "Tmax_value": 3000.0, "Tmax_units": "K", "coeffs": [1.9629419554542669, 0.01794293278685335, -1.0716899102514014e-05, 3.1351804200574135e-09, -3.5588210478784073e-13, -53613059.472560614, 14.250328412630774]}]

>  <H298_value>  (2) 
-106537.6194767193

>  <H298_units>  (2) 
kcal/mol

>  <S298_value>  (2) 
60.36296822828259

>  <S298_units>  (2) 
cal/(mol*K)

>  <Cp_T_value_list>  (2) 
[12.494795700177992, 15.001608210431446, 17.130783734283074, 18.881829280437152, 21.69615330289245, 23.7834318087242, 26.9145239767162, 28.553257692891545, 29.47039525924992]

>  <Cp_T_units>  (2) 
cal/(mol*K)

>  <T_list>  (2) 
[300.0, 400.0, 500.0, 600.0, 800.0, 1000.0, 1500.0, 2000.0, 2400.0]

>  <T_units>  (2) 
K

>  <yaml_path>  (2) 
/home/calvin/Dropbox/PersonalFolders/Calvin/ZEUS_Converged/rmg_rxn_15521/output/Species/rmg_rxn_15521_p1_ON=C/rmg_rxn_15521_p1_ON=C.yml

>  <frequencies_cm1>  (2) 
[438.20980121048, 539.7244451960399, 801.7205361099999, 965.59427378648, 986.4836431299199, 1183.2914424011199, 1353.5034075279598, 1444.4016922088, 1728.97643085492, 3083.6403589019596, 3214.03754314344, 3841.1169085952]

>  <ZPE_kJmol>  (2) 
117.11863122037906

>  <E_elec_kJmol>  (2) 
-445882.1651603303

>  <E0_minus_Eelec_plus_ZPE_kJmol>  (2) 
0.0

>  <rxn>  (2) 
rmg_rxn_15521

>  <species_type>  (2) 
p0

>  <species_folder>  (2) 
rmg_rxn_15521_p1_ON=C

>  <frequencies_cm1_list>  (2) 
[438.20980121048, 539.7244451960399, 801.7205361099999, 965.59427378648, 986.4836431299199, 1183.2914424011199, 1353.5034075279598, 1444.4016922088, 1728.97643085492, 3083.6403589019596, 3214.03754314344, 3841.1169085952]

>  <E0_kJmol>  (2) 
-445765

>  <H298_kJmol>  (2) 
-445753

$$$$

     RDKit          3D

 20 18  0  0  0  0  0  0  0  0999 V2000
    2.6991    2.3441    0.1668 O   0  0  0  0  0  0  0  0  0  1  0  0
    1.6009    1.5425    0.5083 N   0  0  0  0  0  0  0  0  0  2  0  0
    1.9110    0.4099    0.9222 C   0  0  0  0  0  3  0  0  0  3  0  0
    2.2848    3.1607   -0.1210 H   0  0  0  0  0  0  0  0  0  4  0  0
    2.9148    0.0020    1.0411 H   0  0  0  0  0  0  0  0  0  5  0  0
   -0.2877   -0.9508    1.6259 C   0  0  0  0  0  0  0  0  0  6  0  0
   -1.4136   -0.1291    1.0519 C   0  0  0  0  0  0  0  0  0  7  0  0
   -1.4614   -0.1526   -0.4627 C   0  0  0  0  0  0  0  0  0  8  0  0
   -1.6908   -1.4716   -0.8970 O   0  0  0  0  0  0  0  0  0  9  0  0
   -1.6897   -1.5906   -2.2916 C   0  0  0  0  0  0  0  0  0 10  0  0
    0.8018   -0.3744    1.2884 H   0  0  0  0  0  0  0  0  0 11  0  0
   -0.2090   -1.9533    1.2099 H   0  0  0  0  0  0  0  0  0 12  0  0
   -0.2466   -0.9576    2.7139 H   0  0  0  0  0  0  0  0  0 13  0  0
   -2.3709   -0.4969    1.4378 H   0  0  0  0  0  0  0  0  0 14  0  0
   -1.3186    0.9108    1.3751 H   0  0  0  0  0  0  0  0  0 15  0  0
   -2.2639    0.5064   -0.8241 H   0  0  0  0  0  0  0  0  0 16  0  0
   -0.5143    0.2233   -0.8743 H   0  0  0  0  0  0  0  0  0 17  0  0
   -0.7256   -1.2867   -2.7206 H   0  0  0  0  0  0  0  0  0 18  0  0
   -2.4785   -0.9777   -2.7487 H   0  0  0  0  0  0  0  0  0 19  0  0
   -1.8713   -2.6369   -2.5343 H   0  0  0  0  0  0  0  0  0 20  0  0
  1  4  1  0
  1  2  1  0
  2  3  1  0
  3  5  1  0
  6 13  1  0
  6  7  1  0
  6 11  1  0
  6 12  1  0
  7 14  1  0
  7  8  1  0
  7 15  1  0
  8 16  1  0
  8 17  1  0
  8  9  1  0
  9 10  1  0
 10 19  1  0
 10 20  1  0
 10 18  1  0
M  RAD  1   3   2
M  END
>  <rmg_smiles>  (3) 
CCCOC.[CH][N]O

>  <rmg_adjacency_list>  (3) 
multiplicity 2
1  O u0 p2 c0 {5,S} {7,S}
2  O u0 p2 c0 {3,S} {19,S}
3  N u0 p1 c0 {2,S} {8,S}
4  C u0 p0 c0 {5,S} {6,S} {9,S} {10,S}
5  C u0 p0 c0 {1,S} {4,S} {11,S} {12,S}
6  C u0 p0 c0 {4,S} {13,S} {14,S} {15,S}
7  C u0 p0 c0 {1,S} {16,S} {17,S} {18,S}
8  C u1 p1 c0 {3,S} {20,S}
9  H u0 p0 c0 {4,S}
10 H u0 p0 c0 {4,S}
11 H u0 p0 c0 {5,S}
12 H u0 p0 c0 {5,S}
13 H u0 p0 c0 {6,S}
14 H u0 p0 c0 {6,S}
15 H u0 p0 c0 {6,S}
16 H u0 p0 c0 {7,S}
17 H u0 p0 c0 {7,S}
18 H u0 p0 c0 {7,S}
19 H u0 p0 c0 {2,S}
20 H u0 p0 c0 {8,S}


>  <multiplicity>  (3) 
2

>  <reaction>  (3) 
rmg_rxn_15521

>  <type>  (3) 
ts

>  <role_mapnums>  (3) 
{"*2": 11, "*1": 6, "*3": 3, "*0": 7, "*4": 2}

>  <role_mapidx>  (3) 
{"*2": 10, "*1": 5, "*3": 2, "*0": 6, "*4": 1}

>  <ordered_mapped_smiles>  (3) 
[O:1]([NH:2][CH:3][H:5])[H:4].[C:6]([C:7]([C:8]([O:9][C:10]([H:18])([H:19])[H:20])([H:16])[H:17])([H:14])[H:15])([H:11])([H:12])[H:13]

>  <mol_properties>  (3) 
{"1": {"label": "*4", "atom_type": "N3s"}, "2": {"label": "*3", "atom_type": "C2s"}, "5": {"label": "*1", "atom_type": "Cs"}, "6": {"label": "*0", "atom_type": "Cs"}, "10": {"label": "*2", "atom_type": "H0"}}

>  <level_of_theory>  (3) 
wb97xd/def2tzvp

>  <lot_method>  (3) 
wb97xd

>  <lot_basis>  (3) 
def2tzvp

>  <spin_multiplicity>  (3) 
2.0

>  <optical_isomers>  (3) 
2.0

>  <modes>  (3) 
IdealGasTranslation(mass=(118.087, 'amu')),         NonlinearRotor(             inertia = ([179.035, 631.708, 721.527

>  <frequency_value>  (3) 
-1534.09

>  <frequency_units>  (3) 
cm^-1

>  <frequency_list>  (3) 
unknown

>  <arkane_path>  (3) 
/home/calvin/Dropbox/PersonalFolders/Calvin/ZEUS_Converged/rmg_rxn_15521/output/rxns/TS0/arkane/output.py

>  <path_exists>  (3) 
True

>  <E0_value>  (3) 
-1057130.0

>  <E0_units>  (3) 
kJ/mol

>  <thermo_class>  (3) 
unknown

>  <Cp0_value>  (3) 
unknown

>  <Cp0_units>  (3) 
unknown

>  <CpInf_value>  (3) 
unknown

>  <CpInf_units>  (3) 
unknown

>  <Tmin_value>  (3) 
unknown

>  <Tmin_units>  (3) 
unknown

>  <Tmax_value>  (3) 
unknown

>  <Tmax_units>  (3) 
unknown

>  <polynomials>  (3) 
unknown

>  <H298_value>  (3) 
unknown

>  <H298_units>  (3) 
unknown

>  <S298_value>  (3) 
unknown

>  <S298_units>  (3) 
unknown

>  <Cp_T_value_list>  (3) 
unknown

>  <Cp_T_units>  (3) 
unknown

>  <T_list>  (3) 
unknown

>  <T_units>  (3) 
unknown

>  <yaml_path>  (3) 
unknown

>  <frequencies_cm1>  (3) 
unknown

>  <ZPE_kJmol>  (3) 
unknown

>  <E_elec_kJmol>  (3) 
unknown

>  <E0_minus_Eelec_plus_ZPE_kJmol>  (3) 
unknown

>  <rxn>  (3) 
unknown

>  <species_type>  (3) 
unknown

>  <species_folder>  (3) 
unknown

>  <frequencies_cm1_list>  (3) 
[]

>  <ts_imag_freq_cm1>  (3) 
-1552.7261

>  <ts_freq_out_path>  (3) 
/home/calvin/Dropbox/PersonalFolders/Calvin/ZEUS_Converged/rmg_rxn_15521/output/rxns/TS0/geometry/freq.out

>  <E0_kJmol>  (3) 
-1.05713e+06

>  <H298_kJmol>  (3) 
unknown

$$$$

     RDKit          3D

 14 13  0  0  0  0  0  0  0  0999 V2000
   -1.9167    0.6959   -0.2757 C   0  0  0  0  0  3  0  0  0  1  0  0
   -1.2132   -0.5025    0.2432 C   0  0  0  0  0  0  0  0  0  2  0  0
   -2.1451   -1.6324    0.6428 C   0  0  0  0  0  0  0  0  0  3  0  0
   -2.9617   -1.2014    1.7018 O   0  0  0  0  0  0  0  0  0  4  0  0
   -3.8940   -2.1678    2.0979 C   0  0  0  0  0  0  0  0  0  5  0  0
   -2.9039    0.9452    0.0878 H   0  0  0  0  0  0  0  0  0  6  0  0
   -1.3969    1.4143   -0.8945 H   0  0  0  0  0  0  0  0  0  7  0  0
   -0.5037   -0.8823   -0.4987 H   0  0  0  0  0  0  0  0  0  8  0  0
   -0.6099   -0.2396    1.1256 H   0  0  0  0  0  0  0  0  0  9  0  0
   -2.7665   -1.9311   -0.2146 H   0  0  0  0  0  0  0  0  0 10  0  0
   -1.5607   -2.5114    0.9518 H   0  0  0  0  0  0  0  0  0 11  0  0
   -3.4000   -3.0856    2.4446 H   0  0  0  0  0  0  0  0  0 12  0  0
   -4.4753   -1.7487    2.9180 H   0  0  0  0  0  0  0  0  0 13  0  0
   -4.5741   -2.4312    1.2767 H   0  0  0  0  0  0  0  0  0 14  0  0
  1  7  1  0
  1  6  1  0
  1  2  1  0
  2  9  1  0
  2  8  1  0
  2  3  1  0
  3 11  1  0
  3  4  1  0
  3 10  1  0
  4  5  1  0
  5 13  1  0
  5 12  1  0
  5 14  1  0
M  RAD  1   1   2
M  END
>  <rmg_smiles>  (4) 
[CH2]CCOC

>  <rmg_adjacency_list>  (4) 
multiplicity 2
1  O u0 p2 c0 {3,S} {4,S}
2  C u0 p0 c0 {3,S} {5,S} {6,S} {7,S}
3  C u0 p0 c0 {1,S} {2,S} {8,S} {9,S}
4  C u0 p0 c0 {1,S} {10,S} {11,S} {12,S}
5  C u1 p0 c0 {2,S} {13,S} {14,S}
6  H u0 p0 c0 {2,S}
7  H u0 p0 c0 {2,S}
8  H u0 p0 c0 {3,S}
9  H u0 p0 c0 {3,S}
10 H u0 p0 c0 {4,S}
11 H u0 p0 c0 {4,S}
12 H u0 p0 c0 {4,S}
13 H u0 p0 c0 {5,S}
14 H u0 p0 c0 {5,S}


>  <multiplicity>  (4) 
2

>  <reaction>  (4) 
rmg_rxn_15521

>  <type>  (4) 
r1

>  <role_mapnums>  (4) 
{}

>  <role_mapidx>  (4) 
{}

>  <ordered_mapped_smiles>  (4) 
[C:1]([C:2]([C:3]([O:4][C:5]([H:12])([H:13])[H:14])([H:10])[H:11])([H:8])[H:9])([H:6])[H:7]

>  <level_of_theory>  (4) 
wb97xd/def2tzvp

>  <lot_method>  (4) 
wb97xd

>  <lot_basis>  (4) 
def2tzvp

>  <spin_multiplicity>  (4) 
2.0

>  <optical_isomers>  (4) 
2.0

>  <modes>  (4) 
IdealGasTranslation(mass=(73.0653, 'amu')),         NonlinearRotor(             inertia = ([38.0238, 185.791, 205.752

>  <frequency_value>  (4) 
unknown

>  <frequency_units>  (4) 
unknown

>  <frequency_list>  (4) 
unknown

>  <arkane_path>  (4) 
/home/calvin/Dropbox/PersonalFolders/Calvin/ZEUS_Converged/rmg_rxn_15521/output/Species/rmg_rxn_15521_p2_sbr-CH2-sbrCCOC/arkane/output.py

>  <path_exists>  (4) 
True

>  <E0_value>  (4) 
-611430.8416492126

>  <E0_units>  (4) 
kJ/mol

>  <thermo_class>  (4) 
NASA

>  <Cp0_value>  (4) 
33.257888

>  <Cp0_units>  (4) 
J/(mol*K)

>  <CpInf_value>  (4) 
332.57888

>  <CpInf_units>  (4) 
J/(mol*K)

>  <Tmin_value>  (4) 
10.0

>  <Tmin_units>  (4) 
K

>  <Tmax_value>  (4) 
3000.0

>  <Tmax_units>  (4) 
K

>  <polynomials>  (4) 
[{"name": "polynomial1", "class": "NASAPolynomial", "Tmin_value": 10.0, "Tmin_units": "K", "Tmax_value": 450.566651997761, "Tmax_units": "K", "coeffs": [3.5825327648941006, 0.041973241751241355, -7.911791109560594e-05, 1.9913736519813834e-07, -1.7175870378013962e-10, -73538143.15975535, 11.186071289393592]}, {"name": "polynomial2", "class": "NASAPolynomial", "Tmin_value": 450.566651997761, "Tmin_units": "K", "Tmax_value": 3000.0, "Tmax_units": "K", "coeffs": [-0.06853123887029132, 0.050652392811568726, -2.8998407204837835e-05, 8.069626388168892e-09, -8.751392859229036e-13, -73537573.23853804, 28.562966507545866]}]

>  <H298_value>  (4) 
-146130.4182107022

>  <H298_units>  (4) 
kcal/mol

>  <S298_value>  (4) 
83.48081459487457

>  <S298_units>  (4) 
cal/(mol*K)

>  <Cp_T_value_list>  (4) 
[25.911894305931487, 31.91599152937113, 37.68154968742389, 42.75097039263278, 51.00680977698502, 57.19168678652965, 66.50830051204429, 71.13684208475438, 73.49858123212063]

>  <Cp_T_units>  (4) 
cal/(mol*K)

>  <T_list>  (4) 
[300.0, 400.0, 500.0, 600.0, 800.0, 1000.0, 1500.0, 2000.0, 2400.0]

>  <T_units>  (4) 
K

>  <yaml_path>  (4) 
/home/calvin/Dropbox/PersonalFolders/Calvin/ZEUS_Converged/rmg_rxn_15521/output/Species/rmg_rxn_15521_p2_sbr-CH2-sbrCCOC/rmg_rxn_15521_p2_sbr-CH2-sbrCCOC.yml

>  <frequencies_cm1>  (4) 
[91.79785975776, 128.88644747108, 148.23761210284002, 229.30237380544, 267.12572894799996, 354.0342951579199, 470.38162743467996, 527.67975294476, 763.3272211858798, 913.91334226816, 950.0405520366799, 1032.44437587668, 1082.2231524613599, 1118.21302252348, 1173.2519098632797, 1178.203006279, 1209.11130720432, 1241.02218798636, 1290.80783155636, 1365.1223466894, 1407.86246332108, 1438.60595659872, 1448.4875484742, 1469.4661886268, 1475.5572046056398, 1489.66885943824, 1510.1805445890798, 2938.5478260756795, 2941.22595035048, 2953.2843765723997, 2974.90164635976, 3000.67344226572, 3028.9722887694397, 3100.5812116864, 3130.8577499622797, 3236.6161908756]

>  <ZPE_kJmol>  (4) 
317.492677323192

>  <E_elec_kJmol>  (4) 
-611748.3343265358

>  <E0_minus_Eelec_plus_ZPE_kJmol>  (4) 
0.0

>  <rxn>  (4) 
rmg_rxn_15521

>  <species_type>  (4) 
p1

>  <species_folder>  (4) 
rmg_rxn_15521_p2_sbr-CH2-sbrCCOC

>  <frequencies_cm1_list>  (4) 
[91.79785975776, 128.88644747108, 148.23761210284002, 229.30237380544, 267.12572894799996, 354.0342951579199, 470.38162743467996, 527.67975294476, 763.3272211858798, 913.91334226816, 950.0405520366799, 1032.44437587668, 1082.2231524613599, 1118.21302252348, 1173.2519098632797, 1178.203006279, 1209.11130720432, 1241.02218798636, 1290.80783155636, 1365.1223466894, 1407.86246332108, 1438.60595659872, 1448.4875484742, 1469.4661886268, 1475.5572046056398, 1489.66885943824, 1510.1805445890798, 2938.5478260756795, 2941.22595035048, 2953.2843765723997, 2974.90164635976, 3000.67344226572, 3028.9722887694397, 3100.5812116864, 3130.8577499622797, 3236.6161908756]

>  <E0_kJmol>  (4) 
-611431

>  <H298_kJmol>  (4) 
-611410

$$$$

     RDKit          3D

  5  4  0  0  0  0  0  0  0  0999 V2000
    0.8934    0.3742    0.4948 O   0  0  0  0  0  0  0  0  0  1  0  0
    0.1582   -0.1610   -0.5904 N   0  0  0  0  0  0  0  0  0  2  0  0
   -1.0297   -0.3739   -0.4689 C   0  0  0  0  0  3  0  0  0  3  0  0
    1.7804    0.4382    0.1306 H   0  0  0  0  0  0  0  0  0  4  0  0
   -1.8023   -0.2775    0.2859 H   0  0  0  0  0  0  0  0  0  5  0  0
  1  4  1  0
  1  2  1  0
  2  3  1  0
  3  5  1  0
M  RAD  1   3   2
M  END
>  <rmg_smiles>  (5) 
[CH][N]O

>  <rmg_adjacency_list>  (5) 
multiplicity 2
1 O u0 p2 c0 {2,S} {4,S}
2 N u0 p1 c0 {1,S} {3,S}
3 C u1 p1 c0 {2,S} {5,S}
4 H u0 p0 c0 {1,S}
5 H u0 p0 c0 {3,S}


>  <multiplicity>  (5) 
2

>  <reaction>  (5) 
rmg_rxn_15521

>  <type>  (5) 
r2

>  <role_mapnums>  (5) 
{}

>  <role_mapidx>  (5) 
{}

>  <ordered_mapped_smiles>  (5) 
[O:1]([NH:2][CH:3][H:5])[H:4]

>  <level_of_theory>  (5) 
wb97xd/def2tzvp

>  <lot_method>  (5) 
wb97xd

>  <lot_basis>  (5) 
def2tzvp

>  <spin_multiplicity>  (5) 
2.0

>  <optical_isomers>  (5) 
1.0

>  <modes>  (5) 
IdealGasTranslation(mass=(44.0136, 'amu')),         NonlinearRotor(inertia=([5.8161, 41.482, 47.298

>  <frequency_value>  (5) 
unknown

>  <frequency_units>  (5) 
unknown

>  <frequency_list>  (5) 
unknown

>  <arkane_path>  (5) 
/home/calvin/Dropbox/PersonalFolders/Calvin/ZEUS_Converged/rmg_rxn_15521/output/Species/rmg_rxn_15521_r1_ON=sbr-CH-sbr/arkane/output.py

>  <path_exists>  (5) 
True

>  <E0_value>  (5) 
-444005.3444875403

>  <E0_units>  (5) 
kJ/mol

>  <thermo_class>  (5) 
NASA

>  <Cp0_value>  (5) 
33.257888

>  <Cp0_units>  (5) 
J/(mol*K)

>  <CpInf_value>  (5) 
108.088136

>  <CpInf_units>  (5) 
J/(mol*K)

>  <Tmin_value>  (5) 
10.0

>  <Tmin_units>  (5) 
K

>  <Tmax_value>  (5) 
3000.0

>  <Tmax_units>  (5) 
K

>  <polynomials>  (5) 
[{"name": "polynomial1", "class": "NASAPolynomial", "Tmin_value": 10.0, "Tmin_units": "K", "Tmax_value": 582.3897944984312, "Tmax_units": "K", "coeffs": [3.9652725251487997, 0.0020023225588121428, 4.0599056262928875e-05, -7.75899274364692e-08, 4.4513181050887496e-11, -53401506.385814846, 6.827044892789236]}, {"name": "polynomial2", "class": "NASAPolynomial", "Tmin_value": 582.3897944984312, "Tmin_units": "K", "Tmax_value": 3000.0, "Tmax_units": "K", "coeffs": [3.5772944330084147, 0.012861032030441071, -8.472942585347425e-06, 2.741567682664952e-09, -3.4073253039207466e-13, -53401600.15572128, 7.296045717872725]}]

>  <H298_value>  (5) 
-106116.8465159924

>  <H298_units>  (5) 
kcal/mol

>  <S298_value>  (5) 
62.04111940413777

>  <S298_units>  (5) 
cal/(mol*K)

>  <Cp_T_value_list>  (5) 
[12.888053758950505, 14.776534941782554, 16.29416082392464, 17.47087173516364, 19.290917222749155, 20.599817847495114, 22.5201252902908, 23.62472390428687, 24.312211768096834]

>  <Cp_T_units>  (5) 
cal/(mol*K)

>  <T_list>  (5) 
[300.0, 400.0, 500.0, 600.0, 800.0, 1000.0, 1500.0, 2000.0, 2400.0]

>  <T_units>  (5) 
K

>  <yaml_path>  (5) 
/home/calvin/Dropbox/PersonalFolders/Calvin/ZEUS_Converged/rmg_rxn_15521/output/Species/rmg_rxn_15521_r1_ON=sbr-CH-sbr/rmg_rxn_15521_r1_ON=sbr-CH-sbr.yml

>  <frequencies_cm1>  (5) 
[408.41395190699996, 412.06718809724, 739.15543285948, 761.7272136063199, 904.39570061464, 1348.7789216278, 1755.3113195571198, 3153.319658944, 3818.4558570392]

>  <ZPE_kJmol>  (5) 
79.5614101222066

>  <E_elec_kJmol>  (5) 
-444084.9058976625

>  <E0_minus_Eelec_plus_ZPE_kJmol>  (5) 
0.0

>  <rxn>  (5) 
rmg_rxn_15521

>  <species_type>  (5) 
r0

>  <species_folder>  (5) 
rmg_rxn_15521_r1_ON=sbr-CH-sbr

>  <frequencies_cm1_list>  (5) 
[408.41395190699996, 412.06718809724, 739.15543285948, 761.7272136063199, 904.39570061464, 1348.7789216278, 1755.3113195571198, 3153.319658944, 3818.4558570392]

>  <E0_kJmol>  (5) 
-444005

>  <H298_kJmol>  (5) 
-443993

$$$$
