
     RDKit          3D

  8  7  0  0  0  0  0  0  0  0999 V2000
   -0.9640   -0.8306   -0.0597 C   0  0  0  0  0  0  0  0  0  1  0  0
    0.3549   -0.1603    0.1294 C   0  0  0  0  0  0  0  0  0  2  0  0
    0.5957    1.0444   -0.0853 N   0  0  0  0  0  0  0  0  0  3  0  0
   -0.8645   -1.6559   -0.7685 H   0  0  0  0  0  0  0  0  0  4  0  0
   -1.2998   -1.2600    0.8868 H   0  0  0  0  0  0  0  0  0  5  0  0
   -1.7088   -0.1226   -0.4246 H   0  0  0  0  0  0  0  0  0  6  0  0
    1.1316   -0.8399    0.4800 H   0  0  0  0  0  0  0  0  0  7  0  0
    1.5649    1.2990    0.1122 H   0  0  0  0  0  0  0  0  0  8  0  0
  1  5  1  0
  1  4  1  0
  1  6  1  0
  1  2  1  0
  2  3  1  0
  2  7  1  0
  3  8  1  0
M  END
>  <rmg_smiles>  (1) 
C[CH][NH]

>  <rmg_adjacency_list>  (1) 
1 N u0 p1 c0 {3,S} {8,S}
2 C u0 p0 c0 {3,S} {4,S} {5,S} {6,S}
3 C u0 p0 c0 {1,S} {2,S} {7,S}
4 H u0 p0 c0 {2,S}
5 H u0 p0 c0 {2,S}
6 H u0 p0 c0 {2,S}
7 H u0 p0 c0 {3,S}
8 H u0 p0 c0 {1,S}


>  <multiplicity>  (1) 
1

>  <reaction>  (1) 
rmg_rxn_16648

>  <type>  (1) 
r1h

>  <role_mapnums>  (1) 
{"r1h_a": 2, "r1h_h": 7}

>  <role_mapidx>  (1) 
{"r1h_a": 1, "r1h_h": 6}

>  <ordered_mapped_smiles>  (1) 
[C:1]([CH:2]([NH:3][H:8])[H:7])([H:4])([H:5])[H:6]

>  <mol_properties>  (1) 
{"1": {"label": "donator", "atom_type": "Cs"}, "6": {"label": "d_hydrogen", "atom_type": "H0"}}

>  <level_of_theory>  (1) 
wb97xd/def2tzvp

>  <lot_method>  (1) 
wb97xd

>  <lot_basis>  (1) 
def2tzvp

>  <spin_multiplicity>  (1) 
1.0

>  <optical_isomers>  (1) 
1.0

>  <modes>  (1) 
IdealGasTranslation(mass=(43.0422, 'amu')),         NonlinearRotor(             inertia = ([9.32783, 51.3348, 57.5532

>  <frequency_value>  (1) 
unknown

>  <frequency_units>  (1) 
unknown

>  <frequency_list>  (1) 
unknown

>  <arkane_path>  (1) 
/home/calvin/Dropbox/PersonalFolders/Calvin/ZEUS_Converged/rmg_rxn_16648/output/Species/rmg_rxn_16648_r1_CC=N/arkane/output.py

>  <path_exists>  (1) 
True

>  <E0_value>  (1) 
-351535.20335661684

>  <E0_units>  (1) 
kJ/mol

>  <thermo_class>  (1) 
NASA

>  <Cp0_value>  (1) 
33.257888

>  <Cp0_units>  (1) 
J/(mol*K)

>  <CpInf_value>  (1) 
182.918384

>  <CpInf_units>  (1) 
J/(mol*K)

>  <Tmin_value>  (1) 
10.0

>  <Tmin_units>  (1) 
K

>  <Tmax_value>  (1) 
3000.0

>  <Tmax_units>  (1) 
K

>  <polynomials>  (1) 
[{"name": "polynomial1", "class": "NASAPolynomial", "Tmin_value": 10.0, "Tmin_units": "K", "Tmax_value": 834.0183041901832, "Tmax_units": "K", "coeffs": [4.020859284868709, 0.0012406595733239277, 4.4482903010182226e-05, -5.482114439751344e-08, 2.0739201558559772e-11, -42279921.71645892, 6.726586383468645]}, {"name": "polynomial2", "class": "NASAPolynomial", "Tmin_value": 834.0183041901832, "Tmin_units": "K", "Tmax_value": 3000.0, "Tmax_units": "K", "coeffs": [0.8146767610859666, 0.025012560508124084, -1.3369721411120483e-05, 3.4917002293006827e-09, -3.579375529269218e-13, -42279678.881200545, 19.862274208798944]}]

>  <H298_value>  (1) 
-84015.86036687854

>  <H298_units>  (1) 
kcal/mol

>  <S298_value>  (1) 
62.66843297179497

>  <S298_units>  (1) 
cal/(mol*K)

>  <Cp_T_value_list>  (1) 
[14.078036689508782, 17.202765604471058, 20.2803800489589, 23.1023356383003, 27.639649626797436, 30.983090061901617, 36.21499785066487, 38.88468928045463, 40.19916387517873]

>  <Cp_T_units>  (1) 
cal/(mol*K)

>  <T_list>  (1) 
[300.0, 400.0, 500.0, 600.0, 800.0, 1000.0, 1500.0, 2000.0, 2400.0]

>  <T_units>  (1) 
K

>  <yaml_path>  (1) 
/home/calvin/Dropbox/PersonalFolders/Calvin/ZEUS_Converged/rmg_rxn_16648/output/Species/rmg_rxn_16648_r1_CC=N/rmg_rxn_16648_r1_CC=N.yml

>  <frequencies_cm1>  (1) 
[185.42920459596, 489.9250676554, 680.6761858743599, 921.32968641376, 1055.89513074448, 1069.62910138448, 1130.4431233784, 1267.5150173509198, 1378.7876474762, 1425.071128533, 1456.56312321052, 1463.3683056626398, 1737.36788691596, 2989.2124437666403, 3014.6889593038395, 3075.43431144456, 3123.3452680222, 3455.8927661138396]

>  <ZPE_kJmol>  (1) 
178.96482902382195

>  <E_elec_kJmol>  (1) 
-351714.16818564065

>  <E0_minus_Eelec_plus_ZPE_kJmol>  (1) 
0.0

>  <rxn>  (1) 
rmg_rxn_16648

>  <species_type>  (1) 
r0

>  <species_folder>  (1) 
rmg_rxn_16648_r1_CC=N

>  <frequencies_cm1_list>  (1) 
[185.42920459596, 489.9250676554, 680.6761858743599, 921.32968641376, 1055.89513074448, 1069.62910138448, 1130.4431233784, 1267.5150173509198, 1378.7876474762, 1425.071128533, 1456.56312321052, 1463.3683056626398, 1737.36788691596, 2989.2124437666403, 3014.6889593038395, 3075.43431144456, 3123.3452680222, 3455.8927661138396]

>  <E0_kJmol>  (1) 
-351535

>  <H298_kJmol>  (1) 
-351522

$$$$

     RDKit          3D

 14 13  0  0  0  0  0  0  0  0999 V2000
   -2.1777   -0.5553    0.5838 H   0  0  0  0  0  0  0  0  0  1  0  0
   -1.3922   -1.2554    0.8596 C   0  0  0  0  0  0  0  0  0  2  0  0
   -0.6677   -1.5932   -0.4155 C   0  0  0  0  0  0  0  0  0  3  0  0
    0.0178   -0.4100   -1.0727 C   0  0  0  0  0  0  0  0  0  4  0  0
    1.1109    0.0590   -0.2599 O   0  0  0  0  0  0  0  0  0  5  0  0
    0.9651    1.1896    0.4148 C   0  0  0  0  0  0  0  0  0  6  0  0
   -0.0020    1.8971    0.4382 O   0  0  0  0  0  0  0  0  0  7  0  0
   -0.8136   -0.7072    1.5998 H   0  0  0  0  0  0  0  0  0  8  0  0
   -1.9379   -2.0850    1.3035 H   0  0  0  0  0  0  0  0  0  9  0  0
   -1.3722   -2.0017   -1.1474 H   0  0  0  0  0  0  0  0  0 10  0  0
    0.0805   -2.3762   -0.2431 H   0  0  0  0  0  0  0  0  0 11  0  0
   -0.6782    0.4093   -1.2478 H   0  0  0  0  0  0  0  0  0 12  0  0
    0.4739   -0.7035   -2.0172 H   0  0  0  0  0  0  0  0  0 13  0  0
    1.8892    1.3998    0.9687 H   0  0  0  0  0  0  0  0  0 14  0  0
  1  2  1  0
  2  9  1  0
  2  8  1  0
  2  3  1  0
  3  4  1  0
  3 11  1  0
  3 10  1  0
  4 13  1  0
  4 12  1  0
  4  5  1  0
  5  6  1  0
  6 14  1  0
  6  7  1  0
M  END
>  <rmg_smiles>  (2) 
CCCO[CH]O

>  <rmg_adjacency_list>  (2) 
1  O u0 p2 c0 {4,S} {6,S}
2  O u0 p2 c0 {6,S}
3  C u0 p0 c0 {4,S} {5,S} {7,S} {8,S}
4  C u0 p0 c0 {1,S} {3,S} {9,S} {10,S}
5  C u0 p0 c0 {3,S} {11,S} {12,S} {13,S}
6  C u0 p0 c0 {1,S} {2,S} {14,S}
7  H u0 p0 c0 {3,S}
8  H u0 p0 c0 {3,S}
9  H u0 p0 c0 {4,S}
10 H u0 p0 c0 {4,S}
11 H u0 p0 c0 {5,S}
12 H u0 p0 c0 {5,S}
13 H u0 p0 c0 {5,S}
14 H u0 p0 c0 {6,S}


>  <multiplicity>  (2) 
1

>  <reaction>  (2) 
rmg_rxn_16648

>  <type>  (2) 
r2h

>  <role_mapnums>  (2) 
{"r2h_a": 2, "r2h_h": 1}

>  <role_mapidx>  (2) 
{"r2h_a": 1, "r2h_h": 0}

>  <ordered_mapped_smiles>  (2) 
[H:1][C:2]([C:3]([C:4]([O:5][CH:6]([OH:7])[H:14])([H:12])[H:13])([H:10])[H:11])([H:8])[H:9]

>  <mol_properties>  (2) 
{"0": {"label": "a_hydrogen", "atom_type": "H0"}, "1": {"label": "acceptor", "atom_type": "Cs"}}

>  <level_of_theory>  (2) 
wb97xd/def2tzvp

>  <lot_method>  (2) 
wb97xd

>  <lot_basis>  (2) 
def2tzvp

>  <spin_multiplicity>  (2) 
1.0

>  <optical_isomers>  (2) 
2.0

>  <modes>  (2) 
IdealGasTranslation(mass=(88.0524, 'amu')),         NonlinearRotor(             inertia = ([48.3633, 284.16, 302.217

>  <frequency_value>  (2) 
unknown

>  <frequency_units>  (2) 
unknown

>  <frequency_list>  (2) 
unknown

>  <arkane_path>  (2) 
/home/calvin/Dropbox/PersonalFolders/Calvin/ZEUS_Converged/rmg_rxn_16648/output/Species/rmg_rxn_16648_p2_CCCOC=O/arkane/output.py

>  <path_exists>  (2) 
True

>  <E0_value>  (2) 
-807618.4108643779

>  <E0_units>  (2) 
kJ/mol

>  <thermo_class>  (2) 
NASA

>  <Cp0_value>  (2) 
33.257888

>  <Cp0_units>  (2) 
J/(mol*K)

>  <CpInf_value>  (2) 
332.57888

>  <CpInf_units>  (2) 
J/(mol*K)

>  <Tmin_value>  (2) 
10.0

>  <Tmin_units>  (2) 
K

>  <Tmax_value>  (2) 
3000.0

>  <Tmax_units>  (2) 
K

>  <polynomials>  (2) 
[{"name": "polynomial1", "class": "NASAPolynomial", "Tmin_value": 10.0, "Tmin_units": "K", "Tmax_value": 405.10744411587814, "Tmax_units": "K", "coeffs": [3.6051186443860916, 0.0433857404928104, -0.00011712945642388352, 3.5153974457342437e-07, -3.3677062560376364e-10, -97134056.76009497, 11.602927682630103]}, {"name": "polynomial2", "class": "NASAPolynomial", "Tmin_value": 405.10744411587814, "Tmin_units": "K", "Tmax_value": 3000.0, "Tmax_units": "K", "coeffs": [-0.7474451635456619, 0.053294207334936367, -3.1374616587479094e-05, 8.91792929927193e-09, -9.826468132408713e-13, -97133432.76263109, 32.017607916268844]}]

>  <H298_value>  (2) 
-193020.456463745

>  <H298_units>  (2) 
kcal/mol

>  <S298_value>  (2) 
84.07242684194651

>  <S298_units>  (2) 
cal/(mol*K)

>  <Cp_T_value_list>  (2) 
[25.521535606004147, 31.985911797342972, 37.97418499098442, 43.188235042536576, 51.611039182396816, 57.842470286699886, 67.01722850328892, 71.46707694187613, 73.76600476206598]

>  <Cp_T_units>  (2) 
cal/(mol*K)

>  <T_list>  (2) 
[300.0, 400.0, 500.0, 600.0, 800.0, 1000.0, 1500.0, 2000.0, 2400.0]

>  <T_units>  (2) 
K

>  <yaml_path>  (2) 
/home/calvin/Dropbox/PersonalFolders/Calvin/ZEUS_Converged/rmg_rxn_16648/output/Species/rmg_rxn_16648_p2_CCCOC=O/rmg_rxn_16648_p2_CCCOC=O.yml

>  <frequencies_cm1>  (2) 
[46.4551556898, 126.02978157796, 189.48759292007998, 250.07500439844, 297.16878972300003, 346.86516248384, 461.00819247287995, 761.5486719879999, 784.73161442832, 897.4257105148399, 914.51763697632, 942.4594002434001, 1045.6633226176798, 1075.20509346432, 1123.17098592452, 1166.94801733952, 1239.2985746710401, 1272.15709942724, 1302.4817066003598, 1370.97301818204, 1394.12849268108, 1404.8547237509197, 1411.8865167186, 1469.7752029661997, 1483.13835639892, 1494.14613386688, 1498.0465815286398, 1809.5330356438396, 3017.80657063912, 3018.8022835105194, 3022.331913965, 3030.1602772297992, 3060.8351006542393, 3080.8180279354397, 3091.29704753376, 3102.77178000348]

>  <ZPE_kJmol>  (2) 
311.0531007319138

>  <E_elec_kJmol>  (2) 
-807929.4639651098

>  <E0_minus_Eelec_plus_ZPE_kJmol>  (2) 
0.0

>  <rxn>  (2) 
rmg_rxn_16648

>  <species_type>  (2) 
p1

>  <species_folder>  (2) 
rmg_rxn_16648_p2_CCCOC=O

>  <frequencies_cm1_list>  (2) 
[46.4551556898, 126.02978157796, 189.48759292007998, 250.07500439844, 297.16878972300003, 346.86516248384, 461.00819247287995, 761.5486719879999, 784.73161442832, 897.4257105148399, 914.51763697632, 942.4594002434001, 1045.6633226176798, 1075.20509346432, 1123.17098592452, 1166.94801733952, 1239.2985746710401, 1272.15709942724, 1302.4817066003598, 1370.97301818204, 1394.12849268108, 1404.8547237509197, 1411.8865167186, 1469.7752029661997, 1483.13835639892, 1494.14613386688, 1498.0465815286398, 1809.5330356438396, 3017.80657063912, 3018.8022835105194, 3022.331913965, 3030.1602772297992, 3060.8351006542393, 3080.8180279354397, 3091.29704753376, 3102.77178000348]

>  <E0_kJmol>  (2) 
-807618

>  <H298_kJmol>  (2) 
-807598

$$$$

     RDKit          3D

 21 19  0  0  0  0  0  0  0  0999 V2000
   -3.4479   -0.4138   -0.0445 C   0  0  0  0  0  0  0  0  0  1  0  0
   -2.1290    0.2565    0.1445 C   0  0  0  0  0  0  0  0  0  2  0  0
   -1.8881    1.4612   -0.0702 N   0  0  0  0  0  0  0  0  0  3  0  0
   -3.3483   -1.2390   -0.7534 H   0  0  0  0  0  0  0  0  0  4  0  0
   -3.7836   -0.8432    0.9020 H   0  0  0  0  0  0  0  0  0  5  0  0
   -4.1926    0.2942   -0.4094 H   0  0  0  0  0  0  0  0  0  6  0  0
   -1.1995   -0.5568    0.5641 H   0  0  0  0  0  0  0  0  0  7  0  0
   -0.9190    1.7159    0.1274 H   0  0  0  0  0  0  0  0  0  8  0  0
   -0.1759   -1.4692    0.9235 C   0  0  0  0  0  3  0  0  0  9  0  0
    0.5486   -1.8069   -0.3516 C   0  0  0  0  0  0  0  0  0 10  0  0
    1.2341   -0.6238   -1.0088 C   0  0  0  0  0  0  0  0  0 11  0  0
    2.3272   -0.1547   -0.1960 O   0  0  0  0  0  0  0  0  0 12  0  0
    2.1814    0.9758    0.4787 C   0  0  0  0  0  0  0  0  0 13  0  0
    1.2144    1.6833    0.5021 O   0  0  0  0  0  0  0  0  0 14  0  0
    0.4028   -0.9209    1.6637 H   0  0  0  0  0  0  0  0  0 15  0  0
   -0.7215   -2.2987    1.3674 H   0  0  0  0  0  0  0  0  0 16  0  0
   -0.1559   -2.2154   -1.0835 H   0  0  0  0  0  0  0  0  0 17  0  0
    1.2968   -2.5899   -0.1792 H   0  0  0  0  0  0  0  0  0 18  0  0
    0.5381    0.1956   -1.1839 H   0  0  0  0  0  0  0  0  0 19  0  0
    1.6902   -0.9173   -1.9533 H   0  0  0  0  0  0  0  0  0 20  0  0
    3.1055    1.1861    1.0326 H   0  0  0  0  0  0  0  0  0 21  0  0
  1  4  1  0
  1  5  1  0
  1  6  1  0
  1  2  1  0
  2  3  1  0
  2  7  1  0
  3  8  1  0
  9 16  1  0
  9 15  1  0
  9 10  1  0
 10 18  1  0
 10 11  1  0
 10 17  1  0
 11 19  1  0
 11 12  1  0
 11 20  1  0
 12 13  1  0
 13 21  1  0
 13 14  1  0
M  RAD  1   9   2
M  END
>  <rmg_smiles>  (3) 
[CH2]CCO[CH][O].C[CH][NH]

>  <rmg_adjacency_list>  (3) 
multiplicity 2
1  O u0 p2 c0 {5,S} {9,S}
2  O u0 p2 c0 {9,S}
3  N u0 p1 c0 {7,S} {21,S}
4  C u0 p0 c0 {5,S} {8,S} {10,S} {11,S}
5  C u0 p0 c0 {1,S} {4,S} {12,S} {13,S}
6  C u0 p0 c0 {7,S} {14,S} {15,S} {16,S}
7  C u0 p0 c0 {3,S} {6,S} {17,S}
8  C u1 p0 c0 {4,S} {18,S} {19,S}
9  C u0 p0 c0 {1,S} {2,S} {20,S}
10 H u0 p0 c0 {4,S}
11 H u0 p0 c0 {4,S}
12 H u0 p0 c0 {5,S}
13 H u0 p0 c0 {5,S}
14 H u0 p0 c0 {6,S}
15 H u0 p0 c0 {6,S}
16 H u0 p0 c0 {6,S}
17 H u0 p0 c0 {7,S}
18 H u0 p0 c0 {8,S}
19 H u0 p0 c0 {8,S}
20 H u0 p0 c0 {9,S}
21 H u0 p0 c0 {3,S}


>  <multiplicity>  (3) 
2

>  <reaction>  (3) 
rmg_rxn_16648

>  <type>  (3) 
ts

>  <role_mapnums>  (3) 
{"*2": 7, "*1": 2, "*3": 9, "*0": 3, "*4": 10}

>  <role_mapidx>  (3) 
{"*2": 6, "*1": 1, "*3": 8, "*0": 2, "*4": 9}

>  <ordered_mapped_smiles>  (3) 
[C:1]([CH:2]([NH:3][H:8])[H:7])([H:4])([H:5])[H:6].[C:9]([C:10]([C:11]([O:12][CH:13]([OH:14])[H:21])([H:19])[H:20])([H:17])[H:18])([H:15])[H:16]

>  <mol_properties>  (3) 
{"1": {"label": "*1", "atom_type": "Cs"}, "2": {"label": "*0", "atom_type": "N3s"}, "6": {"label": "*2", "atom_type": "H0"}, "8": {"label": "*3", "atom_type": "Cs"}, "9": {"label": "*4", "atom_type": "Cs"}}

>  <level_of_theory>  (3) 
wb97xd/def2tzvp

>  <lot_method>  (3) 
wb97xd

>  <lot_basis>  (3) 
def2tzvp

>  <spin_multiplicity>  (3) 
2.0

>  <optical_isomers>  (3) 
2.0

>  <modes>  (3) 
IdealGasTranslation(mass=(130.087, 'amu')),         NonlinearRotor(             inertia = ([230.47, 541.062, 685.566

>  <frequency_value>  (3) 
-1678.37

>  <frequency_units>  (3) 
cm^-1

>  <frequency_list>  (3) 
unknown

>  <arkane_path>  (3) 
/home/calvin/Dropbox/PersonalFolders/Calvin/ZEUS_Converged/rmg_rxn_16648/output/rxns/TS0/arkane/output.py

>  <path_exists>  (3) 
True

>  <E0_value>  (3) 
-1157390.0

>  <E0_units>  (3) 
kJ/mol

>  <thermo_class>  (3) 
unknown

>  <Cp0_value>  (3) 
unknown

>  <Cp0_units>  (3) 
unknown

>  <CpInf_value>  (3) 
unknown

>  <CpInf_units>  (3) 
unknown

>  <Tmin_value>  (3) 
unknown

>  <Tmin_units>  (3) 
unknown

>  <Tmax_value>  (3) 
unknown

>  <Tmax_units>  (3) 
unknown

>  <polynomials>  (3) 
unknown

>  <H298_value>  (3) 
unknown

>  <H298_units>  (3) 
unknown

>  <S298_value>  (3) 
unknown

>  <S298_units>  (3) 
unknown

>  <Cp_T_value_list>  (3) 
unknown

>  <Cp_T_units>  (3) 
unknown

>  <T_list>  (3) 
unknown

>  <T_units>  (3) 
unknown

>  <yaml_path>  (3) 
unknown

>  <frequencies_cm1>  (3) 
unknown

>  <ZPE_kJmol>  (3) 
unknown

>  <E_elec_kJmol>  (3) 
unknown

>  <E0_minus_Eelec_plus_ZPE_kJmol>  (3) 
unknown

>  <rxn>  (3) 
unknown

>  <species_type>  (3) 
unknown

>  <species_folder>  (3) 
unknown

>  <frequencies_cm1_list>  (3) 
[]

>  <ts_imag_freq_cm1>  (3) 
-1698.7586

>  <ts_freq_out_path>  (3) 
/home/calvin/Dropbox/PersonalFolders/Calvin/ZEUS_Converged/rmg_rxn_16648/output/rxns/TS0/geometry/freq.out

>  <E0_kJmol>  (3) 
-1.15739e+06

>  <H298_kJmol>  (3) 
unknown

$$$$

     RDKit          3D

  7  6  0  0  0  0  0  0  0  0999 V2000
   -0.8785   -0.0517   -0.1132 C   0  0  0  0  0  0  0  0  0  1  0  0
    0.2551    0.5048    0.6657 C   0  0  0  0  0  3  0  0  0  2  0  0
    1.4635    0.2949    0.5586 N   0  0  0  0  0  0  0  0  0  3  0  0
   -0.5247   -0.7449   -0.8818 H   0  0  0  0  0  0  0  0  0  4  0  0
   -1.5647   -0.5694    0.5582 H   0  0  0  0  0  0  0  0  0  5  0  0
   -1.4346    0.7612   -0.5819 H   0  0  0  0  0  0  0  0  0  6  0  0
    2.0830    0.7840    1.2000 H   0  0  0  0  0  0  0  0  0  7  0  0
  1  5  1  0
  1  4  1  0
  1  6  1  0
  1  2  1  0
  2  3  1  0
  3  7  1  0
M  RAD  1   2   2
M  END
>  <rmg_smiles>  (4) 
C[C][NH]

>  <rmg_adjacency_list>  (4) 
multiplicity 2
1 N u0 p1 c0 {3,S} {7,S}
2 C u0 p0 c0 {3,S} {4,S} {5,S} {6,S}
3 C u1 p1 c0 {1,S} {2,S}
4 H u0 p0 c0 {2,S}
5 H u0 p0 c0 {2,S}
6 H u0 p0 c0 {2,S}
7 H u0 p0 c0 {1,S}


>  <multiplicity>  (4) 
2

>  <reaction>  (4) 
rmg_rxn_16648

>  <type>  (4) 
r1

>  <role_mapnums>  (4) 
{}

>  <role_mapidx>  (4) 
{}

>  <ordered_mapped_smiles>  (4) 
[C:1]([CH:2][NH:3][H:7])([H:4])([H:5])[H:6]

>  <level_of_theory>  (4) 
wb97xd/def2tzvp

>  <lot_method>  (4) 
wb97xd

>  <lot_basis>  (4) 
def2tzvp

>  <spin_multiplicity>  (4) 
2.0

>  <optical_isomers>  (4) 
1.0

>  <modes>  (4) 
IdealGasTranslation(mass=(42.0344, 'amu')),         NonlinearRotor(             inertia = ([5.99172, 53.2819, 56.1621

>  <frequency_value>  (4) 
unknown

>  <frequency_units>  (4) 
unknown

>  <frequency_list>  (4) 
unknown

>  <arkane_path>  (4) 
/home/calvin/Dropbox/PersonalFolders/Calvin/ZEUS_Converged/rmg_rxn_16648/output/Species/rmg_rxn_16648_p1_Csbr-C-sbr=N/arkane/output.py

>  <path_exists>  (4) 
True

>  <E0_value>  (4) 
-349829.7646864994

>  <E0_units>  (4) 
kJ/mol

>  <thermo_class>  (4) 
NASA

>  <Cp0_value>  (4) 
33.257888

>  <Cp0_units>  (4) 
J/(mol*K)

>  <CpInf_value>  (4) 
157.97496800000002

>  <CpInf_units>  (4) 
J/(mol*K)

>  <Tmin_value>  (4) 
10.0

>  <Tmin_units>  (4) 
K

>  <Tmax_value>  (4) 
3000.0

>  <Tmax_units>  (4) 
K

>  <polynomials>  (4) 
[{"name": "polynomial1", "class": "NASAPolynomial", "Tmin_value": 10.0, "Tmin_units": "K", "Tmax_value": 738.414600342838, "Tmax_units": "K", "coeffs": [3.9481640097150597, 0.005049457413895168, 2.913648412595472e-05, -4.145723221454257e-08, 1.744276697716434e-11, -42074801.99852414, 7.367045863706703]}, {"name": "polynomial2", "class": "NASAPolynomial", "Tmin_value": 738.414600342838, "Tmin_units": "K", "Tmax_value": 3000.0, "Tmax_units": "K", "coeffs": [1.8715706616327448, 0.020638742508001566, -1.1348172878433495e-05, 3.0539550163516746e-09, -3.221182576091643e-13, -42074613.65144201, 15.954436236527313]}]

>  <H298_value>  (4) 
-83608.1718430531

>  <H298_units>  (4) 
kcal/mol

>  <S298_value>  (4) 
64.24091827660027

>  <S298_units>  (4) 
cal/(mol*K)

>  <Cp_T_value_list>  (4) 
[14.123525607513509, 16.738352452514043, 19.206415728750013, 21.407764651273283, 24.942262140253654, 27.61020151778116, 31.740993558688416, 33.85029844813746, 34.91490095126585]

>  <Cp_T_units>  (4) 
cal/(mol*K)

>  <T_list>  (4) 
[300.0, 400.0, 500.0, 600.0, 800.0, 1000.0, 1500.0, 2000.0, 2400.0]

>  <T_units>  (4) 
K

>  <yaml_path>  (4) 
/home/calvin/Dropbox/PersonalFolders/Calvin/ZEUS_Converged/rmg_rxn_16648/output/Species/rmg_rxn_16648_p1_Csbr-C-sbr=N/rmg_rxn_16648_p1_Csbr-C-sbr=N.yml

>  <frequencies_cm1>  (4) 
[141.6659071516, 434.27501862211994, 665.3078727282, 899.7673525089599, 963.6234489996399, 1033.0212026435597, 1158.24754693908, 1370.993619138, 1448.09613031096, 1452.31932628276, 1834.0687741922, 3001.5592833719998, 3089.40862657076, 3102.8061149300793, 3454.3957633140794]

>  <ZPE_kJmol>  (4) 
143.84833071593354

>  <E_elec_kJmol>  (4) 
-349973.61301721534

>  <E0_minus_Eelec_plus_ZPE_kJmol>  (4) 
0.0

>  <rxn>  (4) 
rmg_rxn_16648

>  <species_type>  (4) 
p0

>  <species_folder>  (4) 
rmg_rxn_16648_p1_Csbr-C-sbr=N

>  <frequencies_cm1_list>  (4) 
[141.6659071516, 434.27501862211994, 665.3078727282, 899.7673525089599, 963.6234489996399, 1033.0212026435597, 1158.24754693908, 1370.993619138, 1448.09613031096, 1452.31932628276, 1834.0687741922, 3001.5592833719998, 3089.40862657076, 3102.8061149300793, 3454.3957633140794]

>  <E0_kJmol>  (4) 
-349830

>  <H298_kJmol>  (4) 
-349817

$$$$

     RDKit          3D

 13 12  0  0  0  0  0  0  0  0999 V2000
   -1.5801    1.1066    0.0514 C   0  0  0  0  0  3  0  0  0  1  0  0
   -0.9927   -0.2392    0.2618 C   0  0  0  0  0  0  0  0  0  2  0  0
   -1.7553   -1.0998    1.2550 C   0  0  0  0  0  0  0  0  0  3  0  0
   -1.8362   -0.4776    2.5484 O   0  0  0  0  0  0  0  0  0  4  0  0
   -0.7919   -0.6298    3.3579 C   0  0  0  0  0  0  0  0  0  5  0  0
    0.2062   -1.2441    3.1188 O   0  0  0  0  0  0  0  0  0  6  0  0
   -1.2814    1.7056   -0.7974 H   0  0  0  0  0  0  0  0  0  7  0  0
   -2.2054    1.5630    0.8065 H   0  0  0  0  0  0  0  0  0  8  0  0
    0.0499   -0.1626    0.6013 H   0  0  0  0  0  0  0  0  0  9  0  0
   -0.9457   -0.7884   -0.6852 H   0  0  0  0  0  0  0  0  0 10  0  0
   -1.2846   -2.0771    1.3590 H   0  0  0  0  0  0  0  0  0 11  0  0
   -2.7927   -1.2238    0.9481 H   0  0  0  0  0  0  0  0  0 12  0  0
   -0.9867   -0.1021    4.3012 H   0  0  0  0  0  0  0  0  0 13  0  0
  1  8  1  0
  1  7  1  0
  1  2  1  0
  2 10  1  0
  2  9  1  0
  2  3  1  0
  3 11  1  0
  3  4  1  0
  3 12  1  0
  4  5  1  0
  5 13  1  0
  5  6  1  0
M  RAD  1   1   2
M  END
>  <rmg_smiles>  (5) 
[CH2]CCO[CH]O

>  <rmg_adjacency_list>  (5) 
multiplicity 2
1  O u0 p2 c0 {4,S} {6,S}
2  O u0 p2 c0 {6,S}
3  C u0 p0 c0 {4,S} {5,S} {7,S} {8,S}
4  C u0 p0 c0 {1,S} {3,S} {9,S} {10,S}
5  C u1 p0 c0 {3,S} {11,S} {12,S}
6  C u0 p0 c0 {1,S} {2,S} {13,S}
7  H u0 p0 c0 {3,S}
8  H u0 p0 c0 {3,S}
9  H u0 p0 c0 {4,S}
10 H u0 p0 c0 {4,S}
11 H u0 p0 c0 {5,S}
12 H u0 p0 c0 {5,S}
13 H u0 p0 c0 {6,S}


>  <multiplicity>  (5) 
2

>  <reaction>  (5) 
rmg_rxn_16648

>  <type>  (5) 
r2

>  <role_mapnums>  (5) 
{}

>  <role_mapidx>  (5) 
{}

>  <ordered_mapped_smiles>  (5) 
[C:1]([C:2]([C:3]([O:4][CH:5]([OH:6])[H:13])([H:11])[H:12])([H:9])[H:10])([H:7])[H:8]

>  <level_of_theory>  (5) 
wb97xd/def2tzvp

>  <lot_method>  (5) 
wb97xd

>  <lot_basis>  (5) 
def2tzvp

>  <spin_multiplicity>  (5) 
2.0

>  <optical_isomers>  (5) 
2.0

>  <modes>  (5) 
IdealGasTranslation(mass=(87.0446, 'amu')),         NonlinearRotor(             inertia = ([68.702, 226.633, 235.582

>  <frequency_value>  (5) 
unknown

>  <frequency_units>  (5) 
unknown

>  <frequency_list>  (5) 
unknown

>  <arkane_path>  (5) 
/home/calvin/Dropbox/PersonalFolders/Calvin/ZEUS_Converged/rmg_rxn_16648/output/Species/rmg_rxn_16648_r2_sbr-CH2-sbrCCOC=O/arkane/output.py

>  <path_exists>  (5) 
True

>  <E0_value>  (5) 
-805884.7089786015

>  <E0_units>  (5) 
kJ/mol

>  <thermo_class>  (5) 
NASA

>  <Cp0_value>  (5) 
33.257888

>  <Cp0_units>  (5) 
J/(mol*K)

>  <CpInf_value>  (5) 
307.635464

>  <CpInf_units>  (5) 
J/(mol*K)

>  <Tmin_value>  (5) 
10.0

>  <Tmin_units>  (5) 
K

>  <Tmax_value>  (5) 
3000.0

>  <Tmax_units>  (5) 
K

>  <polynomials>  (5) 
[{"name": "polynomial1", "class": "NASAPolynomial", "Tmin_value": 10.0, "Tmin_units": "K", "Tmax_value": 1245.548447984939, "Tmax_units": "K", "coeffs": [3.7898760872822153, 0.034130421458773486, -3.6926978044027653e-06, -1.0791451679735945e-08, 4.2358639005407006e-12, -96925545.15109536, 11.846086970943501]}, {"name": "polynomial2", "class": "NASAPolynomial", "Tmin_value": 1245.548447984939, "Tmin_units": "K", "Tmax_value": 3000.0, "Tmax_units": "K", "coeffs": [9.785803716602723, 0.02834722778106745, -1.2952660403773312e-05, 2.8488903997008747e-09, -2.449708078900808e-13, -96928083.83872382, -22.592475046017693]}]

>  <H298_value>  (5) 
-192605.9206398982

>  <H298_units>  (5) 
kcal/mol

>  <S298_value>  (5) 
86.16015763837542

>  <S298_units>  (5) 
cal/(mol*K)

>  <Cp_T_value_list>  (5) 
[26.70726252665735, 32.32985904756824, 37.45431648027246, 42.04287515900109, 49.56226802681987, 54.990002066328756, 62.67251835641574, 66.65330645836976, 68.49372981916876]

>  <Cp_T_units>  (5) 
cal/(mol*K)

>  <T_list>  (5) 
[300.0, 400.0, 500.0, 600.0, 800.0, 1000.0, 1500.0, 2000.0, 2400.0]

>  <T_units>  (5) 
K

>  <yaml_path>  (5) 
/home/calvin/Dropbox/PersonalFolders/Calvin/ZEUS_Converged/rmg_rxn_16648/output/Species/rmg_rxn_16648_r2_sbr-CH2-sbrCCOC=O/rmg_rxn_16648_r2_sbr-CH2-sbrCCOC=O.yml

>  <frequencies_cm1>  (5) 
[61.260376039719986, 108.82111636603999, 142.00238943227998, 224.59848886123999, 308.3963107212, 363.84035019488, 458.34380216872, 517.37240797944, 763.2654183179999, 771.0045107736399, 901.1544835435999, 929.42586210604, 1012.3172419037601, 1046.53542975332, 1078.02055744552, 1119.50401576364, 1201.87350467704, 1244.6685571912801, 1309.8431148634, 1369.0983311896798, 1392.2744066446799, 1405.6100921361199, 1446.4961227313997, 1453.42491091928, 1479.2585096931198, 1807.7613534312798, 2966.79860368216, 3016.64605012004, 3022.0228996256, 3059.5509743993994, 3115.6954463757197, 3132.8148407784797, 3237.4333621286796]

>  <ZPE_kJmol>  (5) 
271.953931662921

>  <E_elec_kJmol>  (5) 
-806156.6629102645

>  <E0_minus_Eelec_plus_ZPE_kJmol>  (5) 
0.0

>  <rxn>  (5) 
rmg_rxn_16648

>  <species_type>  (5) 
r1

>  <species_folder>  (5) 
rmg_rxn_16648_r2_sbr-CH2-sbrCCOC=O

>  <frequencies_cm1_list>  (5) 
[61.260376039719986, 108.82111636603999, 142.00238943227998, 224.59848886123999, 308.3963107212, 363.84035019488, 458.34380216872, 517.37240797944, 763.2654183179999, 771.0045107736399, 901.1544835435999, 929.42586210604, 1012.3172419037601, 1046.53542975332, 1078.02055744552, 1119.50401576364, 1201.87350467704, 1244.6685571912801, 1309.8431148634, 1369.0983311896798, 1392.2744066446799, 1405.6100921361199, 1446.4961227313997, 1453.42491091928, 1479.2585096931198, 1807.7613534312798, 2966.79860368216, 3016.64605012004, 3022.0228996256, 3059.5509743993994, 3115.6954463757197, 3132.8148407784797, 3237.4333621286796]

>  <E0_kJmol>  (5) 
-805885

>  <H298_kJmol>  (5) 
-805863

$$$$
