
     RDKit          3D

 14 14  0  0  0  0  0  0  0  0999 V2000
    0.4570   -1.3389   -0.3441 C   0  0  0  0  0  0  0  0  0  1  0  0
   -0.0260   -0.9615    1.0472 C   0  0  0  0  0  0  0  0  0  2  0  0
   -0.9488    0.1117    0.9728 O   0  0  0  0  0  0  0  0  0  3  0  0
   -0.4380    1.2027    0.2993 C   0  0  0  0  0  0  0  0  0  4  0  0
   -0.0031    0.9417   -0.9871 O   0  0  0  0  0  0  0  0  0  5  0  0
    0.9713   -0.0860   -1.0349 C   0  0  0  0  0  0  0  0  0  6  0  0
    1.2470   -2.0905   -0.2824 H   0  0  0  0  0  0  0  0  0  7  0  0
   -0.3721   -1.7585   -0.9174 H   0  0  0  0  0  0  0  0  0  8  0  0
   -0.5473   -1.7838    1.5349 H   0  0  0  0  0  0  0  0  0  9  0  0
    0.8235   -0.6660    1.6775 H   0  0  0  0  0  0  0  0  0 10  0  0
    0.4072    1.5992    0.8544 H   0  0  0  0  0  0  0  0  0 11  0  0
   -1.1839    1.9917    0.2685 H   0  0  0  0  0  0  0  0  0 12  0  0
    1.8923    0.2629   -0.5478 H   0  0  0  0  0  0  0  0  0 13  0  0
    1.1849   -0.2594   -2.0886 H   0  0  0  0  0  0  0  0  0 14  0  0
  1  8  1  0
  1  7  1  0
  1  6  1  0
  1  2  1  0
  2 10  1  0
  2  9  1  0
  2  3  1  0
  3  4  1  0
  4 11  1  0
  4 12  1  0
  4  5  1  0
  5  6  1  0
  6 14  1  0
  6 13  1  0
M  END
>  <rmg_smiles>  (1) 
C1COCOC1

>  <rmg_adjacency_list>  (1) 
1  O u0 p2 c0 {4,S} {6,S}
2  O u0 p2 c0 {5,S} {6,S}
3  C u0 p0 c0 {4,S} {5,S} {7,S} {8,S}
4  C u0 p0 c0 {1,S} {3,S} {9,S} {10,S}
5  C u0 p0 c0 {2,S} {3,S} {11,S} {12,S}
6  C u0 p0 c0 {1,S} {2,S} {13,S} {14,S}
7  H u0 p0 c0 {3,S}
8  H u0 p0 c0 {3,S}
9  H u0 p0 c0 {4,S}
10 H u0 p0 c0 {4,S}
11 H u0 p0 c0 {5,S}
12 H u0 p0 c0 {5,S}
13 H u0 p0 c0 {6,S}
14 H u0 p0 c0 {6,S}


>  <multiplicity>  (1) 
1

>  <reaction>  (1) 
rmg_rxn_630

>  <type>  (1) 
r1h

>  <role_mapnums>  (1) 
{"r1h_a": 4, "r1h_h": 11}

>  <role_mapidx>  (1) 
{"r1h_a": 3, "r1h_h": 10}

>  <ordered_mapped_smiles>  (1) 
[C:1]1([H:7])([H:8])[C:2]([H:9])([H:10])[O:3][C:4]([H:11])([H:12])[O:5][C:6]1([H:13])[H:14]

>  <mol_properties>  (1) 
{"3": {"label": "donator", "atom_type": "Cs"}, "10": {"label": "d_hydrogen", "atom_type": "H0"}}

>  <level_of_theory>  (1) 
wb97xd/def2tzvp

>  <lot_method>  (1) 
wb97xd

>  <lot_basis>  (1) 
def2tzvp

>  <spin_multiplicity>  (1) 
1.0

>  <optical_isomers>  (1) 
1.0

>  <modes>  (1) 
IdealGasTranslation(mass=(88.0524, 'amu')),         NonlinearRotor(             inertia = ([100.123, 103.988, 181.806

>  <frequency_value>  (1) 
unknown

>  <frequency_units>  (1) 
unknown

>  <frequency_list>  (1) 
unknown

>  <arkane_path>  (1) 
/home/calvin/Dropbox/PersonalFolders/Calvin/ATLAS_Converged/rmg_rxn_630/output/Species/rmg_rxn_630_r1_C1COCOC1/arkane/output.py

>  <path_exists>  (1) 
True

>  <E0_value>  (1) 
-807534.4862541369

>  <E0_units>  (1) 
kJ/mol

>  <thermo_class>  (1) 
NASA

>  <Cp0_value>  (1) 
33.257888

>  <Cp0_units>  (1) 
J/(mol*K)

>  <CpInf_value>  (1) 
332.57888

>  <CpInf_units>  (1) 
J/(mol*K)

>  <Tmin_value>  (1) 
10.0

>  <Tmin_units>  (1) 
K

>  <Tmax_value>  (1) 
3000.0

>  <Tmax_units>  (1) 
K

>  <polynomials>  (1) 
[{"name": "polynomial1", "class": "NASAPolynomial", "Tmin_value": 10.0, "Tmin_units": "K", "Tmax_value": 635.616554573151, "Tmax_units": "K", "coeffs": [4.089858497697602, -0.00720848048360332, 0.00016188875003168496, -2.401508213073996e-07, 1.1440937882219611e-10, -97123964.81365098, 9.940070949440356]}, {"name": "polynomial2", "class": "NASAPolynomial", "Tmin_value": 635.616554573151, "Tmin_units": "K", "Tmax_value": 3000.0, "Tmax_units": "K", "coeffs": [-3.6233751272420895, 0.05886750722676344, -3.5427870905530145e-05, 1.0209382893823142e-08, -1.1338653155444558e-12, -97123338.5127768, 40.87012283464024]}]

>  <H298_value>  (1) 
-193001.58453999052

>  <H298_units>  (1) 
kcal/mol

>  <S298_value>  (1) 
72.30963326519604

>  <S298_units>  (1) 
cal/(mol*K)

>  <Cp_T_value_list>  (1) 
[21.739931113059615, 29.14813400113705, 35.94765005011551, 41.73053828287379, 50.792135881792035, 57.413930600437965, 66.93239440365458, 71.40703402864166, 73.74460734469625]

>  <Cp_T_units>  (1) 
cal/(mol*K)

>  <T_list>  (1) 
[300.0, 400.0, 500.0, 600.0, 800.0, 1000.0, 1500.0, 2000.0, 2400.0]

>  <T_units>  (1) 
K

>  <yaml_path>  (1) 
/home/calvin/Dropbox/PersonalFolders/Calvin/ATLAS_Converged/rmg_rxn_630/output/Species/rmg_rxn_630_r1_C1COCOC1/rmg_rxn_630_r1_C1COCOC1.yml

>  <frequencies_cm1>  (1) 
[264.26219606955993, 269.44676998615995, 439.22611503784, 466.70779028847994, 494.62208561427997, 656.81341188736, 851.50617968, 900.41284912904, 919.12538412604, 926.80954069912, 1013.8966485273598, 1037.6289497932798, 1094.57685905204, 1112.95291176836, 1188.75069573052, 1216.28730686372, 1226.8487302858798, 1252.366447735, 1315.55644664964, 1328.3633742714399, 1363.72148168412, 1380.93701388136, 1404.8272558096398, 1432.53554157584, 1460.95799381532, 1489.42164796672, 1490.0946125280798, 1506.58911126672, 2894.63345495428, 2944.5289702893997, 2950.530715459079, 3031.06671929204, 3080.8454958767197, 3088.2893079635996, 3091.87387430064, 3110.9160245929997]

>  <ZPE_kJmol>  (1) 
321.1850391352071

>  <E_elec_kJmol>  (1) 
-807855.671293272

>  <E0_minus_Eelec_plus_ZPE_kJmol>  (1) 
0.0

>  <rxn>  (1) 
rmg_rxn_630

>  <species_type>  (1) 
r0

>  <species_folder>  (1) 
rmg_rxn_630_r1_C1COCOC1

>  <frequencies_cm1_list>  (1) 
[264.26219606955993, 269.44676998615995, 439.22611503784, 466.70779028847994, 494.62208561427997, 656.81341188736, 851.50617968, 900.41284912904, 919.12538412604, 926.80954069912, 1013.8966485273598, 1037.6289497932798, 1094.57685905204, 1112.95291176836, 1188.75069573052, 1216.28730686372, 1226.8487302858798, 1252.366447735, 1315.55644664964, 1328.3633742714399, 1363.72148168412, 1380.93701388136, 1404.8272558096398, 1432.53554157584, 1460.95799381532, 1489.42164796672, 1490.0946125280798, 1506.58911126672, 2894.63345495428, 2944.5289702893997, 2950.530715459079, 3031.06671929204, 3080.8454958767197, 3088.2893079635996, 3091.87387430064, 3110.9160245929997]

>  <E0_kJmol>  (1) 
-807534

>  <H298_kJmol>  (1) 
-807519

$$$$

     RDKit          3D

 15 14  0  0  0  0  0  0  0  0999 V2000
   -0.3011   -2.3084    1.0466 H   0  0  0  0  0  0  0  0  0  1  0  0
    0.5670   -1.8033    1.4640 C   0  0  0  0  0  0  0  0  0  2  0  0
    0.9162   -0.8252    0.3881 C   0  0  0  0  0  0  0  0  0  3  0  0
   -0.1881    0.0162    0.1642 O   0  0  0  0  0  0  0  0  0  4  0  0
   -0.0059    0.8945   -0.9177 C   0  0  0  0  0  0  0  0  0  5  0  0
   -1.2512    1.7346   -1.0801 C   0  0  0  0  0  0  0  0  0  6  0  0
    0.1948   -1.3542    2.3820 H   0  0  0  0  0  0  0  0  0  7  0  0
    1.3243   -2.5639    1.6411 H   0  0  0  0  0  0  0  0  0  8  0  0
    1.1744   -1.3592   -0.5397 H   0  0  0  0  0  0  0  0  0  9  0  0
    1.7962   -0.2186    0.6631 H   0  0  0  0  0  0  0  0  0 10  0  0
    0.8704    1.5351   -0.7385 H   0  0  0  0  0  0  0  0  0 11  0  0
    0.1915    0.3197   -1.8341 H   0  0  0  0  0  0  0  0  0 12  0  0
   -1.4450    2.3111   -0.1748 H   0  0  0  0  0  0  0  0  0 13  0  0
   -1.1336    2.4278   -1.9145 H   0  0  0  0  0  0  0  0  0 14  0  0
   -2.1158    1.0996   -1.2767 H   0  0  0  0  0  0  0  0  0 15  0  0
  1  2  1  0
  2  8  1  0
  2  7  1  0
  2  3  1  0
  3  4  1  0
  3  9  1  0
  3 10  1  0
  4  5  1  0
  5 11  1  0
  5 12  1  0
  5  6  1  0
  6 15  1  0
  6 14  1  0
  6 13  1  0
M  END
>  <rmg_smiles>  (2) 
CCOCC

>  <rmg_adjacency_list>  (2) 
1  O u0 p2 c0 {2,S} {3,S}
2  C u0 p0 c0 {1,S} {4,S} {6,S} {7,S}
3  C u0 p0 c0 {1,S} {5,S} {8,S} {9,S}
4  C u0 p0 c0 {2,S} {10,S} {11,S} {12,S}
5  C u0 p0 c0 {3,S} {13,S} {14,S} {15,S}
6  H u0 p0 c0 {2,S}
7  H u0 p0 c0 {2,S}
8  H u0 p0 c0 {3,S}
9  H u0 p0 c0 {3,S}
10 H u0 p0 c0 {4,S}
11 H u0 p0 c0 {4,S}
12 H u0 p0 c0 {4,S}
13 H u0 p0 c0 {5,S}
14 H u0 p0 c0 {5,S}
15 H u0 p0 c0 {5,S}


>  <multiplicity>  (2) 
1

>  <reaction>  (2) 
rmg_rxn_630

>  <type>  (2) 
r2h

>  <role_mapnums>  (2) 
{"r2h_a": 2, "r2h_h": 1}

>  <role_mapidx>  (2) 
{"r2h_a": 1, "r2h_h": 0}

>  <ordered_mapped_smiles>  (2) 
[H:1][C:2]([C:3]([O:4][C:5]([C:6]([H:13])([H:14])[H:15])([H:11])[H:12])([H:9])[H:10])([H:7])[H:8]

>  <mol_properties>  (2) 
{"0": {"label": "a_hydrogen", "atom_type": "H0"}, "1": {"label": "acceptor", "atom_type": "Cs"}}

>  <level_of_theory>  (2) 
wb97xd/def2tzvp

>  <lot_method>  (2) 
wb97xd

>  <lot_basis>  (2) 
def2tzvp

>  <spin_multiplicity>  (2) 
1.0

>  <optical_isomers>  (2) 
1.0

>  <modes>  (2) 
IdealGasTranslation(mass=(74.0732, 'amu')),         NonlinearRotor(             inertia = ([27.7055, 224.199, 239.286

>  <frequency_value>  (2) 
unknown

>  <frequency_units>  (2) 
unknown

>  <frequency_list>  (2) 
unknown

>  <arkane_path>  (2) 
/home/calvin/Dropbox/PersonalFolders/Calvin/ATLAS_Converged/rmg_rxn_630/output/Species/rmg_rxn_630_p2_CCOCC/arkane/output.py

>  <path_exists>  (2) 
True

>  <E0_value>  (2) 
-613176.3128110756

>  <E0_units>  (2) 
kJ/mol

>  <thermo_class>  (2) 
NASA

>  <Cp0_value>  (2) 
33.257888

>  <Cp0_units>  (2) 
J/(mol*K)

>  <CpInf_value>  (2) 
357.522296

>  <CpInf_units>  (2) 
J/(mol*K)

>  <Tmin_value>  (2) 
10.0

>  <Tmin_units>  (2) 
K

>  <Tmax_value>  (2) 
3000.0

>  <Tmax_units>  (2) 
K

>  <polynomials>  (2) 
[{"name": "polynomial1", "class": "NASAPolynomial", "Tmin_value": 10.0, "Tmin_units": "K", "Tmax_value": 447.8675776386012, "Tmax_units": "K", "coeffs": [3.6145674548663025, 0.04016229737238276, -9.26716676667475e-05, 2.7059440243079876e-07, -2.426777252164927e-10, -73748075.28187743, 9.084384782318237]}, {"name": "polynomial2", "class": "NASAPolynomial", "Tmin_value": 447.8675776386012, "Tmin_units": "K", "Tmax_value": 3000.0, "Tmax_units": "K", "coeffs": [-2.0346716801386466, 0.056284897785958125, -3.168484191016198e-05, 8.654575683408253e-09, -9.217706924539855e-13, -73747224.93534479, 35.6449449802163]}]

>  <H298_value>  (2) 
-146547.7613808907

>  <H298_units>  (2) 
kcal/mol

>  <S298_value>  (2) 
78.37341548181337

>  <S298_units>  (2) 
cal/(mol*K)

>  <Cp_T_value_list>  (2) 
[25.164325535478298, 31.710870725358603, 38.17578298456695, 43.876825548291244, 53.19460319689213, 60.208758518830386, 70.83300100554185, 76.07827456888258, 78.69955471915]

>  <Cp_T_units>  (2) 
cal/(mol*K)

>  <T_list>  (2) 
[300.0, 400.0, 500.0, 600.0, 800.0, 1000.0, 1500.0, 2000.0, 2400.0]

>  <T_units>  (2) 
K

>  <yaml_path>  (2) 
/home/calvin/Dropbox/PersonalFolders/Calvin/ATLAS_Converged/rmg_rxn_630/output/Species/rmg_rxn_630_p2_CCOCC/rmg_rxn_630_p2_CCOCC.yml

>  <frequencies_cm1>  (2) 
[97.33264992568, 110.05030673831997, 194.58289602751998, 248.33079012716, 254.60721470963998, 436.05356782, 444.0673396884399, 815.26909814636, 829.360152023, 865.38435701172, 947.98045644068, 1068.20763542324, 1096.27300442608, 1164.469035639, 1181.3961544528, 1184.7335093183199, 1192.65114339228, 1290.03872920052, 1301.0533736538, 1374.4477127539599, 1392.16453487956, 1405.93970743148, 1446.2214433186, 1470.736580911, 1470.98379238252, 1486.2834356754797, 1488.7761513466398, 1505.1745122908, 1522.6784578714798, 2933.80960620488, 2943.4577205794803, 2963.1797024185194, 2967.5127701554397, 3022.8812727906, 3023.35509477768, 3101.1992403652002, 3101.4601858073597, 3102.6138393411197, 3102.76491301816]

>  <ZPE_kJmol>  (2) 
356.17314104031504

>  <E_elec_kJmol>  (2) 
-613532.4859521159

>  <E0_minus_Eelec_plus_ZPE_kJmol>  (2) 
0.0

>  <rxn>  (2) 
rmg_rxn_630

>  <species_type>  (2) 
p1

>  <species_folder>  (2) 
rmg_rxn_630_p2_CCOCC

>  <frequencies_cm1_list>  (2) 
[97.33264992568, 110.05030673831997, 194.58289602751998, 248.33079012716, 254.60721470963998, 436.05356782, 444.0673396884399, 815.26909814636, 829.360152023, 865.38435701172, 947.98045644068, 1068.20763542324, 1096.27300442608, 1164.469035639, 1181.3961544528, 1184.7335093183199, 1192.65114339228, 1290.03872920052, 1301.0533736538, 1374.4477127539599, 1392.16453487956, 1405.93970743148, 1446.2214433186, 1470.736580911, 1470.98379238252, 1486.2834356754797, 1488.7761513466398, 1505.1745122908, 1522.6784578714798, 2933.80960620488, 2943.4577205794803, 2963.1797024185194, 2967.5127701554397, 3022.8812727906, 3023.35509477768, 3101.1992403652002, 3101.4601858073597, 3102.6138393411197, 3102.76491301816]

>  <E0_kJmol>  (2) 
-613176

>  <H298_kJmol>  (2) 
-613156

$$$$

     RDKit          3D

 28 27  0  0  0  0  0  0  0  0999 V2000
   -0.0270   -3.2043   -0.4260 C   0  0  0  0  0  0  0  0  0  1  0  0
   -0.5101   -2.8269    0.9652 C   0  0  0  0  0  0  0  0  0  2  0  0
   -1.4328   -1.7537    0.8909 O   0  0  0  0  0  0  0  0  0  3  0  0
   -0.9220   -0.6627    0.2174 C   0  0  0  0  0  0  0  0  0  4  0  0
   -0.4872   -0.9237   -1.0690 O   0  0  0  0  0  0  0  0  0  5  0  0
    0.4873   -1.9514   -1.1168 C   0  0  0  0  0  0  0  0  0  6  0  0
    0.7630   -3.9559   -0.3643 H   0  0  0  0  0  0  0  0  0  7  0  0
   -0.8561   -3.6239   -0.9993 H   0  0  0  0  0  0  0  0  0  8  0  0
   -1.0313   -3.6491    1.4530 H   0  0  0  0  0  0  0  0  0  9  0  0
    0.3395   -2.5314    1.5956 H   0  0  0  0  0  0  0  0  0 10  0  0
    0.0971   -0.1846    0.8868 H   0  0  0  0  0  0  0  0  0 11  0  0
   -1.6679    0.1263    0.1866 H   0  0  0  0  0  0  0  0  0 12  0  0
    1.4082   -1.6025   -0.6297 H   0  0  0  0  0  0  0  0  0 13  0  0
    0.7009   -2.1248   -2.1705 H   0  0  0  0  0  0  0  0  0 14  0  0
    1.2280    0.4735    1.4306 C   0  0  0  0  0  3  0  0  0 15  0  0
    1.5772    1.4516    0.3547 C   0  0  0  0  0  0  0  0  0 16  0  0
    0.4729    2.2930    0.1308 O   0  0  0  0  0  0  0  0  0 17  0  0
    0.6551    3.1713   -0.9512 C   0  0  0  0  0  0  0  0  0 18  0  0
   -0.5902    4.0114   -1.1135 C   0  0  0  0  0  0  0  0  0 19  0  0
    0.8558    0.9226    2.3485 H   0  0  0  0  0  0  0  0  0 20  0  0
    1.9853   -0.2871    1.6077 H   0  0  0  0  0  0  0  0  0 21  0  0
    1.8354    0.9176   -0.5732 H   0  0  0  0  0  0  0  0  0 22  0  0
    2.4573    2.0582    0.6297 H   0  0  0  0  0  0  0  0  0 23  0  0
    1.5314    3.8119   -0.7719 H   0  0  0  0  0  0  0  0  0 24  0  0
    0.8525    2.5965   -1.8675 H   0  0  0  0  0  0  0  0  0 25  0  0
   -0.7840    4.5878   -0.2082 H   0  0  0  0  0  0  0  0  0 26  0  0
   -0.4726    4.7045   -1.9479 H   0  0  0  0  0  0  0  0  0 27  0  0
   -1.4548    3.3764   -1.3101 H   0  0  0  0  0  0  0  0  0 28  0  0
  1  7  1  0
  1  8  1  0
  1  6  1  0
  1  2  1  0
  2  3  1  0
  2 10  1  0
  2  9  1  0
  3  4  1  0
  4 11  1  0
  4  5  1  0
  4 12  1  0
  5  6  1  0
  6 13  1  0
  6 14  1  0
 15 20  1  0
 15 16  1  0
 15 21  1  0
 16 17  1  0
 16 22  1  0
 16 23  1  0
 17 18  1  0
 18 19  1  0
 18 24  1  0
 18 25  1  0
 19 27  1  0
 19 28  1  0
 19 26  1  0
M  RAD  1  15   2
M  END
>  <rmg_smiles>  (3) 
C1COCOC1.[CH2]COCC

>  <rmg_adjacency_list>  (3) 
multiplicity 2
1  O u0 p2 c0 {7,S} {8,S}
2  O u0 p2 c0 {5,S} {10,S}
3  O u0 p2 c0 {6,S} {10,S}
4  C u0 p0 c0 {5,S} {6,S} {12,S} {13,S}
5  C u0 p0 c0 {2,S} {4,S} {14,S} {15,S}
6  C u0 p0 c0 {3,S} {4,S} {16,S} {17,S}
7  C u0 p0 c0 {1,S} {9,S} {18,S} {19,S}
8  C u0 p0 c0 {1,S} {11,S} {20,S} {21,S}
9  C u0 p0 c0 {7,S} {22,S} {23,S} {24,S}
10 C u0 p0 c0 {2,S} {3,S} {25,S} {26,S}
11 C u1 p0 c0 {8,S} {27,S} {28,S}
12 H u0 p0 c0 {4,S}
13 H u0 p0 c0 {4,S}
14 H u0 p0 c0 {5,S}
15 H u0 p0 c0 {5,S}
16 H u0 p0 c0 {6,S}
17 H u0 p0 c0 {6,S}
18 H u0 p0 c0 {7,S}
19 H u0 p0 c0 {7,S}
20 H u0 p0 c0 {8,S}
21 H u0 p0 c0 {8,S}
22 H u0 p0 c0 {9,S}
23 H u0 p0 c0 {9,S}
24 H u0 p0 c0 {9,S}
25 H u0 p0 c0 {10,S}
26 H u0 p0 c0 {10,S}
27 H u0 p0 c0 {11,S}
28 H u0 p0 c0 {11,S}


>  <multiplicity>  (3) 
2

>  <reaction>  (3) 
rmg_rxn_630

>  <type>  (3) 
ts

>  <role_mapnums>  (3) 
{"*2": 11, "*1": 4, "*3": 15, "*0": 3, "*4": 16}

>  <role_mapidx>  (3) 
{"*2": 10, "*1": 3, "*3": 14, "*0": 2, "*4": 15}

>  <ordered_mapped_smiles>  (3) 
[C:1]1([H:7])([H:8])[C:2]([H:9])([H:10])[O:3][C:4]([H:11])([H:12])[O:5][C:6]1([H:13])[H:14].[C:15]([C:16]([O:17][C:18]([C:19]([H:26])([H:27])[H:28])([H:24])[H:25])([H:22])[H:23])([H:20])[H:21]

>  <mol_properties>  (3) 
{"2": {"label": "*0", "atom_type": "O2s"}, "3": {"label": "*1", "atom_type": "Cs"}, "10": {"label": "*2", "atom_type": "H0"}, "14": {"label": "*3", "atom_type": "Cs"}, "15": {"label": "*4", "atom_type": "Cs"}}

>  <level_of_theory>  (3) 
wb97xd/def2tzvp

>  <lot_method>  (3) 
wb97xd

>  <lot_basis>  (3) 
def2tzvp

>  <spin_multiplicity>  (3) 
2.0

>  <optical_isomers>  (3) 
2.0

>  <modes>  (3) 
IdealGasTranslation(mass=(161.118, 'amu')),         NonlinearRotor(             inertia = ([256.579, 1033.16, 1071.04

>  <frequency_value>  (3) 
-1666.34

>  <frequency_units>  (3) 
cm^-1

>  <frequency_list>  (3) 
unknown

>  <arkane_path>  (3) 
/home/calvin/Dropbox/PersonalFolders/Calvin/ATLAS_Converged/rmg_rxn_630/output/rxns/TS0/arkane/output.py

>  <path_exists>  (3) 
True

>  <E0_value>  (3) 
-1418940.0

>  <E0_units>  (3) 
kJ/mol

>  <thermo_class>  (3) 
unknown

>  <Cp0_value>  (3) 
unknown

>  <Cp0_units>  (3) 
unknown

>  <CpInf_value>  (3) 
unknown

>  <CpInf_units>  (3) 
unknown

>  <Tmin_value>  (3) 
unknown

>  <Tmin_units>  (3) 
unknown

>  <Tmax_value>  (3) 
unknown

>  <Tmax_units>  (3) 
unknown

>  <polynomials>  (3) 
unknown

>  <H298_value>  (3) 
unknown

>  <H298_units>  (3) 
unknown

>  <S298_value>  (3) 
unknown

>  <S298_units>  (3) 
unknown

>  <Cp_T_value_list>  (3) 
unknown

>  <Cp_T_units>  (3) 
unknown

>  <T_list>  (3) 
unknown

>  <T_units>  (3) 
unknown

>  <yaml_path>  (3) 
unknown

>  <frequencies_cm1>  (3) 
unknown

>  <ZPE_kJmol>  (3) 
unknown

>  <E_elec_kJmol>  (3) 
unknown

>  <E0_minus_Eelec_plus_ZPE_kJmol>  (3) 
unknown

>  <rxn>  (3) 
unknown

>  <species_type>  (3) 
unknown

>  <species_folder>  (3) 
unknown

>  <frequencies_cm1_list>  (3) 
[]

>  <ts_imag_freq_cm1>  (3) 
-1686.5803

>  <ts_freq_out_path>  (3) 
/home/calvin/Dropbox/PersonalFolders/Calvin/ATLAS_Converged/rmg_rxn_630/output/rxns/TS0/geometry/freq.out

>  <E0_kJmol>  (3) 
-1.41894e+06

>  <H298_kJmol>  (3) 
unknown

$$$$

     RDKit          3D

 13 13  0  0  0  0  0  0  0  0999 V2000
    0.5794    1.5990    0.2108 C   0  0  0  0  0  3  0  0  0  1  0  0
    1.4528    0.6621   -0.2496 O   0  0  0  0  0  0  0  0  0  2  0  0
    1.0751   -0.6763    0.0423 C   0  0  0  0  0  0  0  0  0  3  0  0
   -0.3579   -0.9282   -0.3924 C   0  0  0  0  0  0  0  0  0  4  0  0
   -1.2426    0.1393    0.2269 C   0  0  0  0  0  0  0  0  0  5  0  0
   -0.7410    1.4341   -0.0749 O   0  0  0  0  0  0  0  0  0  6  0  0
    0.9183    2.6078    0.0084 H   0  0  0  0  0  0  0  0  0  7  0  0
    1.1839   -0.8508    1.1199 H   0  0  0  0  0  0  0  0  0  8  0  0
    1.7816   -1.3130   -0.4874 H   0  0  0  0  0  0  0  0  0  9  0  0
   -0.6818   -1.9210   -0.0736 H   0  0  0  0  0  0  0  0  0 10  0  0
   -0.4271   -0.8785   -1.4810 H   0  0  0  0  0  0  0  0  0 11  0  0
   -1.2832    0.0173    1.3164 H   0  0  0  0  0  0  0  0  0 12  0  0
   -2.2575    0.1083   -0.1657 H   0  0  0  0  0  0  0  0  0 13  0  0
  1  6  1  0
  1  7  1  0
  1  2  1  0
  2  3  1  0
  3  4  1  0
  3  9  1  0
  3  8  1  0
  4  5  1  0
  4 10  1  0
  4 11  1  0
  5  6  1  0
  5 12  1  0
  5 13  1  0
M  RAD  1   1   2
M  END
>  <rmg_smiles>  (4) 
[CH]1OCCCO1

>  <rmg_adjacency_list>  (4) 
multiplicity 2
1  O u0 p2 c0 {4,S} {6,S}
2  O u0 p2 c0 {5,S} {6,S}
3  C u0 p0 c0 {4,S} {5,S} {7,S} {8,S}
4  C u0 p0 c0 {1,S} {3,S} {9,S} {10,S}
5  C u0 p0 c0 {2,S} {3,S} {11,S} {12,S}
6  C u1 p0 c0 {1,S} {2,S} {13,S}
7  H u0 p0 c0 {3,S}
8  H u0 p0 c0 {3,S}
9  H u0 p0 c0 {4,S}
10 H u0 p0 c0 {4,S}
11 H u0 p0 c0 {5,S}
12 H u0 p0 c0 {5,S}
13 H u0 p0 c0 {6,S}


>  <multiplicity>  (4) 
2

>  <reaction>  (4) 
rmg_rxn_630

>  <type>  (4) 
r1

>  <role_mapnums>  (4) 
{}

>  <role_mapidx>  (4) 
{}

>  <ordered_mapped_smiles>  (4) 
[C:1]1([H:7])[O:2][C:3]([H:8])([H:9])[C:4]([H:10])([H:11])[C:5]([H:12])([H:13])[O:6]1

>  <level_of_theory>  (4) 
wb97xd/def2tzvp

>  <lot_method>  (4) 
wb97xd

>  <lot_basis>  (4) 
def2tzvp

>  <spin_multiplicity>  (4) 
2.0

>  <optical_isomers>  (4) 
1.0

>  <modes>  (4) 
IdealGasTranslation(mass=(87.0446, 'amu')),         NonlinearRotor(             inertia = ([96.7564, 101.33, 180.793

>  <frequency_value>  (4) 
unknown

>  <frequency_units>  (4) 
unknown

>  <frequency_list>  (4) 
unknown

>  <arkane_path>  (4) 
/home/calvin/Dropbox/PersonalFolders/Calvin/ATLAS_Converged/rmg_rxn_630/output/Species/rmg_rxn_630_p1_sbr-CH-sbr1OCCCO1/arkane/output.py

>  <path_exists>  (4) 
True

>  <E0_value>  (4) 
-805829.6077087377

>  <E0_units>  (4) 
kJ/mol

>  <thermo_class>  (4) 
NASA

>  <Cp0_value>  (4) 
33.257888

>  <Cp0_units>  (4) 
J/(mol*K)

>  <CpInf_value>  (4) 
307.635464

>  <CpInf_units>  (4) 
J/(mol*K)

>  <Tmin_value>  (4) 
10.0

>  <Tmin_units>  (4) 
K

>  <Tmax_value>  (4) 
3000.0

>  <Tmax_units>  (4) 
K

>  <polynomials>  (4) 
[{"name": "polynomial1", "class": "NASAPolynomial", "Tmin_value": 10.0, "Tmin_units": "K", "Tmax_value": 608.112492343142, "Tmax_units": "K", "coeffs": [4.052680972350976, -0.0047882923899246685, 0.00015490339112890275, -2.438945344349935e-07, 1.2271144192742085e-10, -96918914.0547554, 10.641162980593737]}, {"name": "polynomial2", "class": "NASAPolynomial", "Tmin_value": 608.112492343142, "Tmin_units": "K", "Tmax_value": 3000.0, "Tmax_units": "K", "coeffs": [-2.1801652399204463, 0.053800847786724684, -3.3006657387032914e-05, 9.678351907920253e-09, -1.0905566594576255e-12, -96918481.26165283, 34.93650323250774]}]

>  <H298_value>  (4) 
-192594.04417056424

>  <H298_units>  (4) 
kcal/mol

>  <S298_value>  (4) 
74.06569612686815

>  <S298_units>  (4) 
cal/(mol*K)

>  <Cp_T_value_list>  (4) 
[21.79231995372727, 28.72322049116149, 34.90931795869405, 40.07621166157428, 48.17957605835906, 54.05563435308073, 62.397532807122666, 66.31866398847424, 68.42946986859195]

>  <Cp_T_units>  (4) 
cal/(mol*K)

>  <T_list>  (4) 
[300.0, 400.0, 500.0, 600.0, 800.0, 1000.0, 1500.0, 2000.0, 2400.0]

>  <T_units>  (4) 
K

>  <yaml_path>  (4) 
/home/calvin/Dropbox/PersonalFolders/Calvin/ATLAS_Converged/rmg_rxn_630/output/Species/rmg_rxn_630_p1_sbr-CH-sbr1OCCCO1/rmg_rxn_630_p1_sbr-CH-sbr1OCCCO1.yml

>  <frequencies_cm1>  (4) 
[221.38473973147995, 259.92912833264, 404.37616453883993, 465.21765447404, 498.2203859219599, 675.711355488, 843.04605376576, 891.5750390221999, 897.2334349258798, 928.91083820704, 951.5993577043199, 1041.5293974550398, 1054.4736647832399, 1157.30676995024, 1159.53167319392, 1231.5732161860399, 1233.0290170738797, 1266.9931264665997, 1307.989028827, 1348.11969103708, 1377.30437864708, 1407.0796269946, 1418.3758178459998, 1462.8532817636399, 1490.6165034123997, 1500.0792091833598, 2984.3712191160403, 2988.60128207316, 3033.3465584182795, 3083.9562402266797, 3096.46788747972, 3099.4824940352, 3160.91454470792]

>  <ZPE_kJmol>  (4) 
286.7521305046946

>  <E_elec_kJmol>  (4) 
-806116.3598392424

>  <E0_minus_Eelec_plus_ZPE_kJmol>  (4) 
0.0

>  <rxn>  (4) 
rmg_rxn_630

>  <species_type>  (4) 
p0

>  <species_folder>  (4) 
rmg_rxn_630_p1_sbr-CH-sbr1OCCCO1

>  <frequencies_cm1_list>  (4) 
[221.38473973147995, 259.92912833264, 404.37616453883993, 465.21765447404, 498.2203859219599, 675.711355488, 843.04605376576, 891.5750390221999, 897.2334349258798, 928.91083820704, 951.5993577043199, 1041.5293974550398, 1054.4736647832399, 1157.30676995024, 1159.53167319392, 1231.5732161860399, 1233.0290170738797, 1266.9931264665997, 1307.989028827, 1348.11969103708, 1377.30437864708, 1407.0796269946, 1418.3758178459998, 1462.8532817636399, 1490.6165034123997, 1500.0792091833598, 2984.3712191160403, 2988.60128207316, 3033.3465584182795, 3083.9562402266797, 3096.46788747972, 3099.4824940352, 3160.91454470792]

>  <E0_kJmol>  (4) 
-805830

>  <H298_kJmol>  (4) 
-805813

$$$$

     RDKit          3D

 14 13  0  0  0  0  0  0  0  0999 V2000
    2.6694    0.2813   -0.6046 C   0  0  0  0  0  3  0  0  0  1  0  0
    1.5626   -0.5075   -0.0103 C   0  0  0  0  0  0  0  0  0  2  0  0
    0.5522   -0.8487   -0.9278 O   0  0  0  0  0  0  0  0  0  3  0  0
    0.9505   -1.8204   -1.8682 C   0  0  0  0  0  0  0  0  0  4  0  0
   -0.2101   -2.1029   -2.7930 C   0  0  0  0  0  0  0  0  0  5  0  0
    2.4666    0.9443   -1.4355 H   0  0  0  0  0  0  0  0  0  6  0  0
    3.6339    0.3312   -0.1179 H   0  0  0  0  0  0  0  0  0  7  0  0
    1.0573    0.0741    0.7733 H   0  0  0  0  0  0  0  0  0  8  0  0
    1.9580   -1.4106    0.4809 H   0  0  0  0  0  0  0  0  0  9  0  0
    1.8195   -1.4649   -2.4379 H   0  0  0  0  0  0  0  0  0 10  0  0
    1.2587   -2.7372   -1.3440 H   0  0  0  0  0  0  0  0  0 11  0  0
   -0.5051   -1.1971   -3.3238 H   0  0  0  0  0  0  0  0  0 12  0  0
    0.0686   -2.8601   -3.5276 H   0  0  0  0  0  0  0  0  0 13  0  0
   -1.0699   -2.4661   -2.2289 H   0  0  0  0  0  0  0  0  0 14  0  0
  1  7  1  0
  1  6  1  0
  1  2  1  0
  2  9  1  0
  2  8  1  0
  2  3  1  0
  3  4  1  0
  4  5  1  0
  4 10  1  0
  4 11  1  0
  5 12  1  0
  5 14  1  0
  5 13  1  0
M  RAD  1   1   2
M  END
>  <rmg_smiles>  (5) 
[CH2]COCC

>  <rmg_adjacency_list>  (5) 
multiplicity 2
1  O u0 p2 c0 {2,S} {3,S}
2  C u0 p0 c0 {1,S} {4,S} {6,S} {7,S}
3  C u0 p0 c0 {1,S} {5,S} {8,S} {9,S}
4  C u0 p0 c0 {2,S} {10,S} {11,S} {12,S}
5  C u1 p0 c0 {3,S} {13,S} {14,S}
6  H u0 p0 c0 {2,S}
7  H u0 p0 c0 {2,S}
8  H u0 p0 c0 {3,S}
9  H u0 p0 c0 {3,S}
10 H u0 p0 c0 {4,S}
11 H u0 p0 c0 {4,S}
12 H u0 p0 c0 {4,S}
13 H u0 p0 c0 {5,S}
14 H u0 p0 c0 {5,S}


>  <multiplicity>  (5) 
2

>  <reaction>  (5) 
rmg_rxn_630

>  <type>  (5) 
r2

>  <role_mapnums>  (5) 
{}

>  <role_mapidx>  (5) 
{}

>  <ordered_mapped_smiles>  (5) 
[C:1]([C:2]([O:3][C:4]([C:5]([H:12])([H:13])[H:14])([H:10])[H:11])([H:8])[H:9])([H:6])[H:7]

>  <level_of_theory>  (5) 
wb97xd/def2tzvp

>  <lot_method>  (5) 
wb97xd

>  <lot_basis>  (5) 
def2tzvp

>  <spin_multiplicity>  (5) 
2.0

>  <optical_isomers>  (5) 
2.0

>  <modes>  (5) 
IdealGasTranslation(mass=(73.0653, 'amu')),         NonlinearRotor(             inertia = ([36.1087, 191.263, 204.688

>  <frequency_value>  (5) 
unknown

>  <frequency_units>  (5) 
unknown

>  <frequency_list>  (5) 
unknown

>  <arkane_path>  (5) 
/home/calvin/Dropbox/PersonalFolders/Calvin/ATLAS_Converged/rmg_rxn_630/output/Species/rmg_rxn_630_r2_sbr-CH2-sbrCOCC/arkane/output.py

>  <path_exists>  (5) 
True

>  <E0_value>  (5) 
-611438.6030950935

>  <E0_units>  (5) 
kJ/mol

>  <thermo_class>  (5) 
NASA

>  <Cp0_value>  (5) 
33.257888

>  <Cp0_units>  (5) 
J/(mol*K)

>  <CpInf_value>  (5) 
332.57888

>  <CpInf_units>  (5) 
J/(mol*K)

>  <Tmin_value>  (5) 
10.0

>  <Tmin_units>  (5) 
K

>  <Tmax_value>  (5) 
3000.0

>  <Tmax_units>  (5) 
K

>  <polynomials>  (5) 
[{"name": "polynomial1", "class": "NASAPolynomial", "Tmin_value": 10.0, "Tmin_units": "K", "Tmax_value": 1129.3959237558668, "Tmax_units": "K", "coeffs": [3.767687254331021, 0.030025181353026488, 1.0783022290029728e-05, -2.4093154306759102e-08, 8.382058777565432e-12, -73539079.86675207, 10.999960770951583]}, {"name": "polynomial2", "class": "NASAPolynomial", "Tmin_value": 1129.3959237558668, "Tmin_units": "K", "Tmax_value": 3000.0, "Tmax_units": "K", "coeffs": [5.6857834097634, 0.037592019875525746, -1.833922228791922e-05, 4.3554701728670094e-09, -4.0732880567514265e-13, -73540428.97117028, -2.5417292363783583]}]

>  <H298_value>  (5) 
-146132.3546509215

>  <H298_units>  (5) 
kcal/mol

>  <S298_value>  (5) 
82.85680191938049

>  <S298_units>  (5) 
cal/(mol*K)

>  <Cp_T_value_list>  (5) 
[26.1577843323499, 32.14438106326243, 37.73360939012966, 42.81809519804709, 51.24322537774468, 57.36030900443956, 66.46842649273657, 71.22035723151492, 73.4641194799488]

>  <Cp_T_units>  (5) 
cal/(mol*K)

>  <T_list>  (5) 
[300.0, 400.0, 500.0, 600.0, 800.0, 1000.0, 1500.0, 2000.0, 2400.0]

>  <T_units>  (5) 
K

>  <yaml_path>  (5) 
/home/calvin/Dropbox/PersonalFolders/Calvin/ATLAS_Converged/rmg_rxn_630/output/Species/rmg_rxn_630_r2_sbr-CH2-sbrCOCC/rmg_rxn_630_r2_sbr-CH2-sbrCOCC.yml

>  <frequencies_cm1>  (5) 
[76.09993131623999, 140.58779045635998, 186.73393180675998, 253.66643772079996, 286.93011461087997, 382.93743636979997, 472.70266847283995, 529.9115231737599, 822.58930449748, 853.7036149823999, 871.2762304162799, 982.3771859085599, 1056.19727809856, 1096.42407810312, 1136.3281297976398, 1169.37206315748, 1177.12488958376, 1281.42066262392, 1292.2086965616397, 1373.79534914856, 1391.2512258319998, 1423.8488051460397, 1437.4660370355998, 1459.749404399, 1470.3382957624399, 1487.2654145762401, 1513.826913794, 2933.2739813499197, 2947.7839213310795, 2970.7608542117996, 2983.3205703620797, 3023.4924344840797, 3101.41211691012, 3103.7537589042395, 3126.2774707538397, 3235.73034976932]

>  <ZPE_kJmol>  (5) 
317.3211535298422

>  <E_elec_kJmol>  (5) 
-611755.9242486233

>  <E0_minus_Eelec_plus_ZPE_kJmol>  (5) 
0.0

>  <rxn>  (5) 
rmg_rxn_630

>  <species_type>  (5) 
r1

>  <species_folder>  (5) 
rmg_rxn_630_r2_sbr-CH2-sbrCOCC

>  <frequencies_cm1_list>  (5) 
[76.09993131623999, 140.58779045635998, 186.73393180675998, 253.66643772079996, 286.93011461087997, 382.93743636979997, 472.70266847283995, 529.9115231737599, 822.58930449748, 853.7036149823999, 871.2762304162799, 982.3771859085599, 1056.19727809856, 1096.42407810312, 1136.3281297976398, 1169.37206315748, 1177.12488958376, 1281.42066262392, 1292.2086965616397, 1373.79534914856, 1391.2512258319998, 1423.8488051460397, 1437.4660370355998, 1459.749404399, 1470.3382957624399, 1487.2654145762401, 1513.826913794, 2933.2739813499197, 2947.7839213310795, 2970.7608542117996, 2983.3205703620797, 3023.4924344840797, 3101.41211691012, 3103.7537589042395, 3126.2774707538397, 3235.73034976932]

>  <E0_kJmol>  (5) 
-611439

>  <H298_kJmol>  (5) 
-611418

$$$$
