
     RDKit          3D

 17 16  0  0  0  0  0  0  0  0999 V2000
    0.6373   -2.2471   -1.5991 C   0  0  0  0  0  0  0  0  0  1  0  0
    0.8316   -2.0361   -0.1313 C   0  0  0  0  0  0  0  0  0  2  0  0
    0.3418   -1.0217    0.5665 C   0  0  0  0  0  0  0  0  0  3  0  0
   -0.4711   -0.0864   -0.0036 O   0  0  0  0  0  0  0  0  0  4  0  0
   -0.3050    1.1990    0.6487 N   0  0  0  0  0  0  0  0  0  5  0  0
   -1.4818    1.8487    0.7213 N   0  0  0  0  0  0  0  0  0  6  0  0
    0.6996    1.9453   -0.0949 C   0  0  0  0  0  0  0  0  0  7  0  0
    1.5599   -2.6028   -2.0617 H   0  0  0  0  0  0  0  0  0  8  0  0
    0.3388   -1.3234   -2.0962 H   0  0  0  0  0  0  0  0  0  9  0  0
   -0.1303   -3.0024   -1.7930 H   0  0  0  0  0  0  0  0  0 10  0  0
    1.3961   -2.7748    0.4250 H   0  0  0  0  0  0  0  0  0 11  0  0
    0.5195   -0.8794    1.6267 H   0  0  0  0  0  0  0  0  0 12  0  0
   -1.8792    1.9742   -0.2074 H   0  0  0  0  0  0  0  0  0 13  0  0
   -2.1460    1.2135    1.1586 H   0  0  0  0  0  0  0  0  0 14  0  0
    0.3909    2.1100   -1.1311 H   0  0  0  0  0  0  0  0  0 15  0  0
    1.6303    1.3810   -0.0778 H   0  0  0  0  0  0  0  0  0 16  0  0
    0.8398    2.8969    0.4132 H   0  0  0  0  0  0  0  0  0 17  0  0
  1 10  1  0
  1  8  1  0
  1  9  1  0
  1  2  1  0
  2 11  1  0
  2  3  1  0
  3  4  1  0
  3 12  1  0
  4  5  1  0
  5  6  1  0
  5  7  1  0
  6 14  1  0
  6 13  1  0
  7 17  1  0
  7 15  1  0
  7 16  1  0
M  END
>  <rmg_smiles>  (1) 
C[CH][CH]ON(N)C

>  <rmg_adjacency_list>  (1) 
1  O u0 p2 c0 {2,S} {7,S}
2  N u0 p1 c0 {1,S} {3,S} {4,S}
3  N u0 p1 c0 {2,S} {16,S} {17,S}
4  C u0 p0 c0 {2,S} {11,S} {12,S} {13,S}
5  C u0 p0 c0 {6,S} {8,S} {9,S} {10,S}
6  C u0 p0 c0 {5,S} {7,S} {14,S}
7  C u0 p0 c0 {1,S} {6,S} {15,S}
8  H u0 p0 c0 {5,S}
9  H u0 p0 c0 {5,S}
10 H u0 p0 c0 {5,S}
11 H u0 p0 c0 {4,S}
12 H u0 p0 c0 {4,S}
13 H u0 p0 c0 {4,S}
14 H u0 p0 c0 {6,S}
15 H u0 p0 c0 {7,S}
16 H u0 p0 c0 {3,S}
17 H u0 p0 c0 {3,S}


>  <multiplicity>  (1) 
1

>  <reaction>  (1) 
rmg_rxn_10708

>  <type>  (1) 
r1h

>  <role_mapnums>  (1) 
{"r1h_a": 6, "r1h_h": 13}

>  <role_mapidx>  (1) 
{"r1h_a": 5, "r1h_h": 12}

>  <ordered_mapped_smiles>  (1) 
[C:1]([CH:2]([CH:3]([O:4][N:5]([N:6]([H:13])[H:14])[C:7]([H:15])([H:16])[H:17])[H:12])[H:11])([H:8])([H:9])[H:10]

>  <mol_properties>  (1) 
{"5": {"label": "donator", "atom_type": "N3s"}, "12": {"label": "d_hydrogen", "atom_type": "H0"}}

>  <level_of_theory>  (1) 
wb97xd/def2tzvp

>  <lot_method>  (1) 
wb97xd

>  <lot_basis>  (1) 
def2tzvp

>  <spin_multiplicity>  (1) 
1.0

>  <optical_isomers>  (1) 
2.0

>  <modes>  (1) 
IdealGasTranslation(mass=(102.079, 'amu')),         NonlinearRotor(             inertia = ([85.6795, 376.18, 388.876

>  <frequency_value>  (1) 
unknown

>  <frequency_units>  (1) 
unknown

>  <frequency_list>  (1) 
unknown

>  <arkane_path>  (1) 
/home/calvin/Dropbox/PersonalFolders/Calvin/ZEUS_Converged/rmg_rxn_10708/output/Species/rmg_rxn_10708_r2_CC=CONrbr-N-rbrC/arkane/output.py

>  <path_exists>  (1) 
True

>  <E0_value>  (1) 
-900405.0494296006

>  <E0_units>  (1) 
kJ/mol

>  <thermo_class>  (1) 
NASA

>  <Cp0_value>  (1) 
33.257888

>  <Cp0_units>  (1) 
J/(mol*K)

>  <CpInf_value>  (1) 
407.409128

>  <CpInf_units>  (1) 
J/(mol*K)

>  <Tmin_value>  (1) 
10.0

>  <Tmin_units>  (1) 
K

>  <Tmax_value>  (1) 
3000.0

>  <Tmax_units>  (1) 
K

>  <polynomials>  (1) 
[{"name": "polynomial1", "class": "NASAPolynomial", "Tmin_value": 10.0, "Tmin_units": "K", "Tmax_value": 1108.736796573486, "Tmax_units": "K", "coeffs": [3.593482067657345, 0.04527343613148581, -7.853115807860651e-07, -2.043658609457127e-08, 8.18045447415304e-12, -108293714.18687978, 12.85162704751556]}, {"name": "polynomial2", "class": "NASAPolynomial", "Tmin_value": 1108.736796573486, "Tmin_units": "K", "Tmax_value": 3000.0, "Tmax_units": "K", "coeffs": [7.506038002578287, 0.046589931565087575, -2.3444009976697085e-05, 5.741145862751885e-09, -5.527118171710488e-13, -108295530.30298632, -10.705520626468415]}]

>  <H298_value>  (1) 
-215195.9362782153

>  <H298_units>  (1) 
kcal/mol

>  <S298_value>  (1) 
92.63660749241524

>  <S298_units>  (1) 
cal/(mol*K)

>  <Cp_T_value_list>  (1) 
[33.0259983327988, 40.69537554931736, 47.67423133324528, 53.89446290908325, 63.981717362233816, 71.19261681574156, 81.91300293988421, 87.42841994031997, 90.0449470406118]

>  <Cp_T_units>  (1) 
cal/(mol*K)

>  <T_list>  (1) 
[300.0, 400.0, 500.0, 600.0, 800.0, 1000.0, 1500.0, 2000.0, 2400.0]

>  <T_units>  (1) 
K

>  <yaml_path>  (1) 
/home/calvin/Dropbox/PersonalFolders/Calvin/ZEUS_Converged/rmg_rxn_10708/output/Species/rmg_rxn_10708_r2_CC=CONrbr-N-rbrC/rmg_rxn_10708_r2_CC=CONrbr-N-rbrC.yml

>  <frequencies_cm1>  (1) 
[42.90492427935999, 70.94969232623998, 121.85465450339998, 166.71666959895998, 253.87244728039994, 301.92074356444, 373.40606074563993, 419.64833989052, 445.81842094504, 504.72342102, 549.00174236336, 631.06908392268, 758.13578028396, 848.92419319968, 869.8822323963199, 938.1057315505199, 966.4663809221199, 985.6939398181199, 1045.86246519196, 1060.8324931895597, 1129.8319616849199, 1145.91444130436, 1177.50257377636, 1255.0720399510801, 1275.68672988172, 1357.8776771768, 1378.40309629828, 1417.9431977708398, 1431.4368239246398, 1469.8713407606797, 1474.3760831306, 1478.2284618951198, 1482.71260330908, 1665.8688357641197, 1738.5215404497199, 2975.03898606616, 3009.26404090104, 3062.7647235291597, 3097.66960991072, 3105.09968802696, 3145.0998775159596, 3146.5076095065597, 3168.9763854735997, 3405.2006804816, 3560.0443324622797]

>  <ZPE_kJmol>  (1) 
382.271003727177

>  <E_elec_kJmol>  (1) 
-900787.3204333278

>  <E0_minus_Eelec_plus_ZPE_kJmol>  (1) 
0.0

>  <rxn>  (1) 
rmg_rxn_10708

>  <species_type>  (1) 
r1

>  <species_folder>  (1) 
rmg_rxn_10708_r2_CC=CONrbr-N-rbrC

>  <frequencies_cm1_list>  (1) 
[42.90492427935999, 70.94969232623998, 121.85465450339998, 166.71666959895998, 253.87244728039994, 301.92074356444, 373.40606074563993, 419.64833989052, 445.81842094504, 504.72342102, 549.00174236336, 631.06908392268, 758.13578028396, 848.92419319968, 869.8822323963199, 938.1057315505199, 966.4663809221199, 985.6939398181199, 1045.86246519196, 1060.8324931895597, 1129.8319616849199, 1145.91444130436, 1177.50257377636, 1255.0720399510801, 1275.68672988172, 1357.8776771768, 1378.40309629828, 1417.9431977708398, 1431.4368239246398, 1469.8713407606797, 1474.3760831306, 1478.2284618951198, 1482.71260330908, 1665.8688357641197, 1738.5215404497199, 2975.03898606616, 3009.26404090104, 3062.7647235291597, 3097.66960991072, 3105.09968802696, 3145.0998775159596, 3146.5076095065597, 3168.9763854735997, 3405.2006804816, 3560.0443324622797]

>  <E0_kJmol>  (1) 
-900405

>  <H298_kJmol>  (1) 
-900380

$$$$

     RDKit          3D

 13 12  0  0  0  0  0  0  0  0999 V2000
   -0.6762    1.8634    0.7879 C   0  0  0  0  0  0  0  0  0  1  0  0
   -0.9268    0.4030    1.0638 C   0  0  0  0  0  0  0  0  0  2  0  0
   -0.3307   -0.5843    0.1799 C   0  0  0  0  0  0  0  0  0  3  0  0
    0.6295   -0.2931   -0.6108 N   0  0  0  0  0  0  0  0  0  4  0  0
    1.2138   -1.3210   -1.3005 N   0  0  0  0  0  0  0  0  0  5  0  0
    0.3885    2.0589    0.6622 H   0  0  0  0  0  0  0  0  0  6  0  0
   -1.0466    2.4773    1.6096 H   0  0  0  0  0  0  0  0  0  7  0  0
   -1.1758    2.1812   -0.1316 H   0  0  0  0  0  0  0  0  0  8  0  0
   -1.9597    0.1648    1.3187 H   0  0  0  0  0  0  0  0  0  9  0  0
   -0.6856   -1.6171    0.2679 H   0  0  0  0  0  0  0  0  0 10  0  0
    0.6044   -2.1119   -1.4849 H   0  0  0  0  0  0  0  0  0 11  0  0
    1.6444   -0.9765   -2.1429 H   0  0  0  0  0  0  0  0  0 12  0  0
   -0.4640    0.2559    2.0399 H   0  0  0  0  0  0  0  0  0 13  0  0
  1  8  1  0
  1  7  1  0
  1  6  1  0
  1  2  1  0
  2  9  1  0
  2 13  1  0
  2  3  1  0
  3 10  1  0
  3  4  1  0
  4  5  1  0
  5 12  1  0
  5 11  1  0
M  END
>  <rmg_smiles>  (2) 
CC[CH][N]N

>  <rmg_adjacency_list>  (2) 
1  N u0 p1 c0 {2,S} {12,S} {13,S}
2  N u0 p1 c0 {1,S} {5,S}
3  C u0 p0 c0 {4,S} {5,S} {6,S} {7,S}
4  C u0 p0 c0 {3,S} {8,S} {9,S} {10,S}
5  C u0 p0 c0 {2,S} {3,S} {11,S}
6  H u0 p0 c0 {3,S}
7  H u0 p0 c0 {3,S}
8  H u0 p0 c0 {4,S}
9  H u0 p0 c0 {4,S}
10 H u0 p0 c0 {4,S}
11 H u0 p0 c0 {5,S}
12 H u0 p0 c0 {1,S}
13 H u0 p0 c0 {1,S}


>  <multiplicity>  (2) 
1

>  <reaction>  (2) 
rmg_rxn_10708

>  <type>  (2) 
r2h

>  <role_mapnums>  (2) 
{"r2h_a": 2, "r2h_h": 13}

>  <role_mapidx>  (2) 
{"r2h_a": 1, "r2h_h": 12}

>  <ordered_mapped_smiles>  (2) 
[C:1]([C:2]([CH:3]([NH:4][N:5]([H:11])[H:12])[H:10])([H:9])[H:13])([H:6])([H:7])[H:8]

>  <mol_properties>  (2) 
{"1": {"label": "acceptor", "atom_type": "Cs"}, "12": {"label": "a_hydrogen", "atom_type": "H0"}}

>  <level_of_theory>  (2) 
wb97xd/def2tzvp

>  <lot_method>  (2) 
wb97xd

>  <lot_basis>  (2) 
def2tzvp

>  <spin_multiplicity>  (2) 
1.0

>  <optical_isomers>  (2) 
2.0

>  <modes>  (2) 
IdealGasTranslation(mass=(72.0687, 'amu')),         NonlinearRotor(             inertia = ([34.684, 184.298, 212.234

>  <frequency_value>  (2) 
unknown

>  <frequency_units>  (2) 
unknown

>  <frequency_list>  (2) 
unknown

>  <arkane_path>  (2) 
/home/calvin/Dropbox/PersonalFolders/Calvin/ZEUS_Converged/rmg_rxn_10708/output/Species/rmg_rxn_10708_p1_CCC=NN/arkane/output.py

>  <path_exists>  (2) 
True

>  <E0_value>  (2) 
-599920.9873317869

>  <E0_units>  (2) 
kJ/mol

>  <thermo_class>  (2) 
NASA

>  <Cp0_value>  (2) 
33.257888

>  <Cp0_units>  (2) 
J/(mol*K)

>  <CpInf_value>  (2) 
307.635464

>  <CpInf_units>  (2) 
J/(mol*K)

>  <Tmin_value>  (2) 
10.0

>  <Tmin_units>  (2) 
K

>  <Tmax_value>  (2) 
3000.0

>  <Tmax_units>  (2) 
K

>  <polynomials>  (2) 
[{"name": "polynomial1", "class": "NASAPolynomial", "Tmin_value": 10.0, "Tmin_units": "K", "Tmax_value": 499.3147300725661, "Tmax_units": "K", "coeffs": [3.772737889467939, 0.01901670993956432, 5.4211482346469644e-05, -1.0002807179596149e-07, 5.2945469938438315e-11, -72153825.17368056, 10.319749085738847]}, {"name": "polynomial2", "class": "NASAPolynomial", "Tmin_value": 499.3147300725661, "Tmin_units": "K", "Tmax_value": 3000.0, "Tmax_units": "K", "coeffs": [0.4321564708677366, 0.045777830025256636, -2.6181433413240182e-05, 7.308755881392629e-09, -7.961803655511034e-13, -72153491.5707767, 24.116053316438002]}]

>  <H298_value>  (2) 
-143380.03046920145

>  <H298_units>  (2) 
kcal/mol

>  <S298_value>  (2) 
77.71862079027869

>  <S298_units>  (2) 
cal/(mol*K)

>  <Cp_T_value_list>  (2) 
[24.015161340836656, 29.82174262050609, 35.05342116575715, 39.64287141955497, 47.12515278152197, 52.74270329409755, 61.259742638110225, 65.56438910501056, 67.79311195775227]

>  <Cp_T_units>  (2) 
cal/(mol*K)

>  <T_list>  (2) 
[300.0, 400.0, 500.0, 600.0, 800.0, 1000.0, 1500.0, 2000.0, 2400.0]

>  <T_units>  (2) 
K

>  <yaml_path>  (2) 
/home/calvin/Dropbox/PersonalFolders/Calvin/ZEUS_Converged/rmg_rxn_10708/output/Species/rmg_rxn_10708_p1_CCC=NN/rmg_rxn_10708_p1_CCC=NN.yml

>  <frequencies_cm1>  (2) 
[131.53023681928, 204.72543334515998, 211.99757079904, 294.46319750692, 385.55375777672003, 420.17023077484, 638.286285494, 720.7931141138, 773.8749106374, 906.79227849132, 928.7185626180799, 1015.77820250504, 1104.88420401736, 1109.64989182944, 1147.56251778116, 1260.9570463703199, 1278.52279481888, 1369.2425378813998, 1404.13369029232, 1415.2307385694398, 1466.4378481006797, 1477.5005614511997, 1488.6731465668397, 1650.7546010748, 1744.5507535606796, 2983.5815158042396, 3001.1197963115196, 3021.061521680799, 3026.87099126152, 3100.27906433232, 3105.4911061902, 3444.6789790862795, 3612.59050413092]

>  <ZPE_kJmol>  (2) 
298.14811218872103

>  <E_elec_kJmol>  (2) 
-600219.1354439756

>  <E0_minus_Eelec_plus_ZPE_kJmol>  (2) 
0.0

>  <rxn>  (2) 
rmg_rxn_10708

>  <species_type>  (2) 
p0

>  <species_folder>  (2) 
rmg_rxn_10708_p1_CCC=NN

>  <frequencies_cm1_list>  (2) 
[131.53023681928, 204.72543334515998, 211.99757079904, 294.46319750692, 385.55375777672003, 420.17023077484, 638.286285494, 720.7931141138, 773.8749106374, 906.79227849132, 928.7185626180799, 1015.77820250504, 1104.88420401736, 1109.64989182944, 1147.56251778116, 1260.9570463703199, 1278.52279481888, 1369.2425378813998, 1404.13369029232, 1415.2307385694398, 1466.4378481006797, 1477.5005614511997, 1488.6731465668397, 1650.7546010748, 1744.5507535606796, 2983.5815158042396, 3001.1197963115196, 3021.061521680799, 3026.87099126152, 3100.27906433232, 3105.4911061902, 3444.6789790862795, 3612.59050413092]

>  <E0_kJmol>  (2) 
-599921

>  <H298_kJmol>  (2) 
-599902

$$$$

     RDKit          3D

 29 27  0  0  0  0  0  0  0  0999 V2000
   -1.6990    2.9156   -0.7477 C   0  0  0  0  0  0  0  0  0  1  0  0
   -1.9496    1.4552   -0.4718 C   0  0  0  0  0  3  0  0  0  2  0  0
   -1.3535    0.4679   -1.3557 C   0  0  0  0  0  0  0  0  0  3  0  0
   -0.3933    0.7591   -2.1464 N   0  0  0  0  0  0  0  0  0  4  0  0
    0.1910   -0.2688   -2.8361 N   0  0  0  0  0  0  0  0  0  5  0  0
   -0.6343    3.1111   -0.8734 H   0  0  0  0  0  0  0  0  0  6  0  0
   -2.0694    3.5295    0.0740 H   0  0  0  0  0  0  0  0  0  7  0  0
   -2.1986    3.2335   -1.6672 H   0  0  0  0  0  0  0  0  0  8  0  0
   -2.9825    1.2170   -0.2169 H   0  0  0  0  0  0  0  0  0  9  0  0
   -1.7083   -0.5648   -1.2677 H   0  0  0  0  0  0  0  0  0 10  0  0
   -0.4184   -1.0597   -3.0205 H   0  0  0  0  0  0  0  0  0 11  0  0
    0.6217    0.0758   -3.6785 H   0  0  0  0  0  0  0  0  0 12  0  0
    1.2432   -2.9807   -0.4133 C   0  0  0  0  0  0  0  0  0 13  0  0
    1.4376   -2.7698    1.0545 C   0  0  0  0  0  0  0  0  0 14  0  0
    0.9478   -1.7553    1.7523 C   0  0  0  0  0  0  0  0  0 15  0  0
    0.1349   -0.8201    1.1823 O   0  0  0  0  0  0  0  0  0 16  0  0
    0.3009    0.4654    1.8345 N   0  0  0  0  0  0  0  0  0 17  0  0
   -0.8759    1.1151    1.9071 N   0  0  0  0  0  0  0  0  0 18  0  0
    1.3056    1.2116    1.0910 C   0  0  0  0  0  0  0  0  0 19  0  0
    2.1659   -3.3365   -0.8759 H   0  0  0  0  0  0  0  0  0 20  0  0
    0.9448   -2.0570   -0.9104 H   0  0  0  0  0  0  0  0  0 21  0  0
    0.4756   -3.7361   -0.6071 H   0  0  0  0  0  0  0  0  0 22  0  0
    2.0020   -3.5085    1.6109 H   0  0  0  0  0  0  0  0  0 23  0  0
    1.1255   -1.6131    2.8126 H   0  0  0  0  0  0  0  0  0 24  0  0
   -1.3788    1.2738    0.7319 H   0  0  0  0  0  0  0  0  0 25  0  0
   -1.5401    0.4798    2.3445 H   0  0  0  0  0  0  0  0  0 26  0  0
    0.9968    1.3763    0.0547 H   0  0  0  0  0  0  0  0  0 27  0  0
    2.2363    0.6474    1.1080 H   0  0  0  0  0  0  0  0  0 28  0  0
    1.4458    2.1632    1.5990 H   0  0  0  0  0  0  0  0  0 29  0  0
  1  7  1  0
  1  8  1  0
  1  2  1  0
  1  6  1  0
  2  3  1  0
  2  9  1  0
  3  4  1  0
  3 10  1  0
  4  5  1  0
  5 11  1  0
  5 12  1  0
 13 21  1  0
 13 20  1  0
 13 14  1  0
 13 22  1  0
 14 15  1  0
 14 23  1  0
 15 16  1  0
 15 24  1  0
 16 17  1  0
 17 19  1  0
 17 18  1  0
 18 26  1  0
 18 25  1  0
 19 27  1  0
 19 28  1  0
 19 29  1  0
M  RAD  1   2   2
M  END
>  <rmg_smiles>  (3) 
C[CH][CH]ON(N)C.C[CH][CH][N]N

>  <rmg_adjacency_list>  (3) 
multiplicity 2
1  O u0 p2 c0 {2,S} {12,S}
2  N u0 p1 c0 {1,S} {3,S} {6,S}
3  N u0 p1 c0 {2,S} {26,S} {27,S}
4  N u0 p1 c0 {5,S} {28,S} {29,S}
5  N u0 p1 c0 {4,S} {11,S}
6  C u0 p0 c0 {2,S} {19,S} {20,S} {21,S}
7  C u0 p0 c0 {9,S} {13,S} {14,S} {15,S}
8  C u0 p0 c0 {10,S} {16,S} {17,S} {18,S}
9  C u1 p0 c0 {7,S} {11,S} {22,S}
10 C u0 p0 c0 {8,S} {12,S} {23,S}
11 C u0 p0 c0 {5,S} {9,S} {24,S}
12 C u0 p0 c0 {1,S} {10,S} {25,S}
13 H u0 p0 c0 {7,S}
14 H u0 p0 c0 {7,S}
15 H u0 p0 c0 {7,S}
16 H u0 p0 c0 {8,S}
17 H u0 p0 c0 {8,S}
18 H u0 p0 c0 {8,S}
19 H u0 p0 c0 {6,S}
20 H u0 p0 c0 {6,S}
21 H u0 p0 c0 {6,S}
22 H u0 p0 c0 {9,S}
23 H u0 p0 c0 {10,S}
24 H u0 p0 c0 {11,S}
25 H u0 p0 c0 {12,S}
26 H u0 p0 c0 {3,S}
27 H u0 p0 c0 {3,S}
28 H u0 p0 c0 {4,S}
29 H u0 p0 c0 {4,S}


>  <multiplicity>  (3) 
2

>  <reaction>  (3) 
rmg_rxn_10708

>  <type>  (3) 
ts

>  <role_mapnums>  (3) 
{"*2": 25, "*1": 18, "*3": 2, "*0": 17, "*4": 3}

>  <role_mapidx>  (3) 
{"*2": 24, "*1": 17, "*3": 1, "*0": 16, "*4": 2}

>  <ordered_mapped_smiles>  (3) 
[C:1]([C:2]([CH:3]([NH:4][N:5]([H:11])[H:12])[H:10])[H:9])([H:6])([H:7])[H:8].[C:13]([CH:14]([CH:15]([O:16][N:17]([N:18]([H:25])[H:26])[C:19]([H:27])([H:28])[H:29])[H:24])[H:23])([H:20])([H:21])[H:22]

>  <mol_properties>  (3) 
{"1": {"label": "*3", "atom_type": "Cs"}, "2": {"label": "*4", "atom_type": "Cs"}, "16": {"label": "*0", "atom_type": "N3s"}, "17": {"label": "*1", "atom_type": "N3s"}, "24": {"label": "*2", "atom_type": "H0"}}

>  <level_of_theory>  (3) 
wb97xd/def2tzvp

>  <lot_method>  (3) 
wb97xd

>  <lot_basis>  (3) 
def2tzvp

>  <spin_multiplicity>  (3) 
2.0

>  <optical_isomers>  (3) 
2.0

>  <modes>  (3) 
IdealGasTranslation(mass=(173.14, 'amu')),         NonlinearRotor(             inertia = ([488.927, 790.359, 1111.24

>  <frequency_value>  (3) 
-2054.23

>  <frequency_units>  (3) 
cm^-1

>  <frequency_list>  (3) 
unknown

>  <arkane_path>  (3) 
/home/calvin/Dropbox/PersonalFolders/Calvin/ZEUS_Converged/rmg_rxn_10708/output/rxns/TS0/arkane/output.py

>  <path_exists>  (3) 
True

>  <E0_value>  (3) 
-1498600.0

>  <E0_units>  (3) 
kJ/mol

>  <thermo_class>  (3) 
unknown

>  <Cp0_value>  (3) 
unknown

>  <Cp0_units>  (3) 
unknown

>  <CpInf_value>  (3) 
unknown

>  <CpInf_units>  (3) 
unknown

>  <Tmin_value>  (3) 
unknown

>  <Tmin_units>  (3) 
unknown

>  <Tmax_value>  (3) 
unknown

>  <Tmax_units>  (3) 
unknown

>  <polynomials>  (3) 
unknown

>  <H298_value>  (3) 
unknown

>  <H298_units>  (3) 
unknown

>  <S298_value>  (3) 
unknown

>  <S298_units>  (3) 
unknown

>  <Cp_T_value_list>  (3) 
unknown

>  <Cp_T_units>  (3) 
unknown

>  <T_list>  (3) 
unknown

>  <T_units>  (3) 
unknown

>  <yaml_path>  (3) 
unknown

>  <frequencies_cm1>  (3) 
unknown

>  <ZPE_kJmol>  (3) 
unknown

>  <E_elec_kJmol>  (3) 
unknown

>  <E0_minus_Eelec_plus_ZPE_kJmol>  (3) 
unknown

>  <rxn>  (3) 
unknown

>  <species_type>  (3) 
unknown

>  <species_folder>  (3) 
unknown

>  <frequencies_cm1_list>  (3) 
[]

>  <ts_imag_freq_cm1>  (3) 
-2079.1851

>  <ts_freq_out_path>  (3) 
/home/calvin/Dropbox/PersonalFolders/Calvin/ZEUS_Converged/rmg_rxn_10708/output/rxns/TS0/geometry/freq.out

>  <E0_kJmol>  (3) 
-1.4986e+06

>  <H298_kJmol>  (3) 
unknown

$$$$

     RDKit          3D

 16 15  0  0  0  0  0  0  0  0999 V2000
   -2.7163    0.6711   -0.2082 C   0  0  0  0  0  0  0  0  0  1  0  0
   -2.0604   -0.6699   -0.1371 C   0  0  0  0  0  0  0  0  0  2  0  0
   -1.8776   -1.4967   -1.1546 C   0  0  0  0  0  0  0  0  0  3  0  0
   -2.2450   -1.1612   -2.4322 O   0  0  0  0  0  0  0  0  0  4  0  0
   -2.5108   -2.3329   -3.2086 N   0  0  0  0  0  0  0  0  0  5  0  0
   -2.0229   -2.3050   -4.4233 N   0  0  0  0  0  2  0  0  0  6  0  0
   -3.9082   -2.7128   -3.0828 C   0  0  0  0  0  0  0  0  0  7  0  0
   -3.4812    0.7676    0.5653 H   0  0  0  0  0  0  0  0  0  8  0  0
   -3.1809    0.8365   -1.1792 H   0  0  0  0  0  0  0  0  0  9  0  0
   -1.9897    1.4706   -0.0417 H   0  0  0  0  0  0  0  0  0 10  0  0
   -1.6717   -0.9974    0.8197 H   0  0  0  0  0  0  0  0  0 11  0  0
   -1.3990   -2.4648   -1.0638 H   0  0  0  0  0  0  0  0  0 12  0  0
   -1.1779   -1.7364   -4.3793 H   0  0  0  0  0  0  0  0  0 13  0  0
   -4.5563   -1.9305   -3.4853 H   0  0  0  0  0  0  0  0  0 14  0  0
   -4.1357   -2.8800   -2.0315 H   0  0  0  0  0  0  0  0  0 15  0  0
   -4.0457   -3.6333   -3.6440 H   0  0  0  0  0  0  0  0  0 16  0  0
  1 10  1  0
  1  8  1  0
  1  9  1  0
  1  2  1  0
  2 11  1  0
  2  3  1  0
  3  4  1  0
  3 12  1  0
  4  5  1  0
  5  6  1  0
  5  7  1  0
  6 13  1  0
  7 14  1  0
  7 15  1  0
  7 16  1  0
M  RAD  1   6   2
M  END
>  <rmg_smiles>  (4) 
C[CH][CH]ON([NH])C

>  <rmg_adjacency_list>  (4) 
multiplicity 2
1  O u0 p2 c0 {2,S} {7,S}
2  N u0 p1 c0 {1,S} {3,S} {5,S}
3  N u1 p1 c0 {2,S} {16,S}
4  C u0 p0 c0 {6,S} {8,S} {9,S} {10,S}
5  C u0 p0 c0 {2,S} {11,S} {12,S} {13,S}
6  C u0 p0 c0 {4,S} {7,S} {14,S}
7  C u0 p0 c0 {1,S} {6,S} {15,S}
8  H u0 p0 c0 {4,S}
9  H u0 p0 c0 {4,S}
10 H u0 p0 c0 {4,S}
11 H u0 p0 c0 {5,S}
12 H u0 p0 c0 {5,S}
13 H u0 p0 c0 {5,S}
14 H u0 p0 c0 {6,S}
15 H u0 p0 c0 {7,S}
16 H u0 p0 c0 {3,S}


>  <multiplicity>  (4) 
2

>  <reaction>  (4) 
rmg_rxn_10708

>  <type>  (4) 
r1

>  <role_mapnums>  (4) 
{}

>  <role_mapidx>  (4) 
{}

>  <ordered_mapped_smiles>  (4) 
[C:1]([CH:2]([CH:3]([O:4][N:5]([N:6][H:13])[C:7]([H:14])([H:15])[H:16])[H:12])[H:11])([H:8])([H:9])[H:10]

>  <level_of_theory>  (4) 
wb97xd/def2tzvp

>  <lot_method>  (4) 
wb97xd

>  <lot_basis>  (4) 
def2tzvp

>  <spin_multiplicity>  (4) 
2.0

>  <optical_isomers>  (4) 
2.0

>  <modes>  (4) 
IdealGasTranslation(mass=(101.071, 'amu')),         NonlinearRotor(             inertia = ([82.2482, 367.276, 386.349

>  <frequency_value>  (4) 
unknown

>  <frequency_units>  (4) 
unknown

>  <frequency_list>  (4) 
unknown

>  <arkane_path>  (4) 
/home/calvin/Dropbox/PersonalFolders/Calvin/ZEUS_Converged/rmg_rxn_10708/output/Species/rmg_rxn_10708_p2_CC=CONrbr-sbr-NH-sbr-rbrC/arkane/output.py

>  <path_exists>  (4) 
True

>  <E0_value>  (4) 
-898742.9185377804

>  <E0_units>  (4) 
kJ/mol

>  <thermo_class>  (4) 
NASA

>  <Cp0_value>  (4) 
33.257888

>  <Cp0_units>  (4) 
J/(mol*K)

>  <CpInf_value>  (4) 
382.465712

>  <CpInf_units>  (4) 
J/(mol*K)

>  <Tmin_value>  (4) 
10.0

>  <Tmin_units>  (4) 
K

>  <Tmax_value>  (4) 
3000.0

>  <Tmax_units>  (4) 
K

>  <polynomials>  (4) 
[{"name": "polynomial1", "class": "NASAPolynomial", "Tmin_value": 10.0, "Tmin_units": "K", "Tmax_value": 1230.351550791476, "Tmax_units": "K", "coeffs": [3.636448192617725, 0.046012269057782156, -1.0447598723861432e-05, -9.397618320350448e-09, 4.2997715161361366e-12, -108093806.20736969, 13.356245971953898]}, {"name": "polynomial2", "class": "NASAPolynomial", "Tmin_value": 1230.351550791476, "Tmin_units": "K", "Tmax_value": 3000.0, "Tmax_units": "K", "coeffs": [10.637798077256372, 0.03762876756034826, -1.7756617991574368e-05, 4.0613531266158274e-09, -3.6506325325576807e-13, -108096617.32351352, -26.295285854594052]}]

>  <H298_value>  (4) 
-214798.71695714595

>  <H298_units>  (4) 
kcal/mol

>  <S298_value>  (4) 
93.88909266705956

>  <S298_units>  (4) 
cal/(mol*K)

>  <Cp_T_value_list>  (4) 
[32.353584800793946, 39.50241933237663, 45.9535869024618, 51.687318427953755, 61.025931419689, 67.77024327047224, 77.47619958424356, 82.5061792663907, 84.85559276208323]

>  <Cp_T_units>  (4) 
cal/(mol*K)

>  <T_list>  (4) 
[300.0, 400.0, 500.0, 600.0, 800.0, 1000.0, 1500.0, 2000.0, 2400.0]

>  <T_units>  (4) 
K

>  <yaml_path>  (4) 
/home/calvin/Dropbox/PersonalFolders/Calvin/ZEUS_Converged/rmg_rxn_10708/output/Species/rmg_rxn_10708_p2_CC=CONrbr-sbr-NH-sbr-rbrC/rmg_rxn_10708_p2_CC=CONrbr-sbr-NH-sbr-rbrC.yml

>  <frequencies_cm1>  (4) 
[39.766711988119994, 75.63297631448, 123.26238649399998, 170.50724549560002, 210.75464645612, 275.49658405307997, 409.25172411604, 436.20464149704003, 468.50694044231994, 500.21867865008005, 576.8748357772399, 635.10687129084, 759.24136492048, 839.57822617916, 939.32118795216, 961.2680730348799, 1009.44684204, 1040.7534281138799, 1058.9372052412398, 1116.31086758984, 1136.6302771517198, 1158.60463017572, 1269.5201770643598, 1302.9417946168, 1381.1704913822398, 1418.63676328816, 1428.2162078095598, 1447.1828212633998, 1467.8867820031996, 1473.94346305544, 1477.12974424392, 1484.2920099326798, 1743.06061774624, 3013.6108426086, 3018.15678689044, 3068.4780553153996, 3106.953774063359, 3110.6619461361597, 3147.0088994349203, 3149.9479691518795, 3171.6476427630796, 3452.55541124832]

>  <ZPE_kJmol>  (4) 
347.3638170215182

>  <E_elec_kJmol>  (4) 
-899090.2823548019

>  <E0_minus_Eelec_plus_ZPE_kJmol>  (4) 
0.0

>  <rxn>  (4) 
rmg_rxn_10708

>  <species_type>  (4) 
p1

>  <species_folder>  (4) 
rmg_rxn_10708_p2_CC=CONrbr-sbr-NH-sbr-rbrC

>  <frequencies_cm1_list>  (4) 
[39.766711988119994, 75.63297631448, 123.26238649399998, 170.50724549560002, 210.75464645612, 275.49658405307997, 409.25172411604, 436.20464149704003, 468.50694044231994, 500.21867865008005, 576.8748357772399, 635.10687129084, 759.24136492048, 839.57822617916, 939.32118795216, 961.2680730348799, 1009.44684204, 1040.7534281138799, 1058.9372052412398, 1116.31086758984, 1136.6302771517198, 1158.60463017572, 1269.5201770643598, 1302.9417946168, 1381.1704913822398, 1418.63676328816, 1428.2162078095598, 1447.1828212633998, 1467.8867820031996, 1473.94346305544, 1477.12974424392, 1484.2920099326798, 1743.06061774624, 3013.6108426086, 3018.15678689044, 3068.4780553153996, 3106.953774063359, 3110.6619461361597, 3147.0088994349203, 3149.9479691518795, 3171.6476427630796, 3452.55541124832]

>  <E0_kJmol>  (4) 
-898743

>  <H298_kJmol>  (4) 
-898718

$$$$

     RDKit          3D

 12 11  0  0  0  0  0  0  0  0999 V2000
   -1.6799    0.1163   -0.1840 C   0  0  0  0  0  0  0  0  0  1  0  0
   -0.3995    0.5010    0.4722 C   0  0  0  0  0  3  0  0  0  2  0  0
    0.5137    1.3724   -0.0474 C   0  0  0  0  0  0  0  0  0  3  0  0
    0.3502    1.9710   -1.2320 N   0  0  0  0  0  0  0  0  0  4  0  0
    1.3174    2.8431   -1.5696 N   0  0  0  0  0  0  0  0  0  5  0  0
   -1.7177   -0.9628   -0.3601 H   0  0  0  0  0  0  0  0  0  6  0  0
   -2.5324    0.3598    0.4569 H   0  0  0  0  0  0  0  0  0  7  0  0
   -1.8040    0.6283   -1.1363 H   0  0  0  0  0  0  0  0  0  8  0  0
   -0.1711    0.0588    1.4348 H   0  0  0  0  0  0  0  0  0  9  0  0
    1.4168    1.5865    0.5319 H   0  0  0  0  0  0  0  0  0 10  0  0
    2.2323    2.7152   -1.1508 H   0  0  0  0  0  0  0  0  0 11  0  0
    1.3361    3.0383   -2.5559 H   0  0  0  0  0  0  0  0  0 12  0  0
  1  8  1  0
  1  7  1  0
  1  6  1  0
  1  2  1  0
  2  9  1  0
  2  3  1  0
  3 10  1  0
  3  4  1  0
  4  5  1  0
  5 12  1  0
  5 11  1  0
M  RAD  1   2   2
M  END
>  <rmg_smiles>  (5) 
C[CH][CH][N]N

>  <rmg_adjacency_list>  (5) 
multiplicity 2
1  N u0 p1 c0 {2,S} {11,S} {12,S}
2  N u0 p1 c0 {1,S} {5,S}
3  C u0 p0 c0 {4,S} {6,S} {7,S} {8,S}
4  C u1 p0 c0 {3,S} {5,S} {9,S}
5  C u0 p0 c0 {2,S} {4,S} {10,S}
6  H u0 p0 c0 {3,S}
7  H u0 p0 c0 {3,S}
8  H u0 p0 c0 {3,S}
9  H u0 p0 c0 {4,S}
10 H u0 p0 c0 {5,S}
11 H u0 p0 c0 {1,S}
12 H u0 p0 c0 {1,S}


>  <multiplicity>  (5) 
2

>  <reaction>  (5) 
rmg_rxn_10708

>  <type>  (5) 
r2

>  <role_mapnums>  (5) 
{}

>  <role_mapidx>  (5) 
{}

>  <ordered_mapped_smiles>  (5) 
[C:1]([C:2]([CH:3]([NH:4][N:5]([H:11])[H:12])[H:10])[H:9])([H:6])([H:7])[H:8]

>  <level_of_theory>  (5) 
wb97xd/def2tzvp

>  <lot_method>  (5) 
wb97xd

>  <lot_basis>  (5) 
def2tzvp

>  <spin_multiplicity>  (5) 
2.0

>  <optical_isomers>  (5) 
2.0

>  <modes>  (5) 
IdealGasTranslation(mass=(71.0609, 'amu')),         NonlinearRotor(             inertia = ([29.5336, 184.64, 210.701

>  <frequency_value>  (5) 
unknown

>  <frequency_units>  (5) 
unknown

>  <frequency_list>  (5) 
unknown

>  <arkane_path>  (5) 
/home/calvin/Dropbox/PersonalFolders/Calvin/ZEUS_Converged/rmg_rxn_10708/output/Species/rmg_rxn_10708_r1_Csbr-CH-sbrC=NN/arkane/output.py

>  <path_exists>  (5) 
True

>  <E0_value>  (5) 
-598275.2800468821

>  <E0_units>  (5) 
kJ/mol

>  <thermo_class>  (5) 
NASA

>  <Cp0_value>  (5) 
33.257888

>  <Cp0_units>  (5) 
J/(mol*K)

>  <CpInf_value>  (5) 
282.692048

>  <CpInf_units>  (5) 
J/(mol*K)

>  <Tmin_value>  (5) 
10.0

>  <Tmin_units>  (5) 
K

>  <Tmax_value>  (5) 
3000.0

>  <Tmax_units>  (5) 
K

>  <polynomials>  (5) 
[{"name": "polynomial1", "class": "NASAPolynomial", "Tmin_value": 10.0, "Tmin_units": "K", "Tmax_value": 366.7174735517215, "Tmax_units": "K", "coeffs": [3.7971464582164076, 0.01712840359899359, 7.532734518680577e-05, -1.7422019347854378e-07, 1.2273335988277786e-10, -71955893.35815866, 11.070679841005424]}, {"name": "polynomial2", "class": "NASAPolynomial", "Tmin_value": 366.7174735517215, "Tmin_units": "K", "Tmax_value": 3000.0, "Tmax_units": "K", "coeffs": [1.5634281556089815, 0.04149259727204526, -2.4329457873497574e-05, 6.946910059379756e-09, -7.712017446099328e-13, -71955729.52766144, 19.606319064288527]}]

>  <H298_value>  (5) 
-142986.70658008612

>  <H298_units>  (5) 
kcal/mol

>  <S298_value>  (5) 
79.20502345005374

>  <S298_units>  (5) 
cal/(mol*K)

>  <Cp_T_value_list>  (5) 
[23.857057095767413, 29.197256633611634, 33.87695443606276, 37.95756482540437, 44.56824599166819, 49.485964495331025, 56.83938487509146, 60.5439099973707, 62.508466614878564]

>  <Cp_T_units>  (5) 
cal/(mol*K)

>  <T_list>  (5) 
[300.0, 400.0, 500.0, 600.0, 800.0, 1000.0, 1500.0, 2000.0, 2400.0]

>  <T_units>  (5) 
K

>  <yaml_path>  (5) 
/home/calvin/Dropbox/PersonalFolders/Calvin/ZEUS_Converged/rmg_rxn_10708/output/Species/rmg_rxn_10708_r1_Csbr-CH-sbrC=NN/rmg_rxn_10708_r1_Csbr-CH-sbrC=NN.yml

>  <frequencies_cm1>  (5) 
[102.20820950288, 176.13817345799998, 210.80958233868, 366.32619888072, 419.83374849416, 450.85878816991993, 605.60630235612, 675.42980908988, 714.09093644148, 933.4361815329199, 945.3160661365198, 1018.3876569266398, 1029.10702101116, 1134.1306944952398, 1222.9688835800798, 1246.50890925704, 1330.9728286930401, 1386.72588250612, 1446.1390394947598, 1461.01292969788, 1471.12799907424, 1556.1275433651997, 1644.9863334059999, 3000.3781618969597, 3032.3783134881596, 3048.60499979932, 3116.86970086544, 3157.53598793048, 3449.68501138456, 3630.6575425078395]

>  <ZPE_kJmol>  (5) 
263.0849686240226

>  <E_elec_kJmol>  (5) 
-598538.3650155062

>  <E0_minus_Eelec_plus_ZPE_kJmol>  (5) 
0.0

>  <rxn>  (5) 
rmg_rxn_10708

>  <species_type>  (5) 
r0

>  <species_folder>  (5) 
rmg_rxn_10708_r1_Csbr-CH-sbrC=NN

>  <frequencies_cm1_list>  (5) 
[102.20820950288, 176.13817345799998, 210.80958233868, 366.32619888072, 419.83374849416, 450.85878816991993, 605.60630235612, 675.42980908988, 714.09093644148, 933.4361815329199, 945.3160661365198, 1018.3876569266398, 1029.10702101116, 1134.1306944952398, 1222.9688835800798, 1246.50890925704, 1330.9728286930401, 1386.72588250612, 1446.1390394947598, 1461.01292969788, 1471.12799907424, 1556.1275433651997, 1644.9863334059999, 3000.3781618969597, 3032.3783134881596, 3048.60499979932, 3116.86970086544, 3157.53598793048, 3449.68501138456, 3630.6575425078395]

>  <E0_kJmol>  (5) 
-598275

>  <H298_kJmol>  (5) 
-598256

$$$$
