
     RDKit          3D

  5  4  0  0  0  0  0  0  0  0999 V2000
    0.0330    1.0662   -0.1982 N   0  0  0  0  0  0  0  0  0  1  0  0
    0.4331   -0.1302    0.0077 N   0  0  0  0  0  0  0  0  0  2  0  0
   -0.3813   -1.0141    0.1713 O   0  0  0  0  0  0  0  0  0  3  0  0
   -0.9267    1.2907    0.0381 H   0  0  0  0  0  0  0  0  0  4  0  0
    0.7992    1.7295   -0.1837 H   0  0  0  0  0  0  0  0  0  5  0  0
  1  5  1  0
  1  2  1  0
  1  4  1  0
  2  3  1  0
M  END
>  <rmg_smiles>  (1) 
N[N][O]

>  <rmg_adjacency_list>  (1) 
1 O u0 p2 c0 {3,S}
2 N u0 p1 c0 {3,S} {4,S} {5,S}
3 N u0 p1 c0 {1,S} {2,S}
4 H u0 p0 c0 {2,S}
5 H u0 p0 c0 {2,S}


>  <multiplicity>  (1) 
1

>  <reaction>  (1) 
rmg_rxn_1534

>  <type>  (1) 
r1h

>  <role_mapnums>  (1) 
{"r1h_a": 1, "r1h_h": 4}

>  <role_mapidx>  (1) 
{"r1h_a": 0, "r1h_h": 3}

>  <ordered_mapped_smiles>  (1) 
[N:1]([NH:2][OH:3])([H:4])[H:5]

>  <mol_properties>  (1) 
{"0": {"label": "donator", "atom_type": "N3s"}, "3": {"label": "d_hydrogen", "atom_type": "H0"}}

>  <level_of_theory>  (1) 
wb97xd/def2tzvp

>  <lot_method>  (1) 
wb97xd

>  <lot_basis>  (1) 
def2tzvp

>  <spin_multiplicity>  (1) 
1.0

>  <optical_isomers>  (1) 
1.0

>  <modes>  (1) 
IdealGasTranslation(mass=(46.0167, 'amu')),         NonlinearRotor(             inertia = ([6.0362, 38.6456, 44.6819

>  <frequency_value>  (1) 
unknown

>  <frequency_units>  (1) 
unknown

>  <frequency_list>  (1) 
unknown

>  <arkane_path>  (1) 
/home/calvin/Dropbox/PersonalFolders/Calvin/ATLAS_Converged/rmg_rxn_1534/output/Species/rmg_rxn_1534_r1_NN=O/arkane/output.py

>  <path_exists>  (1) 
True

>  <E0_value>  (1) 
-487909.6470613369

>  <E0_units>  (1) 
kJ/mol

>  <thermo_class>  (1) 
NASA

>  <Cp0_value>  (1) 
33.257888

>  <Cp0_units>  (1) 
J/(mol*K)

>  <CpInf_value>  (1) 
108.088136

>  <CpInf_units>  (1) 
J/(mol*K)

>  <Tmin_value>  (1) 
10.0

>  <Tmin_units>  (1) 
K

>  <Tmax_value>  (1) 
3000.0

>  <Tmax_units>  (1) 
K

>  <polynomials>  (1) 
[{"name": "polynomial1", "class": "NASAPolynomial", "Tmin_value": 10.0, "Tmin_units": "K", "Tmax_value": 481.4646107695982, "Tmax_units": "K", "coeffs": [3.9820694822543343, 0.001134954272327173, 3.868951361526986e-05, -7.601194366880709e-08, 4.7698525257236474e-11, -58681975.53296038, 6.518269756327462]}, {"name": "polynomial2", "class": "NASAPolynomial", "Tmin_value": 481.4646107695982, "Tmin_units": "K", "Tmax_value": 3000.0, "Tmax_units": "K", "coeffs": [2.973959128870204, 0.012769891992549328, -7.714243836524547e-06, 2.3031772405552756e-09, -2.67946154965037e-13, -58681916.2388587, 10.25262654352406]}]

>  <H298_value>  (1) 
-116610.32003534344

>  <H298_units>  (1) 
kcal/mol

>  <S298_value>  (1) 
60.975688909589095

>  <S298_units>  (1) 
cal/(mol*K)

>  <Cp_T_value_list>  (1) 
[12.19876034795294, 13.876049389354465, 15.304460307888027, 16.536592563265224, 18.525201364502582, 20.000912240899858, 22.233848535099376, 23.43919450050303, 24.118660191431918]

>  <Cp_T_units>  (1) 
cal/(mol*K)

>  <T_list>  (1) 
[300.0, 400.0, 500.0, 600.0, 800.0, 1000.0, 1500.0, 2000.0, 2400.0]

>  <T_units>  (1) 
K

>  <yaml_path>  (1) 
/home/calvin/Dropbox/PersonalFolders/Calvin/ATLAS_Converged/rmg_rxn_1534/output/Species/rmg_rxn_1534_r1_NN=O/rmg_rxn_1534_r1_NN=O.yml

>  <frequencies_cm1>  (1) 
[215.45853140032, 638.6639696865999, 711.23427054836, 1118.2473574500798, 1228.3388661003198, 1578.376575802, 1626.90556105844, 3476.1435058225197, 3700.3368425498797]

>  <ZPE_kJmol>  (1) 
85.4953694011917

>  <E_elec_kJmol>  (1) 
-487995.1424307381

>  <E0_minus_Eelec_plus_ZPE_kJmol>  (1) 
0.0

>  <rxn>  (1) 
rmg_rxn_1534

>  <species_type>  (1) 
r0

>  <species_folder>  (1) 
rmg_rxn_1534_r1_NN=O

>  <frequencies_cm1_list>  (1) 
[215.45853140032, 638.6639696865999, 711.23427054836, 1118.2473574500798, 1228.3388661003198, 1578.376575802, 1626.90556105844, 3476.1435058225197, 3700.3368425498797]

>  <E0_kJmol>  (1) 
-487910

>  <H298_kJmol>  (1) 
-487898

$$$$

     RDKit          3D

 12 11  0  0  0  0  0  0  0  0999 V2000
    1.9848    0.9513    0.4294 H   0  0  0  0  0  0  0  0  0  1  0  0
    0.9748    1.1390    0.7873 C   0  0  0  0  0  0  0  0  0  2  0  0
   -0.1422    0.7622   -0.4870 S   0  0  0  0  0  0  0  0  0  3  0  0
   -0.0749   -1.0423   -0.5180 C   0  0  0  0  0  0  0  0  0  4  0  0
   -0.6831   -1.7284    0.6934 C   0  0  0  0  0  0  0  0  0  5  0  0
    0.9011    0.5170    1.6764 H   0  0  0  0  0  0  0  0  0  6  0  0
    0.9497    2.2020    1.0182 H   0  0  0  0  0  0  0  0  0  7  0  0
    0.9761   -1.3209   -0.6285 H   0  0  0  0  0  0  0  0  0  8  0  0
   -0.6048   -1.3176   -1.4307 H   0  0  0  0  0  0  0  0  0  9  0  0
   -1.7259   -1.4413    0.8328 H   0  0  0  0  0  0  0  0  0 10  0  0
   -0.6360   -2.8108    0.5612 H   0  0  0  0  0  0  0  0  0 11  0  0
   -0.1319   -1.4901    1.6032 H   0  0  0  0  0  0  0  0  0 12  0  0
  1  2  1  0
  2  7  1  0
  2  3  1  0
  2  6  1  0
  3  4  1  0
  4  8  1  0
  4  5  1  0
  4  9  1  0
  5 11  1  0
  5 12  1  0
  5 10  1  0
M  END
>  <rmg_smiles>  (2) 
CSCC

>  <rmg_adjacency_list>  (2) 
1  S u0 p2 c0 {2,S} {4,S}
2  C u0 p0 c0 {1,S} {3,S} {5,S} {6,S}
3  C u0 p0 c0 {2,S} {7,S} {8,S} {9,S}
4  C u0 p0 c0 {1,S} {10,S} {11,S} {12,S}
5  H u0 p0 c0 {2,S}
6  H u0 p0 c0 {2,S}
7  H u0 p0 c0 {3,S}
8  H u0 p0 c0 {3,S}
9  H u0 p0 c0 {3,S}
10 H u0 p0 c0 {4,S}
11 H u0 p0 c0 {4,S}
12 H u0 p0 c0 {4,S}


>  <multiplicity>  (2) 
1

>  <reaction>  (2) 
rmg_rxn_1534

>  <type>  (2) 
r2h

>  <role_mapnums>  (2) 
{"r2h_a": 2, "r2h_h": 1}

>  <role_mapidx>  (2) 
{"r2h_a": 1, "r2h_h": 0}

>  <ordered_mapped_smiles>  (2) 
[H:1][C:2]([S:3][C:4]([C:5]([H:10])([H:11])[H:12])([H:8])[H:9])([H:6])[H:7]

>  <mol_properties>  (2) 
{"0": {"label": "a_hydrogen", "atom_type": "H0"}, "1": {"label": "acceptor", "atom_type": "Cs"}}

>  <level_of_theory>  (2) 
wb97xd/def2tzvp

>  <lot_method>  (2) 
wb97xd

>  <lot_basis>  (2) 
def2tzvp

>  <spin_multiplicity>  (2) 
1.0

>  <optical_isomers>  (2) 
2.0

>  <modes>  (2) 
IdealGasTranslation(mass=(76.0347, 'amu')),         NonlinearRotor(             inertia = ([52.0964, 128.386, 157.856

>  <frequency_value>  (2) 
unknown

>  <frequency_units>  (2) 
unknown

>  <frequency_list>  (2) 
unknown

>  <arkane_path>  (2) 
/home/calvin/Dropbox/PersonalFolders/Calvin/ATLAS_Converged/rmg_rxn_1534/output/Species/rmg_rxn_1534_p2_CSCC/arkane/output.py

>  <path_exists>  (2) 
True

>  <E0_value>  (2) 
-1358024.3823847063

>  <E0_units>  (2) 
kJ/mol

>  <thermo_class>  (2) 
NASA

>  <Cp0_value>  (2) 
33.257888

>  <Cp0_units>  (2) 
J/(mol*K)

>  <CpInf_value>  (2) 
282.692048

>  <CpInf_units>  (2) 
J/(mol*K)

>  <Tmin_value>  (2) 
10.0

>  <Tmin_units>  (2) 
K

>  <Tmax_value>  (2) 
3000.0

>  <Tmax_units>  (2) 
K

>  <polynomials>  (2) 
[{"name": "polynomial1", "class": "NASAPolynomial", "Tmin_value": 10.0, "Tmin_units": "K", "Tmax_value": 1066.2668684701744, "Tmax_units": "K", "coeffs": [3.7938912313276787, 0.023010100947195324, 1.342493384076101e-05, -2.4396686231991315e-08, 8.539069834136729e-12, -163332607.1869712, 10.299389825114616]}, {"name": "polynomial2", "class": "NASAPolynomial", "Tmin_value": 1066.2668684701744, "Tmin_units": "K", "Tmax_value": 3000.0, "Tmax_units": "K", "coeffs": [3.879217425430389, 0.03360306179863777, -1.6829239210706833e-05, 4.118007320046649e-09, -3.971168214124496e-13, -163333245.74928793, 6.973208429713539]}]

>  <H298_value>  (2) 
-324571.19408104627

>  <H298_units>  (2) 
kcal/mol

>  <S298_value>  (2) 
77.83544863665438

>  <S298_units>  (2) 
cal/(mol*K)

>  <Cp_T_value_list>  (2) 
[22.486476604271342, 27.42967621467206, 32.072084622248504, 36.30607837304303, 43.32195482949402, 48.43082491651662, 56.2496539809613, 60.32875481300712, 62.28322095230064]

>  <Cp_T_units>  (2) 
cal/(mol*K)

>  <T_list>  (2) 
[300.0, 400.0, 500.0, 600.0, 800.0, 1000.0, 1500.0, 2000.0, 2400.0]

>  <T_units>  (2) 
K

>  <yaml_path>  (2) 
/home/calvin/Dropbox/PersonalFolders/Calvin/ATLAS_Converged/rmg_rxn_1534/output/Species/rmg_rxn_1534_p2_CSCC/rmg_rxn_1534_p2_CSCC.yml

>  <frequencies_cm1>  (2) 
[86.86049731268, 173.63172381619998, 227.43455379839997, 277.98929972423997, 356.053188842, 666.01517221616, 740.88591316012, 758.5958683004, 952.29292322164, 966.1504995974, 986.7445885720799, 1060.0221889218, 1079.9089784085197, 1272.4729807519598, 1296.60356716644, 1348.6278479507598, 1400.27444454248, 1452.28499135616, 1457.8541164506798, 1470.393231645, 1480.8997191846001, 1487.8971772256798, 3015.3687908505194, 3018.78854953988, 3025.31218559388, 3073.71756511456, 3086.881575973, 3099.52369594712, 3104.7151368490404, 3118.41477256244]

>  <ZPE_kJmol>  (2) 
272.4054138316235

>  <E_elec_kJmol>  (2) 
-1358296.787798538

>  <E0_minus_Eelec_plus_ZPE_kJmol>  (2) 
0.0

>  <rxn>  (2) 
rmg_rxn_1534

>  <species_type>  (2) 
p1

>  <species_folder>  (2) 
rmg_rxn_1534_p2_CSCC

>  <frequencies_cm1_list>  (2) 
[86.86049731268, 173.63172381619998, 227.43455379839997, 277.98929972423997, 356.053188842, 666.01517221616, 740.88591316012, 758.5958683004, 952.29292322164, 966.1504995974, 986.7445885720799, 1060.0221889218, 1079.9089784085197, 1272.4729807519598, 1296.60356716644, 1348.6278479507598, 1400.27444454248, 1452.28499135616, 1457.8541164506798, 1470.393231645, 1480.8997191846001, 1487.8971772256798, 3015.3687908505194, 3018.78854953988, 3025.31218559388, 3073.71756511456, 3086.881575973, 3099.52369594712, 3104.7151368490404, 3118.41477256244]

>  <E0_kJmol>  (2) 
-1.35802e+06

>  <H298_kJmol>  (2) 
-1.35801e+06

$$$$

     RDKit          3D

 16 14  0  0  0  0  0  0  0  0999 V2000
    2.1321    0.8145    0.0463 N   0  0  0  0  0  0  0  0  0  1  0  0
    2.5322   -0.3819    0.2522 N   0  0  0  0  0  0  0  0  0  2  0  0
    1.7179   -1.2658    0.4158 O   0  0  0  0  0  1  0  0  0  3  0  0
    0.8763    1.1082    0.3555 H   0  0  0  0  0  0  0  0  0  4  0  0
    2.8984    1.4778    0.0607 H   0  0  0  0  0  0  0  0  0  5  0  0
   -0.3495    1.3360    0.7900 C   0  0  0  0  0  0  0  0  0  6  0  0
   -1.4666    0.9592   -0.4843 S   0  0  0  0  0  0  0  0  0  7  0  0
   -1.3992   -0.8452   -0.5153 C   0  0  0  0  0  0  0  0  0  8  0  0
   -2.0074   -1.5314    0.6961 C   0  0  0  0  0  0  0  0  0  9  0  0
   -0.4232    0.7141    1.6791 H   0  0  0  0  0  0  0  0  0 10  0  0
   -0.3747    2.3991    1.0209 H   0  0  0  0  0  0  0  0  0 11  0  0
   -0.3482   -1.1238   -0.6258 H   0  0  0  0  0  0  0  0  0 12  0  0
   -1.9291   -1.1205   -1.4280 H   0  0  0  0  0  0  0  0  0 13  0  0
   -3.0502   -1.2442    0.8355 H   0  0  0  0  0  0  0  0  0 14  0  0
   -1.9603   -2.6138    0.5638 H   0  0  0  0  0  0  0  0  0 15  0  0
   -1.4562   -1.2931    1.6059 H   0  0  0  0  0  0  0  0  0 16  0  0
  1  5  1  0
  1  2  1  0
  2  3  1  0
  4  6  1  0
  6 11  1  0
  6  7  1  0
  6 10  1  0
  7  8  1  0
  8  9  1  0
  8 13  1  0
  8 12  1  0
  9 16  1  0
  9 14  1  0
  9 15  1  0
M  RAD  1   3   2
M  END
>  <rmg_smiles>  (3) 
CSCC.[NH][N][O]

>  <rmg_adjacency_list>  (3) 
multiplicity 2
1  S u0 p2 c0 {5,S} {7,S}
2  O u1 p2 c0 {4,S}
3  N u0 p1 c0 {4,S} {16,S}
4  N u0 p1 c0 {2,S} {3,S}
5  C u0 p0 c0 {1,S} {6,S} {8,S} {9,S}
6  C u0 p0 c0 {5,S} {10,S} {11,S} {12,S}
7  C u0 p0 c0 {1,S} {13,S} {14,S} {15,S}
8  H u0 p0 c0 {5,S}
9  H u0 p0 c0 {5,S}
10 H u0 p0 c0 {6,S}
11 H u0 p0 c0 {6,S}
12 H u0 p0 c0 {6,S}
13 H u0 p0 c0 {7,S}
14 H u0 p0 c0 {7,S}
15 H u0 p0 c0 {7,S}
16 H u0 p0 c0 {3,S}


>  <multiplicity>  (3) 
2

>  <reaction>  (3) 
rmg_rxn_1534

>  <type>  (3) 
ts

>  <role_mapnums>  (3) 
{"*2": 4, "*1": 1, "*3": 6, "*0": 7, "*4": 2}

>  <role_mapidx>  (3) 
{"*2": 3, "*1": 0, "*3": 5, "*0": 6, "*4": 1}

>  <ordered_mapped_smiles>  (3) 
[NH:1]([NH:2][O:3])[H:5].[H:4][C:6]([S:7][C:8]([C:9]([H:14])([H:15])[H:16])([H:12])[H:13])([H:10])[H:11]

>  <mol_properties>  (3) 
{"0": {"label": "*1", "atom_type": "N3s"}, "1": {"label": "*4", "atom_type": "N3s"}, "3": {"label": "*2", "atom_type": "H0"}, "5": {"label": "*3", "atom_type": "Cs"}, "6": {"label": "*0", "atom_type": "S2s"}}

>  <level_of_theory>  (3) 
wb97xd/def2tzvp

>  <lot_method>  (3) 
wb97xd

>  <lot_basis>  (3) 
def2tzvp

>  <spin_multiplicity>  (3) 
2.0

>  <optical_isomers>  (3) 
2.0

>  <modes>  (3) 
IdealGasTranslation(mass=(121.044, 'amu')),         NonlinearRotor(             inertia = ([180.764, 405.901, 523.318

>  <frequency_value>  (3) 
-1869.96

>  <frequency_units>  (3) 
cm^-1

>  <frequency_list>  (3) 
unknown

>  <arkane_path>  (3) 
/home/calvin/Dropbox/PersonalFolders/Calvin/ATLAS_Converged/rmg_rxn_1534/output/rxns/TS0/arkane/output.py

>  <path_exists>  (3) 
True

>  <E0_value>  (3) 
-1844200.0

>  <E0_units>  (3) 
kJ/mol

>  <thermo_class>  (3) 
unknown

>  <Cp0_value>  (3) 
unknown

>  <Cp0_units>  (3) 
unknown

>  <CpInf_value>  (3) 
unknown

>  <CpInf_units>  (3) 
unknown

>  <Tmin_value>  (3) 
unknown

>  <Tmin_units>  (3) 
unknown

>  <Tmax_value>  (3) 
unknown

>  <Tmax_units>  (3) 
unknown

>  <polynomials>  (3) 
unknown

>  <H298_value>  (3) 
unknown

>  <H298_units>  (3) 
unknown

>  <S298_value>  (3) 
unknown

>  <S298_units>  (3) 
unknown

>  <Cp_T_value_list>  (3) 
unknown

>  <Cp_T_units>  (3) 
unknown

>  <T_list>  (3) 
unknown

>  <T_units>  (3) 
unknown

>  <yaml_path>  (3) 
unknown

>  <frequencies_cm1>  (3) 
unknown

>  <ZPE_kJmol>  (3) 
unknown

>  <E_elec_kJmol>  (3) 
unknown

>  <E0_minus_Eelec_plus_ZPE_kJmol>  (3) 
unknown

>  <rxn>  (3) 
unknown

>  <species_type>  (3) 
unknown

>  <species_folder>  (3) 
unknown

>  <frequencies_cm1_list>  (3) 
[]

>  <ts_imag_freq_cm1>  (3) 
-1892.6671

>  <ts_freq_out_path>  (3) 
/home/calvin/Dropbox/PersonalFolders/Calvin/ATLAS_Converged/rmg_rxn_1534/output/rxns/TS0/geometry/freq.out

>  <E0_kJmol>  (3) 
-1.8442e+06

>  <H298_kJmol>  (3) 
unknown

$$$$

     RDKit          3D

  4  3  0  0  0  0  0  0  0  0999 V2000
   -0.8019    0.4189    0.0192 N   0  0  0  0  0  0  0  0  0  1  0  0
    0.3609    0.8266    0.0061 N   0  0  0  0  0  0  0  0  0  2  0  0
    0.8339    1.9183    0.0142 O   0  0  0  0  0  1  0  0  0  3  0  0
   -0.7779   -0.6002    0.0040 H   0  0  0  0  0  0  0  0  0  4  0  0
  1  2  1  0
  1  4  1  0
  2  3  1  0
M  RAD  1   3   2
M  END
>  <rmg_smiles>  (4) 
[NH][N][O]

>  <rmg_adjacency_list>  (4) 
multiplicity 2
1 O u1 p2 c0 {3,S}
2 N u0 p1 c0 {3,S} {4,S}
3 N u0 p1 c0 {1,S} {2,S}
4 H u0 p0 c0 {2,S}


>  <multiplicity>  (4) 
2

>  <reaction>  (4) 
rmg_rxn_1534

>  <type>  (4) 
r1

>  <role_mapnums>  (4) 
{}

>  <role_mapidx>  (4) 
{}

>  <ordered_mapped_smiles>  (4) 
[NH:1]([NH:2][O:3])[H:4]

>  <level_of_theory>  (4) 
wb97xd/def2tzvp

>  <lot_method>  (4) 
wb97xd

>  <lot_basis>  (4) 
def2tzvp

>  <spin_multiplicity>  (4) 
2.0

>  <optical_isomers>  (4) 
1.0

>  <modes>  (4) 
IdealGasTranslation(mass=(45.0089, 'amu')),         NonlinearRotor(             inertia = ([2.57086, 40.1656, 42.7365

>  <frequency_value>  (4) 
unknown

>  <frequency_units>  (4) 
unknown

>  <frequency_list>  (4) 
unknown

>  <arkane_path>  (4) 
/home/calvin/Dropbox/PersonalFolders/Calvin/ATLAS_Converged/rmg_rxn_1534/output/Species/rmg_rxn_1534_p1_sbr-NH-sbrN=O/arkane/output.py

>  <path_exists>  (4) 
True

>  <E0_value>  (4) 
-486262.5359899363

>  <E0_units>  (4) 
kJ/mol

>  <thermo_class>  (4) 
NASA

>  <Cp0_value>  (4) 
33.257888

>  <Cp0_units>  (4) 
J/(mol*K)

>  <CpInf_value>  (4) 
83.14472

>  <CpInf_units>  (4) 
J/(mol*K)

>  <Tmin_value>  (4) 
10.0

>  <Tmin_units>  (4) 
K

>  <Tmax_value>  (4) 
3000.0

>  <Tmax_units>  (4) 
K

>  <polynomials>  (4) 
[{"name": "polynomial1", "class": "NASAPolynomial", "Tmin_value": 10.0, "Tmin_units": "K", "Tmax_value": 676.9921071589606, "Tmax_units": "K", "coeffs": [4.052620261454503, -0.003954731767705262, 3.6687508557980155e-05, -5.192217441285821e-08, 2.3892499392073696e-11, -58483875.09093844, 6.697601255809246]}, {"name": "polynomial2", "class": "NASAPolynomial", "Tmin_value": 676.9921071589606, "Tmin_units": "K", "Tmax_value": 3000.0, "Tmax_units": "K", "coeffs": [2.568708180565944, 0.010096638421347922, -6.1528648012201994e-06, 1.7932353366274705e-09, -2.0078179070337678e-13, -58483795.25224596, 12.38349699742211]}]

>  <H298_value>  (4) 
-116217.0238123498

>  <H298_units>  (4) 
kcal/mol

>  <S298_value>  (4) 
59.269100903572784

>  <S298_units>  (4) 
cal/(mol*K)

>  <Cp_T_value_list>  (4) 
[9.855962067339554, 11.186696308389417, 12.420320683007862, 13.450531461225838, 14.991648229270968, 16.10618021062707, 17.69693128223604, 18.449026156308282, 18.8553435745084]

>  <Cp_T_units>  (4) 
cal/(mol*K)

>  <T_list>  (4) 
[300.0, 400.0, 500.0, 600.0, 800.0, 1000.0, 1500.0, 2000.0, 2400.0]

>  <T_units>  (4) 
K

>  <yaml_path>  (4) 
/home/calvin/Dropbox/PersonalFolders/Calvin/ATLAS_Converged/rmg_rxn_1534/output/Species/rmg_rxn_1534_p1_sbr-NH-sbrN=O/rmg_rxn_1534_p1_sbr-NH-sbrN=O.yml

>  <frequencies_cm1>  (4) 
[669.5654036266, 780.2955419115999, 1274.34766774432, 1377.4211173975198, 1744.5026846634398, 3450.4884486669994]

>  <ZPE_kJmol>  (4) 
55.6061572725318

>  <E_elec_kJmol>  (4) 
-486318.14214720886

>  <E0_minus_Eelec_plus_ZPE_kJmol>  (4) 
0.0

>  <rxn>  (4) 
rmg_rxn_1534

>  <species_type>  (4) 
p0

>  <species_folder>  (4) 
rmg_rxn_1534_p1_sbr-NH-sbrN=O

>  <frequencies_cm1_list>  (4) 
[669.5654036266, 780.2955419115999, 1274.34766774432, 1377.4211173975198, 1744.5026846634398, 3450.4884486669994]

>  <E0_kJmol>  (4) 
-486263

>  <H298_kJmol>  (4) 
-486252

$$$$

     RDKit          3D

 11 10  0  0  0  0  0  0  0  0999 V2000
    2.2312    0.7411   -0.3115 C   0  0  0  0  0  3  0  0  0  1  0  0
    0.6426    1.1039   -0.7896 S   0  0  0  0  0  0  0  0  0  2  0  0
    0.9085    2.4168   -2.0061 C   0  0  0  0  0  0  0  0  0  3  0  0
    1.5570    1.9429   -3.2967 C   0  0  0  0  0  0  0  0  0  4  0  0
    2.3707   -0.0938    0.3575 H   0  0  0  0  0  0  0  0  0  5  0  0
    3.0432    1.4267   -0.5066 H   0  0  0  0  0  0  0  0  0  6  0  0
    1.4997    3.2005   -1.5289 H   0  0  0  0  0  0  0  0  0  7  0  0
   -0.0844    2.8269   -2.1951 H   0  0  0  0  0  0  0  0  0  8  0  0
    0.9451    1.1830   -3.7838 H   0  0  0  0  0  0  0  0  0  9  0  0
    1.6803    2.7812   -3.9857 H   0  0  0  0  0  0  0  0  0 10  0  0
    2.5399    1.5119   -3.1043 H   0  0  0  0  0  0  0  0  0 11  0  0
  1  5  1  0
  1  2  1  0
  1  6  1  0
  2  3  1  0
  3  4  1  0
  3  7  1  0
  3  8  1  0
  4  9  1  0
  4 10  1  0
  4 11  1  0
M  RAD  1   1   2
M  END
>  <rmg_smiles>  (5) 
[CH2]SCC

>  <rmg_adjacency_list>  (5) 
multiplicity 2
1  S u0 p2 c0 {2,S} {4,S}
2  C u0 p0 c0 {1,S} {3,S} {5,S} {6,S}
3  C u0 p0 c0 {2,S} {7,S} {8,S} {9,S}
4  C u1 p0 c0 {1,S} {10,S} {11,S}
5  H u0 p0 c0 {2,S}
6  H u0 p0 c0 {2,S}
7  H u0 p0 c0 {3,S}
8  H u0 p0 c0 {3,S}
9  H u0 p0 c0 {3,S}
10 H u0 p0 c0 {4,S}
11 H u0 p0 c0 {4,S}


>  <multiplicity>  (5) 
2

>  <reaction>  (5) 
rmg_rxn_1534

>  <type>  (5) 
r2

>  <role_mapnums>  (5) 
{}

>  <role_mapidx>  (5) 
{}

>  <ordered_mapped_smiles>  (5) 
[C:1]([S:2][C:3]([C:4]([H:9])([H:10])[H:11])([H:7])[H:8])([H:5])[H:6]

>  <level_of_theory>  (5) 
wb97xd/def2tzvp

>  <lot_method>  (5) 
wb97xd

>  <lot_basis>  (5) 
def2tzvp

>  <spin_multiplicity>  (5) 
2.0

>  <optical_isomers>  (5) 
2.0

>  <modes>  (5) 
IdealGasTranslation(mass=(75.0268, 'amu')),         NonlinearRotor(             inertia = ([46.1764, 125.175, 150.124

>  <frequency_value>  (5) 
unknown

>  <frequency_units>  (5) 
unknown

>  <frequency_list>  (5) 
unknown

>  <arkane_path>  (5) 
/home/calvin/Dropbox/PersonalFolders/Calvin/ATLAS_Converged/rmg_rxn_1534/output/Species/rmg_rxn_1534_r2_sbr-CH2-sbrSCC/arkane/output.py

>  <path_exists>  (5) 
True

>  <E0_value>  (5) 
-1356326.828812391

>  <E0_units>  (5) 
kJ/mol

>  <thermo_class>  (5) 
NASA

>  <Cp0_value>  (5) 
33.257888

>  <Cp0_units>  (5) 
J/(mol*K)

>  <CpInf_value>  (5) 
257.748632

>  <CpInf_units>  (5) 
J/(mol*K)

>  <Tmin_value>  (5) 
10.0

>  <Tmin_units>  (5) 
K

>  <Tmax_value>  (5) 
3000.0

>  <Tmax_units>  (5) 
K

>  <polynomials>  (5) 
[{"name": "polynomial1", "class": "NASAPolynomial", "Tmin_value": 10.0, "Tmin_units": "K", "Tmax_value": 163.4983384736605, "Tmax_units": "K", "coeffs": [3.8835361135606306, 0.01179835617528283, 0.0001860962387176214, -8.310788830243038e-07, 1.2781022117046402e-09, -163128450.95392784, 10.667754233192833]}, {"name": "polynomial2", "class": "NASAPolynomial", "Tmin_value": 163.4983384736605, "Tmin_units": "K", "Tmax_value": 3000.0, "Tmax_units": "K", "coeffs": [2.9698107402056713, 0.03415257681811664, -1.8989116425627386e-05, 5.154010868808518e-09, -5.461082436872671e-13, -163128421.07521912, 13.421243662452813]}]

>  <H298_value>  (5) 
-324165.39986954443

>  <H298_units>  (5) 
kcal/mol

>  <S298_value>  (5) 
78.93032022623957

>  <S298_units>  (5) 
cal/(mol*K)

>  <Cp_T_value_list>  (5) 
[23.133663311616047, 27.638980468817827, 31.614348268428742, 35.109498731473295, 40.84505297373627, 45.19140833090281, 51.87260315815638, 55.269883733256364, 57.01130488605395]

>  <Cp_T_units>  (5) 
cal/(mol*K)

>  <T_list>  (5) 
[300.0, 400.0, 500.0, 600.0, 800.0, 1000.0, 1500.0, 2000.0, 2400.0]

>  <T_units>  (5) 
K

>  <yaml_path>  (5) 
/home/calvin/Dropbox/PersonalFolders/Calvin/ATLAS_Converged/rmg_rxn_1534/output/Species/rmg_rxn_1534_r2_sbr-CH2-sbrSCC/rmg_rxn_1534_r2_sbr-CH2-sbrSCC.yml

>  <frequencies_cm1>  (5) 
[110.60653254923999, 205.67307731931996, 220.086879506, 285.94813571012, 367.82320168047994, 369.88329727648, 670.6023184099199, 763.8628460408399, 854.34224461716, 913.1854418242399, 983.7231150312799, 1058.73119568164, 1076.4068158953198, 1269.6918516973599, 1295.3263078969198, 1396.0581155559998, 1402.33454013848, 1458.69188865972, 1476.6353213008802, 1485.0748462591598, 3018.4589342445192, 3035.15257555744, 3083.1459359589203, 3092.3408293024, 3109.00013568872, 3136.8045592493995, 3260.19741846448]

>  <ZPE_kJmol>  (5) 
235.6631361203891

>  <E_elec_kJmol>  (5) 
-1356562.4919485117

>  <E0_minus_Eelec_plus_ZPE_kJmol>  (5) 
0.0

>  <rxn>  (5) 
rmg_rxn_1534

>  <species_type>  (5) 
r1

>  <species_folder>  (5) 
rmg_rxn_1534_r2_sbr-CH2-sbrSCC

>  <frequencies_cm1_list>  (5) 
[110.60653254923999, 205.67307731931996, 220.086879506, 285.94813571012, 367.82320168047994, 369.88329727648, 670.6023184099199, 763.8628460408399, 854.34224461716, 913.1854418242399, 983.7231150312799, 1058.73119568164, 1076.4068158953198, 1269.6918516973599, 1295.3263078969198, 1396.0581155559998, 1402.33454013848, 1458.69188865972, 1476.6353213008802, 1485.0748462591598, 3018.4589342445192, 3035.15257555744, 3083.1459359589203, 3092.3408293024, 3109.00013568872, 3136.8045592493995, 3260.19741846448]

>  <E0_kJmol>  (5) 
-1.35633e+06

>  <H298_kJmol>  (5) 
-1.35631e+06

$$$$
