
     RDKit          3D

  9  8  0  0  0  0  0  0  0  0999 V2000
    0.2685   -0.3778   -1.1889 C   0  0  0  0  0  0  0  0  0  1  0  0
    0.2037   -0.3589    0.3320 C   0  0  0  0  0  0  0  0  0  2  0  0
   -0.5017    0.7813    0.8222 N   0  0  0  0  0  2  0  0  0  3  0  0
    0.7827    0.5095   -1.5599 H   0  0  0  0  0  0  0  0  0  4  0  0
    0.8064   -1.2603   -1.5403 H   0  0  0  0  0  0  0  0  0  5  0  0
   -0.7346   -0.3913   -1.6170 H   0  0  0  0  0  0  0  0  0  6  0  0
    1.2123   -0.3739    0.7713 H   0  0  0  0  0  0  0  0  0  7  0  0
   -0.2849   -1.2738    0.7047 H   0  0  0  0  0  0  0  0  0  8  0  0
   -0.4428    0.7161    1.8585 H   0  0  0  0  0  0  0  0  0  9  0  0
  1  5  1  0
  1  4  1  0
  1  6  1  0
  1  2  1  0
  2  3  1  0
  2  8  1  0
  2  7  1  0
  3  9  1  0
M  RAD  1   3   2
M  END
>  <rmg_smiles>  (1) 
CC[NH]

>  <rmg_adjacency_list>  (1) 
multiplicity 2
1 N u1 p1 c0 {2,S} {9,S}
2 C u0 p0 c0 {1,S} {3,S} {4,S} {5,S}
3 C u0 p0 c0 {2,S} {6,S} {7,S} {8,S}
4 H u0 p0 c0 {2,S}
5 H u0 p0 c0 {2,S}
6 H u0 p0 c0 {3,S}
7 H u0 p0 c0 {3,S}
8 H u0 p0 c0 {3,S}
9 H u0 p0 c0 {1,S}


>  <multiplicity>  (1) 
2

>  <reaction>  (1) 
rmg_rxn_10734

>  <type>  (1) 
r1h

>  <role_mapnums>  (1) 
{"r1h_a": 3, "r1h_h": 9}

>  <role_mapidx>  (1) 
{"r1h_a": 2, "r1h_h": 8}

>  <ordered_mapped_smiles>  (1) 
[C:1]([C:2]([N:3][H:9])([H:7])[H:8])([H:4])([H:5])[H:6]

>  <mol_properties>  (1) 
{"2": {"label": "donator", "atom_type": "N3s"}, "8": {"label": "d_hydrogen", "atom_type": "H0"}}

>  <level_of_theory>  (1) 
wb97xd/def2tzvp

>  <lot_method>  (1) 
wb97xd

>  <lot_basis>  (1) 
def2tzvp

>  <spin_multiplicity>  (1) 
2.0

>  <optical_isomers>  (1) 
1.0

>  <modes>  (1) 
IdealGasTranslation(mass=(44.05, 'amu')),         NonlinearRotor(             inertia = ([13.5046, 54.0855, 61.3855

>  <frequency_value>  (1) 
unknown

>  <frequency_units>  (1) 
unknown

>  <frequency_list>  (1) 
unknown

>  <arkane_path>  (1) 
/home/calvin/Dropbox/PersonalFolders/Calvin/ZEUS_Converged/rmg_rxn_10734/output/Species/rmg_rxn_10734_r1_CCsbr-NH-sbr/arkane/output.py

>  <path_exists>  (1) 
True

>  <E0_value>  (1) 
-352969.9510555976

>  <E0_units>  (1) 
kJ/mol

>  <thermo_class>  (1) 
NASA

>  <Cp0_value>  (1) 
33.257888

>  <Cp0_units>  (1) 
J/(mol*K)

>  <CpInf_value>  (1) 
207.8618

>  <CpInf_units>  (1) 
J/(mol*K)

>  <Tmin_value>  (1) 
10.0

>  <Tmin_units>  (1) 
K

>  <Tmax_value>  (1) 
3000.0

>  <Tmax_units>  (1) 
K

>  <polynomials>  (1) 
[{"name": "polynomial1", "class": "NASAPolynomial", "Tmin_value": 10.0, "Tmin_units": "K", "Tmax_value": 495.2185851168102, "Tmax_units": "K", "coeffs": [3.9662723365441117, 0.0018999950913285123, 6.761721600704346e-05, -1.0860412706615071e-07, 5.658540604301622e-11, -42452477.25524081, 7.84784513745383]}, {"name": "polynomial2", "class": "NASAPolynomial", "Tmin_value": 495.2185851168102, "Tmin_units": "K", "Tmax_value": 3000.0, "Tmax_units": "K", "coeffs": [0.5323114422574083, 0.02963253561978704, -1.637039428089369e-05, 4.44267035640174e-09, -4.746980152870886e-13, -42452137.08915711, 22.002028242434836]}]

>  <H298_value>  (1) 
-84358.50970291645

>  <H298_units>  (1) 
kcal/mol

>  <S298_value>  (1) 
65.90798772684771

>  <S298_units>  (1) 
cal/(mol*K)

>  <Cp_T_value_list>  (1) 
[16.191461805813656, 19.95740995798077, 23.412563226119424, 26.462807873831874, 31.480328831371764, 35.297606675710405, 41.211843958313516, 44.23919145192806, 45.75157451722953]

>  <Cp_T_units>  (1) 
cal/(mol*K)

>  <T_list>  (1) 
[300.0, 400.0, 500.0, 600.0, 800.0, 1000.0, 1500.0, 2000.0, 2400.0]

>  <T_units>  (1) 
K

>  <yaml_path>  (1) 
/home/calvin/Dropbox/PersonalFolders/Calvin/ZEUS_Converged/rmg_rxn_10734/output/Species/rmg_rxn_10734_r1_CCsbr-NH-sbr/rmg_rxn_10734_r1_CCsbr-NH-sbr.yml

>  <frequencies_cm1>  (1) 
[215.54780220947998, 313.0658607388, 421.33075129391995, 726.5957167091999, 902.32873803332, 1018.4151248679198, 1029.1207549817998, 1087.9845531448398, 1242.70459938976, 1258.69094121472, 1381.9189927821199, 1408.32255133752, 1429.1295168571198, 1475.1657864423998, 1485.8096136883998, 2923.26191675336, 2945.2843386746, 3021.78942212472, 3097.67647689604, 3102.6619082383595, 3400.85387877404]

>  <ZPE_kJmol>  (1) 
202.6932728728076

>  <E_elec_kJmol>  (1) 
-353172.6443284704

>  <E0_minus_Eelec_plus_ZPE_kJmol>  (1) 
0.0

>  <rxn>  (1) 
rmg_rxn_10734

>  <species_type>  (1) 
r0

>  <species_folder>  (1) 
rmg_rxn_10734_r1_CCsbr-NH-sbr

>  <frequencies_cm1_list>  (1) 
[215.54780220947998, 313.0658607388, 421.33075129391995, 726.5957167091999, 902.32873803332, 1018.4151248679198, 1029.1207549817998, 1087.9845531448398, 1242.70459938976, 1258.69094121472, 1381.9189927821199, 1408.32255133752, 1429.1295168571198, 1475.1657864423998, 1485.8096136883998, 2923.26191675336, 2945.2843386746, 3021.78942212472, 3097.67647689604, 3102.6619082383595, 3400.85387877404]

>  <E0_kJmol>  (1) 
-352970

>  <H298_kJmol>  (1) 
-352956

$$$$

     RDKit          3D

 15 14  0  0  0  0  0  0  0  0999 V2000
   -1.6223    0.1597   -1.0684 H   0  0  0  0  0  0  0  0  0  1  0  0
   -1.5432   -1.4443    0.2955 C   0  0  0  0  0  0  0  0  0  2  0  0
   -1.4700    0.0270    0.0023 C   0  0  0  0  0  0  0  0  0  3  0  0
   -0.1679    0.7168    0.2736 C   0  0  0  0  0  0  0  0  0  4  0  0
    0.8797    0.0389   -0.3770 O   0  0  0  0  0  0  0  0  0  5  0  0
    2.1294    0.6338   -0.1607 C   0  0  0  0  0  0  0  0  0  6  0  0
   -0.7434   -1.9861   -0.2102 H   0  0  0  0  0  0  0  0  0  7  0  0
   -2.5007   -1.8614   -0.0197 H   0  0  0  0  0  0  0  0  0  8  0  0
   -1.4375   -1.6352    1.3704 H   0  0  0  0  0  0  0  0  0  9  0  0
   -2.3181    0.6040    0.3696 H   0  0  0  0  0  0  0  0  0 10  0  0
   -0.2147    1.7605   -0.0689 H   0  0  0  0  0  0  0  0  0 11  0  0
    0.0293    0.7412    1.3610 H   0  0  0  0  0  0  0  0  0 12  0  0
    2.3882    0.6465    0.9064 H   0  0  0  0  0  0  0  0  0 13  0  0
    2.8718    0.0449   -0.6974 H   0  0  0  0  0  0  0  0  0 14  0  0
    2.1532    1.6653   -0.5354 H   0  0  0  0  0  0  0  0  0 15  0  0
  1  3  1  0
  2  9  1  0
  2  7  1  0
  2  8  1  0
  2  3  1  0
  3  4  1  0
  3 10  1  0
  4 11  1  0
  4 12  1  0
  4  5  1  0
  5  6  1  0
  6 15  1  0
  6 14  1  0
  6 13  1  0
M  END
>  <rmg_smiles>  (2) 
CCCOC

>  <rmg_adjacency_list>  (2) 
1  O u0 p2 c0 {3,S} {5,S}
2  C u0 p0 c0 {3,S} {4,S} {6,S} {7,S}
3  C u0 p0 c0 {1,S} {2,S} {8,S} {9,S}
4  C u0 p0 c0 {2,S} {10,S} {11,S} {12,S}
5  C u0 p0 c0 {1,S} {13,S} {14,S} {15,S}
6  H u0 p0 c0 {2,S}
7  H u0 p0 c0 {2,S}
8  H u0 p0 c0 {3,S}
9  H u0 p0 c0 {3,S}
10 H u0 p0 c0 {4,S}
11 H u0 p0 c0 {4,S}
12 H u0 p0 c0 {4,S}
13 H u0 p0 c0 {5,S}
14 H u0 p0 c0 {5,S}
15 H u0 p0 c0 {5,S}


>  <multiplicity>  (2) 
1

>  <reaction>  (2) 
rmg_rxn_10734

>  <type>  (2) 
r2h

>  <role_mapnums>  (2) 
{"r2h_a": 3, "r2h_h": 1}

>  <role_mapidx>  (2) 
{"r2h_a": 2, "r2h_h": 0}

>  <ordered_mapped_smiles>  (2) 
[H:1][C:3]([C:2]([H:7])([H:8])[H:9])([C:4]([O:5][C:6]([H:13])([H:14])[H:15])([H:11])[H:12])[H:10]

>  <mol_properties>  (2) 
{"0": {"label": "a_hydrogen", "atom_type": "H0"}, "2": {"label": "acceptor", "atom_type": "Cs"}}

>  <level_of_theory>  (2) 
wb97xd/def2tzvp

>  <lot_method>  (2) 
wb97xd

>  <lot_basis>  (2) 
def2tzvp

>  <spin_multiplicity>  (2) 
1.0

>  <optical_isomers>  (2) 
2.0

>  <modes>  (2) 
IdealGasTranslation(mass=(74.0732, 'amu')),         NonlinearRotor(             inertia = ([40.784, 192.218, 211.735

>  <frequency_value>  (2) 
unknown

>  <frequency_units>  (2) 
unknown

>  <frequency_list>  (2) 
unknown

>  <arkane_path>  (2) 
/home/calvin/Dropbox/PersonalFolders/Calvin/ZEUS_Converged/rmg_rxn_10734/output/Species/rmg_rxn_10734_p2_CCCOC/arkane/output.py

>  <path_exists>  (2) 
True

>  <E0_value>  (2) 
-613163.1274359095

>  <E0_units>  (2) 
kJ/mol

>  <thermo_class>  (2) 
NASA

>  <Cp0_value>  (2) 
33.257888

>  <Cp0_units>  (2) 
J/(mol*K)

>  <CpInf_value>  (2) 
357.522296

>  <CpInf_units>  (2) 
J/(mol*K)

>  <Tmin_value>  (2) 
10.0

>  <Tmin_units>  (2) 
K

>  <Tmax_value>  (2) 
3000.0

>  <Tmax_units>  (2) 
K

>  <polynomials>  (2) 
[{"name": "polynomial1", "class": "NASAPolynomial", "Tmin_value": 10.0, "Tmin_units": "K", "Tmax_value": 456.12560324554056, "Tmax_units": "K", "coeffs": [3.62223196701835, 0.03879795217402279, -8.359648491421e-05, 2.4522721819815076e-07, -2.187140949836333e-10, -73746489.62884024, 10.515609438787227]}, {"name": "polynomial2", "class": "NASAPolynomial", "Tmin_value": 456.12560324554056, "Tmin_units": "K", "Tmax_value": 3000.0, "Tmax_units": "K", "coeffs": [-2.20935170520275, 0.056485006605310945, -3.174876766111153e-05, 8.65420390010314e-09, -9.198389746305381e-13, -73745609.6450763, 37.88661603232218]}]

>  <H298_value>  (2) 
-146544.64412500645

>  <H298_units>  (2) 
kcal/mol

>  <S298_value>  (2) 
80.94634663649457

>  <S298_units>  (2) 
cal/(mol*K)

>  <Cp_T_value_list>  (2) 
[25.013931424396034, 31.51994949570118, 37.99587562842776, 43.72290058989096, 53.08549647523409, 60.13535702830284, 70.81347633831932, 76.07383878332065, 78.6922399009724]

>  <Cp_T_units>  (2) 
cal/(mol*K)

>  <T_list>  (2) 
[300.0, 400.0, 500.0, 600.0, 800.0, 1000.0, 1500.0, 2000.0, 2400.0]

>  <T_units>  (2) 
K

>  <yaml_path>  (2) 
/home/calvin/Dropbox/PersonalFolders/Calvin/ZEUS_Converged/rmg_rxn_10734/output/Species/rmg_rxn_10734_p2_CCCOC/rmg_rxn_10734_p2_CCCOC.yml

>  <frequencies_cm1>  (2) 
[91.63991909539999, 126.96369158147998, 202.90568223536002, 229.57705321824, 300.01172164547995, 354.24717170284, 509.22129640459997, 764.38473692516, 888.9449836446399, 924.72884414716, 957.6835066978399, 1072.9458552940398, 1116.4482072962398, 1154.8689901616399, 1177.001283848, 1188.20133690492, 1229.14230338276, 1271.07211574668, 1307.65941353164, 1369.5858871474, 1403.3027850685999, 1415.972372984, 1467.6807724436, 1468.93743075716, 1475.31686011944, 1481.9915698504797, 1490.39675988216, 1494.07059702836, 1510.75737135596, 2928.3984217727198, 2950.9908034755194, 2962.18398954712, 2998.10518975604, 3014.75762915704, 3020.7181724148, 3057.78615917216, 3085.0343569219203, 3099.33828734348, 3104.91427942332]

>  <ZPE_kJmol>  (2) 
356.89332738911673

>  <E_elec_kJmol>  (2) 
-613520.0207632986

>  <E0_minus_Eelec_plus_ZPE_kJmol>  (2) 
0.0

>  <rxn>  (2) 
rmg_rxn_10734

>  <species_type>  (2) 
p1

>  <species_folder>  (2) 
rmg_rxn_10734_p2_CCCOC

>  <frequencies_cm1_list>  (2) 
[91.63991909539999, 126.96369158147998, 202.90568223536002, 229.57705321824, 300.01172164547995, 354.24717170284, 509.22129640459997, 764.38473692516, 888.9449836446399, 924.72884414716, 957.6835066978399, 1072.9458552940398, 1116.4482072962398, 1154.8689901616399, 1177.001283848, 1188.20133690492, 1229.14230338276, 1271.07211574668, 1307.65941353164, 1369.5858871474, 1403.3027850685999, 1415.972372984, 1467.6807724436, 1468.93743075716, 1475.31686011944, 1481.9915698504797, 1490.39675988216, 1494.07059702836, 1510.75737135596, 2928.3984217727198, 2950.9908034755194, 2962.18398954712, 2998.10518975604, 3014.75762915704, 3020.7181724148, 3057.78615917216, 3085.0343569219203, 3099.33828734348, 3104.91427942332]

>  <E0_kJmol>  (2) 
-613163

>  <H298_kJmol>  (2) 
-613143

$$$$

     RDKit          3D

 23 21  0  0  0  0  0  0  0  0999 V2000
   -0.5901   -0.7208   -3.3118 C   0  0  0  0  0  0  0  0  0  1  0  0
   -0.6548   -0.7019   -1.7909 C   0  0  0  0  0  0  0  0  0  2  0  0
   -1.3602    0.4384   -1.3006 N   0  0  0  0  0  2  0  0  0  3  0  0
   -0.0758    0.1666   -3.6827 H   0  0  0  0  0  0  0  0  0  4  0  0
   -0.0521   -1.6033   -3.6631 H   0  0  0  0  0  0  0  0  0  5  0  0
   -1.5931   -0.7342   -3.7398 H   0  0  0  0  0  0  0  0  0  6  0  0
    0.3538   -0.7168   -1.3515 H   0  0  0  0  0  0  0  0  0  7  0  0
   -1.1434   -1.6168   -1.4181 H   0  0  0  0  0  0  0  0  0  8  0  0
   -1.2922    0.3630   -0.1024 H   0  0  0  0  0  0  0  0  0  9  0  0
   -1.1683   -1.2800    1.5761 C   0  0  0  0  0  0  0  0  0 10  0  0
   -1.0951    0.1912    1.2829 C   0  0  0  0  0  3  0  0  0 11  0  0
    0.2069    0.8810    1.5542 C   0  0  0  0  0  0  0  0  0 12  0  0
    1.2546    0.2031    0.9036 O   0  0  0  0  0  0  0  0  0 13  0  0
    2.5042    0.7980    1.1199 C   0  0  0  0  0  0  0  0  0 14  0  0
   -0.3686   -1.8218    1.0704 H   0  0  0  0  0  0  0  0  0 15  0  0
   -2.1259   -1.6971    1.2609 H   0  0  0  0  0  0  0  0  0 16  0  0
   -1.0626   -1.4709    2.6509 H   0  0  0  0  0  0  0  0  0 17  0  0
   -1.9433    0.7682    1.6502 H   0  0  0  0  0  0  0  0  0 18  0  0
    0.1602    1.9247    1.2117 H   0  0  0  0  0  0  0  0  0 19  0  0
    0.4041    0.9055    2.6416 H   0  0  0  0  0  0  0  0  0 20  0  0
    2.7630    0.8107    2.1869 H   0  0  0  0  0  0  0  0  0 21  0  0
    3.2466    0.2091    0.5832 H   0  0  0  0  0  0  0  0  0 22  0  0
    2.5280    1.8296    0.7451 H   0  0  0  0  0  0  0  0  0 23  0  0
  1  4  1  0
  1  5  1  0
  1  6  1  0
  1  2  1  0
  2  8  1  0
  2  3  1  0
  2  7  1  0
  3  9  1  0
 10 16  1  0
 10 15  1  0
 10 11  1  0
 10 17  1  0
 11 12  1  0
 11 18  1  0
 12 19  1  0
 12 13  1  0
 12 20  1  0
 13 14  1  0
 14 23  1  0
 14 22  1  0
 14 21  1  0
M  RAD  2   3   2  11   2
M  END
>  <rmg_smiles>  (3) 
C[CH]COC.CC[NH]

>  <rmg_adjacency_list>  (3) 
multiplicity 3
1  O u0 p2 c0 {4,S} {7,S}
2  N u1 p1 c0 {3,S} {23,S}
3  C u0 p0 c0 {2,S} {5,S} {9,S} {10,S}
4  C u0 p0 c0 {1,S} {8,S} {14,S} {15,S}
5  C u0 p0 c0 {3,S} {11,S} {12,S} {13,S}
6  C u0 p0 c0 {8,S} {16,S} {17,S} {18,S}
7  C u0 p0 c0 {1,S} {19,S} {20,S} {21,S}
8  C u1 p0 c0 {4,S} {6,S} {22,S}
9  H u0 p0 c0 {3,S}
10 H u0 p0 c0 {3,S}
11 H u0 p0 c0 {5,S}
12 H u0 p0 c0 {5,S}
13 H u0 p0 c0 {5,S}
14 H u0 p0 c0 {4,S}
15 H u0 p0 c0 {4,S}
16 H u0 p0 c0 {6,S}
17 H u0 p0 c0 {6,S}
18 H u0 p0 c0 {6,S}
19 H u0 p0 c0 {7,S}
20 H u0 p0 c0 {7,S}
21 H u0 p0 c0 {7,S}
22 H u0 p0 c0 {8,S}
23 H u0 p0 c0 {2,S}


>  <multiplicity>  (3) 
3

>  <reaction>  (3) 
rmg_rxn_10734

>  <type>  (3) 
ts

>  <role_mapnums>  (3) 
{"*2": 9, "*1": 3, "*3": 11, "*0": 2, "*4": 12}

>  <role_mapidx>  (3) 
{"*2": 8, "*1": 2, "*3": 10, "*0": 1, "*4": 11}

>  <ordered_mapped_smiles>  (3) 
[C:1]([C:2]([N:3][H:9])([H:7])[H:8])([H:4])([H:5])[H:6].[C:10]([C:11]([C:12]([O:13][C:14]([H:21])([H:22])[H:23])([H:19])[H:20])[H:18])([H:15])([H:16])[H:17]

>  <mol_properties>  (3) 
{"1": {"label": "*0", "atom_type": "Cs"}, "2": {"label": "*1", "atom_type": "N3s"}, "8": {"label": "*2", "atom_type": "H0"}, "10": {"label": "*3", "atom_type": "Cs"}, "11": {"label": "*4", "atom_type": "Cs"}}

>  <level_of_theory>  (3) 
wb97xd/def2tzvp

>  <lot_method>  (3) 
wb97xd

>  <lot_basis>  (3) 
def2tzvp

>  <spin_multiplicity>  (3) 
3.0

>  <optical_isomers>  (3) 
2.0

>  <modes>  (3) 
IdealGasTranslation(mass=(117.115, 'amu')),         NonlinearRotor(             inertia = ([227.233, 478.058, 605.81

>  <frequency_value>  (3) 
-1718.8

>  <frequency_units>  (3) 
cm^-1

>  <frequency_list>  (3) 
unknown

>  <arkane_path>  (3) 
/home/calvin/Dropbox/PersonalFolders/Calvin/ZEUS_Converged/rmg_rxn_10734/output/rxns/TS0/arkane/output.py

>  <path_exists>  (3) 
True

>  <E0_value>  (3) 
-964396.0

>  <E0_units>  (3) 
kJ/mol

>  <thermo_class>  (3) 
unknown

>  <Cp0_value>  (3) 
unknown

>  <Cp0_units>  (3) 
unknown

>  <CpInf_value>  (3) 
unknown

>  <CpInf_units>  (3) 
unknown

>  <Tmin_value>  (3) 
unknown

>  <Tmin_units>  (3) 
unknown

>  <Tmax_value>  (3) 
unknown

>  <Tmax_units>  (3) 
unknown

>  <polynomials>  (3) 
unknown

>  <H298_value>  (3) 
unknown

>  <H298_units>  (3) 
unknown

>  <S298_value>  (3) 
unknown

>  <S298_units>  (3) 
unknown

>  <Cp_T_value_list>  (3) 
unknown

>  <Cp_T_units>  (3) 
unknown

>  <T_list>  (3) 
unknown

>  <T_units>  (3) 
unknown

>  <yaml_path>  (3) 
unknown

>  <frequencies_cm1>  (3) 
unknown

>  <ZPE_kJmol>  (3) 
unknown

>  <E_elec_kJmol>  (3) 
unknown

>  <E0_minus_Eelec_plus_ZPE_kJmol>  (3) 
unknown

>  <rxn>  (3) 
unknown

>  <species_type>  (3) 
unknown

>  <species_folder>  (3) 
unknown

>  <frequencies_cm1_list>  (3) 
[]

>  <ts_imag_freq_cm1>  (3) 
-1739.6756

>  <ts_freq_out_path>  (3) 
/home/calvin/Dropbox/PersonalFolders/Calvin/ZEUS_Converged/rmg_rxn_10734/output/rxns/TS0/geometry/freq.out

>  <E0_kJmol>  (3) 
-964396

>  <H298_kJmol>  (3) 
unknown

$$$$

     RDKit          3D

  8  7  0  0  0  0  0  0  0  0999 V2000
   -0.7853    0.0326    0.0393 C   0  0  0  0  0  0  0  0  0  1  0  0
    0.7379   -0.1211   -0.0579 C   0  0  0  0  0  0  0  0  0  2  0  0
    1.1315   -0.8282   -1.2106 N   0  0  0  0  0  1  0  0  0  3  0  0
   -1.2679   -0.9438    0.0768 H   0  0  0  0  0  0  0  0  0  4  0  0
   -1.0464    0.5840    0.9431 H   0  0  0  0  0  0  0  0  0  5  0  0
   -1.1718    0.5760   -0.8227 H   0  0  0  0  0  0  0  0  0  6  0  0
    1.2178    0.8698   -0.0686 H   0  0  0  0  0  0  0  0  0  7  0  0
    1.1219   -0.6479    0.8296 H   0  0  0  0  0  0  0  0  0  8  0  0
  1  5  1  0
  1  4  1  0
  1  6  1  0
  1  2  1  0
  2  3  1  0
  2  7  1  0
  2  8  1  0
M  RAD  1   3   3
M  END
>  <rmg_smiles>  (4) 
CC[N]

>  <rmg_adjacency_list>  (4) 
multiplicity 3
1 N u2 p2 c0 {3,S}
2 C u0 p0 c0 {3,S} {4,S} {5,S} {6,S}
3 C u0 p0 c0 {1,S} {2,S} {7,S} {8,S}
4 H u0 p0 c0 {2,S}
5 H u0 p0 c0 {2,S}
6 H u0 p0 c0 {2,S}
7 H u0 p0 c0 {3,S}
8 H u0 p0 c0 {3,S}


>  <multiplicity>  (4) 
3

>  <reaction>  (4) 
rmg_rxn_10734

>  <type>  (4) 
r1

>  <role_mapnums>  (4) 
{}

>  <role_mapidx>  (4) 
{}

>  <ordered_mapped_smiles>  (4) 
[C:1]([C:2]([N:3])([H:7])[H:8])([H:4])([H:5])[H:6]

>  <level_of_theory>  (4) 
wb97xd/def2tzvp

>  <lot_method>  (4) 
wb97xd

>  <lot_basis>  (4) 
def2tzvp

>  <spin_multiplicity>  (4) 
3.0

>  <optical_isomers>  (4) 
1.0

>  <modes>  (4) 
IdealGasTranslation(mass=(43.0422, 'amu')),         NonlinearRotor(             inertia = ([13.2978, 49.7979, 56.7993

>  <frequency_value>  (4) 
unknown

>  <frequency_units>  (4) 
unknown

>  <frequency_list>  (4) 
unknown

>  <arkane_path>  (4) 
/home/calvin/Dropbox/PersonalFolders/Calvin/ZEUS_Converged/rmg_rxn_10734/output/Species/rmg_rxn_10734_p1_CCsbr-N-sbr/arkane/output.py

>  <path_exists>  (4) 
True

>  <E0_value>  (4) 
-351303.2384808524

>  <E0_units>  (4) 
kJ/mol

>  <thermo_class>  (4) 
NASA

>  <Cp0_value>  (4) 
33.257888

>  <Cp0_units>  (4) 
J/(mol*K)

>  <CpInf_value>  (4) 
182.918384

>  <CpInf_units>  (4) 
J/(mol*K)

>  <Tmin_value>  (4) 
10.0

>  <Tmin_units>  (4) 
K

>  <Tmax_value>  (4) 
3000.0

>  <Tmax_units>  (4) 
K

>  <polynomials>  (4) 
[{"name": "polynomial1", "class": "NASAPolynomial", "Tmin_value": 10.0, "Tmin_units": "K", "Tmax_value": 538.886327135209, "Tmax_units": "K", "coeffs": [4.011018108877546, -0.0009965349510739747, 6.344943530426664e-05, -9.341530254023234e-08, 4.4858248288287556e-11, -42252019.79168189, 8.154035230866597]}, {"name": "polynomial2", "class": "NASAPolynomial", "Tmin_value": 538.886327135209, "Tmin_units": "K", "Tmax_value": 3000.0, "Tmax_units": "K", "coeffs": [0.18893019668157002, 0.02737275532869428, -1.5514273325313145e-05, 4.268843654953002e-09, -4.577863119445831e-13, -42251607.84324478, 24.230524039301933]}]

>  <H298_value>  (4) 
-83960.41291340077

>  <H298_units>  (4) 
kcal/mol

>  <S298_value>  (4) 
65.1603018293809

>  <S298_units>  (4) 
cal/(mol*K)

>  <Cp_T_value_list>  (4) 
[14.434363445939358, 17.753912670393817, 20.869319076127162, 23.62825515569263, 28.131169878151663, 31.514053771204022, 36.62571086560171, 39.15495469208918, 40.43085329111821]

>  <Cp_T_units>  (4) 
cal/(mol*K)

>  <T_list>  (4) 
[300.0, 400.0, 500.0, 600.0, 800.0, 1000.0, 1500.0, 2000.0, 2400.0]

>  <T_units>  (4) 
K

>  <yaml_path>  (4) 
/home/calvin/Dropbox/PersonalFolders/Calvin/ZEUS_Converged/rmg_rxn_10734/output/Species/rmg_rxn_10734_p1_CCsbr-N-sbr/rmg_rxn_10734_p1_CCsbr-N-sbr.yml

>  <frequencies_cm1>  (4) 
[219.85340200512002, 386.0619146904, 760.5529591165998, 905.2609407649599, 1021.4297314234, 1026.9988565179199, 1083.5347466574801, 1232.4178553804, 1304.0885811652397, 1390.88040862472, 1421.98785212432, 1476.3263069614798, 1486.33150457272, 2930.4447833980794, 2964.9719855870403, 3028.6838753859997, 3108.6361854667603, 3113.1134598954]

>  <ZPE_kJmol>  (4) 
172.63060648664862

>  <E_elec_kJmol>  (4) 
-351475.86908733903

>  <E0_minus_Eelec_plus_ZPE_kJmol>  (4) 
0.0

>  <rxn>  (4) 
rmg_rxn_10734

>  <species_type>  (4) 
p0

>  <species_folder>  (4) 
rmg_rxn_10734_p1_CCsbr-N-sbr

>  <frequencies_cm1_list>  (4) 
[219.85340200512002, 386.0619146904, 760.5529591165998, 905.2609407649599, 1021.4297314234, 1026.9988565179199, 1083.5347466574801, 1232.4178553804, 1304.0885811652397, 1390.88040862472, 1421.98785212432, 1476.3263069614798, 1486.33150457272, 2930.4447833980794, 2964.9719855870403, 3028.6838753859997, 3108.6361854667603, 3113.1134598954]

>  <E0_kJmol>  (4) 
-351303

>  <H298_kJmol>  (4) 
-351290

$$$$

     RDKit          3D

 14 13  0  0  0  0  0  0  0  0999 V2000
   -2.2399   -0.0166   -0.1883 C   0  0  0  0  0  0  0  0  0  1  0  0
   -1.3469   -1.1905   -0.0279 C   0  0  0  0  0  3  0  0  0  2  0  0
   -1.6654   -2.2692    0.9493 C   0  0  0  0  0  0  0  0  0  3  0  0
   -2.0490   -1.7958    2.2240 O   0  0  0  0  0  0  0  0  0  4  0  0
   -0.9990   -1.1771    2.9198 C   0  0  0  0  0  0  0  0  0  5  0  0
   -2.6700    0.2862    0.7685 H   0  0  0  0  0  0  0  0  0  6  0  0
   -3.0850   -0.2450   -0.8547 H   0  0  0  0  0  0  0  0  0  7  0  0
   -1.7143    0.8346   -0.6240 H   0  0  0  0  0  0  0  0  0  8  0  0
   -0.5797   -1.3809   -0.7686 H   0  0  0  0  0  0  0  0  0  9  0  0
   -2.5244   -2.8609    0.6038 H   0  0  0  0  0  0  0  0  0 10  0  0
   -0.8142   -2.9586    1.0411 H   0  0  0  0  0  0  0  0  0 11  0  0
   -0.6226   -0.2923    2.3915 H   0  0  0  0  0  0  0  0  0 12  0  0
   -1.3883   -0.8732    3.8905 H   0  0  0  0  0  0  0  0  0 13  0  0
   -0.1599   -1.8693    3.0725 H   0  0  0  0  0  0  0  0  0 14  0  0
  1  8  1  0
  1  7  1  0
  1  6  1  0
  1  2  1  0
  2  9  1  0
  2  3  1  0
  3 11  1  0
  3  4  1  0
  3 10  1  0
  4  5  1  0
  5 13  1  0
  5 12  1  0
  5 14  1  0
M  RAD  1   2   2
M  END
>  <rmg_smiles>  (5) 
C[CH]COC

>  <rmg_adjacency_list>  (5) 
multiplicity 2
1  O u0 p2 c0 {2,S} {4,S}
2  C u0 p0 c0 {1,S} {5,S} {6,S} {7,S}
3  C u0 p0 c0 {5,S} {8,S} {9,S} {10,S}
4  C u0 p0 c0 {1,S} {11,S} {12,S} {13,S}
5  C u1 p0 c0 {2,S} {3,S} {14,S}
6  H u0 p0 c0 {2,S}
7  H u0 p0 c0 {2,S}
8  H u0 p0 c0 {3,S}
9  H u0 p0 c0 {3,S}
10 H u0 p0 c0 {3,S}
11 H u0 p0 c0 {4,S}
12 H u0 p0 c0 {4,S}
13 H u0 p0 c0 {4,S}
14 H u0 p0 c0 {5,S}


>  <multiplicity>  (5) 
2

>  <reaction>  (5) 
rmg_rxn_10734

>  <type>  (5) 
r2

>  <role_mapnums>  (5) 
{}

>  <role_mapidx>  (5) 
{}

>  <ordered_mapped_smiles>  (5) 
[C:1]([C:2]([C:3]([O:4][C:5]([H:12])([H:13])[H:14])([H:10])[H:11])[H:9])([H:6])([H:7])[H:8]

>  <level_of_theory>  (5) 
wb97xd/def2tzvp

>  <lot_method>  (5) 
wb97xd

>  <lot_basis>  (5) 
def2tzvp

>  <spin_multiplicity>  (5) 
2.0

>  <optical_isomers>  (5) 
2.0

>  <modes>  (5) 
IdealGasTranslation(mass=(73.0653, 'amu')),         NonlinearRotor(             inertia = ([57.4355, 151.779, 172.567

>  <frequency_value>  (5) 
unknown

>  <frequency_units>  (5) 
unknown

>  <frequency_list>  (5) 
unknown

>  <arkane_path>  (5) 
/home/calvin/Dropbox/PersonalFolders/Calvin/ZEUS_Converged/rmg_rxn_10734/output/Species/rmg_rxn_10734_r2_Csbr-CH-sbrCOC/arkane/output.py

>  <path_exists>  (5) 
True

>  <E0_value>  (5) 
-611442.2731419932

>  <E0_units>  (5) 
kJ/mol

>  <thermo_class>  (5) 
NASA

>  <Cp0_value>  (5) 
33.257888

>  <Cp0_units>  (5) 
J/(mol*K)

>  <CpInf_value>  (5) 
332.57888

>  <CpInf_units>  (5) 
J/(mol*K)

>  <Tmin_value>  (5) 
10.0

>  <Tmin_units>  (5) 
K

>  <Tmax_value>  (5) 
3000.0

>  <Tmax_units>  (5) 
K

>  <polynomials>  (5) 
[{"name": "polynomial1", "class": "NASAPolynomial", "Tmin_value": 10.0, "Tmin_units": "K", "Tmax_value": 425.78067206825415, "Tmax_units": "K", "coeffs": [3.526686835114462, 0.05047286897839576, -0.00015053585357273269, 3.8978281699684034e-07, -3.37280885950768e-10, -73539517.65492678, 11.298647037059743]}, {"name": "polynomial2", "class": "NASAPolynomial", "Tmin_value": 425.78067206825415, "Tmin_units": "K", "Tmax_value": 3000.0, "Tmax_units": "K", "coeffs": [-0.1683064371298676, 0.05053846921183428, -2.8707481835917995e-05, 7.91508524946746e-09, -8.50323069602984e-13, -73538888.94686991, 29.657964609533963]}]

>  <H298_value>  (5) 
-146133.09231844658

>  <H298_units>  (5) 
kcal/mol

>  <S298_value>  (5) 
84.49745680464746

>  <S298_units>  (5) 
cal/(mol*K)

>  <Cp_T_value_list>  (5) 
[25.65976735872694, 31.679663426059193, 37.47930714162204, 42.56504550506925, 50.86038806442172, 57.08736172122742, 66.48440879370821, 71.13050176223182, 73.47772368065162]

>  <Cp_T_units>  (5) 
cal/(mol*K)

>  <T_list>  (5) 
[300.0, 400.0, 500.0, 600.0, 800.0, 1000.0, 1500.0, 2000.0, 2400.0]

>  <T_units>  (5) 
K

>  <yaml_path>  (5) 
/home/calvin/Dropbox/PersonalFolders/Calvin/ZEUS_Converged/rmg_rxn_10734/output/Species/rmg_rxn_10734_r2_Csbr-CH-sbrCOC/rmg_rxn_10734_r2_Csbr-CH-sbrCOC.yml

>  <frequencies_cm1>  (5) 
[87.039038931, 91.68112100731999, 144.76978451623998, 196.47818397583998, 264.26219606955993, 388.8567777156399, 394.92719273852003, 605.0706775011599, 864.6907914944, 914.0369480039199, 946.41478378772, 986.9780660729599, 1093.6360820631999, 1124.8808652692, 1159.38059951688, 1172.75748692024, 1216.486449438, 1302.0628204958398, 1364.57985484912, 1374.92153474104, 1402.0049248431199, 1457.1536839480398, 1459.9622809439197, 1468.6558843590399, 1469.9056756872799, 1474.6370285727598, 1494.57188695672, 2946.78820845968, 2949.2740571455197, 2957.55564144144, 2983.6433186721197, 3008.74901700204, 3043.70883926616, 3091.60606187316, 3101.79666808804, 3157.0827668993597]

>  <ZPE_kJmol>  (5) 
317.97352719118686

>  <E_elec_kJmol>  (5) 
-611760.2466691844

>  <E0_minus_Eelec_plus_ZPE_kJmol>  (5) 
0.0

>  <rxn>  (5) 
rmg_rxn_10734

>  <species_type>  (5) 
r1

>  <species_folder>  (5) 
rmg_rxn_10734_r2_Csbr-CH-sbrCOC

>  <frequencies_cm1_list>  (5) 
[87.039038931, 91.68112100731999, 144.76978451623998, 196.47818397583998, 264.26219606955993, 388.8567777156399, 394.92719273852003, 605.0706775011599, 864.6907914944, 914.0369480039199, 946.41478378772, 986.9780660729599, 1093.6360820631999, 1124.8808652692, 1159.38059951688, 1172.75748692024, 1216.486449438, 1302.0628204958398, 1364.57985484912, 1374.92153474104, 1402.0049248431199, 1457.1536839480398, 1459.9622809439197, 1468.6558843590399, 1469.9056756872799, 1474.6370285727598, 1494.57188695672, 2946.78820845968, 2949.2740571455197, 2957.55564144144, 2983.6433186721197, 3008.74901700204, 3043.70883926616, 3091.60606187316, 3101.79666808804, 3157.0827668993597]

>  <E0_kJmol>  (5) 
-611442

>  <H298_kJmol>  (5) 
-611421

$$$$
