
     RDKit          3D

  9  8  0  0  0  0  0  0  0  0999 V2000
   -0.5958    0.1746   -1.6480 C   0  0  0  0  0  0  0  0  0  1  0  0
    0.0712   -0.6576   -0.5653 C   0  0  0  0  0  0  0  0  0  2  0  0
    0.2119    0.1888    1.0337 S   0  0  0  0  0  0  0  0  0  3  0  0
   -0.0276    1.0864   -1.8364 H   0  0  0  0  0  0  0  0  0  4  0  0
   -1.6037    0.4658   -1.3500 H   0  0  0  0  0  0  0  0  0  5  0  0
   -0.6598   -0.3918   -2.5813 H   0  0  0  0  0  0  0  0  0  6  0  0
    1.0685   -0.9708   -0.8744 H   0  0  0  0  0  0  0  0  0  7  0  0
   -0.5036   -1.5631   -0.3623 H   0  0  0  0  0  0  0  0  0  8  0  0
    1.1524    1.0436    0.6089 H   0  0  0  0  0  0  0  0  0  9  0  0
  1  5  1  0
  1  4  1  0
  1  6  1  0
  1  2  1  0
  2  7  1  0
  2  8  1  0
  2  3  1  0
  3  9  1  0
M  END
>  <rmg_smiles>  (1) 
CCS

>  <rmg_adjacency_list>  (1) 
1 S u0 p2 c0 {2,S} {9,S}
2 C u0 p0 c0 {1,S} {3,S} {4,S} {5,S}
3 C u0 p0 c0 {2,S} {6,S} {7,S} {8,S}
4 H u0 p0 c0 {2,S}
5 H u0 p0 c0 {2,S}
6 H u0 p0 c0 {3,S}
7 H u0 p0 c0 {3,S}
8 H u0 p0 c0 {3,S}
9 H u0 p0 c0 {1,S}


>  <multiplicity>  (1) 
1

>  <reaction>  (1) 
rmg_rxn_40

>  <type>  (1) 
r1h

>  <role_mapnums>  (1) 
{"r1h_a": 3, "r1h_h": 9}

>  <role_mapidx>  (1) 
{"r1h_a": 2, "r1h_h": 8}

>  <ordered_mapped_smiles>  (1) 
[C:1]([C:2]([S:3][H:9])([H:7])[H:8])([H:4])([H:5])[H:6]

>  <mol_properties>  (1) 
{"2": {"label": "donator", "atom_type": "S2s"}, "8": {"label": "d_hydrogen", "atom_type": "H0"}}

>  <level_of_theory>  (1) 
wb97xd/def2tzvp

>  <lot_method>  (1) 
wb97xd

>  <lot_basis>  (1) 
def2tzvp

>  <spin_multiplicity>  (1) 
1.0

>  <optical_isomers>  (1) 
2.0

>  <modes>  (1) 
IdealGasTranslation(mass=(62.019, 'amu')),         NonlinearRotor(             inertia = ([17.3187, 95.472, 104.033

>  <frequency_value>  (1) 
unknown

>  <frequency_units>  (1) 
unknown

>  <frequency_list>  (1) 
unknown

>  <arkane_path>  (1) 
/home/calvin/Dropbox/PersonalFolders/Calvin/ATLAS_Converged/rmg_rxn_40/output/Species/rmg_rxn_40_r1_CCS/arkane/output.py

>  <path_exists>  (1) 
True

>  <E0_value>  (1) 
-1254880.5539257105

>  <E0_units>  (1) 
kJ/mol

>  <thermo_class>  (1) 
NASA

>  <Cp0_value>  (1) 
33.257888

>  <Cp0_units>  (1) 
J/(mol*K)

>  <CpInf_value>  (1) 
207.8618

>  <CpInf_units>  (1) 
J/(mol*K)

>  <Tmin_value>  (1) 
10.0

>  <Tmin_units>  (1) 
K

>  <Tmax_value>  (1) 
3000.0

>  <Tmax_units>  (1) 
K

>  <polynomials>  (1) 
[{"name": "polynomial1", "class": "NASAPolynomial", "Tmin_value": 10.0, "Tmin_units": "K", "Tmax_value": 456.94594899547127, "Tmax_units": "K", "coeffs": [3.912577624338537, 0.00615582175220408, 5.7903930492959536e-05, -1.030503984599124e-07, 5.821320863281675e-11, -150927266.2322327, 9.021117452044235]}, {"name": "polynomial2", "class": "NASAPolynomial", "Tmin_value": 456.94594899547127, "Tmin_units": "K", "Tmax_value": 3000.0, "Tmax_units": "K", "coeffs": [1.355858308005039, 0.028536747355681385, -1.556509888997289e-05, 4.138064392594878e-09, -4.3071928406011676e-13, -150927032.57563502, 19.353413792179573]}]

>  <H298_value>  (1) 
-299920.1188186392

>  <H298_units>  (1) 
kcal/mol

>  <S298_value>  (1) 
69.39854649104443

>  <S298_units>  (1) 
cal/(mol*K)

>  <Cp_T_value_list>  (1) 
[17.20889854420324, 20.934361703682253, 24.290211996879982, 27.24951312622027, 32.12490060154891, 35.83897490418279, 41.58221214962001, 44.47758447480336, 45.91133080340105]

>  <Cp_T_units>  (1) 
cal/(mol*K)

>  <T_list>  (1) 
[300.0, 400.0, 500.0, 600.0, 800.0, 1000.0, 1500.0, 2000.0, 2400.0]

>  <T_units>  (1) 
K

>  <yaml_path>  (1) 
/home/calvin/Dropbox/PersonalFolders/Calvin/ATLAS_Converged/rmg_rxn_40/output/Species/rmg_rxn_40_r1_CCS/rmg_rxn_40_r1_CCS.yml

>  <frequencies_cm1>  (1) 
[202.32885546847996, 256.50936964327997, 331.52431727896, 667.1482247939599, 735.969151671, 875.5955641825599, 988.159187548, 1063.6273562148, 1117.6087278153198, 1273.38628979952, 1303.10660226448, 1402.5542836687198, 1466.616389719, 1477.4456255686398, 1483.85938985752, 2700.25656848636, 3013.3430301811195, 3044.51914353392, 3080.6051513905195, 3088.40604671404, 3107.9357529641197]

>  <ZPE_kJmol>  (1) 
195.4728851436989

>  <E_elec_kJmol>  (1) 
-1255076.0268108542

>  <E0_minus_Eelec_plus_ZPE_kJmol>  (1) 
0.0

>  <rxn>  (1) 
rmg_rxn_40

>  <species_type>  (1) 
r0

>  <species_folder>  (1) 
rmg_rxn_40_r1_CCS

>  <frequencies_cm1_list>  (1) 
[202.32885546847996, 256.50936964327997, 331.52431727896, 667.1482247939599, 735.969151671, 875.5955641825599, 988.159187548, 1063.6273562148, 1117.6087278153198, 1273.38628979952, 1303.10660226448, 1402.5542836687198, 1466.616389719, 1477.4456255686398, 1483.85938985752, 2700.25656848636, 3013.3430301811195, 3044.51914353392, 3080.6051513905195, 3088.40604671404, 3107.9357529641197]

>  <E0_kJmol>  (1) 
-1.25488e+06

>  <H298_kJmol>  (1) 
-1.25487e+06

$$$$

     RDKit          3D

 14 14  0  0  0  0  0  0  0  0999 V2000
   -1.0760   -0.9474    1.7367 H   0  0  0  0  0  0  0  0  0  1  0  0
   -0.2946   -0.3665    1.2292 C   0  0  0  0  0  0  0  0  0  2  0  0
    0.2618   -1.2718    0.3785 O   0  0  0  0  0  0  0  0  0  3  0  0
    1.0475   -0.7049   -0.6698 C   0  0  0  0  0  0  0  0  0  4  0  0
    0.2614    0.3718   -1.3927 C   0  0  0  0  0  0  0  0  0  5  0  0
   -0.2559    1.3580   -0.3631 C   0  0  0  0  0  0  0  0  0  6  0  0
   -0.9689    0.6699    0.6643 O   0  0  0  0  0  0  0  0  0  7  0  0
    0.3409   -0.0917    2.0813 H   0  0  0  0  0  0  0  0  0  8  0  0
    1.9683   -0.2881   -0.2410 H   0  0  0  0  0  0  0  0  0  9  0  0
    1.3145   -1.5323   -1.3242 H   0  0  0  0  0  0  0  0  0 10  0  0
    0.8969    0.8808   -2.1201 H   0  0  0  0  0  0  0  0  0 11  0  0
   -0.5780   -0.0793   -1.9254 H   0  0  0  0  0  0  0  0  0 12  0  0
   -0.9597    2.0701   -0.7892 H   0  0  0  0  0  0  0  0  0 13  0  0
    0.5752    1.9159    0.0883 H   0  0  0  0  0  0  0  0  0 14  0  0
  1  2  1  0
  2  7  1  0
  2  8  1  0
  2  3  1  0
  3  4  1  0
  4  5  1  0
  4  9  1  0
  4 10  1  0
  5 11  1  0
  5 12  1  0
  5  6  1  0
  6 14  1  0
  6 13  1  0
  6  7  1  0
M  END
>  <rmg_smiles>  (2) 
C1COCOC1

>  <rmg_adjacency_list>  (2) 
1  O u0 p2 c0 {4,S} {6,S}
2  O u0 p2 c0 {5,S} {6,S}
3  C u0 p0 c0 {4,S} {5,S} {7,S} {8,S}
4  C u0 p0 c0 {1,S} {3,S} {9,S} {10,S}
5  C u0 p0 c0 {2,S} {3,S} {11,S} {12,S}
6  C u0 p0 c0 {1,S} {2,S} {13,S} {14,S}
7  H u0 p0 c0 {3,S}
8  H u0 p0 c0 {3,S}
9  H u0 p0 c0 {4,S}
10 H u0 p0 c0 {4,S}
11 H u0 p0 c0 {5,S}
12 H u0 p0 c0 {5,S}
13 H u0 p0 c0 {6,S}
14 H u0 p0 c0 {6,S}


>  <multiplicity>  (2) 
1

>  <reaction>  (2) 
rmg_rxn_40

>  <type>  (2) 
r2h

>  <role_mapnums>  (2) 
{"r2h_a": 2, "r2h_h": 1}

>  <role_mapidx>  (2) 
{"r2h_a": 1, "r2h_h": 0}

>  <ordered_mapped_smiles>  (2) 
[H:1][C:2]1([H:8])[O:3][C:4]([H:9])([H:10])[C:5]([H:11])([H:12])[C:6]([H:13])([H:14])[O:7]1

>  <mol_properties>  (2) 
{"0": {"label": "a_hydrogen", "atom_type": "H0"}, "1": {"label": "acceptor", "atom_type": "Cs"}}

>  <level_of_theory>  (2) 
wb97xd/def2tzvp

>  <lot_method>  (2) 
wb97xd

>  <lot_basis>  (2) 
def2tzvp

>  <spin_multiplicity>  (2) 
1.0

>  <optical_isomers>  (2) 
1.0

>  <modes>  (2) 
IdealGasTranslation(mass=(88.0524, 'amu')),         NonlinearRotor(             inertia = ([100.123, 103.988, 181.806

>  <frequency_value>  (2) 
unknown

>  <frequency_units>  (2) 
unknown

>  <frequency_list>  (2) 
unknown

>  <arkane_path>  (2) 
/home/calvin/Dropbox/PersonalFolders/Calvin/ATLAS_Converged/rmg_rxn_40/output/Species/rmg_rxn_40_p2_C1COCOC1/arkane/output.py

>  <path_exists>  (2) 
True

>  <E0_value>  (2) 
-807534.4862541369

>  <E0_units>  (2) 
kJ/mol

>  <thermo_class>  (2) 
NASA

>  <Cp0_value>  (2) 
33.257888

>  <Cp0_units>  (2) 
J/(mol*K)

>  <CpInf_value>  (2) 
332.57888

>  <CpInf_units>  (2) 
J/(mol*K)

>  <Tmin_value>  (2) 
10.0

>  <Tmin_units>  (2) 
K

>  <Tmax_value>  (2) 
3000.0

>  <Tmax_units>  (2) 
K

>  <polynomials>  (2) 
[{"name": "polynomial1", "class": "NASAPolynomial", "Tmin_value": 10.0, "Tmin_units": "K", "Tmax_value": 635.616554573151, "Tmax_units": "K", "coeffs": [4.089858497697602, -0.00720848048360332, 0.00016188875003168496, -2.401508213073996e-07, 1.1440937882219611e-10, -97123964.81365098, 9.940070949440356]}, {"name": "polynomial2", "class": "NASAPolynomial", "Tmin_value": 635.616554573151, "Tmin_units": "K", "Tmax_value": 3000.0, "Tmax_units": "K", "coeffs": [-3.6233751272420895, 0.05886750722676344, -3.5427870905530145e-05, 1.0209382893823142e-08, -1.1338653155444558e-12, -97123338.5127768, 40.87012283464024]}]

>  <H298_value>  (2) 
-193001.58453999052

>  <H298_units>  (2) 
kcal/mol

>  <S298_value>  (2) 
72.30963326519604

>  <S298_units>  (2) 
cal/(mol*K)

>  <Cp_T_value_list>  (2) 
[21.739931113059615, 29.14813400113705, 35.94765005011551, 41.73053828287379, 50.792135881792035, 57.413930600437965, 66.93239440365458, 71.40703402864166, 73.74460734469625]

>  <Cp_T_units>  (2) 
cal/(mol*K)

>  <T_list>  (2) 
[300.0, 400.0, 500.0, 600.0, 800.0, 1000.0, 1500.0, 2000.0, 2400.0]

>  <T_units>  (2) 
K

>  <yaml_path>  (2) 
/home/calvin/Dropbox/PersonalFolders/Calvin/ATLAS_Converged/rmg_rxn_40/output/Species/rmg_rxn_40_p2_C1COCOC1/rmg_rxn_40_p2_C1COCOC1.yml

>  <frequencies_cm1>  (2) 
[264.26219606955993, 269.44676998615995, 439.22611503784, 466.70779028847994, 494.62208561427997, 656.81341188736, 851.50617968, 900.41284912904, 919.12538412604, 926.80954069912, 1013.8966485273598, 1037.6289497932798, 1094.57685905204, 1112.95291176836, 1188.75069573052, 1216.28730686372, 1226.8487302858798, 1252.366447735, 1315.55644664964, 1328.3633742714399, 1363.72148168412, 1380.93701388136, 1404.8272558096398, 1432.53554157584, 1460.95799381532, 1489.42164796672, 1490.0946125280798, 1506.58911126672, 2894.63345495428, 2944.5289702893997, 2950.530715459079, 3031.06671929204, 3080.8454958767197, 3088.2893079635996, 3091.87387430064, 3110.9160245929997]

>  <ZPE_kJmol>  (2) 
321.1850391352071

>  <E_elec_kJmol>  (2) 
-807855.671293272

>  <E0_minus_Eelec_plus_ZPE_kJmol>  (2) 
0.0

>  <rxn>  (2) 
rmg_rxn_40

>  <species_type>  (2) 
p1

>  <species_folder>  (2) 
rmg_rxn_40_p2_C1COCOC1

>  <frequencies_cm1_list>  (2) 
[264.26219606955993, 269.44676998615995, 439.22611503784, 466.70779028847994, 494.62208561427997, 656.81341188736, 851.50617968, 900.41284912904, 919.12538412604, 926.80954069912, 1013.8966485273598, 1037.6289497932798, 1094.57685905204, 1112.95291176836, 1188.75069573052, 1216.28730686372, 1226.8487302858798, 1252.366447735, 1315.55644664964, 1328.3633742714399, 1363.72148168412, 1380.93701388136, 1404.8272558096398, 1432.53554157584, 1460.95799381532, 1489.42164796672, 1490.0946125280798, 1506.58911126672, 2894.63345495428, 2944.5289702893997, 2950.530715459079, 3031.06671929204, 3080.8454958767197, 3088.2893079635996, 3091.87387430064, 3110.9160245929997]

>  <E0_kJmol>  (2) 
-807534

>  <H298_kJmol>  (2) 
-807519

$$$$

     RDKit          3D

 22 21  0  0  0  0  0  0  0  0999 V2000
   -1.9928   -1.3595   -0.7140 C   0  0  0  0  0  0  0  0  0  1  0  0
   -1.3258   -2.1916    0.3688 C   0  0  0  0  0  0  0  0  0  2  0  0
   -1.1852   -1.3452    1.9678 S   0  0  0  0  0  0  0  0  0  3  0  0
   -1.4246   -0.4476   -0.9024 H   0  0  0  0  0  0  0  0  0  4  0  0
   -3.0008   -1.0683   -0.4160 H   0  0  0  0  0  0  0  0  0  5  0  0
   -2.0568   -1.9258   -1.6473 H   0  0  0  0  0  0  0  0  0  6  0  0
   -0.3285   -2.5048    0.0597 H   0  0  0  0  0  0  0  0  0  7  0  0
   -1.9006   -3.0972    0.5717 H   0  0  0  0  0  0  0  0  0  8  0  0
   -0.1453   -0.4002    1.4981 H   0  0  0  0  0  0  0  0  0  9  0  0
    0.9259    0.3962    0.8024 C   0  0  0  0  0  3  0  0  0 10  0  0
    1.4823   -0.5092   -0.0483 O   0  0  0  0  0  0  0  0  0 11  0  0
    2.2680    0.0577   -1.0966 C   0  0  0  0  0  0  0  0  0 12  0  0
    1.4819    1.1344   -1.8194 C   0  0  0  0  0  0  0  0  0 13  0  0
    0.9647    2.1207   -0.7899 C   0  0  0  0  0  0  0  0  0 14  0  0
    0.2516    1.4325    0.2376 O   0  0  0  0  0  0  0  0  0 15  0  0
    1.5614    0.6709    1.6546 H   0  0  0  0  0  0  0  0  0 16  0  0
    3.1888    0.4746   -0.6678 H   0  0  0  0  0  0  0  0  0 17  0  0
    2.5350   -0.7696   -1.7509 H   0  0  0  0  0  0  0  0  0 18  0  0
    2.1174    1.6434   -2.5469 H   0  0  0  0  0  0  0  0  0 19  0  0
    0.6425    0.6833   -2.3521 H   0  0  0  0  0  0  0  0  0 20  0  0
    0.2609    2.8328   -1.2159 H   0  0  0  0  0  0  0  0  0 21  0  0
    1.7958    2.6785   -0.3384 H   0  0  0  0  0  0  0  0  0 22  0  0
  1  4  1  0
  1  5  1  0
  1  6  1  0
  1  2  1  0
  2  8  1  0
  2  3  1  0
  2  7  1  0
  3  9  1  0
 10 16  1  0
 10 11  1  0
 10 15  1  0
 11 12  1  0
 12 17  1  0
 12 18  1  0
 12 13  1  0
 13 19  1  0
 13 20  1  0
 13 14  1  0
 14 22  1  0
 14 21  1  0
 14 15  1  0
M  RAD  1  10   2
M  END
>  <rmg_smiles>  (3) 
C1CCO[CH]O1.CCS

>  <rmg_adjacency_list>  (3) 
multiplicity 2
1  S u0 p2 c0 {7,S} {22,S}
2  O u0 p2 c0 {5,S} {9,S}
3  O u0 p2 c0 {6,S} {9,S}
4  C u0 p0 c0 {5,S} {6,S} {10,S} {11,S}
5  C u0 p0 c0 {2,S} {4,S} {14,S} {15,S}
6  C u0 p0 c0 {3,S} {4,S} {16,S} {17,S}
7  C u0 p0 c0 {1,S} {8,S} {12,S} {13,S}
8  C u0 p0 c0 {7,S} {18,S} {19,S} {20,S}
9  C u1 p0 c0 {2,S} {3,S} {21,S}
10 H u0 p0 c0 {4,S}
11 H u0 p0 c0 {4,S}
12 H u0 p0 c0 {7,S}
13 H u0 p0 c0 {7,S}
14 H u0 p0 c0 {5,S}
15 H u0 p0 c0 {5,S}
16 H u0 p0 c0 {6,S}
17 H u0 p0 c0 {6,S}
18 H u0 p0 c0 {8,S}
19 H u0 p0 c0 {8,S}
20 H u0 p0 c0 {8,S}
21 H u0 p0 c0 {9,S}
22 H u0 p0 c0 {1,S}


>  <multiplicity>  (3) 
2

>  <reaction>  (3) 
rmg_rxn_40

>  <type>  (3) 
ts

>  <role_mapnums>  (3) 
{"*2": 9, "*1": 3, "*3": 10, "*0": 2, "*4": 11}

>  <role_mapidx>  (3) 
{"*2": 8, "*1": 2, "*3": 9, "*0": 1, "*4": 10}

>  <ordered_mapped_smiles>  (3) 
[C:1]([C:2]([S:3][H:9])([H:7])[H:8])([H:4])([H:5])[H:6].[C:10]1([H:16])[O:11][C:12]([H:17])([H:18])[C:13]([H:19])([H:20])[C:14]([H:21])([H:22])[O:15]1

>  <mol_properties>  (3) 
{"1": {"label": "*0", "atom_type": "Cs"}, "2": {"label": "*1", "atom_type": "S2s"}, "8": {"label": "*2", "atom_type": "H0"}, "9": {"label": "*3", "atom_type": "Cs"}, "10": {"label": "*4", "atom_type": "O2s"}}

>  <level_of_theory>  (3) 
wb97xd/def2tzvp

>  <lot_method>  (3) 
wb97xd

>  <lot_basis>  (3) 
def2tzvp

>  <spin_multiplicity>  (3) 
2.0

>  <optical_isomers>  (3) 
2.0

>  <modes>  (3) 
IdealGasTranslation(mass=(149.064, 'amu')),         NonlinearRotor(             inertia = ([232.196, 678.561, 710.65

>  <frequency_value>  (3) 
-1125.61

>  <frequency_units>  (3) 
cm^-1

>  <frequency_list>  (3) 
unknown

>  <arkane_path>  (3) 
/home/calvin/Dropbox/PersonalFolders/Calvin/ATLAS_Converged/rmg_rxn_40/output/rxns/TS0/arkane/output.py

>  <path_exists>  (3) 
True

>  <E0_value>  (3) 
-2060680.0

>  <E0_units>  (3) 
kJ/mol

>  <thermo_class>  (3) 
unknown

>  <Cp0_value>  (3) 
unknown

>  <Cp0_units>  (3) 
unknown

>  <CpInf_value>  (3) 
unknown

>  <CpInf_units>  (3) 
unknown

>  <Tmin_value>  (3) 
unknown

>  <Tmin_units>  (3) 
unknown

>  <Tmax_value>  (3) 
unknown

>  <Tmax_units>  (3) 
unknown

>  <polynomials>  (3) 
unknown

>  <H298_value>  (3) 
unknown

>  <H298_units>  (3) 
unknown

>  <S298_value>  (3) 
unknown

>  <S298_units>  (3) 
unknown

>  <Cp_T_value_list>  (3) 
unknown

>  <Cp_T_units>  (3) 
unknown

>  <T_list>  (3) 
unknown

>  <T_units>  (3) 
unknown

>  <yaml_path>  (3) 
unknown

>  <frequencies_cm1>  (3) 
unknown

>  <ZPE_kJmol>  (3) 
unknown

>  <E_elec_kJmol>  (3) 
unknown

>  <E0_minus_Eelec_plus_ZPE_kJmol>  (3) 
unknown

>  <rxn>  (3) 
unknown

>  <species_type>  (3) 
unknown

>  <species_folder>  (3) 
unknown

>  <frequencies_cm1_list>  (3) 
[]

>  <ts_imag_freq_cm1>  (3) 
-1139.2835

>  <ts_freq_out_path>  (3) 
/home/calvin/Dropbox/PersonalFolders/Calvin/ATLAS_Converged/rmg_rxn_40/output/rxns/TS0/geometry/freq.out

>  <E0_kJmol>  (3) 
-2.06068e+06

>  <H298_kJmol>  (3) 
unknown

$$$$

     RDKit          3D

  8  7  0  0  0  0  0  0  0  0999 V2000
    0.8135   -0.0283    0.0400 C   0  0  0  0  0  0  0  0  0  1  0  0
   -0.7038   -0.1008   -0.0090 C   0  0  0  0  0  0  0  0  0  2  0  0
   -1.5421    1.4429   -0.3606 S   0  0  0  0  0  1  0  0  0  3  0  0
    1.1442    0.6666    0.8124 H   0  0  0  0  0  0  0  0  0  4  0  0
    1.2169    0.3129   -0.9137 H   0  0  0  0  0  0  0  0  0  5  0  0
    1.2356   -1.0119    0.2594 H   0  0  0  0  0  0  0  0  0  6  0  0
   -1.1179   -0.4664    0.9365 H   0  0  0  0  0  0  0  0  0  7  0  0
   -1.0463   -0.8150   -0.7650 H   0  0  0  0  0  0  0  0  0  8  0  0
  1  5  1  0
  1  4  1  0
  1  6  1  0
  1  2  1  0
  2  8  1  0
  2  3  1  0
  2  7  1  0
M  RAD  1   3   2
M  END
>  <rmg_smiles>  (4) 
CC[S]

>  <rmg_adjacency_list>  (4) 
multiplicity 2
1 S u1 p2 c0 {3,S}
2 C u0 p0 c0 {3,S} {4,S} {5,S} {6,S}
3 C u0 p0 c0 {1,S} {2,S} {7,S} {8,S}
4 H u0 p0 c0 {2,S}
5 H u0 p0 c0 {2,S}
6 H u0 p0 c0 {2,S}
7 H u0 p0 c0 {3,S}
8 H u0 p0 c0 {3,S}


>  <multiplicity>  (4) 
2

>  <reaction>  (4) 
rmg_rxn_40

>  <type>  (4) 
r1

>  <role_mapnums>  (4) 
{}

>  <role_mapidx>  (4) 
{}

>  <ordered_mapped_smiles>  (4) 
[C:1]([C:2]([S:3])([H:7])[H:8])([H:4])([H:5])[H:6]

>  <level_of_theory>  (4) 
wb97xd/def2tzvp

>  <lot_method>  (4) 
wb97xd

>  <lot_basis>  (4) 
def2tzvp

>  <spin_multiplicity>  (4) 
2.0

>  <optical_isomers>  (4) 
1.0

>  <modes>  (4) 
IdealGasTranslation(mass=(61.0112, 'amu')),         NonlinearRotor(             inertia = ([15.0526, 92.9571, 101.83

>  <frequency_value>  (4) 
unknown

>  <frequency_units>  (4) 
unknown

>  <frequency_list>  (4) 
unknown

>  <arkane_path>  (4) 
/home/calvin/Dropbox/PersonalFolders/Calvin/ATLAS_Converged/rmg_rxn_40/output/Species/rmg_rxn_40_p1_CCsbr-S-sbr/arkane/output.py

>  <path_exists>  (4) 
True

>  <E0_value>  (4) 
-1253208.9221538596

>  <E0_units>  (4) 
kJ/mol

>  <thermo_class>  (4) 
NASA

>  <Cp0_value>  (4) 
33.257888

>  <Cp0_units>  (4) 
J/(mol*K)

>  <CpInf_value>  (4) 
182.918384

>  <CpInf_units>  (4) 
J/(mol*K)

>  <Tmin_value>  (4) 
10.0

>  <Tmin_units>  (4) 
K

>  <Tmax_value>  (4) 
3000.0

>  <Tmax_units>  (4) 
K

>  <polynomials>  (4) 
[{"name": "polynomial1", "class": "NASAPolynomial", "Tmin_value": 10.0, "Tmin_units": "K", "Tmax_value": 439.8581421122018, "Tmax_units": "K", "coeffs": [3.971340825524882, 0.0017391303507388852, 6.639625127480536e-05, -1.1832178686736569e-07, 6.905512275586847e-11, -150726216.89219528, 8.832660782853935]}, {"name": "polynomial2", "class": "NASAPolynomial", "Tmin_value": 439.8581421122018, "Tmin_units": "K", "Tmax_value": 3000.0, "Tmax_units": "K", "coeffs": [1.3688469511436883, 0.025402372753196376, -1.428823680299672e-05, 3.949171409835097e-09, -4.2936218589049863e-13, -150725987.9134574, 19.25112971011707]}]

>  <H298_value>  (4) 
-299520.8480132405

>  <H298_units>  (4) 
kcal/mol

>  <S298_value>  (4) 
67.5979149969024

>  <S298_units>  (4) 
cal/(mol*K)

>  <Cp_T_value_list>  (4) 
[15.566584983191358, 18.849865763793193, 21.789292861463114, 24.37086412808068, 28.60063628739028, 31.80085254482005, 36.720954448558686, 39.23584542044093, 40.504109889907454]

>  <Cp_T_units>  (4) 
cal/(mol*K)

>  <T_list>  (4) 
[300.0, 400.0, 500.0, 600.0, 800.0, 1000.0, 1500.0, 2000.0, 2400.0]

>  <T_units>  (4) 
K

>  <yaml_path>  (4) 
/home/calvin/Dropbox/PersonalFolders/Calvin/ATLAS_Converged/rmg_rxn_40/output/Species/rmg_rxn_40_p1_CCsbr-S-sbr/rmg_rxn_40_p1_CCsbr-S-sbr.yml

>  <frequencies_cm1>  (4) 
[226.21223041144, 334.16123964184, 489.39630978575997, 681.8298394081199, 904.8283206898, 980.8458481821998, 1069.54669756064, 1246.44023940384, 1278.3648541565199, 1403.29591808328, 1419.59814123296, 1475.8250170331198, 1482.36925404308, 2999.6708624089997, 3016.93446350348, 3020.6083006496797, 3090.0403892202, 3104.2962507445195]

>  <ZPE_kJmol>  (4) 
168.81863804478797

>  <E_elec_kJmol>  (4) 
-1253377.7407919045

>  <E0_minus_Eelec_plus_ZPE_kJmol>  (4) 
0.0

>  <rxn>  (4) 
rmg_rxn_40

>  <species_type>  (4) 
p0

>  <species_folder>  (4) 
rmg_rxn_40_p1_CCsbr-S-sbr

>  <frequencies_cm1_list>  (4) 
[226.21223041144, 334.16123964184, 489.39630978575997, 681.8298394081199, 904.8283206898, 980.8458481821998, 1069.54669756064, 1246.44023940384, 1278.3648541565199, 1403.29591808328, 1419.59814123296, 1475.8250170331198, 1482.36925404308, 2999.6708624089997, 3016.93446350348, 3020.6083006496797, 3090.0403892202, 3104.2962507445195]

>  <E0_kJmol>  (4) 
-1.25321e+06

>  <H298_kJmol>  (4) 
-1.2532e+06

$$$$

     RDKit          3D

 13 13  0  0  0  0  0  0  0  0999 V2000
    0.5794    1.5990    0.2108 C   0  0  0  0  0  3  0  0  0  1  0  0
    1.4528    0.6621   -0.2496 O   0  0  0  0  0  0  0  0  0  2  0  0
    1.0751   -0.6763    0.0423 C   0  0  0  0  0  0  0  0  0  3  0  0
   -0.3579   -0.9282   -0.3924 C   0  0  0  0  0  0  0  0  0  4  0  0
   -1.2426    0.1393    0.2269 C   0  0  0  0  0  0  0  0  0  5  0  0
   -0.7410    1.4341   -0.0749 O   0  0  0  0  0  0  0  0  0  6  0  0
    0.9183    2.6078    0.0084 H   0  0  0  0  0  0  0  0  0  7  0  0
    1.1839   -0.8508    1.1199 H   0  0  0  0  0  0  0  0  0  8  0  0
    1.7816   -1.3130   -0.4874 H   0  0  0  0  0  0  0  0  0  9  0  0
   -0.6818   -1.9210   -0.0736 H   0  0  0  0  0  0  0  0  0 10  0  0
   -0.4271   -0.8785   -1.4810 H   0  0  0  0  0  0  0  0  0 11  0  0
   -1.2832    0.0173    1.3164 H   0  0  0  0  0  0  0  0  0 12  0  0
   -2.2575    0.1083   -0.1657 H   0  0  0  0  0  0  0  0  0 13  0  0
  1  6  1  0
  1  7  1  0
  1  2  1  0
  2  3  1  0
  3  4  1  0
  3  9  1  0
  3  8  1  0
  4  5  1  0
  4 10  1  0
  4 11  1  0
  5  6  1  0
  5 12  1  0
  5 13  1  0
M  RAD  1   1   2
M  END
>  <rmg_smiles>  (5) 
[CH]1OCCCO1

>  <rmg_adjacency_list>  (5) 
multiplicity 2
1  O u0 p2 c0 {4,S} {6,S}
2  O u0 p2 c0 {5,S} {6,S}
3  C u0 p0 c0 {4,S} {5,S} {7,S} {8,S}
4  C u0 p0 c0 {1,S} {3,S} {9,S} {10,S}
5  C u0 p0 c0 {2,S} {3,S} {11,S} {12,S}
6  C u1 p0 c0 {1,S} {2,S} {13,S}
7  H u0 p0 c0 {3,S}
8  H u0 p0 c0 {3,S}
9  H u0 p0 c0 {4,S}
10 H u0 p0 c0 {4,S}
11 H u0 p0 c0 {5,S}
12 H u0 p0 c0 {5,S}
13 H u0 p0 c0 {6,S}


>  <multiplicity>  (5) 
2

>  <reaction>  (5) 
rmg_rxn_40

>  <type>  (5) 
r2

>  <role_mapnums>  (5) 
{}

>  <role_mapidx>  (5) 
{}

>  <ordered_mapped_smiles>  (5) 
[C:1]1([H:7])[O:2][C:3]([H:8])([H:9])[C:4]([H:10])([H:11])[C:5]([H:12])([H:13])[O:6]1

>  <level_of_theory>  (5) 
wb97xd/def2tzvp

>  <lot_method>  (5) 
wb97xd

>  <lot_basis>  (5) 
def2tzvp

>  <spin_multiplicity>  (5) 
2.0

>  <optical_isomers>  (5) 
1.0

>  <modes>  (5) 
IdealGasTranslation(mass=(87.0446, 'amu')),         NonlinearRotor(             inertia = ([96.7564, 101.33, 180.793

>  <frequency_value>  (5) 
unknown

>  <frequency_units>  (5) 
unknown

>  <frequency_list>  (5) 
unknown

>  <arkane_path>  (5) 
/home/calvin/Dropbox/PersonalFolders/Calvin/ATLAS_Converged/rmg_rxn_40/output/Species/rmg_rxn_40_r2_sbr-CH-sbr1OCCCO1/arkane/output.py

>  <path_exists>  (5) 
True

>  <E0_value>  (5) 
-805829.6077087377

>  <E0_units>  (5) 
kJ/mol

>  <thermo_class>  (5) 
NASA

>  <Cp0_value>  (5) 
33.257888

>  <Cp0_units>  (5) 
J/(mol*K)

>  <CpInf_value>  (5) 
307.635464

>  <CpInf_units>  (5) 
J/(mol*K)

>  <Tmin_value>  (5) 
10.0

>  <Tmin_units>  (5) 
K

>  <Tmax_value>  (5) 
3000.0

>  <Tmax_units>  (5) 
K

>  <polynomials>  (5) 
[{"name": "polynomial1", "class": "NASAPolynomial", "Tmin_value": 10.0, "Tmin_units": "K", "Tmax_value": 608.112492343142, "Tmax_units": "K", "coeffs": [4.052680972350976, -0.0047882923899246685, 0.00015490339112890275, -2.438945344349935e-07, 1.2271144192742085e-10, -96918914.0547554, 10.641162980593737]}, {"name": "polynomial2", "class": "NASAPolynomial", "Tmin_value": 608.112492343142, "Tmin_units": "K", "Tmax_value": 3000.0, "Tmax_units": "K", "coeffs": [-2.1801652399204463, 0.053800847786724684, -3.3006657387032914e-05, 9.678351907920253e-09, -1.0905566594576255e-12, -96918481.26165283, 34.93650323250774]}]

>  <H298_value>  (5) 
-192594.04417056424

>  <H298_units>  (5) 
kcal/mol

>  <S298_value>  (5) 
74.06569612686815

>  <S298_units>  (5) 
cal/(mol*K)

>  <Cp_T_value_list>  (5) 
[21.79231995372727, 28.72322049116149, 34.90931795869405, 40.07621166157428, 48.17957605835906, 54.05563435308073, 62.397532807122666, 66.31866398847424, 68.42946986859195]

>  <Cp_T_units>  (5) 
cal/(mol*K)

>  <T_list>  (5) 
[300.0, 400.0, 500.0, 600.0, 800.0, 1000.0, 1500.0, 2000.0, 2400.0]

>  <T_units>  (5) 
K

>  <yaml_path>  (5) 
/home/calvin/Dropbox/PersonalFolders/Calvin/ATLAS_Converged/rmg_rxn_40/output/Species/rmg_rxn_40_r2_sbr-CH-sbr1OCCCO1/rmg_rxn_40_r2_sbr-CH-sbr1OCCCO1.yml

>  <frequencies_cm1>  (5) 
[221.38473973147995, 259.92912833264, 404.37616453883993, 465.21765447404, 498.2203859219599, 675.711355488, 843.04605376576, 891.5750390221999, 897.2334349258798, 928.91083820704, 951.5993577043199, 1041.5293974550398, 1054.4736647832399, 1157.30676995024, 1159.53167319392, 1231.5732161860399, 1233.0290170738797, 1266.9931264665997, 1307.989028827, 1348.11969103708, 1377.30437864708, 1407.0796269946, 1418.3758178459998, 1462.8532817636399, 1490.6165034123997, 1500.0792091833598, 2984.3712191160403, 2988.60128207316, 3033.3465584182795, 3083.9562402266797, 3096.46788747972, 3099.4824940352, 3160.91454470792]

>  <ZPE_kJmol>  (5) 
286.7521305046946

>  <E_elec_kJmol>  (5) 
-806116.3598392424

>  <E0_minus_Eelec_plus_ZPE_kJmol>  (5) 
0.0

>  <rxn>  (5) 
rmg_rxn_40

>  <species_type>  (5) 
r1

>  <species_folder>  (5) 
rmg_rxn_40_r2_sbr-CH-sbr1OCCCO1

>  <frequencies_cm1_list>  (5) 
[221.38473973147995, 259.92912833264, 404.37616453883993, 465.21765447404, 498.2203859219599, 675.711355488, 843.04605376576, 891.5750390221999, 897.2334349258798, 928.91083820704, 951.5993577043199, 1041.5293974550398, 1054.4736647832399, 1157.30676995024, 1159.53167319392, 1231.5732161860399, 1233.0290170738797, 1266.9931264665997, 1307.989028827, 1348.11969103708, 1377.30437864708, 1407.0796269946, 1418.3758178459998, 1462.8532817636399, 1490.6165034123997, 1500.0792091833598, 2984.3712191160403, 2988.60128207316, 3033.3465584182795, 3083.9562402266797, 3096.46788747972, 3099.4824940352, 3160.91454470792]

>  <E0_kJmol>  (5) 
-805830

>  <H298_kJmol>  (5) 
-805813

$$$$
