
     RDKit          3D

  8  7  0  0  0  0  0  0  0  0999 V2000
    0.5703   -0.0842   -1.1342 C   0  0  0  0  0  0  0  0  0  1  0  0
    0.2674   -0.0560    0.3348 C   0  0  0  0  0  0  0  0  0  2  0  0
   -0.8849    0.1499    0.7884 N   0  0  0  0  0  0  0  0  0  3  0  0
    1.3189    0.6743   -1.3755 H   0  0  0  0  0  0  0  0  0  4  0  0
    0.9924   -1.0539   -1.4086 H   0  0  0  0  0  0  0  0  0  5  0  0
   -0.3310    0.0970   -1.7169 H   0  0  0  0  0  0  0  0  0  6  0  0
    1.1225   -0.2262    1.0076 H   0  0  0  0  0  0  0  0  0  7  0  0
   -0.8010    0.1053    1.8241 H   0  0  0  0  0  0  0  0  0  8  0  0
  1  5  1  0
  1  4  1  0
  1  6  1  0
  1  2  1  0
  2  3  1  0
  2  7  1  0
  3  8  1  0
M  END
>  <rmg_smiles>  (1) 
C[CH][NH]

>  <rmg_adjacency_list>  (1) 
1 N u0 p1 c0 {3,S} {8,S}
2 C u0 p0 c0 {3,S} {4,S} {5,S} {6,S}
3 C u0 p0 c0 {1,S} {2,S} {7,S}
4 H u0 p0 c0 {2,S}
5 H u0 p0 c0 {2,S}
6 H u0 p0 c0 {2,S}
7 H u0 p0 c0 {3,S}
8 H u0 p0 c0 {1,S}


>  <multiplicity>  (1) 
1

>  <reaction>  (1) 
rmg_rxn_16528

>  <type>  (1) 
r1h

>  <role_mapnums>  (1) 
{"r1h_a": 3, "r1h_h": 8}

>  <role_mapidx>  (1) 
{"r1h_a": 2, "r1h_h": 7}

>  <ordered_mapped_smiles>  (1) 
[C:1]([CH:2]([NH:3][H:8])[H:7])([H:4])([H:5])[H:6]

>  <mol_properties>  (1) 
{"2": {"label": "donator", "atom_type": "N3s"}, "7": {"label": "d_hydrogen", "atom_type": "H0"}}

>  <level_of_theory>  (1) 
wb97xd/def2tzvp

>  <lot_method>  (1) 
wb97xd

>  <lot_basis>  (1) 
def2tzvp

>  <spin_multiplicity>  (1) 
1.0

>  <optical_isomers>  (1) 
1.0

>  <modes>  (1) 
IdealGasTranslation(mass=(43.0422, 'amu')),         NonlinearRotor(             inertia = ([9.32783, 51.3348, 57.5532

>  <frequency_value>  (1) 
unknown

>  <frequency_units>  (1) 
unknown

>  <frequency_list>  (1) 
unknown

>  <arkane_path>  (1) 
/home/calvin/Dropbox/PersonalFolders/Calvin/ZEUS_Converged/rmg_rxn_16528/output/Species/rmg_rxn_16528_r1_CC=N/arkane/output.py

>  <path_exists>  (1) 
True

>  <E0_value>  (1) 
-351535.20335661684

>  <E0_units>  (1) 
kJ/mol

>  <thermo_class>  (1) 
NASA

>  <Cp0_value>  (1) 
33.257888

>  <Cp0_units>  (1) 
J/(mol*K)

>  <CpInf_value>  (1) 
182.918384

>  <CpInf_units>  (1) 
J/(mol*K)

>  <Tmin_value>  (1) 
10.0

>  <Tmin_units>  (1) 
K

>  <Tmax_value>  (1) 
3000.0

>  <Tmax_units>  (1) 
K

>  <polynomials>  (1) 
[{"name": "polynomial1", "class": "NASAPolynomial", "Tmin_value": 10.0, "Tmin_units": "K", "Tmax_value": 834.0183041901832, "Tmax_units": "K", "coeffs": [4.020859284868709, 0.0012406595733239277, 4.4482903010182226e-05, -5.482114439751344e-08, 2.0739201558559772e-11, -42279921.71645892, 6.726586383468645]}, {"name": "polynomial2", "class": "NASAPolynomial", "Tmin_value": 834.0183041901832, "Tmin_units": "K", "Tmax_value": 3000.0, "Tmax_units": "K", "coeffs": [0.8146767610859666, 0.025012560508124084, -1.3369721411120483e-05, 3.4917002293006827e-09, -3.579375529269218e-13, -42279678.881200545, 19.862274208798944]}]

>  <H298_value>  (1) 
-84015.86036687854

>  <H298_units>  (1) 
kcal/mol

>  <S298_value>  (1) 
62.66843297179497

>  <S298_units>  (1) 
cal/(mol*K)

>  <Cp_T_value_list>  (1) 
[14.078036689508782, 17.202765604471058, 20.2803800489589, 23.1023356383003, 27.639649626797436, 30.983090061901617, 36.21499785066487, 38.88468928045463, 40.19916387517873]

>  <Cp_T_units>  (1) 
cal/(mol*K)

>  <T_list>  (1) 
[300.0, 400.0, 500.0, 600.0, 800.0, 1000.0, 1500.0, 2000.0, 2400.0]

>  <T_units>  (1) 
K

>  <yaml_path>  (1) 
/home/calvin/Dropbox/PersonalFolders/Calvin/ZEUS_Converged/rmg_rxn_16528/output/Species/rmg_rxn_16528_r1_CC=N/rmg_rxn_16528_r1_CC=N.yml

>  <frequencies_cm1>  (1) 
[185.42920459596, 489.9250676554, 680.6761858743599, 921.32968641376, 1055.89513074448, 1069.62910138448, 1130.4431233784, 1267.5150173509198, 1378.7876474762, 1425.071128533, 1456.56312321052, 1463.3683056626398, 1737.36788691596, 2989.2124437666403, 3014.6889593038395, 3075.43431144456, 3123.3452680222, 3455.8927661138396]

>  <ZPE_kJmol>  (1) 
178.96482902382195

>  <E_elec_kJmol>  (1) 
-351714.16818564065

>  <E0_minus_Eelec_plus_ZPE_kJmol>  (1) 
0.0

>  <rxn>  (1) 
rmg_rxn_16528

>  <species_type>  (1) 
r0

>  <species_folder>  (1) 
rmg_rxn_16528_r1_CC=N

>  <frequencies_cm1_list>  (1) 
[185.42920459596, 489.9250676554, 680.6761858743599, 921.32968641376, 1055.89513074448, 1069.62910138448, 1130.4431233784, 1267.5150173509198, 1378.7876474762, 1425.071128533, 1456.56312321052, 1463.3683056626398, 1737.36788691596, 2989.2124437666403, 3014.6889593038395, 3075.43431144456, 3123.3452680222, 3455.8927661138396]

>  <E0_kJmol>  (1) 
-351535

>  <H298_kJmol>  (1) 
-351522

$$$$

     RDKit          3D

 15 14  0  0  0  0  0  0  0  0999 V2000
   -1.4286   -0.4528   -1.1341 H   0  0  0  0  0  0  0  0  0  1  0  0
   -1.2581   -2.0426    0.2120 C   0  0  0  0  0  0  0  0  0  2  0  0
   -1.1205   -0.5815   -0.0892 C   0  0  0  0  0  0  0  0  0  3  0  0
    0.1881   -0.1624    0.0221 O   0  0  0  0  0  0  0  0  0  4  0  0
    0.3604    1.2389   -0.0813 C   0  0  0  0  0  0  0  0  0  5  0  0
    1.8369    1.5504   -0.0363 C   0  0  0  0  0  0  0  0  0  6  0  0
   -0.9963   -2.2606    1.2513 H   0  0  0  0  0  0  0  0  0  7  0  0
   -2.2854   -2.3632    0.0372 H   0  0  0  0  0  0  0  0  0  8  0  0
   -0.6012   -2.6275   -0.4341 H   0  0  0  0  0  0  0  0  0  9  0  0
   -1.8196    0.0693    0.4502 H   0  0  0  0  0  0  0  0  0 10  0  0
   -0.1686    1.7303    0.7453 H   0  0  0  0  0  0  0  0  0 11  0  0
   -0.0859    1.5934   -1.0178 H   0  0  0  0  0  0  0  0  0 12  0  0
    2.3552    1.0764   -0.8708 H   0  0  0  0  0  0  0  0  0 13  0  0
    2.2786    1.1894    0.8931 H   0  0  0  0  0  0  0  0  0 14  0  0
    1.9942    2.6280   -0.0996 H   0  0  0  0  0  0  0  0  0 15  0  0
  1  3  1  0
  2  9  1  0
  2  8  1  0
  2  7  1  0
  2  3  1  0
  3  4  1  0
  3 10  1  0
  4  5  1  0
  5 11  1  0
  5 12  1  0
  5  6  1  0
  6 15  1  0
  6 14  1  0
  6 13  1  0
M  END
>  <rmg_smiles>  (2) 
CCOCC

>  <rmg_adjacency_list>  (2) 
1  O u0 p2 c0 {2,S} {3,S}
2  C u0 p0 c0 {1,S} {4,S} {6,S} {7,S}
3  C u0 p0 c0 {1,S} {5,S} {8,S} {9,S}
4  C u0 p0 c0 {2,S} {10,S} {11,S} {12,S}
5  C u0 p0 c0 {3,S} {13,S} {14,S} {15,S}
6  H u0 p0 c0 {2,S}
7  H u0 p0 c0 {2,S}
8  H u0 p0 c0 {3,S}
9  H u0 p0 c0 {3,S}
10 H u0 p0 c0 {4,S}
11 H u0 p0 c0 {4,S}
12 H u0 p0 c0 {4,S}
13 H u0 p0 c0 {5,S}
14 H u0 p0 c0 {5,S}
15 H u0 p0 c0 {5,S}


>  <multiplicity>  (2) 
1

>  <reaction>  (2) 
rmg_rxn_16528

>  <type>  (2) 
r2h

>  <role_mapnums>  (2) 
{"r2h_a": 3, "r2h_h": 1}

>  <role_mapidx>  (2) 
{"r2h_a": 2, "r2h_h": 0}

>  <ordered_mapped_smiles>  (2) 
[H:1][C:3]([C:2]([H:7])([H:8])[H:9])([O:4][C:5]([C:6]([H:13])([H:14])[H:15])([H:11])[H:12])[H:10]

>  <mol_properties>  (2) 
{"0": {"label": "a_hydrogen", "atom_type": "H0"}, "2": {"label": "acceptor", "atom_type": "Cs"}}

>  <level_of_theory>  (2) 
wb97xd/def2tzvp

>  <lot_method>  (2) 
wb97xd

>  <lot_basis>  (2) 
def2tzvp

>  <spin_multiplicity>  (2) 
1.0

>  <optical_isomers>  (2) 
1.0

>  <modes>  (2) 
IdealGasTranslation(mass=(74.0732, 'amu')),         NonlinearRotor(             inertia = ([27.7055, 224.199, 239.286

>  <frequency_value>  (2) 
unknown

>  <frequency_units>  (2) 
unknown

>  <frequency_list>  (2) 
unknown

>  <arkane_path>  (2) 
/home/calvin/Dropbox/PersonalFolders/Calvin/ZEUS_Converged/rmg_rxn_16528/output/Species/rmg_rxn_16528_p2_CCOCC/arkane/output.py

>  <path_exists>  (2) 
True

>  <E0_value>  (2) 
-613176.312811081

>  <E0_units>  (2) 
kJ/mol

>  <thermo_class>  (2) 
NASA

>  <Cp0_value>  (2) 
33.257888

>  <Cp0_units>  (2) 
J/(mol*K)

>  <CpInf_value>  (2) 
357.522296

>  <CpInf_units>  (2) 
J/(mol*K)

>  <Tmin_value>  (2) 
10.0

>  <Tmin_units>  (2) 
K

>  <Tmax_value>  (2) 
3000.0

>  <Tmax_units>  (2) 
K

>  <polynomials>  (2) 
[{"name": "polynomial1", "class": "NASAPolynomial", "Tmin_value": 10.0, "Tmin_units": "K", "Tmax_value": 447.8675762458457, "Tmax_units": "K", "coeffs": [3.6145674813150372, 0.040162298045737975, -9.267167579220253e-05, 2.7059442613152114e-07, -2.426777459262714e-10, -73748075.28188053, 9.08438462352532]}, {"name": "polynomial2", "class": "NASAPolynomial", "Tmin_value": 447.8675762458457, "Tmin_units": "K", "Tmax_value": 3000.0, "Tmax_units": "K", "coeffs": [-2.034671912780873, 0.05628489866053772, -3.168484291830743e-05, 8.654576127691184e-09, -9.217707582765635e-13, -73747224.93530564, 35.64494608787719]}]

>  <H298_value>  (2) 
-146547.7613808907

>  <H298_units>  (2) 
kcal/mol

>  <S298_value>  (2) 
78.37341548181344

>  <S298_units>  (2) 
cal/(mol*K)

>  <Cp_T_value_list>  (2) 
[25.1643254745399, 31.710870690371678, 38.17578299258069, 43.87682558129412, 53.19460324124717, 60.20875854317817, 70.83300096009044, 76.07827453914868, 78.69955475365404]

>  <Cp_T_units>  (2) 
cal/(mol*K)

>  <T_list>  (2) 
[300.0, 400.0, 500.0, 600.0, 800.0, 1000.0, 1500.0, 2000.0, 2400.0]

>  <T_units>  (2) 
K

>  <yaml_path>  (2) 
/home/calvin/Dropbox/PersonalFolders/Calvin/ZEUS_Converged/rmg_rxn_16528/output/Species/rmg_rxn_16528_p2_CCOCC/rmg_rxn_16528_p2_CCOCC.yml

>  <frequencies_cm1>  (2) 
[97.33264992568, 110.05030673831997, 194.58289602751998, 248.33079012716, 254.60721470963998, 436.05356782, 444.0673396884399, 815.26909814636, 829.360152023, 865.38435701172, 947.98045644068, 1068.20763542324, 1096.27300442608, 1164.469035639, 1181.3961544528, 1184.7335093183199, 1192.65114339228, 1290.03872920052, 1301.0533736538, 1374.4477127539599, 1392.16453487956, 1405.93970743148, 1446.2214433186, 1470.736580911, 1470.98379238252, 1486.2834356754797, 1488.7761513466398, 1505.1745122908, 1522.6784578714798, 2933.80960620488, 2943.4577205794803, 2963.1797024185194, 2967.5127701554397, 3022.8812727906, 3023.35509477768, 3101.1992403652002, 3101.4601858073597, 3102.6138393411197, 3102.76491301816]

>  <ZPE_kJmol>  (2) 
356.17314104031504

>  <E_elec_kJmol>  (2) 
-613532.4859521212

>  <E0_minus_Eelec_plus_ZPE_kJmol>  (2) 
0.0

>  <rxn>  (2) 
rmg_rxn_16528

>  <species_type>  (2) 
p1

>  <species_folder>  (2) 
rmg_rxn_16528_p2_CCOCC

>  <frequencies_cm1_list>  (2) 
[97.33264992568, 110.05030673831997, 194.58289602751998, 248.33079012716, 254.60721470963998, 436.05356782, 444.0673396884399, 815.26909814636, 829.360152023, 865.38435701172, 947.98045644068, 1068.20763542324, 1096.27300442608, 1164.469035639, 1181.3961544528, 1184.7335093183199, 1192.65114339228, 1290.03872920052, 1301.0533736538, 1374.4477127539599, 1392.16453487956, 1405.93970743148, 1446.2214433186, 1470.736580911, 1470.98379238252, 1486.2834356754797, 1488.7761513466398, 1505.1745122908, 1522.6784578714798, 2933.80960620488, 2943.4577205794803, 2963.1797024185194, 2967.5127701554397, 3022.8812727906, 3023.35509477768, 3101.1992403652002, 3101.4601858073597, 3102.6138393411197, 3102.76491301816]

>  <E0_kJmol>  (2) 
-613176

>  <H298_kJmol>  (2) 
-613156

$$$$

     RDKit          3D

 22 20  0  0  0  0  0  0  0  0999 V2000
   -0.0053   -0.4812   -3.3142 C   0  0  0  0  0  0  0  0  0  1  0  0
   -0.3082   -0.4530   -1.8452 C   0  0  0  0  0  0  0  0  0  2  0  0
   -1.4605   -0.2471   -1.3916 N   0  0  0  0  0  0  0  0  0  3  0  0
    0.7433    0.2773   -3.5556 H   0  0  0  0  0  0  0  0  0  4  0  0
    0.4168   -1.4509   -3.5886 H   0  0  0  0  0  0  0  0  0  5  0  0
   -0.9066   -0.3000   -3.8969 H   0  0  0  0  0  0  0  0  0  6  0  0
    0.5469   -0.6232   -1.1724 H   0  0  0  0  0  0  0  0  0  7  0  0
   -1.3578   -0.3016   -0.1240 H   0  0  0  0  0  0  0  0  0  8  0  0
   -1.1185   -1.9202    1.4556 C   0  0  0  0  0  0  0  0  0  9  0  0
   -0.9809   -0.4591    1.1544 C   0  0  0  0  0  3  0  0  0 10  0  0
    0.3277   -0.0400    1.2657 O   0  0  0  0  0  0  0  0  0 11  0  0
    0.5001    1.3613    1.1623 C   0  0  0  0  0  0  0  0  0 12  0  0
    1.9766    1.6728    1.2074 C   0  0  0  0  0  0  0  0  0 13  0  0
   -0.8566   -2.1382    2.4949 H   0  0  0  0  0  0  0  0  0 14  0  0
   -2.1457   -2.2408    1.2809 H   0  0  0  0  0  0  0  0  0 15  0  0
   -0.4615   -2.5051    0.8095 H   0  0  0  0  0  0  0  0  0 16  0  0
   -1.6800    0.1918    1.6938 H   0  0  0  0  0  0  0  0  0 17  0  0
   -0.0289    1.8527    1.9889 H   0  0  0  0  0  0  0  0  0 18  0  0
    0.0538    1.7158    0.2258 H   0  0  0  0  0  0  0  0  0 19  0  0
    2.4949    1.1988    0.3728 H   0  0  0  0  0  0  0  0  0 20  0  0
    2.4182    1.3119    2.1367 H   0  0  0  0  0  0  0  0  0 21  0  0
    2.1339    2.7504    1.1440 H   0  0  0  0  0  0  0  0  0 22  0  0
  1  4  1  0
  1  5  1  0
  1  6  1  0
  1  2  1  0
  2  3  1  0
  2  7  1  0
  3  8  1  0
  9 16  1  0
  9 15  1  0
  9 14  1  0
  9 10  1  0
 10 11  1  0
 10 17  1  0
 11 12  1  0
 12 19  1  0
 12 18  1  0
 12 13  1  0
 13 20  1  0
 13 21  1  0
 13 22  1  0
M  RAD  1  10   2
M  END
>  <rmg_smiles>  (3) 
CCO[CH]C.C[CH][NH]

>  <rmg_adjacency_list>  (3) 
multiplicity 2
1  O u0 p2 c0 {3,S} {7,S}
2  N u0 p1 c0 {8,S} {22,S}
3  C u0 p0 c0 {1,S} {4,S} {9,S} {10,S}
4  C u0 p0 c0 {3,S} {11,S} {12,S} {13,S}
5  C u0 p0 c0 {8,S} {14,S} {15,S} {16,S}
6  C u0 p0 c0 {7,S} {17,S} {18,S} {19,S}
7  C u1 p0 c0 {1,S} {6,S} {21,S}
8  C u0 p0 c0 {2,S} {5,S} {20,S}
9  H u0 p0 c0 {3,S}
10 H u0 p0 c0 {3,S}
11 H u0 p0 c0 {4,S}
12 H u0 p0 c0 {4,S}
13 H u0 p0 c0 {4,S}
14 H u0 p0 c0 {5,S}
15 H u0 p0 c0 {5,S}
16 H u0 p0 c0 {5,S}
17 H u0 p0 c0 {6,S}
18 H u0 p0 c0 {6,S}
19 H u0 p0 c0 {6,S}
20 H u0 p0 c0 {8,S}
21 H u0 p0 c0 {7,S}
22 H u0 p0 c0 {2,S}


>  <multiplicity>  (3) 
2

>  <reaction>  (3) 
rmg_rxn_16528

>  <type>  (3) 
ts

>  <role_mapnums>  (3) 
{"*2": 8, "*1": 3, "*3": 10, "*0": 2, "*4": 11}

>  <role_mapidx>  (3) 
{"*2": 7, "*1": 2, "*3": 9, "*0": 1, "*4": 10}

>  <ordered_mapped_smiles>  (3) 
[C:1]([CH:2]([NH:3][H:8])[H:7])([H:4])([H:5])[H:6].[C:9]([C:10]([O:11][C:12]([C:13]([H:20])([H:21])[H:22])([H:18])[H:19])[H:17])([H:14])([H:15])[H:16]

>  <mol_properties>  (3) 
{"1": {"label": "*0", "atom_type": "Cs"}, "2": {"label": "*1", "atom_type": "N3s"}, "7": {"label": "*2", "atom_type": "H0"}, "9": {"label": "*3", "atom_type": "Cs"}, "10": {"label": "*4", "atom_type": "O2s"}}

>  <level_of_theory>  (3) 
wb97xd/def2tzvp

>  <lot_method>  (3) 
wb97xd

>  <lot_basis>  (3) 
def2tzvp

>  <spin_multiplicity>  (3) 
2.0

>  <optical_isomers>  (3) 
2.0

>  <modes>  (3) 
IdealGasTranslation(mass=(116.108, 'amu')),         NonlinearRotor(             inertia = ([254.926, 426.444, 609.36

>  <frequency_value>  (3) 
-1841.66

>  <frequency_units>  (3) 
cm^-1

>  <frequency_list>  (3) 
unknown

>  <arkane_path>  (3) 
/home/calvin/Dropbox/PersonalFolders/Calvin/ZEUS_Converged/rmg_rxn_16528/output/rxns/TS0/arkane/output.py

>  <path_exists>  (3) 
True

>  <E0_value>  (3) 
-962980.0

>  <E0_units>  (3) 
kJ/mol

>  <thermo_class>  (3) 
unknown

>  <Cp0_value>  (3) 
unknown

>  <Cp0_units>  (3) 
unknown

>  <CpInf_value>  (3) 
unknown

>  <CpInf_units>  (3) 
unknown

>  <Tmin_value>  (3) 
unknown

>  <Tmin_units>  (3) 
unknown

>  <Tmax_value>  (3) 
unknown

>  <Tmax_units>  (3) 
unknown

>  <polynomials>  (3) 
unknown

>  <H298_value>  (3) 
unknown

>  <H298_units>  (3) 
unknown

>  <S298_value>  (3) 
unknown

>  <S298_units>  (3) 
unknown

>  <Cp_T_value_list>  (3) 
unknown

>  <Cp_T_units>  (3) 
unknown

>  <T_list>  (3) 
unknown

>  <T_units>  (3) 
unknown

>  <yaml_path>  (3) 
unknown

>  <frequencies_cm1>  (3) 
unknown

>  <ZPE_kJmol>  (3) 
unknown

>  <E_elec_kJmol>  (3) 
unknown

>  <E0_minus_Eelec_plus_ZPE_kJmol>  (3) 
unknown

>  <rxn>  (3) 
unknown

>  <species_type>  (3) 
unknown

>  <species_folder>  (3) 
unknown

>  <frequencies_cm1_list>  (3) 
[]

>  <ts_imag_freq_cm1>  (3) 
-1864.0286

>  <ts_freq_out_path>  (3) 
/home/calvin/Dropbox/PersonalFolders/Calvin/ZEUS_Converged/rmg_rxn_16528/output/rxns/TS0/geometry/freq.out

>  <E0_kJmol>  (3) 
-962980

>  <H298_kJmol>  (3) 
unknown

$$$$

     RDKit          3D

  7  6  0  0  0  0  0  0  0  0999 V2000
   -0.6441   -0.1356    0.0624 C   0  0  0  0  0  0  0  0  0  1  0  0
    0.8523    0.0148   -0.0333 C   0  0  0  0  0  0  0  0  0  2  0  0
    1.6700   -0.6077    0.6603 N   0  0  0  0  0  2  0  0  0  3  0  0
   -1.0940    0.8275    0.3091 H   0  0  0  0  0  0  0  0  0  4  0  0
   -0.9104   -0.8656    0.8237 H   0  0  0  0  0  0  0  0  0  5  0  0
   -1.0427   -0.4545   -0.9022 H   0  0  0  0  0  0  0  0  0  6  0  0
    1.2362    0.7308   -0.7748 H   0  0  0  0  0  0  0  0  0  7  0  0
  1  5  1  0
  1  4  1  0
  1  6  1  0
  1  2  1  0
  2  3  1  0
  2  7  1  0
M  RAD  1   3   2
M  END
>  <rmg_smiles>  (4) 
C[CH][N]

>  <rmg_adjacency_list>  (4) 
multiplicity 2
1 N u1 p2 c0 {3,S}
2 C u0 p0 c0 {3,S} {4,S} {5,S} {6,S}
3 C u0 p0 c0 {1,S} {2,S} {7,S}
4 H u0 p0 c0 {2,S}
5 H u0 p0 c0 {2,S}
6 H u0 p0 c0 {2,S}
7 H u0 p0 c0 {3,S}


>  <multiplicity>  (4) 
2

>  <reaction>  (4) 
rmg_rxn_16528

>  <type>  (4) 
r1

>  <role_mapnums>  (4) 
{}

>  <role_mapidx>  (4) 
{}

>  <ordered_mapped_smiles>  (4) 
[C:1]([CH:2]([NH:3])[H:7])([H:4])([H:5])[H:6]

>  <level_of_theory>  (4) 
wb97xd/def2tzvp

>  <lot_method>  (4) 
wb97xd

>  <lot_basis>  (4) 
def2tzvp

>  <spin_multiplicity>  (4) 
2.0

>  <optical_isomers>  (4) 
1.0

>  <modes>  (4) 
IdealGasTranslation(mass=(42.0344, 'amu')),         NonlinearRotor(             inertia = ([8.81492, 48.174, 53.8511

>  <frequency_value>  (4) 
unknown

>  <frequency_units>  (4) 
unknown

>  <frequency_list>  (4) 
unknown

>  <arkane_path>  (4) 
/home/calvin/Dropbox/PersonalFolders/Calvin/ZEUS_Converged/rmg_rxn_16528/output/Species/rmg_rxn_16528_p1_CC=sbr-N-sbr/arkane/output.py

>  <path_exists>  (4) 
True

>  <E0_value>  (4) 
-349854.82234455534

>  <E0_units>  (4) 
kJ/mol

>  <thermo_class>  (4) 
NASA

>  <Cp0_value>  (4) 
33.257888

>  <Cp0_units>  (4) 
J/(mol*K)

>  <CpInf_value>  (4) 
157.97496800000002

>  <CpInf_units>  (4) 
J/(mol*K)

>  <Tmin_value>  (4) 
10.0

>  <Tmin_units>  (4) 
K

>  <Tmax_value>  (4) 
3000.0

>  <Tmax_units>  (4) 
K

>  <polynomials>  (4) 
[{"name": "polynomial1", "class": "NASAPolynomial", "Tmin_value": 10.0, "Tmin_units": "K", "Tmax_value": 503.5856077016928, "Tmax_units": "K", "coeffs": [3.976811592049577, 0.0012685228752087534, 4.786155959427562e-05, -7.554553197268183e-08, 3.869280929218241e-11, -42077814.38325793, 7.559402827950991]}, {"name": "polynomial2", "class": "NASAPolynomial", "Tmin_value": 503.5856077016928, "Tmin_units": "K", "Tmax_value": 3000.0, "Tmax_units": "K", "coeffs": [1.4688672877735052, 0.02118998940112054, -1.1479594923736429e-05, 3.0156770231218235e-09, -3.096140671693614e-13, -42077561.800061174, 17.93823402033286]}]

>  <H298_value>  (4) 
-83614.2601862362

>  <H298_units>  (4) 
kcal/mol

>  <S298_value>  (4) 
63.84640386523673

>  <S298_units>  (4) 
cal/(mol*K)

>  <Cp_T_value_list>  (4) 
[13.788413560189577, 16.48922778111735, 18.980945997388957, 21.186536551582613, 24.822448324400693, 27.593007553675324, 31.86535612271467, 33.985319854322825, 35.01227851918305]

>  <Cp_T_units>  (4) 
cal/(mol*K)

>  <T_list>  (4) 
[300.0, 400.0, 500.0, 600.0, 800.0, 1000.0, 1500.0, 2000.0, 2400.0]

>  <T_units>  (4) 
K

>  <yaml_path>  (4) 
/home/calvin/Dropbox/PersonalFolders/Calvin/ZEUS_Converged/rmg_rxn_16528/output/Species/rmg_rxn_16528_p1_CC=sbr-N-sbr/rmg_rxn_16528_p1_CC=sbr-N-sbr.yml

>  <frequencies_cm1>  (4) 
[183.94593576684, 430.87586088872, 744.9511684695599, 909.3948659275999, 1050.2642027820798, 1063.7578289358798, 1237.9320445923597, 1377.0846351168398, 1461.72709617116, 1465.6893467008, 1739.36617964408, 2963.10416558, 3026.2186276561197, 3097.525403219, 3131.35217290532]

>  <ZPE_kJmol>  (4) 
142.8532380575317

>  <E_elec_kJmol>  (4) 
-349997.67558261286

>  <E0_minus_Eelec_plus_ZPE_kJmol>  (4) 
0.0

>  <rxn>  (4) 
rmg_rxn_16528

>  <species_type>  (4) 
p0

>  <species_folder>  (4) 
rmg_rxn_16528_p1_CC=sbr-N-sbr

>  <frequencies_cm1_list>  (4) 
[183.94593576684, 430.87586088872, 744.9511684695599, 909.3948659275999, 1050.2642027820798, 1063.7578289358798, 1237.9320445923597, 1377.0846351168398, 1461.72709617116, 1465.6893467008, 1739.36617964408, 2963.10416558, 3026.2186276561197, 3097.525403219, 3131.35217290532]

>  <E0_kJmol>  (4) 
-349855

>  <H298_kJmol>  (4) 
-349842

$$$$

     RDKit          3D

 14 13  0  0  0  0  0  0  0  0999 V2000
   -2.4803   -0.3698   -0.1229 C   0  0  0  0  0  0  0  0  0  1  0  0
   -1.1475    0.2507   -0.2967 C   0  0  0  0  0  3  0  0  0  2  0  0
   -1.0074    1.4744    0.2664 O   0  0  0  0  0  0  0  0  0  3  0  0
    0.2422    2.1039    0.0486 C   0  0  0  0  0  0  0  0  0  4  0  0
    0.2255    3.4586    0.7150 C   0  0  0  0  0  0  0  0  0  5  0  0
   -3.2683    0.1812   -0.6553 H   0  0  0  0  0  0  0  0  0  6  0  0
   -2.4720   -1.3915   -0.5031 H   0  0  0  0  0  0  0  0  0  7  0  0
   -2.7626   -0.3964    0.9325 H   0  0  0  0  0  0  0  0  0  8  0  0
   -0.5432    0.0541   -1.1800 H   0  0  0  0  0  0  0  0  0  9  0  0
    0.4141    2.2031   -1.0306 H   0  0  0  0  0  0  0  0  0 10  0  0
    1.0402    1.4749    0.4587 H   0  0  0  0  0  0  0  0  0 11  0  0
    0.0592    3.3565    1.7877 H   0  0  0  0  0  0  0  0  0 12  0  0
   -0.5674    4.0820    0.3003 H   0  0  0  0  0  0  0  0  0 13  0  0
    1.1802    3.9629    0.5591 H   0  0  0  0  0  0  0  0  0 14  0  0
  1  8  1  0
  1  7  1  0
  1  6  1  0
  1  2  1  0
  2  9  1  0
  2  3  1  0
  3  4  1  0
  4  5  1  0
  4 10  1  0
  4 11  1  0
  5 14  1  0
  5 12  1  0
  5 13  1  0
M  RAD  1   2   2
M  END
>  <rmg_smiles>  (5) 
C[CH]OCC

>  <rmg_adjacency_list>  (5) 
multiplicity 2
1  O u0 p2 c0 {2,S} {5,S}
2  C u0 p0 c0 {1,S} {3,S} {6,S} {7,S}
3  C u0 p0 c0 {2,S} {8,S} {9,S} {10,S}
4  C u0 p0 c0 {5,S} {11,S} {12,S} {13,S}
5  C u1 p0 c0 {1,S} {4,S} {14,S}
6  H u0 p0 c0 {2,S}
7  H u0 p0 c0 {2,S}
8  H u0 p0 c0 {3,S}
9  H u0 p0 c0 {3,S}
10 H u0 p0 c0 {3,S}
11 H u0 p0 c0 {4,S}
12 H u0 p0 c0 {4,S}
13 H u0 p0 c0 {4,S}
14 H u0 p0 c0 {5,S}


>  <multiplicity>  (5) 
2

>  <reaction>  (5) 
rmg_rxn_16528

>  <type>  (5) 
r2

>  <role_mapnums>  (5) 
{}

>  <role_mapidx>  (5) 
{}

>  <ordered_mapped_smiles>  (5) 
[C:1]([C:2]([O:3][C:4]([C:5]([H:12])([H:13])[H:14])([H:10])[H:11])[H:9])([H:6])([H:7])[H:8]

>  <level_of_theory>  (5) 
wb97xd/def2tzvp

>  <lot_method>  (5) 
wb97xd

>  <lot_basis>  (5) 
def2tzvp

>  <spin_multiplicity>  (5) 
2.0

>  <optical_isomers>  (5) 
2.0

>  <modes>  (5) 
IdealGasTranslation(mass=(73.0653, 'amu')),         NonlinearRotor(             inertia = ([24.4971, 222.996, 237.626

>  <frequency_value>  (5) 
unknown

>  <frequency_units>  (5) 
unknown

>  <frequency_list>  (5) 
unknown

>  <arkane_path>  (5) 
/home/calvin/Dropbox/PersonalFolders/Calvin/ZEUS_Converged/rmg_rxn_16528/output/Species/rmg_rxn_16528_r2_Csbr-CH-sbrOCC/arkane/output.py

>  <path_exists>  (5) 
True

>  <E0_value>  (5) 
-611475.7234981668

>  <E0_units>  (5) 
kJ/mol

>  <thermo_class>  (5) 
NASA

>  <Cp0_value>  (5) 
33.257888

>  <Cp0_units>  (5) 
J/(mol*K)

>  <CpInf_value>  (5) 
332.57888

>  <CpInf_units>  (5) 
J/(mol*K)

>  <Tmin_value>  (5) 
10.0

>  <Tmin_units>  (5) 
K

>  <Tmax_value>  (5) 
3000.0

>  <Tmax_units>  (5) 
K

>  <polynomials>  (5) 
[{"name": "polynomial1", "class": "NASAPolynomial", "Tmin_value": 10.0, "Tmin_units": "K", "Tmax_value": 433.8609650510096, "Tmax_units": "K", "coeffs": [3.5684288663057706, 0.045241508952627935, -0.0001119334318871191, 2.915317323490198e-07, -2.539917133760708e-10, -73543541.07061452, 11.192080825011546]}, {"name": "polynomial2", "class": "NASAPolynomial", "Tmin_value": 433.8609650510096, "Tmin_units": "K", "Tmax_value": 3000.0, "Tmax_units": "K", "coeffs": [-0.17863065218418012, 0.0504780085748467, -2.870453861825764e-05, 7.935369699466336e-09, -8.553238902000833e-13, -73542940.07418454, 29.31964689030554]}]

>  <H298_value>  (5) 
-146141.15500823298

>  <H298_units>  (5) 
kcal/mol

>  <S298_value>  (5) 
83.67045500907038

>  <S298_units>  (5) 
cal/(mol*K)

>  <Cp_T_value_list>  (5) 
[25.597001416613935, 31.619488609465975, 37.40459667414234, 42.48196496381339, 50.76406466175829, 56.98291811205437, 66.38256532233305, 71.0565575143228, 73.43007086866672]

>  <Cp_T_units>  (5) 
cal/(mol*K)

>  <T_list>  (5) 
[300.0, 400.0, 500.0, 600.0, 800.0, 1000.0, 1500.0, 2000.0, 2400.0]

>  <T_units>  (5) 
K

>  <yaml_path>  (5) 
/home/calvin/Dropbox/PersonalFolders/Calvin/ZEUS_Converged/rmg_rxn_16528/output/Species/rmg_rxn_16528_r2_Csbr-CH-sbrOCC/rmg_rxn_16528_r2_Csbr-CH-sbrOCC.yml

>  <frequencies_cm1>  (5) 
[80.07591581652, 108.99965798435998, 179.55793214736, 194.53482713028, 250.72736800383998, 430.34023603375994, 448.98410117756, 558.51251703156, 818.4553793348399, 868.34402768464, 962.0921112732799, 1013.0726102889599, 1090.80001712604, 1112.71943426748, 1171.6862372103199, 1175.22960163544, 1265.67466528516, 1294.66021032088, 1363.82448646392, 1389.706154135, 1408.11654177792, 1444.95791801972, 1452.9991578294398, 1471.2859397366, 1477.5074284365198, 1487.8079064165202, 1509.6037178222, 2953.33244546964, 2973.05442730868, 3013.9816598158795, 3025.3259195645196, 3040.9757791087995, 3089.55283326248, 3103.9254335372398, 3104.9348803792795, 3105.9717951626]

>  <ZPE_kJmol>  (5) 
319.65023798910994

>  <E_elec_kJmol>  (5) 
-611795.3737361559

>  <E0_minus_Eelec_plus_ZPE_kJmol>  (5) 
0.0

>  <rxn>  (5) 
rmg_rxn_16528

>  <species_type>  (5) 
r1

>  <species_folder>  (5) 
rmg_rxn_16528_r2_Csbr-CH-sbrOCC

>  <frequencies_cm1_list>  (5) 
[80.07591581652, 108.99965798435998, 179.55793214736, 194.53482713028, 250.72736800383998, 430.34023603375994, 448.98410117756, 558.51251703156, 818.4553793348399, 868.34402768464, 962.0921112732799, 1013.0726102889599, 1090.80001712604, 1112.71943426748, 1171.6862372103199, 1175.22960163544, 1265.67466528516, 1294.66021032088, 1363.82448646392, 1389.706154135, 1408.11654177792, 1444.95791801972, 1452.9991578294398, 1471.2859397366, 1477.5074284365198, 1487.8079064165202, 1509.6037178222, 2953.33244546964, 2973.05442730868, 3013.9816598158795, 3025.3259195645196, 3040.9757791087995, 3089.55283326248, 3103.9254335372398, 3104.9348803792795, 3105.9717951626]

>  <E0_kJmol>  (5) 
-611476

>  <H298_kJmol>  (5) 
-611455

$$$$
