
     RDKit          3D

 21 21  0  0  0  0  0  0  0  0999 V2000
    2.9436   -2.3771    0.0058 C   0  0  0  0  0  0  0  0  0  1  0  0
    2.3221   -1.0172    0.0136 C   0  0  0  0  0  0  0  0  0  2  0  0
    1.0189   -0.7788    0.0025 C   0  0  0  0  0  0  0  0  0  3  0  0
    0.3913    0.5970    0.0104 C   0  0  0  0  0  0  0  0  0  4  0  0
   -0.4442    0.7738    1.2486 C   0  0  0  0  0  0  0  0  0  5  0  0
   -1.7716    0.8176    1.2318 C   0  0  0  0  0  0  0  0  0  6  0  0
   -2.5520    0.6908   -0.0194 C   0  0  0  0  0  0  0  0  0  7  0  0
   -1.7457    0.8437   -1.2511 C   0  0  0  0  0  0  0  0  0  8  0  0
   -0.4182    0.8000   -1.2410 C   0  0  0  0  0  0  0  0  0  9  0  0
    3.5701   -2.5274    0.8890 H   0  0  0  0  0  0  0  0  0 10  0  0
    2.1837   -3.1594   -0.0104 H   0  0  0  0  0  0  0  0  0 11  0  0
    3.5884   -2.5089   -0.8671 H   0  0  0  0  0  0  0  0  0 12  0  0
    3.0091   -0.1733    0.0296 H   0  0  0  0  0  0  0  0  0 13  0  0
    0.3048   -1.5997   -0.0136 H   0  0  0  0  0  0  0  0  0 14  0  0
    1.2071    1.3294    0.0266 H   0  0  0  0  0  0  0  0  0 15  0  0
    0.0927    0.8394    2.1883 H   0  0  0  0  0  0  0  0  0 16  0  0
   -2.3216    0.9208    2.1603 H   0  0  0  0  0  0  0  0  0 17  0  0
   -2.9482   -0.3265   -0.0342 H   0  0  0  0  0  0  0  0  0 18  0  0
   -3.4625    1.2933   -0.0226 H   0  0  0  0  0  0  0  0  0 19  0  0
   -2.2761    0.9665   -2.1885 H   0  0  0  0  0  0  0  0  0 20  0  0
    0.1382    0.8852   -2.1678 H   0  0  0  0  0  0  0  0  0 21  0  0
  1 11  1  0
  1 10  1  0
  1 12  1  0
  1  2  1  0
  2 13  1  0
  2  3  1  0
  3  4  1  0
  3 14  1  0
  4  9  1  0
  4  5  1  0
  4 15  1  0
  5 16  1  0
  5  6  1  0
  6  7  1  0
  6 17  1  0
  7 18  1  0
  7 19  1  0
  7  8  1  0
  8 20  1  0
  8  9  1  0
  9 21  1  0
M  END
>  <rmg_smiles>  (1) 
C[CH][CH]C1[CH][CH]C[CH][CH]1

>  <rmg_adjacency_list>  (1) 
1  C u0 p0 c0 {4,S} {5,S} {6,S} {10,S}
2  C u0 p0 c0 {7,S} {8,S} {11,S} {12,S}
3  C u0 p0 c0 {9,S} {13,S} {14,S} {15,S}
4  C u0 p0 c0 {1,S} {9,S} {17,S}
5  C u0 p0 c0 {1,S} {7,S} {18,S}
6  C u0 p0 c0 {1,S} {8,S} {21,S}
7  C u0 p0 c0 {2,S} {5,S} {19,S}
8  C u0 p0 c0 {2,S} {6,S} {20,S}
9  C u0 p0 c0 {3,S} {4,S} {16,S}
10 H u0 p0 c0 {1,S}
11 H u0 p0 c0 {2,S}
12 H u0 p0 c0 {2,S}
13 H u0 p0 c0 {3,S}
14 H u0 p0 c0 {3,S}
15 H u0 p0 c0 {3,S}
16 H u0 p0 c0 {9,S}
17 H u0 p0 c0 {4,S}
18 H u0 p0 c0 {5,S}
19 H u0 p0 c0 {7,S}
20 H u0 p0 c0 {8,S}
21 H u0 p0 c0 {6,S}


>  <multiplicity>  (1) 
1

>  <reaction>  (1) 
rmg_rxn_15540

>  <type>  (1) 
r1h

>  <role_mapnums>  (1) 
{"r1h_a": 7, "r1h_h": 18}

>  <role_mapidx>  (1) 
{"r1h_a": 6, "r1h_h": 17}

>  <ordered_mapped_smiles>  (1) 
[C:1]([CH:2]([CH:3]([C:4]1([H:15])[CH:5]([H:16])[CH:6]([H:17])[C:7]([H:18])([H:19])[CH:8]([H:20])[CH:9]1[H:21])[H:14])[H:13])([H:10])([H:11])[H:12]

>  <mol_properties>  (1) 
{"6": {"label": "donator", "atom_type": "Cs"}, "17": {"label": "d_hydrogen", "atom_type": "H0"}}

>  <level_of_theory>  (1) 
wb97xd/def2tzvp

>  <lot_method>  (1) 
wb97xd

>  <lot_basis>  (1) 
def2tzvp

>  <spin_multiplicity>  (1) 
1.0

>  <optical_isomers>  (1) 
1.0

>  <modes>  (1) 
IdealGasTranslation(mass=(120.094, 'amu')),         NonlinearRotor(             inertia = ([123.126, 594.032, 661.794

>  <frequency_value>  (1) 
unknown

>  <frequency_units>  (1) 
unknown

>  <frequency_list>  (1) 
unknown

>  <arkane_path>  (1) 
/home/calvin/Dropbox/PersonalFolders/Calvin/ZEUS_Converged/rmg_rxn_15540/output/Species/rmg_rxn_15540_r2_CC=CC1C=CCC=C1/arkane/output.py

>  <path_exists>  (1) 
True

>  <E0_value>  (1) 
-918815.1030920484

>  <E0_units>  (1) 
kJ/mol

>  <thermo_class>  (1) 
NASA

>  <Cp0_value>  (1) 
33.257888

>  <Cp0_units>  (1) 
J/(mol*K)

>  <CpInf_value>  (1) 
507.182792

>  <CpInf_units>  (1) 
J/(mol*K)

>  <Tmin_value>  (1) 
10.0

>  <Tmin_units>  (1) 
K

>  <Tmax_value>  (1) 
3000.0

>  <Tmax_units>  (1) 
K

>  <polynomials>  (1) 
[{"name": "polynomial1", "class": "NASAPolynomial", "Tmin_value": 10.0, "Tmin_units": "K", "Tmax_value": 900.1883191296835, "Tmax_units": "K", "coeffs": [3.782160835894679, 0.03597916755508645, 7.24748983971408e-05, -1.1107772614449696e-07, 4.3391770608448577e-11, -110507940.25991882, 12.39480849585958]}, {"name": "polynomial2", "class": "NASAPolynomial", "Tmin_value": 900.1883191296835, "Tmin_units": "K", "Tmax_value": 3000.0, "Tmax_units": "K", "coeffs": [2.6783001151363197, 0.07210954727614964, -3.976118049879479e-05, 1.0576415333222445e-08, -1.0955426966738148e-12, -110509006.67971465, 10.577050271869538]}]

>  <H298_value>  (1) 
-219595.80709332135

>  <H298_units>  (1) 
kcal/mol

>  <S298_value>  (1) 
93.37419274624186

>  <S298_units>  (1) 
cal/(mol*K)

>  <Cp_T_value_list>  (1) 
[36.66600019600808, 47.23921011952451, 57.06807784755864, 65.75946391639982, 79.191974125354, 88.44567189366505, 102.39912497205734, 109.16780951851052, 112.43157741857577]

>  <Cp_T_units>  (1) 
cal/(mol*K)

>  <T_list>  (1) 
[300.0, 400.0, 500.0, 600.0, 800.0, 1000.0, 1500.0, 2000.0, 2400.0]

>  <T_units>  (1) 
K

>  <yaml_path>  (1) 
/home/calvin/Dropbox/PersonalFolders/Calvin/ZEUS_Converged/rmg_rxn_15540/output/Species/rmg_rxn_15540_r2_CC=CC1C=CCC=C1/rmg_rxn_15540_r2_CC=CC1C=CCC=C1.yml

>  <frequencies_cm1>  (1) 
[57.524736025639996, 67.77027812307999, 149.91315652092, 199.27304700108, 209.05850108208, 304.66067070712, 330.06851639111994, 382.8687665165999, 468.1223892644, 529.7192475848, 579.45682225756, 580.68601262984, 713.23256327648, 742.2181083121999, 819.92491419332, 871.8393232125198, 901.7862461930399, 937.71431338728, 968.06638850168, 973.5531097723599, 973.9651288915599, 1002.2021725274, 1012.4408476395199, 1024.58167768528, 1066.11320490064, 1078.43257656472, 1094.2197758154, 1137.50238428736, 1180.8124607005998, 1217.2898867204399, 1222.38518982788, 1240.56209996992, 1321.57879277528, 1335.9788609913198, 1346.97977147396, 1369.2906067786398, 1400.21950865992, 1403.39892286308, 1429.52093502036, 1458.63008579184, 1466.43098111536, 1478.5580771904797, 1712.0561790264398, 1739.4417164826, 1759.0057576592799, 2981.38408050184, 2987.1386141999997, 3005.2468544888397, 3006.0159568446797, 3063.04626992728, 3089.30562179096, 3106.4799520762795, 3110.40786767932, 3128.4199701736798, 3129.1410036322795, 3150.79260834624, 3153.2372551201597]

>  <ZPE_kJmol>  (1) 
479.5212568493421

>  <E_elec_kJmol>  (1) 
-919294.6243488976

>  <E0_minus_Eelec_plus_ZPE_kJmol>  (1) 
0.0

>  <rxn>  (1) 
rmg_rxn_15540

>  <species_type>  (1) 
r1

>  <species_folder>  (1) 
rmg_rxn_15540_r2_CC=CC1C=CCC=C1

>  <frequencies_cm1_list>  (1) 
[57.524736025639996, 67.77027812307999, 149.91315652092, 199.27304700108, 209.05850108208, 304.66067070712, 330.06851639111994, 382.8687665165999, 468.1223892644, 529.7192475848, 579.45682225756, 580.68601262984, 713.23256327648, 742.2181083121999, 819.92491419332, 871.8393232125198, 901.7862461930399, 937.71431338728, 968.06638850168, 973.5531097723599, 973.9651288915599, 1002.2021725274, 1012.4408476395199, 1024.58167768528, 1066.11320490064, 1078.43257656472, 1094.2197758154, 1137.50238428736, 1180.8124607005998, 1217.2898867204399, 1222.38518982788, 1240.56209996992, 1321.57879277528, 1335.9788609913198, 1346.97977147396, 1369.2906067786398, 1400.21950865992, 1403.39892286308, 1429.52093502036, 1458.63008579184, 1466.43098111536, 1478.5580771904797, 1712.0561790264398, 1739.4417164826, 1759.0057576592799, 2981.38408050184, 2987.1386141999997, 3005.2468544888397, 3006.0159568446797, 3063.04626992728, 3089.30562179096, 3106.4799520762795, 3110.40786767932, 3128.4199701736798, 3129.1410036322795, 3150.79260834624, 3153.2372551201597]

>  <E0_kJmol>  (1) 
-918815

>  <H298_kJmol>  (1) 
-918789

$$$$

     RDKit          3D

  6  5  0  0  0  0  0  0  0  0999 V2000
    0.2135   -1.0960   -0.0093 O   0  0  0  0  0  0  0  0  0  1  0  0
    0.3838    0.3001    0.0072 N   0  0  0  0  0  0  0  0  0  2  0  0
   -0.6564    0.9641    0.0033 C   0  0  0  0  0  0  0  0  0  3  0  0
    1.1182   -1.4176   -0.0032 H   0  0  0  0  0  0  0  0  0  4  0  0
   -1.6974    0.6453   -0.0110 H   0  0  0  0  0  0  0  0  0  5  0  0
   -0.4310    2.0293    0.0168 H   0  0  0  0  0  0  0  0  0  6  0  0
  1  4  1  0
  1  2  1  0
  2  3  1  0
  3  6  1  0
  3  5  1  0
M  END
>  <rmg_smiles>  (2) 
[CH2][N]O

>  <rmg_adjacency_list>  (2) 
1 O u0 p2 c0 {2,S} {6,S}
2 N u0 p1 c0 {1,S} {3,S}
3 C u0 p0 c0 {2,S} {4,S} {5,S}
4 H u0 p0 c0 {3,S}
5 H u0 p0 c0 {3,S}
6 H u0 p0 c0 {1,S}


>  <multiplicity>  (2) 
1

>  <reaction>  (2) 
rmg_rxn_15540

>  <type>  (2) 
r2h

>  <role_mapnums>  (2) 
{"r2h_a": 3, "r2h_h": 6}

>  <role_mapidx>  (2) 
{"r2h_a": 2, "r2h_h": 5}

>  <ordered_mapped_smiles>  (2) 
[O:1]([NH:2][CH:3]([H:5])[H:6])[H:4]

>  <mol_properties>  (2) 
{"2": {"label": "acceptor", "atom_type": "Cs"}, "5": {"label": "a_hydrogen", "atom_type": "H0"}}

>  <level_of_theory>  (2) 
wb97xd/def2tzvp

>  <lot_method>  (2) 
wb97xd

>  <lot_basis>  (2) 
def2tzvp

>  <spin_multiplicity>  (2) 
1.0

>  <optical_isomers>  (2) 
1.0

>  <modes>  (2) 
IdealGasTranslation(mass=(45.0215, 'amu')),         NonlinearRotor(             inertia = ([7.10552, 42.1368, 49.2423

>  <frequency_value>  (2) 
unknown

>  <frequency_units>  (2) 
unknown

>  <frequency_list>  (2) 
unknown

>  <arkane_path>  (2) 
/home/calvin/Dropbox/PersonalFolders/Calvin/ZEUS_Converged/rmg_rxn_15540/output/Species/rmg_rxn_15540_p1_ON=C/arkane/output.py

>  <path_exists>  (2) 
True

>  <E0_value>  (2) 
-445765.04652910994

>  <E0_units>  (2) 
kJ/mol

>  <thermo_class>  (2) 
NASA

>  <Cp0_value>  (2) 
33.257888

>  <Cp0_units>  (2) 
J/(mol*K)

>  <CpInf_value>  (2) 
133.031552

>  <CpInf_units>  (2) 
J/(mol*K)

>  <Tmin_value>  (2) 
10.0

>  <Tmin_units>  (2) 
K

>  <Tmax_value>  (2) 
3000.0

>  <Tmax_units>  (2) 
K

>  <polynomials>  (2) 
[{"name": "polynomial1", "class": "NASAPolynomial", "Tmin_value": 10.0, "Tmin_units": "K", "Tmax_value": 555.0008285415723, "Tmax_units": "K", "coeffs": [4.0729558966761115, -0.006525504673073184, 8.044401869233928e-05, -1.3643340673050255e-07, 7.605604608176978e-11, -53613151.050707266, 6.598063650688069]}, {"name": "polynomial2", "class": "NASAPolynomial", "Tmin_value": 555.0008285415723, "Tmin_units": "K", "Tmax_value": 3000.0, "Tmax_units": "K", "coeffs": [1.9629419554542669, 0.01794293278685335, -1.0716899102514014e-05, 3.1351804200574135e-09, -3.5588210478784073e-13, -53613059.472560614, 14.250328412630774]}]

>  <H298_value>  (2) 
-106537.6194767193

>  <H298_units>  (2) 
kcal/mol

>  <S298_value>  (2) 
60.36296822828259

>  <S298_units>  (2) 
cal/(mol*K)

>  <Cp_T_value_list>  (2) 
[12.494795700177992, 15.001608210431446, 17.130783734283074, 18.881829280437152, 21.69615330289245, 23.7834318087242, 26.9145239767162, 28.553257692891545, 29.47039525924992]

>  <Cp_T_units>  (2) 
cal/(mol*K)

>  <T_list>  (2) 
[300.0, 400.0, 500.0, 600.0, 800.0, 1000.0, 1500.0, 2000.0, 2400.0]

>  <T_units>  (2) 
K

>  <yaml_path>  (2) 
/home/calvin/Dropbox/PersonalFolders/Calvin/ZEUS_Converged/rmg_rxn_15540/output/Species/rmg_rxn_15540_p1_ON=C/rmg_rxn_15540_p1_ON=C.yml

>  <frequencies_cm1>  (2) 
[438.20980121048, 539.7244451960399, 801.7205361099999, 965.59427378648, 986.4836431299199, 1183.2914424011199, 1353.5034075279598, 1444.4016922088, 1728.97643085492, 3083.6403589019596, 3214.03754314344, 3841.1169085952]

>  <ZPE_kJmol>  (2) 
117.11863122037906

>  <E_elec_kJmol>  (2) 
-445882.1651603303

>  <E0_minus_Eelec_plus_ZPE_kJmol>  (2) 
0.0

>  <rxn>  (2) 
rmg_rxn_15540

>  <species_type>  (2) 
p0

>  <species_folder>  (2) 
rmg_rxn_15540_p1_ON=C

>  <frequencies_cm1_list>  (2) 
[438.20980121048, 539.7244451960399, 801.7205361099999, 965.59427378648, 986.4836431299199, 1183.2914424011199, 1353.5034075279598, 1444.4016922088, 1728.97643085492, 3083.6403589019596, 3214.03754314344, 3841.1169085952]

>  <E0_kJmol>  (2) 
-445765

>  <H298_kJmol>  (2) 
-445753

$$$$

     RDKit          3D

 26 25  0  0  0  0  0  0  0  0999 V2000
   -1.7772   -3.2634   -0.0561 O   0  0  0  0  0  0  0  0  0  1  0  0
   -1.6069   -1.8673   -0.0397 N   0  0  0  0  0  0  0  0  0  2  0  0
   -2.6471   -1.2034   -0.0436 C   0  0  0  0  0  3  0  0  0  3  0  0
   -0.8725   -3.5851   -0.0500 H   0  0  0  0  0  0  0  0  0  4  0  0
   -3.6882   -1.5221   -0.0578 H   0  0  0  0  0  0  0  0  0  5  0  0
    3.6137   -1.5969    0.0177 C   0  0  0  0  0  0  0  0  0  6  0  0
    2.9923   -0.2370    0.0255 C   0  0  0  0  0  0  0  0  0  7  0  0
    1.6890    0.0013    0.0144 C   0  0  0  0  0  0  0  0  0  8  0  0
    1.0614    1.3772    0.0223 C   0  0  0  0  0  0  0  0  0  9  0  0
    0.2259    1.5540    1.2605 C   0  0  0  0  0  0  0  0  0 10  0  0
   -1.1015    1.5977    1.2438 C   0  0  0  0  0  0  0  0  0 11  0  0
   -1.8819    1.4709   -0.0075 C   0  0  0  0  0  0  0  0  0 12  0  0
   -1.0755    1.6238   -1.2392 C   0  0  0  0  0  0  0  0  0 13  0  0
    0.2519    1.5801   -1.2291 C   0  0  0  0  0  0  0  0  0 14  0  0
    4.2402   -1.7472    0.9009 H   0  0  0  0  0  0  0  0  0 15  0  0
    2.8538   -2.3793    0.0015 H   0  0  0  0  0  0  0  0  0 16  0  0
    4.2585   -1.7287   -0.8551 H   0  0  0  0  0  0  0  0  0 17  0  0
    3.6792    0.6069    0.0415 H   0  0  0  0  0  0  0  0  0 18  0  0
    0.9749   -0.8195   -0.0017 H   0  0  0  0  0  0  0  0  0 19  0  0
    1.8772    2.1096    0.0385 H   0  0  0  0  0  0  0  0  0 20  0  0
    0.7628    1.6196    2.2003 H   0  0  0  0  0  0  0  0  0 21  0  0
   -1.6515    1.7010    2.1723 H   0  0  0  0  0  0  0  0  0 22  0  0
   -2.3185    0.3500   -0.0238 H   0  0  0  0  0  0  0  0  0 23  0  0
   -2.7924    2.0735   -0.0107 H   0  0  0  0  0  0  0  0  0 24  0  0
   -1.6060    1.7467   -2.1766 H   0  0  0  0  0  0  0  0  0 25  0  0
    0.8083    1.6654   -2.1559 H   0  0  0  0  0  0  0  0  0 26  0  0
  1  2  1  0
  1  4  1  0
  2  3  1  0
  3  5  1  0
  6  7  1  0
  6 16  1  0
  6 17  1  0
  6 15  1  0
  7 18  1  0
  7  8  1  0
  8 19  1  0
  8  9  1  0
  9 20  1  0
  9 14  1  0
  9 10  1  0
 10 21  1  0
 10 11  1  0
 11 12  1  0
 11 22  1  0
 12 24  1  0
 12 23  1  0
 12 13  1  0
 13 25  1  0
 13 14  1  0
 14 26  1  0
M  RAD  1   3   2
M  END
>  <rmg_smiles>  (3) 
C[CH][CH]C1[CH][CH]C[CH][CH]1.[CH][N]O

>  <rmg_adjacency_list>  (3) 
multiplicity 2
1  O u0 p2 c0 {2,S} {25,S}
2  N u0 p1 c0 {1,S} {12,S}
3  C u0 p0 c0 {6,S} {7,S} {8,S} {13,S}
4  C u0 p0 c0 {9,S} {10,S} {14,S} {15,S}
5  C u0 p0 c0 {11,S} {16,S} {17,S} {18,S}
6  C u0 p0 c0 {3,S} {11,S} {20,S}
7  C u0 p0 c0 {3,S} {9,S} {21,S}
8  C u0 p0 c0 {3,S} {10,S} {24,S}
9  C u0 p0 c0 {4,S} {7,S} {22,S}
10 C u0 p0 c0 {4,S} {8,S} {23,S}
11 C u0 p0 c0 {5,S} {6,S} {19,S}
12 C u1 p1 c0 {2,S} {26,S}
13 H u0 p0 c0 {3,S}
14 H u0 p0 c0 {4,S}
15 H u0 p0 c0 {4,S}
16 H u0 p0 c0 {5,S}
17 H u0 p0 c0 {5,S}
18 H u0 p0 c0 {5,S}
19 H u0 p0 c0 {11,S}
20 H u0 p0 c0 {6,S}
21 H u0 p0 c0 {7,S}
22 H u0 p0 c0 {9,S}
23 H u0 p0 c0 {10,S}
24 H u0 p0 c0 {8,S}
25 H u0 p0 c0 {1,S}
26 H u0 p0 c0 {12,S}


>  <multiplicity>  (3) 
2

>  <reaction>  (3) 
rmg_rxn_15540

>  <type>  (3) 
ts

>  <role_mapnums>  (3) 
{"*2": 23, "*1": 12, "*3": 3, "*0": 11, "*4": 2}

>  <role_mapidx>  (3) 
{"*2": 22, "*1": 11, "*3": 2, "*0": 10, "*4": 1}

>  <ordered_mapped_smiles>  (3) 
[O:1]([NH:2][CH:3][H:5])[H:4].[C:6]([CH:7]([CH:8]([C:9]1([H:20])[CH:10]([H:21])[CH:11]([H:22])[C:12]([H:23])([H:24])[CH:13]([H:25])[CH:14]1[H:26])[H:19])[H:18])([H:15])([H:16])[H:17]

>  <mol_properties>  (3) 
{"1": {"label": "*4", "atom_type": "N3s"}, "2": {"label": "*3", "atom_type": "C2s"}, "10": {"label": "*0", "atom_type": "Cs"}, "11": {"label": "*1", "atom_type": "Cs"}, "22": {"label": "*2", "atom_type": "H0"}}

>  <level_of_theory>  (3) 
wb97xd/def2tzvp

>  <lot_method>  (3) 
wb97xd

>  <lot_basis>  (3) 
def2tzvp

>  <spin_multiplicity>  (3) 
2.0

>  <optical_isomers>  (3) 
1.0

>  <modes>  (3) 
IdealGasTranslation(mass=(164.108, 'amu')),         NonlinearRotor(             inertia = ([576.055, 751.705, 1138.06

>  <frequency_value>  (3) 
-940.617

>  <frequency_units>  (3) 
cm^-1

>  <frequency_list>  (3) 
unknown

>  <arkane_path>  (3) 
/home/calvin/Dropbox/PersonalFolders/Calvin/ZEUS_Converged/rmg_rxn_15540/output/rxns/TS0/arkane/output.py

>  <path_exists>  (3) 
True

>  <E0_value>  (3) 
-1362810.0

>  <E0_units>  (3) 
kJ/mol

>  <thermo_class>  (3) 
unknown

>  <Cp0_value>  (3) 
unknown

>  <Cp0_units>  (3) 
unknown

>  <CpInf_value>  (3) 
unknown

>  <CpInf_units>  (3) 
unknown

>  <Tmin_value>  (3) 
unknown

>  <Tmin_units>  (3) 
unknown

>  <Tmax_value>  (3) 
unknown

>  <Tmax_units>  (3) 
unknown

>  <polynomials>  (3) 
unknown

>  <H298_value>  (3) 
unknown

>  <H298_units>  (3) 
unknown

>  <S298_value>  (3) 
unknown

>  <S298_units>  (3) 
unknown

>  <Cp_T_value_list>  (3) 
unknown

>  <Cp_T_units>  (3) 
unknown

>  <T_list>  (3) 
unknown

>  <T_units>  (3) 
unknown

>  <yaml_path>  (3) 
unknown

>  <frequencies_cm1>  (3) 
unknown

>  <ZPE_kJmol>  (3) 
unknown

>  <E_elec_kJmol>  (3) 
unknown

>  <E0_minus_Eelec_plus_ZPE_kJmol>  (3) 
unknown

>  <rxn>  (3) 
unknown

>  <species_type>  (3) 
unknown

>  <species_folder>  (3) 
unknown

>  <frequencies_cm1_list>  (3) 
[]

>  <ts_imag_freq_cm1>  (3) 
-952.0417

>  <ts_freq_out_path>  (3) 
/home/calvin/Dropbox/PersonalFolders/Calvin/ZEUS_Converged/rmg_rxn_15540/output/rxns/TS0/geometry/freq.out

>  <E0_kJmol>  (3) 
-1.36281e+06

>  <H298_kJmol>  (3) 
unknown

$$$$

     RDKit          3D

 20 20  0  0  0  0  0  0  0  0999 V2000
    3.4966    0.0809    0.0134 C   0  0  0  0  0  0  0  0  0  1  0  0
    2.1510   -0.5658    0.0876 C   0  0  0  0  0  0  0  0  0  2  0  0
    0.9936    0.0751    0.0193 C   0  0  0  0  0  0  0  0  0  3  0  0
   -0.3683   -0.5864    0.0952 C   0  0  0  0  0  0  0  0  0  4  0  0
   -1.1263   -0.1007    1.2973 C   0  0  0  0  0  3  0  0  0  5  0  0
   -2.3297    0.5159    1.2045 C   0  0  0  0  0  0  0  0  0  6  0  0
   -2.9612    0.7154   -0.0431 C   0  0  0  0  0  0  0  0  0  7  0  0
   -2.3348    0.2483   -1.2198 C   0  0  0  0  0  0  0  0  0  8  0  0
   -1.1315   -0.3743   -1.1808 C   0  0  0  0  0  0  0  0  0  9  0  0
    4.0769   -0.1202    0.9176 H   0  0  0  0  0  0  0  0  0 10  0  0
    3.4128    1.1617   -0.1057 H   0  0  0  0  0  0  0  0  0 11  0  0
    4.0732   -0.3129   -0.8276 H   0  0  0  0  0  0  0  0  0 12  0  0
    2.1415   -1.6475    0.2071 H   0  0  0  0  0  0  0  0  0 13  0  0
    0.9777    1.1561   -0.1000 H   0  0  0  0  0  0  0  0  0 14  0  0
   -0.1789   -1.6648    0.2138 H   0  0  0  0  0  0  0  0  0 15  0  0
   -0.6548   -0.2441    2.2623 H   0  0  0  0  0  0  0  0  0 16  0  0
   -2.8226    0.8604    2.1061 H   0  0  0  0  0  0  0  0  0 17  0  0
   -3.9203    1.2118   -0.0959 H   0  0  0  0  0  0  0  0  0 18  0  0
   -2.8316    0.3880   -2.1728 H   0  0  0  0  0  0  0  0  0 19  0  0
   -0.6640   -0.7249   -2.0932 H   0  0  0  0  0  0  0  0  0 20  0  0
  1 11  1  0
  1 10  1  0
  1 12  1  0
  1  2  1  0
  2 13  1  0
  2  3  1  0
  3  4  1  0
  3 14  1  0
  4  9  1  0
  4  5  1  0
  4 15  1  0
  5 16  1  0
  5  6  1  0
  6  7  1  0
  6 17  1  0
  7 18  1  0
  7  8  1  0
  8 19  1  0
  8  9  1  0
  9 20  1  0
M  RAD  1   5   2
M  END
>  <rmg_smiles>  (4) 
C[CH][CH]C1[CH][CH][CH][CH][CH]1

>  <rmg_adjacency_list>  (4) 
multiplicity 2
1  C u0 p0 c0 {3,S} {4,S} {5,S} {10,S}
2  C u0 p0 c0 {6,S} {11,S} {12,S} {13,S}
3  C u0 p0 c0 {1,S} {6,S} {15,S}
4  C u1 p0 c0 {1,S} {7,S} {16,S}
5  C u0 p0 c0 {1,S} {8,S} {17,S}
6  C u0 p0 c0 {2,S} {3,S} {14,S}
7  C u0 p0 c0 {4,S} {9,S} {18,S}
8  C u0 p0 c0 {5,S} {9,S} {20,S}
9  C u0 p0 c0 {7,S} {8,S} {19,S}
10 H u0 p0 c0 {1,S}
11 H u0 p0 c0 {2,S}
12 H u0 p0 c0 {2,S}
13 H u0 p0 c0 {2,S}
14 H u0 p0 c0 {6,S}
15 H u0 p0 c0 {3,S}
16 H u0 p0 c0 {4,S}
17 H u0 p0 c0 {5,S}
18 H u0 p0 c0 {7,S}
19 H u0 p0 c0 {9,S}
20 H u0 p0 c0 {8,S}


>  <multiplicity>  (4) 
2

>  <reaction>  (4) 
rmg_rxn_15540

>  <type>  (4) 
r1

>  <role_mapnums>  (4) 
{}

>  <role_mapidx>  (4) 
{}

>  <ordered_mapped_smiles>  (4) 
[C:1]([CH:2]([CH:3]([C:4]1([H:15])[C:5]([H:16])[CH:6]([H:17])[CH:7]([H:18])[CH:8]([H:19])[CH:9]1[H:20])[H:14])[H:13])([H:10])([H:11])[H:12]

>  <level_of_theory>  (4) 
wb97xd/def2tzvp

>  <lot_method>  (4) 
wb97xd

>  <lot_basis>  (4) 
def2tzvp

>  <spin_multiplicity>  (4) 
2.0

>  <optical_isomers>  (4) 
1.0

>  <modes>  (4) 
IdealGasTranslation(mass=(119.086, 'amu')),         NonlinearRotor(             inertia = ([118.163, 582.663, 651.606

>  <frequency_value>  (4) 
unknown

>  <frequency_units>  (4) 
unknown

>  <frequency_list>  (4) 
unknown

>  <arkane_path>  (4) 
/home/calvin/Dropbox/PersonalFolders/Calvin/ZEUS_Converged/rmg_rxn_15540/output/Species/rmg_rxn_15540_p2_CC=CC1sbr-CH-sbrC=CC=C1/arkane/output.py

>  <path_exists>  (4) 
True

>  <E0_value>  (4) 
-917193.1107626656

>  <E0_units>  (4) 
kJ/mol

>  <thermo_class>  (4) 
NASA

>  <Cp0_value>  (4) 
33.257888

>  <Cp0_units>  (4) 
J/(mol*K)

>  <CpInf_value>  (4) 
482.239376

>  <CpInf_units>  (4) 
J/(mol*K)

>  <Tmin_value>  (4) 
10.0

>  <Tmin_units>  (4) 
K

>  <Tmax_value>  (4) 
3000.0

>  <Tmax_units>  (4) 
K

>  <polynomials>  (4) 
[{"name": "polynomial1", "class": "NASAPolynomial", "Tmin_value": 10.0, "Tmin_units": "K", "Tmax_value": 801.5006130358141, "Tmax_units": "K", "coeffs": [3.7418969876697656, 0.033027325361813485, 8.82654728294995e-05, -1.432751135922189e-07, 6.160054740955542e-11, -110312854.2309099, 13.272527699565524]}, {"name": "polynomial2", "class": "NASAPolynomial", "Tmin_value": 801.5006130358141, "Tmin_units": "K", "Tmax_value": 3000.0, "Tmax_units": "K", "coeffs": [1.7852001417896757, 0.07271357740227118, -4.2003929134704184e-05, 1.16562705280266e-08, -1.2528608958415535e-12, -110313501.64225152, 16.2840594997492]}]

>  <H298_value>  (4) 
-219208.247506362

>  <H298_units>  (4) 
kcal/mol

>  <S298_value>  (4) 
93.8147488532354

>  <S298_units>  (4) 
cal/(mol*K)

>  <Cp_T_value_list>  (4) 
[36.21589161158936, 46.6649135476274, 56.163568580793644, 64.32561377752106, 76.56385902668775, 85.24769725984068, 98.0567780717605, 104.1316640910892, 107.15915712803202]

>  <Cp_T_units>  (4) 
cal/(mol*K)

>  <T_list>  (4) 
[300.0, 400.0, 500.0, 600.0, 800.0, 1000.0, 1500.0, 2000.0, 2400.0]

>  <T_units>  (4) 
K

>  <yaml_path>  (4) 
/home/calvin/Dropbox/PersonalFolders/Calvin/ZEUS_Converged/rmg_rxn_15540/output/Species/rmg_rxn_15540_p2_CC=CC1sbr-CH-sbrC=CC=C1/rmg_rxn_15540_p2_CC=CC1sbr-CH-sbrC=CC=C1.yml

>  <frequencies_cm1>  (4) 
[61.44578464336, 67.02864370852, 151.97325211692, 208.39927049136, 233.52556977723998, 333.31660044747997, 333.44020618324, 441.65702784111994, 451.0579307442, 583.7280871265999, 588.96759692576, 614.48531437488, 674.17315077632, 749.9365998118799, 795.7256579256399, 818.3180396284399, 885.9097761331999, 933.6559250631601, 972.48872704776, 972.52306197436, 983.3042289267601, 987.8845081351999, 998.8648176618798, 1026.2640890886798, 1065.83165850252, 1087.2978546128397, 1101.27216973904, 1120.30745304608, 1166.62526902948, 1192.25972522904, 1223.010085492, 1293.9803787741998, 1317.1564542291999, 1336.3290772426399, 1338.53337953036, 1392.6658248079198, 1403.9208137474, 1445.0197208876, 1466.7949313373201, 1477.76150689336, 1543.1077391984797, 1603.5990128823598, 1736.7635922077998, 2929.43533655604, 3006.93613287756, 3064.0831847106, 3090.7064867962395, 3108.4233089218396, 3114.5349258566403, 3145.0586756040398, 3146.4320726680403, 3163.8879493514796, 3165.22701148888, 3186.34299134788]

>  <ZPE_kJmol>  (4) 
444.42106480245934

>  <E_elec_kJmol>  (4) 
-917637.531827468

>  <E0_minus_Eelec_plus_ZPE_kJmol>  (4) 
0.0

>  <rxn>  (4) 
rmg_rxn_15540

>  <species_type>  (4) 
p1

>  <species_folder>  (4) 
rmg_rxn_15540_p2_CC=CC1sbr-CH-sbrC=CC=C1

>  <frequencies_cm1_list>  (4) 
[61.44578464336, 67.02864370852, 151.97325211692, 208.39927049136, 233.52556977723998, 333.31660044747997, 333.44020618324, 441.65702784111994, 451.0579307442, 583.7280871265999, 588.96759692576, 614.48531437488, 674.17315077632, 749.9365998118799, 795.7256579256399, 818.3180396284399, 885.9097761331999, 933.6559250631601, 972.48872704776, 972.52306197436, 983.3042289267601, 987.8845081351999, 998.8648176618798, 1026.2640890886798, 1065.83165850252, 1087.2978546128397, 1101.27216973904, 1120.30745304608, 1166.62526902948, 1192.25972522904, 1223.010085492, 1293.9803787741998, 1317.1564542291999, 1336.3290772426399, 1338.53337953036, 1392.6658248079198, 1403.9208137474, 1445.0197208876, 1466.7949313373201, 1477.76150689336, 1543.1077391984797, 1603.5990128823598, 1736.7635922077998, 2929.43533655604, 3006.93613287756, 3064.0831847106, 3090.7064867962395, 3108.4233089218396, 3114.5349258566403, 3145.0586756040398, 3146.4320726680403, 3163.8879493514796, 3165.22701148888, 3186.34299134788]

>  <E0_kJmol>  (4) 
-917193

>  <H298_kJmol>  (4) 
-917167

$$$$

     RDKit          3D

  5  4  0  0  0  0  0  0  0  0999 V2000
    0.8934    0.3742    0.4948 O   0  0  0  0  0  0  0  0  0  1  0  0
    0.1582   -0.1610   -0.5904 N   0  0  0  0  0  0  0  0  0  2  0  0
   -1.0297   -0.3739   -0.4689 C   0  0  0  0  0  3  0  0  0  3  0  0
    1.7805    0.4382    0.1306 H   0  0  0  0  0  0  0  0  0  4  0  0
   -1.8023   -0.2775    0.2859 H   0  0  0  0  0  0  0  0  0  5  0  0
  1  4  1  0
  1  2  1  0
  2  3  1  0
  3  5  1  0
M  RAD  1   3   2
M  END
>  <rmg_smiles>  (5) 
[CH][N]O

>  <rmg_adjacency_list>  (5) 
multiplicity 2
1 O u0 p2 c0 {2,S} {4,S}
2 N u0 p1 c0 {1,S} {3,S}
3 C u1 p1 c0 {2,S} {5,S}
4 H u0 p0 c0 {1,S}
5 H u0 p0 c0 {3,S}


>  <multiplicity>  (5) 
2

>  <reaction>  (5) 
rmg_rxn_15540

>  <type>  (5) 
r2

>  <role_mapnums>  (5) 
{}

>  <role_mapidx>  (5) 
{}

>  <ordered_mapped_smiles>  (5) 
[O:1]([NH:2][CH:3][H:5])[H:4]

>  <level_of_theory>  (5) 
wb97xd/def2tzvp

>  <lot_method>  (5) 
wb97xd

>  <lot_basis>  (5) 
def2tzvp

>  <spin_multiplicity>  (5) 
2.0

>  <optical_isomers>  (5) 
1.0

>  <modes>  (5) 
IdealGasTranslation(mass=(44.0136, 'amu')),         NonlinearRotor(             inertia = ([5.81591, 41.4826, 47.2985

>  <frequency_value>  (5) 
unknown

>  <frequency_units>  (5) 
unknown

>  <frequency_list>  (5) 
unknown

>  <arkane_path>  (5) 
/home/calvin/Dropbox/PersonalFolders/Calvin/ZEUS_Converged/rmg_rxn_15540/output/Species/rmg_rxn_15540_r1_ON=sbr-CH-sbr/arkane/output.py

>  <path_exists>  (5) 
True

>  <E0_value>  (5) 
-444005.359324532

>  <E0_units>  (5) 
kJ/mol

>  <thermo_class>  (5) 
NASA

>  <Cp0_value>  (5) 
33.257888

>  <Cp0_units>  (5) 
J/(mol*K)

>  <CpInf_value>  (5) 
108.088136

>  <CpInf_units>  (5) 
J/(mol*K)

>  <Tmin_value>  (5) 
10.0

>  <Tmin_units>  (5) 
K

>  <Tmax_value>  (5) 
3000.0

>  <Tmax_units>  (5) 
K

>  <polynomials>  (5) 
[{"name": "polynomial1", "class": "NASAPolynomial", "Tmin_value": 10.0, "Tmin_units": "K", "Tmax_value": 581.5521855773558, "Tmax_units": "K", "coeffs": [3.9651854378376354, 0.0020096300724220997, 4.068547950040168e-05, -7.790242028845132e-08, 4.4772375189871534e-11, -53401508.17068676, 6.828671301777145]}, {"name": "polynomial2", "class": "NASAPolynomial", "Tmin_value": 581.5521855773558, "Tmin_units": "K", "Tmax_value": 3000.0, "Tmax_units": "K", "coeffs": [3.5849357627708427, 0.012844035212889389, -8.4590302800557e-06, 2.7367089532336234e-09, -3.401217371194876e-13, -53401602.928060964, 7.262096783490094]}]

>  <H298_value>  (5) 
-106116.84893693788

>  <H298_units>  (5) 
kcal/mol

>  <S298_value>  (5) 
62.05085615552054

>  <S298_units>  (5) 
cal/(mol*K)

>  <Cp_T_value_list>  (5) 
[12.895099247909474, 14.783091657217865, 16.298752276569193, 17.47381546838603, 19.292328661132526, 20.6004316585094, 22.520408903315662, 23.62512089396801, 24.312373577063074]

>  <Cp_T_units>  (5) 
cal/(mol*K)

>  <T_list>  (5) 
[300.0, 400.0, 500.0, 600.0, 800.0, 1000.0, 1500.0, 2000.0, 2400.0]

>  <T_units>  (5) 
K

>  <yaml_path>  (5) 
/home/calvin/Dropbox/PersonalFolders/Calvin/ZEUS_Converged/rmg_rxn_15540/output/Species/rmg_rxn_15540_r1_ON=sbr-CH-sbr/rmg_rxn_15540_r1_ON=sbr-CH-sbr.yml

>  <frequencies_cm1>  (5) 
[407.41137205027997, 410.42597860575995, 739.51938308144, 761.67227772376, 903.0703724478799, 1348.68965081864, 1755.81260948548, 3154.3291057860397, 3817.47387813844]

>  <ZPE_kJmol>  (5) 
79.54214655441899

>  <E_elec_kJmol>  (5) 
-444084.9014710864

>  <E0_minus_Eelec_plus_ZPE_kJmol>  (5) 
0.0

>  <rxn>  (5) 
rmg_rxn_15540

>  <species_type>  (5) 
r0

>  <species_folder>  (5) 
rmg_rxn_15540_r1_ON=sbr-CH-sbr

>  <frequencies_cm1_list>  (5) 
[407.41137205027997, 410.42597860575995, 739.51938308144, 761.67227772376, 903.0703724478799, 1348.68965081864, 1755.81260948548, 3154.3291057860397, 3817.47387813844]

>  <E0_kJmol>  (5) 
-444005

>  <H298_kJmol>  (5) 
-443993

$$$$
