
     RDKit          3D

  9  9  0  0  0  0  0  0  0  0999 V2000
    0.7937   -0.2756   -1.1172 O   0  0  0  0  0  0  0  0  0  1  0  0
   -0.1114    0.3893   -0.3428 N   0  0  0  0  0  0  0  0  0  2  0  0
   -0.9815   -0.3979    0.5065 C   0  0  0  0  0  0  0  0  0  3  0  0
    0.1159    0.4306    1.0901 C   0  0  0  0  0  0  0  0  0  4  0  0
    1.1584   -1.0423   -0.6693 H   0  0  0  0  0  0  0  0  0  5  0  0
   -0.8360   -1.4715    0.4856 H   0  0  0  0  0  0  0  0  0  6  0  0
   -2.0112   -0.0673    0.5585 H   0  0  0  0  0  0  0  0  0  7  0  0
   -0.1087    1.3752    1.5695 H   0  0  0  0  0  0  0  0  0  8  0  0
    0.9933   -0.0880    1.4628 H   0  0  0  0  0  0  0  0  0  9  0  0
  1  5  1  0
  1  2  1  0
  2  3  1  0
  2  4  1  0
  3  4  1  0
  3  6  1  0
  3  7  1  0
  4  8  1  0
  4  9  1  0
M  END
>  <rmg_smiles>  (1) 
ON1CC1

>  <rmg_adjacency_list>  (1) 
1 O u0 p2 c0 {2,S} {9,S}
2 N u0 p1 c0 {1,S} {3,S} {4,S}
3 C u0 p0 c0 {2,S} {4,S} {5,S} {6,S}
4 C u0 p0 c0 {2,S} {3,S} {7,S} {8,S}
5 H u0 p0 c0 {3,S}
6 H u0 p0 c0 {3,S}
7 H u0 p0 c0 {4,S}
8 H u0 p0 c0 {4,S}
9 H u0 p0 c0 {1,S}


>  <multiplicity>  (1) 
1

>  <reaction>  (1) 
rmg_rxn_3039

>  <type>  (1) 
r1h

>  <role_mapnums>  (1) 
{"r1h_a": 1, "r1h_h": 5}

>  <role_mapidx>  (1) 
{"r1h_a": 0, "r1h_h": 4}

>  <ordered_mapped_smiles>  (1) 
[O:1]([N:2]1[C:3]([H:6])([H:7])[C:4]1([H:8])[H:9])[H:5]

>  <mol_properties>  (1) 
{"0": {"label": "donator", "atom_type": "O2s"}, "4": {"label": "d_hydrogen", "atom_type": "H0"}}

>  <level_of_theory>  (1) 
wb97xd/def2tzvp

>  <lot_method>  (1) 
wb97xd

>  <lot_basis>  (1) 
def2tzvp

>  <spin_multiplicity>  (1) 
1.0

>  <optical_isomers>  (1) 
1.0

>  <modes>  (1) 
IdealGasTranslation(mass=(59.0371, 'amu')),         NonlinearRotor(             inertia = ([28.1872, 66.5407, 77.6102

>  <frequency_value>  (1) 
unknown

>  <frequency_units>  (1) 
unknown

>  <frequency_list>  (1) 
unknown

>  <arkane_path>  (1) 
/home/calvin/Dropbox/PersonalFolders/Calvin/ATLAS_Converged/rmg_rxn_3039/output/Species/rmg_rxn_3039_r1_ON1CC1/arkane/output.py

>  <path_exists>  (1) 
True

>  <E0_value>  (1) 
-548830.9755880404

>  <E0_units>  (1) 
kJ/mol

>  <thermo_class>  (1) 
NASA

>  <Cp0_value>  (1) 
33.257888

>  <Cp0_units>  (1) 
J/(mol*K)

>  <CpInf_value>  (1) 
207.8618

>  <CpInf_units>  (1) 
J/(mol*K)

>  <Tmin_value>  (1) 
10.0

>  <Tmin_units>  (1) 
K

>  <Tmax_value>  (1) 
3000.0

>  <Tmax_units>  (1) 
K

>  <polynomials>  (1) 
[{"name": "polynomial1", "class": "NASAPolynomial", "Tmin_value": 10.0, "Tmin_units": "K", "Tmax_value": 587.2199948559334, "Tmax_units": "K", "coeffs": [4.01290829659194, -0.0016502474955422339, 9.708642231333483e-05, -1.6094228553485929e-07, 8.484346380941685e-11, -66009118.08554968, 8.391880568105824]}, {"name": "polynomial2", "class": "NASAPolynomial", "Tmin_value": 587.2199948559334, "Tmin_units": "K", "Tmax_value": 3000.0, "Tmax_units": "K", "coeffs": [0.7337841600207903, 0.03241844705827431, -1.990752940299833e-05, 5.903220459412223e-09, -6.732998606532043e-13, -66008935.2494822, 20.743767898900355]}]

>  <H298_value>  (1) 
-131170.36722140852

>  <H298_units>  (1) 
kcal/mol

>  <S298_value>  (1) 
67.20815903717752

>  <S298_units>  (1) 
cal/(mol*K)

>  <Cp_T_value_list>  (1) 
[17.084813947658525, 21.379009937156017, 25.126876739126274, 28.23021137141331, 33.135452712013276, 36.71288976391953, 41.89886219457449, 44.500561578088046, 45.980647572639626]

>  <Cp_T_units>  (1) 
cal/(mol*K)

>  <T_list>  (1) 
[300.0, 400.0, 500.0, 600.0, 800.0, 1000.0, 1500.0, 2000.0, 2400.0]

>  <T_units>  (1) 
K

>  <yaml_path>  (1) 
/home/calvin/Dropbox/PersonalFolders/Calvin/ATLAS_Converged/rmg_rxn_3039/output/Species/rmg_rxn_3039_r1_ON1CC1/rmg_rxn_3039_r1_ON1CC1.yml

>  <frequencies_cm1>  (1) 
[133.13711138415997, 422.03805078188, 447.52830028972, 737.70649895696, 837.0649095520399, 880.14837544972, 977.55656221392, 1021.37479554084, 1108.8807894735999, 1123.8508174712, 1174.6390408979198, 1175.03732604648, 1241.8668271807198, 1382.8803707269199, 1458.29360351116, 1496.32296821332, 3107.7915462724, 3111.1083001819597, 3196.87694682876, 3210.06155864316, 3845.8619954513197]

>  <ZPE_kJmol>  (1) 
191.94103937201209

>  <E_elec_kJmol>  (1) 
-549022.9166274124

>  <E0_minus_Eelec_plus_ZPE_kJmol>  (1) 
0.0

>  <rxn>  (1) 
rmg_rxn_3039

>  <species_type>  (1) 
r0

>  <species_folder>  (1) 
rmg_rxn_3039_r1_ON1CC1

>  <frequencies_cm1_list>  (1) 
[133.13711138415997, 422.03805078188, 447.52830028972, 737.70649895696, 837.0649095520399, 880.14837544972, 977.55656221392, 1021.37479554084, 1108.8807894735999, 1123.8508174712, 1174.6390408979198, 1175.03732604648, 1241.8668271807198, 1382.8803707269199, 1458.29360351116, 1496.32296821332, 3107.7915462724, 3111.1083001819597, 3196.87694682876, 3210.06155864316, 3845.8619954513197]

>  <E0_kJmol>  (1) 
-548831

>  <H298_kJmol>  (1) 
-548817

$$$$

     RDKit          3D

 15 14  0  0  0  0  0  0  0  0999 V2000
   -2.1829   -0.7265   -0.8445 H   0  0  0  0  0  0  0  0  0  1  0  0
   -1.7013   -1.6148   -0.4407 C   0  0  0  0  0  0  0  0  0  2  0  0
   -0.2332   -1.3275   -0.3472 C   0  0  0  0  0  0  0  0  0  3  0  0
    0.2355   -0.0967    0.8993 S   0  0  0  0  0  0  0  0  0  4  0  0
    0.1469    1.4457   -0.0536 C   0  0  0  0  0  0  0  0  0  5  0  0
    1.3195    1.6656   -0.9945 C   0  0  0  0  0  0  0  0  0  6  0  0
   -1.9895   -2.3174   -1.2213 H   0  0  0  0  0  0  0  0  0  7  0  0
   -2.2015   -1.7913    0.5086 H   0  0  0  0  0  0  0  0  0  8  0  0
    0.1747   -1.0318   -1.3149 H   0  0  0  0  0  0  0  0  0  9  0  0
    0.2976   -2.2417   -0.0586 H   0  0  0  0  0  0  0  0  0 10  0  0
   -0.7998    1.4706   -0.5934 H   0  0  0  0  0  0  0  0  0 11  0  0
    0.1120    2.2291    0.7054 H   0  0  0  0  0  0  0  0  0 12  0  0
    1.2104    2.6209   -1.5126 H   0  0  0  0  0  0  0  0  0 13  0  0
    2.2646    1.6711   -0.4507 H   0  0  0  0  0  0  0  0  0 14  0  0
    1.3720    0.8851   -1.7554 H   0  0  0  0  0  0  0  0  0 15  0  0
  1  2  1  0
  2  7  1  0
  2  8  1  0
  2  3  1  0
  3  9  1  0
  3 10  1  0
  3  4  1  0
  4  5  1  0
  5 11  1  0
  5 12  1  0
  5  6  1  0
  6 15  1  0
  6 14  1  0
  6 13  1  0
M  END
>  <rmg_smiles>  (2) 
CCSCC

>  <rmg_adjacency_list>  (2) 
1  S u0 p2 c0 {2,S} {3,S}
2  C u0 p0 c0 {1,S} {4,S} {6,S} {7,S}
3  C u0 p0 c0 {1,S} {5,S} {8,S} {9,S}
4  C u0 p0 c0 {2,S} {10,S} {11,S} {12,S}
5  C u0 p0 c0 {3,S} {13,S} {14,S} {15,S}
6  H u0 p0 c0 {2,S}
7  H u0 p0 c0 {2,S}
8  H u0 p0 c0 {3,S}
9  H u0 p0 c0 {3,S}
10 H u0 p0 c0 {4,S}
11 H u0 p0 c0 {4,S}
12 H u0 p0 c0 {4,S}
13 H u0 p0 c0 {5,S}
14 H u0 p0 c0 {5,S}
15 H u0 p0 c0 {5,S}


>  <multiplicity>  (2) 
1

>  <reaction>  (2) 
rmg_rxn_3039

>  <type>  (2) 
r2h

>  <role_mapnums>  (2) 
{"r2h_a": 2, "r2h_h": 1}

>  <role_mapidx>  (2) 
{"r2h_a": 1, "r2h_h": 0}

>  <ordered_mapped_smiles>  (2) 
[H:1][C:2]([C:3]([S:4][C:5]([C:6]([H:13])([H:14])[H:15])([H:11])[H:12])([H:9])[H:10])([H:7])[H:8]

>  <mol_properties>  (2) 
{"0": {"label": "a_hydrogen", "atom_type": "H0"}, "1": {"label": "acceptor", "atom_type": "Cs"}}

>  <level_of_theory>  (2) 
wb97xd/def2tzvp

>  <lot_method>  (2) 
wb97xd

>  <lot_basis>  (2) 
def2tzvp

>  <spin_multiplicity>  (2) 
1.0

>  <optical_isomers>  (2) 
2.0

>  <modes>  (2) 
IdealGasTranslation(mass=(90.0503, 'amu')),         NonlinearRotor(             inertia = ([97.9259, 182.785, 231.685

>  <frequency_value>  (2) 
unknown

>  <frequency_units>  (2) 
unknown

>  <frequency_list>  (2) 
unknown

>  <arkane_path>  (2) 
/home/calvin/Dropbox/PersonalFolders/Calvin/ATLAS_Converged/rmg_rxn_3039/output/Species/rmg_rxn_3039_p2_CCSCC/arkane/output.py

>  <path_exists>  (2) 
True

>  <E0_value>  (2) 
-1461176.7123028408

>  <E0_units>  (2) 
kJ/mol

>  <thermo_class>  (2) 
NASA

>  <Cp0_value>  (2) 
33.257888

>  <Cp0_units>  (2) 
J/(mol*K)

>  <CpInf_value>  (2) 
357.522296

>  <CpInf_units>  (2) 
J/(mol*K)

>  <Tmin_value>  (2) 
10.0

>  <Tmin_units>  (2) 
K

>  <Tmax_value>  (2) 
3000.0

>  <Tmax_units>  (2) 
K

>  <polynomials>  (2) 
[{"name": "polynomial1", "class": "NASAPolynomial", "Tmin_value": 10.0, "Tmin_units": "K", "Tmax_value": 1062.740332266501, "Tmax_units": "K", "coeffs": [3.7240768769611408, 0.031177750271788266, 1.590200165997747e-05, -3.1138888238628924e-08, 1.1081299545578661e-11, -175738967.30653694, 10.691637972640313]}, {"name": "polynomial2", "class": "NASAPolynomial", "Tmin_value": 1062.740332266501, "Tmin_units": "K", "Tmax_value": 3000.0, "Tmax_units": "K", "coeffs": [4.272256190616837, 0.04355880957526612, -2.1960566897444118e-05, 5.4018330156847166e-09, -5.231130586129144e-13, -175739899.50439465, 4.175990433518907]}]

>  <H298_value>  (2) 
-349224.4948454063

>  <H298_units>  (2) 
kcal/mol

>  <S298_value>  (2) 
82.77165630085062

>  <S298_units>  (2) 
cal/(mol*K)

>  <Cp_T_value_list>  (2) 
[27.339173580692723, 33.84270235009273, 39.920340825285514, 45.438637568785964, 54.52765007672161, 61.099128237827436, 71.10646466743047, 76.29375194018085, 78.77254304981717]

>  <Cp_T_units>  (2) 
cal/(mol*K)

>  <T_list>  (2) 
[300.0, 400.0, 500.0, 600.0, 800.0, 1000.0, 1500.0, 2000.0, 2400.0]

>  <T_units>  (2) 
K

>  <yaml_path>  (2) 
/home/calvin/Dropbox/PersonalFolders/Calvin/ATLAS_Converged/rmg_rxn_3039/output/Species/rmg_rxn_3039_p2_CCSCC/rmg_rxn_3039_p2_CCSCC.yml

>  <frequencies_cm1>  (2) 
[66.48615186823999, 121.63491097315999, 224.63969077315997, 254.99863287287997, 273.62876404604003, 341.45397805167994, 381.0490154068, 647.6597204558, 701.8333676452798, 742.1151035324, 786.8329119362398, 985.17891591912, 988.88708799192, 1023.0091380469999, 1055.1809642711999, 1060.18699656948, 1093.14852610548, 1263.72444145428, 1273.9013136985197, 1289.2490258887199, 1308.3598460342798, 1399.5396771132398, 1399.8967603498797, 1460.7725852116798, 1462.4000607325202, 1478.53747623452, 1481.2362014652797, 1489.1538355392402, 1493.6723118798, 3015.6091353367196, 3016.10355827976, 3035.3242501904397, 3036.18262335544, 3073.69009717328, 3077.2334615983996, 3086.3528181033594, 3086.8953099436403, 3101.4052499247996, 3104.1520440527997]

>  <ZPE_kJmol>  (2) 
348.0016505911852

>  <E_elec_kJmol>  (2) 
-1461524.713953432

>  <E0_minus_Eelec_plus_ZPE_kJmol>  (2) 
0.0

>  <rxn>  (2) 
rmg_rxn_3039

>  <species_type>  (2) 
p1

>  <species_folder>  (2) 
rmg_rxn_3039_p2_CCSCC

>  <frequencies_cm1_list>  (2) 
[66.48615186823999, 121.63491097315999, 224.63969077315997, 254.99863287287997, 273.62876404604003, 341.45397805167994, 381.0490154068, 647.6597204558, 701.8333676452798, 742.1151035324, 786.8329119362398, 985.17891591912, 988.88708799192, 1023.0091380469999, 1055.1809642711999, 1060.18699656948, 1093.14852610548, 1263.72444145428, 1273.9013136985197, 1289.2490258887199, 1308.3598460342798, 1399.5396771132398, 1399.8967603498797, 1460.7725852116798, 1462.4000607325202, 1478.53747623452, 1481.2362014652797, 1489.1538355392402, 1493.6723118798, 3015.6091353367196, 3016.10355827976, 3035.3242501904397, 3036.18262335544, 3073.69009717328, 3077.2334615983996, 3086.3528181033594, 3086.8953099436403, 3101.4052499247996, 3104.1520440527997]

>  <E0_kJmol>  (2) 
-1.46118e+06

>  <H298_kJmol>  (2) 
-1.46116e+06

$$$$

     RDKit          3D

 23 22  0  0  0  0  0  0  0  0999 V2000
   -1.3064    0.1436   -1.3540 O   0  0  0  0  0  0  0  0  0  1  0  0
   -2.2115    0.8085   -0.5796 N   0  0  0  0  0  0  0  0  0  2  0  0
   -3.0816    0.0213    0.2697 C   0  0  0  0  0  0  0  0  0  3  0  0
   -1.9842    0.8498    0.8534 C   0  0  0  0  0  0  0  0  0  4  0  0
   -0.8795   -0.7539   -0.8297 H   0  0  0  0  0  0  0  0  0  5  0  0
   -2.9362   -1.0523    0.2488 H   0  0  0  0  0  0  0  0  0  6  0  0
   -4.1113    0.3520    0.3217 H   0  0  0  0  0  0  0  0  0  7  0  0
   -2.2088    1.7944    1.3327 H   0  0  0  0  0  0  0  0  0  8  0  0
   -1.1068    0.3312    1.2260 H   0  0  0  0  0  0  0  0  0  9  0  0
   -0.2419   -1.9300   -0.2950 C   0  0  0  0  0  3  0  0  0 10  0  0
    1.2263   -1.6427   -0.2015 C   0  0  0  0  0  0  0  0  0 11  0  0
    1.6950   -0.4119    1.0450 S   0  0  0  0  0  0  0  0  0 12  0  0
    1.6063    1.1305    0.0921 C   0  0  0  0  0  0  0  0  0 13  0  0
    2.7790    1.3504   -0.8488 C   0  0  0  0  0  0  0  0  0 14  0  0
   -0.5300   -2.6326   -1.0756 H   0  0  0  0  0  0  0  0  0 15  0  0
   -0.7420   -2.1065    0.6544 H   0  0  0  0  0  0  0  0  0 16  0  0
    1.6342   -1.3470   -1.1692 H   0  0  0  0  0  0  0  0  0 17  0  0
    1.7571   -2.5569    0.0872 H   0  0  0  0  0  0  0  0  0 18  0  0
    0.6597    1.1554   -0.4476 H   0  0  0  0  0  0  0  0  0 19  0  0
    1.5715    1.9139    0.8511 H   0  0  0  0  0  0  0  0  0 20  0  0
    2.6698    2.3057   -1.3669 H   0  0  0  0  0  0  0  0  0 21  0  0
    3.7241    1.3559   -0.3050 H   0  0  0  0  0  0  0  0  0 22  0  0
    2.8315    0.5699   -1.6097 H   0  0  0  0  0  0  0  0  0 23  0  0
  1  2  1  0
  1  5  1  0
  2  4  1  0
  2  3  1  0
  3  4  1  0
  3  6  1  0
  3  7  1  0
  4  9  1  0
  4  8  1  0
 10 16  1  0
 10 15  1  0
 10 11  1  0
 11 12  1  0
 11 17  1  0
 11 18  1  0
 12 13  1  0
 13 19  1  0
 13 20  1  0
 13 14  1  0
 14 23  1  0
 14 22  1  0
 14 21  1  0
M  RAD  1  10   2
M  END
>  <rmg_smiles>  (3) 
ON1CC1.[CH2]CSCC

>  <rmg_adjacency_list>  (3) 
multiplicity 2
1  S u0 p2 c0 {6,S} {7,S}
2  O u0 p2 c0 {3,S} {23,S}
3  N u0 p1 c0 {2,S} {4,S} {5,S}
4  C u0 p0 c0 {3,S} {5,S} {10,S} {11,S}
5  C u0 p0 c0 {3,S} {4,S} {12,S} {13,S}
6  C u0 p0 c0 {1,S} {8,S} {14,S} {15,S}
7  C u0 p0 c0 {1,S} {9,S} {16,S} {17,S}
8  C u0 p0 c0 {6,S} {18,S} {19,S} {20,S}
9  C u1 p0 c0 {7,S} {21,S} {22,S}
10 H u0 p0 c0 {4,S}
11 H u0 p0 c0 {4,S}
12 H u0 p0 c0 {5,S}
13 H u0 p0 c0 {5,S}
14 H u0 p0 c0 {6,S}
15 H u0 p0 c0 {6,S}
16 H u0 p0 c0 {7,S}
17 H u0 p0 c0 {7,S}
18 H u0 p0 c0 {8,S}
19 H u0 p0 c0 {8,S}
20 H u0 p0 c0 {8,S}
21 H u0 p0 c0 {9,S}
22 H u0 p0 c0 {9,S}
23 H u0 p0 c0 {2,S}


>  <multiplicity>  (3) 
2

>  <reaction>  (3) 
rmg_rxn_3039

>  <type>  (3) 
ts

>  <role_mapnums>  (3) 
{"*2": 5, "*1": 1, "*3": 10, "*0": 2, "*4": 11}

>  <role_mapidx>  (3) 
{"*2": 4, "*1": 0, "*3": 9, "*0": 1, "*4": 10}

>  <ordered_mapped_smiles>  (3) 
[O:1]([N:2]1[C:3]([H:6])([H:7])[C:4]1([H:8])[H:9])[H:5].[C:10]([C:11]([S:12][C:13]([C:14]([H:21])([H:22])[H:23])([H:19])[H:20])([H:17])[H:18])([H:15])[H:16]

>  <mol_properties>  (3) 
{"0": {"label": "*1", "atom_type": "O2s"}, "1": {"label": "*0", "atom_type": "N3s"}, "4": {"label": "*2", "atom_type": "H0"}, "9": {"label": "*3", "atom_type": "Cs"}, "10": {"label": "*4", "atom_type": "Cs"}}

>  <level_of_theory>  (3) 
wb97xd/def2tzvp

>  <lot_method>  (3) 
wb97xd

>  <lot_basis>  (3) 
def2tzvp

>  <spin_multiplicity>  (3) 
2.0

>  <optical_isomers>  (3) 
2.0

>  <modes>  (3) 
IdealGasTranslation(mass=(148.08, 'amu')),         NonlinearRotor(             inertia = ([274.797, 662.011, 741.525

>  <frequency_value>  (3) 
-1809.19

>  <frequency_units>  (3) 
cm^-1

>  <frequency_list>  (3) 
unknown

>  <arkane_path>  (3) 
/home/calvin/Dropbox/PersonalFolders/Calvin/ATLAS_Converged/rmg_rxn_3039/output/rxns/TS0/arkane/output.py

>  <path_exists>  (3) 
True

>  <E0_value>  (3) 
-2008250.0

>  <E0_units>  (3) 
kJ/mol

>  <thermo_class>  (3) 
unknown

>  <Cp0_value>  (3) 
unknown

>  <Cp0_units>  (3) 
unknown

>  <CpInf_value>  (3) 
unknown

>  <CpInf_units>  (3) 
unknown

>  <Tmin_value>  (3) 
unknown

>  <Tmin_units>  (3) 
unknown

>  <Tmax_value>  (3) 
unknown

>  <Tmax_units>  (3) 
unknown

>  <polynomials>  (3) 
unknown

>  <H298_value>  (3) 
unknown

>  <H298_units>  (3) 
unknown

>  <S298_value>  (3) 
unknown

>  <S298_units>  (3) 
unknown

>  <Cp_T_value_list>  (3) 
unknown

>  <Cp_T_units>  (3) 
unknown

>  <T_list>  (3) 
unknown

>  <T_units>  (3) 
unknown

>  <yaml_path>  (3) 
unknown

>  <frequencies_cm1>  (3) 
unknown

>  <ZPE_kJmol>  (3) 
unknown

>  <E_elec_kJmol>  (3) 
unknown

>  <E0_minus_Eelec_plus_ZPE_kJmol>  (3) 
unknown

>  <rxn>  (3) 
unknown

>  <species_type>  (3) 
unknown

>  <species_folder>  (3) 
unknown

>  <frequencies_cm1_list>  (3) 
[]

>  <ts_imag_freq_cm1>  (3) 
-1831.1601

>  <ts_freq_out_path>  (3) 
/home/calvin/Dropbox/PersonalFolders/Calvin/ATLAS_Converged/rmg_rxn_3039/output/rxns/TS0/geometry/freq.out

>  <E0_kJmol>  (3) 
-2.00825e+06

>  <H298_kJmol>  (3) 
unknown

$$$$

     RDKit          3D

  8  8  0  0  0  0  0  0  0  0999 V2000
    0.0257    1.9818    0.0485 O   0  0  0  0  0  1  0  0  0  1  0  0
    0.0179    0.8208   -0.4484 N   0  0  0  0  0  0  0  0  0  2  0  0
    0.7557   -0.3258    0.0134 C   0  0  0  0  0  0  0  0  0  3  0  0
   -0.7642   -0.3055   -0.0101 C   0  0  0  0  0  0  0  0  0  4  0  0
    1.2844   -0.9009   -0.7365 H   0  0  0  0  0  0  0  0  0  5  0  0
    1.2442   -0.2188    0.9742 H   0  0  0  0  0  0  0  0  0  6  0  0
   -1.2791   -0.1851    0.9352 H   0  0  0  0  0  0  0  0  0  7  0  0
   -1.2846   -0.8666   -0.7762 H   0  0  0  0  0  0  0  0  0  8  0  0
  1  2  1  0
  2  3  1  0
  2  4  1  0
  3  4  1  0
  3  6  1  0
  3  5  1  0
  4  8  1  0
  4  7  1  0
M  RAD  1   1   2
M  END
>  <rmg_smiles>  (4) 
[O]N1CC1

>  <rmg_adjacency_list>  (4) 
multiplicity 2
1 O u1 p2 c0 {2,S}
2 N u0 p1 c0 {1,S} {3,S} {4,S}
3 C u0 p0 c0 {2,S} {4,S} {5,S} {6,S}
4 C u0 p0 c0 {2,S} {3,S} {7,S} {8,S}
5 H u0 p0 c0 {3,S}
6 H u0 p0 c0 {3,S}
7 H u0 p0 c0 {4,S}
8 H u0 p0 c0 {4,S}


>  <multiplicity>  (4) 
2

>  <reaction>  (4) 
rmg_rxn_3039

>  <type>  (4) 
r1

>  <role_mapnums>  (4) 
{}

>  <role_mapidx>  (4) 
{}

>  <ordered_mapped_smiles>  (4) 
[O:1][N:2]1[C:3]([H:5])([H:6])[C:4]1([H:7])[H:8]

>  <level_of_theory>  (4) 
wb97xd/def2tzvp

>  <lot_method>  (4) 
wb97xd

>  <lot_basis>  (4) 
def2tzvp

>  <spin_multiplicity>  (4) 
2.0

>  <optical_isomers>  (4) 
1.0

>  <modes>  (4) 
IdealGasTranslation(mass=(58.0293, 'amu')),         NonlinearRotor(             inertia = ([25.8055, 62.4608, 77.4626

>  <frequency_value>  (4) 
unknown

>  <frequency_units>  (4) 
unknown

>  <frequency_list>  (4) 
unknown

>  <arkane_path>  (4) 
/home/calvin/Dropbox/PersonalFolders/Calvin/ATLAS_Converged/rmg_rxn_3039/output/Species/rmg_rxn_3039_p1_sbr-O-sbrN1CC1/arkane/output.py

>  <path_exists>  (4) 
True

>  <E0_value>  (4) 
-547181.0539800306

>  <E0_units>  (4) 
kJ/mol

>  <thermo_class>  (4) 
NASA

>  <Cp0_value>  (4) 
33.257888

>  <Cp0_units>  (4) 
J/(mol*K)

>  <CpInf_value>  (4) 
182.918384

>  <CpInf_units>  (4) 
J/(mol*K)

>  <Tmin_value>  (4) 
10.0

>  <Tmin_units>  (4) 
K

>  <Tmax_value>  (4) 
3000.0

>  <Tmax_units>  (4) 
K

>  <polynomials>  (4) 
[{"name": "polynomial1", "class": "NASAPolynomial", "Tmin_value": 10.0, "Tmin_units": "K", "Tmax_value": 624.7357386490204, "Tmax_units": "K", "coeffs": [4.1105451907420125, -0.009033090615102013, 0.00011173695653622377, -1.734104128021453e-07, 8.700249676344132e-11, -65810679.90864667, 8.7112352700631]}, {"name": "polynomial2", "class": "NASAPolynomial", "Tmin_value": 624.7357386490204, "Tmin_units": "K", "Tmax_value": 3000.0, "Tmax_units": "K", "coeffs": [0.5509038236468667, 0.029424195237818408, -1.8213741851288973e-05, 5.401052377808208e-09, -6.146368474763313e-13, -65810540.85840035, 21.763128585627033]}]

>  <H298_value>  (4) 
-130776.41321357674

>  <H298_units>  (4) 
kcal/mol

>  <S298_value>  (4) 
65.65873371157244

>  <S298_units>  (4) 
cal/(mol*K)

>  <Cp_T_value_list>  (4) 
[14.863476305027024, 18.886846753670252, 22.43475352619028, 25.306815638075097, 29.702872533122694, 32.883841566280715, 37.40564552125166, 39.58228468223397, 40.796935988510995]

>  <Cp_T_units>  (4) 
cal/(mol*K)

>  <T_list>  (4) 
[300.0, 400.0, 500.0, 600.0, 800.0, 1000.0, 1500.0, 2000.0, 2400.0]

>  <T_units>  (4) 
K

>  <yaml_path>  (4) 
/home/calvin/Dropbox/PersonalFolders/Calvin/ATLAS_Converged/rmg_rxn_3039/output/Species/rmg_rxn_3039_p1_sbr-O-sbrN1CC1/rmg_rxn_3039_p1_sbr-O-sbrN1CC1.yml

>  <frequencies_cm1>  (4) 
[350.08577859892, 463.25369667251994, 761.6104748558798, 793.3977499021601, 893.5939327062799, 1016.15588669764, 1066.6762976968798, 1105.1726174008, 1123.1366509979198, 1153.9625480994, 1164.4896365949598, 1431.4917598071997, 1454.9768496016, 1497.97791167544, 3102.6413072824, 3105.09282104164, 3197.1310252856, 3209.5328007735197]

>  <ZPE_kJmol>  (4) 
160.84023508429246

>  <E_elec_kJmol>  (4) 
-547341.8942151149

>  <E0_minus_Eelec_plus_ZPE_kJmol>  (4) 
0.0

>  <rxn>  (4) 
rmg_rxn_3039

>  <species_type>  (4) 
p0

>  <species_folder>  (4) 
rmg_rxn_3039_p1_sbr-O-sbrN1CC1

>  <frequencies_cm1_list>  (4) 
[350.08577859892, 463.25369667251994, 761.6104748558798, 793.3977499021601, 893.5939327062799, 1016.15588669764, 1066.6762976968798, 1105.1726174008, 1123.1366509979198, 1153.9625480994, 1164.4896365949598, 1431.4917598071997, 1454.9768496016, 1497.97791167544, 3102.6413072824, 3105.09282104164, 3197.1310252856, 3209.5328007735197]

>  <E0_kJmol>  (4) 
-547181

>  <H298_kJmol>  (4) 
-547169

$$$$

     RDKit          3D

 14 13  0  0  0  0  0  0  0  0999 V2000
    2.5796   -0.5432    0.2329 C   0  0  0  0  0  3  0  0  0  1  0  0
    1.2594    0.0982    0.3029 C   0  0  0  0  0  0  0  0  0  2  0  0
   -0.0483   -1.0244    0.9576 S   0  0  0  0  0  0  0  0  0  3  0  0
   -0.0049   -2.3732   -0.2491 C   0  0  0  0  0  0  0  0  0  4  0  0
   -0.3891   -1.9781   -1.6653 C   0  0  0  0  0  0  0  0  0  5  0  0
    2.9359   -0.9798   -0.6903 H   0  0  0  0  0  0  0  0  0  6  0  0
    3.1327   -0.7454    1.1400 H   0  0  0  0  0  0  0  0  0  7  0  0
    0.9347    0.4858   -0.6621 H   0  0  0  0  0  0  0  0  0  8  0  0
    1.2442    0.9220    1.0193 H   0  0  0  0  0  0  0  0  0  9  0  0
    0.9819   -2.8380   -0.2257 H   0  0  0  0  0  0  0  0  0 10  0  0
   -0.7110   -3.1037    0.1493 H   0  0  0  0  0  0  0  0  0 11  0  0
    0.3274   -1.2737   -2.0913 H   0  0  0  0  0  0  0  0  0 12  0  0
   -0.4075   -2.8581   -2.3121 H   0  0  0  0  0  0  0  0  0 13  0  0
   -1.3749   -1.5123   -1.6865 H   0  0  0  0  0  0  0  0  0 14  0  0
  1  7  1  0
  1  6  1  0
  1  2  1  0
  2  9  1  0
  2  8  1  0
  2  3  1  0
  3  4  1  0
  4  5  1  0
  4 10  1  0
  4 11  1  0
  5 12  1  0
  5 14  1  0
  5 13  1  0
M  RAD  1   1   2
M  END
>  <rmg_smiles>  (5) 
[CH2]CSCC

>  <rmg_adjacency_list>  (5) 
multiplicity 2
1  S u0 p2 c0 {2,S} {3,S}
2  C u0 p0 c0 {1,S} {4,S} {6,S} {7,S}
3  C u0 p0 c0 {1,S} {5,S} {8,S} {9,S}
4  C u0 p0 c0 {2,S} {10,S} {11,S} {12,S}
5  C u1 p0 c0 {3,S} {13,S} {14,S}
6  H u0 p0 c0 {2,S}
7  H u0 p0 c0 {2,S}
8  H u0 p0 c0 {3,S}
9  H u0 p0 c0 {3,S}
10 H u0 p0 c0 {4,S}
11 H u0 p0 c0 {4,S}
12 H u0 p0 c0 {4,S}
13 H u0 p0 c0 {5,S}
14 H u0 p0 c0 {5,S}


>  <multiplicity>  (5) 
2

>  <reaction>  (5) 
rmg_rxn_3039

>  <type>  (5) 
r2

>  <role_mapnums>  (5) 
{}

>  <role_mapidx>  (5) 
{}

>  <ordered_mapped_smiles>  (5) 
[C:1]([C:2]([S:3][C:4]([C:5]([H:12])([H:13])[H:14])([H:10])[H:11])([H:8])[H:9])([H:6])[H:7]

>  <level_of_theory>  (5) 
wb97xd/def2tzvp

>  <lot_method>  (5) 
wb97xd

>  <lot_basis>  (5) 
def2tzvp

>  <spin_multiplicity>  (5) 
2.0

>  <optical_isomers>  (5) 
2.0

>  <modes>  (5) 
IdealGasTranslation(mass=(89.0425, 'amu')),         NonlinearRotor(             inertia = ([94.593, 177.437, 223.626

>  <frequency_value>  (5) 
unknown

>  <frequency_units>  (5) 
unknown

>  <frequency_list>  (5) 
unknown

>  <arkane_path>  (5) 
/home/calvin/Dropbox/PersonalFolders/Calvin/ATLAS_Converged/rmg_rxn_3039/output/Species/rmg_rxn_3039_r2_sbr-CH2-sbrCSCC/arkane/output.py

>  <path_exists>  (5) 
True

>  <E0_value>  (5) 
-1459449.5066336358

>  <E0_units>  (5) 
kJ/mol

>  <thermo_class>  (5) 
NASA

>  <Cp0_value>  (5) 
33.257888

>  <Cp0_units>  (5) 
J/(mol*K)

>  <CpInf_value>  (5) 
332.57888

>  <CpInf_units>  (5) 
J/(mol*K)

>  <Tmin_value>  (5) 
10.0

>  <Tmin_units>  (5) 
K

>  <Tmax_value>  (5) 
3000.0

>  <Tmax_units>  (5) 
K

>  <polynomials>  (5) 
[{"name": "polynomial1", "class": "NASAPolynomial", "Tmin_value": 10.0, "Tmin_units": "K", "Tmax_value": 1031.5071007618787, "Tmax_units": "K", "coeffs": [3.5714943853963943, 0.03773739256401581, -4.950950990783628e-06, -1.3018660382700517e-08, 5.857037102171146e-12, -175531227.33815667, 12.507822262108592]}, {"name": "polynomial2", "class": "NASAPolynomial", "Tmin_value": 1031.5071007618787, "Tmin_units": "K", "Tmax_value": 3000.0, "Tmax_units": "K", "coeffs": [5.15471759391017, 0.04014233483809902, -2.0873295447536622e-05, 5.302404611852929e-09, -5.296040450423311e-13, -175532008.5243079, 2.617170435341213]}]

>  <H298_value>  (5) 
-348811.48362080817

>  <H298_units>  (5) 
kcal/mol

>  <S298_value>  (5) 
86.99508703546594

>  <S298_units>  (5) 
cal/(mol*K)

>  <Cp_T_value_list>  (5) 
[28.10519018607643, 34.16215665606476, 39.62725284783934, 44.470956897945086, 52.31577082579914, 58.01910235786348, 66.80551106767905, 71.32437388511126, 73.51787619359425]

>  <Cp_T_units>  (5) 
cal/(mol*K)

>  <T_list>  (5) 
[300.0, 400.0, 500.0, 600.0, 800.0, 1000.0, 1500.0, 2000.0, 2400.0]

>  <T_units>  (5) 
K

>  <yaml_path>  (5) 
/home/calvin/Dropbox/PersonalFolders/Calvin/ATLAS_Converged/rmg_rxn_3039/output/Species/rmg_rxn_3039_r2_sbr-CH2-sbrCSCC/rmg_rxn_3039_r2_sbr-CH2-sbrCSCC.yml

>  <frequencies_cm1>  (5) 
[55.01828638384, 115.49582609707998, 192.74254396176, 233.70411139555998, 259.89479340604, 323.54488033712, 364.23176835811995, 563.4155445500401, 638.47169409764, 687.12428508984, 740.0206730098, 780.7556299280399, 985.7694766566399, 1009.68031954088, 1055.6959881701998, 1069.5123626340398, 1077.49179957588, 1214.7147672254398, 1255.0102370831999, 1271.8892869997599, 1297.5512111406, 1400.98174403044, 1442.24545881832, 1457.86785042132, 1467.7288413408398, 1480.70744359564, 1491.3787387829198, 3015.89754872016, 3034.4590100401197, 3035.7156683536796, 3075.4068435032796, 3086.44895589784, 3092.5949077592395, 3102.88851875392, 3127.8568773774396, 3233.1826982156]

>  <ZPE_kJmol>  (5) 
309.45664795415496

>  <E_elec_kJmol>  (5) 
-1459758.96328159

>  <E0_minus_Eelec_plus_ZPE_kJmol>  (5) 
0.0

>  <rxn>  (5) 
rmg_rxn_3039

>  <species_type>  (5) 
r1

>  <species_folder>  (5) 
rmg_rxn_3039_r2_sbr-CH2-sbrCSCC

>  <frequencies_cm1_list>  (5) 
[55.01828638384, 115.49582609707998, 192.74254396176, 233.70411139555998, 259.89479340604, 323.54488033712, 364.23176835811995, 563.4155445500401, 638.47169409764, 687.12428508984, 740.0206730098, 780.7556299280399, 985.7694766566399, 1009.68031954088, 1055.6959881701998, 1069.5123626340398, 1077.49179957588, 1214.7147672254398, 1255.0102370831999, 1271.8892869997599, 1297.5512111406, 1400.98174403044, 1442.24545881832, 1457.86785042132, 1467.7288413408398, 1480.70744359564, 1491.3787387829198, 3015.89754872016, 3034.4590100401197, 3035.7156683536796, 3075.4068435032796, 3086.44895589784, 3092.5949077592395, 3102.88851875392, 3127.8568773774396, 3233.1826982156]

>  <E0_kJmol>  (5) 
-1.45945e+06

>  <H298_kJmol>  (5) 
-1.45943e+06

$$$$
