
     RDKit          3D

 17 16  0  0  0  0  0  0  0  0999 V2000
    0.6873   -1.4564   -2.2613 C   0  0  0  0  0  0  0  0  0  1  0  0
    0.9019   -1.8060   -0.8235 C   0  0  0  0  0  0  0  0  0  2  0  0
    0.7532   -0.9741    0.1981 C   0  0  0  0  0  0  0  0  0  3  0  0
    0.4513    0.3424    0.0183 O   0  0  0  0  0  0  0  0  0  4  0  0
   -0.5182    0.7700    1.0241 N   0  0  0  0  0  0  0  0  0  5  0  0
   -1.7940    0.6030    0.5900 N   0  0  0  0  0  0  0  0  0  6  0  0
   -0.2195    2.1671    1.2667 C   0  0  0  0  0  0  0  0  0  7  0  0
    1.6355   -1.2500   -2.7664 H   0  0  0  0  0  0  0  0  0  8  0  0
    0.0519   -0.5765   -2.3627 H   0  0  0  0  0  0  0  0  0  9  0  0
    0.2151   -2.2846   -2.7926 H   0  0  0  0  0  0  0  0  0 10  0  0
    1.2333   -2.8093   -0.5829 H   0  0  0  0  0  0  0  0  0 11  0  0
    0.8897   -1.2701    1.2329 H   0  0  0  0  0  0  0  0  0 12  0  0
   -1.9391    1.0484   -0.3145 H   0  0  0  0  0  0  0  0  0 13  0  0
   -1.9161   -0.3870    0.3831 H   0  0  0  0  0  0  0  0  0 14  0  0
   -0.3415    2.7684    0.3577 H   0  0  0  0  0  0  0  0  0 15  0  0
    0.8046    2.2503    1.6223 H   0  0  0  0  0  0  0  0  0 16  0  0
   -0.9081    2.5218    2.0298 H   0  0  0  0  0  0  0  0  0 17  0  0
  1 10  1  0
  1  8  1  0
  1  9  1  0
  1  2  1  0
  2 11  1  0
  2  3  1  0
  3  4  1  0
  3 12  1  0
  4  5  1  0
  5  6  1  0
  5  7  1  0
  6 14  1  0
  6 13  1  0
  7 17  1  0
  7 15  1  0
  7 16  1  0
M  END
>  <rmg_smiles>  (1) 
C[CH][CH]ON(N)C

>  <rmg_adjacency_list>  (1) 
1  O u0 p2 c0 {2,S} {7,S}
2  N u0 p1 c0 {1,S} {3,S} {4,S}
3  N u0 p1 c0 {2,S} {16,S} {17,S}
4  C u0 p0 c0 {2,S} {11,S} {12,S} {13,S}
5  C u0 p0 c0 {6,S} {8,S} {9,S} {10,S}
6  C u0 p0 c0 {5,S} {7,S} {14,S}
7  C u0 p0 c0 {1,S} {6,S} {15,S}
8  H u0 p0 c0 {5,S}
9  H u0 p0 c0 {5,S}
10 H u0 p0 c0 {5,S}
11 H u0 p0 c0 {4,S}
12 H u0 p0 c0 {4,S}
13 H u0 p0 c0 {4,S}
14 H u0 p0 c0 {6,S}
15 H u0 p0 c0 {7,S}
16 H u0 p0 c0 {3,S}
17 H u0 p0 c0 {3,S}


>  <multiplicity>  (1) 
1

>  <reaction>  (1) 
rmg_rxn_10645

>  <type>  (1) 
r1h

>  <role_mapnums>  (1) 
{"r1h_a": 6, "r1h_h": 13}

>  <role_mapidx>  (1) 
{"r1h_a": 5, "r1h_h": 12}

>  <ordered_mapped_smiles>  (1) 
[C:1]([CH:2]([CH:3]([O:4][N:5]([N:6]([H:13])[H:14])[C:7]([H:15])([H:16])[H:17])[H:12])[H:11])([H:8])([H:9])[H:10]

>  <mol_properties>  (1) 
{"5": {"label": "donator", "atom_type": "N3s"}, "12": {"label": "d_hydrogen", "atom_type": "H0"}}

>  <level_of_theory>  (1) 
wb97xd/def2tzvp

>  <lot_method>  (1) 
wb97xd

>  <lot_basis>  (1) 
def2tzvp

>  <spin_multiplicity>  (1) 
1.0

>  <optical_isomers>  (1) 
2.0

>  <modes>  (1) 
IdealGasTranslation(mass=(102.079, 'amu')),         NonlinearRotor(             inertia = ([85.6795, 376.18, 388.876

>  <frequency_value>  (1) 
unknown

>  <frequency_units>  (1) 
unknown

>  <frequency_list>  (1) 
unknown

>  <arkane_path>  (1) 
/home/calvin/Dropbox/PersonalFolders/Calvin/ZEUS_Converged/rmg_rxn_10645/output/Species/rmg_rxn_10645_r2_CC=CONrbr-N-rbrC/arkane/output.py

>  <path_exists>  (1) 
True

>  <E0_value>  (1) 
-900405.0494296006

>  <E0_units>  (1) 
kJ/mol

>  <thermo_class>  (1) 
NASA

>  <Cp0_value>  (1) 
33.257888

>  <Cp0_units>  (1) 
J/(mol*K)

>  <CpInf_value>  (1) 
407.409128

>  <CpInf_units>  (1) 
J/(mol*K)

>  <Tmin_value>  (1) 
10.0

>  <Tmin_units>  (1) 
K

>  <Tmax_value>  (1) 
3000.0

>  <Tmax_units>  (1) 
K

>  <polynomials>  (1) 
[{"name": "polynomial1", "class": "NASAPolynomial", "Tmin_value": 10.0, "Tmin_units": "K", "Tmax_value": 1108.736796573486, "Tmax_units": "K", "coeffs": [3.593482067657345, 0.04527343613148581, -7.853115807860651e-07, -2.043658609457127e-08, 8.18045447415304e-12, -108293714.18687978, 12.85162704751556]}, {"name": "polynomial2", "class": "NASAPolynomial", "Tmin_value": 1108.736796573486, "Tmin_units": "K", "Tmax_value": 3000.0, "Tmax_units": "K", "coeffs": [7.506038002578287, 0.046589931565087575, -2.3444009976697085e-05, 5.741145862751885e-09, -5.527118171710488e-13, -108295530.30298632, -10.705520626468415]}]

>  <H298_value>  (1) 
-215195.9362782153

>  <H298_units>  (1) 
kcal/mol

>  <S298_value>  (1) 
92.63660749241524

>  <S298_units>  (1) 
cal/(mol*K)

>  <Cp_T_value_list>  (1) 
[33.0259983327988, 40.69537554931736, 47.67423133324528, 53.89446290908325, 63.981717362233816, 71.19261681574156, 81.91300293988421, 87.42841994031997, 90.0449470406118]

>  <Cp_T_units>  (1) 
cal/(mol*K)

>  <T_list>  (1) 
[300.0, 400.0, 500.0, 600.0, 800.0, 1000.0, 1500.0, 2000.0, 2400.0]

>  <T_units>  (1) 
K

>  <yaml_path>  (1) 
/home/calvin/Dropbox/PersonalFolders/Calvin/ZEUS_Converged/rmg_rxn_10645/output/Species/rmg_rxn_10645_r2_CC=CONrbr-N-rbrC/rmg_rxn_10645_r2_CC=CONrbr-N-rbrC.yml

>  <frequencies_cm1>  (1) 
[42.90492427935999, 70.94969232623998, 121.85465450339998, 166.71666959895998, 253.87244728039994, 301.92074356444, 373.40606074563993, 419.64833989052, 445.81842094504, 504.72342102, 549.00174236336, 631.06908392268, 758.13578028396, 848.92419319968, 869.8822323963199, 938.1057315505199, 966.4663809221199, 985.6939398181199, 1045.86246519196, 1060.8324931895597, 1129.8319616849199, 1145.91444130436, 1177.50257377636, 1255.0720399510801, 1275.68672988172, 1357.8776771768, 1378.40309629828, 1417.9431977708398, 1431.4368239246398, 1469.8713407606797, 1474.3760831306, 1478.2284618951198, 1482.71260330908, 1665.8688357641197, 1738.5215404497199, 2975.03898606616, 3009.26404090104, 3062.7647235291597, 3097.66960991072, 3105.09968802696, 3145.0998775159596, 3146.5076095065597, 3168.9763854735997, 3405.2006804816, 3560.0443324622797]

>  <ZPE_kJmol>  (1) 
382.271003727177

>  <E_elec_kJmol>  (1) 
-900787.3204333278

>  <E0_minus_Eelec_plus_ZPE_kJmol>  (1) 
0.0

>  <rxn>  (1) 
rmg_rxn_10645

>  <species_type>  (1) 
r1

>  <species_folder>  (1) 
rmg_rxn_10645_r2_CC=CONrbr-N-rbrC

>  <frequencies_cm1_list>  (1) 
[42.90492427935999, 70.94969232623998, 121.85465450339998, 166.71666959895998, 253.87244728039994, 301.92074356444, 373.40606074563993, 419.64833989052, 445.81842094504, 504.72342102, 549.00174236336, 631.06908392268, 758.13578028396, 848.92419319968, 869.8822323963199, 938.1057315505199, 966.4663809221199, 985.6939398181199, 1045.86246519196, 1060.8324931895597, 1129.8319616849199, 1145.91444130436, 1177.50257377636, 1255.0720399510801, 1275.68672988172, 1357.8776771768, 1378.40309629828, 1417.9431977708398, 1431.4368239246398, 1469.8713407606797, 1474.3760831306, 1478.2284618951198, 1482.71260330908, 1665.8688357641197, 1738.5215404497199, 2975.03898606616, 3009.26404090104, 3062.7647235291597, 3097.66960991072, 3105.09968802696, 3145.0998775159596, 3146.5076095065597, 3168.9763854735997, 3405.2006804816, 3560.0443324622797]

>  <E0_kJmol>  (1) 
-900405

>  <H298_kJmol>  (1) 
-900380

$$$$

     RDKit          3D

 15 14  0  0  0  0  0  0  0  0999 V2000
   -2.2026   -0.7185    0.6238 C   0  0  0  0  0  0  0  0  0  1  0  0
   -0.9105   -0.0008    0.8823 C   0  0  0  0  0  0  0  0  0  2  0  0
   -0.0070   -0.2144   -0.1289 O   0  0  0  0  0  0  0  0  0  3  0  0
    1.1784    0.5554   -0.0546 C   0  0  0  0  0  0  0  0  0  4  0  0
    1.9451    0.3897   -1.3453 C   0  0  0  0  0  0  0  0  0  5  0  0
   -2.0206   -1.7827    0.4636 H   0  0  0  0  0  0  0  0  0  6  0  0
   -2.8691   -0.6044    1.4794 H   0  0  0  0  0  0  0  0  0  7  0  0
   -2.7044   -0.3241   -0.2639 H   0  0  0  0  0  0  0  0  0  8  0  0
   -1.0255    1.0636    1.1269 H   0  0  0  0  0  0  0  0  0  9  0  0
    1.7743    0.2144    0.7985 H   0  0  0  0  0  0  0  0  0 10  0  0
    0.9164    1.6095    0.1081 H   0  0  0  0  0  0  0  0  0 11  0  0
    1.3541    0.7334   -2.1950 H   0  0  0  0  0  0  0  0  0 12  0  0
    2.2039   -0.6574   -1.5043 H   0  0  0  0  0  0  0  0  0 13  0  0
    2.8685    0.9694   -1.3061 H   0  0  0  0  0  0  0  0  0 14  0  0
   -0.5850   -0.4108    1.8477 H   0  0  0  0  0  0  0  0  0 15  0  0
  1  8  1  0
  1  7  1  0
  1  6  1  0
  1  2  1  0
  2  9  1  0
  2 15  1  0
  2  3  1  0
  3  4  1  0
  4  5  1  0
  4 10  1  0
  4 11  1  0
  5 12  1  0
  5 14  1  0
  5 13  1  0
M  END
>  <rmg_smiles>  (2) 
CCOCC

>  <rmg_adjacency_list>  (2) 
1  O u0 p2 c0 {2,S} {3,S}
2  C u0 p0 c0 {1,S} {4,S} {6,S} {9,S}
3  C u0 p0 c0 {1,S} {5,S} {7,S} {8,S}
4  C u0 p0 c0 {2,S} {10,S} {11,S} {12,S}
5  C u0 p0 c0 {3,S} {13,S} {14,S} {15,S}
6  H u0 p0 c0 {2,S}
7  H u0 p0 c0 {3,S}
8  H u0 p0 c0 {3,S}
9  H u0 p0 c0 {2,S}
10 H u0 p0 c0 {4,S}
11 H u0 p0 c0 {4,S}
12 H u0 p0 c0 {4,S}
13 H u0 p0 c0 {5,S}
14 H u0 p0 c0 {5,S}
15 H u0 p0 c0 {5,S}


>  <multiplicity>  (2) 
1

>  <reaction>  (2) 
rmg_rxn_10645

>  <type>  (2) 
r2h

>  <role_mapnums>  (2) 
{"r2h_a": 2, "r2h_h": 15}

>  <role_mapidx>  (2) 
{"r2h_a": 1, "r2h_h": 14}

>  <ordered_mapped_smiles>  (2) 
[C:1]([C:2]([O:3][C:4]([C:5]([H:12])([H:13])[H:14])([H:10])[H:11])([H:9])[H:15])([H:6])([H:7])[H:8]

>  <mol_properties>  (2) 
{"1": {"label": "acceptor", "atom_type": "Cs"}, "14": {"label": "a_hydrogen", "atom_type": "H0"}}

>  <level_of_theory>  (2) 
wb97xd/def2tzvp

>  <lot_method>  (2) 
wb97xd

>  <lot_basis>  (2) 
def2tzvp

>  <spin_multiplicity>  (2) 
1.0

>  <optical_isomers>  (2) 
1.0

>  <modes>  (2) 
IdealGasTranslation(mass=(74.0732, 'amu')),         NonlinearRotor(             inertia = ([27.7055, 224.199, 239.286

>  <frequency_value>  (2) 
unknown

>  <frequency_units>  (2) 
unknown

>  <frequency_list>  (2) 
unknown

>  <arkane_path>  (2) 
/home/calvin/Dropbox/PersonalFolders/Calvin/ZEUS_Converged/rmg_rxn_10645/output/Species/rmg_rxn_10645_p2_CCOCC/arkane/output.py

>  <path_exists>  (2) 
True

>  <E0_value>  (2) 
-613176.312811081

>  <E0_units>  (2) 
kJ/mol

>  <thermo_class>  (2) 
NASA

>  <Cp0_value>  (2) 
33.257888

>  <Cp0_units>  (2) 
J/(mol*K)

>  <CpInf_value>  (2) 
357.522296

>  <CpInf_units>  (2) 
J/(mol*K)

>  <Tmin_value>  (2) 
10.0

>  <Tmin_units>  (2) 
K

>  <Tmax_value>  (2) 
3000.0

>  <Tmax_units>  (2) 
K

>  <polynomials>  (2) 
[{"name": "polynomial1", "class": "NASAPolynomial", "Tmin_value": 10.0, "Tmin_units": "K", "Tmax_value": 447.8675762458457, "Tmax_units": "K", "coeffs": [3.6145674813150372, 0.040162298045737975, -9.267167579220253e-05, 2.7059442613152114e-07, -2.426777459262714e-10, -73748075.28188053, 9.08438462352532]}, {"name": "polynomial2", "class": "NASAPolynomial", "Tmin_value": 447.8675762458457, "Tmin_units": "K", "Tmax_value": 3000.0, "Tmax_units": "K", "coeffs": [-2.034671912780873, 0.05628489866053772, -3.168484291830743e-05, 8.654576127691184e-09, -9.217707582765635e-13, -73747224.93530564, 35.64494608787719]}]

>  <H298_value>  (2) 
-146547.7613808907

>  <H298_units>  (2) 
kcal/mol

>  <S298_value>  (2) 
78.37341548181344

>  <S298_units>  (2) 
cal/(mol*K)

>  <Cp_T_value_list>  (2) 
[25.1643254745399, 31.710870690371678, 38.17578299258069, 43.87682558129412, 53.19460324124717, 60.20875854317817, 70.83300096009044, 76.07827453914868, 78.69955475365404]

>  <Cp_T_units>  (2) 
cal/(mol*K)

>  <T_list>  (2) 
[300.0, 400.0, 500.0, 600.0, 800.0, 1000.0, 1500.0, 2000.0, 2400.0]

>  <T_units>  (2) 
K

>  <yaml_path>  (2) 
/home/calvin/Dropbox/PersonalFolders/Calvin/ZEUS_Converged/rmg_rxn_10645/output/Species/rmg_rxn_10645_p2_CCOCC/rmg_rxn_10645_p2_CCOCC.yml

>  <frequencies_cm1>  (2) 
[97.33264992568, 110.05030673831997, 194.58289602751998, 248.33079012716, 254.60721470963998, 436.05356782, 444.0673396884399, 815.26909814636, 829.360152023, 865.38435701172, 947.98045644068, 1068.20763542324, 1096.27300442608, 1164.469035639, 1181.3961544528, 1184.7335093183199, 1192.65114339228, 1290.03872920052, 1301.0533736538, 1374.4477127539599, 1392.16453487956, 1405.93970743148, 1446.2214433186, 1470.736580911, 1470.98379238252, 1486.2834356754797, 1488.7761513466398, 1505.1745122908, 1522.6784578714798, 2933.80960620488, 2943.4577205794803, 2963.1797024185194, 2967.5127701554397, 3022.8812727906, 3023.35509477768, 3101.1992403652002, 3101.4601858073597, 3102.6138393411197, 3102.76491301816]

>  <ZPE_kJmol>  (2) 
356.17314104031504

>  <E_elec_kJmol>  (2) 
-613532.4859521212

>  <E0_minus_Eelec_plus_ZPE_kJmol>  (2) 
0.0

>  <rxn>  (2) 
rmg_rxn_10645

>  <species_type>  (2) 
p1

>  <species_folder>  (2) 
rmg_rxn_10645_p2_CCOCC

>  <frequencies_cm1_list>  (2) 
[97.33264992568, 110.05030673831997, 194.58289602751998, 248.33079012716, 254.60721470963998, 436.05356782, 444.0673396884399, 815.26909814636, 829.360152023, 865.38435701172, 947.98045644068, 1068.20763542324, 1096.27300442608, 1164.469035639, 1181.3961544528, 1184.7335093183199, 1192.65114339228, 1290.03872920052, 1301.0533736538, 1374.4477127539599, 1392.16453487956, 1405.93970743148, 1446.2214433186, 1470.736580911, 1470.98379238252, 1486.2834356754797, 1488.7761513466398, 1505.1745122908, 1522.6784578714798, 2933.80960620488, 2943.4577205794803, 2963.1797024185194, 2967.5127701554397, 3022.8812727906, 3023.35509477768, 3101.1992403652002, 3101.4601858073597, 3102.6138393411197, 3102.76491301816]

>  <E0_kJmol>  (2) 
-613176

>  <H298_kJmol>  (2) 
-613156

$$$$

     RDKit          3D

 31 29  0  0  0  0  0  0  0  0999 V2000
   -3.0511    0.2429   -0.8760 C   0  0  0  0  0  0  0  0  0  1  0  0
   -1.7591    0.9605   -0.6175 C   0  0  0  0  0  3  0  0  0  2  0  0
   -0.8556    0.7469   -1.6287 O   0  0  0  0  0  0  0  0  0  3  0  0
    0.3298    1.5168   -1.5544 C   0  0  0  0  0  0  0  0  0  4  0  0
    1.0966    1.3511   -2.8451 C   0  0  0  0  0  0  0  0  0  5  0  0
   -2.8691   -0.8214   -1.0362 H   0  0  0  0  0  0  0  0  0  6  0  0
   -3.7177    0.3570   -0.0204 H   0  0  0  0  0  0  0  0  0  7  0  0
   -3.5530    0.6372   -1.7637 H   0  0  0  0  0  0  0  0  0  8  0  0
   -1.8741    2.0249   -0.3729 H   0  0  0  0  0  0  0  0  0  9  0  0
    0.9257    1.1757   -0.7013 H   0  0  0  0  0  0  0  0  0 10  0  0
    0.0679    2.5708   -1.3917 H   0  0  0  0  0  0  0  0  0 11  0  0
    0.5056    1.6947   -3.6948 H   0  0  0  0  0  0  0  0  0 12  0  0
    1.3554    0.3039   -3.0041 H   0  0  0  0  0  0  0  0  0 13  0  0
    2.0200    1.9307   -2.8059 H   0  0  0  0  0  0  0  0  0 14  0  0
    1.3074   -2.1671   -1.1353 C   0  0  0  0  0  0  0  0  0 15  0  0
    1.5221   -2.5167    0.3024 C   0  0  0  0  0  0  0  0  0 16  0  0
    1.3733   -1.6848    1.3241 C   0  0  0  0  0  0  0  0  0 17  0  0
    1.0715   -0.3683    1.1443 O   0  0  0  0  0  0  0  0  0 18  0  0
    0.1019    0.0593    2.1501 N   0  0  0  0  0  0  0  0  0 19  0  0
   -1.1738   -0.1077    1.7160 N   0  0  0  0  0  0  0  0  0 20  0  0
    0.4006    1.4564    2.3927 C   0  0  0  0  0  0  0  0  0 21  0  0
    2.2557   -1.9607   -1.6404 H   0  0  0  0  0  0  0  0  0 22  0  0
    0.6721   -1.2872   -1.2368 H   0  0  0  0  0  0  0  0  0 23  0  0
    0.8353   -2.9953   -1.6667 H   0  0  0  0  0  0  0  0  0 24  0  0
    1.8535   -3.5201    0.5431 H   0  0  0  0  0  0  0  0  0 25  0  0
    1.5098   -1.9808    2.3589 H   0  0  0  0  0  0  0  0  0 26  0  0
   -1.3567    0.4538    0.5757 H   0  0  0  0  0  0  0  0  0 27  0  0
   -1.2960   -1.0977    1.5091 H   0  0  0  0  0  0  0  0  0 28  0  0
    0.2786    2.0577    1.4837 H   0  0  0  0  0  0  0  0  0 29  0  0
    1.4247    1.5395    2.7482 H   0  0  0  0  0  0  0  0  0 30  0  0
   -0.2880    1.8110    3.1558 H   0  0  0  0  0  0  0  0  0 31  0  0
  1  7  1  0
  1  8  1  0
  1  6  1  0
  1  2  1  0
  2  3  1  0
  2  9  1  0
  3  4  1  0
  4 10  1  0
  4 11  1  0
  4  5  1  0
  5 12  1  0
  5 14  1  0
  5 13  1  0
 15 23  1  0
 15 16  1  0
 15 22  1  0
 15 24  1  0
 16 17  1  0
 16 25  1  0
 17 18  1  0
 17 26  1  0
 18 19  1  0
 19 20  1  0
 19 21  1  0
 20 28  1  0
 20 27  1  0
 21 29  1  0
 21 31  1  0
 21 30  1  0
M  RAD  1   2   2
M  END
>  <rmg_smiles>  (3) 
C[CH][CH]ON(N)C.CCO[CH]C

>  <rmg_adjacency_list>  (3) 
multiplicity 2
1  O u0 p2 c0 {5,S} {11,S}
2  O u0 p2 c0 {3,S} {12,S}
3  N u0 p1 c0 {2,S} {4,S} {7,S}
4  N u0 p1 c0 {3,S} {30,S} {31,S}
5  C u0 p0 c0 {1,S} {6,S} {13,S} {14,S}
6  C u0 p0 c0 {5,S} {15,S} {16,S} {17,S}
7  C u0 p0 c0 {3,S} {24,S} {25,S} {26,S}
8  C u0 p0 c0 {10,S} {21,S} {22,S} {23,S}
9  C u0 p0 c0 {11,S} {18,S} {19,S} {20,S}
10 C u0 p0 c0 {8,S} {12,S} {27,S}
11 C u1 p0 c0 {1,S} {9,S} {28,S}
12 C u0 p0 c0 {2,S} {10,S} {29,S}
13 H u0 p0 c0 {5,S}
14 H u0 p0 c0 {5,S}
15 H u0 p0 c0 {6,S}
16 H u0 p0 c0 {6,S}
17 H u0 p0 c0 {6,S}
18 H u0 p0 c0 {9,S}
19 H u0 p0 c0 {9,S}
20 H u0 p0 c0 {9,S}
21 H u0 p0 c0 {8,S}
22 H u0 p0 c0 {8,S}
23 H u0 p0 c0 {8,S}
24 H u0 p0 c0 {7,S}
25 H u0 p0 c0 {7,S}
26 H u0 p0 c0 {7,S}
27 H u0 p0 c0 {10,S}
28 H u0 p0 c0 {11,S}
29 H u0 p0 c0 {12,S}
30 H u0 p0 c0 {4,S}
31 H u0 p0 c0 {4,S}


>  <multiplicity>  (3) 
2

>  <reaction>  (3) 
rmg_rxn_10645

>  <type>  (3) 
ts

>  <role_mapnums>  (3) 
{"*2": 27, "*1": 20, "*3": 2, "*0": 19, "*4": 3}

>  <role_mapidx>  (3) 
{"*2": 26, "*1": 19, "*3": 1, "*0": 18, "*4": 2}

>  <ordered_mapped_smiles>  (3) 
[C:1]([C:2]([O:3][C:4]([C:5]([H:12])([H:13])[H:14])([H:10])[H:11])[H:9])([H:6])([H:7])[H:8].[C:15]([CH:16]([CH:17]([O:18][N:19]([N:20]([H:27])[H:28])[C:21]([H:29])([H:30])[H:31])[H:26])[H:25])([H:22])([H:23])[H:24]

>  <mol_properties>  (3) 
{"1": {"label": "*3", "atom_type": "Cs"}, "2": {"label": "*4", "atom_type": "O2s"}, "18": {"label": "*0", "atom_type": "N3s"}, "19": {"label": "*1", "atom_type": "N3s"}, "26": {"label": "*2", "atom_type": "H0"}}

>  <level_of_theory>  (3) 
wb97xd/def2tzvp

>  <lot_method>  (3) 
wb97xd

>  <lot_basis>  (3) 
def2tzvp

>  <spin_multiplicity>  (3) 
2.0

>  <optical_isomers>  (3) 
2.0

>  <modes>  (3) 
IdealGasTranslation(mass=(175.145, 'amu')),         NonlinearRotor(             inertia = ([603.02, 763.021, 965.717

>  <frequency_value>  (3) 
-1942.28

>  <frequency_units>  (3) 
cm^-1

>  <frequency_list>  (3) 
unknown

>  <arkane_path>  (3) 
/home/calvin/Dropbox/PersonalFolders/Calvin/ZEUS_Converged/rmg_rxn_10645/output/rxns/TS0/arkane/output.py

>  <path_exists>  (3) 
True

>  <E0_value>  (3) 
-1511850.0

>  <E0_units>  (3) 
kJ/mol

>  <thermo_class>  (3) 
unknown

>  <Cp0_value>  (3) 
unknown

>  <Cp0_units>  (3) 
unknown

>  <CpInf_value>  (3) 
unknown

>  <CpInf_units>  (3) 
unknown

>  <Tmin_value>  (3) 
unknown

>  <Tmin_units>  (3) 
unknown

>  <Tmax_value>  (3) 
unknown

>  <Tmax_units>  (3) 
unknown

>  <polynomials>  (3) 
unknown

>  <H298_value>  (3) 
unknown

>  <H298_units>  (3) 
unknown

>  <S298_value>  (3) 
unknown

>  <S298_units>  (3) 
unknown

>  <Cp_T_value_list>  (3) 
unknown

>  <Cp_T_units>  (3) 
unknown

>  <T_list>  (3) 
unknown

>  <T_units>  (3) 
unknown

>  <yaml_path>  (3) 
unknown

>  <frequencies_cm1>  (3) 
unknown

>  <ZPE_kJmol>  (3) 
unknown

>  <E_elec_kJmol>  (3) 
unknown

>  <E0_minus_Eelec_plus_ZPE_kJmol>  (3) 
unknown

>  <rxn>  (3) 
unknown

>  <species_type>  (3) 
unknown

>  <species_folder>  (3) 
unknown

>  <frequencies_cm1_list>  (3) 
[]

>  <ts_imag_freq_cm1>  (3) 
-1965.8697

>  <ts_freq_out_path>  (3) 
/home/calvin/Dropbox/PersonalFolders/Calvin/ZEUS_Converged/rmg_rxn_10645/output/rxns/TS0/geometry/freq.out

>  <E0_kJmol>  (3) 
-1.51185e+06

>  <H298_kJmol>  (3) 
unknown

$$$$

     RDKit          3D

 16 15  0  0  0  0  0  0  0  0999 V2000
   -2.7163    0.6711   -0.2082 C   0  0  0  0  0  0  0  0  0  1  0  0
   -2.0604   -0.6699   -0.1371 C   0  0  0  0  0  0  0  0  0  2  0  0
   -1.8776   -1.4967   -1.1546 C   0  0  0  0  0  0  0  0  0  3  0  0
   -2.2450   -1.1612   -2.4322 O   0  0  0  0  0  0  0  0  0  4  0  0
   -2.5108   -2.3329   -3.2086 N   0  0  0  0  0  0  0  0  0  5  0  0
   -2.0229   -2.3050   -4.4233 N   0  0  0  0  0  2  0  0  0  6  0  0
   -3.9082   -2.7128   -3.0828 C   0  0  0  0  0  0  0  0  0  7  0  0
   -3.4812    0.7676    0.5653 H   0  0  0  0  0  0  0  0  0  8  0  0
   -3.1809    0.8365   -1.1792 H   0  0  0  0  0  0  0  0  0  9  0  0
   -1.9897    1.4706   -0.0417 H   0  0  0  0  0  0  0  0  0 10  0  0
   -1.6717   -0.9974    0.8197 H   0  0  0  0  0  0  0  0  0 11  0  0
   -1.3990   -2.4648   -1.0638 H   0  0  0  0  0  0  0  0  0 12  0  0
   -1.1779   -1.7364   -4.3793 H   0  0  0  0  0  0  0  0  0 13  0  0
   -4.5563   -1.9305   -3.4853 H   0  0  0  0  0  0  0  0  0 14  0  0
   -4.1357   -2.8800   -2.0315 H   0  0  0  0  0  0  0  0  0 15  0  0
   -4.0457   -3.6333   -3.6440 H   0  0  0  0  0  0  0  0  0 16  0  0
  1 10  1  0
  1  8  1  0
  1  9  1  0
  1  2  1  0
  2 11  1  0
  2  3  1  0
  3  4  1  0
  3 12  1  0
  4  5  1  0
  5  6  1  0
  5  7  1  0
  6 13  1  0
  7 14  1  0
  7 15  1  0
  7 16  1  0
M  RAD  1   6   2
M  END
>  <rmg_smiles>  (4) 
C[CH][CH]ON([NH])C

>  <rmg_adjacency_list>  (4) 
multiplicity 2
1  O u0 p2 c0 {2,S} {7,S}
2  N u0 p1 c0 {1,S} {3,S} {5,S}
3  N u1 p1 c0 {2,S} {16,S}
4  C u0 p0 c0 {6,S} {8,S} {9,S} {10,S}
5  C u0 p0 c0 {2,S} {11,S} {12,S} {13,S}
6  C u0 p0 c0 {4,S} {7,S} {14,S}
7  C u0 p0 c0 {1,S} {6,S} {15,S}
8  H u0 p0 c0 {4,S}
9  H u0 p0 c0 {4,S}
10 H u0 p0 c0 {4,S}
11 H u0 p0 c0 {5,S}
12 H u0 p0 c0 {5,S}
13 H u0 p0 c0 {5,S}
14 H u0 p0 c0 {6,S}
15 H u0 p0 c0 {7,S}
16 H u0 p0 c0 {3,S}


>  <multiplicity>  (4) 
2

>  <reaction>  (4) 
rmg_rxn_10645

>  <type>  (4) 
r1

>  <role_mapnums>  (4) 
{}

>  <role_mapidx>  (4) 
{}

>  <ordered_mapped_smiles>  (4) 
[C:1]([CH:2]([CH:3]([O:4][N:5]([N:6][H:13])[C:7]([H:14])([H:15])[H:16])[H:12])[H:11])([H:8])([H:9])[H:10]

>  <level_of_theory>  (4) 
wb97xd/def2tzvp

>  <lot_method>  (4) 
wb97xd

>  <lot_basis>  (4) 
def2tzvp

>  <spin_multiplicity>  (4) 
2.0

>  <optical_isomers>  (4) 
2.0

>  <modes>  (4) 
IdealGasTranslation(mass=(101.071, 'amu')),         NonlinearRotor(             inertia = ([82.2482, 367.276, 386.349

>  <frequency_value>  (4) 
unknown

>  <frequency_units>  (4) 
unknown

>  <frequency_list>  (4) 
unknown

>  <arkane_path>  (4) 
/home/calvin/Dropbox/PersonalFolders/Calvin/ZEUS_Converged/rmg_rxn_10645/output/Species/rmg_rxn_10645_p1_CC=CONrbr-sbr-NH-sbr-rbrC/arkane/output.py

>  <path_exists>  (4) 
True

>  <E0_value>  (4) 
-898742.9185377804

>  <E0_units>  (4) 
kJ/mol

>  <thermo_class>  (4) 
NASA

>  <Cp0_value>  (4) 
33.257888

>  <Cp0_units>  (4) 
J/(mol*K)

>  <CpInf_value>  (4) 
382.465712

>  <CpInf_units>  (4) 
J/(mol*K)

>  <Tmin_value>  (4) 
10.0

>  <Tmin_units>  (4) 
K

>  <Tmax_value>  (4) 
3000.0

>  <Tmax_units>  (4) 
K

>  <polynomials>  (4) 
[{"name": "polynomial1", "class": "NASAPolynomial", "Tmin_value": 10.0, "Tmin_units": "K", "Tmax_value": 1230.351550791476, "Tmax_units": "K", "coeffs": [3.636448192617725, 0.046012269057782156, -1.0447598723861432e-05, -9.397618320350448e-09, 4.2997715161361366e-12, -108093806.20736969, 13.356245971953898]}, {"name": "polynomial2", "class": "NASAPolynomial", "Tmin_value": 1230.351550791476, "Tmin_units": "K", "Tmax_value": 3000.0, "Tmax_units": "K", "coeffs": [10.637798077256372, 0.03762876756034826, -1.7756617991574368e-05, 4.0613531266158274e-09, -3.6506325325576807e-13, -108096617.32351352, -26.295285854594052]}]

>  <H298_value>  (4) 
-214798.71695714595

>  <H298_units>  (4) 
kcal/mol

>  <S298_value>  (4) 
93.88909266705956

>  <S298_units>  (4) 
cal/(mol*K)

>  <Cp_T_value_list>  (4) 
[32.353584800793946, 39.50241933237663, 45.9535869024618, 51.687318427953755, 61.025931419689, 67.77024327047224, 77.47619958424356, 82.5061792663907, 84.85559276208323]

>  <Cp_T_units>  (4) 
cal/(mol*K)

>  <T_list>  (4) 
[300.0, 400.0, 500.0, 600.0, 800.0, 1000.0, 1500.0, 2000.0, 2400.0]

>  <T_units>  (4) 
K

>  <yaml_path>  (4) 
/home/calvin/Dropbox/PersonalFolders/Calvin/ZEUS_Converged/rmg_rxn_10645/output/Species/rmg_rxn_10645_p1_CC=CONrbr-sbr-NH-sbr-rbrC/rmg_rxn_10645_p1_CC=CONrbr-sbr-NH-sbr-rbrC.yml

>  <frequencies_cm1>  (4) 
[39.766711988119994, 75.63297631448, 123.26238649399998, 170.50724549560002, 210.75464645612, 275.49658405307997, 409.25172411604, 436.20464149704003, 468.50694044231994, 500.21867865008005, 576.8748357772399, 635.10687129084, 759.24136492048, 839.57822617916, 939.32118795216, 961.2680730348799, 1009.44684204, 1040.7534281138799, 1058.9372052412398, 1116.31086758984, 1136.6302771517198, 1158.60463017572, 1269.5201770643598, 1302.9417946168, 1381.1704913822398, 1418.63676328816, 1428.2162078095598, 1447.1828212633998, 1467.8867820031996, 1473.94346305544, 1477.12974424392, 1484.2920099326798, 1743.06061774624, 3013.6108426086, 3018.15678689044, 3068.4780553153996, 3106.953774063359, 3110.6619461361597, 3147.0088994349203, 3149.9479691518795, 3171.6476427630796, 3452.55541124832]

>  <ZPE_kJmol>  (4) 
347.3638170215182

>  <E_elec_kJmol>  (4) 
-899090.2823548019

>  <E0_minus_Eelec_plus_ZPE_kJmol>  (4) 
0.0

>  <rxn>  (4) 
rmg_rxn_10645

>  <species_type>  (4) 
p0

>  <species_folder>  (4) 
rmg_rxn_10645_p1_CC=CONrbr-sbr-NH-sbr-rbrC

>  <frequencies_cm1_list>  (4) 
[39.766711988119994, 75.63297631448, 123.26238649399998, 170.50724549560002, 210.75464645612, 275.49658405307997, 409.25172411604, 436.20464149704003, 468.50694044231994, 500.21867865008005, 576.8748357772399, 635.10687129084, 759.24136492048, 839.57822617916, 939.32118795216, 961.2680730348799, 1009.44684204, 1040.7534281138799, 1058.9372052412398, 1116.31086758984, 1136.6302771517198, 1158.60463017572, 1269.5201770643598, 1302.9417946168, 1381.1704913822398, 1418.63676328816, 1428.2162078095598, 1447.1828212633998, 1467.8867820031996, 1473.94346305544, 1477.12974424392, 1484.2920099326798, 1743.06061774624, 3013.6108426086, 3018.15678689044, 3068.4780553153996, 3106.953774063359, 3110.6619461361597, 3147.0088994349203, 3149.9479691518795, 3171.6476427630796, 3452.55541124832]

>  <E0_kJmol>  (4) 
-898743

>  <H298_kJmol>  (4) 
-898718

$$$$

     RDKit          3D

 14 13  0  0  0  0  0  0  0  0999 V2000
   -2.4803   -0.3698   -0.1229 C   0  0  0  0  0  0  0  0  0  1  0  0
   -1.1475    0.2507   -0.2967 C   0  0  0  0  0  3  0  0  0  2  0  0
   -1.0074    1.4744    0.2664 O   0  0  0  0  0  0  0  0  0  3  0  0
    0.2422    2.1039    0.0486 C   0  0  0  0  0  0  0  0  0  4  0  0
    0.2255    3.4586    0.7150 C   0  0  0  0  0  0  0  0  0  5  0  0
   -3.2683    0.1812   -0.6553 H   0  0  0  0  0  0  0  0  0  6  0  0
   -2.4720   -1.3915   -0.5031 H   0  0  0  0  0  0  0  0  0  7  0  0
   -2.7626   -0.3964    0.9325 H   0  0  0  0  0  0  0  0  0  8  0  0
   -0.5432    0.0541   -1.1800 H   0  0  0  0  0  0  0  0  0  9  0  0
    0.4141    2.2031   -1.0306 H   0  0  0  0  0  0  0  0  0 10  0  0
    1.0402    1.4749    0.4587 H   0  0  0  0  0  0  0  0  0 11  0  0
    0.0592    3.3565    1.7877 H   0  0  0  0  0  0  0  0  0 12  0  0
   -0.5674    4.0820    0.3003 H   0  0  0  0  0  0  0  0  0 13  0  0
    1.1802    3.9629    0.5591 H   0  0  0  0  0  0  0  0  0 14  0  0
  1  8  1  0
  1  7  1  0
  1  6  1  0
  1  2  1  0
  2  9  1  0
  2  3  1  0
  3  4  1  0
  4  5  1  0
  4 10  1  0
  4 11  1  0
  5 14  1  0
  5 12  1  0
  5 13  1  0
M  RAD  1   2   2
M  END
>  <rmg_smiles>  (5) 
C[CH]OCC

>  <rmg_adjacency_list>  (5) 
multiplicity 2
1  O u0 p2 c0 {2,S} {5,S}
2  C u0 p0 c0 {1,S} {3,S} {6,S} {7,S}
3  C u0 p0 c0 {2,S} {8,S} {9,S} {10,S}
4  C u0 p0 c0 {5,S} {11,S} {12,S} {13,S}
5  C u1 p0 c0 {1,S} {4,S} {14,S}
6  H u0 p0 c0 {2,S}
7  H u0 p0 c0 {2,S}
8  H u0 p0 c0 {3,S}
9  H u0 p0 c0 {3,S}
10 H u0 p0 c0 {3,S}
11 H u0 p0 c0 {4,S}
12 H u0 p0 c0 {4,S}
13 H u0 p0 c0 {4,S}
14 H u0 p0 c0 {5,S}


>  <multiplicity>  (5) 
2

>  <reaction>  (5) 
rmg_rxn_10645

>  <type>  (5) 
r2

>  <role_mapnums>  (5) 
{}

>  <role_mapidx>  (5) 
{}

>  <ordered_mapped_smiles>  (5) 
[C:1]([C:2]([O:3][C:4]([C:5]([H:12])([H:13])[H:14])([H:10])[H:11])[H:9])([H:6])([H:7])[H:8]

>  <level_of_theory>  (5) 
wb97xd/def2tzvp

>  <lot_method>  (5) 
wb97xd

>  <lot_basis>  (5) 
def2tzvp

>  <spin_multiplicity>  (5) 
2.0

>  <optical_isomers>  (5) 
2.0

>  <modes>  (5) 
IdealGasTranslation(mass=(73.0653, 'amu')),         NonlinearRotor(             inertia = ([24.4971, 222.996, 237.626

>  <frequency_value>  (5) 
unknown

>  <frequency_units>  (5) 
unknown

>  <frequency_list>  (5) 
unknown

>  <arkane_path>  (5) 
/home/calvin/Dropbox/PersonalFolders/Calvin/ZEUS_Converged/rmg_rxn_10645/output/Species/rmg_rxn_10645_r1_Csbr-CH-sbrOCC/arkane/output.py

>  <path_exists>  (5) 
True

>  <E0_value>  (5) 
-611475.7234981668

>  <E0_units>  (5) 
kJ/mol

>  <thermo_class>  (5) 
NASA

>  <Cp0_value>  (5) 
33.257888

>  <Cp0_units>  (5) 
J/(mol*K)

>  <CpInf_value>  (5) 
332.57888

>  <CpInf_units>  (5) 
J/(mol*K)

>  <Tmin_value>  (5) 
10.0

>  <Tmin_units>  (5) 
K

>  <Tmax_value>  (5) 
3000.0

>  <Tmax_units>  (5) 
K

>  <polynomials>  (5) 
[{"name": "polynomial1", "class": "NASAPolynomial", "Tmin_value": 10.0, "Tmin_units": "K", "Tmax_value": 433.8609650510096, "Tmax_units": "K", "coeffs": [3.5684288663057706, 0.045241508952627935, -0.0001119334318871191, 2.915317323490198e-07, -2.539917133760708e-10, -73543541.07061452, 11.192080825011546]}, {"name": "polynomial2", "class": "NASAPolynomial", "Tmin_value": 433.8609650510096, "Tmin_units": "K", "Tmax_value": 3000.0, "Tmax_units": "K", "coeffs": [-0.17863065218418012, 0.0504780085748467, -2.870453861825764e-05, 7.935369699466336e-09, -8.553238902000833e-13, -73542940.07418454, 29.31964689030554]}]

>  <H298_value>  (5) 
-146141.15500823298

>  <H298_units>  (5) 
kcal/mol

>  <S298_value>  (5) 
83.67045500907038

>  <S298_units>  (5) 
cal/(mol*K)

>  <Cp_T_value_list>  (5) 
[25.597001416613935, 31.619488609465975, 37.40459667414234, 42.48196496381339, 50.76406466175829, 56.98291811205437, 66.38256532233305, 71.0565575143228, 73.43007086866672]

>  <Cp_T_units>  (5) 
cal/(mol*K)

>  <T_list>  (5) 
[300.0, 400.0, 500.0, 600.0, 800.0, 1000.0, 1500.0, 2000.0, 2400.0]

>  <T_units>  (5) 
K

>  <yaml_path>  (5) 
/home/calvin/Dropbox/PersonalFolders/Calvin/ZEUS_Converged/rmg_rxn_10645/output/Species/rmg_rxn_10645_r1_Csbr-CH-sbrOCC/rmg_rxn_10645_r1_Csbr-CH-sbrOCC.yml

>  <frequencies_cm1>  (5) 
[80.07591581652, 108.99965798435998, 179.55793214736, 194.53482713028, 250.72736800383998, 430.34023603375994, 448.98410117756, 558.51251703156, 818.4553793348399, 868.34402768464, 962.0921112732799, 1013.0726102889599, 1090.80001712604, 1112.71943426748, 1171.6862372103199, 1175.22960163544, 1265.67466528516, 1294.66021032088, 1363.82448646392, 1389.706154135, 1408.11654177792, 1444.95791801972, 1452.9991578294398, 1471.2859397366, 1477.5074284365198, 1487.8079064165202, 1509.6037178222, 2953.33244546964, 2973.05442730868, 3013.9816598158795, 3025.3259195645196, 3040.9757791087995, 3089.55283326248, 3103.9254335372398, 3104.9348803792795, 3105.9717951626]

>  <ZPE_kJmol>  (5) 
319.65023798910994

>  <E_elec_kJmol>  (5) 
-611795.3737361559

>  <E0_minus_Eelec_plus_ZPE_kJmol>  (5) 
0.0

>  <rxn>  (5) 
rmg_rxn_10645

>  <species_type>  (5) 
r0

>  <species_folder>  (5) 
rmg_rxn_10645_r1_Csbr-CH-sbrOCC

>  <frequencies_cm1_list>  (5) 
[80.07591581652, 108.99965798435998, 179.55793214736, 194.53482713028, 250.72736800383998, 430.34023603375994, 448.98410117756, 558.51251703156, 818.4553793348399, 868.34402768464, 962.0921112732799, 1013.0726102889599, 1090.80001712604, 1112.71943426748, 1171.6862372103199, 1175.22960163544, 1265.67466528516, 1294.66021032088, 1363.82448646392, 1389.706154135, 1408.11654177792, 1444.95791801972, 1452.9991578294398, 1471.2859397366, 1477.5074284365198, 1487.8079064165202, 1509.6037178222, 2953.33244546964, 2973.05442730868, 3013.9816598158795, 3025.3259195645196, 3040.9757791087995, 3089.55283326248, 3103.9254335372398, 3104.9348803792795, 3105.9717951626]

>  <E0_kJmol>  (5) 
-611476

>  <H298_kJmol>  (5) 
-611455

$$$$
