
     RDKit          3D

 14 14  0  0  0  0  0  0  0  0999 V2000
   -1.1300   -0.9142   -0.0232 C   0  0  0  0  0  0  0  0  0  1  0  0
    0.3048   -1.3671   -0.1228 C   0  0  0  0  0  0  0  0  0  2  0  0
    1.1836   -0.4686    0.4830 O   0  0  0  0  0  0  0  0  0  3  0  0
    1.0242    0.8361   -0.0138 C   0  0  0  0  0  0  0  0  0  4  0  0
   -0.2640    1.3259    0.1736 O   0  0  0  0  0  0  0  0  0  5  0  0
   -1.2214    0.5335   -0.5016 C   0  0  0  0  0  0  0  0  0  6  0  0
   -1.7800   -1.5591   -0.6175 H   0  0  0  0  0  0  0  0  0  7  0  0
   -1.4568   -0.9620    1.0190 H   0  0  0  0  0  0  0  0  0  8  0  0
    0.4266   -2.2763    0.4791 H   0  0  0  0  0  0  0  0  0  9  0  0
    0.6267   -1.6382   -1.1360 H   0  0  0  0  0  0  0  0  0 10  0  0
    1.2761    0.8459   -1.0883 H   0  0  0  0  0  0  0  0  0 11  0  0
    1.7032    1.4754    0.5456 H   0  0  0  0  0  0  0  0  0 12  0  0
   -1.0465    0.5855   -1.5861 H   0  0  0  0  0  0  0  0  0 13  0  0
   -2.1965    0.9697   -0.2885 H   0  0  0  0  0  0  0  0  0 14  0  0
  1  8  1  0
  1  7  1  0
  1  6  1  0
  1  2  1  0
  2 10  1  0
  2  9  1  0
  2  3  1  0
  3  4  1  0
  4 12  1  0
  4 11  1  0
  4  5  1  0
  5  6  1  0
  6 14  1  0
  6 13  1  0
M  END
>  <rmg_smiles>  (1) 
C1COCOC1

>  <rmg_adjacency_list>  (1) 
1  O u0 p2 c0 {4,S} {6,S}
2  O u0 p2 c0 {5,S} {6,S}
3  C u0 p0 c0 {4,S} {5,S} {7,S} {8,S}
4  C u0 p0 c0 {1,S} {3,S} {9,S} {10,S}
5  C u0 p0 c0 {2,S} {3,S} {11,S} {12,S}
6  C u0 p0 c0 {1,S} {2,S} {13,S} {14,S}
7  H u0 p0 c0 {3,S}
8  H u0 p0 c0 {3,S}
9  H u0 p0 c0 {4,S}
10 H u0 p0 c0 {4,S}
11 H u0 p0 c0 {5,S}
12 H u0 p0 c0 {5,S}
13 H u0 p0 c0 {6,S}
14 H u0 p0 c0 {6,S}


>  <multiplicity>  (1) 
1

>  <reaction>  (1) 
rmg_rxn_267

>  <type>  (1) 
r1h

>  <role_mapnums>  (1) 
{"r1h_a": 2, "r1h_h": 9}

>  <role_mapidx>  (1) 
{"r1h_a": 1, "r1h_h": 8}

>  <ordered_mapped_smiles>  (1) 
[C:1]1([H:7])([H:8])[C:2]([H:9])([H:10])[O:3][C:4]([H:11])([H:12])[O:5][C:6]1([H:13])[H:14]

>  <mol_properties>  (1) 
{"1": {"label": "donator", "atom_type": "Cs"}, "8": {"label": "d_hydrogen", "atom_type": "H0"}}

>  <level_of_theory>  (1) 
wb97xd/def2tzvp

>  <lot_method>  (1) 
wb97xd

>  <lot_basis>  (1) 
def2tzvp

>  <spin_multiplicity>  (1) 
1.0

>  <optical_isomers>  (1) 
1.0

>  <modes>  (1) 
IdealGasTranslation(mass=(88.0524, 'amu')),         NonlinearRotor(             inertia = ([100.123, 103.988, 181.806

>  <frequency_value>  (1) 
unknown

>  <frequency_units>  (1) 
unknown

>  <frequency_list>  (1) 
unknown

>  <arkane_path>  (1) 
/home/calvin/Dropbox/PersonalFolders/Calvin/ATLAS_Converged/rmg_rxn_267/output/Species/rmg_rxn_267_r2_C1COCOC1/arkane/output.py

>  <path_exists>  (1) 
True

>  <E0_value>  (1) 
-807534.4862541369

>  <E0_units>  (1) 
kJ/mol

>  <thermo_class>  (1) 
NASA

>  <Cp0_value>  (1) 
33.257888

>  <Cp0_units>  (1) 
J/(mol*K)

>  <CpInf_value>  (1) 
332.57888

>  <CpInf_units>  (1) 
J/(mol*K)

>  <Tmin_value>  (1) 
10.0

>  <Tmin_units>  (1) 
K

>  <Tmax_value>  (1) 
3000.0

>  <Tmax_units>  (1) 
K

>  <polynomials>  (1) 
[{"name": "polynomial1", "class": "NASAPolynomial", "Tmin_value": 10.0, "Tmin_units": "K", "Tmax_value": 635.616554573151, "Tmax_units": "K", "coeffs": [4.089858497697602, -0.00720848048360332, 0.00016188875003168496, -2.401508213073996e-07, 1.1440937882219611e-10, -97123964.81365098, 9.940070949440356]}, {"name": "polynomial2", "class": "NASAPolynomial", "Tmin_value": 635.616554573151, "Tmin_units": "K", "Tmax_value": 3000.0, "Tmax_units": "K", "coeffs": [-3.6233751272420895, 0.05886750722676344, -3.5427870905530145e-05, 1.0209382893823142e-08, -1.1338653155444558e-12, -97123338.5127768, 40.87012283464024]}]

>  <H298_value>  (1) 
-193001.58453999052

>  <H298_units>  (1) 
kcal/mol

>  <S298_value>  (1) 
72.30963326519604

>  <S298_units>  (1) 
cal/(mol*K)

>  <Cp_T_value_list>  (1) 
[21.739931113059615, 29.14813400113705, 35.94765005011551, 41.73053828287379, 50.792135881792035, 57.413930600437965, 66.93239440365458, 71.40703402864166, 73.74460734469625]

>  <Cp_T_units>  (1) 
cal/(mol*K)

>  <T_list>  (1) 
[300.0, 400.0, 500.0, 600.0, 800.0, 1000.0, 1500.0, 2000.0, 2400.0]

>  <T_units>  (1) 
K

>  <yaml_path>  (1) 
/home/calvin/Dropbox/PersonalFolders/Calvin/ATLAS_Converged/rmg_rxn_267/output/Species/rmg_rxn_267_r2_C1COCOC1/rmg_rxn_267_r2_C1COCOC1.yml

>  <frequencies_cm1>  (1) 
[264.26219606955993, 269.44676998615995, 439.22611503784, 466.70779028847994, 494.62208561427997, 656.81341188736, 851.50617968, 900.41284912904, 919.12538412604, 926.80954069912, 1013.8966485273598, 1037.6289497932798, 1094.57685905204, 1112.95291176836, 1188.75069573052, 1216.28730686372, 1226.8487302858798, 1252.366447735, 1315.55644664964, 1328.3633742714399, 1363.72148168412, 1380.93701388136, 1404.8272558096398, 1432.53554157584, 1460.95799381532, 1489.42164796672, 1490.0946125280798, 1506.58911126672, 2894.63345495428, 2944.5289702893997, 2950.530715459079, 3031.06671929204, 3080.8454958767197, 3088.2893079635996, 3091.87387430064, 3110.9160245929997]

>  <ZPE_kJmol>  (1) 
321.1850391352071

>  <E_elec_kJmol>  (1) 
-807855.671293272

>  <E0_minus_Eelec_plus_ZPE_kJmol>  (1) 
0.0

>  <rxn>  (1) 
rmg_rxn_267

>  <species_type>  (1) 
r1

>  <species_folder>  (1) 
rmg_rxn_267_r2_C1COCOC1

>  <frequencies_cm1_list>  (1) 
[264.26219606955993, 269.44676998615995, 439.22611503784, 466.70779028847994, 494.62208561427997, 656.81341188736, 851.50617968, 900.41284912904, 919.12538412604, 926.80954069912, 1013.8966485273598, 1037.6289497932798, 1094.57685905204, 1112.95291176836, 1188.75069573052, 1216.28730686372, 1226.8487302858798, 1252.366447735, 1315.55644664964, 1328.3633742714399, 1363.72148168412, 1380.93701388136, 1404.8272558096398, 1432.53554157584, 1460.95799381532, 1489.42164796672, 1490.0946125280798, 1506.58911126672, 2894.63345495428, 2944.5289702893997, 2950.530715459079, 3031.06671929204, 3080.8454958767197, 3088.2893079635996, 3091.87387430064, 3110.9160245929997]

>  <E0_kJmol>  (1) 
-807534

>  <H298_kJmol>  (1) 
-807519

$$$$

     RDKit          3D

 14 14  0  0  0  0  0  0  0  0999 V2000
    0.5763    0.4414   -1.2369 C   0  0  0  0  0  0  0  0  0  1  0  0
    0.8339    1.1517    0.0674 C   0  0  0  0  0  0  0  0  0  2  0  0
    0.7007    0.2389    1.1515 O   0  0  0  0  0  0  0  0  0  3  0  0
   -0.5472   -0.3813    1.1330 C   0  0  0  0  0  0  0  0  0  4  0  0
   -0.7683   -1.1351   -0.0223 O   0  0  0  0  0  0  0  0  0  5  0  0
   -0.7270   -0.3139   -1.1817 C   0  0  0  0  0  0  0  0  0  6  0  0
    1.4163   -0.1594   -1.5810 H   0  0  0  0  0  0  0  0  0  7  0  0
    1.8383    1.5652    0.1209 H   0  0  0  0  0  0  0  0  0  8  0  0
    0.1181    1.9771    0.1984 H   0  0  0  0  0  0  0  0  0  9  0  0
   -1.3402    0.3835    1.2274 H   0  0  0  0  0  0  0  0  0 10  0  0
   -0.5806   -1.0684    1.9759 H   0  0  0  0  0  0  0  0  0 11  0  0
   -1.5730    0.3907   -1.1522 H   0  0  0  0  0  0  0  0  0 12  0  0
   -0.8612   -0.9748   -2.0367 H   0  0  0  0  0  0  0  0  0 13  0  0
    0.4649    1.2247   -1.9846 H   0  0  0  0  0  0  0  0  0 14  0  0
  1  7  1  0
  1  6  1  0
  1 14  1  0
  1  2  1  0
  2  9  1  0
  2  8  1  0
  2  3  1  0
  3  4  1  0
  4 11  1  0
  4 10  1  0
  4  5  1  0
  5  6  1  0
  6 12  1  0
  6 13  1  0
M  END
>  <rmg_smiles>  (2) 
C1COCOC1

>  <rmg_adjacency_list>  (2) 
1  O u0 p2 c0 {4,S} {6,S}
2  O u0 p2 c0 {5,S} {6,S}
3  C u0 p0 c0 {4,S} {5,S} {7,S} {8,S}
4  C u0 p0 c0 {1,S} {3,S} {9,S} {10,S}
5  C u0 p0 c0 {2,S} {3,S} {11,S} {12,S}
6  C u0 p0 c0 {1,S} {2,S} {13,S} {14,S}
7  H u0 p0 c0 {3,S}
8  H u0 p0 c0 {3,S}
9  H u0 p0 c0 {4,S}
10 H u0 p0 c0 {4,S}
11 H u0 p0 c0 {5,S}
12 H u0 p0 c0 {5,S}
13 H u0 p0 c0 {6,S}
14 H u0 p0 c0 {6,S}


>  <multiplicity>  (2) 
1

>  <reaction>  (2) 
rmg_rxn_267

>  <type>  (2) 
r2h

>  <role_mapnums>  (2) 
{"r2h_a": 1, "r2h_h": 14}

>  <role_mapidx>  (2) 
{"r2h_a": 0, "r2h_h": 13}

>  <ordered_mapped_smiles>  (2) 
[C:1]1([H:7])([H:14])[C:2]([H:8])([H:9])[O:3][C:4]([H:10])([H:11])[O:5][C:6]1([H:12])[H:13]

>  <mol_properties>  (2) 
{"0": {"label": "acceptor", "atom_type": "Cs"}, "13": {"label": "a_hydrogen", "atom_type": "H0"}}

>  <level_of_theory>  (2) 
wb97xd/def2tzvp

>  <lot_method>  (2) 
wb97xd

>  <lot_basis>  (2) 
def2tzvp

>  <spin_multiplicity>  (2) 
1.0

>  <optical_isomers>  (2) 
1.0

>  <modes>  (2) 
IdealGasTranslation(mass=(88.0524, 'amu')),         NonlinearRotor(             inertia = ([100.123, 103.988, 181.806

>  <frequency_value>  (2) 
unknown

>  <frequency_units>  (2) 
unknown

>  <frequency_list>  (2) 
unknown

>  <arkane_path>  (2) 
/home/calvin/Dropbox/PersonalFolders/Calvin/ATLAS_Converged/rmg_rxn_267/output/Species/rmg_rxn_267_p2_C1COCOC1/arkane/output.py

>  <path_exists>  (2) 
True

>  <E0_value>  (2) 
-807534.4862541369

>  <E0_units>  (2) 
kJ/mol

>  <thermo_class>  (2) 
NASA

>  <Cp0_value>  (2) 
33.257888

>  <Cp0_units>  (2) 
J/(mol*K)

>  <CpInf_value>  (2) 
332.57888

>  <CpInf_units>  (2) 
J/(mol*K)

>  <Tmin_value>  (2) 
10.0

>  <Tmin_units>  (2) 
K

>  <Tmax_value>  (2) 
3000.0

>  <Tmax_units>  (2) 
K

>  <polynomials>  (2) 
[{"name": "polynomial1", "class": "NASAPolynomial", "Tmin_value": 10.0, "Tmin_units": "K", "Tmax_value": 635.616554573151, "Tmax_units": "K", "coeffs": [4.089858497697602, -0.00720848048360332, 0.00016188875003168496, -2.401508213073996e-07, 1.1440937882219611e-10, -97123964.81365098, 9.940070949440356]}, {"name": "polynomial2", "class": "NASAPolynomial", "Tmin_value": 635.616554573151, "Tmin_units": "K", "Tmax_value": 3000.0, "Tmax_units": "K", "coeffs": [-3.6233751272420895, 0.05886750722676344, -3.5427870905530145e-05, 1.0209382893823142e-08, -1.1338653155444558e-12, -97123338.5127768, 40.87012283464024]}]

>  <H298_value>  (2) 
-193001.58453999052

>  <H298_units>  (2) 
kcal/mol

>  <S298_value>  (2) 
72.30963326519604

>  <S298_units>  (2) 
cal/(mol*K)

>  <Cp_T_value_list>  (2) 
[21.739931113059615, 29.14813400113705, 35.94765005011551, 41.73053828287379, 50.792135881792035, 57.413930600437965, 66.93239440365458, 71.40703402864166, 73.74460734469625]

>  <Cp_T_units>  (2) 
cal/(mol*K)

>  <T_list>  (2) 
[300.0, 400.0, 500.0, 600.0, 800.0, 1000.0, 1500.0, 2000.0, 2400.0]

>  <T_units>  (2) 
K

>  <yaml_path>  (2) 
/home/calvin/Dropbox/PersonalFolders/Calvin/ATLAS_Converged/rmg_rxn_267/output/Species/rmg_rxn_267_p2_C1COCOC1/rmg_rxn_267_p2_C1COCOC1.yml

>  <frequencies_cm1>  (2) 
[264.26219606955993, 269.44676998615995, 439.22611503784, 466.70779028847994, 494.62208561427997, 656.81341188736, 851.50617968, 900.41284912904, 919.12538412604, 926.80954069912, 1013.8966485273598, 1037.6289497932798, 1094.57685905204, 1112.95291176836, 1188.75069573052, 1216.28730686372, 1226.8487302858798, 1252.366447735, 1315.55644664964, 1328.3633742714399, 1363.72148168412, 1380.93701388136, 1404.8272558096398, 1432.53554157584, 1460.95799381532, 1489.42164796672, 1490.0946125280798, 1506.58911126672, 2894.63345495428, 2944.5289702893997, 2950.530715459079, 3031.06671929204, 3080.8454958767197, 3088.2893079635996, 3091.87387430064, 3110.9160245929997]

>  <ZPE_kJmol>  (2) 
321.1850391352071

>  <E_elec_kJmol>  (2) 
-807855.671293272

>  <E0_minus_Eelec_plus_ZPE_kJmol>  (2) 
0.0

>  <rxn>  (2) 
rmg_rxn_267

>  <species_type>  (2) 
p1

>  <species_folder>  (2) 
rmg_rxn_267_p2_C1COCOC1

>  <frequencies_cm1_list>  (2) 
[264.26219606955993, 269.44676998615995, 439.22611503784, 466.70779028847994, 494.62208561427997, 656.81341188736, 851.50617968, 900.41284912904, 919.12538412604, 926.80954069912, 1013.8966485273598, 1037.6289497932798, 1094.57685905204, 1112.95291176836, 1188.75069573052, 1216.28730686372, 1226.8487302858798, 1252.366447735, 1315.55644664964, 1328.3633742714399, 1363.72148168412, 1380.93701388136, 1404.8272558096398, 1432.53554157584, 1460.95799381532, 1489.42164796672, 1490.0946125280798, 1506.58911126672, 2894.63345495428, 2944.5289702893997, 2950.530715459079, 3031.06671929204, 3080.8454958767197, 3088.2893079635996, 3091.87387430064, 3110.9160245929997]

>  <E0_kJmol>  (2) 
-807534

>  <H298_kJmol>  (2) 
-807519

$$$$

     RDKit          3D

 27 27  0  0  0  0  0  0  0  0999 V2000
    0.8766   -1.4943    0.1809 C   0  0  0  0  0  3  0  0  0  1  0  0
    1.1342   -0.7840    1.4853 C   0  0  0  0  0  0  0  0  0  2  0  0
    1.0010   -1.6968    2.5694 O   0  0  0  0  0  0  0  0  0  3  0  0
   -0.2469   -2.3170    2.5509 C   0  0  0  0  0  0  0  0  0  4  0  0
   -0.4680   -3.0708    1.3956 O   0  0  0  0  0  0  0  0  0  5  0  0
   -0.4267   -2.2496    0.2361 C   0  0  0  0  0  0  0  0  0  6  0  0
    1.7166   -2.0950   -0.1631 H   0  0  0  0  0  0  0  0  0  7  0  0
    2.1386   -0.3705    1.5387 H   0  0  0  0  0  0  0  0  0  8  0  0
    0.4184    0.0414    1.6162 H   0  0  0  0  0  0  0  0  0  9  0  0
   -1.0399   -1.5522    2.6453 H   0  0  0  0  0  0  0  0  0 10  0  0
   -0.2802   -3.0041    3.3937 H   0  0  0  0  0  0  0  0  0 11  0  0
   -1.2727   -1.5450    0.2656 H   0  0  0  0  0  0  0  0  0 12  0  0
   -0.5609   -2.9105   -0.6188 H   0  0  0  0  0  0  0  0  0 13  0  0
   -0.8444    1.0350   -1.3796 C   0  0  0  0  0  0  0  0  0 14  0  0
    0.5904    0.5820   -1.4792 C   0  0  0  0  0  0  0  0  0 15  0  0
    1.4692    1.4806   -0.8734 O   0  0  0  0  0  0  0  0  0 16  0  0
    1.3099    2.7853   -1.3702 C   0  0  0  0  0  0  0  0  0 17  0  0
    0.0216    3.2750   -1.1829 O   0  0  0  0  0  0  0  0  0 18  0  0
   -0.9358    2.4827   -1.8580 C   0  0  0  0  0  0  0  0  0 19  0  0
   -1.4944    0.3901   -1.9740 H   0  0  0  0  0  0  0  0  0 20  0  0
   -1.1712    0.9872   -0.3375 H   0  0  0  0  0  0  0  0  0 21  0  0
    0.7378   -0.5178   -0.7511 H   0  0  0  0  0  0  0  0  0 22  0  0
    0.9123    0.3110   -2.4924 H   0  0  0  0  0  0  0  0  0 23  0  0
    1.5618    2.7951   -2.4447 H   0  0  0  0  0  0  0  0  0 24  0  0
    1.9888    3.4246   -0.8109 H   0  0  0  0  0  0  0  0  0 25  0  0
   -0.7608    2.5347   -2.9425 H   0  0  0  0  0  0  0  0  0 26  0  0
   -1.9108    2.9189   -1.6450 H   0  0  0  0  0  0  0  0  0 27  0  0
  1  7  1  0
  1  6  1  0
  1  2  1  0
  2  8  1  0
  2  3  1  0
  2  9  1  0
  3  4  1  0
  4 10  1  0
  4 11  1  0
  4  5  1  0
  5  6  1  0
  6 12  1  0
  6 13  1  0
 14 15  1  0
 14 19  1  0
 14 20  1  0
 14 21  1  0
 15 16  1  0
 15 23  1  0
 15 22  1  0
 16 17  1  0
 17 18  1  0
 17 24  1  0
 17 25  1  0
 18 19  1  0
 19 27  1  0
 19 26  1  0
M  RAD  1   1   2
M  END
>  <rmg_smiles>  (3) 
C1COCOC1.[CH]1COCOC1

>  <rmg_adjacency_list>  (3) 
multiplicity 2
1  O u0 p2 c0 {6,S} {11,S}
2  O u0 p2 c0 {7,S} {11,S}
3  O u0 p2 c0 {8,S} {10,S}
4  O u0 p2 c0 {9,S} {10,S}
5  C u0 p0 c0 {6,S} {7,S} {13,S} {14,S}
6  C u0 p0 c0 {1,S} {5,S} {15,S} {16,S}
7  C u0 p0 c0 {2,S} {5,S} {17,S} {18,S}
8  C u0 p0 c0 {3,S} {12,S} {19,S} {20,S}
9  C u0 p0 c0 {4,S} {12,S} {21,S} {22,S}
10 C u0 p0 c0 {3,S} {4,S} {23,S} {24,S}
11 C u0 p0 c0 {1,S} {2,S} {25,S} {26,S}
12 C u1 p0 c0 {8,S} {9,S} {27,S}
13 H u0 p0 c0 {5,S}
14 H u0 p0 c0 {5,S}
15 H u0 p0 c0 {6,S}
16 H u0 p0 c0 {6,S}
17 H u0 p0 c0 {7,S}
18 H u0 p0 c0 {7,S}
19 H u0 p0 c0 {8,S}
20 H u0 p0 c0 {8,S}
21 H u0 p0 c0 {9,S}
22 H u0 p0 c0 {9,S}
23 H u0 p0 c0 {10,S}
24 H u0 p0 c0 {10,S}
25 H u0 p0 c0 {11,S}
26 H u0 p0 c0 {11,S}
27 H u0 p0 c0 {12,S}


>  <multiplicity>  (3) 
2

>  <reaction>  (3) 
rmg_rxn_267

>  <type>  (3) 
ts

>  <role_mapnums>  (3) 
{"*2": 22, "*1": 15, "*3": 1, "*0": 16, "*4": 2}

>  <role_mapidx>  (3) 
{"*2": 21, "*1": 14, "*3": 0, "*0": 15, "*4": 1}

>  <ordered_mapped_smiles>  (3) 
[C:1]1([H:7])[C:2]([H:8])([H:9])[O:3][C:4]([H:10])([H:11])[O:5][C:6]1([H:12])[H:13].[C:14]1([H:20])([H:21])[C:15]([H:22])([H:23])[O:16][C:17]([H:24])([H:25])[O:18][C:19]1([H:26])[H:27]

>  <mol_properties>  (3) 
{"0": {"label": "*3", "atom_type": "Cs"}, "1": {"label": "*4", "atom_type": "Cs"}, "14": {"label": "*1", "atom_type": "Cs"}, "15": {"label": "*0", "atom_type": "O2s"}, "21": {"label": "*2", "atom_type": "H0"}}

>  <level_of_theory>  (3) 
wb97xd/def2tzvp

>  <lot_method>  (3) 
wb97xd

>  <lot_basis>  (3) 
def2tzvp

>  <spin_multiplicity>  (3) 
2.0

>  <optical_isomers>  (3) 
2.0

>  <modes>  (3) 
IdealGasTranslation(mass=(175.097, 'amu')),         NonlinearRotor(             inertia = ([248.887, 1223.12, 1308.66

>  <frequency_value>  (3) 
-1723.52

>  <frequency_units>  (3) 
cm^-1

>  <frequency_list>  (3) 
unknown

>  <arkane_path>  (3) 
/home/calvin/Dropbox/PersonalFolders/Calvin/ATLAS_Converged/rmg_rxn_267/output/rxns/TS0/arkane/output.py

>  <path_exists>  (3) 
True

>  <E0_value>  (3) 
-1613290.0

>  <E0_units>  (3) 
kJ/mol

>  <thermo_class>  (3) 
unknown

>  <Cp0_value>  (3) 
unknown

>  <Cp0_units>  (3) 
unknown

>  <CpInf_value>  (3) 
unknown

>  <CpInf_units>  (3) 
unknown

>  <Tmin_value>  (3) 
unknown

>  <Tmin_units>  (3) 
unknown

>  <Tmax_value>  (3) 
unknown

>  <Tmax_units>  (3) 
unknown

>  <polynomials>  (3) 
unknown

>  <H298_value>  (3) 
unknown

>  <H298_units>  (3) 
unknown

>  <S298_value>  (3) 
unknown

>  <S298_units>  (3) 
unknown

>  <Cp_T_value_list>  (3) 
unknown

>  <Cp_T_units>  (3) 
unknown

>  <T_list>  (3) 
unknown

>  <T_units>  (3) 
unknown

>  <yaml_path>  (3) 
unknown

>  <frequencies_cm1>  (3) 
unknown

>  <ZPE_kJmol>  (3) 
unknown

>  <E_elec_kJmol>  (3) 
unknown

>  <E0_minus_Eelec_plus_ZPE_kJmol>  (3) 
unknown

>  <rxn>  (3) 
unknown

>  <species_type>  (3) 
unknown

>  <species_folder>  (3) 
unknown

>  <frequencies_cm1_list>  (3) 
[]

>  <ts_imag_freq_cm1>  (3) 
-1744.4554

>  <ts_freq_out_path>  (3) 
/home/calvin/Dropbox/PersonalFolders/Calvin/ATLAS_Converged/rmg_rxn_267/output/rxns/TS0/geometry/freq.out

>  <E0_kJmol>  (3) 
-1.61329e+06

>  <H298_kJmol>  (3) 
unknown

$$$$

     RDKit          3D

 13 13  0  0  0  0  0  0  0  0999 V2000
   -0.9087    1.0135    0.2744 C   0  0  0  0  0  3  0  0  0  1  0  0
   -1.1528   -0.4306   -0.0132 C   0  0  0  0  0  0  0  0  0  2  0  0
    0.1597   -1.1985    0.0580 C   0  0  0  0  0  0  0  0  0  3  0  0
    1.1497   -0.5125   -0.6902 O   0  0  0  0  0  0  0  0  0  4  0  0
    1.3593    0.7608   -0.1866 C   0  0  0  0  0  0  0  0  0  5  0  0
    0.2092    1.5798   -0.2538 O   0  0  0  0  0  0  0  0  0  6  0  0
   -1.7260    1.7182    0.3534 H   0  0  0  0  0  0  0  0  0  7  0  0
   -1.8796   -0.8393    0.6913 H   0  0  0  0  0  0  0  0  0  8  0  0
   -1.5725   -0.5507   -1.0227 H   0  0  0  0  0  0  0  0  0  9  0  0
    0.4914   -1.2968    1.1007 H   0  0  0  0  0  0  0  0  0 10  0  0
    0.0732   -2.1931   -0.3758 H   0  0  0  0  0  0  0  0  0 11  0  0
    1.6805    0.7077    0.8652 H   0  0  0  0  0  0  0  0  0 12  0  0
    2.1167    1.2415   -0.8007 H   0  0  0  0  0  0  0  0  0 13  0  0
  1  6  1  0
  1  7  1  0
  1  2  1  0
  2  9  1  0
  2  8  1  0
  2  3  1  0
  3 11  1  0
  3  4  1  0
  3 10  1  0
  4  5  1  0
  5 13  1  0
  5  6  1  0
  5 12  1  0
M  RAD  1   1   2
M  END
>  <rmg_smiles>  (4) 
[CH]1CCOCO1

>  <rmg_adjacency_list>  (4) 
multiplicity 2
1  O u0 p2 c0 {4,S} {5,S}
2  O u0 p2 c0 {5,S} {6,S}
3  C u0 p0 c0 {4,S} {6,S} {7,S} {8,S}
4  C u0 p0 c0 {1,S} {3,S} {9,S} {10,S}
5  C u0 p0 c0 {1,S} {2,S} {11,S} {12,S}
6  C u1 p0 c0 {2,S} {3,S} {13,S}
7  H u0 p0 c0 {3,S}
8  H u0 p0 c0 {3,S}
9  H u0 p0 c0 {4,S}
10 H u0 p0 c0 {4,S}
11 H u0 p0 c0 {5,S}
12 H u0 p0 c0 {5,S}
13 H u0 p0 c0 {6,S}


>  <multiplicity>  (4) 
2

>  <reaction>  (4) 
rmg_rxn_267

>  <type>  (4) 
r1

>  <role_mapnums>  (4) 
{}

>  <role_mapidx>  (4) 
{}

>  <ordered_mapped_smiles>  (4) 
[C:1]1([H:7])[C:2]([H:8])([H:9])[C:3]([H:10])([H:11])[O:4][C:5]([H:12])([H:13])[O:6]1

>  <level_of_theory>  (4) 
wb97xd/def2tzvp

>  <lot_method>  (4) 
wb97xd

>  <lot_basis>  (4) 
def2tzvp

>  <spin_multiplicity>  (4) 
2.0

>  <optical_isomers>  (4) 
2.0

>  <modes>  (4) 
IdealGasTranslation(mass=(87.0446, 'amu')),         NonlinearRotor(             inertia = ([96.9848, 100.571, 180.326

>  <frequency_value>  (4) 
unknown

>  <frequency_units>  (4) 
unknown

>  <frequency_list>  (4) 
unknown

>  <arkane_path>  (4) 
/home/calvin/Dropbox/PersonalFolders/Calvin/ATLAS_Converged/rmg_rxn_267/output/Species/rmg_rxn_267_p1_sbr-CH-sbr1CCOCO1/arkane/output.py

>  <path_exists>  (4) 
True

>  <E0_value>  (4) 
-805827.3421493819

>  <E0_units>  (4) 
kJ/mol

>  <thermo_class>  (4) 
NASA

>  <Cp0_value>  (4) 
33.257888

>  <Cp0_units>  (4) 
J/(mol*K)

>  <CpInf_value>  (4) 
307.635464

>  <CpInf_units>  (4) 
J/(mol*K)

>  <Tmin_value>  (4) 
10.0

>  <Tmin_units>  (4) 
K

>  <Tmax_value>  (4) 
3000.0

>  <Tmax_units>  (4) 
K

>  <polynomials>  (4) 
[{"name": "polynomial1", "class": "NASAPolynomial", "Tmin_value": 10.0, "Tmin_units": "K", "Tmax_value": 594.5881445366083, "Tmax_units": "K", "coeffs": [4.0448110838926565, -0.004287247298286005, 0.0001561678296055211, -2.5056792670345e-07, 1.28608989510542e-10, -96918641.31425966, 11.310846190181683]}, {"name": "polynomial2", "class": "NASAPolynomial", "Tmin_value": 594.5881445366083, "Tmin_units": "K", "Tmax_value": 3000.0, "Tmax_units": "K", "coeffs": [-2.0223142792396813, 0.05358769196829288, -3.287284368824778e-05, 9.64252563065185e-09, -1.0874709432735165e-12, -96918221.37894577, 34.89119071361758]}]

>  <H298_value>  (4) 
-192593.46110107773

>  <H298_units>  (4) 
kcal/mol

>  <S298_value>  (4) 
75.62180337642914

>  <S298_units>  (4) 
cal/(mol*K)

>  <Cp_T_value_list>  (4) 
[22.038399005889005, 28.959178246137498, 35.09449573071628, 40.21693905885679, 48.29063691328946, 54.14658537653456, 62.464910648605866, 66.37739659151993, 68.47747700545682]

>  <Cp_T_units>  (4) 
cal/(mol*K)

>  <T_list>  (4) 
[300.0, 400.0, 500.0, 600.0, 800.0, 1000.0, 1500.0, 2000.0, 2400.0]

>  <T_units>  (4) 
K

>  <yaml_path>  (4) 
/home/calvin/Dropbox/PersonalFolders/Calvin/ATLAS_Converged/rmg_rxn_267/output/Species/rmg_rxn_267_p1_sbr-CH-sbr1CCOCO1/rmg_rxn_267_p1_sbr-CH-sbr1CCOCO1.yml

>  <frequencies_cm1>  (4) 
[225.5461328354, 251.49647035968, 410.99593838732, 475.95761951452, 495.8306750306, 591.7830609069599, 728.8686888501201, 860.14484721256, 919.0292463315599, 933.8413336668, 1002.5523887787199, 1034.68988007632, 1061.81447209032, 1129.37187366848, 1164.5789074041202, 1229.20410625064, 1259.04115746604, 1263.30555534976, 1323.45347976764, 1354.19010605996, 1364.1609687445998, 1410.3689129628801, 1445.48667588936, 1452.1064497378397, 1489.32551017224, 1505.45605868892, 2941.13667954132, 2947.4199711091196, 2972.12051730516, 3065.6282564076, 3096.83183770168, 3120.1177849217997, 3169.457074446]

>  <ZPE_kJmol>  (4) 
285.28140433887154

>  <E_elec_kJmol>  (4) 
-806112.6235537208

>  <E0_minus_Eelec_plus_ZPE_kJmol>  (4) 
0.0

>  <rxn>  (4) 
rmg_rxn_267

>  <species_type>  (4) 
p0

>  <species_folder>  (4) 
rmg_rxn_267_p1_sbr-CH-sbr1CCOCO1

>  <frequencies_cm1_list>  (4) 
[225.5461328354, 251.49647035968, 410.99593838732, 475.95761951452, 495.8306750306, 591.7830609069599, 728.8686888501201, 860.14484721256, 919.0292463315599, 933.8413336668, 1002.5523887787199, 1034.68988007632, 1061.81447209032, 1129.37187366848, 1164.5789074041202, 1229.20410625064, 1259.04115746604, 1263.30555534976, 1323.45347976764, 1354.19010605996, 1364.1609687445998, 1410.3689129628801, 1445.48667588936, 1452.1064497378397, 1489.32551017224, 1505.45605868892, 2941.13667954132, 2947.4199711091196, 2972.12051730516, 3065.6282564076, 3096.83183770168, 3120.1177849217997, 3169.457074446]

>  <E0_kJmol>  (4) 
-805827

>  <H298_kJmol>  (4) 
-805811

$$$$

     RDKit          3D

 13 13  0  0  0  0  0  0  0  0999 V2000
   -1.1371    0.3608    0.3110 C   0  0  0  0  0  3  0  0  0  1  0  0
   -0.0045    1.3224    0.2943 C   0  0  0  0  0  0  0  0  0  2  0  0
    1.2245    0.6965    0.6137 O   0  0  0  0  0  0  0  0  0  3  0  0
    1.3926   -0.4921   -0.0955 C   0  0  0  0  0  0  0  0  0  4  0  0
    0.4387   -1.4537    0.2351 O   0  0  0  0  0  0  0  0  0  5  0  0
   -0.8659   -1.0349   -0.1206 C   0  0  0  0  0  0  0  0  0  6  0  0
   -2.1544    0.7285    0.3341 H   0  0  0  0  0  0  0  0  0  7  0  0
   -0.1488    2.1272    1.0165 H   0  0  0  0  0  0  0  0  0  8  0  0
    0.0825    1.7949   -0.7036 H   0  0  0  0  0  0  0  0  0  9  0  0
    1.3549   -0.2872   -1.1815 H   0  0  0  0  0  0  0  0  0 10  0  0
    2.3646   -0.8956    0.1787 H   0  0  0  0  0  0  0  0  0 11  0  0
   -1.5620   -1.7401    0.3358 H   0  0  0  0  0  0  0  0  0 12  0  0
   -0.9852   -1.1268   -1.2179 H   0  0  0  0  0  0  0  0  0 13  0  0
  1  7  1  0
  1  6  1  0
  1  2  1  0
  2  9  1  0
  2  8  1  0
  2  3  1  0
  3  4  1  0
  4 10  1  0
  4 11  1  0
  4  5  1  0
  5  6  1  0
  6 13  1  0
  6 12  1  0
M  RAD  1   1   2
M  END
>  <rmg_smiles>  (5) 
[CH]1COCOC1

>  <rmg_adjacency_list>  (5) 
multiplicity 2
1  O u0 p2 c0 {3,S} {5,S}
2  O u0 p2 c0 {4,S} {5,S}
3  C u0 p0 c0 {1,S} {6,S} {7,S} {8,S}
4  C u0 p0 c0 {2,S} {6,S} {9,S} {10,S}
5  C u0 p0 c0 {1,S} {2,S} {11,S} {12,S}
6  C u1 p0 c0 {3,S} {4,S} {13,S}
7  H u0 p0 c0 {3,S}
8  H u0 p0 c0 {3,S}
9  H u0 p0 c0 {4,S}
10 H u0 p0 c0 {4,S}
11 H u0 p0 c0 {5,S}
12 H u0 p0 c0 {5,S}
13 H u0 p0 c0 {6,S}


>  <multiplicity>  (5) 
2

>  <reaction>  (5) 
rmg_rxn_267

>  <type>  (5) 
r2

>  <role_mapnums>  (5) 
{}

>  <role_mapidx>  (5) 
{}

>  <ordered_mapped_smiles>  (5) 
[C:1]1([H:7])[C:2]([H:8])([H:9])[O:3][C:4]([H:10])([H:11])[O:5][C:6]1([H:12])[H:13]

>  <level_of_theory>  (5) 
wb97xd/def2tzvp

>  <lot_method>  (5) 
wb97xd

>  <lot_basis>  (5) 
def2tzvp

>  <spin_multiplicity>  (5) 
2.0

>  <optical_isomers>  (5) 
1.0

>  <modes>  (5) 
IdealGasTranslation(mass=(87.0446, 'amu')),         NonlinearRotor(             inertia = ([94.1512, 104.116, 181.381

>  <frequency_value>  (5) 
unknown

>  <frequency_units>  (5) 
unknown

>  <frequency_list>  (5) 
unknown

>  <arkane_path>  (5) 
/home/calvin/Dropbox/PersonalFolders/Calvin/ATLAS_Converged/rmg_rxn_267/output/Species/rmg_rxn_267_r1_sbr-CH-sbr1COCOC1/arkane/output.py

>  <path_exists>  (5) 
True

>  <E0_value>  (5) 
-805805.5046036663

>  <E0_units>  (5) 
kJ/mol

>  <thermo_class>  (5) 
NASA

>  <Cp0_value>  (5) 
33.257888

>  <Cp0_units>  (5) 
J/(mol*K)

>  <CpInf_value>  (5) 
307.635464

>  <CpInf_units>  (5) 
J/(mol*K)

>  <Tmin_value>  (5) 
10.0

>  <Tmin_units>  (5) 
K

>  <Tmax_value>  (5) 
3000.0

>  <Tmax_units>  (5) 
K

>  <polynomials>  (5) 
[{"name": "polynomial1", "class": "NASAPolynomial", "Tmin_value": 10.0, "Tmin_units": "K", "Tmax_value": 532.6234384632435, "Tmax_units": "K", "coeffs": [3.9895632441253777, 0.00012573120731859374, 0.00014225277626324882, -2.393647807532974e-07, 1.2960002972211777e-10, -96916014.70318198, 10.80599494197436]}, {"name": "polynomial2", "class": "NASAPolynomial", "Tmin_value": 532.6234384632435, "Tmin_units": "K", "Tmax_value": 3000.0, "Tmax_units": "K", "coeffs": [-2.109707799159142, 0.05423092565181814, -3.349489651614801e-05, 9.869048606025939e-09, -1.1162728713998813e-12, -96915482.70627798, 35.284120928889635]}]

>  <H298_value>  (5) 
-192588.08392280544

>  <H298_units>  (5) 
kcal/mol

>  <S298_value>  (5) 
75.57885402958044

>  <S298_units>  (5) 
cal/(mol*K)

>  <Cp_T_value_list>  (5) 
[22.687824603425984, 29.40810210104957, 35.36239369095678, 40.45501415760785, 48.55545624595507, 54.40791969006955, 62.656762367093116, 66.5010316147293, 68.57528292327558]

>  <Cp_T_units>  (5) 
cal/(mol*K)

>  <T_list>  (5) 
[300.0, 400.0, 500.0, 600.0, 800.0, 1000.0, 1500.0, 2000.0, 2400.0]

>  <T_units>  (5) 
K

>  <yaml_path>  (5) 
/home/calvin/Dropbox/PersonalFolders/Calvin/ATLAS_Converged/rmg_rxn_267/output/Species/rmg_rxn_267_r1_sbr-CH-sbr1COCOC1/rmg_rxn_267_r1_sbr-CH-sbr1COCOC1.yml

>  <frequencies_cm1>  (5) 
[160.7904612678, 218.47313795579996, 380.63699628759997, 397.61905098395994, 478.6700787159199, 564.4249913920801, 779.7187151447199, 882.67542604748, 889.45314055832, 925.19579914892, 971.94623520748, 1029.1550899084, 1052.7912533798399, 1117.945210096, 1165.49221645168, 1207.6761072724398, 1217.9628512817999, 1281.02237747536, 1319.57363306184, 1356.37380739172, 1370.56099906284, 1398.8323776252798, 1427.65311501332, 1465.7648835393202, 1466.5751878070798, 1501.09552301072, 2858.88392937836, 2864.07537028028, 2892.532157446359, 3063.8291062537596, 3064.5570066976798, 3113.5117450439598, 3176.61934013476]

>  <ZPE_kJmol>  (5) 
281.49387475166685

>  <E_elec_kJmol>  (5) 
-806086.9984784179

>  <E0_minus_Eelec_plus_ZPE_kJmol>  (5) 
0.0

>  <rxn>  (5) 
rmg_rxn_267

>  <species_type>  (5) 
r0

>  <species_folder>  (5) 
rmg_rxn_267_r1_sbr-CH-sbr1COCOC1

>  <frequencies_cm1_list>  (5) 
[160.7904612678, 218.47313795579996, 380.63699628759997, 397.61905098395994, 478.6700787159199, 564.4249913920801, 779.7187151447199, 882.67542604748, 889.45314055832, 925.19579914892, 971.94623520748, 1029.1550899084, 1052.7912533798399, 1117.945210096, 1165.49221645168, 1207.6761072724398, 1217.9628512817999, 1281.02237747536, 1319.57363306184, 1356.37380739172, 1370.56099906284, 1398.8323776252798, 1427.65311501332, 1465.7648835393202, 1466.5751878070798, 1501.09552301072, 2858.88392937836, 2864.07537028028, 2892.532157446359, 3063.8291062537596, 3064.5570066976798, 3113.5117450439598, 3176.61934013476]

>  <E0_kJmol>  (5) 
-805806

>  <H298_kJmol>  (5) 
-805789

$$$$
