
     RDKit          3D

  7  6  0  0  0  0  0  0  0  0999 V2000
    0.3298    0.5753    0.9407 C   0  0  0  0  0  0  0  0  0  1  0  0
   -0.3364   -0.3372    0.1274 N   0  0  0  0  0  0  0  0  0  2  0  0
    0.0089   -0.3017   -1.0723 N   0  0  0  0  0  0  0  0  0  3  0  0
   -0.2337    1.5063    0.9172 H   0  0  0  0  0  0  0  0  0  4  0  0
    0.2676    0.3348    1.9975 H   0  0  0  0  0  0  0  0  0  5  0  0
    1.2974    0.9294    0.5808 H   0  0  0  0  0  0  0  0  0  6  0  0
   -0.5472   -1.0100   -1.5617 H   0  0  0  0  0  0  0  0  0  7  0  0
  1  5  1  0
  1  2  1  0
  1  4  1  0
  1  6  1  0
  2  3  1  0
  3  7  1  0
M  END
>  <rmg_smiles>  (1) 
C[N][NH]

>  <rmg_adjacency_list>  (1) 
1 N u0 p1 c0 {2,S} {3,S}
2 N u0 p1 c0 {1,S} {7,S}
3 C u0 p0 c0 {1,S} {4,S} {5,S} {6,S}
4 H u0 p0 c0 {3,S}
5 H u0 p0 c0 {3,S}
6 H u0 p0 c0 {3,S}
7 H u0 p0 c0 {2,S}


>  <multiplicity>  (1) 
1

>  <reaction>  (1) 
rmg_rxn_10699

>  <type>  (1) 
r1h

>  <role_mapnums>  (1) 
{"r1h_a": 1, "r1h_h": 4}

>  <role_mapidx>  (1) 
{"r1h_a": 0, "r1h_h": 3}

>  <ordered_mapped_smiles>  (1) 
[C:1]([NH:2][NH:3][H:7])([H:4])([H:5])[H:6]

>  <mol_properties>  (1) 
{"0": {"label": "donator", "atom_type": "Cs"}, "3": {"label": "d_hydrogen", "atom_type": "H0"}}

>  <level_of_theory>  (1) 
wb97xd/def2tzvp

>  <lot_method>  (1) 
wb97xd

>  <lot_basis>  (1) 
def2tzvp

>  <spin_multiplicity>  (1) 
1.0

>  <optical_isomers>  (1) 
1.0

>  <modes>  (1) 
IdealGasTranslation(mass=(44.0374, 'amu')),         NonlinearRotor(             inertia = ([8.23677, 45.0992, 50.2205

>  <frequency_value>  (1) 
unknown

>  <frequency_units>  (1) 
unknown

>  <frequency_list>  (1) 
unknown

>  <arkane_path>  (1) 
/home/calvin/Dropbox/PersonalFolders/Calvin/ZEUS_Converged/rmg_rxn_10699/output/Species/rmg_rxn_10699_r1_CN=N/arkane/output.py

>  <path_exists>  (1) 
True

>  <E0_value>  (1) 
-393587.49053709424

>  <E0_units>  (1) 
kJ/mol

>  <thermo_class>  (1) 
NASA

>  <Cp0_value>  (1) 
33.257888

>  <Cp0_units>  (1) 
J/(mol*K)

>  <CpInf_value>  (1) 
157.97496800000002

>  <CpInf_units>  (1) 
J/(mol*K)

>  <Tmin_value>  (1) 
10.0

>  <Tmin_units>  (1) 
K

>  <Tmax_value>  (1) 
3000.0

>  <Tmax_units>  (1) 
K

>  <polynomials>  (1) 
[{"name": "polynomial1", "class": "NASAPolynomial", "Tmin_value": 10.0, "Tmin_units": "K", "Tmax_value": 594.9639657079314, "Tmax_units": "K", "coeffs": [3.994177372758275, 0.00013386692778393056, 4.319937731174126e-05, -5.858249507934435e-08, 2.55997421131548e-11, -47337640.31429258, 6.866771830101672]}, {"name": "polynomial2", "class": "NASAPolynomial", "Tmin_value": 594.9639657079314, "Tmin_units": "K", "Tmax_value": 3000.0, "Tmax_units": "K", "coeffs": [0.7475738341828827, 0.021961835024589815, -1.183431232262963e-05, 3.0857275495096352e-09, -3.1372359596535523e-13, -47337254.00496767, 20.843833820516924]}]

>  <H298_value>  (1) 
-94066.73780029836

>  <H298_units>  (1) 
kcal/mol

>  <S298_value>  (1) 
61.82936265764643

>  <S298_units>  (1) 
cal/(mol*K)

>  <Cp_T_value_list>  (1) 
[13.012053200936506, 15.630766650793966, 18.159345702371915, 20.44871455029448, 24.232936593277145, 27.119606812306824, 31.575178011739702, 33.782982385342365, 34.85329802333024]

>  <Cp_T_units>  (1) 
cal/(mol*K)

>  <T_list>  (1) 
[300.0, 400.0, 500.0, 600.0, 800.0, 1000.0, 1500.0, 2000.0, 2400.0]

>  <T_units>  (1) 
K

>  <yaml_path>  (1) 
/home/calvin/Dropbox/PersonalFolders/Calvin/ZEUS_Converged/rmg_rxn_10699/output/Species/rmg_rxn_10699_r1_CN=N/rmg_rxn_10699_r1_CN=N.yml

>  <frequencies_cm1>  (1) 
[189.67986850904, 560.31853417072, 862.0401351608799, 951.2148065263999, 1139.87836120808, 1167.6141149155599, 1401.2770243992, 1457.2086198306001, 1457.84724946536, 1489.29117524564, 1682.1504579578398, 3004.62882581004, 3096.20694203756, 3100.6842164662, 3290.18554335692]

>  <ZPE_kJmol>  (1) 
148.63740153327285

>  <E_elec_kJmol>  (1) 
-393736.1279386275

>  <E0_minus_Eelec_plus_ZPE_kJmol>  (1) 
0.0

>  <rxn>  (1) 
rmg_rxn_10699

>  <species_type>  (1) 
r0

>  <species_folder>  (1) 
rmg_rxn_10699_r1_CN=N

>  <frequencies_cm1_list>  (1) 
[189.67986850904, 560.31853417072, 862.0401351608799, 951.2148065263999, 1139.87836120808, 1167.6141149155599, 1401.2770243992, 1457.2086198306001, 1457.84724946536, 1489.29117524564, 1682.1504579578398, 3004.62882581004, 3096.20694203756, 3100.6842164662, 3290.18554335692]

>  <E0_kJmol>  (1) 
-393587

>  <H298_kJmol>  (1) 
-393575

$$$$

     RDKit          3D

 17 16  0  0  0  0  0  0  0  0999 V2000
    2.0444   -0.0820    0.9789 H   0  0  0  0  0  0  0  0  0  1  0  0
   -1.5124   -2.2511    0.5628 C   0  0  0  0  0  0  0  0  0  2  0  0
   -1.9388   -0.8198    0.5108 C   0  0  0  0  0  0  0  0  0  3  0  0
   -1.2290    0.1806    0.0094 C   0  0  0  0  0  0  0  0  0  4  0  0
   -0.0164   -0.0289   -0.5875 O   0  0  0  0  0  0  0  0  0  5  0  0
    0.9094    1.0028   -0.1971 N   0  0  0  0  0  0  0  0  0  6  0  0
    1.4913    0.7743    0.9942 N   0  0  0  0  0  0  0  0  0  7  0  0
    1.8619    1.1395   -1.2819 C   0  0  0  0  0  0  0  0  0  8  0  0
   -2.0511   -2.8446   -0.1811 H   0  0  0  0  0  0  0  0  0  9  0  0
   -1.7409   -2.6825    1.5396 H   0  0  0  0  0  0  0  0  0 10  0  0
   -0.4440   -2.3594    0.3760 H   0  0  0  0  0  0  0  0  0 11  0  0
   -2.9261   -0.5671    0.8806 H   0  0  0  0  0  0  0  0  0 12  0  0
   -1.5663    1.2117    0.0018 H   0  0  0  0  0  0  0  0  0 13  0  0
    0.7518    0.5631    1.6633 H   0  0  0  0  0  0  0  0  0 14  0  0
    2.5559    1.9304   -1.0078 H   0  0  0  0  0  0  0  0  0 15  0  0
    1.3204    1.4157   -2.1830 H   0  0  0  0  0  0  0  0  0 16  0  0
    2.4044    0.2021   -1.4495 H   0  0  0  0  0  0  0  0  0 17  0  0
  1  7  1  0
  2 10  1  0
  2  9  1  0
  2 11  1  0
  2  3  1  0
  3  4  1  0
  3 12  1  0
  4 13  1  0
  4  5  1  0
  5  6  1  0
  6  8  1  0
  6  7  1  0
  7 14  1  0
  8 17  1  0
  8 16  1  0
  8 15  1  0
M  END
>  <rmg_smiles>  (2) 
C[CH][CH]ON(N)C

>  <rmg_adjacency_list>  (2) 
1  O u0 p2 c0 {2,S} {7,S}
2  N u0 p1 c0 {1,S} {3,S} {4,S}
3  N u0 p1 c0 {2,S} {16,S} {17,S}
4  C u0 p0 c0 {2,S} {11,S} {12,S} {13,S}
5  C u0 p0 c0 {6,S} {8,S} {9,S} {10,S}
6  C u0 p0 c0 {5,S} {7,S} {14,S}
7  C u0 p0 c0 {1,S} {6,S} {15,S}
8  H u0 p0 c0 {5,S}
9  H u0 p0 c0 {5,S}
10 H u0 p0 c0 {5,S}
11 H u0 p0 c0 {4,S}
12 H u0 p0 c0 {4,S}
13 H u0 p0 c0 {4,S}
14 H u0 p0 c0 {6,S}
15 H u0 p0 c0 {7,S}
16 H u0 p0 c0 {3,S}
17 H u0 p0 c0 {3,S}


>  <multiplicity>  (2) 
1

>  <reaction>  (2) 
rmg_rxn_10699

>  <type>  (2) 
r2h

>  <role_mapnums>  (2) 
{"r2h_a": 7, "r2h_h": 1}

>  <role_mapidx>  (2) 
{"r2h_a": 6, "r2h_h": 0}

>  <ordered_mapped_smiles>  (2) 
[H:1][N:7]([N:6]([O:5][CH:4]([CH:3]([C:2]([H:9])([H:10])[H:11])[H:12])[H:13])[C:8]([H:15])([H:16])[H:17])[H:14]

>  <mol_properties>  (2) 
{"0": {"label": "a_hydrogen", "atom_type": "H0"}, "6": {"label": "acceptor", "atom_type": "N3s"}}

>  <level_of_theory>  (2) 
wb97xd/def2tzvp

>  <lot_method>  (2) 
wb97xd

>  <lot_basis>  (2) 
def2tzvp

>  <spin_multiplicity>  (2) 
1.0

>  <optical_isomers>  (2) 
2.0

>  <modes>  (2) 
IdealGasTranslation(mass=(102.079, 'amu')),         NonlinearRotor(             inertia = ([85.6795, 376.18, 388.876

>  <frequency_value>  (2) 
unknown

>  <frequency_units>  (2) 
unknown

>  <frequency_list>  (2) 
unknown

>  <arkane_path>  (2) 
/home/calvin/Dropbox/PersonalFolders/Calvin/ZEUS_Converged/rmg_rxn_10699/output/Species/rmg_rxn_10699_p2_CC=CONrbr-N-rbrC/arkane/output.py

>  <path_exists>  (2) 
True

>  <E0_value>  (2) 
-900405.0494296006

>  <E0_units>  (2) 
kJ/mol

>  <thermo_class>  (2) 
NASA

>  <Cp0_value>  (2) 
33.257888

>  <Cp0_units>  (2) 
J/(mol*K)

>  <CpInf_value>  (2) 
407.409128

>  <CpInf_units>  (2) 
J/(mol*K)

>  <Tmin_value>  (2) 
10.0

>  <Tmin_units>  (2) 
K

>  <Tmax_value>  (2) 
3000.0

>  <Tmax_units>  (2) 
K

>  <polynomials>  (2) 
[{"name": "polynomial1", "class": "NASAPolynomial", "Tmin_value": 10.0, "Tmin_units": "K", "Tmax_value": 1108.736796573486, "Tmax_units": "K", "coeffs": [3.593482067657345, 0.04527343613148581, -7.853115807860651e-07, -2.043658609457127e-08, 8.18045447415304e-12, -108293714.18687978, 12.85162704751556]}, {"name": "polynomial2", "class": "NASAPolynomial", "Tmin_value": 1108.736796573486, "Tmin_units": "K", "Tmax_value": 3000.0, "Tmax_units": "K", "coeffs": [7.506038002578287, 0.046589931565087575, -2.3444009976697085e-05, 5.741145862751885e-09, -5.527118171710488e-13, -108295530.30298632, -10.705520626468415]}]

>  <H298_value>  (2) 
-215195.9362782153

>  <H298_units>  (2) 
kcal/mol

>  <S298_value>  (2) 
92.63660749241524

>  <S298_units>  (2) 
cal/(mol*K)

>  <Cp_T_value_list>  (2) 
[33.0259983327988, 40.69537554931736, 47.67423133324528, 53.89446290908325, 63.981717362233816, 71.19261681574156, 81.91300293988421, 87.42841994031997, 90.0449470406118]

>  <Cp_T_units>  (2) 
cal/(mol*K)

>  <T_list>  (2) 
[300.0, 400.0, 500.0, 600.0, 800.0, 1000.0, 1500.0, 2000.0, 2400.0]

>  <T_units>  (2) 
K

>  <yaml_path>  (2) 
/home/calvin/Dropbox/PersonalFolders/Calvin/ZEUS_Converged/rmg_rxn_10699/output/Species/rmg_rxn_10699_p2_CC=CONrbr-N-rbrC/rmg_rxn_10699_p2_CC=CONrbr-N-rbrC.yml

>  <frequencies_cm1>  (2) 
[42.90492427935999, 70.94969232623998, 121.85465450339998, 166.71666959895998, 253.87244728039994, 301.92074356444, 373.40606074563993, 419.64833989052, 445.81842094504, 504.72342102, 549.00174236336, 631.06908392268, 758.13578028396, 848.92419319968, 869.8822323963199, 938.1057315505199, 966.4663809221199, 985.6939398181199, 1045.86246519196, 1060.8324931895597, 1129.8319616849199, 1145.91444130436, 1177.50257377636, 1255.0720399510801, 1275.68672988172, 1357.8776771768, 1378.40309629828, 1417.9431977708398, 1431.4368239246398, 1469.8713407606797, 1474.3760831306, 1478.2284618951198, 1482.71260330908, 1665.8688357641197, 1738.5215404497199, 2975.03898606616, 3009.26404090104, 3062.7647235291597, 3097.66960991072, 3105.09968802696, 3145.0998775159596, 3146.5076095065597, 3168.9763854735997, 3405.2006804816, 3560.0443324622797]

>  <ZPE_kJmol>  (2) 
382.271003727177

>  <E_elec_kJmol>  (2) 
-900787.3204333278

>  <E0_minus_Eelec_plus_ZPE_kJmol>  (2) 
0.0

>  <rxn>  (2) 
rmg_rxn_10699

>  <species_type>  (2) 
p1

>  <species_folder>  (2) 
rmg_rxn_10699_p2_CC=CONrbr-N-rbrC

>  <frequencies_cm1_list>  (2) 
[42.90492427935999, 70.94969232623998, 121.85465450339998, 166.71666959895998, 253.87244728039994, 301.92074356444, 373.40606074563993, 419.64833989052, 445.81842094504, 504.72342102, 549.00174236336, 631.06908392268, 758.13578028396, 848.92419319968, 869.8822323963199, 938.1057315505199, 966.4663809221199, 985.6939398181199, 1045.86246519196, 1060.8324931895597, 1129.8319616849199, 1145.91444130436, 1177.50257377636, 1255.0720399510801, 1275.68672988172, 1357.8776771768, 1378.40309629828, 1417.9431977708398, 1431.4368239246398, 1469.8713407606797, 1474.3760831306, 1478.2284618951198, 1482.71260330908, 1665.8688357641197, 1738.5215404497199, 2975.03898606616, 3009.26404090104, 3062.7647235291597, 3097.66960991072, 3105.09968802696, 3145.0998775159596, 3146.5076095065597, 3168.9763854735997, 3405.2006804816, 3560.0443324622797]

>  <E0_kJmol>  (2) 
-900405

>  <H298_kJmol>  (2) 
-900380

$$$$

     RDKit          3D

 23 21  0  0  0  0  0  0  0  0999 V2000
    2.0578   -0.7931    0.8958 C   0  0  0  0  0  0  0  0  0  1  0  0
    1.3916   -1.7057    0.0825 N   0  0  0  0  0  0  0  0  0  2  0  0
    1.7369   -1.6701   -1.1173 N   0  0  0  0  0  2  0  0  0  3  0  0
    1.3324    0.4051    0.8655 H   0  0  0  0  0  0  0  0  0  4  0  0
    1.9956   -1.0336    1.9525 H   0  0  0  0  0  0  0  0  0  5  0  0
    3.0253   -0.4390    0.5358 H   0  0  0  0  0  0  0  0  0  6  0  0
    1.1808   -2.3785   -1.6067 H   0  0  0  0  0  0  0  0  0  7  0  0
   -2.3363   -1.5908    0.4526 C   0  0  0  0  0  0  0  0  0  8  0  0
   -2.7627   -0.1594    0.4005 C   0  0  0  0  0  0  0  0  0  9  0  0
   -2.0529    0.8410   -0.1008 C   0  0  0  0  0  0  0  0  0 10  0  0
   -0.8403    0.6315   -0.6978 O   0  0  0  0  0  0  0  0  0 11  0  0
    0.0855    1.6632   -0.3073 N   0  0  0  0  0  0  0  0  0 12  0  0
    0.6674    1.4346    0.8840 N   0  0  0  0  0  0  0  0  0 13  0  0
    1.0380    1.7999   -1.3921 C   0  0  0  0  0  0  0  0  0 14  0  0
   -2.8750   -2.1843   -0.2914 H   0  0  0  0  0  0  0  0  0 15  0  0
   -2.5648   -2.0221    1.4293 H   0  0  0  0  0  0  0  0  0 16  0  0
   -1.2679   -1.6991    0.2657 H   0  0  0  0  0  0  0  0  0 17  0  0
   -3.7500    0.0932    0.7703 H   0  0  0  0  0  0  0  0  0 18  0  0
   -2.3902    1.8721   -0.1084 H   0  0  0  0  0  0  0  0  0 19  0  0
   -0.0722    1.2235    1.5531 H   0  0  0  0  0  0  0  0  0 20  0  0
    1.7319    2.5908   -1.1181 H   0  0  0  0  0  0  0  0  0 21  0  0
    0.4965    2.0761   -2.2932 H   0  0  0  0  0  0  0  0  0 22  0  0
    1.5805    0.8625   -1.5597 H   0  0  0  0  0  0  0  0  0 23  0  0
  1  5  1  0
  1  2  1  0
  1  6  1  0
  2  3  1  0
  3  7  1  0
  4 13  1  0
  8 16  1  0
  8 17  1  0
  8  9  1  0
  8 15  1  0
  9 18  1  0
  9 10  1  0
 10 11  1  0
 10 19  1  0
 11 12  1  0
 12 13  1  0
 12 14  1  0
 13 20  1  0
 14 23  1  0
 14 22  1  0
 14 21  1  0
M  RAD  1   3   2
M  END
>  <rmg_smiles>  (3) 
C[CH][CH]ON(N)C.[CH2][N][NH]

>  <rmg_adjacency_list>  (3) 
multiplicity 2
1  O u0 p2 c0 {2,S} {9,S}
2  N u0 p1 c0 {1,S} {3,S} {6,S}
3  N u0 p1 c0 {2,S} {19,S} {20,S}
4  N u0 p1 c0 {5,S} {10,S}
5  N u1 p1 c0 {4,S} {23,S}
6  C u0 p0 c0 {2,S} {14,S} {15,S} {16,S}
7  C u0 p0 c0 {8,S} {11,S} {12,S} {13,S}
8  C u0 p0 c0 {7,S} {9,S} {17,S}
9  C u0 p0 c0 {1,S} {8,S} {18,S}
10 C u0 p0 c0 {4,S} {21,S} {22,S}
11 H u0 p0 c0 {7,S}
12 H u0 p0 c0 {7,S}
13 H u0 p0 c0 {7,S}
14 H u0 p0 c0 {6,S}
15 H u0 p0 c0 {6,S}
16 H u0 p0 c0 {6,S}
17 H u0 p0 c0 {8,S}
18 H u0 p0 c0 {9,S}
19 H u0 p0 c0 {3,S}
20 H u0 p0 c0 {3,S}
21 H u0 p0 c0 {10,S}
22 H u0 p0 c0 {10,S}
23 H u0 p0 c0 {5,S}


>  <multiplicity>  (3) 
2

>  <reaction>  (3) 
rmg_rxn_10699

>  <type>  (3) 
ts

>  <role_mapnums>  (3) 
{"*2": 4, "*1": 1, "*3": 13, "*0": 12, "*4": 2}

>  <role_mapidx>  (3) 
{"*2": 3, "*1": 0, "*3": 12, "*0": 11, "*4": 1}

>  <ordered_mapped_smiles>  (3) 
[CH:1]([NH:2][N:3][H:7])([H:5])[H:6].[H:4][N:13]([N:12]([O:11][CH:10]([CH:9]([C:8]([H:15])([H:16])[H:17])[H:18])[H:19])[C:14]([H:21])([H:22])[H:23])[H:20]

>  <mol_properties>  (3) 
{"0": {"label": "*1", "atom_type": "Cs"}, "1": {"label": "*4", "atom_type": "N3s"}, "3": {"label": "*2", "atom_type": "H0"}, "11": {"label": "*0", "atom_type": "N3s"}, "12": {"label": "*3", "atom_type": "N3s"}}

>  <level_of_theory>  (3) 
wb97xd/def2tzvp

>  <lot_method>  (3) 
wb97xd

>  <lot_basis>  (3) 
def2tzvp

>  <spin_multiplicity>  (3) 
2.0

>  <optical_isomers>  (3) 
2.0

>  <modes>  (3) 
IdealGasTranslation(mass=(145.109, 'amu')),         NonlinearRotor(             inertia = ([363.475, 509.876, 700.32

>  <frequency_value>  (3) 
-1812.73

>  <frequency_units>  (3) 
cm^-1

>  <frequency_list>  (3) 
unknown

>  <arkane_path>  (3) 
/home/calvin/Dropbox/PersonalFolders/Calvin/ZEUS_Converged/rmg_rxn_10699/output/rxns/TS0/arkane/output.py

>  <path_exists>  (3) 
True

>  <E0_value>  (3) 
-1292260.0

>  <E0_units>  (3) 
kJ/mol

>  <thermo_class>  (3) 
unknown

>  <Cp0_value>  (3) 
unknown

>  <Cp0_units>  (3) 
unknown

>  <CpInf_value>  (3) 
unknown

>  <CpInf_units>  (3) 
unknown

>  <Tmin_value>  (3) 
unknown

>  <Tmin_units>  (3) 
unknown

>  <Tmax_value>  (3) 
unknown

>  <Tmax_units>  (3) 
unknown

>  <polynomials>  (3) 
unknown

>  <H298_value>  (3) 
unknown

>  <H298_units>  (3) 
unknown

>  <S298_value>  (3) 
unknown

>  <S298_units>  (3) 
unknown

>  <Cp_T_value_list>  (3) 
unknown

>  <Cp_T_units>  (3) 
unknown

>  <T_list>  (3) 
unknown

>  <T_units>  (3) 
unknown

>  <yaml_path>  (3) 
unknown

>  <frequencies_cm1>  (3) 
unknown

>  <ZPE_kJmol>  (3) 
unknown

>  <E_elec_kJmol>  (3) 
unknown

>  <E0_minus_Eelec_plus_ZPE_kJmol>  (3) 
unknown

>  <rxn>  (3) 
unknown

>  <species_type>  (3) 
unknown

>  <species_folder>  (3) 
unknown

>  <frequencies_cm1_list>  (3) 
[]

>  <ts_imag_freq_cm1>  (3) 
-1834.7448

>  <ts_freq_out_path>  (3) 
/home/calvin/Dropbox/PersonalFolders/Calvin/ZEUS_Converged/rmg_rxn_10699/output/rxns/TS0/geometry/freq.out

>  <E0_kJmol>  (3) 
-1.29226e+06

>  <H298_kJmol>  (3) 
unknown

$$$$

     RDKit          3D

  6  5  0  0  0  0  0  0  0  0999 V2000
   -0.9013   -0.0140    0.1155 C   0  0  0  0  0  0  0  0  0  1  0  0
    0.3021   -0.2322    0.4592 N   0  0  0  0  0  0  0  0  0  2  0  0
    1.3542   -0.2232   -0.2821 N   0  0  0  0  0  2  0  0  0  3  0  0
   -1.6842   -0.2428    0.8263 H   0  0  0  0  0  0  0  0  0  4  0  0
   -1.1488    0.4082   -0.8566 H   0  0  0  0  0  0  0  0  0  5  0  0
    2.0778    0.3039    0.2111 H   0  0  0  0  0  0  0  0  0  6  0  0
  1  5  1  0
  1  2  1  0
  1  4  1  0
  2  3  1  0
  3  6  1  0
M  RAD  1   3   2
M  END
>  <rmg_smiles>  (4) 
[CH2][N][NH]

>  <rmg_adjacency_list>  (4) 
multiplicity 2
1 N u0 p1 c0 {2,S} {3,S}
2 N u1 p1 c0 {1,S} {6,S}
3 C u0 p0 c0 {1,S} {4,S} {5,S}
4 H u0 p0 c0 {3,S}
5 H u0 p0 c0 {3,S}
6 H u0 p0 c0 {2,S}


>  <multiplicity>  (4) 
2

>  <reaction>  (4) 
rmg_rxn_10699

>  <type>  (4) 
r1

>  <role_mapnums>  (4) 
{}

>  <role_mapidx>  (4) 
{}

>  <ordered_mapped_smiles>  (4) 
[CH:1]([NH:2][N:3][H:6])([H:4])[H:5]

>  <level_of_theory>  (4) 
wb97xd/def2tzvp

>  <lot_method>  (4) 
wb97xd

>  <lot_basis>  (4) 
def2tzvp

>  <spin_multiplicity>  (4) 
2.0

>  <optical_isomers>  (4) 
2.0

>  <modes>  (4) 
IdealGasTranslation(mass=(43.0296, 'amu')),         NonlinearRotor(             inertia = ([5.19226, 43.658, 47.8424

>  <frequency_value>  (4) 
unknown

>  <frequency_units>  (4) 
unknown

>  <frequency_list>  (4) 
unknown

>  <arkane_path>  (4) 
/home/calvin/Dropbox/PersonalFolders/Calvin/ZEUS_Converged/rmg_rxn_10699/output/Species/rmg_rxn_10699_p1_sbr-CH2-sbrN=N/arkane/output.py

>  <path_exists>  (4) 
True

>  <E0_value>  (4) 
-391920.6333965682

>  <E0_units>  (4) 
kJ/mol

>  <thermo_class>  (4) 
NASA

>  <Cp0_value>  (4) 
33.257888

>  <Cp0_units>  (4) 
J/(mol*K)

>  <CpInf_value>  (4) 
133.031552

>  <CpInf_units>  (4) 
J/(mol*K)

>  <Tmin_value>  (4) 
10.0

>  <Tmin_units>  (4) 
K

>  <Tmax_value>  (4) 
3000.0

>  <Tmax_units>  (4) 
K

>  <polynomials>  (4) 
[{"name": "polynomial1", "class": "NASAPolynomial", "Tmin_value": 10.0, "Tmin_units": "K", "Tmax_value": 496.6225350599894, "Tmax_units": "K", "coeffs": [4.048842022775221, -0.004811673579532624, 7.691197095471104e-05, -1.3944695539870853e-07, 8.394598611230936e-11, -47137163.94760196, 7.756077011496675]}, {"name": "polynomial2", "class": "NASAPolynomial", "Tmin_value": 496.6225350599894, "Tmin_units": "K", "Tmax_value": 3000.0, "Tmax_units": "K", "coeffs": [1.9689336501839603, 0.018077981446921236, -1.0760897904638805e-05, 3.1291548748584313e-09, -3.5348076263094007e-13, -47137033.04414737, 15.57268142885652]}]

>  <H298_value>  (4) 
-93668.4252162369

>  <H298_units>  (4) 
kcal/mol

>  <S298_value>  (4) 
63.072520824839664

>  <S298_units>  (4) 
cal/(mol*K)

>  <Cp_T_value_list>  (4) 
[12.8022043404149, 15.211072246369357, 17.26236946866886, 19.021313328085203, 21.86262139281595, 23.96907137321242, 27.116002789298015, 28.732724138801718, 29.615558729528566]

>  <Cp_T_units>  (4) 
cal/(mol*K)

>  <T_list>  (4) 
[300.0, 400.0, 500.0, 600.0, 800.0, 1000.0, 1500.0, 2000.0, 2400.0]

>  <T_units>  (4) 
K

>  <yaml_path>  (4) 
/home/calvin/Dropbox/PersonalFolders/Calvin/ZEUS_Converged/rmg_rxn_10699/output/Species/rmg_rxn_10699_p1_sbr-CH2-sbrN=N/rmg_rxn_10699_p1_sbr-CH2-sbrN=N.yml

>  <frequencies_cm1>  (4) 
[393.14177655532, 444.91197888279993, 784.3813981769999, 942.0199131829199, 1128.6577071952, 1167.0784900606, 1268.0575091911996, 1481.2980043331602, 1665.49115157152, 3071.09437672232, 3205.7490918622, 3402.90710738472]

>  <ZPE_kJmol>  (4) 
113.37484512932318

>  <E_elec_kJmol>  (4) 
-392034.0082416976

>  <E0_minus_Eelec_plus_ZPE_kJmol>  (4) 
0.0

>  <rxn>  (4) 
rmg_rxn_10699

>  <species_type>  (4) 
p0

>  <species_folder>  (4) 
rmg_rxn_10699_p1_sbr-CH2-sbrN=N

>  <frequencies_cm1_list>  (4) 
[393.14177655532, 444.91197888279993, 784.3813981769999, 942.0199131829199, 1128.6577071952, 1167.0784900606, 1268.0575091911996, 1481.2980043331602, 1665.49115157152, 3071.09437672232, 3205.7490918622, 3402.90710738472]

>  <E0_kJmol>  (4) 
-391921

>  <H298_kJmol>  (4) 
-391909

$$$$

     RDKit          3D

 16 15  0  0  0  0  0  0  0  0999 V2000
   -2.7163    0.6711   -0.2082 C   0  0  0  0  0  0  0  0  0  1  0  0
   -2.0604   -0.6699   -0.1371 C   0  0  0  0  0  0  0  0  0  2  0  0
   -1.8776   -1.4967   -1.1546 C   0  0  0  0  0  0  0  0  0  3  0  0
   -2.2450   -1.1612   -2.4322 O   0  0  0  0  0  0  0  0  0  4  0  0
   -2.5108   -2.3329   -3.2086 N   0  0  0  0  0  0  0  0  0  5  0  0
   -2.0229   -2.3050   -4.4233 N   0  0  0  0  0  2  0  0  0  6  0  0
   -3.9082   -2.7128   -3.0828 C   0  0  0  0  0  0  0  0  0  7  0  0
   -3.4812    0.7676    0.5653 H   0  0  0  0  0  0  0  0  0  8  0  0
   -3.1809    0.8365   -1.1792 H   0  0  0  0  0  0  0  0  0  9  0  0
   -1.9897    1.4706   -0.0417 H   0  0  0  0  0  0  0  0  0 10  0  0
   -1.6717   -0.9974    0.8197 H   0  0  0  0  0  0  0  0  0 11  0  0
   -1.3990   -2.4648   -1.0638 H   0  0  0  0  0  0  0  0  0 12  0  0
   -1.1779   -1.7364   -4.3793 H   0  0  0  0  0  0  0  0  0 13  0  0
   -4.5563   -1.9305   -3.4853 H   0  0  0  0  0  0  0  0  0 14  0  0
   -4.1357   -2.8800   -2.0315 H   0  0  0  0  0  0  0  0  0 15  0  0
   -4.0457   -3.6333   -3.6440 H   0  0  0  0  0  0  0  0  0 16  0  0
  1 10  1  0
  1  8  1  0
  1  9  1  0
  1  2  1  0
  2 11  1  0
  2  3  1  0
  3  4  1  0
  3 12  1  0
  4  5  1  0
  5  6  1  0
  5  7  1  0
  6 13  1  0
  7 14  1  0
  7 15  1  0
  7 16  1  0
M  RAD  1   6   2
M  END
>  <rmg_smiles>  (5) 
C[CH][CH]ON([NH])C

>  <rmg_adjacency_list>  (5) 
multiplicity 2
1  O u0 p2 c0 {2,S} {7,S}
2  N u0 p1 c0 {1,S} {3,S} {5,S}
3  N u1 p1 c0 {2,S} {16,S}
4  C u0 p0 c0 {6,S} {8,S} {9,S} {10,S}
5  C u0 p0 c0 {2,S} {11,S} {12,S} {13,S}
6  C u0 p0 c0 {4,S} {7,S} {14,S}
7  C u0 p0 c0 {1,S} {6,S} {15,S}
8  H u0 p0 c0 {4,S}
9  H u0 p0 c0 {4,S}
10 H u0 p0 c0 {4,S}
11 H u0 p0 c0 {5,S}
12 H u0 p0 c0 {5,S}
13 H u0 p0 c0 {5,S}
14 H u0 p0 c0 {6,S}
15 H u0 p0 c0 {7,S}
16 H u0 p0 c0 {3,S}


>  <multiplicity>  (5) 
2

>  <reaction>  (5) 
rmg_rxn_10699

>  <type>  (5) 
r2

>  <role_mapnums>  (5) 
{}

>  <role_mapidx>  (5) 
{}

>  <ordered_mapped_smiles>  (5) 
[C:1]([CH:2]([CH:3]([O:4][N:5]([N:6][H:13])[C:7]([H:14])([H:15])[H:16])[H:12])[H:11])([H:8])([H:9])[H:10]

>  <level_of_theory>  (5) 
wb97xd/def2tzvp

>  <lot_method>  (5) 
wb97xd

>  <lot_basis>  (5) 
def2tzvp

>  <spin_multiplicity>  (5) 
2.0

>  <optical_isomers>  (5) 
2.0

>  <modes>  (5) 
IdealGasTranslation(mass=(101.071, 'amu')),         NonlinearRotor(             inertia = ([82.2482, 367.276, 386.349

>  <frequency_value>  (5) 
unknown

>  <frequency_units>  (5) 
unknown

>  <frequency_list>  (5) 
unknown

>  <arkane_path>  (5) 
/home/calvin/Dropbox/PersonalFolders/Calvin/ZEUS_Converged/rmg_rxn_10699/output/Species/rmg_rxn_10699_r2_CC=CONrbr-sbr-NH-sbr-rbrC/arkane/output.py

>  <path_exists>  (5) 
True

>  <E0_value>  (5) 
-898742.9185379538

>  <E0_units>  (5) 
kJ/mol

>  <thermo_class>  (5) 
NASA

>  <Cp0_value>  (5) 
33.257888

>  <Cp0_units>  (5) 
J/(mol*K)

>  <CpInf_value>  (5) 
382.465712

>  <CpInf_units>  (5) 
J/(mol*K)

>  <Tmin_value>  (5) 
10.0

>  <Tmin_units>  (5) 
K

>  <Tmax_value>  (5) 
3000.0

>  <Tmax_units>  (5) 
K

>  <polynomials>  (5) 
[{"name": "polynomial1", "class": "NASAPolynomial", "Tmin_value": 10.0, "Tmin_units": "K", "Tmax_value": 1230.3472949169695, "Tmax_units": "K", "coeffs": [3.6364475231756046, 0.04601226900129711, -1.0447555598908227e-05, -9.397698188465058e-09, 4.2998077544836165e-12, -108093806.2073487, 13.356248752428224]}, {"name": "polynomial2", "class": "NASAPolynomial", "Tmin_value": 1230.3472949169695, "Tmin_units": "K", "Tmax_value": 3000.0, "Tmax_units": "K", "coeffs": [10.637608490990464, 0.03762916917718073, -1.775692675502755e-05, 4.061454965423361e-09, -3.650754676341201e-13, -108096617.25339198, -26.294251832019942]}]

>  <H298_value>  (5) 
-214798.7169570288

>  <H298_units>  (5) 
kcal/mol

>  <S298_value>  (5) 
93.88909312712664

>  <S298_units>  (5) 
cal/(mol*K)

>  <Cp_T_value_list>  (5) 
[32.353587447653005, 39.5024233546788, 45.9535916020781, 51.68732293220983, 61.02593308117714, 67.77024082473554, 77.47619956814351, 82.5061750415756, 84.8555895677637]

>  <Cp_T_units>  (5) 
cal/(mol*K)

>  <T_list>  (5) 
[300.0, 400.0, 500.0, 600.0, 800.0, 1000.0, 1500.0, 2000.0, 2400.0]

>  <T_units>  (5) 
K

>  <yaml_path>  (5) 
/home/calvin/Dropbox/PersonalFolders/Calvin/ZEUS_Converged/rmg_rxn_10699/output/Species/rmg_rxn_10699_r2_CC=CONrbr-sbr-NH-sbr-rbrC/rmg_rxn_10699_r2_CC=CONrbr-sbr-NH-sbr-rbrC.yml

>  <frequencies_cm1>  (5) 
[39.766711988119994, 75.63297631448, 123.26238649399998, 170.50724549560002, 210.75464645612, 275.49658405307997, 409.25172411604, 436.20464149704003, 468.50694044231994, 500.21867865008005, 576.8748357772399, 635.10687129084, 759.24136492048, 839.57822617916, 939.32118795216, 961.2680730348799, 1009.44684204, 1040.7534281138799, 1058.9372052412398, 1116.31086758984, 1136.6302771517198, 1158.60463017572, 1269.5201770643598, 1302.9417946168, 1381.1704913822398, 1418.63676328816, 1428.2093408242401, 1447.1828212633998, 1467.8867820031996, 1473.94346305544, 1477.12974424392, 1484.2920099326798, 1743.06061774624, 3013.6108426086, 3018.1636538757602, 3068.4780553153996, 3106.96064104868, 3110.6619461361597, 3147.0088994349203, 3149.9479691518795, 3171.6476427630796, 3452.55541124832]

>  <ZPE_kJmol>  (5) 
347.36385809522346

>  <E_elec_kJmol>  (5) 
-899090.282396049

>  <E0_minus_Eelec_plus_ZPE_kJmol>  (5) 
0.0

>  <rxn>  (5) 
rmg_rxn_10699

>  <species_type>  (5) 
r1

>  <species_folder>  (5) 
rmg_rxn_10699_r2_CC=CONrbr-sbr-NH-sbr-rbrC

>  <frequencies_cm1_list>  (5) 
[39.766711988119994, 75.63297631448, 123.26238649399998, 170.50724549560002, 210.75464645612, 275.49658405307997, 409.25172411604, 436.20464149704003, 468.50694044231994, 500.21867865008005, 576.8748357772399, 635.10687129084, 759.24136492048, 839.57822617916, 939.32118795216, 961.2680730348799, 1009.44684204, 1040.7534281138799, 1058.9372052412398, 1116.31086758984, 1136.6302771517198, 1158.60463017572, 1269.5201770643598, 1302.9417946168, 1381.1704913822398, 1418.63676328816, 1428.2093408242401, 1447.1828212633998, 1467.8867820031996, 1473.94346305544, 1477.12974424392, 1484.2920099326798, 1743.06061774624, 3013.6108426086, 3018.1636538757602, 3068.4780553153996, 3106.96064104868, 3110.6619461361597, 3147.0088994349203, 3149.9479691518795, 3171.6476427630796, 3452.55541124832]

>  <E0_kJmol>  (5) 
-898743

>  <H298_kJmol>  (5) 
-898718

$$$$
