
     RDKit          3D

  9  9  0  0  0  0  0  0  0  0999 V2000
   -0.2975   -0.8679    0.9980 O   0  0  0  0  0  0  0  0  0  1  0  0
    0.4945   -0.0959    0.1805 N   0  0  0  0  0  0  0  0  0  2  0  0
   -0.1375    1.1460   -0.2223 C   0  0  0  0  0  0  0  0  0  3  0  0
   -0.0147    0.0042   -1.1752 C   0  0  0  0  0  0  0  0  0  4  0  0
    0.3148   -1.2885    1.6061 H   0  0  0  0  0  0  0  0  0  5  0  0
    0.5190    2.0036   -0.2967 H   0  0  0  0  0  0  0  0  0  6  0  0
   -1.1224    1.3314    0.1874 H   0  0  0  0  0  0  0  0  0  7  0  0
   -0.9210   -0.5505   -1.3841 H   0  0  0  0  0  0  0  0  0  8  0  0
    0.7339    0.0103   -1.9572 H   0  0  0  0  0  0  0  0  0  9  0  0
  1  5  1  0
  1  2  1  0
  2  3  1  0
  2  4  1  0
  3  4  1  0
  3  6  1  0
  3  7  1  0
  4  8  1  0
  4  9  1  0
M  END
>  <rmg_smiles>  (1) 
ON1CC1

>  <rmg_adjacency_list>  (1) 
1 O u0 p2 c0 {2,S} {9,S}
2 N u0 p1 c0 {1,S} {3,S} {4,S}
3 C u0 p0 c0 {2,S} {4,S} {5,S} {6,S}
4 C u0 p0 c0 {2,S} {3,S} {7,S} {8,S}
5 H u0 p0 c0 {3,S}
6 H u0 p0 c0 {3,S}
7 H u0 p0 c0 {4,S}
8 H u0 p0 c0 {4,S}
9 H u0 p0 c0 {1,S}


>  <multiplicity>  (1) 
1

>  <reaction>  (1) 
rmg_rxn_3096

>  <type>  (1) 
r1h

>  <role_mapnums>  (1) 
{"r1h_a": 1, "r1h_h": 5}

>  <role_mapidx>  (1) 
{"r1h_a": 0, "r1h_h": 4}

>  <ordered_mapped_smiles>  (1) 
[O:1]([N:2]1[C:3]([H:6])([H:7])[C:4]1([H:8])[H:9])[H:5]

>  <mol_properties>  (1) 
{"0": {"label": "donator", "atom_type": "O2s"}, "4": {"label": "d_hydrogen", "atom_type": "H0"}}

>  <level_of_theory>  (1) 
wb97xd/def2tzvp

>  <lot_method>  (1) 
wb97xd

>  <lot_basis>  (1) 
def2tzvp

>  <spin_multiplicity>  (1) 
1.0

>  <optical_isomers>  (1) 
1.0

>  <modes>  (1) 
IdealGasTranslation(mass=(59.0371, 'amu')),         NonlinearRotor(             inertia = ([28.1872, 66.5407, 77.6102

>  <frequency_value>  (1) 
unknown

>  <frequency_units>  (1) 
unknown

>  <frequency_list>  (1) 
unknown

>  <arkane_path>  (1) 
/home/calvin/Dropbox/PersonalFolders/Calvin/ATLAS_Converged/rmg_rxn_3096/output/Species/rmg_rxn_3096_r2_ON1CC1/arkane/output.py

>  <path_exists>  (1) 
True

>  <E0_value>  (1) 
-548830.9755880404

>  <E0_units>  (1) 
kJ/mol

>  <thermo_class>  (1) 
NASA

>  <Cp0_value>  (1) 
33.257888

>  <Cp0_units>  (1) 
J/(mol*K)

>  <CpInf_value>  (1) 
207.8618

>  <CpInf_units>  (1) 
J/(mol*K)

>  <Tmin_value>  (1) 
10.0

>  <Tmin_units>  (1) 
K

>  <Tmax_value>  (1) 
3000.0

>  <Tmax_units>  (1) 
K

>  <polynomials>  (1) 
[{"name": "polynomial1", "class": "NASAPolynomial", "Tmin_value": 10.0, "Tmin_units": "K", "Tmax_value": 587.2199948559334, "Tmax_units": "K", "coeffs": [4.01290829659194, -0.0016502474955422339, 9.708642231333483e-05, -1.6094228553485929e-07, 8.484346380941685e-11, -66009118.08554968, 8.391880568105824]}, {"name": "polynomial2", "class": "NASAPolynomial", "Tmin_value": 587.2199948559334, "Tmin_units": "K", "Tmax_value": 3000.0, "Tmax_units": "K", "coeffs": [0.7337841600207903, 0.03241844705827431, -1.990752940299833e-05, 5.903220459412223e-09, -6.732998606532043e-13, -66008935.2494822, 20.743767898900355]}]

>  <H298_value>  (1) 
-131170.36722140852

>  <H298_units>  (1) 
kcal/mol

>  <S298_value>  (1) 
67.20815903717752

>  <S298_units>  (1) 
cal/(mol*K)

>  <Cp_T_value_list>  (1) 
[17.084813947658525, 21.379009937156017, 25.126876739126274, 28.23021137141331, 33.135452712013276, 36.71288976391953, 41.89886219457449, 44.500561578088046, 45.980647572639626]

>  <Cp_T_units>  (1) 
cal/(mol*K)

>  <T_list>  (1) 
[300.0, 400.0, 500.0, 600.0, 800.0, 1000.0, 1500.0, 2000.0, 2400.0]

>  <T_units>  (1) 
K

>  <yaml_path>  (1) 
/home/calvin/Dropbox/PersonalFolders/Calvin/ATLAS_Converged/rmg_rxn_3096/output/Species/rmg_rxn_3096_r2_ON1CC1/rmg_rxn_3096_r2_ON1CC1.yml

>  <frequencies_cm1>  (1) 
[133.13711138415997, 422.03805078188, 447.52830028972, 737.70649895696, 837.0649095520399, 880.14837544972, 977.55656221392, 1021.37479554084, 1108.8807894735999, 1123.8508174712, 1174.6390408979198, 1175.03732604648, 1241.8668271807198, 1382.8803707269199, 1458.29360351116, 1496.32296821332, 3107.7915462724, 3111.1083001819597, 3196.87694682876, 3210.06155864316, 3845.8619954513197]

>  <ZPE_kJmol>  (1) 
191.94103937201209

>  <E_elec_kJmol>  (1) 
-549022.9166274124

>  <E0_minus_Eelec_plus_ZPE_kJmol>  (1) 
0.0

>  <rxn>  (1) 
rmg_rxn_3096

>  <species_type>  (1) 
r1

>  <species_folder>  (1) 
rmg_rxn_3096_r2_ON1CC1

>  <frequencies_cm1_list>  (1) 
[133.13711138415997, 422.03805078188, 447.52830028972, 737.70649895696, 837.0649095520399, 880.14837544972, 977.55656221392, 1021.37479554084, 1108.8807894735999, 1123.8508174712, 1174.6390408979198, 1175.03732604648, 1241.8668271807198, 1382.8803707269199, 1458.29360351116, 1496.32296821332, 3107.7915462724, 3111.1083001819597, 3196.87694682876, 3210.06155864316, 3845.8619954513197]

>  <E0_kJmol>  (1) 
-548831

>  <H298_kJmol>  (1) 
-548817

$$$$

     RDKit          3D

  9  8  0  0  0  0  0  0  0  0999 V2000
   -0.5523    0.8509    1.4176 C   0  0  0  0  0  0  0  0  0  1  0  0
    0.5078    0.5944    0.3957 C   0  0  0  0  0  0  0  0  0  2  0  0
    0.0724   -0.6894   -0.8138 S   0  0  0  0  0  0  0  0  0  3  0  0
   -1.0143   -0.0302    1.8571 H   0  0  0  0  0  0  0  0  0  4  0  0
   -0.3176    1.6352    2.1360 H   0  0  0  0  0  0  0  0  0  5  0  0
    1.4244    0.2322    0.8726 H   0  0  0  0  0  0  0  0  0  6  0  0
    0.7572    1.5171   -0.1302 H   0  0  0  0  0  0  0  0  0  7  0  0
   -1.0580   -0.1059   -1.2351 H   0  0  0  0  0  0  0  0  0  8  0  0
   -1.3659    1.3064    0.8563 H   0  0  0  0  0  0  0  0  0  9  0  0
  1  5  1  0
  1  9  1  0
  1  4  1  0
  1  2  1  0
  2  7  1  0
  2  3  1  0
  2  6  1  0
  3  8  1  0
M  END
>  <rmg_smiles>  (2) 
CCS

>  <rmg_adjacency_list>  (2) 
1 S u0 p2 c0 {2,S} {9,S}
2 C u0 p0 c0 {1,S} {3,S} {4,S} {5,S}
3 C u0 p0 c0 {2,S} {6,S} {7,S} {8,S}
4 H u0 p0 c0 {2,S}
5 H u0 p0 c0 {2,S}
6 H u0 p0 c0 {3,S}
7 H u0 p0 c0 {3,S}
8 H u0 p0 c0 {3,S}
9 H u0 p0 c0 {1,S}


>  <multiplicity>  (2) 
1

>  <reaction>  (2) 
rmg_rxn_3096

>  <type>  (2) 
r2h

>  <role_mapnums>  (2) 
{"r2h_a": 1, "r2h_h": 9}

>  <role_mapidx>  (2) 
{"r2h_a": 0, "r2h_h": 8}

>  <ordered_mapped_smiles>  (2) 
[C:1]([C:2]([S:3][H:8])([H:6])[H:7])([H:4])([H:5])[H:9]

>  <mol_properties>  (2) 
{"0": {"label": "acceptor", "atom_type": "Cs"}, "8": {"label": "a_hydrogen", "atom_type": "H0"}}

>  <level_of_theory>  (2) 
wb97xd/def2tzvp

>  <lot_method>  (2) 
wb97xd

>  <lot_basis>  (2) 
def2tzvp

>  <spin_multiplicity>  (2) 
1.0

>  <optical_isomers>  (2) 
2.0

>  <modes>  (2) 
IdealGasTranslation(mass=(62.019, 'amu')),         NonlinearRotor(             inertia = ([17.3187, 95.472, 104.033

>  <frequency_value>  (2) 
unknown

>  <frequency_units>  (2) 
unknown

>  <frequency_list>  (2) 
unknown

>  <arkane_path>  (2) 
/home/calvin/Dropbox/PersonalFolders/Calvin/ATLAS_Converged/rmg_rxn_3096/output/Species/rmg_rxn_3096_p2_CCS/arkane/output.py

>  <path_exists>  (2) 
True

>  <E0_value>  (2) 
-1254880.5539257105

>  <E0_units>  (2) 
kJ/mol

>  <thermo_class>  (2) 
NASA

>  <Cp0_value>  (2) 
33.257888

>  <Cp0_units>  (2) 
J/(mol*K)

>  <CpInf_value>  (2) 
207.8618

>  <CpInf_units>  (2) 
J/(mol*K)

>  <Tmin_value>  (2) 
10.0

>  <Tmin_units>  (2) 
K

>  <Tmax_value>  (2) 
3000.0

>  <Tmax_units>  (2) 
K

>  <polynomials>  (2) 
[{"name": "polynomial1", "class": "NASAPolynomial", "Tmin_value": 10.0, "Tmin_units": "K", "Tmax_value": 456.94594899547127, "Tmax_units": "K", "coeffs": [3.912577624338537, 0.00615582175220408, 5.7903930492959536e-05, -1.030503984599124e-07, 5.821320863281675e-11, -150927266.2322327, 9.021117452044235]}, {"name": "polynomial2", "class": "NASAPolynomial", "Tmin_value": 456.94594899547127, "Tmin_units": "K", "Tmax_value": 3000.0, "Tmax_units": "K", "coeffs": [1.355858308005039, 0.028536747355681385, -1.556509888997289e-05, 4.138064392594878e-09, -4.3071928406011676e-13, -150927032.57563502, 19.353413792179573]}]

>  <H298_value>  (2) 
-299920.1188186392

>  <H298_units>  (2) 
kcal/mol

>  <S298_value>  (2) 
69.39854649104443

>  <S298_units>  (2) 
cal/(mol*K)

>  <Cp_T_value_list>  (2) 
[17.20889854420324, 20.934361703682253, 24.290211996879982, 27.24951312622027, 32.12490060154891, 35.83897490418279, 41.58221214962001, 44.47758447480336, 45.91133080340105]

>  <Cp_T_units>  (2) 
cal/(mol*K)

>  <T_list>  (2) 
[300.0, 400.0, 500.0, 600.0, 800.0, 1000.0, 1500.0, 2000.0, 2400.0]

>  <T_units>  (2) 
K

>  <yaml_path>  (2) 
/home/calvin/Dropbox/PersonalFolders/Calvin/ATLAS_Converged/rmg_rxn_3096/output/Species/rmg_rxn_3096_p2_CCS/rmg_rxn_3096_p2_CCS.yml

>  <frequencies_cm1>  (2) 
[202.32885546847996, 256.50936964327997, 331.52431727896, 667.1482247939599, 735.969151671, 875.5955641825599, 988.159187548, 1063.6273562148, 1117.6087278153198, 1273.38628979952, 1303.10660226448, 1402.5542836687198, 1466.616389719, 1477.4456255686398, 1483.85938985752, 2700.25656848636, 3013.3430301811195, 3044.51914353392, 3080.6051513905195, 3088.40604671404, 3107.9357529641197]

>  <ZPE_kJmol>  (2) 
195.4728851436989

>  <E_elec_kJmol>  (2) 
-1255076.0268108542

>  <E0_minus_Eelec_plus_ZPE_kJmol>  (2) 
0.0

>  <rxn>  (2) 
rmg_rxn_3096

>  <species_type>  (2) 
p1

>  <species_folder>  (2) 
rmg_rxn_3096_p2_CCS

>  <frequencies_cm1_list>  (2) 
[202.32885546847996, 256.50936964327997, 331.52431727896, 667.1482247939599, 735.969151671, 875.5955641825599, 988.159187548, 1063.6273562148, 1117.6087278153198, 1273.38628979952, 1303.10660226448, 1402.5542836687198, 1466.616389719, 1477.4456255686398, 1483.85938985752, 2700.25656848636, 3013.3430301811195, 3044.51914353392, 3080.6051513905195, 3088.40604671404, 3107.9357529641197]

>  <E0_kJmol>  (2) 
-1.25488e+06

>  <H298_kJmol>  (2) 
-1.25487e+06

$$$$

     RDKit          3D

 17 16  0  0  0  0  0  0  0  0999 V2000
    0.1147   -0.8403    1.9483 C   0  0  0  0  0  3  0  0  0  1  0  0
    1.1748   -1.0967    0.9264 C   0  0  0  0  0  0  0  0  0  2  0  0
    0.7394   -2.3806   -0.2831 S   0  0  0  0  0  0  0  0  0  3  0  0
   -0.3472   -1.7213    2.3877 H   0  0  0  0  0  0  0  0  0  4  0  0
    0.3494   -0.0559    2.6667 H   0  0  0  0  0  0  0  0  0  5  0  0
    2.0914   -1.4590    1.4033 H   0  0  0  0  0  0  0  0  0  6  0  0
    1.4243   -0.1740    0.4004 H   0  0  0  0  0  0  0  0  0  7  0  0
   -0.3910   -1.7970   -0.7044 H   0  0  0  0  0  0  0  0  0  8  0  0
   -1.6396    0.2375    0.5102 O   0  0  0  0  0  0  0  0  0  9  0  0
   -0.8477    1.0094   -0.3072 N   0  0  0  0  0  0  0  0  0 10  0  0
   -1.4797    2.2514   -0.7101 C   0  0  0  0  0  0  0  0  0 11  0  0
   -1.3568    1.1096   -1.6629 C   0  0  0  0  0  0  0  0  0 12  0  0
   -0.8894   -0.2780    1.2555 H   0  0  0  0  0  0  0  0  0 13  0  0
   -0.8231    3.1090   -0.7845 H   0  0  0  0  0  0  0  0  0 14  0  0
   -2.4646    2.4368   -0.3004 H   0  0  0  0  0  0  0  0  0 15  0  0
   -2.2632    0.5548   -1.8719 H   0  0  0  0  0  0  0  0  0 16  0  0
   -0.6082    1.1157   -2.4449 H   0  0  0  0  0  0  0  0  0 17  0  0
  1  5  1  0
  1  4  1  0
  1  2  1  0
  2  7  1  0
  2  3  1  0
  2  6  1  0
  3  8  1  0
  9 13  1  0
  9 10  1  0
 10 11  1  0
 10 12  1  0
 11 14  1  0
 11 15  1  0
 11 12  1  0
 12 17  1  0
 12 16  1  0
M  RAD  1   1   2
M  END
>  <rmg_smiles>  (3) 
ON1CC1.[CH2]CS

>  <rmg_adjacency_list>  (3) 
multiplicity 2
1  S u0 p2 c0 {6,S} {16,S}
2  O u0 p2 c0 {3,S} {17,S}
3  N u0 p1 c0 {2,S} {4,S} {5,S}
4  C u0 p0 c0 {3,S} {5,S} {8,S} {9,S}
5  C u0 p0 c0 {3,S} {4,S} {10,S} {11,S}
6  C u0 p0 c0 {1,S} {7,S} {12,S} {13,S}
7  C u1 p0 c0 {6,S} {14,S} {15,S}
8  H u0 p0 c0 {4,S}
9  H u0 p0 c0 {4,S}
10 H u0 p0 c0 {5,S}
11 H u0 p0 c0 {5,S}
12 H u0 p0 c0 {6,S}
13 H u0 p0 c0 {6,S}
14 H u0 p0 c0 {7,S}
15 H u0 p0 c0 {7,S}
16 H u0 p0 c0 {1,S}
17 H u0 p0 c0 {2,S}


>  <multiplicity>  (3) 
2

>  <reaction>  (3) 
rmg_rxn_3096

>  <type>  (3) 
ts

>  <role_mapnums>  (3) 
{"*2": 13, "*1": 9, "*3": 1, "*0": 10, "*4": 2}

>  <role_mapidx>  (3) 
{"*2": 12, "*1": 8, "*3": 0, "*0": 9, "*4": 1}

>  <ordered_mapped_smiles>  (3) 
[C:1]([C:2]([S:3][H:8])([H:6])[H:7])([H:4])[H:5].[O:9]([N:10]1[C:11]([H:14])([H:15])[C:12]1([H:16])[H:17])[H:13]

>  <mol_properties>  (3) 
{"0": {"label": "*3", "atom_type": "Cs"}, "1": {"label": "*4", "atom_type": "Cs"}, "8": {"label": "*1", "atom_type": "O2s"}, "9": {"label": "*0", "atom_type": "N3s"}, "12": {"label": "*2", "atom_type": "H0"}}

>  <level_of_theory>  (3) 
wb97xd/def2tzvp

>  <lot_method>  (3) 
wb97xd

>  <lot_basis>  (3) 
def2tzvp

>  <spin_multiplicity>  (3) 
2.0

>  <optical_isomers>  (3) 
2.0

>  <modes>  (3) 
IdealGasTranslation(mass=(120.048, 'amu')),         NonlinearRotor(             inertia = ([142.76, 473.17, 548.997

>  <frequency_value>  (3) 
-2021.96

>  <frequency_units>  (3) 
cm^-1

>  <frequency_list>  (3) 
unknown

>  <arkane_path>  (3) 
/home/calvin/Dropbox/PersonalFolders/Calvin/ATLAS_Converged/rmg_rxn_3096/output/rxns/TS0/arkane/output.py

>  <path_exists>  (3) 
True

>  <E0_value>  (3) 
-1801960.0

>  <E0_units>  (3) 
kJ/mol

>  <thermo_class>  (3) 
unknown

>  <Cp0_value>  (3) 
unknown

>  <Cp0_units>  (3) 
unknown

>  <CpInf_value>  (3) 
unknown

>  <CpInf_units>  (3) 
unknown

>  <Tmin_value>  (3) 
unknown

>  <Tmin_units>  (3) 
unknown

>  <Tmax_value>  (3) 
unknown

>  <Tmax_units>  (3) 
unknown

>  <polynomials>  (3) 
unknown

>  <H298_value>  (3) 
unknown

>  <H298_units>  (3) 
unknown

>  <S298_value>  (3) 
unknown

>  <S298_units>  (3) 
unknown

>  <Cp_T_value_list>  (3) 
unknown

>  <Cp_T_units>  (3) 
unknown

>  <T_list>  (3) 
unknown

>  <T_units>  (3) 
unknown

>  <yaml_path>  (3) 
unknown

>  <frequencies_cm1>  (3) 
unknown

>  <ZPE_kJmol>  (3) 
unknown

>  <E_elec_kJmol>  (3) 
unknown

>  <E0_minus_Eelec_plus_ZPE_kJmol>  (3) 
unknown

>  <rxn>  (3) 
unknown

>  <species_type>  (3) 
unknown

>  <species_folder>  (3) 
unknown

>  <frequencies_cm1_list>  (3) 
[]

>  <ts_imag_freq_cm1>  (3) 
-2046.5174

>  <ts_freq_out_path>  (3) 
/home/calvin/Dropbox/PersonalFolders/Calvin/ATLAS_Converged/rmg_rxn_3096/output/rxns/TS0/geometry/freq.out

>  <E0_kJmol>  (3) 
-1.80196e+06

>  <H298_kJmol>  (3) 
unknown

$$$$

     RDKit          3D

  8  8  0  0  0  0  0  0  0  0999 V2000
    0.0257    1.9818    0.0485 O   0  0  0  0  0  1  0  0  0  1  0  0
    0.0179    0.8208   -0.4484 N   0  0  0  0  0  0  0  0  0  2  0  0
    0.7557   -0.3258    0.0134 C   0  0  0  0  0  0  0  0  0  3  0  0
   -0.7642   -0.3055   -0.0101 C   0  0  0  0  0  0  0  0  0  4  0  0
    1.2844   -0.9009   -0.7365 H   0  0  0  0  0  0  0  0  0  5  0  0
    1.2442   -0.2188    0.9742 H   0  0  0  0  0  0  0  0  0  6  0  0
   -1.2791   -0.1851    0.9352 H   0  0  0  0  0  0  0  0  0  7  0  0
   -1.2846   -0.8666   -0.7762 H   0  0  0  0  0  0  0  0  0  8  0  0
  1  2  1  0
  2  3  1  0
  2  4  1  0
  3  4  1  0
  3  6  1  0
  3  5  1  0
  4  8  1  0
  4  7  1  0
M  RAD  1   1   2
M  END
>  <rmg_smiles>  (4) 
[O]N1CC1

>  <rmg_adjacency_list>  (4) 
multiplicity 2
1 O u1 p2 c0 {2,S}
2 N u0 p1 c0 {1,S} {3,S} {4,S}
3 C u0 p0 c0 {2,S} {4,S} {5,S} {6,S}
4 C u0 p0 c0 {2,S} {3,S} {7,S} {8,S}
5 H u0 p0 c0 {3,S}
6 H u0 p0 c0 {3,S}
7 H u0 p0 c0 {4,S}
8 H u0 p0 c0 {4,S}


>  <multiplicity>  (4) 
2

>  <reaction>  (4) 
rmg_rxn_3096

>  <type>  (4) 
r1

>  <role_mapnums>  (4) 
{}

>  <role_mapidx>  (4) 
{}

>  <ordered_mapped_smiles>  (4) 
[O:1][N:2]1[C:3]([H:5])([H:6])[C:4]1([H:7])[H:8]

>  <level_of_theory>  (4) 
wb97xd/def2tzvp

>  <lot_method>  (4) 
wb97xd

>  <lot_basis>  (4) 
def2tzvp

>  <spin_multiplicity>  (4) 
2.0

>  <optical_isomers>  (4) 
1.0

>  <modes>  (4) 
IdealGasTranslation(mass=(58.0293, 'amu')),         NonlinearRotor(             inertia = ([25.8055, 62.4608, 77.4626

>  <frequency_value>  (4) 
unknown

>  <frequency_units>  (4) 
unknown

>  <frequency_list>  (4) 
unknown

>  <arkane_path>  (4) 
/home/calvin/Dropbox/PersonalFolders/Calvin/ATLAS_Converged/rmg_rxn_3096/output/Species/rmg_rxn_3096_p1_sbr-O-sbrN1CC1/arkane/output.py

>  <path_exists>  (4) 
True

>  <E0_value>  (4) 
-547181.0539800306

>  <E0_units>  (4) 
kJ/mol

>  <thermo_class>  (4) 
NASA

>  <Cp0_value>  (4) 
33.257888

>  <Cp0_units>  (4) 
J/(mol*K)

>  <CpInf_value>  (4) 
182.918384

>  <CpInf_units>  (4) 
J/(mol*K)

>  <Tmin_value>  (4) 
10.0

>  <Tmin_units>  (4) 
K

>  <Tmax_value>  (4) 
3000.0

>  <Tmax_units>  (4) 
K

>  <polynomials>  (4) 
[{"name": "polynomial1", "class": "NASAPolynomial", "Tmin_value": 10.0, "Tmin_units": "K", "Tmax_value": 624.7357386490204, "Tmax_units": "K", "coeffs": [4.1105451907420125, -0.009033090615102013, 0.00011173695653622377, -1.734104128021453e-07, 8.700249676344132e-11, -65810679.90864667, 8.7112352700631]}, {"name": "polynomial2", "class": "NASAPolynomial", "Tmin_value": 624.7357386490204, "Tmin_units": "K", "Tmax_value": 3000.0, "Tmax_units": "K", "coeffs": [0.5509038236468667, 0.029424195237818408, -1.8213741851288973e-05, 5.401052377808208e-09, -6.146368474763313e-13, -65810540.85840035, 21.763128585627033]}]

>  <H298_value>  (4) 
-130776.41321357674

>  <H298_units>  (4) 
kcal/mol

>  <S298_value>  (4) 
65.65873371157244

>  <S298_units>  (4) 
cal/(mol*K)

>  <Cp_T_value_list>  (4) 
[14.863476305027024, 18.886846753670252, 22.43475352619028, 25.306815638075097, 29.702872533122694, 32.883841566280715, 37.40564552125166, 39.58228468223397, 40.796935988510995]

>  <Cp_T_units>  (4) 
cal/(mol*K)

>  <T_list>  (4) 
[300.0, 400.0, 500.0, 600.0, 800.0, 1000.0, 1500.0, 2000.0, 2400.0]

>  <T_units>  (4) 
K

>  <yaml_path>  (4) 
/home/calvin/Dropbox/PersonalFolders/Calvin/ATLAS_Converged/rmg_rxn_3096/output/Species/rmg_rxn_3096_p1_sbr-O-sbrN1CC1/rmg_rxn_3096_p1_sbr-O-sbrN1CC1.yml

>  <frequencies_cm1>  (4) 
[350.08577859892, 463.25369667251994, 761.6104748558798, 793.3977499021601, 893.5939327062799, 1016.15588669764, 1066.6762976968798, 1105.1726174008, 1123.1366509979198, 1153.9625480994, 1164.4896365949598, 1431.4917598071997, 1454.9768496016, 1497.97791167544, 3102.6413072824, 3105.09282104164, 3197.1310252856, 3209.5328007735197]

>  <ZPE_kJmol>  (4) 
160.84023508429246

>  <E_elec_kJmol>  (4) 
-547341.8942151149

>  <E0_minus_Eelec_plus_ZPE_kJmol>  (4) 
0.0

>  <rxn>  (4) 
rmg_rxn_3096

>  <species_type>  (4) 
p0

>  <species_folder>  (4) 
rmg_rxn_3096_p1_sbr-O-sbrN1CC1

>  <frequencies_cm1_list>  (4) 
[350.08577859892, 463.25369667251994, 761.6104748558798, 793.3977499021601, 893.5939327062799, 1016.15588669764, 1066.6762976968798, 1105.1726174008, 1123.1366509979198, 1153.9625480994, 1164.4896365949598, 1431.4917598071997, 1454.9768496016, 1497.97791167544, 3102.6413072824, 3105.09282104164, 3197.1310252856, 3209.5328007735197]

>  <E0_kJmol>  (4) 
-547181

>  <H298_kJmol>  (4) 
-547169

$$$$

     RDKit          3D

  8  7  0  0  0  0  0  0  0  0999 V2000
   -0.9782    0.4241    0.0826 C   0  0  0  0  0  3  0  0  0  1  0  0
    0.0504   -0.5484   -0.3049 C   0  0  0  0  0  0  0  0  0  2  0  0
    1.5829   -0.3827    0.7251 S   0  0  0  0  0  0  0  0  0  3  0  0
   -1.0358    1.3853   -0.4103 H   0  0  0  0  0  0  0  0  0  4  0  0
   -1.5488    0.2794    0.9896 H   0  0  0  0  0  0  0  0  0  5  0  0
    0.3373   -0.4650   -1.3511 H   0  0  0  0  0  0  0  0  0  6  0  0
   -0.2617   -1.5762   -0.1147 H   0  0  0  0  0  0  0  0  0  7  0  0
    1.8538    0.8835    0.3837 H   0  0  0  0  0  0  0  0  0  8  0  0
  1  5  1  0
  1  4  1  0
  1  2  1  0
  2  7  1  0
  2  3  1  0
  2  6  1  0
  3  8  1  0
M  RAD  1   1   2
M  END
>  <rmg_smiles>  (5) 
[CH2]CS

>  <rmg_adjacency_list>  (5) 
multiplicity 2
1 S u0 p2 c0 {2,S} {8,S}
2 C u0 p0 c0 {1,S} {3,S} {4,S} {5,S}
3 C u1 p0 c0 {2,S} {6,S} {7,S}
4 H u0 p0 c0 {2,S}
5 H u0 p0 c0 {2,S}
6 H u0 p0 c0 {3,S}
7 H u0 p0 c0 {3,S}
8 H u0 p0 c0 {1,S}


>  <multiplicity>  (5) 
2

>  <reaction>  (5) 
rmg_rxn_3096

>  <type>  (5) 
r2

>  <role_mapnums>  (5) 
{}

>  <role_mapidx>  (5) 
{}

>  <ordered_mapped_smiles>  (5) 
[C:1]([C:2]([S:3][H:8])([H:6])[H:7])([H:4])[H:5]

>  <level_of_theory>  (5) 
wb97xd/def2tzvp

>  <lot_method>  (5) 
wb97xd

>  <lot_basis>  (5) 
def2tzvp

>  <spin_multiplicity>  (5) 
2.0

>  <optical_isomers>  (5) 
2.0

>  <modes>  (5) 
IdealGasTranslation(mass=(61.0112, 'amu')),         NonlinearRotor(             inertia = ([16.9685, 89.332, 97.2762

>  <frequency_value>  (5) 
unknown

>  <frequency_units>  (5) 
unknown

>  <frequency_list>  (5) 
unknown

>  <arkane_path>  (5) 
/home/calvin/Dropbox/PersonalFolders/Calvin/ATLAS_Converged/rmg_rxn_3096/output/Species/rmg_rxn_3096_r1_sbr-CH2-sbrCS/arkane/output.py

>  <path_exists>  (5) 
True

>  <E0_value>  (5) 
-1253152.4478006398

>  <E0_units>  (5) 
kJ/mol

>  <thermo_class>  (5) 
NASA

>  <Cp0_value>  (5) 
33.257888

>  <Cp0_units>  (5) 
J/(mol*K)

>  <CpInf_value>  (5) 
182.918384

>  <CpInf_units>  (5) 
J/(mol*K)

>  <Tmin_value>  (5) 
10.0

>  <Tmin_units>  (5) 
K

>  <Tmax_value>  (5) 
3000.0

>  <Tmax_units>  (5) 
K

>  <polynomials>  (5) 
[{"name": "polynomial1", "class": "NASAPolynomial", "Tmin_value": 10.0, "Tmin_units": "K", "Tmax_value": 403.63588404169064, "Tmax_units": "K", "coeffs": [3.9337456466744443, 0.004790104015576664, 9.844589558368433e-05, -2.5137153436724285e-07, 2.010344181753802e-10, -150719426.2861846, 9.5669989817744]}, {"name": "polynomial2", "class": "NASAPolynomial", "Tmin_value": 403.63588404169064, "Tmin_units": "K", "Tmax_value": 3000.0, "Tmax_units": "K", "coeffs": [3.1834101898942317, 0.023617473683499094, -1.3854478032585008e-05, 4.030415334204349e-09, -4.606633538203478e-13, -150719458.5108257, 11.356682878907085]}]

>  <H298_value>  (5) 
-299506.9429176362

>  <H298_units>  (5) 
kcal/mol

>  <S298_value>  (5) 
71.45102389652727

>  <S298_units>  (5) 
cal/(mol*K)

>  <Cp_T_value_list>  (5) 
[18.02844374308893, 21.18329033508344, 23.853508709638692, 26.185718243027807, 29.977821119872214, 32.82101619308904, 37.17584181438731, 39.49206169580628, 40.73040177909778]

>  <Cp_T_units>  (5) 
cal/(mol*K)

>  <T_list>  (5) 
[300.0, 400.0, 500.0, 600.0, 800.0, 1000.0, 1500.0, 2000.0, 2400.0]

>  <T_units>  (5) 
K

>  <yaml_path>  (5) 
/home/calvin/Dropbox/PersonalFolders/Calvin/ATLAS_Converged/rmg_rxn_3096/output/Species/rmg_rxn_3096_r1_sbr-CH2-sbrCS/rmg_rxn_3096_r1_sbr-CH2-sbrCS.yml

>  <frequencies_cm1>  (5) 
[191.22494020604, 237.47408633623996, 297.46407009176, 565.6816497056399, 633.94635077176, 732.7279345999599, 867.8496047415998, 1072.9321213234, 1084.38625283716, 1231.4564774356, 1255.98534899864, 1445.6377495663999, 1473.6138477600798, 2705.420541447, 3048.6324677406, 3108.1280285530793, 3129.0723337790796, 3235.8333545491196]

>  <ZPE_kJmol>  (5) 
157.4134558507735

>  <E_elec_kJmol>  (5) 
-1253309.8612564905

>  <E0_minus_Eelec_plus_ZPE_kJmol>  (5) 
0.0

>  <rxn>  (5) 
rmg_rxn_3096

>  <species_type>  (5) 
r0

>  <species_folder>  (5) 
rmg_rxn_3096_r1_sbr-CH2-sbrCS

>  <frequencies_cm1_list>  (5) 
[191.22494020604, 237.47408633623996, 297.46407009176, 565.6816497056399, 633.94635077176, 732.7279345999599, 867.8496047415998, 1072.9321213234, 1084.38625283716, 1231.4564774356, 1255.98534899864, 1445.6377495663999, 1473.6138477600798, 2705.420541447, 3048.6324677406, 3108.1280285530793, 3129.0723337790796, 3235.8333545491196]

>  <E0_kJmol>  (5) 
-1.25315e+06

>  <H298_kJmol>  (5) 
-1.25314e+06

$$$$
