
     RDKit          3D

  9  9  0  0  0  0  0  0  0  0999 V2000
    0.0970   -0.5005   -0.9134 C   0  0  0  0  0  0  0  0  0  1  0  0
    0.2500   -0.8939    0.5467 C   0  0  0  0  0  0  0  0  0  2  0  0
   -0.0307    0.5234    0.8800 N   0  0  0  0  0  0  0  0  0  3  0  0
   -0.3665    0.7906   -0.4859 O   0  0  0  0  0  0  0  0  0  4  0  0
   -0.6504   -1.0275   -1.5083 H   0  0  0  0  0  0  0  0  0  5  0  0
    1.0399   -0.4198   -1.4616 H   0  0  0  0  0  0  0  0  0  6  0  0
    1.2268   -1.2530    0.8714 H   0  0  0  0  0  0  0  0  0  7  0  0
   -0.5322   -1.5483    0.9335 H   0  0  0  0  0  0  0  0  0  8  0  0
    0.9006    0.9708    0.9987 H   0  0  0  0  0  0  0  0  0  9  0  0
  1  5  1  0
  1  4  1  0
  1  6  1  0
  1  2  1  0
  2  3  1  0
  2  7  1  0
  2  8  1  0
  3  9  1  0
  3  4  1  0
M  END
>  <rmg_smiles>  (1) 
C1CNO1

>  <rmg_adjacency_list>  (1) 
1 O u0 p2 c0 {2,S} {4,S}
2 N u0 p1 c0 {1,S} {3,S} {9,S}
3 C u0 p0 c0 {2,S} {4,S} {5,S} {6,S}
4 C u0 p0 c0 {1,S} {3,S} {7,S} {8,S}
5 H u0 p0 c0 {3,S}
6 H u0 p0 c0 {3,S}
7 H u0 p0 c0 {4,S}
8 H u0 p0 c0 {4,S}
9 H u0 p0 c0 {2,S}


>  <multiplicity>  (1) 
1

>  <reaction>  (1) 
rmg_rxn_15708

>  <type>  (1) 
r1h

>  <role_mapnums>  (1) 
{"r1h_a": 3, "r1h_h": 9}

>  <role_mapidx>  (1) 
{"r1h_a": 2, "r1h_h": 8}

>  <ordered_mapped_smiles>  (1) 
[C:1]1([H:5])([H:6])[C:2]([H:7])([H:8])[N:3]([H:9])[O:4]1

>  <mol_properties>  (1) 
{"2": {"label": "donator", "atom_type": "N3s"}, "8": {"label": "d_hydrogen", "atom_type": "H0"}}

>  <level_of_theory>  (1) 
wb97xd/def2tzvp

>  <lot_method>  (1) 
wb97xd

>  <lot_basis>  (1) 
def2tzvp

>  <spin_multiplicity>  (1) 
1.0

>  <optical_isomers>  (1) 
2.0

>  <modes>  (1) 
IdealGasTranslation(mass=(59.0371, 'amu')),         NonlinearRotor(             inertia = ([39.1516, 41.075, 71.4672

>  <frequency_value>  (1) 
unknown

>  <frequency_units>  (1) 
unknown

>  <frequency_list>  (1) 
unknown

>  <arkane_path>  (1) 
/home/calvin/Dropbox/PersonalFolders/Calvin/ZEUS_Converged/rmg_rxn_15708/output/Species/rmg_rxn_15708_r2_C1CNO1/arkane/output.py

>  <path_exists>  (1) 
True

>  <E0_value>  (1) 
-548813.9925652791

>  <E0_units>  (1) 
kJ/mol

>  <thermo_class>  (1) 
NASA

>  <Cp0_value>  (1) 
33.257888

>  <Cp0_units>  (1) 
J/(mol*K)

>  <CpInf_value>  (1) 
207.8618

>  <CpInf_units>  (1) 
J/(mol*K)

>  <Tmin_value>  (1) 
10.0

>  <Tmin_units>  (1) 
K

>  <Tmax_value>  (1) 
3000.0

>  <Tmax_units>  (1) 
K

>  <polynomials>  (1) 
[{"name": "polynomial1", "class": "NASAPolynomial", "Tmin_value": 10.0, "Tmin_units": "K", "Tmax_value": 733.6104995939062, "Tmax_units": "K", "coeffs": [4.077827212604522, -0.005386596362494975, 8.406479709387594e-05, -1.0955987033055228e-07, 4.5560761872445825e-11, -66007078.65566898, 9.13400291644228]}, {"name": "polynomial2", "class": "NASAPolynomial", "Tmin_value": 733.6104995939062, "Tmin_units": "K", "Tmax_value": 3000.0, "Tmax_units": "K", "coeffs": [-1.381871719366429, 0.035186850356113145, -2.098679790853313e-05, 5.981373096893418e-09, -6.548792766584922e-13, -66006568.338417664, 31.801027157418137]}]

>  <H298_value>  (1) 
-131166.66933424954

>  <H298_units>  (1) 
kcal/mol

>  <S298_value>  (1) 
66.80308769165718

>  <S298_units>  (1) 
cal/(mol*K)

>  <Cp_T_value_list>  (1) 
[14.782045633995951, 18.9342625283718, 22.958777229242912, 26.527098552780135, 32.054202003724576, 36.057215220408175, 41.83053068392948, 44.54830846275449, 45.987519872501906]

>  <Cp_T_units>  (1) 
cal/(mol*K)

>  <T_list>  (1) 
[300.0, 400.0, 500.0, 600.0, 800.0, 1000.0, 1500.0, 2000.0, 2400.0]

>  <T_units>  (1) 
K

>  <yaml_path>  (1) 
/home/calvin/Dropbox/PersonalFolders/Calvin/ZEUS_Converged/rmg_rxn_15708/output/Species/rmg_rxn_15708_r2_C1CNO1/rmg_rxn_15708_r2_C1CNO1.yml

>  <frequencies_cm1>  (1) 
[126.69587915399998, 749.09882760284, 874.66852116436, 913.45325425172, 960.7324481799199, 981.1136606096799, 1029.57397601292, 1083.25320025936, 1154.1548236883598, 1199.9164138608398, 1247.03080014136, 1307.63194559036, 1350.2553234716, 1386.89755713912, 1499.0972302826, 1522.45871434124, 2991.80129723228, 3049.64191458264, 3068.4093854622, 3104.5503292013595, 3404.23243555148]

>  <ZPE_kJmol>  (1) 
197.41181047628305

>  <E_elec_kJmol>  (1) 
-549011.4043757555

>  <E0_minus_Eelec_plus_ZPE_kJmol>  (1) 
0.0

>  <rxn>  (1) 
rmg_rxn_15708

>  <species_type>  (1) 
r1

>  <species_folder>  (1) 
rmg_rxn_15708_r2_C1CNO1

>  <frequencies_cm1_list>  (1) 
[126.69587915399998, 749.09882760284, 874.66852116436, 913.45325425172, 960.7324481799199, 981.1136606096799, 1029.57397601292, 1083.25320025936, 1154.1548236883598, 1199.9164138608398, 1247.03080014136, 1307.63194559036, 1350.2553234716, 1386.89755713912, 1499.0972302826, 1522.45871434124, 2991.80129723228, 3049.64191458264, 3068.4093854622, 3104.5503292013595, 3404.23243555148]

>  <E0_kJmol>  (1) 
-548814

>  <H298_kJmol>  (1) 
-548801

$$$$

     RDKit          3D

  9  8  0  0  0  0  0  0  0  0999 V2000
   -0.9777    1.2233    0.6122 C   0  0  0  0  0  0  0  0  0  1  0  0
   -0.0350    0.2110    0.6013 O   0  0  0  0  0  0  0  0  0  2  0  0
    0.1367   -0.3046   -0.6655 N   0  0  0  0  0  0  0  0  0  3  0  0
    0.9921   -1.2352   -0.6773 C   0  0  0  0  0  0  0  0  0  4  0  0
   -0.8899    1.7714    1.5456 H   0  0  0  0  0  0  0  0  0  5  0  0
   -0.9911    1.8198   -0.2979 H   0  0  0  0  0  0  0  0  0  6  0  0
    1.1924   -1.6937   -1.6364 H   0  0  0  0  0  0  0  0  0  7  0  0
    1.5123   -1.5661    0.2186 H   0  0  0  0  0  0  0  0  0  8  0  0
   -1.9907    0.8298    0.6395 H   0  0  0  0  0  0  0  0  0  9  0  0
  1  6  1  0
  1  5  1  0
  1  9  1  0
  1  2  1  0
  2  3  1  0
  3  4  1  0
  4  8  1  0
  4  7  1  0
M  END
>  <rmg_smiles>  (2) 
CO[N][CH2]

>  <rmg_adjacency_list>  (2) 
1 O u0 p2 c0 {2,S} {3,S}
2 N u0 p1 c0 {1,S} {4,S}
3 C u0 p0 c0 {1,S} {5,S} {6,S} {7,S}
4 C u0 p0 c0 {2,S} {8,S} {9,S}
5 H u0 p0 c0 {3,S}
6 H u0 p0 c0 {3,S}
7 H u0 p0 c0 {3,S}
8 H u0 p0 c0 {4,S}
9 H u0 p0 c0 {4,S}


>  <multiplicity>  (2) 
1

>  <reaction>  (2) 
rmg_rxn_15708

>  <type>  (2) 
r2h

>  <role_mapnums>  (2) 
{"r2h_a": 1, "r2h_h": 9}

>  <role_mapidx>  (2) 
{"r2h_a": 0, "r2h_h": 8}

>  <ordered_mapped_smiles>  (2) 
[C:1]([O:2][NH:3][CH:4]([H:7])[H:8])([H:5])([H:6])[H:9]

>  <mol_properties>  (2) 
{"0": {"label": "acceptor", "atom_type": "Cs"}, "8": {"label": "a_hydrogen", "atom_type": "H0"}}

>  <level_of_theory>  (2) 
wb97xd/def2tzvp

>  <lot_method>  (2) 
wb97xd

>  <lot_basis>  (2) 
def2tzvp

>  <spin_multiplicity>  (2) 
1.0

>  <optical_isomers>  (2) 
1.0

>  <modes>  (2) 
IdealGasTranslation(mass=(59.0371, 'amu')),         NonlinearRotor(             inertia = ([11.9742, 101.538, 110.304

>  <frequency_value>  (2) 
unknown

>  <frequency_units>  (2) 
unknown

>  <frequency_list>  (2) 
unknown

>  <arkane_path>  (2) 
/home/calvin/Dropbox/PersonalFolders/Calvin/ZEUS_Converged/rmg_rxn_15708/output/Species/rmg_rxn_15708_p2_CON=C/arkane/output.py

>  <path_exists>  (2) 
True

>  <E0_value>  (2) 
-548882.9200394232

>  <E0_units>  (2) 
kJ/mol

>  <thermo_class>  (2) 
NASA

>  <Cp0_value>  (2) 
33.257888

>  <Cp0_units>  (2) 
J/(mol*K)

>  <CpInf_value>  (2) 
207.8618

>  <CpInf_units>  (2) 
J/(mol*K)

>  <Tmin_value>  (2) 
10.0

>  <Tmin_units>  (2) 
K

>  <Tmax_value>  (2) 
3000.0

>  <Tmax_units>  (2) 
K

>  <polynomials>  (2) 
[{"name": "polynomial1", "class": "NASAPolynomial", "Tmin_value": 10.0, "Tmin_units": "K", "Tmax_value": 1066.0445442103917, "Tmax_units": "K", "coeffs": [3.9488472240731216, 0.012909444164008412, 1.8432835387873368e-05, -2.5565901414715004e-08, 8.632634293818456e-12, -66015370.98001154, 7.906058800048573]}, {"name": "polynomial2", "class": "NASAPolynomial", "Tmin_value": 1066.0445442103917, "Tmin_units": "K", "Tmax_value": 3000.0, "Tmax_units": "K", "coeffs": [4.051174026649639, 0.02340322367340144, -1.163838712217072e-05, 2.8112466199843713e-09, -2.6680947262736413e-13, -66016010.897278614, 4.506810904924114]}]

>  <H298_value>  (2) 
-131182.46582067996

>  <H298_units>  (2) 
kcal/mol

>  <S298_value>  (2) 
69.27397375028742

>  <S298_units>  (2) 
cal/(mol*K)

>  <Cp_T_value_list>  (2) 
[17.607207323409234, 21.157104611048137, 24.5530891366924, 27.67560467885903, 32.827861850696166, 36.480858050170255, 41.94371504002133, 44.76201379304356, 46.08804102499818]

>  <Cp_T_units>  (2) 
cal/(mol*K)

>  <T_list>  (2) 
[300.0, 400.0, 500.0, 600.0, 800.0, 1000.0, 1500.0, 2000.0, 2400.0]

>  <T_units>  (2) 
K

>  <yaml_path>  (2) 
/home/calvin/Dropbox/PersonalFolders/Calvin/ZEUS_Converged/rmg_rxn_15708/output/Species/rmg_rxn_15708_p2_CON=C/rmg_rxn_15708_p2_CON=C.yml

>  <frequencies_cm1>  (2) 
[119.61601728907998, 180.59484693068, 346.29520270228, 574.9726808436, 796.6046320465999, 891.08061607916, 982.9746136314, 1126.32979917172, 1169.7222794088, 1171.7686410341598, 1237.71230106212, 1418.12173938916, 1456.2266409298397, 1467.4060930307999, 1493.1160860688801, 1708.0183916582798, 3005.45973103376, 3077.28153049564, 3083.54422110748, 3121.53925088304, 3213.405780494]

>  <ZPE_kJmol>  (2) 
189.2599943319938

>  <E_elec_kJmol>  (2) 
-549072.1800337551

>  <E0_minus_Eelec_plus_ZPE_kJmol>  (2) 
0.0

>  <rxn>  (2) 
rmg_rxn_15708

>  <species_type>  (2) 
p1

>  <species_folder>  (2) 
rmg_rxn_15708_p2_CON=C

>  <frequencies_cm1_list>  (2) 
[119.61601728907998, 180.59484693068, 346.29520270228, 574.9726808436, 796.6046320465999, 891.08061607916, 982.9746136314, 1126.32979917172, 1169.7222794088, 1171.7686410341598, 1237.71230106212, 1418.12173938916, 1456.2266409298397, 1467.4060930307999, 1493.1160860688801, 1708.0183916582798, 3005.45973103376, 3077.28153049564, 3083.54422110748, 3121.53925088304, 3213.405780494]

>  <E0_kJmol>  (2) 
-548883

>  <H298_kJmol>  (2) 
-548867

$$$$

     RDKit          3D

 17 16  0  0  0  0  0  0  0  0999 V2000
    0.6396    1.3904    0.8713 C   0  0  0  0  0  3  0  0  0  1  0  0
    1.5823    0.3781    0.8604 O   0  0  0  0  0  0  0  0  0  2  0  0
    1.7540   -0.1375   -0.4064 N   0  0  0  0  0  0  0  0  0  3  0  0
    2.6094   -1.0681   -0.4181 C   0  0  0  0  0  0  0  0  0  4  0  0
    0.7274    1.9386    1.8047 H   0  0  0  0  0  0  0  0  0  5  0  0
    0.6262    1.9869   -0.0387 H   0  0  0  0  0  0  0  0  0  6  0  0
    2.8097   -1.5265   -1.3773 H   0  0  0  0  0  0  0  0  0  7  0  0
    3.1296   -1.3989    0.4777 H   0  0  0  0  0  0  0  0  0  8  0  0
   -1.6511   -0.6703   -1.0203 C   0  0  0  0  0  0  0  0  0  9  0  0
   -1.4981   -1.0637    0.4397 C   0  0  0  0  0  0  0  0  0 10  0  0
   -1.7788    0.3536    0.7731 N   0  0  0  0  0  0  0  0  0 11  0  0
   -2.1146    0.6209   -0.5928 O   0  0  0  0  0  0  0  0  0 12  0  0
   -2.3985   -1.1973   -1.6152 H   0  0  0  0  0  0  0  0  0 13  0  0
   -0.7082   -0.5895   -1.5686 H   0  0  0  0  0  0  0  0  0 14  0  0
   -0.5213   -1.4227    0.7645 H   0  0  0  0  0  0  0  0  0 15  0  0
   -2.2803   -1.7180    0.8266 H   0  0  0  0  0  0  0  0  0 16  0  0
   -0.7206    0.8620    0.9080 H   0  0  0  0  0  0  0  0  0 17  0  0
  1  6  1  0
  1  5  1  0
  1  2  1  0
  2  3  1  0
  3  4  1  0
  4  8  1  0
  4  7  1  0
  9 12  1  0
  9 10  1  0
  9 14  1  0
  9 13  1  0
 10 11  1  0
 10 16  1  0
 10 15  1  0
 11 17  1  0
 11 12  1  0
M  RAD  1   1   2
M  END
>  <rmg_smiles>  (3) 
C1CNO1.[CH2]O[N][CH2]

>  <rmg_adjacency_list>  (3) 
multiplicity 2
1  O u0 p2 c0 {3,S} {6,S}
2  O u0 p2 c0 {4,S} {7,S}
3  N u0 p1 c0 {1,S} {5,S} {13,S}
4  N u0 p1 c0 {2,S} {8,S}
5  C u0 p0 c0 {3,S} {6,S} {9,S} {10,S}
6  C u0 p0 c0 {1,S} {5,S} {11,S} {12,S}
7  C u1 p0 c0 {2,S} {14,S} {15,S}
8  C u0 p0 c0 {4,S} {16,S} {17,S}
9  H u0 p0 c0 {5,S}
10 H u0 p0 c0 {5,S}
11 H u0 p0 c0 {6,S}
12 H u0 p0 c0 {6,S}
13 H u0 p0 c0 {3,S}
14 H u0 p0 c0 {7,S}
15 H u0 p0 c0 {7,S}
16 H u0 p0 c0 {8,S}
17 H u0 p0 c0 {8,S}


>  <multiplicity>  (3) 
2

>  <reaction>  (3) 
rmg_rxn_15708

>  <type>  (3) 
ts

>  <role_mapnums>  (3) 
{"*2": 17, "*1": 11, "*3": 1, "*0": 12, "*4": 2}

>  <role_mapidx>  (3) 
{"*2": 16, "*1": 10, "*3": 0, "*0": 11, "*4": 1}

>  <ordered_mapped_smiles>  (3) 
[C:1]([O:2][NH:3][CH:4]([H:7])[H:8])([H:5])[H:6].[C:9]1([H:13])([H:14])[C:10]([H:15])([H:16])[N:11]([H:17])[O:12]1

>  <mol_properties>  (3) 
{"0": {"label": "*3", "atom_type": "Cs"}, "1": {"label": "*4", "atom_type": "O2s"}, "10": {"label": "*1", "atom_type": "N3s"}, "11": {"label": "*0", "atom_type": "O2s"}, "16": {"label": "*2", "atom_type": "H0"}}

>  <level_of_theory>  (3) 
wb97xd/def2tzvp

>  <lot_method>  (3) 
wb97xd

>  <lot_basis>  (3) 
def2tzvp

>  <spin_multiplicity>  (3) 
2.0

>  <optical_isomers>  (3) 
2.0

>  <modes>  (3) 
IdealGasTranslation(mass=(117.066, 'amu')),         NonlinearRotor(             inertia = ([150.548, 418.024, 487.648

>  <frequency_value>  (3) 
-1795.66

>  <frequency_units>  (3) 
cm^-1

>  <frequency_list>  (3) 
unknown

>  <arkane_path>  (3) 
/home/calvin/Dropbox/PersonalFolders/Calvin/ZEUS_Converged/rmg_rxn_15708/output/rxns/TS0/arkane/output.py

>  <path_exists>  (3) 
True

>  <E0_value>  (3) 
-1095970.0

>  <E0_units>  (3) 
kJ/mol

>  <thermo_class>  (3) 
unknown

>  <Cp0_value>  (3) 
unknown

>  <Cp0_units>  (3) 
unknown

>  <CpInf_value>  (3) 
unknown

>  <CpInf_units>  (3) 
unknown

>  <Tmin_value>  (3) 
unknown

>  <Tmin_units>  (3) 
unknown

>  <Tmax_value>  (3) 
unknown

>  <Tmax_units>  (3) 
unknown

>  <polynomials>  (3) 
unknown

>  <H298_value>  (3) 
unknown

>  <H298_units>  (3) 
unknown

>  <S298_value>  (3) 
unknown

>  <S298_units>  (3) 
unknown

>  <Cp_T_value_list>  (3) 
unknown

>  <Cp_T_units>  (3) 
unknown

>  <T_list>  (3) 
unknown

>  <T_units>  (3) 
unknown

>  <yaml_path>  (3) 
unknown

>  <frequencies_cm1>  (3) 
unknown

>  <ZPE_kJmol>  (3) 
unknown

>  <E_elec_kJmol>  (3) 
unknown

>  <E0_minus_Eelec_plus_ZPE_kJmol>  (3) 
unknown

>  <rxn>  (3) 
unknown

>  <species_type>  (3) 
unknown

>  <species_folder>  (3) 
unknown

>  <frequencies_cm1_list>  (3) 
[]

>  <ts_imag_freq_cm1>  (3) 
-1817.4736

>  <ts_freq_out_path>  (3) 
/home/calvin/Dropbox/PersonalFolders/Calvin/ZEUS_Converged/rmg_rxn_15708/output/rxns/TS0/geometry/freq.out

>  <E0_kJmol>  (3) 
-1.09597e+06

>  <H298_kJmol>  (3) 
unknown

$$$$

     RDKit          3D

  8  8  0  0  0  0  0  0  0  0999 V2000
    0.7709   -0.0208    0.0860 C   0  0  0  0  0  0  0  0  0  1  0  0
   -0.7145   -0.3116   -0.0627 C   0  0  0  0  0  0  0  0  0  2  0  0
   -0.9103    1.1413   -0.1588 N   0  0  0  0  0  2  0  0  0  3  0  0
    0.4415    1.3771   -0.0220 O   0  0  0  0  0  0  0  0  0  4  0  0
    1.4230   -0.3408   -0.7273 H   0  0  0  0  0  0  0  0  0  5  0  0
    1.2274   -0.2496    1.0495 H   0  0  0  0  0  0  0  0  0  6  0  0
   -1.2163   -0.7525    0.8013 H   0  0  0  0  0  0  0  0  0  7  0  0
   -1.0217   -0.8432   -0.9658 H   0  0  0  0  0  0  0  0  0  8  0  0
  1  5  1  0
  1  4  1  0
  1  6  1  0
  1  2  1  0
  2  3  1  0
  2  8  1  0
  2  7  1  0
  3  4  1  0
M  RAD  1   3   2
M  END
>  <rmg_smiles>  (4) 
C1C[N]O1

>  <rmg_adjacency_list>  (4) 
multiplicity 2
1 O u0 p2 c0 {2,S} {3,S}
2 N u1 p1 c0 {1,S} {4,S}
3 C u0 p0 c0 {1,S} {4,S} {5,S} {6,S}
4 C u0 p0 c0 {2,S} {3,S} {7,S} {8,S}
5 H u0 p0 c0 {3,S}
6 H u0 p0 c0 {3,S}
7 H u0 p0 c0 {4,S}
8 H u0 p0 c0 {4,S}


>  <multiplicity>  (4) 
2

>  <reaction>  (4) 
rmg_rxn_15708

>  <type>  (4) 
r1

>  <role_mapnums>  (4) 
{}

>  <role_mapidx>  (4) 
{}

>  <ordered_mapped_smiles>  (4) 
[C:1]1([H:5])([H:6])[C:2]([H:7])([H:8])[N:3][O:4]1

>  <level_of_theory>  (4) 
wb97xd/def2tzvp

>  <lot_method>  (4) 
wb97xd

>  <lot_basis>  (4) 
def2tzvp

>  <spin_multiplicity>  (4) 
2.0

>  <optical_isomers>  (4) 
1.0

>  <modes>  (4) 
IdealGasTranslation(mass=(58.0293, 'amu')),         NonlinearRotor(             inertia = ([36.1616, 38.1823, 67.9218

>  <frequency_value>  (4) 
unknown

>  <frequency_units>  (4) 
unknown

>  <frequency_list>  (4) 
unknown

>  <arkane_path>  (4) 
/home/calvin/Dropbox/PersonalFolders/Calvin/ZEUS_Converged/rmg_rxn_15708/output/Species/rmg_rxn_15708_p1_C1Csbr-N-sbrO1/arkane/output.py

>  <path_exists>  (4) 
True

>  <E0_value>  (4) 
-547192.5830183756

>  <E0_units>  (4) 
kJ/mol

>  <thermo_class>  (4) 
NASA

>  <Cp0_value>  (4) 
33.257888

>  <Cp0_units>  (4) 
J/(mol*K)

>  <CpInf_value>  (4) 
182.918384

>  <CpInf_units>  (4) 
J/(mol*K)

>  <Tmin_value>  (4) 
10.0

>  <Tmin_units>  (4) 
K

>  <Tmax_value>  (4) 
3000.0

>  <Tmax_units>  (4) 
K

>  <polynomials>  (4) 
[{"name": "polynomial1", "class": "NASAPolynomial", "Tmin_value": 10.0, "Tmin_units": "K", "Tmax_value": 721.2803246966065, "Tmax_units": "K", "coeffs": [4.081269324774337, -0.005774051499114103, 8.141477702070275e-05, -1.094902134935083e-07, 4.6973439735583125e-11, -65812067.94543052, 8.759725089878335]}, {"name": "polynomial2", "class": "NASAPolynomial", "Tmin_value": 721.2803246966065, "Tmin_units": "K", "Tmax_value": 3000.0, "Tmax_units": "K", "coeffs": [-0.4125713126623395, 0.030769588098054256, -1.8752548272813556e-05, 5.432472985850902e-09, -6.025436910445359e-13, -65811722.00074655, 26.87593611455925]}]

>  <H298_value>  (4) 
-130779.21979346684

>  <H298_units>  (4) 
kcal/mol

>  <S298_value>  (4) 
65.64177214242952

>  <S298_units>  (4) 
cal/(mol*K)

>  <Cp_T_value_list>  (4) 
[14.110423868599161, 17.871264907450385, 21.45686443400886, 24.569880452002437, 29.283658902293713, 32.65854216213234, 37.424654864791464, 39.61594848759476, 40.79201394168856]

>  <Cp_T_units>  (4) 
cal/(mol*K)

>  <T_list>  (4) 
[300.0, 400.0, 500.0, 600.0, 800.0, 1000.0, 1500.0, 2000.0, 2400.0]

>  <T_units>  (4) 
K

>  <yaml_path>  (4) 
/home/calvin/Dropbox/PersonalFolders/Calvin/ZEUS_Converged/rmg_rxn_15708/output/Species/rmg_rxn_15708_p1_C1Csbr-N-sbrO1/rmg_rxn_15708_p1_C1Csbr-N-sbrO1.yml

>  <frequencies_cm1>  (4) 
[190.59317755659998, 781.9436183884001, 878.41789514908, 959.5101247929599, 964.2964135609999, 1028.5851301268399, 1068.7707282194801, 1111.6069826456398, 1143.19511511764, 1178.53948855968, 1287.1477283808001, 1337.64067143876, 1467.2138174418399, 1509.27410252684, 3025.8958793460793, 3044.0109866202397, 3070.5312839260796, 3103.69882302168]

>  <ZPE_kJmol>  (4) 
162.39832502129732

>  <E_elec_kJmol>  (4) 
-547354.9813433968

>  <E0_minus_Eelec_plus_ZPE_kJmol>  (4) 
0.0

>  <rxn>  (4) 
rmg_rxn_15708

>  <species_type>  (4) 
p0

>  <species_folder>  (4) 
rmg_rxn_15708_p1_C1Csbr-N-sbrO1

>  <frequencies_cm1_list>  (4) 
[190.59317755659998, 781.9436183884001, 878.41789514908, 959.5101247929599, 964.2964135609999, 1028.5851301268399, 1068.7707282194801, 1111.6069826456398, 1143.19511511764, 1178.53948855968, 1287.1477283808001, 1337.64067143876, 1467.2138174418399, 1509.27410252684, 3025.8958793460793, 3044.0109866202397, 3070.5312839260796, 3103.69882302168]

>  <E0_kJmol>  (4) 
-547193

>  <H298_kJmol>  (4) 
-547180

$$$$

     RDKit          3D

  8  7  0  0  0  0  0  0  0  0999 V2000
    1.7077   -0.1964   -0.0607 C   0  0  0  0  0  3  0  0  0  1  0  0
    0.4209   -0.4565    0.2808 O   0  0  0  0  0  0  0  0  0  2  0  0
   -0.4607    0.4385   -0.2968 N   0  0  0  0  0  0  0  0  0  3  0  0
   -1.6584    0.1416   -0.0244 C   0  0  0  0  0  0  0  0  0  4  0  0
    2.4163   -0.7685    0.5170 H   0  0  0  0  0  0  0  0  0  5  0  0
    1.9214    0.7645   -0.5045 H   0  0  0  0  0  0  0  0  0  6  0  0
   -2.4185    0.7953   -0.4307 H   0  0  0  0  0  0  0  0  0  7  0  0
   -1.9286   -0.7185    0.5831 H   0  0  0  0  0  0  0  0  0  8  0  0
  1  6  1  0
  1  5  1  0
  1  2  1  0
  2  3  1  0
  3  4  1  0
  4  8  1  0
  4  7  1  0
M  RAD  1   1   2
M  END
>  <rmg_smiles>  (5) 
[CH2]O[N][CH2]

>  <rmg_adjacency_list>  (5) 
multiplicity 2
1 O u0 p2 c0 {2,S} {3,S}
2 N u0 p1 c0 {1,S} {4,S}
3 C u1 p0 c0 {1,S} {5,S} {6,S}
4 C u0 p0 c0 {2,S} {7,S} {8,S}
5 H u0 p0 c0 {3,S}
6 H u0 p0 c0 {3,S}
7 H u0 p0 c0 {4,S}
8 H u0 p0 c0 {4,S}


>  <multiplicity>  (5) 
2

>  <reaction>  (5) 
rmg_rxn_15708

>  <type>  (5) 
r2

>  <role_mapnums>  (5) 
{}

>  <role_mapidx>  (5) 
{}

>  <ordered_mapped_smiles>  (5) 
[C:1]([O:2][NH:3][CH:4]([H:7])[H:8])([H:5])[H:6]

>  <level_of_theory>  (5) 
wb97xd/def2tzvp

>  <lot_method>  (5) 
wb97xd

>  <lot_basis>  (5) 
def2tzvp

>  <spin_multiplicity>  (5) 
2.0

>  <optical_isomers>  (5) 
2.0

>  <modes>  (5) 
IdealGasTranslation(mass=(58.0293, 'amu')),         NonlinearRotor(             inertia = ([10.2741, 95.4529, 105.582

>  <frequency_value>  (5) 
unknown

>  <frequency_units>  (5) 
unknown

>  <frequency_list>  (5) 
unknown

>  <arkane_path>  (5) 
/home/calvin/Dropbox/PersonalFolders/Calvin/ZEUS_Converged/rmg_rxn_15708/output/Species/rmg_rxn_15708_r1_sbr-CH2-sbrON=C/arkane/output.py

>  <path_exists>  (5) 
True

>  <E0_value>  (5) 
-547168.2732446302

>  <E0_units>  (5) 
kJ/mol

>  <thermo_class>  (5) 
NASA

>  <Cp0_value>  (5) 
33.257888

>  <Cp0_units>  (5) 
J/(mol*K)

>  <CpInf_value>  (5) 
182.918384

>  <CpInf_units>  (5) 
J/(mol*K)

>  <Tmin_value>  (5) 
10.0

>  <Tmin_units>  (5) 
K

>  <Tmax_value>  (5) 
3000.0

>  <Tmax_units>  (5) 
K

>  <polynomials>  (5) 
[{"name": "polynomial1", "class": "NASAPolynomial", "Tmin_value": 10.0, "Tmin_units": "K", "Tmax_value": 253.2842427910515, "Tmax_units": "K", "coeffs": [3.956862909385456, 0.0038362890131335746, 0.00011727738047703725, -3.4736244039427427e-07, 3.472729073035136e-10, -65809144.38694886, 9.350338763280796]}, {"name": "polynomial2", "class": "NASAPolynomial", "Tmin_value": 253.2842427910515, "Tmin_units": "K", "Tmax_value": 3000.0, "Tmax_units": "K", "coeffs": [2.5252197328965313, 0.026445761179553072, -1.662161754135038e-05, 5.074735532607581e-09, -5.97403912324656e-13, -65809071.86505469, 14.291183066674913]}]

>  <H298_value>  (5) 
-130772.65860702786

>  <H298_units>  (5) 
kcal/mol

>  <S298_value>  (5) 
71.26914844977757

>  <S298_units>  (5) 
cal/(mol*K)

>  <Cp_T_value_list>  (5) 
[18.0740035969719, 21.369534269323825, 24.223451351766553, 26.683440747612977, 30.598134113509214, 33.438117676478754, 37.554421513360474, 39.68390492467901, 40.91110806828642]

>  <Cp_T_units>  (5) 
cal/(mol*K)

>  <T_list>  (5) 
[300.0, 400.0, 500.0, 600.0, 800.0, 1000.0, 1500.0, 2000.0, 2400.0]

>  <T_units>  (5) 
K

>  <yaml_path>  (5) 
/home/calvin/Dropbox/PersonalFolders/Calvin/ZEUS_Converged/rmg_rxn_15708/output/Species/rmg_rxn_15708_r1_sbr-CH2-sbrON=C/rmg_rxn_15708_r1_sbr-CH2-sbrON=C.yml

>  <frequencies_cm1>  (5) 
[132.13453152744, 273.14807507364, 360.4549264321199, 498.69420790903996, 595.9169860696, 789.3942974605999, 873.74834513148, 993.5360370535599, 1152.01232426852, 1206.54305469464, 1257.0497317232398, 1417.2771001948001, 1437.260027476, 1705.2166616477198, 3090.5210781926, 3134.7719315946797, 3218.94057066192, 3282.16490450316]

>  <ZPE_kJmol>  (5) 
152.0381400376291

>  <E_elec_kJmol>  (5) 
-547320.3113846679

>  <E0_minus_Eelec_plus_ZPE_kJmol>  (5) 
0.0

>  <rxn>  (5) 
rmg_rxn_15708

>  <species_type>  (5) 
r0

>  <species_folder>  (5) 
rmg_rxn_15708_r1_sbr-CH2-sbrON=C

>  <frequencies_cm1_list>  (5) 
[132.13453152744, 273.14807507364, 360.4549264321199, 498.69420790903996, 595.9169860696, 789.3942974605999, 873.74834513148, 993.5360370535599, 1152.01232426852, 1206.54305469464, 1257.0497317232398, 1417.2771001948001, 1437.260027476, 1705.2166616477198, 3090.5210781926, 3134.7719315946797, 3218.94057066192, 3282.16490450316]

>  <E0_kJmol>  (5) 
-547168

>  <H298_kJmol>  (5) 
-547153

$$$$
