
     RDKit          3D

  9  8  0  0  0  0  0  0  0  0999 V2000
   -0.5066   -0.2678   -1.8186 C   0  0  0  0  0  0  0  0  0  1  0  0
   -0.0384   -0.4911   -0.4214 C   0  0  0  0  0  0  0  0  0  2  0  0
    0.0305    0.4801    0.3928 N   0  0  0  0  0  0  0  0  0  3  0  0
    0.4601    0.2007    1.6156 O   0  0  0  0  0  0  0  0  0  4  0  0
    0.2639   -0.5578   -2.5375 H   0  0  0  0  0  0  0  0  0  5  0  0
   -1.3909   -0.8733   -2.0326 H   0  0  0  0  0  0  0  0  0  6  0  0
   -0.7539    0.7821   -1.9699 H   0  0  0  0  0  0  0  0  0  7  0  0
    0.2441   -1.4952   -0.1032 H   0  0  0  0  0  0  0  0  0  8  0  0
    0.4153    1.0468    2.0670 H   0  0  0  0  0  0  0  0  0  9  0  0
  1  5  1  0
  1  7  1  0
  1  6  1  0
  1  2  1  0
  2  3  1  0
  2  8  1  0
  3  4  1  0
  4  9  1  0
M  END
>  <rmg_smiles>  (1) 
C[CH][N]O

>  <rmg_adjacency_list>  (1) 
1 O u0 p2 c0 {2,S} {9,S}
2 N u0 p1 c0 {1,S} {4,S}
3 C u0 p0 c0 {4,S} {5,S} {6,S} {7,S}
4 C u0 p0 c0 {2,S} {3,S} {8,S}
5 H u0 p0 c0 {3,S}
6 H u0 p0 c0 {3,S}
7 H u0 p0 c0 {3,S}
8 H u0 p0 c0 {4,S}
9 H u0 p0 c0 {1,S}


>  <multiplicity>  (1) 
1

>  <reaction>  (1) 
rmg_rxn_275

>  <type>  (1) 
r1h

>  <role_mapnums>  (1) 
{"r1h_a": 4, "r1h_h": 9}

>  <role_mapidx>  (1) 
{"r1h_a": 3, "r1h_h": 8}

>  <ordered_mapped_smiles>  (1) 
[C:1]([CH:2]([NH:3][O:4][H:9])[H:8])([H:5])([H:6])[H:7]

>  <mol_properties>  (1) 
{"3": {"label": "donator", "atom_type": "O2s"}, "8": {"label": "d_hydrogen", "atom_type": "H0"}}

>  <level_of_theory>  (1) 
wb97xd/def2tzvp

>  <lot_method>  (1) 
wb97xd

>  <lot_basis>  (1) 
def2tzvp

>  <spin_multiplicity>  (1) 
1.0

>  <optical_isomers>  (1) 
1.0

>  <modes>  (1) 
IdealGasTranslation(mass=(59.0371, 'amu')),         NonlinearRotor(             inertia = ([10.7603, 118.091, 125.733

>  <frequency_value>  (1) 
unknown

>  <frequency_units>  (1) 
unknown

>  <frequency_list>  (1) 
unknown

>  <arkane_path>  (1) 
/home/calvin/Dropbox/PersonalFolders/Calvin/ATLAS_Converged/rmg_rxn_275/output/Species/rmg_rxn_275_r1_CC=NO/arkane/output.py

>  <path_exists>  (1) 
True

>  <E0_value>  (1) 
-548937.8541984448

>  <E0_units>  (1) 
kJ/mol

>  <thermo_class>  (1) 
NASA

>  <Cp0_value>  (1) 
33.257888

>  <Cp0_units>  (1) 
J/(mol*K)

>  <CpInf_value>  (1) 
207.8618

>  <CpInf_units>  (1) 
J/(mol*K)

>  <Tmin_value>  (1) 
10.0

>  <Tmin_units>  (1) 
K

>  <Tmax_value>  (1) 
3000.0

>  <Tmax_units>  (1) 
K

>  <polynomials>  (1) 
[{"name": "polynomial1", "class": "NASAPolynomial", "Tmin_value": 10.0, "Tmin_units": "K", "Tmax_value": 335.1910179037978, "Tmax_units": "K", "coeffs": [3.936344167606981, 0.004744355844830638, 9.160790844518127e-05, -2.1061910314248552e-07, 1.6006484261890122e-10, -66021973.16953679, 8.120493921530757]}, {"name": "polynomial2", "class": "NASAPolynomial", "Tmin_value": 335.1910179037978, "Tmin_units": "K", "Tmax_value": 3000.0, "Tmax_units": "K", "coeffs": [1.9092598311329627, 0.02893435817357441, -1.6642930351421066e-05, 4.680937669481693e-09, -5.139624250773394e-13, -66021837.27634088, 15.684306465260459]}]

>  <H298_value>  (1) 
-131195.6144386416

>  <H298_units>  (1) 
kcal/mol

>  <S298_value>  (1) 
68.52934918863554

>  <S298_units>  (1) 
cal/(mol*K)

>  <Cp_T_value_list>  (1) 
[18.310462740749653, 22.071021910178956, 25.374045411772553, 28.263825064535727, 32.970522087113224, 36.50033911765962, 41.85143067881395, 44.573751899405494, 45.995252148342956]

>  <Cp_T_units>  (1) 
cal/(mol*K)

>  <T_list>  (1) 
[300.0, 400.0, 500.0, 600.0, 800.0, 1000.0, 1500.0, 2000.0, 2400.0]

>  <T_units>  (1) 
K

>  <yaml_path>  (1) 
/home/calvin/Dropbox/PersonalFolders/Calvin/ATLAS_Converged/rmg_rxn_275/output/Species/rmg_rxn_275_r1_CC=NO/rmg_rxn_275_r1_CC=NO.yml

>  <frequencies_cm1>  (1) 
[197.06187772804, 291.09837470012, 328.62644947392, 407.23283043195994, 570.83188869564, 914.3734302846, 916.92108183832, 1038.1439736922798, 1079.0094033316, 1148.38655601956, 1286.64643845244, 1390.76366987428, 1438.44801593636, 1464.57689507896, 1470.4000986303201, 1752.33104792824, 3016.9275965181596, 3076.79397453792, 3080.3236049924, 3121.5941867655997, 3848.4577159022797]

>  <ZPE_kJmol>  (1) 
190.43926148497908

>  <E_elec_kJmol>  (1) 
-549128.2934599298

>  <E0_minus_Eelec_plus_ZPE_kJmol>  (1) 
0.0

>  <rxn>  (1) 
rmg_rxn_275

>  <species_type>  (1) 
r0

>  <species_folder>  (1) 
rmg_rxn_275_r1_CC=NO

>  <frequencies_cm1_list>  (1) 
[197.06187772804, 291.09837470012, 328.62644947392, 407.23283043195994, 570.83188869564, 914.3734302846, 916.92108183832, 1038.1439736922798, 1079.0094033316, 1148.38655601956, 1286.64643845244, 1390.76366987428, 1438.44801593636, 1464.57689507896, 1470.4000986303201, 1752.33104792824, 3016.9275965181596, 3076.79397453792, 3080.3236049924, 3121.5941867655997, 3848.4577159022797]

>  <E0_kJmol>  (1) 
-548938

>  <H298_kJmol>  (1) 
-548922

$$$$

     RDKit          3D

 18 17  0  0  0  0  0  0  0  0999 V2000
   -0.2781   -2.1104    0.9407 H   0  0  0  0  0  0  0  0  0  1  0  0
   -1.7624   -0.9937    1.9071 C   0  0  0  0  0  0  0  0  0  2  0  0
   -0.3970   -1.0768    1.2935 C   0  0  0  0  0  0  0  0  0  3  0  0
   -0.2804   -0.2718    0.2004 O   0  0  0  0  0  0  0  0  0  4  0  0
    1.0223   -0.2090   -0.3608 C   0  0  0  0  0  0  0  0  0  5  0  0
    0.9612    0.5723   -1.6542 C   0  0  0  0  0  0  0  0  0  6  0  0
    0.5169    2.0168   -1.4676 C   0  0  0  0  0  0  0  0  0  7  0  0
   -2.5212   -1.2243    1.1586 H   0  0  0  0  0  0  0  0  0  8  0  0
   -1.8498   -1.7080    2.7255 H   0  0  0  0  0  0  0  0  0  9  0  0
   -1.9536    0.0099    2.2964 H   0  0  0  0  0  0  0  0  0 10  0  0
    0.4416   -0.9746    1.9958 H   0  0  0  0  0  0  0  0  0 11  0  0
    1.6971    0.2757    0.3583 H   0  0  0  0  0  0  0  0  0 12  0  0
    1.3827   -1.2260   -0.5409 H   0  0  0  0  0  0  0  0  0 13  0  0
    1.9557    0.5396   -2.1074 H   0  0  0  0  0  0  0  0  0 14  0  0
    0.2842    0.0510   -2.3350 H   0  0  0  0  0  0  0  0  0 15  0  0
    1.1988    2.5534   -0.8033 H   0  0  0  0  0  0  0  0  0 16  0  0
    0.4948    2.5453   -2.4216 H   0  0  0  0  0  0  0  0  0 17  0  0
   -0.4815    2.0627   -1.0322 H   0  0  0  0  0  0  0  0  0 18  0  0
  1  3  1  0
  2 10  1  0
  2  9  1  0
  2  8  1  0
  2  3  1  0
  3 11  1  0
  3  4  1  0
  4  5  1  0
  5 13  1  0
  5 12  1  0
  5  6  1  0
  6 15  1  0
  6 14  1  0
  6  7  1  0
  7 17  1  0
  7 18  1  0
  7 16  1  0
M  END
>  <rmg_smiles>  (2) 
CCCOCC

>  <rmg_adjacency_list>  (2) 
1  O u0 p2 c0 {3,S} {4,S}
2  C u0 p0 c0 {3,S} {5,S} {7,S} {8,S}
3  C u0 p0 c0 {1,S} {2,S} {11,S} {12,S}
4  C u0 p0 c0 {1,S} {6,S} {9,S} {10,S}
5  C u0 p0 c0 {2,S} {16,S} {17,S} {18,S}
6  C u0 p0 c0 {4,S} {13,S} {14,S} {15,S}
7  H u0 p0 c0 {2,S}
8  H u0 p0 c0 {2,S}
9  H u0 p0 c0 {4,S}
10 H u0 p0 c0 {4,S}
11 H u0 p0 c0 {3,S}
12 H u0 p0 c0 {3,S}
13 H u0 p0 c0 {6,S}
14 H u0 p0 c0 {6,S}
15 H u0 p0 c0 {6,S}
16 H u0 p0 c0 {5,S}
17 H u0 p0 c0 {5,S}
18 H u0 p0 c0 {5,S}


>  <multiplicity>  (2) 
1

>  <reaction>  (2) 
rmg_rxn_275

>  <type>  (2) 
r2h

>  <role_mapnums>  (2) 
{"r2h_a": 3, "r2h_h": 1}

>  <role_mapidx>  (2) 
{"r2h_a": 2, "r2h_h": 0}

>  <ordered_mapped_smiles>  (2) 
[H:1][C:3]([C:2]([H:8])([H:9])[H:10])([O:4][C:5]([C:6]([C:7]([H:16])([H:17])[H:18])([H:14])[H:15])([H:12])[H:13])[H:11]

>  <mol_properties>  (2) 
{"0": {"label": "a_hydrogen", "atom_type": "H0"}, "2": {"label": "acceptor", "atom_type": "Cs"}}

>  <level_of_theory>  (2) 
wb97xd/def2tzvp

>  <lot_method>  (2) 
wb97xd

>  <lot_basis>  (2) 
def2tzvp

>  <spin_multiplicity>  (2) 
1.0

>  <optical_isomers>  (2) 
2.0

>  <modes>  (2) 
IdealGasTranslation(mass=(88.0888, 'amu')),         NonlinearRotor(             inertia = ([59.5652, 317.445, 349.634

>  <frequency_value>  (2) 
unknown

>  <frequency_units>  (2) 
unknown

>  <frequency_list>  (2) 
unknown

>  <arkane_path>  (2) 
/home/calvin/Dropbox/PersonalFolders/Calvin/ATLAS_Converged/rmg_rxn_275/output/Species/rmg_rxn_275_p2_CCCOCC/arkane/output.py

>  <path_exists>  (2) 
True

>  <E0_value>  (2) 
-716327.3605709573

>  <E0_units>  (2) 
kJ/mol

>  <thermo_class>  (2) 
NASA

>  <Cp0_value>  (2) 
33.257888

>  <Cp0_units>  (2) 
J/(mol*K)

>  <CpInf_value>  (2) 
432.352544

>  <CpInf_units>  (2) 
J/(mol*K)

>  <Tmin_value>  (2) 
10.0

>  <Tmin_units>  (2) 
K

>  <Tmax_value>  (2) 
3000.0

>  <Tmax_units>  (2) 
K

>  <polynomials>  (2) 
[{"name": "polynomial1", "class": "NASAPolynomial", "Tmin_value": 10.0, "Tmin_units": "K", "Tmax_value": 424.14701041358796, "Tmax_units": "K", "coeffs": [3.4707042336928127, 0.05746545203879795, -0.00016719847115372115, 4.780470157694204e-07, -4.3347206706639054e-10, -86154279.58985142, 11.635447004604476]}, {"name": "polynomial2", "class": "NASAPolynomial", "Tmin_value": 424.14701041358796, "Tmin_units": "K", "Tmax_value": 3000.0, "Tmax_units": "K", "coeffs": [-2.8535624465972114, 0.06921008708460846, -3.934323609424939e-05, 1.0841890934368647e-08, -1.163418506360095e-12, -86153312.26572455, 41.80111524234505]}]

>  <H298_value>  (2) 
-171200.6815246165

>  <H298_units>  (2) 
kcal/mol

>  <S298_value>  (2) 
88.37399878129293

>  <S298_units>  (2) 
cal/(mol*K)

>  <Cp_T_value_list>  (2) 
[29.924593767526826, 38.16083070533892, 46.09960348181722, 53.05840207682852, 64.40406715451496, 72.91410593462665, 85.72980278110597, 92.03567805993791, 95.21197800865355]

>  <Cp_T_units>  (2) 
cal/(mol*K)

>  <T_list>  (2) 
[300.0, 400.0, 500.0, 600.0, 800.0, 1000.0, 1500.0, 2000.0, 2400.0]

>  <T_units>  (2) 
K

>  <yaml_path>  (2) 
/home/calvin/Dropbox/PersonalFolders/Calvin/ATLAS_Converged/rmg_rxn_275/output/Species/rmg_rxn_275_p2_CCCOCC/rmg_rxn_275_p2_CCCOCC.yml

>  <frequencies_cm1>  (2) 
[76.60808822992, 85.88538539723999, 152.39213822143998, 171.44115549912, 250.05440344247998, 256.05614861216003, 329.51915756551995, 440.0707542322, 493.7774464199199, 767.98990421816, 823.02879155796, 891.3896304185598, 900.4815189822399, 929.41899512072, 1002.9850088538799, 1082.00340893112, 1102.9065122452, 1152.52734816752, 1174.9617892079598, 1182.44680320676, 1190.2339645596398, 1270.1176047871998, 1295.23017010244, 1305.6473868328799, 1368.30176089256, 1380.4425909383199, 1399.7456866728398, 1405.4521514737598, 1443.92787022172, 1468.7794900948002, 1470.37949767436, 1482.5752636026798, 1487.2448136202797, 1494.6336898246, 1500.58049911172, 1519.49904366832, 2928.8997117010795, 2942.5512785172396, 2962.4655359452395, 2968.54281795344, 3015.14904732028, 3021.7276192568397, 3024.0692612509597, 3058.7338031463196, 3085.2403664815197, 3101.8035350733594, 3104.27564978856, 3105.2988306012394]

>  <ZPE_kJmol>  (2) 
431.0594598774012

>  <E_elec_kJmol>  (2) 
-716758.4200308347

>  <E0_minus_Eelec_plus_ZPE_kJmol>  (2) 
0.0

>  <rxn>  (2) 
rmg_rxn_275

>  <species_type>  (2) 
p1

>  <species_folder>  (2) 
rmg_rxn_275_p2_CCCOCC

>  <frequencies_cm1_list>  (2) 
[76.60808822992, 85.88538539723999, 152.39213822143998, 171.44115549912, 250.05440344247998, 256.05614861216003, 329.51915756551995, 440.0707542322, 493.7774464199199, 767.98990421816, 823.02879155796, 891.3896304185598, 900.4815189822399, 929.41899512072, 1002.9850088538799, 1082.00340893112, 1102.9065122452, 1152.52734816752, 1174.9617892079598, 1182.44680320676, 1190.2339645596398, 1270.1176047871998, 1295.23017010244, 1305.6473868328799, 1368.30176089256, 1380.4425909383199, 1399.7456866728398, 1405.4521514737598, 1443.92787022172, 1468.7794900948002, 1470.37949767436, 1482.5752636026798, 1487.2448136202797, 1494.6336898246, 1500.58049911172, 1519.49904366832, 2928.8997117010795, 2942.5512785172396, 2962.4655359452395, 2968.54281795344, 3015.14904732028, 3021.7276192568397, 3024.0692612509597, 3058.7338031463196, 3085.2403664815197, 3101.8035350733594, 3104.27564978856, 3105.2988306012394]

>  <E0_kJmol>  (2) 
-716327

>  <H298_kJmol>  (2) 
-716304

$$$$

     RDKit          3D

 26 24  0  0  0  0  0  0  0  0999 V2000
   -0.8506   -2.4408   -2.5913 C   0  0  0  0  0  0  0  0  0  1  0  0
   -0.3824   -2.6641   -1.1942 C   0  0  0  0  0  0  0  0  0  2  0  0
   -0.3135   -1.6929   -0.3800 N   0  0  0  0  0  0  0  0  0  3  0  0
    0.1161   -1.9723    0.8429 O   0  0  0  0  0  0  0  0  0  4  0  0
   -0.0801   -2.7308   -3.3103 H   0  0  0  0  0  0  0  0  0  5  0  0
   -1.7349   -3.0464   -2.8053 H   0  0  0  0  0  0  0  0  0  6  0  0
   -1.0979   -1.3909   -2.7427 H   0  0  0  0  0  0  0  0  0  7  0  0
   -0.0999   -3.6683   -0.8759 H   0  0  0  0  0  0  0  0  0  8  0  0
    0.0566   -0.8496    1.4418 H   0  0  0  0  0  0  0  0  0  9  0  0
   -1.4469    0.4338    2.4650 C   0  0  0  0  0  0  0  0  0 10  0  0
   -0.0815    0.3506    1.8514 C   0  0  0  0  0  3  0  0  0 11  0  0
    0.0351    1.1556    0.7583 O   0  0  0  0  0  0  0  0  0 12  0  0
    1.3379    1.2184    0.1971 C   0  0  0  0  0  0  0  0  0 13  0  0
    1.2768    1.9997   -1.0963 C   0  0  0  0  0  0  0  0  0 14  0  0
    0.8324    3.4443   -0.9097 C   0  0  0  0  0  0  0  0  0 15  0  0
   -2.2057    0.2031    1.7165 H   0  0  0  0  0  0  0  0  0 16  0  0
   -1.5343   -0.2805    3.2834 H   0  0  0  0  0  0  0  0  0 17  0  0
   -1.6380    1.4373    2.8543 H   0  0  0  0  0  0  0  0  0 18  0  0
    0.7571    0.4528    2.5537 H   0  0  0  0  0  0  0  0  0 19  0  0
    2.0126    1.7031    0.9162 H   0  0  0  0  0  0  0  0  0 20  0  0
    1.6983    0.2014    0.0170 H   0  0  0  0  0  0  0  0  0 21  0  0
    2.2712    1.9671   -1.5495 H   0  0  0  0  0  0  0  0  0 22  0  0
    0.5997    1.4785   -1.7771 H   0  0  0  0  0  0  0  0  0 23  0  0
    1.5143    3.9809   -0.2454 H   0  0  0  0  0  0  0  0  0 24  0  0
    0.8103    3.9728   -1.8637 H   0  0  0  0  0  0  0  0  0 25  0  0
   -0.1660    3.4902   -0.4743 H   0  0  0  0  0  0  0  0  0 26  0  0
  1  7  1  0
  1  5  1  0
  1  6  1  0
  1  2  1  0
  2  8  1  0
  2  3  1  0
  3  4  1  0
  4  9  1  0
 10 16  1  0
 10 18  1  0
 10 11  1  0
 10 17  1  0
 11 19  1  0
 11 12  1  0
 12 13  1  0
 13 21  1  0
 13 20  1  0
 13 14  1  0
 14 15  1  0
 14 23  1  0
 14 22  1  0
 15 25  1  0
 15 24  1  0
 15 26  1  0
M  RAD  1  11   2
M  END
>  <rmg_smiles>  (3) 
C[CH]OCCC.C[CH][N]O

>  <rmg_adjacency_list>  (3) 
multiplicity 2
1  O u0 p2 c0 {5,S} {9,S}
2  O u0 p2 c0 {3,S} {26,S}
3  N u0 p1 c0 {2,S} {10,S}
4  C u0 p0 c0 {5,S} {6,S} {11,S} {12,S}
5  C u0 p0 c0 {1,S} {4,S} {13,S} {14,S}
6  C u0 p0 c0 {4,S} {15,S} {16,S} {17,S}
7  C u0 p0 c0 {10,S} {18,S} {19,S} {20,S}
8  C u0 p0 c0 {9,S} {21,S} {22,S} {23,S}
9  C u1 p0 c0 {1,S} {8,S} {25,S}
10 C u0 p0 c0 {3,S} {7,S} {24,S}
11 H u0 p0 c0 {4,S}
12 H u0 p0 c0 {4,S}
13 H u0 p0 c0 {5,S}
14 H u0 p0 c0 {5,S}
15 H u0 p0 c0 {6,S}
16 H u0 p0 c0 {6,S}
17 H u0 p0 c0 {6,S}
18 H u0 p0 c0 {7,S}
19 H u0 p0 c0 {7,S}
20 H u0 p0 c0 {7,S}
21 H u0 p0 c0 {8,S}
22 H u0 p0 c0 {8,S}
23 H u0 p0 c0 {8,S}
24 H u0 p0 c0 {10,S}
25 H u0 p0 c0 {9,S}
26 H u0 p0 c0 {2,S}


>  <multiplicity>  (3) 
2

>  <reaction>  (3) 
rmg_rxn_275

>  <type>  (3) 
ts

>  <role_mapnums>  (3) 
{"*2": 9, "*1": 4, "*3": 11, "*0": 3, "*4": 12}

>  <role_mapidx>  (3) 
{"*2": 8, "*1": 3, "*3": 10, "*0": 2, "*4": 11}

>  <ordered_mapped_smiles>  (3) 
[C:1]([CH:2]([NH:3][O:4][H:9])[H:8])([H:5])([H:6])[H:7].[C:10]([C:11]([O:12][C:13]([C:14]([C:15]([H:24])([H:25])[H:26])([H:22])[H:23])([H:20])[H:21])[H:19])([H:16])([H:17])[H:18]

>  <mol_properties>  (3) 
{"2": {"label": "*0", "atom_type": "N3s"}, "3": {"label": "*1", "atom_type": "O2s"}, "8": {"label": "*2", "atom_type": "H0"}, "10": {"label": "*3", "atom_type": "Cs"}, "11": {"label": "*4", "atom_type": "O2s"}}

>  <level_of_theory>  (3) 
wb97xd/def2tzvp

>  <lot_method>  (3) 
wb97xd

>  <lot_basis>  (3) 
def2tzvp

>  <spin_multiplicity>  (3) 
2.0

>  <optical_isomers>  (3) 
2.0

>  <modes>  (3) 
IdealGasTranslation(mass=(146.118, 'amu')),         NonlinearRotor(             inertia = ([387.882, 699.39, 962.682

>  <frequency_value>  (3) 
-1707.17

>  <frequency_units>  (3) 
cm^-1

>  <frequency_list>  (3) 
unknown

>  <arkane_path>  (3) 
/home/calvin/Dropbox/PersonalFolders/Calvin/ATLAS_Converged/rmg_rxn_275/output/rxns/TS0/arkane/output.py

>  <path_exists>  (3) 
True

>  <E0_value>  (3) 
-1263540.0

>  <E0_units>  (3) 
kJ/mol

>  <thermo_class>  (3) 
unknown

>  <Cp0_value>  (3) 
unknown

>  <Cp0_units>  (3) 
unknown

>  <CpInf_value>  (3) 
unknown

>  <CpInf_units>  (3) 
unknown

>  <Tmin_value>  (3) 
unknown

>  <Tmin_units>  (3) 
unknown

>  <Tmax_value>  (3) 
unknown

>  <Tmax_units>  (3) 
unknown

>  <polynomials>  (3) 
unknown

>  <H298_value>  (3) 
unknown

>  <H298_units>  (3) 
unknown

>  <S298_value>  (3) 
unknown

>  <S298_units>  (3) 
unknown

>  <Cp_T_value_list>  (3) 
unknown

>  <Cp_T_units>  (3) 
unknown

>  <T_list>  (3) 
unknown

>  <T_units>  (3) 
unknown

>  <yaml_path>  (3) 
unknown

>  <frequencies_cm1>  (3) 
unknown

>  <ZPE_kJmol>  (3) 
unknown

>  <E_elec_kJmol>  (3) 
unknown

>  <E0_minus_Eelec_plus_ZPE_kJmol>  (3) 
unknown

>  <rxn>  (3) 
unknown

>  <species_type>  (3) 
unknown

>  <species_folder>  (3) 
unknown

>  <frequencies_cm1_list>  (3) 
[]

>  <ts_imag_freq_cm1>  (3) 
-1727.9026

>  <ts_freq_out_path>  (3) 
/home/calvin/Dropbox/PersonalFolders/Calvin/ATLAS_Converged/rmg_rxn_275/output/rxns/TS0/geometry/freq.out

>  <E0_kJmol>  (3) 
-1.26354e+06

>  <H298_kJmol>  (3) 
unknown

$$$$

     RDKit          3D

  8  7  0  0  0  0  0  0  0  0999 V2000
   -0.9728    0.1768    0.1542 C   0  0  0  0  0  0  0  0  0  1  0  0
    0.4518   -0.2348    0.0047 C   0  0  0  0  0  0  0  0  0  2  0  0
    1.3116    0.0208    0.9062 N   0  0  0  0  0  0  0  0  0  3  0  0
    2.5018   -0.1901    1.0428 O   0  0  0  0  0  1  0  0  0  4  0  0
   -1.2701    0.8423   -0.6593 H   0  0  0  0  0  0  0  0  0  5  0  0
   -1.6318   -0.6936    0.1212 H   0  0  0  0  0  0  0  0  0  6  0  0
   -1.1258    0.6936    1.1003 H   0  0  0  0  0  0  0  0  0  7  0  0
    0.7882   -0.7655   -0.8838 H   0  0  0  0  0  0  0  0  0  8  0  0
  1  5  1  0
  1  7  1  0
  1  6  1  0
  1  2  1  0
  2  3  1  0
  2  8  1  0
  3  4  1  0
M  RAD  1   4   2
M  END
>  <rmg_smiles>  (4) 
C[CH][N][O]

>  <rmg_adjacency_list>  (4) 
multiplicity 2
1 O u1 p2 c0 {2,S}
2 N u0 p1 c0 {1,S} {4,S}
3 C u0 p0 c0 {4,S} {5,S} {6,S} {7,S}
4 C u0 p0 c0 {2,S} {3,S} {8,S}
5 H u0 p0 c0 {3,S}
6 H u0 p0 c0 {3,S}
7 H u0 p0 c0 {3,S}
8 H u0 p0 c0 {4,S}


>  <multiplicity>  (4) 
2

>  <reaction>  (4) 
rmg_rxn_275

>  <type>  (4) 
r1

>  <role_mapnums>  (4) 
{}

>  <role_mapidx>  (4) 
{}

>  <ordered_mapped_smiles>  (4) 
[C:1]([CH:2]([NH:3][O:4])[H:8])([H:5])([H:6])[H:7]

>  <level_of_theory>  (4) 
wb97xd/def2tzvp

>  <lot_method>  (4) 
wb97xd

>  <lot_basis>  (4) 
def2tzvp

>  <spin_multiplicity>  (4) 
2.0

>  <optical_isomers>  (4) 
1.0

>  <modes>  (4) 
IdealGasTranslation(mass=(58.0293, 'amu')),         NonlinearRotor(             inertia = ([9.31113, 114.15, 120.338

>  <frequency_value>  (4) 
unknown

>  <frequency_units>  (4) 
unknown

>  <frequency_list>  (4) 
unknown

>  <arkane_path>  (4) 
/home/calvin/Dropbox/PersonalFolders/Calvin/ATLAS_Converged/rmg_rxn_275/output/Species/rmg_rxn_275_p1_CC=Nsbr-O-sbr/arkane/output.py

>  <path_exists>  (4) 
True

>  <E0_value>  (4) 
-547291.9822369756

>  <E0_units>  (4) 
kJ/mol

>  <thermo_class>  (4) 
NASA

>  <Cp0_value>  (4) 
33.257888

>  <Cp0_units>  (4) 
J/(mol*K)

>  <CpInf_value>  (4) 
182.918384

>  <CpInf_units>  (4) 
J/(mol*K)

>  <Tmin_value>  (4) 
10.0

>  <Tmin_units>  (4) 
K

>  <Tmax_value>  (4) 
3000.0

>  <Tmax_units>  (4) 
K

>  <polynomials>  (4) 
[{"name": "polynomial1", "class": "NASAPolynomial", "Tmin_value": 10.0, "Tmin_units": "K", "Tmax_value": 448.469821583942, "Tmax_units": "K", "coeffs": [3.8887722230996813, 0.008399169692485739, 4.23423230637367e-05, -8.042531461118158e-08, 4.6620175661053446e-11, -65824018.56271867, 8.787674089328345]}, {"name": "polynomial2", "class": "NASAPolynomial", "Tmin_value": 448.469821583942, "Tmin_units": "K", "Tmax_value": 3000.0, "Tmax_units": "K", "coeffs": [1.9857514593635577, 0.025372613622198854, -1.4428825534244759e-05, 3.966995228918133e-09, -4.24376034853994e-13, -65823847.87311471, 16.442591867910245]}]

>  <H298_value>  (4) 
-130802.40292482237

>  <H298_units>  (4) 
kcal/mol

>  <S298_value>  (4) 
68.97171532665904

>  <S298_units>  (4) 
cal/(mol*K)

>  <Cp_T_value_list>  (4) 
[16.743153000165332, 20.010112573021154, 22.92084276433073, 25.469656650185197, 29.622633813984088, 32.733580935653485, 37.39926541997259, 39.66786469099458, 40.797255640626396]

>  <Cp_T_units>  (4) 
cal/(mol*K)

>  <T_list>  (4) 
[300.0, 400.0, 500.0, 600.0, 800.0, 1000.0, 1500.0, 2000.0, 2400.0]

>  <T_units>  (4) 
K

>  <yaml_path>  (4) 
/home/calvin/Dropbox/PersonalFolders/Calvin/ATLAS_Converged/rmg_rxn_275/output/Species/rmg_rxn_275_p1_CC=Nsbr-O-sbr/rmg_rxn_275_p1_CC=Nsbr-O-sbr.yml

>  <frequencies_cm1>  (4) 
[167.29349636583999, 305.41603909232, 336.48228068, 536.4488931984, 789.99859216876, 920.0661611148798, 1055.0848264767199, 1131.0542850718798, 1256.94672694344, 1389.69928714968, 1433.0368315041999, 1463.78719176716, 1488.27486141828, 1754.1988679352798, 3017.2297438722394, 3076.07294107932, 3099.7159715360795, 3119.71263278792]

>  <ZPE_kJmol>  (4) 
157.55134027947926

>  <E_elec_kJmol>  (4) 
-547449.5335772551

>  <E0_minus_Eelec_plus_ZPE_kJmol>  (4) 
0.0

>  <rxn>  (4) 
rmg_rxn_275

>  <species_type>  (4) 
p0

>  <species_folder>  (4) 
rmg_rxn_275_p1_CC=Nsbr-O-sbr

>  <frequencies_cm1_list>  (4) 
[167.29349636583999, 305.41603909232, 336.48228068, 536.4488931984, 789.99859216876, 920.0661611148798, 1055.0848264767199, 1131.0542850718798, 1256.94672694344, 1389.69928714968, 1433.0368315041999, 1463.78719176716, 1488.27486141828, 1754.1988679352798, 3017.2297438722394, 3076.07294107932, 3099.7159715360795, 3119.71263278792]

>  <E0_kJmol>  (4) 
-547292

>  <H298_kJmol>  (4) 
-547277

$$$$

     RDKit          3D

 17 16  0  0  0  0  0  0  0  0999 V2000
   -3.2378    0.0781    0.0468 C   0  0  0  0  0  0  0  0  0  1  0  0
   -1.9072   -0.5430    0.2348 C   0  0  0  0  0  3  0  0  0  2  0  0
   -1.5607   -0.7743    1.5229 O   0  0  0  0  0  0  0  0  0  3  0  0
   -0.2678   -1.3170    1.7206 C   0  0  0  0  0  0  0  0  0  4  0  0
    0.0055   -1.4164    3.2061 C   0  0  0  0  0  0  0  0  0  5  0  0
    0.0347   -0.0632    3.9042 C   0  0  0  0  0  0  0  0  0  6  0  0
   -3.2816    1.0982    0.4537 H   0  0  0  0  0  0  0  0  0  7  0  0
   -3.4818    0.1310   -1.0144 H   0  0  0  0  0  0  0  0  0  8  0  0
   -4.0139   -0.5033    0.5509 H   0  0  0  0  0  0  0  0  0  9  0  0
   -1.0896   -0.3480   -0.4562 H   0  0  0  0  0  0  0  0  0 10  0  0
   -0.2142   -2.3036    1.2476 H   0  0  0  0  0  0  0  0  0 11  0  0
    0.4751   -0.6679    1.2371 H   0  0  0  0  0  0  0  0  0 12  0  0
   -0.7555   -2.0574    3.6583 H   0  0  0  0  0  0  0  0  0 13  0  0
    0.9642   -1.9267    3.3334 H   0  0  0  0  0  0  0  0  0 14  0  0
   -0.9209    0.4499    3.7952 H   0  0  0  0  0  0  0  0  0 15  0  0
    0.2399   -0.1765    4.9695 H   0  0  0  0  0  0  0  0  0 16  0  0
    0.8109    0.5782    3.4796 H   0  0  0  0  0  0  0  0  0 17  0  0
  1  8  1  0
  1  7  1  0
  1  9  1  0
  1  2  1  0
  2 10  1  0
  2  3  1  0
  3  4  1  0
  4  5  1  0
  4 12  1  0
  4 11  1  0
  5 14  1  0
  5  6  1  0
  5 13  1  0
  6 17  1  0
  6 15  1  0
  6 16  1  0
M  RAD  1   2   2
M  END
>  <rmg_smiles>  (5) 
C[CH]OCCC

>  <rmg_adjacency_list>  (5) 
multiplicity 2
1  O u0 p2 c0 {3,S} {6,S}
2  C u0 p0 c0 {3,S} {4,S} {7,S} {8,S}
3  C u0 p0 c0 {1,S} {2,S} {9,S} {10,S}
4  C u0 p0 c0 {2,S} {11,S} {12,S} {13,S}
5  C u0 p0 c0 {6,S} {14,S} {15,S} {16,S}
6  C u1 p0 c0 {1,S} {5,S} {17,S}
7  H u0 p0 c0 {2,S}
8  H u0 p0 c0 {2,S}
9  H u0 p0 c0 {3,S}
10 H u0 p0 c0 {3,S}
11 H u0 p0 c0 {4,S}
12 H u0 p0 c0 {4,S}
13 H u0 p0 c0 {4,S}
14 H u0 p0 c0 {5,S}
15 H u0 p0 c0 {5,S}
16 H u0 p0 c0 {5,S}
17 H u0 p0 c0 {6,S}


>  <multiplicity>  (5) 
2

>  <reaction>  (5) 
rmg_rxn_275

>  <type>  (5) 
r2

>  <role_mapnums>  (5) 
{}

>  <role_mapidx>  (5) 
{}

>  <ordered_mapped_smiles>  (5) 
[C:1]([C:2]([O:3][C:4]([C:5]([C:6]([H:15])([H:16])[H:17])([H:13])[H:14])([H:11])[H:12])[H:10])([H:7])([H:8])[H:9]

>  <level_of_theory>  (5) 
wb97xd/def2tzvp

>  <lot_method>  (5) 
wb97xd

>  <lot_basis>  (5) 
def2tzvp

>  <spin_multiplicity>  (5) 
2.0

>  <optical_isomers>  (5) 
2.0

>  <modes>  (5) 
IdealGasTranslation(mass=(87.081, 'amu')),         NonlinearRotor(             inertia = ([57.4633, 312.694, 344.444

>  <frequency_value>  (5) 
unknown

>  <frequency_units>  (5) 
unknown

>  <frequency_list>  (5) 
unknown

>  <arkane_path>  (5) 
/home/calvin/Dropbox/PersonalFolders/Calvin/ATLAS_Converged/rmg_rxn_275/output/Species/rmg_rxn_275_r2_Csbr-CH-sbrOCCC/arkane/output.py

>  <path_exists>  (5) 
True

>  <E0_value>  (5) 
-714626.8773508471

>  <E0_units>  (5) 
kJ/mol

>  <thermo_class>  (5) 
NASA

>  <Cp0_value>  (5) 
33.257888

>  <Cp0_units>  (5) 
J/(mol*K)

>  <CpInf_value>  (5) 
407.409128

>  <CpInf_units>  (5) 
J/(mol*K)

>  <Tmin_value>  (5) 
10.0

>  <Tmin_units>  (5) 
K

>  <Tmax_value>  (5) 
3000.0

>  <Tmax_units>  (5) 
K

>  <polynomials>  (5) 
[{"name": "polynomial1", "class": "NASAPolynomial", "Tmin_value": 10.0, "Tmin_units": "K", "Tmax_value": 423.5582142761537, "Tmax_units": "K", "coeffs": [3.4253170232731796, 0.06108340118024817, -0.00016985724888107358, 4.441259709240837e-07, -3.8951194144019444e-10, -85949758.59070063, 12.50982010332502]}, {"name": "polynomial2", "class": "NASAPolynomial", "Tmin_value": 423.5582142761537, "Tmin_units": "K", "Tmax_value": 3000.0, "Tmax_units": "K", "coeffs": [-1.1025720144815276, 0.06363968334653308, -3.6529917834006736e-05, 1.0171382565296658e-08, -1.1023140222110514e-12, -85949014.39091305, 34.72172491292814]}]

>  <H298_value>  (5) 
-170794.10215544468

>  <H298_units>  (5) 
kcal/mol

>  <S298_value>  (5) 
91.08322998435028

>  <S298_units>  (5) 
cal/(mol*K)

>  <Cp_T_value_list>  (5) 
[30.403344291122735, 38.02335646647825, 45.283107253018876, 51.63681832818749, 61.97355311695585, 69.70377595737135, 81.30176342638504, 87.02207686178811, 89.93579983949942]

>  <Cp_T_units>  (5) 
cal/(mol*K)

>  <T_list>  (5) 
[300.0, 400.0, 500.0, 600.0, 800.0, 1000.0, 1500.0, 2000.0, 2400.0]

>  <T_units>  (5) 
K

>  <yaml_path>  (5) 
/home/calvin/Dropbox/PersonalFolders/Calvin/ATLAS_Converged/rmg_rxn_275/output/Species/rmg_rxn_275_r2_Csbr-CH-sbrOCCC/rmg_rxn_275_r2_Csbr-CH-sbrOCCC.yml

>  <frequencies_cm1>  (5) 
[62.256088911119996, 80.6184076568, 158.02306618384, 168.50208578215998, 182.09871671576, 251.82608565504, 327.37665814568, 441.4441512962, 492.0607000899199, 558.5605859287999, 768.1066429685999, 888.04540856772, 910.1090324008799, 927.2490277595999, 1010.4082199848, 1016.6709105966398, 1099.15027127516, 1117.79413641896, 1151.8612505914798, 1175.63475376932, 1265.93561072732, 1270.30988037616, 1304.10231513588, 1361.4965784404399, 1376.3567346729199, 1400.64526174976, 1406.7843466258398, 1443.5913879410398, 1453.0266257707199, 1468.7451551681997, 1477.39068968608, 1483.24136117872, 1494.41394629436, 1502.4483191187599, 2953.29811054304, 2963.1797024185194, 3009.8614686238802, 3016.1859621035996, 3027.0563998651596, 3039.68478586864, 3061.08231212576, 3087.3485309747603, 3090.2463987797996, 3104.30311772984, 3105.33316552784]

>  <ZPE_kJmol>  (5) 
394.4918275611198

>  <E_elec_kJmol>  (5) 
-715021.3691784083

>  <E0_minus_Eelec_plus_ZPE_kJmol>  (5) 
0.0

>  <rxn>  (5) 
rmg_rxn_275

>  <species_type>  (5) 
r1

>  <species_folder>  (5) 
rmg_rxn_275_r2_Csbr-CH-sbrOCCC

>  <frequencies_cm1_list>  (5) 
[62.256088911119996, 80.6184076568, 158.02306618384, 168.50208578215998, 182.09871671576, 251.82608565504, 327.37665814568, 441.4441512962, 492.0607000899199, 558.5605859287999, 768.1066429685999, 888.04540856772, 910.1090324008799, 927.2490277595999, 1010.4082199848, 1016.6709105966398, 1099.15027127516, 1117.79413641896, 1151.8612505914798, 1175.63475376932, 1265.93561072732, 1270.30988037616, 1304.10231513588, 1361.4965784404399, 1376.3567346729199, 1400.64526174976, 1406.7843466258398, 1443.5913879410398, 1453.0266257707199, 1468.7451551681997, 1477.39068968608, 1483.24136117872, 1494.41394629436, 1502.4483191187599, 2953.29811054304, 2963.1797024185194, 3009.8614686238802, 3016.1859621035996, 3027.0563998651596, 3039.68478586864, 3061.08231212576, 3087.3485309747603, 3090.2463987797996, 3104.30311772984, 3105.33316552784]

>  <E0_kJmol>  (5) 
-714627

>  <H298_kJmol>  (5) 
-714603

$$$$
