
     RDKit          3D

  8  7  0  0  0  0  0  0  0  0999 V2000
   -0.3652   -0.4207   -1.1434 C   0  0  0  0  0  0  0  0  0  1  0  0
   -0.1902   -0.2049    0.3308 C   0  0  0  0  0  0  0  0  0  2  0  0
    0.5878    0.6604    0.8028 N   0  0  0  0  0  0  0  0  0  3  0  0
   -0.1012   -1.4491   -1.4015 H   0  0  0  0  0  0  0  0  0  4  0  0
   -1.4120   -0.2765   -1.4211 H   0  0  0  0  0  0  0  0  0  5  0  0
    0.2593    0.2672   -1.7103 H   0  0  0  0  0  0  0  0  0  6  0  0
   -0.7848   -0.8567    0.9887 H   0  0  0  0  0  0  0  0  0  7  0  0
    0.5032    0.6010    1.8376 H   0  0  0  0  0  0  0  0  0  8  0  0
  1  5  1  0
  1  4  1  0
  1  6  1  0
  1  2  1  0
  2  3  1  0
  2  7  1  0
  3  8  1  0
M  END
>  <rmg_smiles>  (1) 
C[CH][NH]

>  <rmg_adjacency_list>  (1) 
1 N u0 p1 c0 {3,S} {8,S}
2 C u0 p0 c0 {3,S} {4,S} {5,S} {6,S}
3 C u0 p0 c0 {1,S} {2,S} {7,S}
4 H u0 p0 c0 {2,S}
5 H u0 p0 c0 {2,S}
6 H u0 p0 c0 {2,S}
7 H u0 p0 c0 {3,S}
8 H u0 p0 c0 {1,S}


>  <multiplicity>  (1) 
1

>  <reaction>  (1) 
rmg_rxn_16505

>  <type>  (1) 
r1h

>  <role_mapnums>  (1) 
{"r1h_a": 3, "r1h_h": 8}

>  <role_mapidx>  (1) 
{"r1h_a": 2, "r1h_h": 7}

>  <ordered_mapped_smiles>  (1) 
[C:1]([CH:2]([NH:3][H:8])[H:7])([H:4])([H:5])[H:6]

>  <mol_properties>  (1) 
{"2": {"label": "donator", "atom_type": "N3s"}, "7": {"label": "d_hydrogen", "atom_type": "H0"}}

>  <level_of_theory>  (1) 
wb97xd/def2tzvp

>  <lot_method>  (1) 
wb97xd

>  <lot_basis>  (1) 
def2tzvp

>  <spin_multiplicity>  (1) 
1.0

>  <optical_isomers>  (1) 
1.0

>  <modes>  (1) 
IdealGasTranslation(mass=(43.0422, 'amu')),         NonlinearRotor(             inertia = ([9.32783, 51.3348, 57.5531

>  <frequency_value>  (1) 
unknown

>  <frequency_units>  (1) 
unknown

>  <frequency_list>  (1) 
unknown

>  <arkane_path>  (1) 
/home/calvin/Dropbox/PersonalFolders/Calvin/ZEUS_Converged/rmg_rxn_16505/output/Species/rmg_rxn_16505_r1_CC=N/arkane/output.py

>  <path_exists>  (1) 
True

>  <E0_value>  (1) 
-351535.2178216401

>  <E0_units>  (1) 
kJ/mol

>  <thermo_class>  (1) 
NASA

>  <Cp0_value>  (1) 
33.257888

>  <Cp0_units>  (1) 
J/(mol*K)

>  <CpInf_value>  (1) 
182.918384

>  <CpInf_units>  (1) 
J/(mol*K)

>  <Tmin_value>  (1) 
10.0

>  <Tmin_units>  (1) 
K

>  <Tmax_value>  (1) 
3000.0

>  <Tmax_units>  (1) 
K

>  <polynomials>  (1) 
[{"name": "polynomial1", "class": "NASAPolynomial", "Tmin_value": 10.0, "Tmin_units": "K", "Tmax_value": 831.6298378582414, "Tmax_units": "K", "coeffs": [4.02070081303015, 0.001210517666200871, 4.4666366753772916e-05, -5.5131182911679075e-08, 2.0900389197370782e-11, -42279923.42037079, 6.7277893802730935]}, {"name": "polynomial2", "class": "NASAPolynomial", "Tmin_value": 831.6298378582414, "Tmin_units": "K", "Tmax_value": 3000.0, "Tmax_units": "K", "coeffs": [0.8045162847699174, 0.025040156156913407, -1.3394264620224178e-05, 3.500713297045366e-09, -3.591122729761548e-13, -42279677.589017615, 19.912884523329517]}]

>  <H298_value>  (1) 
-84015.86435444608

>  <H298_units>  (1) 
kcal/mol

>  <S298_value>  (1) 
62.662564578751095

>  <S298_units>  (1) 
cal/(mol*K)

>  <Cp_T_value_list>  (1) 
[14.07852409748883, 17.205593206431114, 20.28426687315666, 23.10576343142424, 27.64049922904693, 30.984541340797765, 36.21595739274619, 38.885021155898414, 40.19980465575358]

>  <Cp_T_units>  (1) 
cal/(mol*K)

>  <T_list>  (1) 
[300.0, 400.0, 500.0, 600.0, 800.0, 1000.0, 1500.0, 2000.0, 2400.0]

>  <T_units>  (1) 
K

>  <yaml_path>  (1) 
/home/calvin/Dropbox/PersonalFolders/Calvin/ZEUS_Converged/rmg_rxn_16505/output/Species/rmg_rxn_16505_r1_CC=N/rmg_rxn_16505_r1_CC=N.yml

>  <frequencies_cm1>  (1) 
[186.04723327475998, 490.5774312608, 679.34399072228, 921.5013610467599, 1055.8607958178798, 1069.07287557356, 1129.83882867024, 1266.91072264276, 1378.49923409276, 1424.95438978256, 1456.91333946184, 1463.2378329415599, 1737.56702949024, 2989.2261777372796, 3014.64775739192, 3075.4617793858397, 3123.448272802, 3454.96572309564]

>  <ZPE_kJmol>  (1) 
178.94987819509132

>  <E_elec_kJmol>  (1) 
-351714.16769983515

>  <E0_minus_Eelec_plus_ZPE_kJmol>  (1) 
0.0

>  <rxn>  (1) 
rmg_rxn_16505

>  <species_type>  (1) 
r0

>  <species_folder>  (1) 
rmg_rxn_16505_r1_CC=N

>  <frequencies_cm1_list>  (1) 
[186.04723327475998, 490.5774312608, 679.34399072228, 921.5013610467599, 1055.8607958178798, 1069.07287557356, 1129.83882867024, 1266.91072264276, 1378.49923409276, 1424.95438978256, 1456.91333946184, 1463.2378329415599, 1737.56702949024, 2989.2261777372796, 3014.64775739192, 3075.4617793858397, 3123.448272802, 3454.96572309564]

>  <E0_kJmol>  (1) 
-351535

>  <H298_kJmol>  (1) 
-351522

$$$$

     RDKit          3D

 12 11  0  0  0  0  0  0  0  0999 V2000
    0.0340    1.0946   -1.1623 H   0  0  0  0  0  0  0  0  0  1  0  0
    0.9818   -1.3217   -0.2388 C   0  0  0  0  0  0  0  0  0  2  0  0
    0.8769    0.0340    0.4513 C   0  0  0  0  0  0  0  0  0  3  0  0
   -0.2025    0.9174   -0.1082 C   0  0  0  0  0  0  0  0  0  4  0  0
   -1.4512    0.3105   -0.0325 O   0  0  0  0  0  0  0  0  0  5  0  0
    1.2330   -1.2012   -1.2937 H   0  0  0  0  0  0  0  0  0  6  0  0
    1.7579   -1.9309    0.2261 H   0  0  0  0  0  0  0  0  0  7  0  0
    0.0395   -1.8665   -0.1731 H   0  0  0  0  0  0  0  0  0  8  0  0
    0.6925   -0.1109    1.5225 H   0  0  0  0  0  0  0  0  0  9  0  0
    1.8233    0.5731    0.3648 H   0  0  0  0  0  0  0  0  0 10  0  0
   -0.1981    1.9340    0.2981 H   0  0  0  0  0  0  0  0  0 11  0  0
   -2.1251    0.9495   -0.2685 H   0  0  0  0  0  0  0  0  0 12  0  0
  1  4  1  0
  2  8  1  0
  2  7  1  0
  2  6  1  0
  2  3  1  0
  3  4  1  0
  3  9  1  0
  3 10  1  0
  4 11  1  0
  4  5  1  0
  5 12  1  0
M  END
>  <rmg_smiles>  (2) 
CCCO

>  <rmg_adjacency_list>  (2) 
1  O u0 p2 c0 {3,S} {12,S}
2  C u0 p0 c0 {3,S} {4,S} {5,S} {6,S}
3  C u0 p0 c0 {1,S} {2,S} {7,S} {8,S}
4  C u0 p0 c0 {2,S} {9,S} {10,S} {11,S}
5  H u0 p0 c0 {2,S}
6  H u0 p0 c0 {2,S}
7  H u0 p0 c0 {3,S}
8  H u0 p0 c0 {3,S}
9  H u0 p0 c0 {4,S}
10 H u0 p0 c0 {4,S}
11 H u0 p0 c0 {4,S}
12 H u0 p0 c0 {1,S}


>  <multiplicity>  (2) 
1

>  <reaction>  (2) 
rmg_rxn_16505

>  <type>  (2) 
r2h

>  <role_mapnums>  (2) 
{"r2h_a": 4, "r2h_h": 1}

>  <role_mapidx>  (2) 
{"r2h_a": 3, "r2h_h": 0}

>  <ordered_mapped_smiles>  (2) 
[H:1][C:4]([C:3]([C:2]([H:6])([H:7])[H:8])([H:9])[H:10])([O:5][H:12])[H:11]

>  <mol_properties>  (2) 
{"0": {"label": "a_hydrogen", "atom_type": "H0"}, "3": {"label": "acceptor", "atom_type": "Cs"}}

>  <level_of_theory>  (2) 
wb97xd/def2tzvp

>  <lot_method>  (2) 
wb97xd

>  <lot_basis>  (2) 
def2tzvp

>  <spin_multiplicity>  (2) 
1.0

>  <optical_isomers>  (2) 
2.0

>  <modes>  (2) 
IdealGasTranslation(mass=(60.0575, 'amu')),         NonlinearRotor(             inertia = ([35.1424, 100.065, 117.206

>  <frequency_value>  (2) 
unknown

>  <frequency_units>  (2) 
unknown

>  <frequency_list>  (2) 
unknown

>  <arkane_path>  (2) 
/home/calvin/Dropbox/PersonalFolders/Calvin/ZEUS_Converged/rmg_rxn_16505/output/Species/rmg_rxn_16505_p2_CCCO/arkane/output.py

>  <path_exists>  (2) 
True

>  <E0_value>  (2) 
-510044.1612319261

>  <E0_units>  (2) 
kJ/mol

>  <thermo_class>  (2) 
NASA

>  <Cp0_value>  (2) 
33.257888

>  <Cp0_units>  (2) 
J/(mol*K)

>  <CpInf_value>  (2) 
282.692048

>  <CpInf_units>  (2) 
J/(mol*K)

>  <Tmin_value>  (2) 
10.0

>  <Tmin_units>  (2) 
K

>  <Tmax_value>  (2) 
3000.0

>  <Tmax_units>  (2) 
K

>  <polynomials>  (2) 
[{"name": "polynomial1", "class": "NASAPolynomial", "Tmin_value": 10.0, "Tmin_units": "K", "Tmax_value": 846.6309193938728, "Tmax_units": "K", "coeffs": [3.872097774701738, 0.013345666554551246, 4.415013277136787e-05, -6.075836782335126e-08, 2.3383073067661656e-11, -61344143.92232225, 9.287814408278317]}, {"name": "polynomial2", "class": "NASAPolynomial", "Tmin_value": 846.6309193938728, "Tmin_units": "K", "Tmax_value": 3000.0, "Tmax_units": "K", "coeffs": [0.5209498099841658, 0.039762755770429016, -2.1406145636869936e-05, 5.6291996951626315e-09, -5.806863488298974e-13, -61343955.815359086, 22.65699895976629]}]

>  <H298_value>  (2) 
-121899.45329310188

>  <H298_units>  (2) 
kcal/mol

>  <S298_value>  (2) 
73.11930156339947

>  <S298_units>  (2) 
cal/(mol*K)

>  <Cp_T_value_list>  (2) 
[20.663443471560598, 25.802796904286783, 30.70057248897497, 35.13417722844269, 42.27610612073553, 47.54604838399181, 55.761173617687504, 59.943080131597, 62.009669940758435]

>  <Cp_T_units>  (2) 
cal/(mol*K)

>  <T_list>  (2) 
[300.0, 400.0, 500.0, 600.0, 800.0, 1000.0, 1500.0, 2000.0, 2400.0]

>  <T_units>  (2) 
K

>  <yaml_path>  (2) 
/home/calvin/Dropbox/PersonalFolders/Calvin/ZEUS_Converged/rmg_rxn_16505/output/Species/rmg_rxn_16505_p2_CCCO/rmg_rxn_16505_p2_CCCO.yml

>  <frequencies_cm1>  (2) 
[147.21443129015998, 221.70748804151998, 281.96528422451996, 327.68567248508, 495.52852767651996, 773.66203409248, 866.8264239289199, 907.7811243773999, 991.0089864557999, 1085.4025666645198, 1095.06441500976, 1132.10493382584, 1235.87194899636, 1297.47567430208, 1365.5206318379599, 1374.09062951732, 1401.64784160648, 1415.7594964390798, 1471.3065406925598, 1481.4628119808397, 1492.95814540652, 1498.9667575615201, 2976.8724711465998, 2996.07942908664, 3016.6597840906798, 3038.2633199074, 3059.4823045462003, 3086.4558228831597, 3100.9245609523996, 3838.2877106433593]

>  <ZPE_kJmol>  (2) 
283.9578863328584

>  <E_elec_kJmol>  (2) 
-510328.119118259

>  <E0_minus_Eelec_plus_ZPE_kJmol>  (2) 
0.0

>  <rxn>  (2) 
rmg_rxn_16505

>  <species_type>  (2) 
p1

>  <species_folder>  (2) 
rmg_rxn_16505_p2_CCCO

>  <frequencies_cm1_list>  (2) 
[147.21443129015998, 221.70748804151998, 281.96528422451996, 327.68567248508, 495.52852767651996, 773.66203409248, 866.8264239289199, 907.7811243773999, 991.0089864557999, 1085.4025666645198, 1095.06441500976, 1132.10493382584, 1235.87194899636, 1297.47567430208, 1365.5206318379599, 1374.09062951732, 1401.64784160648, 1415.7594964390798, 1471.3065406925598, 1481.4628119808397, 1492.95814540652, 1498.9667575615201, 2976.8724711465998, 2996.07942908664, 3016.6597840906798, 3038.2633199074, 3059.4823045462003, 3086.4558228831597, 3100.9245609523996, 3838.2877106433593]

>  <E0_kJmol>  (2) 
-510044

>  <H298_kJmol>  (2) 
-510027

$$$$

     RDKit          3D

 19 17  0  0  0  0  0  0  0  0999 V2000
   -0.4753   -0.1370   -3.1843 C   0  0  0  0  0  0  0  0  0  1  0  0
   -0.3004    0.0789   -1.7101 C   0  0  0  0  0  0  0  0  0  2  0  0
    0.4776    0.9442   -1.2382 N   0  0  0  0  0  0  0  0  0  3  0  0
   -0.2114   -1.1653   -3.4424 H   0  0  0  0  0  0  0  0  0  4  0  0
   -1.5222    0.0073   -3.4620 H   0  0  0  0  0  0  0  0  0  5  0  0
    0.1492    0.5510   -3.7513 H   0  0  0  0  0  0  0  0  0  6  0  0
   -0.8949   -0.5729   -1.0523 H   0  0  0  0  0  0  0  0  0  7  0  0
    0.3745    0.8718    0.0238 H   0  0  0  0  0  0  0  0  0  8  0  0
    1.2684   -1.5849    1.1875 C   0  0  0  0  0  0  0  0  0  9  0  0
    1.1636   -0.2292    1.8776 C   0  0  0  0  0  0  0  0  0 10  0  0
    0.0842    0.6543    1.3181 C   0  0  0  0  0  3  0  0  0 11  0  0
   -1.1646    0.0474    1.3938 O   0  0  0  0  0  0  0  0  0 12  0  0
    1.5196   -1.4643    0.1326 H   0  0  0  0  0  0  0  0  0 13  0  0
    2.0445   -2.1940    1.6524 H   0  0  0  0  0  0  0  0  0 14  0  0
    0.3262   -2.1296    1.2532 H   0  0  0  0  0  0  0  0  0 15  0  0
    0.9792   -0.3740    2.9488 H   0  0  0  0  0  0  0  0  0 16  0  0
    2.1100    0.3100    1.7911 H   0  0  0  0  0  0  0  0  0 17  0  0
    0.0886    1.6709    1.7244 H   0  0  0  0  0  0  0  0  0 18  0  0
   -1.8385    0.6864    1.1578 H   0  0  0  0  0  0  0  0  0 19  0  0
  1  5  1  0
  1  4  1  0
  1  6  1  0
  1  2  1  0
  2  3  1  0
  2  7  1  0
  3  8  1  0
  9 10  1  0
  9 14  1  0
  9 15  1  0
  9 13  1  0
 10 16  1  0
 10 17  1  0
 10 11  1  0
 11 12  1  0
 11 18  1  0
 12 19  1  0
M  RAD  1  11   2
M  END
>  <rmg_smiles>  (3) 
CC[CH]O.C[CH][NH]

>  <rmg_adjacency_list>  (3) 
multiplicity 2
1  O u0 p2 c0 {6,S} {19,S}
2  N u0 p1 c0 {7,S} {18,S}
3  C u0 p0 c0 {4,S} {6,S} {8,S} {9,S}
4  C u0 p0 c0 {3,S} {10,S} {11,S} {12,S}
5  C u0 p0 c0 {7,S} {13,S} {14,S} {15,S}
6  C u1 p0 c0 {1,S} {3,S} {17,S}
7  C u0 p0 c0 {2,S} {5,S} {16,S}
8  H u0 p0 c0 {3,S}
9  H u0 p0 c0 {3,S}
10 H u0 p0 c0 {4,S}
11 H u0 p0 c0 {4,S}
12 H u0 p0 c0 {4,S}
13 H u0 p0 c0 {5,S}
14 H u0 p0 c0 {5,S}
15 H u0 p0 c0 {5,S}
16 H u0 p0 c0 {7,S}
17 H u0 p0 c0 {6,S}
18 H u0 p0 c0 {2,S}
19 H u0 p0 c0 {1,S}


>  <multiplicity>  (3) 
2

>  <reaction>  (3) 
rmg_rxn_16505

>  <type>  (3) 
ts

>  <role_mapnums>  (3) 
{"*2": 8, "*1": 3, "*3": 11, "*0": 2, "*4": 10}

>  <role_mapidx>  (3) 
{"*2": 7, "*1": 2, "*3": 10, "*0": 1, "*4": 9}

>  <ordered_mapped_smiles>  (3) 
[C:1]([CH:2]([NH:3][H:8])[H:7])([H:4])([H:5])[H:6].[C:9]([C:10]([C:11]([O:12][H:19])[H:18])([H:16])[H:17])([H:13])([H:14])[H:15]

>  <mol_properties>  (3) 
{"1": {"label": "*0", "atom_type": "Cs"}, "2": {"label": "*1", "atom_type": "N3s"}, "7": {"label": "*2", "atom_type": "H0"}, "9": {"label": "*4", "atom_type": "Cs"}, "10": {"label": "*3", "atom_type": "Cs"}}

>  <level_of_theory>  (3) 
wb97xd/def2tzvp

>  <lot_method>  (3) 
wb97xd

>  <lot_basis>  (3) 
def2tzvp

>  <spin_multiplicity>  (3) 
2.0

>  <optical_isomers>  (3) 
2.0

>  <modes>  (3) 
IdealGasTranslation(mass=(102.092, 'amu')),         NonlinearRotor(             inertia = ([134.686, 408.331, 452.03

>  <frequency_value>  (3) 
-1846.03

>  <frequency_units>  (3) 
cm^-1

>  <frequency_list>  (3) 
unknown

>  <arkane_path>  (3) 
/home/calvin/Dropbox/PersonalFolders/Calvin/ZEUS_Converged/rmg_rxn_16505/output/rxns/TS0/arkane/output.py

>  <path_exists>  (3) 
True

>  <E0_value>  (3) 
-859847.0

>  <E0_units>  (3) 
kJ/mol

>  <thermo_class>  (3) 
unknown

>  <Cp0_value>  (3) 
unknown

>  <Cp0_units>  (3) 
unknown

>  <CpInf_value>  (3) 
unknown

>  <CpInf_units>  (3) 
unknown

>  <Tmin_value>  (3) 
unknown

>  <Tmin_units>  (3) 
unknown

>  <Tmax_value>  (3) 
unknown

>  <Tmax_units>  (3) 
unknown

>  <polynomials>  (3) 
unknown

>  <H298_value>  (3) 
unknown

>  <H298_units>  (3) 
unknown

>  <S298_value>  (3) 
unknown

>  <S298_units>  (3) 
unknown

>  <Cp_T_value_list>  (3) 
unknown

>  <Cp_T_units>  (3) 
unknown

>  <T_list>  (3) 
unknown

>  <T_units>  (3) 
unknown

>  <yaml_path>  (3) 
unknown

>  <frequencies_cm1>  (3) 
unknown

>  <ZPE_kJmol>  (3) 
unknown

>  <E_elec_kJmol>  (3) 
unknown

>  <E0_minus_Eelec_plus_ZPE_kJmol>  (3) 
unknown

>  <rxn>  (3) 
unknown

>  <species_type>  (3) 
unknown

>  <species_folder>  (3) 
unknown

>  <frequencies_cm1_list>  (3) 
[]

>  <ts_imag_freq_cm1>  (3) 
-1868.4534

>  <ts_freq_out_path>  (3) 
/home/calvin/Dropbox/PersonalFolders/Calvin/ZEUS_Converged/rmg_rxn_16505/output/rxns/TS0/geometry/freq.out

>  <E0_kJmol>  (3) 
-859847

>  <H298_kJmol>  (3) 
unknown

$$$$

     RDKit          3D

  7  6  0  0  0  0  0  0  0  0999 V2000
   -0.6441   -0.1356    0.0624 C   0  0  0  0  0  0  0  0  0  1  0  0
    0.8523    0.0148   -0.0333 C   0  0  0  0  0  0  0  0  0  2  0  0
    1.6700   -0.6077    0.6603 N   0  0  0  0  0  2  0  0  0  3  0  0
   -1.0940    0.8275    0.3091 H   0  0  0  0  0  0  0  0  0  4  0  0
   -0.9104   -0.8656    0.8237 H   0  0  0  0  0  0  0  0  0  5  0  0
   -1.0427   -0.4545   -0.9022 H   0  0  0  0  0  0  0  0  0  6  0  0
    1.2362    0.7308   -0.7748 H   0  0  0  0  0  0  0  0  0  7  0  0
  1  5  1  0
  1  4  1  0
  1  6  1  0
  1  2  1  0
  2  3  1  0
  2  7  1  0
M  RAD  1   3   2
M  END
>  <rmg_smiles>  (4) 
C[CH][N]

>  <rmg_adjacency_list>  (4) 
multiplicity 2
1 N u1 p2 c0 {3,S}
2 C u0 p0 c0 {3,S} {4,S} {5,S} {6,S}
3 C u0 p0 c0 {1,S} {2,S} {7,S}
4 H u0 p0 c0 {2,S}
5 H u0 p0 c0 {2,S}
6 H u0 p0 c0 {2,S}
7 H u0 p0 c0 {3,S}


>  <multiplicity>  (4) 
2

>  <reaction>  (4) 
rmg_rxn_16505

>  <type>  (4) 
r1

>  <role_mapnums>  (4) 
{}

>  <role_mapidx>  (4) 
{}

>  <ordered_mapped_smiles>  (4) 
[C:1]([CH:2]([NH:3])[H:7])([H:4])([H:5])[H:6]

>  <level_of_theory>  (4) 
wb97xd/def2tzvp

>  <lot_method>  (4) 
wb97xd

>  <lot_basis>  (4) 
def2tzvp

>  <spin_multiplicity>  (4) 
2.0

>  <optical_isomers>  (4) 
1.0

>  <modes>  (4) 
IdealGasTranslation(mass=(42.0344, 'amu')),         NonlinearRotor(             inertia = ([8.81492, 48.174, 53.8511

>  <frequency_value>  (4) 
unknown

>  <frequency_units>  (4) 
unknown

>  <frequency_list>  (4) 
unknown

>  <arkane_path>  (4) 
/home/calvin/Dropbox/PersonalFolders/Calvin/ZEUS_Converged/rmg_rxn_16505/output/Species/rmg_rxn_16505_p1_CC=sbr-N-sbr/arkane/output.py

>  <path_exists>  (4) 
True

>  <E0_value>  (4) 
-349854.82234455534

>  <E0_units>  (4) 
kJ/mol

>  <thermo_class>  (4) 
NASA

>  <Cp0_value>  (4) 
33.257888

>  <Cp0_units>  (4) 
J/(mol*K)

>  <CpInf_value>  (4) 
157.97496800000002

>  <CpInf_units>  (4) 
J/(mol*K)

>  <Tmin_value>  (4) 
10.0

>  <Tmin_units>  (4) 
K

>  <Tmax_value>  (4) 
3000.0

>  <Tmax_units>  (4) 
K

>  <polynomials>  (4) 
[{"name": "polynomial1", "class": "NASAPolynomial", "Tmin_value": 10.0, "Tmin_units": "K", "Tmax_value": 503.5856077016928, "Tmax_units": "K", "coeffs": [3.976811592049577, 0.0012685228752087534, 4.786155959427562e-05, -7.554553197268183e-08, 3.869280929218241e-11, -42077814.38325793, 7.559402827950991]}, {"name": "polynomial2", "class": "NASAPolynomial", "Tmin_value": 503.5856077016928, "Tmin_units": "K", "Tmax_value": 3000.0, "Tmax_units": "K", "coeffs": [1.4688672877735052, 0.02118998940112054, -1.1479594923736429e-05, 3.0156770231218235e-09, -3.096140671693614e-13, -42077561.800061174, 17.93823402033286]}]

>  <H298_value>  (4) 
-83614.2601862362

>  <H298_units>  (4) 
kcal/mol

>  <S298_value>  (4) 
63.84640386523673

>  <S298_units>  (4) 
cal/(mol*K)

>  <Cp_T_value_list>  (4) 
[13.788413560189577, 16.48922778111735, 18.980945997388957, 21.186536551582613, 24.822448324400693, 27.593007553675324, 31.86535612271467, 33.985319854322825, 35.01227851918305]

>  <Cp_T_units>  (4) 
cal/(mol*K)

>  <T_list>  (4) 
[300.0, 400.0, 500.0, 600.0, 800.0, 1000.0, 1500.0, 2000.0, 2400.0]

>  <T_units>  (4) 
K

>  <yaml_path>  (4) 
/home/calvin/Dropbox/PersonalFolders/Calvin/ZEUS_Converged/rmg_rxn_16505/output/Species/rmg_rxn_16505_p1_CC=sbr-N-sbr/rmg_rxn_16505_p1_CC=sbr-N-sbr.yml

>  <frequencies_cm1>  (4) 
[183.94593576684, 430.87586088872, 744.9511684695599, 909.3948659275999, 1050.2642027820798, 1063.7578289358798, 1237.9320445923597, 1377.0846351168398, 1461.72709617116, 1465.6893467008, 1739.36617964408, 2963.10416558, 3026.2186276561197, 3097.525403219, 3131.35217290532]

>  <ZPE_kJmol>  (4) 
142.8532380575317

>  <E_elec_kJmol>  (4) 
-349997.67558261286

>  <E0_minus_Eelec_plus_ZPE_kJmol>  (4) 
0.0

>  <rxn>  (4) 
rmg_rxn_16505

>  <species_type>  (4) 
p0

>  <species_folder>  (4) 
rmg_rxn_16505_p1_CC=sbr-N-sbr

>  <frequencies_cm1_list>  (4) 
[183.94593576684, 430.87586088872, 744.9511684695599, 909.3948659275999, 1050.2642027820798, 1063.7578289358798, 1237.9320445923597, 1377.0846351168398, 1461.72709617116, 1465.6893467008, 1739.36617964408, 2963.10416558, 3026.2186276561197, 3097.525403219, 3131.35217290532]

>  <E0_kJmol>  (4) 
-349855

>  <H298_kJmol>  (4) 
-349842

$$$$

     RDKit          3D

 11 10  0  0  0  0  0  0  0  0999 V2000
   -1.2539    0.3276   -0.3920 C   0  0  0  0  0  0  0  0  0  1  0  0
   -0.2906   -0.4393    0.5264 C   0  0  0  0  0  0  0  0  0  2  0  0
    1.1244   -0.0144    0.4020 C   0  0  0  0  0  3  0  0  0  3  0  0
    1.3877    1.2382    0.8815 O   0  0  0  0  0  0  0  0  0  4  0  0
   -0.9932    0.1784   -1.4417 H   0  0  0  0  0  0  0  0  0  5  0  0
   -2.2818   -0.0101   -0.2464 H   0  0  0  0  0  0  0  0  0  6  0  0
   -1.2124    1.3968   -0.1817 H   0  0  0  0  0  0  0  0  0  7  0  0
   -0.6088   -0.3094    1.5657 H   0  0  0  0  0  0  0  0  0  8  0  0
   -0.3483   -1.5082    0.3078 H   0  0  0  0  0  0  0  0  0  9  0  0
    1.7380   -0.3574   -0.4276 H   0  0  0  0  0  0  0  0  0 10  0  0
    2.2967    1.4723    0.6918 H   0  0  0  0  0  0  0  0  0 11  0  0
  1  5  1  0
  1  7  1  0
  1  6  1  0
  1  2  1  0
  2  9  1  0
  2  8  1  0
  2  3  1  0
  3  4  1  0
  3 10  1  0
  4 11  1  0
M  RAD  1   3   2
M  END
>  <rmg_smiles>  (5) 
CC[CH]O

>  <rmg_adjacency_list>  (5) 
multiplicity 2
1  O u0 p2 c0 {4,S} {11,S}
2  C u0 p0 c0 {3,S} {4,S} {5,S} {6,S}
3  C u0 p0 c0 {2,S} {7,S} {8,S} {9,S}
4  C u1 p0 c0 {1,S} {2,S} {10,S}
5  H u0 p0 c0 {2,S}
6  H u0 p0 c0 {2,S}
7  H u0 p0 c0 {3,S}
8  H u0 p0 c0 {3,S}
9  H u0 p0 c0 {3,S}
10 H u0 p0 c0 {4,S}
11 H u0 p0 c0 {1,S}


>  <multiplicity>  (5) 
2

>  <reaction>  (5) 
rmg_rxn_16505

>  <type>  (5) 
r2

>  <role_mapnums>  (5) 
{}

>  <role_mapidx>  (5) 
{}

>  <ordered_mapped_smiles>  (5) 
[C:1]([C:2]([C:3]([O:4][H:11])[H:10])([H:8])[H:9])([H:5])([H:6])[H:7]

>  <level_of_theory>  (5) 
wb97xd/def2tzvp

>  <lot_method>  (5) 
wb97xd

>  <lot_basis>  (5) 
def2tzvp

>  <spin_multiplicity>  (5) 
2.0

>  <optical_isomers>  (5) 
2.0

>  <modes>  (5) 
IdealGasTranslation(mass=(59.0497, 'amu')),         NonlinearRotor(             inertia = ([30.0564, 102.615, 116.291

>  <frequency_value>  (5) 
unknown

>  <frequency_units>  (5) 
unknown

>  <frequency_list>  (5) 
unknown

>  <arkane_path>  (5) 
/home/calvin/Dropbox/PersonalFolders/Calvin/ZEUS_Converged/rmg_rxn_16505/output/Species/rmg_rxn_16505_r2_CCsbr-CH-sbrO/arkane/output.py

>  <path_exists>  (5) 
True

>  <E0_value>  (5) 
-508343.2143092861

>  <E0_units>  (5) 
kJ/mol

>  <thermo_class>  (5) 
NASA

>  <Cp0_value>  (5) 
33.257888

>  <Cp0_units>  (5) 
J/(mol*K)

>  <CpInf_value>  (5) 
257.748632

>  <CpInf_units>  (5) 
J/(mol*K)

>  <Tmin_value>  (5) 
10.0

>  <Tmin_units>  (5) 
K

>  <Tmax_value>  (5) 
3000.0

>  <Tmax_units>  (5) 
K

>  <polynomials>  (5) 
[{"name": "polynomial1", "class": "NASAPolynomial", "Tmin_value": 10.0, "Tmin_units": "K", "Tmax_value": 494.18064971781826, "Tmax_units": "K", "coeffs": [3.8264140254887606, 0.014666124374534536, 4.719211860272479e-05, -8.635009308609564e-08, 4.6029234010925446e-11, -61139564.00272207, 10.134133797394384]}, {"name": "polynomial2", "class": "NASAPolynomial", "Tmin_value": 494.18064971781826, "Tmin_units": "K", "Tmax_value": 3000.0, "Tmax_units": "K", "coeffs": [1.04291542363084, 0.0371964977543738, -2.1195430290309097e-05, 5.907722905138246e-09, -6.432126668919216e-13, -61139288.894472934, 21.60092498507134]}]

>  <H298_value>  (5) 
-121492.84707652304

>  <H298_units>  (5) 
kcal/mol

>  <S298_value>  (5) 
74.97439774853493

>  <S298_units>  (5) 
cal/(mol*K)

>  <Cp_T_value_list>  (5) 
[20.89532988902345, 25.62611122482154, 29.888721064860395, 33.6298273949556, 39.7368418605926, 44.33158256640444, 51.330029952045756, 54.895725769694174, 56.74853766097793]

>  <Cp_T_units>  (5) 
cal/(mol*K)

>  <T_list>  (5) 
[300.0, 400.0, 500.0, 600.0, 800.0, 1000.0, 1500.0, 2000.0, 2400.0]

>  <T_units>  (5) 
K

>  <yaml_path>  (5) 
/home/calvin/Dropbox/PersonalFolders/Calvin/ZEUS_Converged/rmg_rxn_16505/output/Species/rmg_rxn_16505_r2_CCsbr-CH-sbrO/rmg_rxn_16505_r2_CCsbr-CH-sbrO.yml

>  <frequencies_cm1>  (5) 
[111.245162184, 221.74182296812, 277.67341839951996, 370.39832117548, 478.1344538609599, 606.1693951523599, 782.28010066908, 883.4719963445999, 996.9832636841999, 1051.8298754350399, 1085.0729513691601, 1216.87100061592, 1239.7517957021598, 1312.6723128152398, 1331.6663942103598, 1387.1791035372398, 1443.7081266914797, 1460.35369910716, 1481.7306244083202, 1491.6328172397598, 3008.8176868552396, 3013.3910990783597, 3057.5458146859596, 3085.37770618792, 3099.79837535992, 3107.33832524128, 3862.7685133091595]

>  <ZPE_kJmol>  (5) 
248.01946210813009

>  <E_elec_kJmol>  (5) 
-508591.2337713942

>  <E0_minus_Eelec_plus_ZPE_kJmol>  (5) 
0.0

>  <rxn>  (5) 
rmg_rxn_16505

>  <species_type>  (5) 
r1

>  <species_folder>  (5) 
rmg_rxn_16505_r2_CCsbr-CH-sbrO

>  <frequencies_cm1_list>  (5) 
[111.245162184, 221.74182296812, 277.67341839951996, 370.39832117548, 478.1344538609599, 606.1693951523599, 782.28010066908, 883.4719963445999, 996.9832636841999, 1051.8298754350399, 1085.0729513691601, 1216.87100061592, 1239.7517957021598, 1312.6723128152398, 1331.6663942103598, 1387.1791035372398, 1443.7081266914797, 1460.35369910716, 1481.7306244083202, 1491.6328172397598, 3008.8176868552396, 3013.3910990783597, 3057.5458146859596, 3085.37770618792, 3099.79837535992, 3107.33832524128, 3862.7685133091595]

>  <E0_kJmol>  (5) 
-508343

>  <H298_kJmol>  (5) 
-508326

$$$$
