
     RDKit          3D

 13 12  0  0  0  0  0  0  0  0999 V2000
    1.6485    0.4239   -0.2437 N   0  0  0  0  0  0  0  0  0  1  0  0
    0.7509    0.8128    0.6154 N   0  0  0  0  0  0  0  0  0  2  0  0
   -0.4124    0.2705    0.8688 C   0  0  0  0  0  0  0  0  0  3  0  0
   -0.8527   -0.9459    0.1376 C   0  0  0  0  0  0  0  0  0  4  0  0
   -1.2617   -0.6675   -1.3137 C   0  0  0  0  0  0  0  0  0  5  0  0
    2.4177    1.1043   -0.0794 H   0  0  0  0  0  0  0  0  0  6  0  0
    0.9828    1.6609    1.1484 H   0  0  0  0  0  0  0  0  0  7  0  0
   -1.0121    0.7717    1.6130 H   0  0  0  0  0  0  0  0  0  8  0  0
   -1.6834   -1.4022    0.6785 H   0  0  0  0  0  0  0  0  0  9  0  0
   -0.0258   -1.6655    0.1357 H   0  0  0  0  0  0  0  0  0 10  0  0
   -0.4328   -0.2161   -1.8598 H   0  0  0  0  0  0  0  0  0 11  0  0
   -2.1152    0.0115   -1.3549 H   0  0  0  0  0  0  0  0  0 12  0  0
   -1.5381   -1.5940   -1.8195 H   0  0  0  0  0  0  0  0  0 13  0  0
  1  2  1  0
  1  6  1  0
  2  3  1  0
  2  7  1  0
  3  4  1  0
  3  8  1  0
  4  5  1  0
  4  9  1  0
  4 10  1  0
  5 11  1  0
  5 12  1  0
  5 13  1  0
M  END
>  <rmg_smiles>  (1) 
CC[CH]N[NH]

>  <rmg_adjacency_list>  (1) 
1  N u0 p1 c0 {2,S} {5,S} {12,S}
2  N u0 p1 c0 {1,S} {13,S}
3  C u0 p0 c0 {4,S} {5,S} {6,S} {7,S}
4  C u0 p0 c0 {3,S} {8,S} {9,S} {10,S}
5  C u0 p0 c0 {1,S} {3,S} {11,S}
6  H u0 p0 c0 {3,S}
7  H u0 p0 c0 {3,S}
8  H u0 p0 c0 {4,S}
9  H u0 p0 c0 {4,S}
10 H u0 p0 c0 {4,S}
11 H u0 p0 c0 {5,S}
12 H u0 p0 c0 {1,S}
13 H u0 p0 c0 {2,S}


>  <multiplicity>  (1) 
1

>  <reaction>  (1) 
rmg_rxn_2543

>  <type>  (1) 
r1h

>  <role_mapnums>  (1) 
{"r1h_a": 1, "r1h_h": 6}

>  <role_mapidx>  (1) 
{"r1h_a": 0, "r1h_h": 5}

>  <ordered_mapped_smiles>  (1) 
[NH:1]([N:2]([CH:3]([C:4]([C:5]([H:11])([H:12])[H:13])([H:9])[H:10])[H:8])[H:7])[H:6]

>  <mol_properties>  (1) 
{"0": {"label": "donator", "atom_type": "N3s"}, "5": {"label": "d_hydrogen", "atom_type": "H0"}}

>  <level_of_theory>  (1) 
wb97xd/def2tzvp

>  <lot_method>  (1) 
wb97xd

>  <lot_basis>  (1) 
def2tzvp

>  <spin_multiplicity>  (1) 
1.0

>  <optical_isomers>  (1) 
2.0

>  <modes>  (1) 
IdealGasTranslation(mass=(72.0687, 'amu')),         NonlinearRotor(             inertia = ([54.1798, 139.96, 170.595

>  <frequency_value>  (1) 
unknown

>  <frequency_units>  (1) 
unknown

>  <frequency_list>  (1) 
unknown

>  <arkane_path>  (1) 
/home/calvin/Dropbox/PersonalFolders/Calvin/ATLAS_Converged/rmg_rxn_2543/output/Species/rmg_rxn_2543_r1_sbr-NH--sbrsbr-NHp-sbr=CCC/arkane/output.py

>  <path_exists>  (1) 
True

>  <E0_value>  (1) 
-599821.0790303417

>  <E0_units>  (1) 
kJ/mol

>  <thermo_class>  (1) 
NASA

>  <Cp0_value>  (1) 
33.257888

>  <Cp0_units>  (1) 
J/(mol*K)

>  <CpInf_value>  (1) 
307.635464

>  <CpInf_units>  (1) 
J/(mol*K)

>  <Tmin_value>  (1) 
10.0

>  <Tmin_units>  (1) 
K

>  <Tmax_value>  (1) 
3000.0

>  <Tmax_units>  (1) 
K

>  <polynomials>  (1) 
[{"name": "polynomial1", "class": "NASAPolynomial", "Tmin_value": 10.0, "Tmin_units": "K", "Tmax_value": 474.62100371348544, "Tmax_units": "K", "coeffs": [3.863855633630711, 0.011851722313415683, 8.535210099928715e-05, -1.5102960252155107e-07, 8.284035082151498e-11, -72141810.52784279, 10.255640547811005]}, {"name": "polynomial2", "class": "NASAPolynomial", "Tmin_value": 474.62100371348544, "Tmin_units": "K", "Tmax_value": 3000.0, "Tmax_units": "K", "coeffs": [-0.3841308393730185, 0.04765291504748579, -2.7794922536047773e-05, 7.900533067068031e-09, -8.741403182726763e-13, -72141407.29235935, 27.583942845321094]}]

>  <H298_value>  (1) 
-143356.35915096157

>  <H298_units>  (1) 
kcal/mol

>  <S298_value>  (1) 
76.35059111278113

>  <S298_units>  (1) 
cal/(mol*K)

>  <Cp_T_value_list>  (1) 
[23.23892736316884, 29.24313299420859, 34.630111546699624, 39.33610214134865, 46.97055843208524, 52.66147786212228, 61.1972756717267, 65.4983830173624, 67.76215740722176]

>  <Cp_T_units>  (1) 
cal/(mol*K)

>  <T_list>  (1) 
[300.0, 400.0, 500.0, 600.0, 800.0, 1000.0, 1500.0, 2000.0, 2400.0]

>  <T_units>  (1) 
K

>  <yaml_path>  (1) 
/home/calvin/Dropbox/PersonalFolders/Calvin/ATLAS_Converged/rmg_rxn_2543/output/Species/rmg_rxn_2543_r1_sbr-NH--sbrsbr-NHp-sbr=CCC/rmg_rxn_2543_r1_sbr-NH--sbrsbr-NHp-sbr=CCC.yml

>  <frequencies_cm1>  (1) 
[136.9620222074, 209.61472689299998, 254.75142140136, 308.30703991204, 470.9447202309199, 604.68612632324, 687.9689242841999, 696.47711909568, 805.7651904634799, 897.4737794120799, 920.54685008728, 1021.0932491427199, 1079.8334415699999, 1128.5341014594399, 1155.1642705303998, 1288.91941059336, 1343.4638749901198, 1373.9807577522, 1387.87266905456, 1398.0289403428399, 1456.3021777683598, 1482.71260330908, 1494.942704164, 1535.7257299794799, 1699.6338025825598, 3005.54900184292, 3019.50958299848, 3066.781909941359, 3090.26699973576, 3110.5040054737997, 3206.03750524564, 3439.3227305366795, 3491.6972275723197]

>  <ZPE_kJmol>  (1) 
300.6777184772831

>  <E_elec_kJmol>  (1) 
-600121.756748819

>  <E0_minus_Eelec_plus_ZPE_kJmol>  (1) 
0.0

>  <rxn>  (1) 
rmg_rxn_2543

>  <species_type>  (1) 
r0

>  <species_folder>  (1) 
rmg_rxn_2543_r1_sbr-NH--sbrsbr-NHp-sbr=CCC

>  <frequencies_cm1_list>  (1) 
[136.9620222074, 209.61472689299998, 254.75142140136, 308.30703991204, 470.9447202309199, 604.68612632324, 687.9689242841999, 696.47711909568, 805.7651904634799, 897.4737794120799, 920.54685008728, 1021.0932491427199, 1079.8334415699999, 1128.5341014594399, 1155.1642705303998, 1288.91941059336, 1343.4638749901198, 1373.9807577522, 1387.87266905456, 1398.0289403428399, 1456.3021777683598, 1482.71260330908, 1494.942704164, 1535.7257299794799, 1699.6338025825598, 3005.54900184292, 3019.50958299848, 3066.781909941359, 3090.26699973576, 3110.5040054737997, 3206.03750524564, 3439.3227305366795, 3491.6972275723197]

>  <E0_kJmol>  (1) 
-599821

>  <H298_kJmol>  (1) 
-599803

$$$$

     RDKit          3D

 15 14  0  0  0  0  0  0  0  0999 V2000
    0.9611   -2.5135   -0.5944 H   0  0  0  0  0  0  0  0  0  1  0  0
    1.4937   -1.6478   -0.2008 C   0  0  0  0  0  0  0  0  0  2  0  0
    0.5308   -0.7688    0.2687 O   0  0  0  0  0  0  0  0  0  3  0  0
   -0.1166   -0.0304   -0.7599 C   0  0  0  0  0  0  0  0  0  4  0  0
   -1.2487    0.7734   -0.1592 C   0  0  0  0  0  0  0  0  0  5  0  0
   -0.7857    1.8050    0.8607 C   0  0  0  0  0  0  0  0  0  6  0  0
    2.1011   -2.0028    0.6281 H   0  0  0  0  0  0  0  0  0  7  0  0
    2.0780   -1.2540   -1.0360 H   0  0  0  0  0  0  0  0  0  8  0  0
   -0.4907   -0.7254   -1.5205 H   0  0  0  0  0  0  0  0  0  9  0  0
    0.6197    0.6301   -1.2357 H   0  0  0  0  0  0  0  0  0 10  0  0
   -1.9657    0.0846    0.2976 H   0  0  0  0  0  0  0  0  0 11  0  0
   -1.7749    1.2656   -0.9813 H   0  0  0  0  0  0  0  0  0 12  0  0
   -1.6311    2.3668    1.2595 H   0  0  0  0  0  0  0  0  0 13  0  0
   -0.2719    1.3266    1.6947 H   0  0  0  0  0  0  0  0  0 14  0  0
   -0.0940    2.5179    0.4060 H   0  0  0  0  0  0  0  0  0 15  0  0
  1  2  1  0
  2  8  1  0
  2  7  1  0
  2  3  1  0
  3  4  1  0
  4  5  1  0
  4  9  1  0
  4 10  1  0
  5 11  1  0
  5 12  1  0
  5  6  1  0
  6 15  1  0
  6 14  1  0
  6 13  1  0
M  END
>  <rmg_smiles>  (2) 
CCCOC

>  <rmg_adjacency_list>  (2) 
1  O u0 p2 c0 {3,S} {5,S}
2  C u0 p0 c0 {3,S} {4,S} {6,S} {7,S}
3  C u0 p0 c0 {1,S} {2,S} {8,S} {9,S}
4  C u0 p0 c0 {2,S} {10,S} {11,S} {12,S}
5  C u0 p0 c0 {1,S} {13,S} {14,S} {15,S}
6  H u0 p0 c0 {2,S}
7  H u0 p0 c0 {2,S}
8  H u0 p0 c0 {3,S}
9  H u0 p0 c0 {3,S}
10 H u0 p0 c0 {4,S}
11 H u0 p0 c0 {4,S}
12 H u0 p0 c0 {4,S}
13 H u0 p0 c0 {5,S}
14 H u0 p0 c0 {5,S}
15 H u0 p0 c0 {5,S}


>  <multiplicity>  (2) 
1

>  <reaction>  (2) 
rmg_rxn_2543

>  <type>  (2) 
r2h

>  <role_mapnums>  (2) 
{"r2h_a": 2, "r2h_h": 1}

>  <role_mapidx>  (2) 
{"r2h_a": 1, "r2h_h": 0}

>  <ordered_mapped_smiles>  (2) 
[H:1][C:2]([O:3][C:4]([C:5]([C:6]([H:13])([H:14])[H:15])([H:11])[H:12])([H:9])[H:10])([H:7])[H:8]

>  <mol_properties>  (2) 
{"0": {"label": "a_hydrogen", "atom_type": "H0"}, "1": {"label": "acceptor", "atom_type": "Cs"}}

>  <level_of_theory>  (2) 
wb97xd/def2tzvp

>  <lot_method>  (2) 
wb97xd

>  <lot_basis>  (2) 
def2tzvp

>  <spin_multiplicity>  (2) 
1.0

>  <optical_isomers>  (2) 
2.0

>  <modes>  (2) 
IdealGasTranslation(mass=(74.0732, 'amu')),         NonlinearRotor(             inertia = ([40.784, 192.218, 211.735

>  <frequency_value>  (2) 
unknown

>  <frequency_units>  (2) 
unknown

>  <frequency_list>  (2) 
unknown

>  <arkane_path>  (2) 
/home/calvin/Dropbox/PersonalFolders/Calvin/ATLAS_Converged/rmg_rxn_2543/output/Species/rmg_rxn_2543_p2_CCCOC/arkane/output.py

>  <path_exists>  (2) 
True

>  <E0_value>  (2) 
-613163.1274347997

>  <E0_units>  (2) 
kJ/mol

>  <thermo_class>  (2) 
NASA

>  <Cp0_value>  (2) 
33.257888

>  <Cp0_units>  (2) 
J/(mol*K)

>  <CpInf_value>  (2) 
357.522296

>  <CpInf_units>  (2) 
J/(mol*K)

>  <Tmin_value>  (2) 
10.0

>  <Tmin_units>  (2) 
K

>  <Tmax_value>  (2) 
3000.0

>  <Tmax_units>  (2) 
K

>  <polynomials>  (2) 
[{"name": "polynomial1", "class": "NASAPolynomial", "Tmin_value": 10.0, "Tmin_units": "K", "Tmax_value": 456.12277018744567, "Tmax_units": "K", "coeffs": [3.622226901022252, 0.03879872355210146, -8.360315445704422e-05, 2.4524502933094215e-07, -2.1872936534136321e-10, -73746489.62868527, 10.515620099564817]}, {"name": "polynomial2", "class": "NASAPolynomial", "Tmin_value": 456.12277018744567, "Tmin_units": "K", "Tmax_value": 3000.0, "Tmax_units": "K", "coeffs": [-2.209364299375013, 0.05648500157757207, -3.174874691312015e-05, 8.654192472156478e-09, -9.19837106274248e-13, -73745609.63979425, 37.886729471141834]}]

>  <H298_value>  (2) 
-146544.64412103067

>  <H298_units>  (2) 
kcal/mol

>  <S298_value>  (2) 
80.94643116904645

>  <S298_units>  (2) 
cal/(mol*K)

>  <Cp_T_value_list>  (2) 
[25.013898236577287, 31.519920382574806, 37.99585330660428, 43.722879986859475, 53.0854797360422, 60.13534424358971, 70.81347124398386, 76.07383642339944, 78.69223762627242]

>  <Cp_T_units>  (2) 
cal/(mol*K)

>  <T_list>  (2) 
[300.0, 400.0, 500.0, 600.0, 800.0, 1000.0, 1500.0, 2000.0, 2400.0]

>  <T_units>  (2) 
K

>  <yaml_path>  (2) 
/home/calvin/Dropbox/PersonalFolders/Calvin/ATLAS_Converged/rmg_rxn_2543/output/Species/rmg_rxn_2543_p2_CCCOC/rmg_rxn_2543_p2_CCCOC.yml

>  <frequencies_cm1>  (2) 
[91.63991909539999, 126.95682459615999, 202.90568223536002, 229.57705321824, 300.01172164547995, 354.24717170284, 509.2281633899199, 764.38473692516, 888.9449836446399, 924.72884414716, 957.6835066978399, 1072.9458552940398, 1116.4482072962398, 1154.8758571469598, 1177.0081508333199, 1188.20133690492, 1229.14230338276, 1271.07211574668, 1307.65941353164, 1369.5858871474, 1403.3027850685999, 1415.972372984, 1467.6807724436, 1468.9442977424796, 1475.31686011944, 1481.9915698504797, 1490.39675988216, 1494.07059702836, 1510.75737135596, 2928.3984217727198, 2950.9908034755194, 2962.18398954712, 2998.10518975604, 3014.75762915704, 3020.7181724148, 3057.78615917216, 3085.0274899366, 3099.33828734348, 3104.91427942332]

>  <ZPE_kJmol>  (2) 
356.8934095365274

>  <E_elec_kJmol>  (2) 
-613520.0208443362

>  <E0_minus_Eelec_plus_ZPE_kJmol>  (2) 
0.0

>  <rxn>  (2) 
rmg_rxn_2543

>  <species_type>  (2) 
p1

>  <species_folder>  (2) 
rmg_rxn_2543_p2_CCCOC

>  <frequencies_cm1_list>  (2) 
[91.63991909539999, 126.95682459615999, 202.90568223536002, 229.57705321824, 300.01172164547995, 354.24717170284, 509.2281633899199, 764.38473692516, 888.9449836446399, 924.72884414716, 957.6835066978399, 1072.9458552940398, 1116.4482072962398, 1154.8758571469598, 1177.0081508333199, 1188.20133690492, 1229.14230338276, 1271.07211574668, 1307.65941353164, 1369.5858871474, 1403.3027850685999, 1415.972372984, 1467.6807724436, 1468.9442977424796, 1475.31686011944, 1481.9915698504797, 1490.39675988216, 1494.07059702836, 1510.75737135596, 2928.3984217727198, 2950.9908034755194, 2962.18398954712, 2998.10518975604, 3014.75762915704, 3020.7181724148, 3057.78615917216, 3085.0274899366, 3099.33828734348, 3104.91427942332]

>  <E0_kJmol>  (2) 
-613163

>  <H298_kJmol>  (2) 
-613143

$$$$

     RDKit          3D

 27 25  0  0  0  0  0  0  0  0999 V2000
    0.8211   -1.6143   -0.5986 N   0  0  0  0  0  0  0  0  0  1  0  0
   -0.0765   -1.2254    0.2605 N   0  0  0  0  0  0  0  0  0  2  0  0
   -1.2398   -1.7677    0.5139 C   0  0  0  0  0  0  0  0  0  3  0  0
   -1.6801   -2.9841   -0.2173 C   0  0  0  0  0  0  0  0  0  4  0  0
   -2.0891   -2.7057   -1.6685 C   0  0  0  0  0  0  0  0  0  5  0  0
    1.7447   -0.7973   -0.4013 H   0  0  0  0  0  0  0  0  0  6  0  0
    0.1555   -0.3773    0.7936 H   0  0  0  0  0  0  0  0  0  7  0  0
   -1.8395   -1.2665    1.2581 H   0  0  0  0  0  0  0  0  0  8  0  0
   -2.5108   -3.4404    0.3236 H   0  0  0  0  0  0  0  0  0  9  0  0
   -0.8532   -3.7036   -0.2192 H   0  0  0  0  0  0  0  0  0 10  0  0
   -1.2602   -2.2543   -2.2147 H   0  0  0  0  0  0  0  0  0 11  0  0
   -2.9426   -2.0267   -1.7097 H   0  0  0  0  0  0  0  0  0 12  0  0
   -2.3655   -3.6322   -2.1744 H   0  0  0  0  0  0  0  0  0 13  0  0
    2.4077    0.2801    0.0886 C   0  0  0  0  0  3  0  0  0 14  0  0
    1.4447    1.1591    0.5581 O   0  0  0  0  0  0  0  0  0 15  0  0
    0.7974    1.8975   -0.4706 C   0  0  0  0  0  0  0  0  0 16  0  0
   -0.3348    2.7014    0.1301 C   0  0  0  0  0  0  0  0  0 17  0  0
    0.1283    3.7329    1.1501 C   0  0  0  0  0  0  0  0  0 18  0  0
    3.0150   -0.0749    0.9174 H   0  0  0  0  0  0  0  0  0 19  0  0
    2.9919    0.6739   -0.7466 H   0  0  0  0  0  0  0  0  0 20  0  0
    0.4232    1.2026   -1.2311 H   0  0  0  0  0  0  0  0  0 21  0  0
    1.5336    2.5580   -0.9464 H   0  0  0  0  0  0  0  0  0 22  0  0
   -1.0518    2.0126    0.5869 H   0  0  0  0  0  0  0  0  0 23  0  0
   -0.8610    3.1935   -0.6919 H   0  0  0  0  0  0  0  0  0 24  0  0
   -0.7172    4.2947    1.5489 H   0  0  0  0  0  0  0  0  0 25  0  0
    0.6421    3.2546    1.9841 H   0  0  0  0  0  0  0  0  0 26  0  0
    0.8199    4.4459    0.6953 H   0  0  0  0  0  0  0  0  0 27  0  0
  1  2  1  0
  1  6  1  0
  2  7  1  0
  2  3  1  0
  3  4  1  0
  3  8  1  0
  4 10  1  0
  4  9  1  0
  4  5  1  0
  5 12  1  0
  5 11  1  0
  5 13  1  0
 14 19  1  0
 14 20  1  0
 14 15  1  0
 15 16  1  0
 16 21  1  0
 16 22  1  0
 16 17  1  0
 17 18  1  0
 17 23  1  0
 17 24  1  0
 18 25  1  0
 18 27  1  0
 18 26  1  0
M  RAD  1  14   2
M  END
>  <rmg_smiles>  (3) 
CC[CH]N[NH].CCCO[CH2]

>  <rmg_adjacency_list>  (3) 
multiplicity 2
1  O u0 p2 c0 {6,S} {10,S}
2  N u0 p1 c0 {3,S} {9,S} {24,S}
3  N u0 p1 c0 {2,S} {27,S}
4  C u0 p0 c0 {6,S} {7,S} {11,S} {12,S}
5  C u0 p0 c0 {8,S} {9,S} {13,S} {14,S}
6  C u0 p0 c0 {1,S} {4,S} {15,S} {16,S}
7  C u0 p0 c0 {4,S} {20,S} {21,S} {22,S}
8  C u0 p0 c0 {5,S} {17,S} {18,S} {19,S}
9  C u0 p0 c0 {2,S} {5,S} {23,S}
10 C u1 p0 c0 {1,S} {25,S} {26,S}
11 H u0 p0 c0 {4,S}
12 H u0 p0 c0 {4,S}
13 H u0 p0 c0 {5,S}
14 H u0 p0 c0 {5,S}
15 H u0 p0 c0 {6,S}
16 H u0 p0 c0 {6,S}
17 H u0 p0 c0 {8,S}
18 H u0 p0 c0 {8,S}
19 H u0 p0 c0 {8,S}
20 H u0 p0 c0 {7,S}
21 H u0 p0 c0 {7,S}
22 H u0 p0 c0 {7,S}
23 H u0 p0 c0 {9,S}
24 H u0 p0 c0 {2,S}
25 H u0 p0 c0 {10,S}
26 H u0 p0 c0 {10,S}
27 H u0 p0 c0 {3,S}


>  <multiplicity>  (3) 
2

>  <reaction>  (3) 
rmg_rxn_2543

>  <type>  (3) 
ts

>  <role_mapnums>  (3) 
{"*2": 6, "*1": 1, "*3": 14, "*0": 2, "*4": 15}

>  <role_mapidx>  (3) 
{"*2": 5, "*1": 0, "*3": 13, "*0": 1, "*4": 14}

>  <ordered_mapped_smiles>  (3) 
[NH:1]([N:2]([CH:3]([C:4]([C:5]([H:11])([H:12])[H:13])([H:9])[H:10])[H:8])[H:7])[H:6].[C:14]([O:15][C:16]([C:17]([C:18]([H:25])([H:26])[H:27])([H:23])[H:24])([H:21])[H:22])([H:19])[H:20]

>  <mol_properties>  (3) 
{"0": {"label": "*1", "atom_type": "N3s"}, "1": {"label": "*0", "atom_type": "N3s"}, "5": {"label": "*2", "atom_type": "H0"}, "13": {"label": "*3", "atom_type": "Cs"}, "14": {"label": "*4", "atom_type": "O2s"}}

>  <level_of_theory>  (3) 
wb97xd/def2tzvp

>  <lot_method>  (3) 
wb97xd

>  <lot_basis>  (3) 
def2tzvp

>  <spin_multiplicity>  (3) 
2.0

>  <optical_isomers>  (3) 
2.0

>  <modes>  (3) 
IdealGasTranslation(mass=(145.134, 'amu')),         NonlinearRotor(             inertia = ([254.631, 915.16, 1042.66

>  <frequency_value>  (3) 
-1828.15

>  <frequency_units>  (3) 
cm^-1

>  <frequency_list>  (3) 
unknown

>  <arkane_path>  (3) 
/home/calvin/Dropbox/PersonalFolders/Calvin/ATLAS_Converged/rmg_rxn_2543/output/rxns/TS0/arkane/output.py

>  <path_exists>  (3) 
True

>  <E0_value>  (3) 
-1211250.0

>  <E0_units>  (3) 
kJ/mol

>  <thermo_class>  (3) 
unknown

>  <Cp0_value>  (3) 
unknown

>  <Cp0_units>  (3) 
unknown

>  <CpInf_value>  (3) 
unknown

>  <CpInf_units>  (3) 
unknown

>  <Tmin_value>  (3) 
unknown

>  <Tmin_units>  (3) 
unknown

>  <Tmax_value>  (3) 
unknown

>  <Tmax_units>  (3) 
unknown

>  <polynomials>  (3) 
unknown

>  <H298_value>  (3) 
unknown

>  <H298_units>  (3) 
unknown

>  <S298_value>  (3) 
unknown

>  <S298_units>  (3) 
unknown

>  <Cp_T_value_list>  (3) 
unknown

>  <Cp_T_units>  (3) 
unknown

>  <T_list>  (3) 
unknown

>  <T_units>  (3) 
unknown

>  <yaml_path>  (3) 
unknown

>  <frequencies_cm1>  (3) 
unknown

>  <ZPE_kJmol>  (3) 
unknown

>  <E_elec_kJmol>  (3) 
unknown

>  <E0_minus_Eelec_plus_ZPE_kJmol>  (3) 
unknown

>  <rxn>  (3) 
unknown

>  <species_type>  (3) 
unknown

>  <species_folder>  (3) 
unknown

>  <frequencies_cm1_list>  (3) 
[]

>  <ts_imag_freq_cm1>  (3) 
-1850.3521

>  <ts_freq_out_path>  (3) 
/home/calvin/Dropbox/PersonalFolders/Calvin/ATLAS_Converged/rmg_rxn_2543/output/rxns/TS0/geometry/freq.out

>  <E0_kJmol>  (3) 
-1.21125e+06

>  <H298_kJmol>  (3) 
unknown

$$$$

     RDKit          3D

 12 11  0  0  0  0  0  0  0  0999 V2000
    1.5035    1.1817    1.1767 N   0  0  0  0  0  2  0  0  0  1  0  0
    1.5580   -0.0511    0.8125 N   0  0  0  0  0  0  0  0  0  2  0  0
    0.8482   -0.7137   -0.0804 C   0  0  0  0  0  0  0  0  0  3  0  0
   -0.2212   -0.0125   -0.8376 C   0  0  0  0  0  0  0  0  0  4  0  0
   -1.4527    0.3302    0.0094 C   0  0  0  0  0  0  0  0  0  5  0  0
    2.2746   -0.5859    1.3051 H   0  0  0  0  0  0  0  0  0  6  0  0
    1.0804   -1.7613   -0.1832 H   0  0  0  0  0  0  0  0  0  7  0  0
    0.1929    0.9174   -1.2475 H   0  0  0  0  0  0  0  0  0  8  0  0
   -0.5138   -0.6336   -1.6852 H   0  0  0  0  0  0  0  0  0  9  0  0
   -1.1741    0.9508    0.8624 H   0  0  0  0  0  0  0  0  0 10  0  0
   -2.1844    0.8814   -0.5833 H   0  0  0  0  0  0  0  0  0 11  0  0
   -1.9295   -0.5758    0.3865 H   0  0  0  0  0  0  0  0  0 12  0  0
  1  2  1  0
  2  6  1  0
  2  3  1  0
  3  4  1  0
  3  7  1  0
  4  8  1  0
  4  5  1  0
  4  9  1  0
  5 11  1  0
  5 12  1  0
  5 10  1  0
M  RAD  1   1   2
M  END
>  <rmg_smiles>  (4) 
CC[CH]N[N]

>  <rmg_adjacency_list>  (4) 
multiplicity 2
1  N u0 p1 c0 {2,S} {5,S} {12,S}
2  N u1 p2 c0 {1,S}
3  C u0 p0 c0 {4,S} {5,S} {6,S} {7,S}
4  C u0 p0 c0 {3,S} {8,S} {9,S} {10,S}
5  C u0 p0 c0 {1,S} {3,S} {11,S}
6  H u0 p0 c0 {3,S}
7  H u0 p0 c0 {3,S}
8  H u0 p0 c0 {4,S}
9  H u0 p0 c0 {4,S}
10 H u0 p0 c0 {4,S}
11 H u0 p0 c0 {5,S}
12 H u0 p0 c0 {1,S}


>  <multiplicity>  (4) 
2

>  <reaction>  (4) 
rmg_rxn_2543

>  <type>  (4) 
r1

>  <role_mapnums>  (4) 
{}

>  <role_mapidx>  (4) 
{}

>  <ordered_mapped_smiles>  (4) 
[NH:1][N:2]([CH:3]([C:4]([C:5]([H:10])([H:11])[H:12])([H:8])[H:9])[H:7])[H:6]

>  <level_of_theory>  (4) 
wb97xd/def2tzvp

>  <lot_method>  (4) 
wb97xd

>  <lot_basis>  (4) 
def2tzvp

>  <spin_multiplicity>  (4) 
2.0

>  <optical_isomers>  (4) 
2.0

>  <modes>  (4) 
IdealGasTranslation(mass=(71.0609, 'amu')),         NonlinearRotor(             inertia = ([53.0504, 135.065, 165.702

>  <frequency_value>  (4) 
unknown

>  <frequency_units>  (4) 
unknown

>  <frequency_list>  (4) 
unknown

>  <arkane_path>  (4) 
/home/calvin/Dropbox/PersonalFolders/Calvin/ATLAS_Converged/rmg_rxn_2543/output/Species/rmg_rxn_2543_p1_sbr-N--sbrsbr-NHp-sbr=CCC/arkane/output.py

>  <path_exists>  (4) 
True

>  <E0_value>  (4) 
-598127.5170687066

>  <E0_units>  (4) 
kJ/mol

>  <thermo_class>  (4) 
NASA

>  <Cp0_value>  (4) 
33.257888

>  <Cp0_units>  (4) 
J/(mol*K)

>  <CpInf_value>  (4) 
282.692048

>  <CpInf_units>  (4) 
J/(mol*K)

>  <Tmin_value>  (4) 
10.0

>  <Tmin_units>  (4) 
K

>  <Tmax_value>  (4) 
3000.0

>  <Tmax_units>  (4) 
K

>  <polynomials>  (4) 
[{"name": "polynomial1", "class": "NASAPolynomial", "Tmin_value": 10.0, "Tmin_units": "K", "Tmax_value": 739.503368194945, "Tmax_units": "K", "coeffs": [3.8212379328585713, 0.016802345524941233, 4.7629930678069334e-05, -7.71171177955712e-08, 3.4166267074327374e-11, -71938122.51600246, 10.943747937860826]}, {"name": "polynomial2", "class": "NASAPolynomial", "Tmin_value": 739.503368194945, "Tmin_units": "K", "Tmax_value": 3000.0, "Tmax_units": "K", "coeffs": [1.2982406609696904, 0.04113558631063574, -2.3403213662420655e-05, 6.46061927743499e-09, -6.945186277157762e-13, -71938041.56017812, 20.378739096769376]}]

>  <H298_value>  (4) 
-142951.59456092006

>  <H298_units>  (4) 
kcal/mol

>  <S298_value>  (4) 
77.94371489467113

>  <S298_units>  (4) 
cal/(mol*K)

>  <Cp_T_value_list>  (4) 
[22.541320394993956, 28.023836364171633, 33.03859048742374, 37.39936756071001, 44.21934927606657, 49.27619118148097, 56.89964180189809, 60.667854136705095, 62.577682732751065]

>  <Cp_T_units>  (4) 
cal/(mol*K)

>  <T_list>  (4) 
[300.0, 400.0, 500.0, 600.0, 800.0, 1000.0, 1500.0, 2000.0, 2400.0]

>  <T_units>  (4) 
K

>  <yaml_path>  (4) 
/home/calvin/Dropbox/PersonalFolders/Calvin/ATLAS_Converged/rmg_rxn_2543/output/Species/rmg_rxn_2543_p1_sbr-N--sbrsbr-NHp-sbr=CCC/rmg_rxn_2543_p1_sbr-N--sbrsbr-NHp-sbr=CCC.yml

>  <frequencies_cm1>  (4) 
[108.841717322, 198.85416089656, 256.05614861216003, 294.31212382987997, 511.21958913272005, 575.24049327108, 667.51904200124, 801.3153839761201, 827.2931894416799, 887.88060092004, 1013.14128014216, 1072.8977863968, 1121.7838548898799, 1135.2019442051599, 1287.1133934542, 1337.173716437, 1345.67504426316, 1400.50105505804, 1452.9854238588, 1475.6464754148, 1488.28859538892, 1496.5701796848398, 1535.3961146841198, 2981.79609962104, 3018.4795352004803, 3067.0977912660796, 3094.0507086470793, 3099.5786318296796, 3217.4298338915196, 3404.94660202476]

>  <ZPE_kJmol>  (4) 
264.2209851653227

>  <E_elec_kJmol>  (4) 
-598391.7380538719

>  <E0_minus_Eelec_plus_ZPE_kJmol>  (4) 
0.0

>  <rxn>  (4) 
rmg_rxn_2543

>  <species_type>  (4) 
p0

>  <species_folder>  (4) 
rmg_rxn_2543_p1_sbr-N--sbrsbr-NHp-sbr=CCC

>  <frequencies_cm1_list>  (4) 
[108.841717322, 198.85416089656, 256.05614861216003, 294.31212382987997, 511.21958913272005, 575.24049327108, 667.51904200124, 801.3153839761201, 827.2931894416799, 887.88060092004, 1013.14128014216, 1072.8977863968, 1121.7838548898799, 1135.2019442051599, 1287.1133934542, 1337.173716437, 1345.67504426316, 1400.50105505804, 1452.9854238588, 1475.6464754148, 1488.28859538892, 1496.5701796848398, 1535.3961146841198, 2981.79609962104, 3018.4795352004803, 3067.0977912660796, 3094.0507086470793, 3099.5786318296796, 3217.4298338915196, 3404.94660202476]

>  <E0_kJmol>  (4) 
-598128

>  <H298_kJmol>  (4) 
-598109

$$$$

     RDKit          3D

 14 13  0  0  0  0  0  0  0  0999 V2000
    2.7687   -0.0362   -0.0732 C   0  0  0  0  0  3  0  0  0  1  0  0
    1.6543    0.2105    0.6386 O   0  0  0  0  0  0  0  0  0  2  0  0
    1.8652    0.6968    1.9544 C   0  0  0  0  0  0  0  0  0  3  0  0
    0.5252    0.9355    2.6156 C   0  0  0  0  0  0  0  0  0  4  0  0
   -0.2992    2.0181    1.9317 C   0  0  0  0  0  0  0  0  0  5  0  0
    2.5851   -0.4757   -1.0422 H   0  0  0  0  0  0  0  0  0  6  0  0
    3.6974   -0.2083    0.4611 H   0  0  0  0  0  0  0  0  0  7  0  0
    2.4441    1.6271    1.9039 H   0  0  0  0  0  0  0  0  0  8  0  0
    2.4506   -0.0397    2.5179 H   0  0  0  0  0  0  0  0  0  9  0  0
    0.7150    1.2089    3.6572 H   0  0  0  0  0  0  0  0  0 10  0  0
   -0.0287   -0.0066    2.6327 H   0  0  0  0  0  0  0  0  0 11  0  0
   -0.5056    1.7522    0.8949 H   0  0  0  0  0  0  0  0  0 12  0  0
   -1.2524    2.1635    2.4416 H   0  0  0  0  0  0  0  0  0 13  0  0
    0.2319    2.9729    1.9340 H   0  0  0  0  0  0  0  0  0 14  0  0
  1  6  1  0
  1  7  1  0
  1  2  1  0
  2  3  1  0
  3  4  1  0
  3  9  1  0
  3  8  1  0
  4  5  1  0
  4 10  1  0
  4 11  1  0
  5 12  1  0
  5 14  1  0
  5 13  1  0
M  RAD  1   1   2
M  END
>  <rmg_smiles>  (5) 
[CH2]OCCC

>  <rmg_adjacency_list>  (5) 
multiplicity 2
1  O u0 p2 c0 {3,S} {5,S}
2  C u0 p0 c0 {3,S} {4,S} {6,S} {7,S}
3  C u0 p0 c0 {1,S} {2,S} {8,S} {9,S}
4  C u0 p0 c0 {2,S} {10,S} {11,S} {12,S}
5  C u1 p0 c0 {1,S} {13,S} {14,S}
6  H u0 p0 c0 {2,S}
7  H u0 p0 c0 {2,S}
8  H u0 p0 c0 {3,S}
9  H u0 p0 c0 {3,S}
10 H u0 p0 c0 {4,S}
11 H u0 p0 c0 {4,S}
12 H u0 p0 c0 {4,S}
13 H u0 p0 c0 {5,S}
14 H u0 p0 c0 {5,S}


>  <multiplicity>  (5) 
2

>  <reaction>  (5) 
rmg_rxn_2543

>  <type>  (5) 
r2

>  <role_mapnums>  (5) 
{}

>  <role_mapidx>  (5) 
{}

>  <ordered_mapped_smiles>  (5) 
[C:1]([O:2][C:3]([C:4]([C:5]([H:12])([H:13])[H:14])([H:10])[H:11])([H:8])[H:9])([H:6])[H:7]

>  <level_of_theory>  (5) 
wb97xd/def2tzvp

>  <lot_method>  (5) 
wb97xd

>  <lot_basis>  (5) 
def2tzvp

>  <spin_multiplicity>  (5) 
2.0

>  <optical_isomers>  (5) 
2.0

>  <modes>  (5) 
IdealGasTranslation(mass=(73.0653, 'amu')),         NonlinearRotor(             inertia = ([39.3229, 184.047, 204.898

>  <frequency_value>  (5) 
unknown

>  <frequency_units>  (5) 
unknown

>  <frequency_list>  (5) 
unknown

>  <arkane_path>  (5) 
/home/calvin/Dropbox/PersonalFolders/Calvin/ATLAS_Converged/rmg_rxn_2543/output/Species/rmg_rxn_2543_r2_sbr-CH2-sbrOCCC/arkane/output.py

>  <path_exists>  (5) 
True

>  <E0_value>  (5) 
-611455.1532625884

>  <E0_units>  (5) 
kJ/mol

>  <thermo_class>  (5) 
NASA

>  <Cp0_value>  (5) 
33.257888

>  <Cp0_units>  (5) 
J/(mol*K)

>  <CpInf_value>  (5) 
332.57888

>  <CpInf_units>  (5) 
J/(mol*K)

>  <Tmin_value>  (5) 
10.0

>  <Tmin_units>  (5) 
K

>  <Tmax_value>  (5) 
3000.0

>  <Tmax_units>  (5) 
K

>  <polynomials>  (5) 
[{"name": "polynomial1", "class": "NASAPolynomial", "Tmin_value": 10.0, "Tmin_units": "K", "Tmax_value": 1109.298984534896, "Tmax_units": "K", "coeffs": [3.7660782116715157, 0.02887151882695906, 1.3341966962128686e-05, -2.64048981591556e-08, 9.144101048042085e-12, -73541070.106956, 11.04728409303558]}, {"name": "polynomial2", "class": "NASAPolynomial", "Tmin_value": 1109.298984534896, "Tmin_units": "K", "Tmax_value": 3000.0, "Tmax_units": "K", "coeffs": [4.9904740751447365, 0.038631152761954474, -1.9022112297290602e-05, 4.564287609921524e-09, -4.313612536747796e-13, -73542213.87845594, 1.0822934871364134]}]

>  <H298_value>  (5) 
-146136.37590473585

>  <H298_units>  (5) 
kcal/mol

>  <S298_value>  (5) 
82.43769476343626

>  <S298_units>  (5) 
cal/(mol*K)

>  <Cp_T_value_list>  (5) 
[25.812711245963627, 31.782538123311966, 37.37582383435153, 42.47398561152773, 50.92866089864846, 57.07012026254461, 66.28954224921635, 71.09599134892048, 73.37373425764557]

>  <Cp_T_units>  (5) 
cal/(mol*K)

>  <T_list>  (5) 
[300.0, 400.0, 500.0, 600.0, 800.0, 1000.0, 1500.0, 2000.0, 2400.0]

>  <T_units>  (5) 
K

>  <yaml_path>  (5) 
/home/calvin/Dropbox/PersonalFolders/Calvin/ATLAS_Converged/rmg_rxn_2543/output/Species/rmg_rxn_2543_r2_sbr-CH2-sbrOCCC/rmg_rxn_2543_r2_sbr-CH2-sbrOCCC.yml

>  <frequencies_cm1>  (5) 
[79.56089191752, 133.9748835932, 204.21040944615999, 276.052809864, 302.19542297723996, 360.72273885959993, 511.54233744275996, 544.8334822741199, 763.2310833913999, 886.9054890046, 919.7640137608, 955.60281014588, 1080.2385937038798, 1111.8129922052399, 1161.9831869531602, 1207.84091492012, 1267.4394805124, 1296.41129157748, 1308.06456566552, 1371.5429779635997, 1405.5826241948398, 1414.2350256980396, 1468.23699825452, 1474.5271568076398, 1482.83620904484, 1494.26973960264, 1500.99938521624, 2973.8097956938796, 3010.5481671558796, 3017.55249218228, 3026.25982956804, 3060.5123523442, 3088.9622725249596, 3092.3682972436795, 3104.9898162618397, 3239.2187783118798]

>  <ZPE_kJmol>  (5) 
320.59234556766944

>  <E_elec_kJmol>  (5) 
-611775.7456081561

>  <E0_minus_Eelec_plus_ZPE_kJmol>  (5) 
0.0

>  <rxn>  (5) 
rmg_rxn_2543

>  <species_type>  (5) 
r1

>  <species_folder>  (5) 
rmg_rxn_2543_r2_sbr-CH2-sbrOCCC

>  <frequencies_cm1_list>  (5) 
[79.56089191752, 133.9748835932, 204.21040944615999, 276.052809864, 302.19542297723996, 360.72273885959993, 511.54233744275996, 544.8334822741199, 763.2310833913999, 886.9054890046, 919.7640137608, 955.60281014588, 1080.2385937038798, 1111.8129922052399, 1161.9831869531602, 1207.84091492012, 1267.4394805124, 1296.41129157748, 1308.06456566552, 1371.5429779635997, 1405.5826241948398, 1414.2350256980396, 1468.23699825452, 1474.5271568076398, 1482.83620904484, 1494.26973960264, 1500.99938521624, 2973.8097956938796, 3010.5481671558796, 3017.55249218228, 3026.25982956804, 3060.5123523442, 3088.9622725249596, 3092.3682972436795, 3104.9898162618397, 3239.2187783118798]

>  <E0_kJmol>  (5) 
-611455

>  <H298_kJmol>  (5) 
-611435

$$$$
