
     RDKit          3D

  9  9  0  0  0  0  0  0  0  0999 V2000
    0.1495   -0.1202   -1.5495 C   0  0  0  0  0  0  0  0  0  1  0  0
    0.4938   -0.0420   -0.0959 C   0  0  0  0  0  0  0  0  0  2  0  0
   -0.2706    0.8116    0.7518 N   0  0  0  0  0  0  0  0  0  3  0  0
   -0.3851   -0.6206    0.8225 O   0  0  0  0  0  0  0  0  0  4  0  0
    0.7064    0.6362   -2.1057 H   0  0  0  0  0  0  0  0  0  5  0  0
   -0.9175    0.0474   -1.6890 H   0  0  0  0  0  0  0  0  0  6  0  0
    0.4149   -1.1008   -1.9487 H   0  0  0  0  0  0  0  0  0  7  0  0
    1.5458   -0.1758    0.1597 H   0  0  0  0  0  0  0  0  0  8  0  0
    0.3581    1.0560    1.5434 H   0  0  0  0  0  0  0  0  0  9  0  0
  1  5  1  0
  1  7  1  0
  1  6  1  0
  1  2  1  0
  2  4  1  0
  2  3  1  0
  2  8  1  0
  3  9  1  0
  3  4  1  0
M  END
>  <rmg_smiles>  (1) 
CC1NO1

>  <rmg_adjacency_list>  (1) 
1 O u0 p2 c0 {2,S} {3,S}
2 N u0 p1 c0 {1,S} {3,S} {9,S}
3 C u0 p0 c0 {1,S} {2,S} {4,S} {5,S}
4 C u0 p0 c0 {3,S} {6,S} {7,S} {8,S}
5 H u0 p0 c0 {3,S}
6 H u0 p0 c0 {4,S}
7 H u0 p0 c0 {4,S}
8 H u0 p0 c0 {4,S}
9 H u0 p0 c0 {2,S}


>  <multiplicity>  (1) 
1

>  <reaction>  (1) 
rmg_rxn_15701

>  <type>  (1) 
r1h

>  <role_mapnums>  (1) 
{"r1h_a": 3, "r1h_h": 9}

>  <role_mapidx>  (1) 
{"r1h_a": 2, "r1h_h": 8}

>  <ordered_mapped_smiles>  (1) 
[C:1]([C:2]1([H:8])[N:3]([H:9])[O:4]1)([H:5])([H:6])[H:7]

>  <mol_properties>  (1) 
{"2": {"label": "donator", "atom_type": "N3s"}, "8": {"label": "d_hydrogen", "atom_type": "H0"}}

>  <level_of_theory>  (1) 
wb97xd/def2tzvp

>  <lot_method>  (1) 
wb97xd

>  <lot_basis>  (1) 
def2tzvp

>  <spin_multiplicity>  (1) 
1.0

>  <optical_isomers>  (1) 
2.0

>  <modes>  (1) 
IdealGasTranslation(mass=(59.0371, 'amu')),         NonlinearRotor(             inertia = ([26.7838, 71.4813, 82.1467

>  <frequency_value>  (1) 
unknown

>  <frequency_units>  (1) 
unknown

>  <frequency_list>  (1) 
unknown

>  <arkane_path>  (1) 
/home/calvin/Dropbox/PersonalFolders/Calvin/ZEUS_Converged/rmg_rxn_15701/output/Species/rmg_rxn_15701_r2_CC1NO1/arkane/output.py

>  <path_exists>  (1) 
True

>  <E0_value>  (1) 
-548864.5742260589

>  <E0_units>  (1) 
kJ/mol

>  <thermo_class>  (1) 
NASA

>  <Cp0_value>  (1) 
33.257888

>  <Cp0_units>  (1) 
J/(mol*K)

>  <CpInf_value>  (1) 
207.8618

>  <CpInf_units>  (1) 
J/(mol*K)

>  <Tmin_value>  (1) 
10.0

>  <Tmin_units>  (1) 
K

>  <Tmax_value>  (1) 
3000.0

>  <Tmax_units>  (1) 
K

>  <polynomials>  (1) 
[{"name": "polynomial1", "class": "NASAPolynomial", "Tmin_value": 10.0, "Tmin_units": "K", "Tmax_value": 579.1032023564536, "Tmax_units": "K", "coeffs": [4.0166088171788665, -0.0016044037342157643, 8.660571354843975e-05, -1.359185288654033e-07, 6.880557229770487e-11, -66013159.76365993, 8.912935475829386]}, {"name": "polynomial2", "class": "NASAPolynomial", "Tmin_value": 579.1032023564536, "Tmin_units": "K", "Tmax_value": 3000.0, "Tmax_units": "K", "coeffs": [-0.04858164856923329, 0.03293942863289486, -1.9614867068158536e-05, 5.639792606053445e-09, -6.271939988533442e-13, -66012797.329610676, 25.36849885792513]}]

>  <H298_value>  (1) 
-131178.49329622858

>  <H298_units>  (1) 
kcal/mol

>  <S298_value>  (1) 
67.76369119756436

>  <S298_units>  (1) 
cal/(mol*K)

>  <Cp_T_value_list>  (1) 
[16.3295251828302, 20.457095214615418, 24.196956649284317, 27.404838028515023, 32.55068390441077, 36.34318213487999, 41.902714845484894, 44.62082262956933, 46.063673487093155]

>  <Cp_T_units>  (1) 
cal/(mol*K)

>  <T_list>  (1) 
[300.0, 400.0, 500.0, 600.0, 800.0, 1000.0, 1500.0, 2000.0, 2400.0]

>  <T_units>  (1) 
K

>  <yaml_path>  (1) 
/home/calvin/Dropbox/PersonalFolders/Calvin/ZEUS_Converged/rmg_rxn_15701/output/Species/rmg_rxn_15701_r2_CC1NO1/rmg_rxn_15701_r2_CC1NO1.yml

>  <frequencies_cm1>  (1) 
[205.92715577616, 388.21814808088, 439.6999370249199, 779.72558213004, 878.1844176481999, 942.2121887718798, 1011.1979232965999, 1063.70289305332, 1176.10170877108, 1226.8555972712, 1303.6284931488, 1344.02010080104, 1392.4186133364, 1456.2472418858, 1469.23957811124, 1494.1942027641198, 3024.87956551872, 3064.99649375816, 3098.0678950592796, 3125.2405559705194, 3405.2281484228797]

>  <ZPE_kJmol>  (1) 
193.1370645967614

>  <E_elec_kJmol>  (1) 
-549057.7112906557

>  <E0_minus_Eelec_plus_ZPE_kJmol>  (1) 
0.0

>  <rxn>  (1) 
rmg_rxn_15701

>  <species_type>  (1) 
r1

>  <species_folder>  (1) 
rmg_rxn_15701_r2_CC1NO1

>  <frequencies_cm1_list>  (1) 
[205.92715577616, 388.21814808088, 439.6999370249199, 779.72558213004, 878.1844176481999, 942.2121887718798, 1011.1979232965999, 1063.70289305332, 1176.10170877108, 1226.8555972712, 1303.6284931488, 1344.02010080104, 1392.4186133364, 1456.2472418858, 1469.23957811124, 1494.1942027641198, 3024.87956551872, 3064.99649375816, 3098.0678950592796, 3125.2405559705194, 3405.2281484228797]

>  <E0_kJmol>  (1) 
-548865

>  <H298_kJmol>  (1) 
-548851

$$$$

     RDKit          3D

  9  8  0  0  0  0  0  0  0  0999 V2000
   -0.1492    1.5675   -0.5728 C   0  0  0  0  0  0  0  0  0  1  0  0
    0.4043    0.3207   -0.3874 O   0  0  0  0  0  0  0  0  0  2  0  0
   -0.3250   -0.4189    0.5305 N   0  0  0  0  0  0  0  0  0  3  0  0
    0.0594   -1.6205    0.5607 C   0  0  0  0  0  0  0  0  0  4  0  0
   -0.6922    1.9373    0.2942 H   0  0  0  0  0  0  0  0  0  5  0  0
    0.6017    2.2362   -0.9858 H   0  0  0  0  0  0  0  0  0  6  0  0
   -0.4444   -2.2677    1.2661 H   0  0  0  0  0  0  0  0  0  7  0  0
    0.8488   -2.0034   -0.0813 H   0  0  0  0  0  0  0  0  0  8  0  0
   -0.9152    1.4847   -1.3402 H   0  0  0  0  0  0  0  0  0  9  0  0
  1  6  1  0
  1  5  1  0
  1  9  1  0
  1  2  1  0
  2  3  1  0
  3  4  1  0
  4  8  1  0
  4  7  1  0
M  END
>  <rmg_smiles>  (2) 
CO[N][CH2]

>  <rmg_adjacency_list>  (2) 
1 O u0 p2 c0 {2,S} {3,S}
2 N u0 p1 c0 {1,S} {4,S}
3 C u0 p0 c0 {1,S} {5,S} {6,S} {7,S}
4 C u0 p0 c0 {2,S} {8,S} {9,S}
5 H u0 p0 c0 {3,S}
6 H u0 p0 c0 {3,S}
7 H u0 p0 c0 {3,S}
8 H u0 p0 c0 {4,S}
9 H u0 p0 c0 {4,S}


>  <multiplicity>  (2) 
1

>  <reaction>  (2) 
rmg_rxn_15701

>  <type>  (2) 
r2h

>  <role_mapnums>  (2) 
{"r2h_a": 1, "r2h_h": 9}

>  <role_mapidx>  (2) 
{"r2h_a": 0, "r2h_h": 8}

>  <ordered_mapped_smiles>  (2) 
[C:1]([O:2][NH:3][CH:4]([H:7])[H:8])([H:5])([H:6])[H:9]

>  <mol_properties>  (2) 
{"0": {"label": "acceptor", "atom_type": "Cs"}, "8": {"label": "a_hydrogen", "atom_type": "H0"}}

>  <level_of_theory>  (2) 
wb97xd/def2tzvp

>  <lot_method>  (2) 
wb97xd

>  <lot_basis>  (2) 
def2tzvp

>  <spin_multiplicity>  (2) 
1.0

>  <optical_isomers>  (2) 
1.0

>  <modes>  (2) 
IdealGasTranslation(mass=(59.0371, 'amu')),         NonlinearRotor(             inertia = ([11.9742, 101.538, 110.304

>  <frequency_value>  (2) 
unknown

>  <frequency_units>  (2) 
unknown

>  <frequency_list>  (2) 
unknown

>  <arkane_path>  (2) 
/home/calvin/Dropbox/PersonalFolders/Calvin/ZEUS_Converged/rmg_rxn_15701/output/Species/rmg_rxn_15701_p2_CON=C/arkane/output.py

>  <path_exists>  (2) 
True

>  <E0_value>  (2) 
-548882.9200394232

>  <E0_units>  (2) 
kJ/mol

>  <thermo_class>  (2) 
NASA

>  <Cp0_value>  (2) 
33.257888

>  <Cp0_units>  (2) 
J/(mol*K)

>  <CpInf_value>  (2) 
207.8618

>  <CpInf_units>  (2) 
J/(mol*K)

>  <Tmin_value>  (2) 
10.0

>  <Tmin_units>  (2) 
K

>  <Tmax_value>  (2) 
3000.0

>  <Tmax_units>  (2) 
K

>  <polynomials>  (2) 
[{"name": "polynomial1", "class": "NASAPolynomial", "Tmin_value": 10.0, "Tmin_units": "K", "Tmax_value": 1066.0445442103917, "Tmax_units": "K", "coeffs": [3.9488472240731216, 0.012909444164008412, 1.8432835387873368e-05, -2.5565901414715004e-08, 8.632634293818456e-12, -66015370.98001154, 7.906058800048573]}, {"name": "polynomial2", "class": "NASAPolynomial", "Tmin_value": 1066.0445442103917, "Tmin_units": "K", "Tmax_value": 3000.0, "Tmax_units": "K", "coeffs": [4.051174026649639, 0.02340322367340144, -1.163838712217072e-05, 2.8112466199843713e-09, -2.6680947262736413e-13, -66016010.897278614, 4.506810904924114]}]

>  <H298_value>  (2) 
-131182.46582067996

>  <H298_units>  (2) 
kcal/mol

>  <S298_value>  (2) 
69.27397375028742

>  <S298_units>  (2) 
cal/(mol*K)

>  <Cp_T_value_list>  (2) 
[17.607207323409234, 21.157104611048137, 24.5530891366924, 27.67560467885903, 32.827861850696166, 36.480858050170255, 41.94371504002133, 44.76201379304356, 46.08804102499818]

>  <Cp_T_units>  (2) 
cal/(mol*K)

>  <T_list>  (2) 
[300.0, 400.0, 500.0, 600.0, 800.0, 1000.0, 1500.0, 2000.0, 2400.0]

>  <T_units>  (2) 
K

>  <yaml_path>  (2) 
/home/calvin/Dropbox/PersonalFolders/Calvin/ZEUS_Converged/rmg_rxn_15701/output/Species/rmg_rxn_15701_p2_CON=C/rmg_rxn_15701_p2_CON=C.yml

>  <frequencies_cm1>  (2) 
[119.61601728907998, 180.59484693068, 346.29520270228, 574.9726808436, 796.6046320465999, 891.08061607916, 982.9746136314, 1126.32979917172, 1169.7222794088, 1171.7686410341598, 1237.71230106212, 1418.12173938916, 1456.2266409298397, 1467.4060930307999, 1493.1160860688801, 1708.0183916582798, 3005.45973103376, 3077.28153049564, 3083.54422110748, 3121.53925088304, 3213.405780494]

>  <ZPE_kJmol>  (2) 
189.2599943319938

>  <E_elec_kJmol>  (2) 
-549072.1800337551

>  <E0_minus_Eelec_plus_ZPE_kJmol>  (2) 
0.0

>  <rxn>  (2) 
rmg_rxn_15701

>  <species_type>  (2) 
p1

>  <species_folder>  (2) 
rmg_rxn_15701_p2_CON=C

>  <frequencies_cm1_list>  (2) 
[119.61601728907998, 180.59484693068, 346.29520270228, 574.9726808436, 796.6046320465999, 891.08061607916, 982.9746136314, 1126.32979917172, 1169.7222794088, 1171.7686410341598, 1237.71230106212, 1418.12173938916, 1456.2266409298397, 1467.4060930307999, 1493.1160860688801, 1708.0183916582798, 3005.45973103376, 3077.28153049564, 3083.54422110748, 3121.53925088304, 3213.405780494]

>  <E0_kJmol>  (2) 
-548883

>  <H298_kJmol>  (2) 
-548867

$$$$

     RDKit          3D

 17 16  0  0  0  0  0  0  0  0999 V2000
    0.6829    1.2809    1.1211 C   0  0  0  0  0  3  0  0  0  1  0  0
    1.2364    0.0342    1.3065 O   0  0  0  0  0  0  0  0  0  2  0  0
    0.5072   -0.7055    2.2244 N   0  0  0  0  0  0  0  0  0  3  0  0
    0.8915   -1.9071    2.2547 C   0  0  0  0  0  0  0  0  0  4  0  0
    0.1399    1.6507    1.9882 H   0  0  0  0  0  0  0  0  0  5  0  0
    1.4338    1.9496    0.7081 H   0  0  0  0  0  0  0  0  0  6  0  0
    0.3877   -2.5543    2.9600 H   0  0  0  0  0  0  0  0  0  7  0  0
    1.6809   -2.2899    1.6126 H   0  0  0  0  0  0  0  0  0  8  0  0
   -0.6271   -0.0436   -3.1019 C   0  0  0  0  0  0  0  0  0  9  0  0
   -0.2828    0.0346   -1.6484 C   0  0  0  0  0  0  0  0  0 10  0  0
   -1.0471    0.8882   -0.8007 N   0  0  0  0  0  0  0  0  0 11  0  0
   -1.1617   -0.5441   -0.7299 O   0  0  0  0  0  0  0  0  0 12  0  0
   -0.0702    0.7128   -3.6581 H   0  0  0  0  0  0  0  0  0 13  0  0
   -1.6940    0.1239   -3.2415 H   0  0  0  0  0  0  0  0  0 14  0  0
   -0.3617   -1.0242   -3.5012 H   0  0  0  0  0  0  0  0  0 15  0  0
    0.7693   -0.0993   -1.3927 H   0  0  0  0  0  0  0  0  0 16  0  0
   -0.3138    1.1733    0.1227 H   0  0  0  0  0  0  0  0  0 17  0  0
  1  6  1  0
  1  5  1  0
  1  2  1  0
  2  3  1  0
  3  4  1  0
  4  8  1  0
  4  7  1  0
  9 10  1  0
  9 14  1  0
  9 13  1  0
  9 15  1  0
 10 11  1  0
 10 16  1  0
 10 12  1  0
 11 17  1  0
 11 12  1  0
M  RAD  1   1   2
M  END
>  <rmg_smiles>  (3) 
CC1NO1.[CH2]O[N][CH2]

>  <rmg_adjacency_list>  (3) 
multiplicity 2
1  O u0 p2 c0 {3,S} {5,S}
2  O u0 p2 c0 {4,S} {7,S}
3  N u0 p1 c0 {1,S} {5,S} {13,S}
4  N u0 p1 c0 {2,S} {8,S}
5  C u0 p0 c0 {1,S} {3,S} {6,S} {9,S}
6  C u0 p0 c0 {5,S} {10,S} {11,S} {12,S}
7  C u1 p0 c0 {2,S} {14,S} {15,S}
8  C u0 p0 c0 {4,S} {16,S} {17,S}
9  H u0 p0 c0 {5,S}
10 H u0 p0 c0 {6,S}
11 H u0 p0 c0 {6,S}
12 H u0 p0 c0 {6,S}
13 H u0 p0 c0 {3,S}
14 H u0 p0 c0 {7,S}
15 H u0 p0 c0 {7,S}
16 H u0 p0 c0 {8,S}
17 H u0 p0 c0 {8,S}


>  <multiplicity>  (3) 
2

>  <reaction>  (3) 
rmg_rxn_15701

>  <type>  (3) 
ts

>  <role_mapnums>  (3) 
{"*2": 17, "*1": 11, "*3": 1, "*0": 12, "*4": 2}

>  <role_mapidx>  (3) 
{"*2": 16, "*1": 10, "*3": 0, "*0": 11, "*4": 1}

>  <ordered_mapped_smiles>  (3) 
[C:1]([O:2][NH:3][CH:4]([H:7])[H:8])([H:5])[H:6].[C:9]([C:10]1([H:16])[N:11]([H:17])[O:12]1)([H:13])([H:14])[H:15]

>  <mol_properties>  (3) 
{"0": {"label": "*3", "atom_type": "Cs"}, "1": {"label": "*4", "atom_type": "O2s"}, "10": {"label": "*1", "atom_type": "N3s"}, "11": {"label": "*0", "atom_type": "O2s"}, "16": {"label": "*2", "atom_type": "H0"}}

>  <level_of_theory>  (3) 
wb97xd/def2tzvp

>  <lot_method>  (3) 
wb97xd

>  <lot_basis>  (3) 
def2tzvp

>  <spin_multiplicity>  (3) 
2.0

>  <optical_isomers>  (3) 
2.0

>  <modes>  (3) 
IdealGasTranslation(mass=(117.066, 'amu')),         NonlinearRotor(             inertia = ([132.769, 498.062, 554.168

>  <frequency_value>  (3) 
-1840.91

>  <frequency_units>  (3) 
cm^-1

>  <frequency_list>  (3) 
unknown

>  <arkane_path>  (3) 
/home/calvin/Dropbox/PersonalFolders/Calvin/ZEUS_Converged/rmg_rxn_15701/output/rxns/TS0/arkane/output.py

>  <path_exists>  (3) 
True

>  <E0_value>  (3) 
-1096020.0

>  <E0_units>  (3) 
kJ/mol

>  <thermo_class>  (3) 
unknown

>  <Cp0_value>  (3) 
unknown

>  <Cp0_units>  (3) 
unknown

>  <CpInf_value>  (3) 
unknown

>  <CpInf_units>  (3) 
unknown

>  <Tmin_value>  (3) 
unknown

>  <Tmin_units>  (3) 
unknown

>  <Tmax_value>  (3) 
unknown

>  <Tmax_units>  (3) 
unknown

>  <polynomials>  (3) 
unknown

>  <H298_value>  (3) 
unknown

>  <H298_units>  (3) 
unknown

>  <S298_value>  (3) 
unknown

>  <S298_units>  (3) 
unknown

>  <Cp_T_value_list>  (3) 
unknown

>  <Cp_T_units>  (3) 
unknown

>  <T_list>  (3) 
unknown

>  <T_units>  (3) 
unknown

>  <yaml_path>  (3) 
unknown

>  <frequencies_cm1>  (3) 
unknown

>  <ZPE_kJmol>  (3) 
unknown

>  <E_elec_kJmol>  (3) 
unknown

>  <E0_minus_Eelec_plus_ZPE_kJmol>  (3) 
unknown

>  <rxn>  (3) 
unknown

>  <species_type>  (3) 
unknown

>  <species_folder>  (3) 
unknown

>  <frequencies_cm1_list>  (3) 
[]

>  <ts_imag_freq_cm1>  (3) 
-1863.2649

>  <ts_freq_out_path>  (3) 
/home/calvin/Dropbox/PersonalFolders/Calvin/ZEUS_Converged/rmg_rxn_15701/output/rxns/TS0/geometry/freq.out

>  <E0_kJmol>  (3) 
-1.09602e+06

>  <H298_kJmol>  (3) 
unknown

$$$$

     RDKit          3D

  8  8  0  0  0  0  0  0  0  0999 V2000
    0.8505    0.0495    0.0350 C   0  0  0  0  0  0  0  0  0  1  0  0
   -0.6272   -0.1047    0.2018 C   0  0  0  0  0  0  0  0  0  2  0  0
   -1.5230    0.8104   -0.4133 N   0  0  0  0  0  2  0  0  0  3  0  0
   -1.3933   -0.4445   -0.9420 O   0  0  0  0  0  0  0  0  0  4  0  0
    1.2510    0.6524    0.8519 H   0  0  0  0  0  0  0  0  0  5  0  0
    1.0765    0.5398   -0.9109 H   0  0  0  0  0  0  0  0  0  6  0  0
    1.3406   -0.9252    0.0594 H   0  0  0  0  0  0  0  0  0  7  0  0
   -0.9751   -0.5778    1.1183 H   0  0  0  0  0  0  0  0  0  8  0  0
  1  5  1  0
  1  7  1  0
  1  6  1  0
  1  2  1  0
  2  4  1  0
  2  3  1  0
  2  8  1  0
  3  4  1  0
M  RAD  1   3   2
M  END
>  <rmg_smiles>  (4) 
CC1[N]O1

>  <rmg_adjacency_list>  (4) 
multiplicity 2
1 O u0 p2 c0 {2,S} {3,S}
2 N u1 p1 c0 {1,S} {3,S}
3 C u0 p0 c0 {1,S} {2,S} {4,S} {5,S}
4 C u0 p0 c0 {3,S} {6,S} {7,S} {8,S}
5 H u0 p0 c0 {3,S}
6 H u0 p0 c0 {4,S}
7 H u0 p0 c0 {4,S}
8 H u0 p0 c0 {4,S}


>  <multiplicity>  (4) 
2

>  <reaction>  (4) 
rmg_rxn_15701

>  <type>  (4) 
r1

>  <role_mapnums>  (4) 
{}

>  <role_mapidx>  (4) 
{}

>  <ordered_mapped_smiles>  (4) 
[C:1]([C:2]1([H:8])[N:3][O:4]1)([H:5])([H:6])[H:7]

>  <level_of_theory>  (4) 
wb97xd/def2tzvp

>  <lot_method>  (4) 
wb97xd

>  <lot_basis>  (4) 
def2tzvp

>  <spin_multiplicity>  (4) 
2.0

>  <optical_isomers>  (4) 
2.0

>  <modes>  (4) 
IdealGasTranslation(mass=(58.0293, 'amu')),         NonlinearRotor(             inertia = ([23.4146, 70.9581, 78.7064

>  <frequency_value>  (4) 
unknown

>  <frequency_units>  (4) 
unknown

>  <frequency_list>  (4) 
unknown

>  <arkane_path>  (4) 
/home/calvin/Dropbox/PersonalFolders/Calvin/ZEUS_Converged/rmg_rxn_15701/output/Species/rmg_rxn_15701_p1_CC1sbr-N-sbrO1/arkane/output.py

>  <path_exists>  (4) 
True

>  <E0_value>  (4) 
-547227.3621526395

>  <E0_units>  (4) 
kJ/mol

>  <thermo_class>  (4) 
NASA

>  <Cp0_value>  (4) 
33.257888

>  <Cp0_units>  (4) 
J/(mol*K)

>  <CpInf_value>  (4) 
182.918384

>  <CpInf_units>  (4) 
J/(mol*K)

>  <Tmin_value>  (4) 
10.0

>  <Tmin_units>  (4) 
K

>  <Tmax_value>  (4) 
3000.0

>  <Tmax_units>  (4) 
K

>  <polynomials>  (4) 
[{"name": "polynomial1", "class": "NASAPolynomial", "Tmin_value": 10.0, "Tmin_units": "K", "Tmax_value": 452.90313759142083, "Tmax_units": "K", "coeffs": [3.993903921577576, 0.0001955042069371399, 7.708643812387396e-05, -1.3413115389579475e-07, 7.629046883715244e-11, -65816248.71742715, 9.533991906529156]}, {"name": "polynomial2", "class": "NASAPolynomial", "Tmin_value": 452.90313759142083, "Tmin_units": "K", "Tmax_value": 3000.0, "Tmax_units": "K", "coeffs": [0.7597120819655714, 0.028759613302334033, -1.751698626413621e-05, 5.12375475034405e-09, -5.77505449262592e-13, -65815955.76246551, 22.575367203758603]}]

>  <H298_value>  (4) 
-130787.19788886789

>  <H298_units>  (4) 
kcal/mol

>  <S298_value>  (4) 
69.0274070004217

>  <S298_units>  (4) 
cal/(mol*K)

>  <Cp_T_value_list>  (4) 
[15.871314083797705, 19.424104661675273, 22.58390123471835, 25.319497469568212, 29.69551772518269, 32.885462492343336, 37.46870681090042, 39.666518565610055, 40.84799143796752]

>  <Cp_T_units>  (4) 
cal/(mol*K)

>  <T_list>  (4) 
[300.0, 400.0, 500.0, 600.0, 800.0, 1000.0, 1500.0, 2000.0, 2400.0]

>  <T_units>  (4) 
K

>  <yaml_path>  (4) 
/home/calvin/Dropbox/PersonalFolders/Calvin/ZEUS_Converged/rmg_rxn_15701/output/Species/rmg_rxn_15701_p1_CC1sbr-N-sbrO1/rmg_rxn_15701_p1_CC1sbr-N-sbrO1.yml

>  <frequencies_cm1>  (4) 
[180.01802016379997, 387.26363712140005, 441.6844957824, 820.21332757676, 862.3560164855999, 1008.71894159608, 1015.5103900775598, 1116.79155656224, 1170.3265741169598, 1313.1667357582799, 1395.7353672459599, 1444.9167161078, 1469.4593216414798, 1489.84053407124, 3025.02377221044, 3091.09790495948, 3098.1777668243994, 3123.06372162408]

>  <ZPE_kJmol>  (4) 
158.22630447874113

>  <E_elec_kJmol>  (4) 
-547385.5884571183

>  <E0_minus_Eelec_plus_ZPE_kJmol>  (4) 
0.0

>  <rxn>  (4) 
rmg_rxn_15701

>  <species_type>  (4) 
p0

>  <species_folder>  (4) 
rmg_rxn_15701_p1_CC1sbr-N-sbrO1

>  <frequencies_cm1_list>  (4) 
[180.01802016379997, 387.26363712140005, 441.6844957824, 820.21332757676, 862.3560164855999, 1008.71894159608, 1015.5103900775598, 1116.79155656224, 1170.3265741169598, 1313.1667357582799, 1395.7353672459599, 1444.9167161078, 1469.4593216414798, 1489.84053407124, 3025.02377221044, 3091.09790495948, 3098.1777668243994, 3123.06372162408]

>  <E0_kJmol>  (4) 
-547227

>  <H298_kJmol>  (4) 
-547214

$$$$

     RDKit          3D

  8  7  0  0  0  0  0  0  0  0999 V2000
    1.7077   -0.1964   -0.0607 C   0  0  0  0  0  3  0  0  0  1  0  0
    0.4209   -0.4565    0.2808 O   0  0  0  0  0  0  0  0  0  2  0  0
   -0.4607    0.4385   -0.2968 N   0  0  0  0  0  0  0  0  0  3  0  0
   -1.6584    0.1416   -0.0244 C   0  0  0  0  0  0  0  0  0  4  0  0
    2.4163   -0.7685    0.5170 H   0  0  0  0  0  0  0  0  0  5  0  0
    1.9214    0.7645   -0.5045 H   0  0  0  0  0  0  0  0  0  6  0  0
   -2.4185    0.7953   -0.4307 H   0  0  0  0  0  0  0  0  0  7  0  0
   -1.9286   -0.7185    0.5831 H   0  0  0  0  0  0  0  0  0  8  0  0
  1  6  1  0
  1  5  1  0
  1  2  1  0
  2  3  1  0
  3  4  1  0
  4  8  1  0
  4  7  1  0
M  RAD  1   1   2
M  END
>  <rmg_smiles>  (5) 
[CH2]O[N][CH2]

>  <rmg_adjacency_list>  (5) 
multiplicity 2
1 O u0 p2 c0 {2,S} {3,S}
2 N u0 p1 c0 {1,S} {4,S}
3 C u1 p0 c0 {1,S} {5,S} {6,S}
4 C u0 p0 c0 {2,S} {7,S} {8,S}
5 H u0 p0 c0 {3,S}
6 H u0 p0 c0 {3,S}
7 H u0 p0 c0 {4,S}
8 H u0 p0 c0 {4,S}


>  <multiplicity>  (5) 
2

>  <reaction>  (5) 
rmg_rxn_15701

>  <type>  (5) 
r2

>  <role_mapnums>  (5) 
{}

>  <role_mapidx>  (5) 
{}

>  <ordered_mapped_smiles>  (5) 
[C:1]([O:2][NH:3][CH:4]([H:7])[H:8])([H:5])[H:6]

>  <level_of_theory>  (5) 
wb97xd/def2tzvp

>  <lot_method>  (5) 
wb97xd

>  <lot_basis>  (5) 
def2tzvp

>  <spin_multiplicity>  (5) 
2.0

>  <optical_isomers>  (5) 
2.0

>  <modes>  (5) 
IdealGasTranslation(mass=(58.0293, 'amu')),         NonlinearRotor(             inertia = ([10.2741, 95.4529, 105.582

>  <frequency_value>  (5) 
unknown

>  <frequency_units>  (5) 
unknown

>  <frequency_list>  (5) 
unknown

>  <arkane_path>  (5) 
/home/calvin/Dropbox/PersonalFolders/Calvin/ZEUS_Converged/rmg_rxn_15701/output/Species/rmg_rxn_15701_r1_sbr-CH2-sbrON=C/arkane/output.py

>  <path_exists>  (5) 
True

>  <E0_value>  (5) 
-547168.2732446302

>  <E0_units>  (5) 
kJ/mol

>  <thermo_class>  (5) 
NASA

>  <Cp0_value>  (5) 
33.257888

>  <Cp0_units>  (5) 
J/(mol*K)

>  <CpInf_value>  (5) 
182.918384

>  <CpInf_units>  (5) 
J/(mol*K)

>  <Tmin_value>  (5) 
10.0

>  <Tmin_units>  (5) 
K

>  <Tmax_value>  (5) 
3000.0

>  <Tmax_units>  (5) 
K

>  <polynomials>  (5) 
[{"name": "polynomial1", "class": "NASAPolynomial", "Tmin_value": 10.0, "Tmin_units": "K", "Tmax_value": 253.2842427910515, "Tmax_units": "K", "coeffs": [3.956862909385456, 0.0038362890131335746, 0.00011727738047703725, -3.4736244039427427e-07, 3.472729073035136e-10, -65809144.38694886, 9.350338763280796]}, {"name": "polynomial2", "class": "NASAPolynomial", "Tmin_value": 253.2842427910515, "Tmin_units": "K", "Tmax_value": 3000.0, "Tmax_units": "K", "coeffs": [2.5252197328965313, 0.026445761179553072, -1.662161754135038e-05, 5.074735532607581e-09, -5.97403912324656e-13, -65809071.86505469, 14.291183066674913]}]

>  <H298_value>  (5) 
-130772.65860702786

>  <H298_units>  (5) 
kcal/mol

>  <S298_value>  (5) 
71.26914844977757

>  <S298_units>  (5) 
cal/(mol*K)

>  <Cp_T_value_list>  (5) 
[18.0740035969719, 21.369534269323825, 24.223451351766553, 26.683440747612977, 30.598134113509214, 33.438117676478754, 37.554421513360474, 39.68390492467901, 40.91110806828642]

>  <Cp_T_units>  (5) 
cal/(mol*K)

>  <T_list>  (5) 
[300.0, 400.0, 500.0, 600.0, 800.0, 1000.0, 1500.0, 2000.0, 2400.0]

>  <T_units>  (5) 
K

>  <yaml_path>  (5) 
/home/calvin/Dropbox/PersonalFolders/Calvin/ZEUS_Converged/rmg_rxn_15701/output/Species/rmg_rxn_15701_r1_sbr-CH2-sbrON=C/rmg_rxn_15701_r1_sbr-CH2-sbrON=C.yml

>  <frequencies_cm1>  (5) 
[132.13453152744, 273.14807507364, 360.4549264321199, 498.69420790903996, 595.9169860696, 789.3942974605999, 873.74834513148, 993.5360370535599, 1152.01232426852, 1206.54305469464, 1257.0497317232398, 1417.2771001948001, 1437.260027476, 1705.2166616477198, 3090.5210781926, 3134.7719315946797, 3218.94057066192, 3282.16490450316]

>  <ZPE_kJmol>  (5) 
152.0381400376291

>  <E_elec_kJmol>  (5) 
-547320.3113846679

>  <E0_minus_Eelec_plus_ZPE_kJmol>  (5) 
0.0

>  <rxn>  (5) 
rmg_rxn_15701

>  <species_type>  (5) 
r0

>  <species_folder>  (5) 
rmg_rxn_15701_r1_sbr-CH2-sbrON=C

>  <frequencies_cm1_list>  (5) 
[132.13453152744, 273.14807507364, 360.4549264321199, 498.69420790903996, 595.9169860696, 789.3942974605999, 873.74834513148, 993.5360370535599, 1152.01232426852, 1206.54305469464, 1257.0497317232398, 1417.2771001948001, 1437.260027476, 1705.2166616477198, 3090.5210781926, 3134.7719315946797, 3218.94057066192, 3282.16490450316]

>  <E0_kJmol>  (5) 
-547168

>  <H298_kJmol>  (5) 
-547153

$$$$
