
     RDKit          3D

 12 11  0  0  0  0  0  0  0  0999 V2000
    0.3368   -1.3184   -0.9567 C   0  0  0  0  0  0  0  0  0  1  0  0
    0.0841   -0.8640    0.4754 C   0  0  0  0  0  0  0  0  0  2  0  0
    0.2399    0.6220    0.6653 C   0  0  0  0  0  0  0  0  0  3  0  0
   -0.6450    1.3408   -0.1210 O   0  0  0  0  0  0  0  0  0  4  0  0
    1.3580   -1.0836   -1.2654 H   0  0  0  0  0  0  0  0  0  5  0  0
   -0.3440   -0.8180   -1.6447 H   0  0  0  0  0  0  0  0  0  6  0  0
    0.1942   -2.3952   -1.0551 H   0  0  0  0  0  0  0  0  0  7  0  0
   -0.9304   -1.1434    0.7810 H   0  0  0  0  0  0  0  0  0  8  0  0
    0.7677   -1.3678    1.1637 H   0  0  0  0  0  0  0  0  0  9  0  0
    1.2458    0.9203    0.3437 H   0  0  0  0  0  0  0  0  0 10  0  0
    0.2189    0.9291    1.7187 H   0  0  0  0  0  0  0  0  0 11  0  0
   -0.2742    2.2195   -0.2700 H   0  0  0  0  0  0  0  0  0 12  0  0
  1  5  1  0
  1  7  1  0
  1  6  1  0
  1  2  1  0
  2  9  1  0
  2  8  1  0
  2  3  1  0
  3 11  1  0
  3  4  1  0
  3 10  1  0
  4 12  1  0
M  END
>  <rmg_smiles>  (1) 
CCCO

>  <rmg_adjacency_list>  (1) 
1  O u0 p2 c0 {3,S} {12,S}
2  C u0 p0 c0 {3,S} {4,S} {5,S} {6,S}
3  C u0 p0 c0 {1,S} {2,S} {7,S} {8,S}
4  C u0 p0 c0 {2,S} {9,S} {10,S} {11,S}
5  H u0 p0 c0 {2,S}
6  H u0 p0 c0 {2,S}
7  H u0 p0 c0 {3,S}
8  H u0 p0 c0 {3,S}
9  H u0 p0 c0 {4,S}
10 H u0 p0 c0 {4,S}
11 H u0 p0 c0 {4,S}
12 H u0 p0 c0 {1,S}


>  <multiplicity>  (1) 
1

>  <reaction>  (1) 
rmg_rxn_15485

>  <type>  (1) 
r1h

>  <role_mapnums>  (1) 
{"r1h_a": 3, "r1h_h": 10}

>  <role_mapidx>  (1) 
{"r1h_a": 2, "r1h_h": 9}

>  <ordered_mapped_smiles>  (1) 
[C:1]([C:2]([C:3]([O:4][H:12])([H:10])[H:11])([H:8])[H:9])([H:5])([H:6])[H:7]

>  <mol_properties>  (1) 
{"2": {"label": "donator", "atom_type": "Cs"}, "9": {"label": "d_hydrogen", "atom_type": "H0"}}

>  <level_of_theory>  (1) 
wb97xd/def2tzvp

>  <lot_method>  (1) 
wb97xd

>  <lot_basis>  (1) 
def2tzvp

>  <spin_multiplicity>  (1) 
1.0

>  <optical_isomers>  (1) 
2.0

>  <modes>  (1) 
IdealGasTranslation(mass=(60.0575, 'amu')),         NonlinearRotor(             inertia = ([35.1424, 100.065, 117.206

>  <frequency_value>  (1) 
unknown

>  <frequency_units>  (1) 
unknown

>  <frequency_list>  (1) 
unknown

>  <arkane_path>  (1) 
/home/calvin/Dropbox/PersonalFolders/Calvin/ZEUS_Converged/rmg_rxn_15485/output/Species/rmg_rxn_15485_r2_CCCO/arkane/output.py

>  <path_exists>  (1) 
True

>  <E0_value>  (1) 
-510044.1612319261

>  <E0_units>  (1) 
kJ/mol

>  <thermo_class>  (1) 
NASA

>  <Cp0_value>  (1) 
33.257888

>  <Cp0_units>  (1) 
J/(mol*K)

>  <CpInf_value>  (1) 
282.692048

>  <CpInf_units>  (1) 
J/(mol*K)

>  <Tmin_value>  (1) 
10.0

>  <Tmin_units>  (1) 
K

>  <Tmax_value>  (1) 
3000.0

>  <Tmax_units>  (1) 
K

>  <polynomials>  (1) 
[{"name": "polynomial1", "class": "NASAPolynomial", "Tmin_value": 10.0, "Tmin_units": "K", "Tmax_value": 846.6309193938728, "Tmax_units": "K", "coeffs": [3.872097774701738, 0.013345666554551246, 4.415013277136787e-05, -6.075836782335126e-08, 2.3383073067661656e-11, -61344143.92232225, 9.287814408278317]}, {"name": "polynomial2", "class": "NASAPolynomial", "Tmin_value": 846.6309193938728, "Tmin_units": "K", "Tmax_value": 3000.0, "Tmax_units": "K", "coeffs": [0.5209498099841658, 0.039762755770429016, -2.1406145636869936e-05, 5.6291996951626315e-09, -5.806863488298974e-13, -61343955.815359086, 22.65699895976629]}]

>  <H298_value>  (1) 
-121899.45329310188

>  <H298_units>  (1) 
kcal/mol

>  <S298_value>  (1) 
73.11930156339947

>  <S298_units>  (1) 
cal/(mol*K)

>  <Cp_T_value_list>  (1) 
[20.663443471560598, 25.802796904286783, 30.70057248897497, 35.13417722844269, 42.27610612073553, 47.54604838399181, 55.761173617687504, 59.943080131597, 62.009669940758435]

>  <Cp_T_units>  (1) 
cal/(mol*K)

>  <T_list>  (1) 
[300.0, 400.0, 500.0, 600.0, 800.0, 1000.0, 1500.0, 2000.0, 2400.0]

>  <T_units>  (1) 
K

>  <yaml_path>  (1) 
/home/calvin/Dropbox/PersonalFolders/Calvin/ZEUS_Converged/rmg_rxn_15485/output/Species/rmg_rxn_15485_r2_CCCO/rmg_rxn_15485_r2_CCCO.yml

>  <frequencies_cm1>  (1) 
[147.21443129015998, 221.70748804151998, 281.96528422451996, 327.68567248508, 495.52852767651996, 773.66203409248, 866.8264239289199, 907.7811243773999, 991.0089864557999, 1085.4025666645198, 1095.06441500976, 1132.10493382584, 1235.87194899636, 1297.47567430208, 1365.5206318379599, 1374.09062951732, 1401.64784160648, 1415.7594964390798, 1471.3065406925598, 1481.4628119808397, 1492.95814540652, 1498.9667575615201, 2976.8724711465998, 2996.07942908664, 3016.6597840906798, 3038.2633199074, 3059.4823045462003, 3086.4558228831597, 3100.9245609523996, 3838.2877106433593]

>  <ZPE_kJmol>  (1) 
283.9578863328584

>  <E_elec_kJmol>  (1) 
-510328.119118259

>  <E0_minus_Eelec_plus_ZPE_kJmol>  (1) 
0.0

>  <rxn>  (1) 
rmg_rxn_15485

>  <species_type>  (1) 
r1

>  <species_folder>  (1) 
rmg_rxn_15485_r2_CCCO

>  <frequencies_cm1_list>  (1) 
[147.21443129015998, 221.70748804151998, 281.96528422451996, 327.68567248508, 495.52852767651996, 773.66203409248, 866.8264239289199, 907.7811243773999, 991.0089864557999, 1085.4025666645198, 1095.06441500976, 1132.10493382584, 1235.87194899636, 1297.47567430208, 1365.5206318379599, 1374.09062951732, 1401.64784160648, 1415.7594964390798, 1471.3065406925598, 1481.4628119808397, 1492.95814540652, 1498.9667575615201, 2976.8724711465998, 2996.07942908664, 3016.6597840906798, 3038.2633199074, 3059.4823045462003, 3086.4558228831597, 3100.9245609523996, 3838.2877106433593]

>  <E0_kJmol>  (1) 
-510044

>  <H298_kJmol>  (1) 
-510027

$$$$

     RDKit          3D

  6  5  0  0  0  0  0  0  0  0999 V2000
    0.3328    0.9302   -0.5044 O   0  0  0  0  0  0  0  0  0  1  0  0
   -0.4781   -0.0380    0.1017 N   0  0  0  0  0  0  0  0  0  2  0  0
    0.1161   -1.0592    0.4897 C   0  0  0  0  0  0  0  0  0  3  0  0
   -0.2922    1.6185   -0.7441 H   0  0  0  0  0  0  0  0  0  4  0  0
    1.1804   -1.2807    0.4139 H   0  0  0  0  0  0  0  0  0  5  0  0
   -0.6325   -1.7180    0.9292 H   0  0  0  0  0  0  0  0  0  6  0  0
  1  4  1  0
  1  2  1  0
  2  3  1  0
  3  6  1  0
  3  5  1  0
M  END
>  <rmg_smiles>  (2) 
[CH2][N]O

>  <rmg_adjacency_list>  (2) 
1 O u0 p2 c0 {2,S} {6,S}
2 N u0 p1 c0 {1,S} {3,S}
3 C u0 p0 c0 {2,S} {4,S} {5,S}
4 H u0 p0 c0 {3,S}
5 H u0 p0 c0 {3,S}
6 H u0 p0 c0 {1,S}


>  <multiplicity>  (2) 
1

>  <reaction>  (2) 
rmg_rxn_15485

>  <type>  (2) 
r2h

>  <role_mapnums>  (2) 
{"r2h_a": 3, "r2h_h": 6}

>  <role_mapidx>  (2) 
{"r2h_a": 2, "r2h_h": 5}

>  <ordered_mapped_smiles>  (2) 
[O:1]([NH:2][CH:3]([H:5])[H:6])[H:4]

>  <mol_properties>  (2) 
{"2": {"label": "acceptor", "atom_type": "Cs"}, "5": {"label": "a_hydrogen", "atom_type": "H0"}}

>  <level_of_theory>  (2) 
wb97xd/def2tzvp

>  <lot_method>  (2) 
wb97xd

>  <lot_basis>  (2) 
def2tzvp

>  <spin_multiplicity>  (2) 
1.0

>  <optical_isomers>  (2) 
1.0

>  <modes>  (2) 
IdealGasTranslation(mass=(45.0215, 'amu')),         NonlinearRotor(             inertia = ([7.10552, 42.1368, 49.2423

>  <frequency_value>  (2) 
unknown

>  <frequency_units>  (2) 
unknown

>  <frequency_list>  (2) 
unknown

>  <arkane_path>  (2) 
/home/calvin/Dropbox/PersonalFolders/Calvin/ZEUS_Converged/rmg_rxn_15485/output/Species/rmg_rxn_15485_p1_ON=C/arkane/output.py

>  <path_exists>  (2) 
True

>  <E0_value>  (2) 
-445765.04652910994

>  <E0_units>  (2) 
kJ/mol

>  <thermo_class>  (2) 
NASA

>  <Cp0_value>  (2) 
33.257888

>  <Cp0_units>  (2) 
J/(mol*K)

>  <CpInf_value>  (2) 
133.031552

>  <CpInf_units>  (2) 
J/(mol*K)

>  <Tmin_value>  (2) 
10.0

>  <Tmin_units>  (2) 
K

>  <Tmax_value>  (2) 
3000.0

>  <Tmax_units>  (2) 
K

>  <polynomials>  (2) 
[{"name": "polynomial1", "class": "NASAPolynomial", "Tmin_value": 10.0, "Tmin_units": "K", "Tmax_value": 555.0008285415723, "Tmax_units": "K", "coeffs": [4.0729558966761115, -0.006525504673073184, 8.044401869233928e-05, -1.3643340673050255e-07, 7.605604608176978e-11, -53613151.050707266, 6.598063650688069]}, {"name": "polynomial2", "class": "NASAPolynomial", "Tmin_value": 555.0008285415723, "Tmin_units": "K", "Tmax_value": 3000.0, "Tmax_units": "K", "coeffs": [1.9629419554542669, 0.01794293278685335, -1.0716899102514014e-05, 3.1351804200574135e-09, -3.5588210478784073e-13, -53613059.472560614, 14.250328412630774]}]

>  <H298_value>  (2) 
-106537.6194767193

>  <H298_units>  (2) 
kcal/mol

>  <S298_value>  (2) 
60.36296822828259

>  <S298_units>  (2) 
cal/(mol*K)

>  <Cp_T_value_list>  (2) 
[12.494795700177992, 15.001608210431446, 17.130783734283074, 18.881829280437152, 21.69615330289245, 23.7834318087242, 26.9145239767162, 28.553257692891545, 29.47039525924992]

>  <Cp_T_units>  (2) 
cal/(mol*K)

>  <T_list>  (2) 
[300.0, 400.0, 500.0, 600.0, 800.0, 1000.0, 1500.0, 2000.0, 2400.0]

>  <T_units>  (2) 
K

>  <yaml_path>  (2) 
/home/calvin/Dropbox/PersonalFolders/Calvin/ZEUS_Converged/rmg_rxn_15485/output/Species/rmg_rxn_15485_p1_ON=C/rmg_rxn_15485_p1_ON=C.yml

>  <frequencies_cm1>  (2) 
[438.20980121048, 539.7244451960399, 801.7205361099999, 965.59427378648, 986.4836431299199, 1183.2914424011199, 1353.5034075279598, 1444.4016922088, 1728.97643085492, 3083.6403589019596, 3214.03754314344, 3841.1169085952]

>  <ZPE_kJmol>  (2) 
117.11863122037906

>  <E_elec_kJmol>  (2) 
-445882.1651603303

>  <E0_minus_Eelec_plus_ZPE_kJmol>  (2) 
0.0

>  <rxn>  (2) 
rmg_rxn_15485

>  <species_type>  (2) 
p0

>  <species_folder>  (2) 
rmg_rxn_15485_p1_ON=C

>  <frequencies_cm1_list>  (2) 
[438.20980121048, 539.7244451960399, 801.7205361099999, 965.59427378648, 986.4836431299199, 1183.2914424011199, 1353.5034075279598, 1444.4016922088, 1728.97643085492, 3083.6403589019596, 3214.03754314344, 3841.1169085952]

>  <E0_kJmol>  (2) 
-445765

>  <H298_kJmol>  (2) 
-445753

$$$$

     RDKit          3D

 17 15  0  0  0  0  0  0  0  0999 V2000
    1.5430    2.6765   -0.9424 O   0  0  0  0  0  0  0  0  0  1  0  0
    0.7321    1.7084   -0.3363 N   0  0  0  0  0  0  0  0  0  2  0  0
    1.3263    0.6872    0.0517 C   0  0  0  0  0  3  0  0  0  3  0  0
    0.9180    3.3649   -1.1821 H   0  0  0  0  0  0  0  0  0  4  0  0
    2.3906    0.4656   -0.0241 H   0  0  0  0  0  0  0  0  0  5  0  0
   -0.7416   -2.4933   -0.6042 C   0  0  0  0  0  0  0  0  0  6  0  0
   -0.9943   -2.0388    0.8279 C   0  0  0  0  0  0  0  0  0  7  0  0
   -0.8385   -0.5528    1.0178 C   0  0  0  0  0  0  0  0  0  8  0  0
   -1.7233    0.1660    0.2315 O   0  0  0  0  0  0  0  0  0  9  0  0
    0.2796   -2.2584   -0.9129 H   0  0  0  0  0  0  0  0  0 10  0  0
   -1.4224   -1.9928   -1.2922 H   0  0  0  0  0  0  0  0  0 11  0  0
   -0.8841   -3.5701   -0.7025 H   0  0  0  0  0  0  0  0  0 12  0  0
   -2.0087   -2.3182    1.1335 H   0  0  0  0  0  0  0  0  0 13  0  0
   -0.3106   -2.5426    1.5162 H   0  0  0  0  0  0  0  0  0 14  0  0
    0.3015   -0.2148    0.6533 H   0  0  0  0  0  0  0  0  0 15  0  0
   -0.8594   -0.2457    2.0713 H   0  0  0  0  0  0  0  0  0 16  0  0
   -1.3525    1.0447    0.0826 H   0  0  0  0  0  0  0  0  0 17  0  0
  1  4  1  0
  1  2  1  0
  2  3  1  0
  3  5  1  0
  6  7  1  0
  6 11  1  0
  6 12  1  0
  6 10  1  0
  7 13  1  0
  7 14  1  0
  7  8  1  0
  8 16  1  0
  8  9  1  0
  8 15  1  0
  9 17  1  0
M  RAD  1   3   2
M  END
>  <rmg_smiles>  (3) 
CCCO.[CH][N]O

>  <rmg_adjacency_list>  (3) 
multiplicity 2
1  O u0 p2 c0 {5,S} {15,S}
2  O u0 p2 c0 {3,S} {16,S}
3  N u0 p1 c0 {2,S} {7,S}
4  C u0 p0 c0 {5,S} {6,S} {8,S} {9,S}
5  C u0 p0 c0 {1,S} {4,S} {10,S} {11,S}
6  C u0 p0 c0 {4,S} {12,S} {13,S} {14,S}
7  C u1 p1 c0 {3,S} {17,S}
8  H u0 p0 c0 {4,S}
9  H u0 p0 c0 {4,S}
10 H u0 p0 c0 {5,S}
11 H u0 p0 c0 {5,S}
12 H u0 p0 c0 {6,S}
13 H u0 p0 c0 {6,S}
14 H u0 p0 c0 {6,S}
15 H u0 p0 c0 {1,S}
16 H u0 p0 c0 {2,S}
17 H u0 p0 c0 {7,S}


>  <multiplicity>  (3) 
2

>  <reaction>  (3) 
rmg_rxn_15485

>  <type>  (3) 
ts

>  <role_mapnums>  (3) 
{"*2": 15, "*1": 8, "*3": 3, "*0": 7, "*4": 2}

>  <role_mapidx>  (3) 
{"*2": 14, "*1": 7, "*3": 2, "*0": 6, "*4": 1}

>  <ordered_mapped_smiles>  (3) 
[O:1]([NH:2][CH:3][H:5])[H:4].[C:6]([C:7]([C:8]([O:9][H:17])([H:15])[H:16])([H:13])[H:14])([H:10])([H:11])[H:12]

>  <mol_properties>  (3) 
{"1": {"label": "*4", "atom_type": "N3s"}, "2": {"label": "*3", "atom_type": "C2s"}, "6": {"label": "*0", "atom_type": "Cs"}, "7": {"label": "*1", "atom_type": "Cs"}, "14": {"label": "*2", "atom_type": "H0"}}

>  <level_of_theory>  (3) 
wb97xd/def2tzvp

>  <lot_method>  (3) 
wb97xd

>  <lot_basis>  (3) 
def2tzvp

>  <spin_multiplicity>  (3) 
2.0

>  <optical_isomers>  (3) 
2.0

>  <modes>  (3) 
IdealGasTranslation(mass=(104.071, 'amu')),         NonlinearRotor(             inertia = ([104.574, 475.821, 512.997

>  <frequency_value>  (3) 
-1215.18

>  <frequency_units>  (3) 
cm^-1

>  <frequency_list>  (3) 
unknown

>  <arkane_path>  (3) 
/home/calvin/Dropbox/PersonalFolders/Calvin/ZEUS_Converged/rmg_rxn_15485/output/rxns/TS0/arkane/output.py

>  <path_exists>  (3) 
True

>  <E0_value>  (3) 
-954035.0

>  <E0_units>  (3) 
kJ/mol

>  <thermo_class>  (3) 
unknown

>  <Cp0_value>  (3) 
unknown

>  <Cp0_units>  (3) 
unknown

>  <CpInf_value>  (3) 
unknown

>  <CpInf_units>  (3) 
unknown

>  <Tmin_value>  (3) 
unknown

>  <Tmin_units>  (3) 
unknown

>  <Tmax_value>  (3) 
unknown

>  <Tmax_units>  (3) 
unknown

>  <polynomials>  (3) 
unknown

>  <H298_value>  (3) 
unknown

>  <H298_units>  (3) 
unknown

>  <S298_value>  (3) 
unknown

>  <S298_units>  (3) 
unknown

>  <Cp_T_value_list>  (3) 
unknown

>  <Cp_T_units>  (3) 
unknown

>  <T_list>  (3) 
unknown

>  <T_units>  (3) 
unknown

>  <yaml_path>  (3) 
unknown

>  <frequencies_cm1>  (3) 
unknown

>  <ZPE_kJmol>  (3) 
unknown

>  <E_elec_kJmol>  (3) 
unknown

>  <E0_minus_Eelec_plus_ZPE_kJmol>  (3) 
unknown

>  <rxn>  (3) 
unknown

>  <species_type>  (3) 
unknown

>  <species_folder>  (3) 
unknown

>  <frequencies_cm1_list>  (3) 
[]

>  <ts_imag_freq_cm1>  (3) 
-1229.9356

>  <ts_freq_out_path>  (3) 
/home/calvin/Dropbox/PersonalFolders/Calvin/ZEUS_Converged/rmg_rxn_15485/output/rxns/TS0/geometry/freq.out

>  <E0_kJmol>  (3) 
-954035

>  <H298_kJmol>  (3) 
unknown

$$$$

     RDKit          3D

 11 10  0  0  0  0  0  0  0  0999 V2000
   -1.2539    0.3276   -0.3920 C   0  0  0  0  0  0  0  0  0  1  0  0
   -0.2906   -0.4393    0.5264 C   0  0  0  0  0  0  0  0  0  2  0  0
    1.1244   -0.0144    0.4020 C   0  0  0  0  0  3  0  0  0  3  0  0
    1.3877    1.2382    0.8815 O   0  0  0  0  0  0  0  0  0  4  0  0
   -0.9932    0.1784   -1.4417 H   0  0  0  0  0  0  0  0  0  5  0  0
   -2.2818   -0.0101   -0.2464 H   0  0  0  0  0  0  0  0  0  6  0  0
   -1.2124    1.3968   -0.1817 H   0  0  0  0  0  0  0  0  0  7  0  0
   -0.6088   -0.3094    1.5657 H   0  0  0  0  0  0  0  0  0  8  0  0
   -0.3483   -1.5082    0.3078 H   0  0  0  0  0  0  0  0  0  9  0  0
    1.7380   -0.3574   -0.4276 H   0  0  0  0  0  0  0  0  0 10  0  0
    2.2967    1.4723    0.6918 H   0  0  0  0  0  0  0  0  0 11  0  0
  1  5  1  0
  1  7  1  0
  1  6  1  0
  1  2  1  0
  2  9  1  0
  2  8  1  0
  2  3  1  0
  3  4  1  0
  3 10  1  0
  4 11  1  0
M  RAD  1   3   2
M  END
>  <rmg_smiles>  (4) 
CC[CH]O

>  <rmg_adjacency_list>  (4) 
multiplicity 2
1  O u0 p2 c0 {4,S} {11,S}
2  C u0 p0 c0 {3,S} {4,S} {5,S} {6,S}
3  C u0 p0 c0 {2,S} {7,S} {8,S} {9,S}
4  C u1 p0 c0 {1,S} {2,S} {10,S}
5  H u0 p0 c0 {2,S}
6  H u0 p0 c0 {2,S}
7  H u0 p0 c0 {3,S}
8  H u0 p0 c0 {3,S}
9  H u0 p0 c0 {3,S}
10 H u0 p0 c0 {4,S}
11 H u0 p0 c0 {1,S}


>  <multiplicity>  (4) 
2

>  <reaction>  (4) 
rmg_rxn_15485

>  <type>  (4) 
r1

>  <role_mapnums>  (4) 
{}

>  <role_mapidx>  (4) 
{}

>  <ordered_mapped_smiles>  (4) 
[C:1]([C:2]([C:3]([O:4][H:11])[H:10])([H:8])[H:9])([H:5])([H:6])[H:7]

>  <level_of_theory>  (4) 
wb97xd/def2tzvp

>  <lot_method>  (4) 
wb97xd

>  <lot_basis>  (4) 
def2tzvp

>  <spin_multiplicity>  (4) 
2.0

>  <optical_isomers>  (4) 
2.0

>  <modes>  (4) 
IdealGasTranslation(mass=(59.0497, 'amu')),         NonlinearRotor(             inertia = ([30.0564, 102.615, 116.291

>  <frequency_value>  (4) 
unknown

>  <frequency_units>  (4) 
unknown

>  <frequency_list>  (4) 
unknown

>  <arkane_path>  (4) 
/home/calvin/Dropbox/PersonalFolders/Calvin/ZEUS_Converged/rmg_rxn_15485/output/Species/rmg_rxn_15485_p2_CCsbr-CH-sbrO/arkane/output.py

>  <path_exists>  (4) 
True

>  <E0_value>  (4) 
-508343.2143092861

>  <E0_units>  (4) 
kJ/mol

>  <thermo_class>  (4) 
NASA

>  <Cp0_value>  (4) 
33.257888

>  <Cp0_units>  (4) 
J/(mol*K)

>  <CpInf_value>  (4) 
257.748632

>  <CpInf_units>  (4) 
J/(mol*K)

>  <Tmin_value>  (4) 
10.0

>  <Tmin_units>  (4) 
K

>  <Tmax_value>  (4) 
3000.0

>  <Tmax_units>  (4) 
K

>  <polynomials>  (4) 
[{"name": "polynomial1", "class": "NASAPolynomial", "Tmin_value": 10.0, "Tmin_units": "K", "Tmax_value": 494.18064971781826, "Tmax_units": "K", "coeffs": [3.8264140254887606, 0.014666124374534536, 4.719211860272479e-05, -8.635009308609564e-08, 4.6029234010925446e-11, -61139564.00272207, 10.134133797394384]}, {"name": "polynomial2", "class": "NASAPolynomial", "Tmin_value": 494.18064971781826, "Tmin_units": "K", "Tmax_value": 3000.0, "Tmax_units": "K", "coeffs": [1.04291542363084, 0.0371964977543738, -2.1195430290309097e-05, 5.907722905138246e-09, -6.432126668919216e-13, -61139288.894472934, 21.60092498507134]}]

>  <H298_value>  (4) 
-121492.84707652304

>  <H298_units>  (4) 
kcal/mol

>  <S298_value>  (4) 
74.97439774853493

>  <S298_units>  (4) 
cal/(mol*K)

>  <Cp_T_value_list>  (4) 
[20.89532988902345, 25.62611122482154, 29.888721064860395, 33.6298273949556, 39.7368418605926, 44.33158256640444, 51.330029952045756, 54.895725769694174, 56.74853766097793]

>  <Cp_T_units>  (4) 
cal/(mol*K)

>  <T_list>  (4) 
[300.0, 400.0, 500.0, 600.0, 800.0, 1000.0, 1500.0, 2000.0, 2400.0]

>  <T_units>  (4) 
K

>  <yaml_path>  (4) 
/home/calvin/Dropbox/PersonalFolders/Calvin/ZEUS_Converged/rmg_rxn_15485/output/Species/rmg_rxn_15485_p2_CCsbr-CH-sbrO/rmg_rxn_15485_p2_CCsbr-CH-sbrO.yml

>  <frequencies_cm1>  (4) 
[111.245162184, 221.74182296812, 277.67341839951996, 370.39832117548, 478.1344538609599, 606.1693951523599, 782.28010066908, 883.4719963445999, 996.9832636841999, 1051.8298754350399, 1085.0729513691601, 1216.87100061592, 1239.7517957021598, 1312.6723128152398, 1331.6663942103598, 1387.1791035372398, 1443.7081266914797, 1460.35369910716, 1481.7306244083202, 1491.6328172397598, 3008.8176868552396, 3013.3910990783597, 3057.5458146859596, 3085.37770618792, 3099.79837535992, 3107.33832524128, 3862.7685133091595]

>  <ZPE_kJmol>  (4) 
248.01946210813009

>  <E_elec_kJmol>  (4) 
-508591.2337713942

>  <E0_minus_Eelec_plus_ZPE_kJmol>  (4) 
0.0

>  <rxn>  (4) 
rmg_rxn_15485

>  <species_type>  (4) 
p1

>  <species_folder>  (4) 
rmg_rxn_15485_p2_CCsbr-CH-sbrO

>  <frequencies_cm1_list>  (4) 
[111.245162184, 221.74182296812, 277.67341839951996, 370.39832117548, 478.1344538609599, 606.1693951523599, 782.28010066908, 883.4719963445999, 996.9832636841999, 1051.8298754350399, 1085.0729513691601, 1216.87100061592, 1239.7517957021598, 1312.6723128152398, 1331.6663942103598, 1387.1791035372398, 1443.7081266914797, 1460.35369910716, 1481.7306244083202, 1491.6328172397598, 3008.8176868552396, 3013.3910990783597, 3057.5458146859596, 3085.37770618792, 3099.79837535992, 3107.33832524128, 3862.7685133091595]

>  <E0_kJmol>  (4) 
-508343

>  <H298_kJmol>  (4) 
-508326

$$$$

     RDKit          3D

  5  4  0  0  0  0  0  0  0  0999 V2000
    0.8934    0.3742    0.4948 O   0  0  0  0  0  0  0  0  0  1  0  0
    0.1582   -0.1610   -0.5904 N   0  0  0  0  0  0  0  0  0  2  0  0
   -1.0297   -0.3739   -0.4689 C   0  0  0  0  0  3  0  0  0  3  0  0
    1.7804    0.4382    0.1306 H   0  0  0  0  0  0  0  0  0  4  0  0
   -1.8023   -0.2775    0.2859 H   0  0  0  0  0  0  0  0  0  5  0  0
  1  4  1  0
  1  2  1  0
  2  3  1  0
  3  5  1  0
M  RAD  1   3   2
M  END
>  <rmg_smiles>  (5) 
[CH][N]O

>  <rmg_adjacency_list>  (5) 
multiplicity 2
1 O u0 p2 c0 {2,S} {4,S}
2 N u0 p1 c0 {1,S} {3,S}
3 C u1 p1 c0 {2,S} {5,S}
4 H u0 p0 c0 {1,S}
5 H u0 p0 c0 {3,S}


>  <multiplicity>  (5) 
2

>  <reaction>  (5) 
rmg_rxn_15485

>  <type>  (5) 
r2

>  <role_mapnums>  (5) 
{}

>  <role_mapidx>  (5) 
{}

>  <ordered_mapped_smiles>  (5) 
[O:1]([NH:2][CH:3][H:5])[H:4]

>  <level_of_theory>  (5) 
wb97xd/def2tzvp

>  <lot_method>  (5) 
wb97xd

>  <lot_basis>  (5) 
def2tzvp

>  <spin_multiplicity>  (5) 
2.0

>  <optical_isomers>  (5) 
1.0

>  <modes>  (5) 
IdealGasTranslation(mass=(44.0136, 'amu')),         NonlinearRotor(inertia=([5.8161, 41.482, 47.298

>  <frequency_value>  (5) 
unknown

>  <frequency_units>  (5) 
unknown

>  <frequency_list>  (5) 
unknown

>  <arkane_path>  (5) 
/home/calvin/Dropbox/PersonalFolders/Calvin/ZEUS_Converged/rmg_rxn_15485/output/Species/rmg_rxn_15485_r1_ON=sbr-CH-sbr/arkane/output.py

>  <path_exists>  (5) 
True

>  <E0_value>  (5) 
-444005.3444875403

>  <E0_units>  (5) 
kJ/mol

>  <thermo_class>  (5) 
NASA

>  <Cp0_value>  (5) 
33.257888

>  <Cp0_units>  (5) 
J/(mol*K)

>  <CpInf_value>  (5) 
108.088136

>  <CpInf_units>  (5) 
J/(mol*K)

>  <Tmin_value>  (5) 
10.0

>  <Tmin_units>  (5) 
K

>  <Tmax_value>  (5) 
3000.0

>  <Tmax_units>  (5) 
K

>  <polynomials>  (5) 
[{"name": "polynomial1", "class": "NASAPolynomial", "Tmin_value": 10.0, "Tmin_units": "K", "Tmax_value": 582.3897944984312, "Tmax_units": "K", "coeffs": [3.9652725251487997, 0.0020023225588121428, 4.0599056262928875e-05, -7.75899274364692e-08, 4.4513181050887496e-11, -53401506.385814846, 6.827044892789236]}, {"name": "polynomial2", "class": "NASAPolynomial", "Tmin_value": 582.3897944984312, "Tmin_units": "K", "Tmax_value": 3000.0, "Tmax_units": "K", "coeffs": [3.5772944330084147, 0.012861032030441071, -8.472942585347425e-06, 2.741567682664952e-09, -3.4073253039207466e-13, -53401600.15572128, 7.296045717872725]}]

>  <H298_value>  (5) 
-106116.8465159924

>  <H298_units>  (5) 
kcal/mol

>  <S298_value>  (5) 
62.04111940413777

>  <S298_units>  (5) 
cal/(mol*K)

>  <Cp_T_value_list>  (5) 
[12.888053758950505, 14.776534941782554, 16.29416082392464, 17.47087173516364, 19.290917222749155, 20.599817847495114, 22.5201252902908, 23.62472390428687, 24.312211768096834]

>  <Cp_T_units>  (5) 
cal/(mol*K)

>  <T_list>  (5) 
[300.0, 400.0, 500.0, 600.0, 800.0, 1000.0, 1500.0, 2000.0, 2400.0]

>  <T_units>  (5) 
K

>  <yaml_path>  (5) 
/home/calvin/Dropbox/PersonalFolders/Calvin/ZEUS_Converged/rmg_rxn_15485/output/Species/rmg_rxn_15485_r1_ON=sbr-CH-sbr/rmg_rxn_15485_r1_ON=sbr-CH-sbr.yml

>  <frequencies_cm1>  (5) 
[408.41395190699996, 412.06718809724, 739.15543285948, 761.7272136063199, 904.39570061464, 1348.7789216278, 1755.3113195571198, 3153.319658944, 3818.4558570392]

>  <ZPE_kJmol>  (5) 
79.5614101222066

>  <E_elec_kJmol>  (5) 
-444084.9058976625

>  <E0_minus_Eelec_plus_ZPE_kJmol>  (5) 
0.0

>  <rxn>  (5) 
rmg_rxn_15485

>  <species_type>  (5) 
r0

>  <species_folder>  (5) 
rmg_rxn_15485_r1_ON=sbr-CH-sbr

>  <frequencies_cm1_list>  (5) 
[408.41395190699996, 412.06718809724, 739.15543285948, 761.7272136063199, 904.39570061464, 1348.7789216278, 1755.3113195571198, 3153.319658944, 3818.4558570392]

>  <E0_kJmol>  (5) 
-444005

>  <H298_kJmol>  (5) 
-443993

$$$$
