
     RDKit          3D

 10  9  0  0  0  0  0  0  0  0999 V2000
    0.8760   -0.9890   -1.3755 C   0  0  0  0  0  0  0  0  0  1  0  0
    0.4941   -0.2486   -0.3780 C   0  0  0  0  0  2  0  0  0  2  0  0
    0.0973    0.5194    0.6116 C   0  0  0  0  0  0  0  0  0  3  0  0
   -1.2911    0.7006    1.0298 C   0  0  0  0  0  0  0  0  0  4  0  0
    1.0111   -0.5721   -2.3684 H   0  0  0  0  0  0  0  0  0  5  0  0
    1.0769   -2.0489   -1.2540 H   0  0  0  0  0  0  0  0  0  6  0  0
    0.8695    1.0024    1.2046 H   0  0  0  0  0  0  0  0  0  7  0  0
   -1.4941   -0.1083    1.7263 H   0  0  0  0  0  0  0  0  0  8  0  0
   -2.0342    0.5251    0.2560 H   0  0  0  0  0  0  0  0  0  9  0  0
   -1.4806    1.6014    1.6061 H   0  0  0  0  0  0  0  0  0 10  0  0
  1  5  1  0
  1  6  1  0
  1  2  1  0
  2  3  1  0
  3  4  1  0
  3  7  1  0
  4  8  1  0
  4  9  1  0
  4 10  1  0
M  RAD  1   2   3
M  END
>  <rmg_smiles>  (1) 
[CH2][C][CH]C

>  <rmg_adjacency_list>  (1) 
1  C u0 p0 c0 {2,S} {5,S} {6,S} {7,S}
2  C u0 p0 c0 {1,S} {4,S} {8,S}
3  C u0 p0 c0 {4,S} {9,S} {10,S}
4  C u0 p1 c0 {2,S} {3,S}
5  H u0 p0 c0 {1,S}
6  H u0 p0 c0 {1,S}
7  H u0 p0 c0 {1,S}
8  H u0 p0 c0 {2,S}
9  H u0 p0 c0 {3,S}
10 H u0 p0 c0 {3,S}


>  <multiplicity>  (1) 
1

>  <reaction>  (1) 
rmg_rxn_14187

>  <type>  (1) 
r1h

>  <role_mapnums>  (1) 
{"r1h_a": 4, "r1h_h": 8}

>  <role_mapidx>  (1) 
{"r1h_a": 3, "r1h_h": 7}

>  <ordered_mapped_smiles>  (1) 
[CH:1]([C:2][CH:3]([C:4]([H:8])([H:9])[H:10])[H:7])([H:5])[H:6]

>  <mol_properties>  (1) 
{"3": {"label": "donator", "atom_type": "Cs"}, "7": {"label": "d_hydrogen", "atom_type": "H0"}}

>  <level_of_theory>  (1) 
wb97xd/def2tzvp

>  <lot_method>  (1) 
wb97xd

>  <lot_basis>  (1) 
def2tzvp

>  <spin_multiplicity>  (1) 
1.0

>  <optical_isomers>  (1) 
1.0

>  <modes>  (1) 
IdealGasTranslation(mass=(54.047, 'amu')),         NonlinearRotor(             inertia = ([14.6121, 119.467, 127.49

>  <frequency_value>  (1) 
unknown

>  <frequency_units>  (1) 
unknown

>  <frequency_list>  (1) 
unknown

>  <arkane_path>  (1) 
/home/calvin/Dropbox/PersonalFolders/Calvin/ZEUS_Converged/rmg_rxn_14187/output/Species/rmg_rxn_14187_r2_C=C=CC/arkane/output.py

>  <path_exists>  (1) 
True

>  <E0_value>  (1) 
-409296.6502421279

>  <E0_units>  (1) 
kJ/mol

>  <thermo_class>  (1) 
NASA

>  <Cp0_value>  (1) 
33.257888

>  <Cp0_units>  (1) 
J/(mol*K)

>  <CpInf_value>  (1) 
232.805216

>  <CpInf_units>  (1) 
J/(mol*K)

>  <Tmin_value>  (1) 
10.0

>  <Tmin_units>  (1) 
K

>  <Tmax_value>  (1) 
3000.0

>  <Tmax_units>  (1) 
K

>  <polynomials>  (1) 
[{"name": "polynomial1", "class": "NASAPolynomial", "Tmin_value": 10.0, "Tmin_units": "K", "Tmax_value": 452.8802664009696, "Tmax_units": "K", "coeffs": [3.9021943352433452, 0.007937521032632688, 6.664442489196733e-05, -1.2131953588307993e-07, 6.938885885775227e-11, -49227014.555544384, 8.255511443201872]}, {"name": "polynomial2", "class": "NASAPolynomial", "Tmin_value": 452.8802664009696, "Tmin_units": "K", "Tmax_value": 3000.0, "Tmax_units": "K", "coeffs": [0.958037882717614, 0.033941191741253485, -1.948265019694705e-05, 5.463813645242153e-09, -5.979209978345261e-13, -49226747.88374059, 20.12723627389473]}]

>  <H298_value>  (1) 
-97820.47439749332

>  <H298_units>  (1) 
kcal/mol

>  <S298_value>  (1) 
69.30943774444917

>  <S298_units>  (1) 
cal/(mol*K)

>  <Cp_T_value_list>  (1) 
[19.013335795722274, 23.35407848830737, 27.231838984706652, 30.626214617830076, 36.15654523435027, 40.30546036176962, 46.594544625367064, 49.786664420046236, 51.450781523093035]

>  <Cp_T_units>  (1) 
cal/(mol*K)

>  <T_list>  (1) 
[300.0, 400.0, 500.0, 600.0, 800.0, 1000.0, 1500.0, 2000.0, 2400.0]

>  <T_units>  (1) 
K

>  <yaml_path>  (1) 
/home/calvin/Dropbox/PersonalFolders/Calvin/ZEUS_Converged/rmg_rxn_14187/output/Species/rmg_rxn_14187_r2_C=C=CC/rmg_rxn_14187_r2_C=C=CC.yml

>  <frequencies_cm1>  (1) 
[164.84884959192, 210.28769145436, 340.98015606459995, 540.2944049775999, 574.7186023867599, 878.6239047086799, 884.0282221555199, 895.09093550604, 1017.79709618912, 1055.91573170044, 1088.91159616304, 1146.5530709391198, 1353.77808694076, 1399.01778622892, 1463.354571692, 1470.3726306890399, 1494.8053644576, 2061.4346581373993, 3012.63573069316, 3072.0282867258397, 3106.42501619372, 3110.62074422424, 3124.134971334, 3189.66661224276]

>  <ZPE_kJmol>  (1) 
219.25357474583132

>  <E_elec_kJmol>  (1) 
-409515.9038168737

>  <E0_minus_Eelec_plus_ZPE_kJmol>  (1) 
0.0

>  <rxn>  (1) 
rmg_rxn_14187

>  <species_type>  (1) 
r1

>  <species_folder>  (1) 
rmg_rxn_14187_r2_C=C=CC

>  <frequencies_cm1_list>  (1) 
[164.84884959192, 210.28769145436, 340.98015606459995, 540.2944049775999, 574.7186023867599, 878.6239047086799, 884.0282221555199, 895.09093550604, 1017.79709618912, 1055.91573170044, 1088.91159616304, 1146.5530709391198, 1353.77808694076, 1399.01778622892, 1463.354571692, 1470.3726306890399, 1494.8053644576, 2061.4346581373993, 3012.63573069316, 3072.0282867258397, 3106.42501619372, 3110.62074422424, 3124.134971334, 3189.66661224276]

>  <E0_kJmol>  (1) 
-409297

>  <H298_kJmol>  (1) 
-409281

$$$$

     RDKit          3D

  9  8  0  0  0  0  0  0  0  0999 V2000
   -0.8170   -0.6432   -0.7776 C   0  0  0  0  0  0  0  0  0  1  0  0
   -0.3137    0.3619    0.2193 C   0  0  0  0  0  0  0  0  0  2  0  0
    1.0115    0.2391    0.5861 O   0  0  0  0  0  0  0  0  0  3  0  0
   -0.7198   -1.6634   -0.3946 H   0  0  0  0  0  0  0  0  0  4  0  0
   -1.8675   -0.4575   -1.0062 H   0  0  0  0  0  0  0  0  0  5  0  0
   -0.2529   -0.5737   -1.7126 H   0  0  0  0  0  0  0  0  0  6  0  0
   -0.9183    0.4752    1.1172 H   0  0  0  0  0  0  0  0  0  7  0  0
    1.5487    0.2202   -0.2128 H   0  0  0  0  0  0  0  0  0  8  0  0
   -0.3668    1.3115   -0.3096 H   0  0  0  0  0  0  0  0  0  9  0  0
  1  5  1  0
  1  4  1  0
  1  6  1  0
  1  2  1  0
  2  9  1  0
  2  7  1  0
  2  3  1  0
  3  8  1  0
M  END
>  <rmg_smiles>  (2) 
CCO

>  <rmg_adjacency_list>  (2) 
1 O u0 p2 c0 {2,S} {9,S}
2 C u0 p0 c0 {1,S} {3,S} {4,S} {5,S}
3 C u0 p0 c0 {2,S} {6,S} {7,S} {8,S}
4 H u0 p0 c0 {2,S}
5 H u0 p0 c0 {2,S}
6 H u0 p0 c0 {3,S}
7 H u0 p0 c0 {3,S}
8 H u0 p0 c0 {3,S}
9 H u0 p0 c0 {1,S}


>  <multiplicity>  (2) 
1

>  <reaction>  (2) 
rmg_rxn_14187

>  <type>  (2) 
r2h

>  <role_mapnums>  (2) 
{"r2h_a": 2, "r2h_h": 9}

>  <role_mapidx>  (2) 
{"r2h_a": 1, "r2h_h": 8}

>  <ordered_mapped_smiles>  (2) 
[C:1]([C:2]([O:3][H:8])([H:7])[H:9])([H:4])([H:5])[H:6]

>  <mol_properties>  (2) 
{"1": {"label": "acceptor", "atom_type": "Cs"}, "8": {"label": "a_hydrogen", "atom_type": "H0"}}

>  <level_of_theory>  (2) 
wb97xd/def2tzvp

>  <lot_method>  (2) 
wb97xd

>  <lot_basis>  (2) 
def2tzvp

>  <spin_multiplicity>  (2) 
1.0

>  <optical_isomers>  (2) 
2.0

>  <modes>  (2) 
IdealGasTranslation(mass=(46.0419, 'amu')),         NonlinearRotor(             inertia = ([14.5784, 54.5856, 61.8154

>  <frequency_value>  (2) 
unknown

>  <frequency_units>  (2) 
unknown

>  <frequency_list>  (2) 
unknown

>  <arkane_path>  (2) 
/home/calvin/Dropbox/PersonalFolders/Calvin/ZEUS_Converged/rmg_rxn_14187/output/Species/rmg_rxn_14187_p1_CCO/arkane/output.py

>  <path_exists>  (2) 
True

>  <E0_value>  (2) 
-406893.3272689957

>  <E0_units>  (2) 
kJ/mol

>  <thermo_class>  (2) 
NASA

>  <Cp0_value>  (2) 
33.257888

>  <Cp0_units>  (2) 
J/(mol*K)

>  <CpInf_value>  (2) 
207.8618

>  <CpInf_units>  (2) 
J/(mol*K)

>  <Tmin_value>  (2) 
10.0

>  <Tmin_units>  (2) 
K

>  <Tmax_value>  (2) 
3000.0

>  <Tmax_units>  (2) 
K

>  <polynomials>  (2) 
[{"name": "polynomial1", "class": "NASAPolynomial", "Tmin_value": 10.0, "Tmin_units": "K", "Tmax_value": 551.3187644177538, "Tmax_units": "K", "coeffs": [3.9713940621371306, 0.0023957688295192063, 5.809032256050214e-05, -8.561591068586481e-08, 4.0358423418077714e-11, -48937962.79914544, 7.862489799764338]}, {"name": "polynomial2", "class": "NASAPolynomial", "Tmin_value": 551.3187644177538, "Tmin_units": "K", "Tmax_value": 3000.0, "Tmax_units": "K", "coeffs": [0.19952339087951126, 0.02976190624661279, -1.6365982652687387e-05, 4.418171321701085e-09, -4.682193007149357e-13, -48937546.89804419, 23.81365918801819]}]

>  <H298_value>  (2) 
-97246.55405342489

>  <H298_units>  (2) 
kcal/mol

>  <S298_value>  (2) 
65.78744884704368

>  <S298_units>  (2) 
cal/(mol*K)

>  <Cp_T_value_list>  (2) 
[15.765557190227591, 19.430727429073556, 22.877261252275424, 25.95004969734455, 31.01063681206419, 34.86633096617534, 40.85674665583515, 43.94362801037231, 45.51188954534454]

>  <Cp_T_units>  (2) 
cal/(mol*K)

>  <T_list>  (2) 
[300.0, 400.0, 500.0, 600.0, 800.0, 1000.0, 1500.0, 2000.0, 2400.0]

>  <T_units>  (2) 
K

>  <yaml_path>  (2) 
/home/calvin/Dropbox/PersonalFolders/Calvin/ZEUS_Converged/rmg_rxn_14187/output/Species/rmg_rxn_14187_p1_CCO/rmg_rxn_14187_p1_CCO.yml

>  <frequencies_cm1>  (2) 
[261.26819047004, 286.81337586044, 426.24064579772, 804.5016651646, 891.82911747904, 1059.86424825944, 1088.932197119, 1140.44145400432, 1273.9562495810799, 1364.90260315916, 1391.5053042888399, 1416.6247365893998, 1475.59153953224, 1480.8997191846001, 1506.73331795844, 2975.9454281283997, 3008.37133280944, 3061.6454049219997, 3084.9794210393593, 3098.7957955031998, 3839.53063498628]

>  <ZPE_kJmol>  (2) 
208.9839162086533

>  <E_elec_kJmol>  (2) 
-407102.3111852043

>  <E0_minus_Eelec_plus_ZPE_kJmol>  (2) 
0.0

>  <rxn>  (2) 
rmg_rxn_14187

>  <species_type>  (2) 
p0

>  <species_folder>  (2) 
rmg_rxn_14187_p1_CCO

>  <frequencies_cm1_list>  (2) 
[261.26819047004, 286.81337586044, 426.24064579772, 804.5016651646, 891.82911747904, 1059.86424825944, 1088.932197119, 1140.44145400432, 1273.9562495810799, 1364.90260315916, 1391.5053042888399, 1416.6247365893998, 1475.59153953224, 1480.8997191846001, 1506.73331795844, 2975.9454281283997, 3008.37133280944, 3061.6454049219997, 3084.9794210393593, 3098.7957955031998, 3839.53063498628]

>  <E0_kJmol>  (2) 
-406893

>  <H298_kJmol>  (2) 
-406880

$$$$

     RDKit          3D

 18 16  0  0  0  0  0  0  0  0999 V2000
   -1.2188   -1.6883    0.5311 C   0  0  0  0  0  0  0  0  0  1  0  0
   -0.7155   -0.6832    1.5280 C   0  0  0  0  0  3  0  0  0  2  0  0
    0.6098   -0.8060    1.8948 O   0  0  0  0  0  0  0  0  0  3  0  0
   -1.1215   -2.7085    0.9141 H   0  0  0  0  0  0  0  0  0  4  0  0
   -2.2693   -1.5026    0.3024 H   0  0  0  0  0  0  0  0  0  5  0  0
   -0.6546   -1.6188   -0.4040 H   0  0  0  0  0  0  0  0  0  6  0  0
   -1.3200   -0.5699    2.4259 H   0  0  0  0  0  0  0  0  0  7  0  0
    1.1469   -0.8249    1.0959 H   0  0  0  0  0  0  0  0  0  8  0  0
    1.6357   -0.1810   -2.4019 C   0  0  0  0  0  0  0  0  0  9  0  0
    1.2538    0.5594   -1.4044 C   0  0  0  0  0  0  0  0  0 10  0  0
    0.8570    1.3274   -0.4148 C   0  0  0  0  0  0  0  0  0 11  0  0
   -0.5314    1.5086    0.0034 C   0  0  0  0  0  0  0  0  0 12  0  0
    1.7708    0.2359   -3.3948 H   0  0  0  0  0  0  0  0  0 13  0  0
    1.8366   -1.2409   -2.2805 H   0  0  0  0  0  0  0  0  0 14  0  0
    1.6292    1.8104    0.1782 H   0  0  0  0  0  0  0  0  0 15  0  0
   -0.7821    0.5096    0.8636 H   0  0  0  0  0  0  0  0  0 16  0  0
   -1.2745    1.3331   -0.7704 H   0  0  0  0  0  0  0  0  0 17  0  0
   -0.7209    2.4095    0.5797 H   0  0  0  0  0  0  0  0  0 18  0  0
  1  5  1  0
  1  4  1  0
  1  6  1  0
  1  2  1  0
  2  7  1  0
  2  3  1  0
  3  8  1  0
  9 10  1  0
  9 14  1  0
  9 13  1  0
 10 11  1  0
 11 12  1  0
 11 15  1  0
 12 17  1  0
 12 18  1  0
 12 16  1  0
M  RAD  1   2   2
M  END
>  <rmg_smiles>  (3) 
C[CH]O.[CH2]C[CH]C

>  <rmg_adjacency_list>  (3) 
multiplicity 2
1  O u0 p2 c0 {5,S} {18,S}
2  C u0 p0 c0 {5,S} {8,S} {9,S} {10,S}
3  C u0 p0 c0 {4,S} {11,S} {12,S} {13,S}
4  C u0 p0 c0 {3,S} {7,S} {15,S}
5  C u1 p0 c0 {1,S} {2,S} {14,S}
6  C u0 p0 c0 {7,S} {16,S} {17,S}
7  C u0 p1 c0 {4,S} {6,S}
8  H u0 p0 c0 {2,S}
9  H u0 p0 c0 {2,S}
10 H u0 p0 c0 {2,S}
11 H u0 p0 c0 {3,S}
12 H u0 p0 c0 {3,S}
13 H u0 p0 c0 {3,S}
14 H u0 p0 c0 {5,S}
15 H u0 p0 c0 {4,S}
16 H u0 p0 c0 {6,S}
17 H u0 p0 c0 {6,S}
18 H u0 p0 c0 {1,S}


>  <multiplicity>  (3) 
2

>  <reaction>  (3) 
rmg_rxn_14187

>  <type>  (3) 
ts

>  <role_mapnums>  (3) 
{"*2": 16, "*1": 12, "*3": 2, "*0": 11, "*4": 3}

>  <role_mapidx>  (3) 
{"*2": 15, "*1": 11, "*3": 1, "*0": 10, "*4": 2}

>  <ordered_mapped_smiles>  (3) 
[C:1]([C:2]([O:3][H:8])[H:7])([H:4])([H:5])[H:6].[CH:9]([CH2:10][CH:11]([C:12]([H:16])([H:17])[H:18])[H:15])([H:13])[H:14]

>  <mol_properties>  (3) 
{"1": {"label": "*3", "atom_type": "Cs"}, "2": {"label": "*4", "atom_type": "O2s"}, "10": {"label": "*0", "atom_type": "Cs"}, "11": {"label": "*1", "atom_type": "Cs"}, "15": {"label": "*2", "atom_type": "H0"}}

>  <level_of_theory>  (3) 
wb97xd/def2tzvp

>  <lot_method>  (3) 
wb97xd

>  <lot_basis>  (3) 
def2tzvp

>  <spin_multiplicity>  (3) 
2.0

>  <optical_isomers>  (3) 
2.0

>  <modes>  (3) 
IdealGasTranslation(mass=(99.081, 'amu')),         NonlinearRotor(             inertia = ([155.86, 350.102, 391.454

>  <frequency_value>  (3) 
-1719.24

>  <frequency_units>  (3) 
cm^-1

>  <frequency_list>  (3) 
unknown

>  <arkane_path>  (3) 
/home/calvin/Dropbox/PersonalFolders/Calvin/ZEUS_Converged/rmg_rxn_14187/output/rxns/TS0/arkane/output.py

>  <path_exists>  (3) 
True

>  <E0_value>  (3) 
-814442.0

>  <E0_units>  (3) 
kJ/mol

>  <thermo_class>  (3) 
unknown

>  <Cp0_value>  (3) 
unknown

>  <Cp0_units>  (3) 
unknown

>  <CpInf_value>  (3) 
unknown

>  <CpInf_units>  (3) 
unknown

>  <Tmin_value>  (3) 
unknown

>  <Tmin_units>  (3) 
unknown

>  <Tmax_value>  (3) 
unknown

>  <Tmax_units>  (3) 
unknown

>  <polynomials>  (3) 
unknown

>  <H298_value>  (3) 
unknown

>  <H298_units>  (3) 
unknown

>  <S298_value>  (3) 
unknown

>  <S298_units>  (3) 
unknown

>  <Cp_T_value_list>  (3) 
unknown

>  <Cp_T_units>  (3) 
unknown

>  <T_list>  (3) 
unknown

>  <T_units>  (3) 
unknown

>  <yaml_path>  (3) 
unknown

>  <frequencies_cm1>  (3) 
unknown

>  <ZPE_kJmol>  (3) 
unknown

>  <E_elec_kJmol>  (3) 
unknown

>  <E0_minus_Eelec_plus_ZPE_kJmol>  (3) 
unknown

>  <rxn>  (3) 
unknown

>  <species_type>  (3) 
unknown

>  <species_folder>  (3) 
unknown

>  <frequencies_cm1_list>  (3) 
[]

>  <ts_imag_freq_cm1>  (3) 
-1740.1264

>  <ts_freq_out_path>  (3) 
/home/calvin/Dropbox/PersonalFolders/Calvin/ZEUS_Converged/rmg_rxn_14187/output/rxns/TS0/geometry/freq.out

>  <E0_kJmol>  (3) 
-814442

>  <H298_kJmol>  (3) 
unknown

$$$$

     RDKit          3D

  9  8  0  0  0  0  0  0  0  0999 V2000
    1.8962   -0.1368   -0.2185 C   0  0  0  0  0  0  0  0  0  1  0  0
    0.6332    0.1497   -0.2267 C   0  0  0  0  0  3  0  0  0  2  0  0
   -0.6783    0.4486   -0.2362 C   0  0  0  0  0  0  0  0  0  3  0  0
   -1.6587   -0.2335    0.4694 C   0  0  0  0  0  0  0  0  0  4  0  0
    2.3273   -0.8311   -0.9354 H   0  0  0  0  0  0  0  0  0  5  0  0
    2.5755    0.3040    0.5069 H   0  0  0  0  0  0  0  0  0  6  0  0
   -0.9764    1.2944   -0.8506 H   0  0  0  0  0  0  0  0  0  7  0  0
   -2.6928    0.0726    0.4065 H   0  0  0  0  0  0  0  0  0  8  0  0
   -1.4099   -1.0807    1.0934 H   0  0  0  0  0  0  0  0  0  9  0  0
  1  5  1  0
  1  6  1  0
  1  2  1  0
  2  3  1  0
  3  4  1  0
  3  7  1  0
  4  8  1  0
  4  9  1  0
M  RAD  1   2   2
M  END
>  <rmg_smiles>  (4) 
[CH2][C][CH][CH2]

>  <rmg_adjacency_list>  (4) 
multiplicity 2
1 C u0 p0 c0 {2,S} {4,S} {5,S}
2 C u0 p0 c0 {1,S} {6,S} {7,S}
3 C u0 p0 c0 {4,S} {8,S} {9,S}
4 C u1 p1 c0 {1,S} {3,S}
5 H u0 p0 c0 {1,S}
6 H u0 p0 c0 {2,S}
7 H u0 p0 c0 {2,S}
8 H u0 p0 c0 {3,S}
9 H u0 p0 c0 {3,S}


>  <multiplicity>  (4) 
2

>  <reaction>  (4) 
rmg_rxn_14187

>  <type>  (4) 
r1

>  <role_mapnums>  (4) 
{}

>  <role_mapidx>  (4) 
{}

>  <ordered_mapped_smiles>  (4) 
[CH:1]([CH:2][CH:3]([CH:4]([H:8])[H:9])[H:7])([H:5])[H:6]

>  <level_of_theory>  (4) 
wb97xd/def2tzvp

>  <lot_method>  (4) 
wb97xd

>  <lot_basis>  (4) 
def2tzvp

>  <spin_multiplicity>  (4) 
2.0

>  <optical_isomers>  (4) 
1.0

>  <modes>  (4) 
IdealGasTranslation(mass=(53.0391, 'amu')),         NonlinearRotor(             inertia = ([12.0347, 113.266, 121.844

>  <frequency_value>  (4) 
unknown

>  <frequency_units>  (4) 
unknown

>  <frequency_list>  (4) 
unknown

>  <arkane_path>  (4) 
/home/calvin/Dropbox/PersonalFolders/Calvin/ZEUS_Converged/rmg_rxn_14187/output/Species/rmg_rxn_14187_p2_C=sbr-C-sbrC=C/arkane/output.py

>  <path_exists>  (4) 
True

>  <E0_value>  (4) 
-407618.7322871182

>  <E0_units>  (4) 
kJ/mol

>  <thermo_class>  (4) 
NASA

>  <Cp0_value>  (4) 
33.257888

>  <Cp0_units>  (4) 
J/(mol*K)

>  <CpInf_value>  (4) 
207.8618

>  <CpInf_units>  (4) 
J/(mol*K)

>  <Tmin_value>  (4) 
10.0

>  <Tmin_units>  (4) 
K

>  <Tmax_value>  (4) 
3000.0

>  <Tmax_units>  (4) 
K

>  <polynomials>  (4) 
[{"name": "polynomial1", "class": "NASAPolynomial", "Tmin_value": 10.0, "Tmin_units": "K", "Tmax_value": 514.1627669615141, "Tmax_units": "K", "coeffs": [3.9420033650092194, 0.003572324131280511, 9.462342675756363e-05, -1.8676284311886954e-07, 1.149785738012023e-10, -49025207.30228202, 8.656389036962679]}, {"name": "polynomial2", "class": "NASAPolynomial", "Tmin_value": 514.1627669615141, "Tmin_units": "K", "Tmax_value": 3000.0, "Tmax_units": "K", "coeffs": [2.029834550148665, 0.030448893080009667, -1.8795396905939947e-05, 5.691011797771398e-09, -6.697030625419615e-13, -49025169.29486995, 15.066930145553966]}]

>  <H298_value>  (4) 
-97419.52666136409

>  <H298_units>  (4) 
kcal/mol

>  <S298_value>  (4) 
69.4719153890684

>  <S298_units>  (4) 
cal/(mol*K)

>  <Cp_T_value_list>  (4) 
[18.71658132650381, 22.855479647781404, 26.28046336634898, 29.16283674573409, 33.78128373497921, 37.16998113185326, 42.18903825802206, 44.829149945703655, 46.30012006236418]

>  <Cp_T_units>  (4) 
cal/(mol*K)

>  <T_list>  (4) 
[300.0, 400.0, 500.0, 600.0, 800.0, 1000.0, 1500.0, 2000.0, 2400.0]

>  <T_units>  (4) 
K

>  <yaml_path>  (4) 
/home/calvin/Dropbox/PersonalFolders/Calvin/ZEUS_Converged/rmg_rxn_14187/output/Species/rmg_rxn_14187_p2_C=sbr-C-sbrC=C/rmg_rxn_14187_p2_C=sbr-C-sbrC=C.yml

>  <frequencies_cm1>  (4) 
[209.8207364526, 213.04821955299997, 498.82468063011993, 525.2763080827599, 574.87654304912, 748.93401995516, 893.7518733686398, 905.4944182658398, 936.5057239709599, 975.15311735192, 1080.3828003955998, 1184.87084902472, 1365.78157728012, 1440.54244645896, 1485.45939743708, 1902.75236136284, 3071.2179824580794, 3118.0576893257994, 3138.67924624176, 3141.52904514956, 3241.1758691280797]

>  <ZPE_kJmol>  (4) 
183.34053407098105

>  <E_elec_kJmol>  (4) 
-407802.0728211892

>  <E0_minus_Eelec_plus_ZPE_kJmol>  (4) 
0.0

>  <rxn>  (4) 
rmg_rxn_14187

>  <species_type>  (4) 
p1

>  <species_folder>  (4) 
rmg_rxn_14187_p2_C=sbr-C-sbrC=C

>  <frequencies_cm1_list>  (4) 
[209.8207364526, 213.04821955299997, 498.82468063011993, 525.2763080827599, 574.87654304912, 748.93401995516, 893.7518733686398, 905.4944182658398, 936.5057239709599, 975.15311735192, 1080.3828003955998, 1184.87084902472, 1365.78157728012, 1440.54244645896, 1485.45939743708, 1902.75236136284, 3071.2179824580794, 3118.0576893257994, 3138.67924624176, 3141.52904514956, 3241.1758691280797]

>  <E0_kJmol>  (4) 
-407619

>  <H298_kJmol>  (4) 
-407603

$$$$

     RDKit          3D

  8  7  0  0  0  0  0  0  0  0999 V2000
   -0.9179    0.2391    0.1982 C   0  0  0  0  0  0  0  0  0  1  0  0
    0.4678   -0.2407    0.0057 C   0  0  0  0  0  3  0  0  0  2  0  0
    0.5690   -1.5483   -0.3772 O   0  0  0  0  0  0  0  0  0  3  0  0
   -1.4185   -0.2635    1.0380 H   0  0  0  0  0  0  0  0  0  4  0  0
   -0.9217    1.3106    0.3990 H   0  0  0  0  0  0  0  0  0  5  0  0
   -1.5211    0.0525   -0.6941 H   0  0  0  0  0  0  0  0  0  6  0  0
    1.2867    0.1607    0.5960 H   0  0  0  0  0  0  0  0  0  7  0  0
    1.4925   -1.7959   -0.4346 H   0  0  0  0  0  0  0  0  0  8  0  0
  1  5  1  0
  1  4  1  0
  1  6  1  0
  1  2  1  0
  2  7  1  0
  2  3  1  0
  3  8  1  0
M  RAD  1   2   2
M  END
>  <rmg_smiles>  (5) 
C[CH]O

>  <rmg_adjacency_list>  (5) 
multiplicity 2
1 O u0 p2 c0 {3,S} {8,S}
2 C u0 p0 c0 {3,S} {4,S} {5,S} {6,S}
3 C u1 p0 c0 {1,S} {2,S} {7,S}
4 H u0 p0 c0 {2,S}
5 H u0 p0 c0 {2,S}
6 H u0 p0 c0 {2,S}
7 H u0 p0 c0 {3,S}
8 H u0 p0 c0 {1,S}


>  <multiplicity>  (5) 
2

>  <reaction>  (5) 
rmg_rxn_14187

>  <type>  (5) 
r2

>  <role_mapnums>  (5) 
{}

>  <role_mapidx>  (5) 
{}

>  <ordered_mapped_smiles>  (5) 
[C:1]([C:2]([O:3][H:8])[H:7])([H:4])([H:5])[H:6]

>  <level_of_theory>  (5) 
wb97xd/def2tzvp

>  <lot_method>  (5) 
wb97xd

>  <lot_basis>  (5) 
def2tzvp

>  <spin_multiplicity>  (5) 
2.0

>  <optical_isomers>  (5) 
2.0

>  <modes>  (5) 
IdealGasTranslation(mass=(45.034, 'amu')),         NonlinearRotor(             inertia = ([10.8338, 53.2179, 60.5982

>  <frequency_value>  (5) 
unknown

>  <frequency_units>  (5) 
unknown

>  <frequency_list>  (5) 
unknown

>  <arkane_path>  (5) 
/home/calvin/Dropbox/PersonalFolders/Calvin/ZEUS_Converged/rmg_rxn_14187/output/Species/rmg_rxn_14187_r1_Csbr-CH-sbrO/arkane/output.py

>  <path_exists>  (5) 
True

>  <E0_value>  (5) 
-405194.8000162545

>  <E0_units>  (5) 
kJ/mol

>  <thermo_class>  (5) 
NASA

>  <Cp0_value>  (5) 
33.257888

>  <Cp0_units>  (5) 
J/(mol*K)

>  <CpInf_value>  (5) 
182.918384

>  <CpInf_units>  (5) 
J/(mol*K)

>  <Tmin_value>  (5) 
10.0

>  <Tmin_units>  (5) 
K

>  <Tmax_value>  (5) 
3000.0

>  <Tmax_units>  (5) 
K

>  <polynomials>  (5) 
[{"name": "polynomial1", "class": "NASAPolynomial", "Tmin_value": 10.0, "Tmin_units": "K", "Tmax_value": 399.2865433149553, "Tmax_units": "K", "coeffs": [3.943839647090331, 0.0040029715203587874, 6.200290875456476e-05, -1.2212092072707224e-07, 7.834511708431171e-11, -48733676.15854827, 8.433363716719372]}, {"name": "polynomial2", "class": "NASAPolynomial", "Tmin_value": 399.2865433149553, "Tmin_units": "K", "Tmax_value": 3000.0, "Tmax_units": "K", "coeffs": [1.9426743057438944, 0.02405051330925395, -1.3310195713217205e-05, 3.626027625575596e-09, -3.876701796208826e-13, -48733516.351914, 16.250594827794952]}]

>  <H298_value>  (5) 
-96840.50777272848

>  <H298_units>  (5) 
kcal/mol

>  <S298_value>  (5) 
67.41584770758325

>  <S298_units>  (5) 
cal/(mol*K)

>  <Cp_T_value_list>  (5) 
[16.021501631989707, 19.18725323429988, 21.997195761729, 24.471040613082454, 28.54084824894239, 31.639008927811634, 36.45682718287369, 38.96597215017236, 40.263622928210694]

>  <Cp_T_units>  (5) 
cal/(mol*K)

>  <T_list>  (5) 
[300.0, 400.0, 500.0, 600.0, 800.0, 1000.0, 1500.0, 2000.0, 2400.0]

>  <T_units>  (5) 
K

>  <yaml_path>  (5) 
/home/calvin/Dropbox/PersonalFolders/Calvin/ZEUS_Converged/rmg_rxn_14187/output/Species/rmg_rxn_14187_r1_Csbr-CH-sbrO/rmg_rxn_14187_r1_Csbr-CH-sbrO.yml

>  <frequencies_cm1>  (5) 
[178.27380589252002, 359.24633701579995, 410.21996904616, 560.5520116716, 930.3872400508399, 1013.14128014216, 1057.07625221952, 1218.6495498138, 1274.169126126, 1382.02886454724, 1444.1819486785598, 1454.19401327512, 1476.1477653431598, 2951.5607632570795, 3038.31138880464, 3095.78805593304, 3116.8490999094797, 3859.56849815004]

>  <ZPE_kJmol>  (5) 
172.38399996000294

>  <E_elec_kJmol>  (5) 
-405367.1840162145

>  <E0_minus_Eelec_plus_ZPE_kJmol>  (5) 
0.0

>  <rxn>  (5) 
rmg_rxn_14187

>  <species_type>  (5) 
r0

>  <species_folder>  (5) 
rmg_rxn_14187_r1_Csbr-CH-sbrO

>  <frequencies_cm1_list>  (5) 
[178.27380589252002, 359.24633701579995, 410.21996904616, 560.5520116716, 930.3872400508399, 1013.14128014216, 1057.07625221952, 1218.6495498138, 1274.169126126, 1382.02886454724, 1444.1819486785598, 1454.19401327512, 1476.1477653431598, 2951.5607632570795, 3038.31138880464, 3095.78805593304, 3116.8490999094797, 3859.56849815004]

>  <E0_kJmol>  (5) 
-405195

>  <H298_kJmol>  (5) 
-405181

$$$$
