
     RDKit          3D

 18 17  0  0  0  0  0  0  0  0999 V2000
    0.8612   -1.5989   -1.8100 C   0  0  0  0  0  0  0  0  0  1  0  0
    0.6418   -1.8712   -0.3264 C   0  0  0  0  0  0  0  0  0  2  0  0
    0.6674   -0.6334    0.5324 C   0  0  0  0  0  0  0  0  0  3  0  0
   -0.2613    0.3000    0.1161 O   0  0  0  0  0  0  0  0  0  4  0  0
   -0.5623    1.2923    1.0815 C   0  0  0  0  0  0  0  0  0  5  0  0
   -1.3358    2.4027    0.4138 C   0  0  0  0  0  0  0  0  0  6  0  0
    1.8513   -1.1757   -1.9903 H   0  0  0  0  0  0  0  0  0  7  0  0
    0.1177   -0.8977   -2.1896 H   0  0  0  0  0  0  0  0  0  8  0  0
    0.7845   -2.5206   -2.3880 H   0  0  0  0  0  0  0  0  0  9  0  0
    1.4104   -2.5524    0.0486 H   0  0  0  0  0  0  0  0  0 10  0  0
   -0.3206   -2.3751   -0.1855 H   0  0  0  0  0  0  0  0  0 11  0  0
    1.6582   -0.1773    0.4189 H   0  0  0  0  0  0  0  0  0 12  0  0
    0.5903   -0.8521    1.6042 H   0  0  0  0  0  0  0  0  0 13  0  0
   -1.1468    0.8373    1.8918 H   0  0  0  0  0  0  0  0  0 14  0  0
    0.3663    1.6775    1.5162 H   0  0  0  0  0  0  0  0  0 15  0  0
   -2.2473    2.0158   -0.0432 H   0  0  0  0  0  0  0  0  0 16  0  0
   -0.7320    2.8784   -0.3602 H   0  0  0  0  0  0  0  0  0 17  0  0
   -1.6096    3.1609    1.1486 H   0  0  0  0  0  0  0  0  0 18  0  0
  1  8  1  0
  1  7  1  0
  1  9  1  0
  1  2  1  0
  2 10  1  0
  2 11  1  0
  2  3  1  0
  3  4  1  0
  3 13  1  0
  3 12  1  0
  4  5  1  0
  5  6  1  0
  5 14  1  0
  5 15  1  0
  6 17  1  0
  6 18  1  0
  6 16  1  0
M  END
>  <rmg_smiles>  (1) 
CCCOCC

>  <rmg_adjacency_list>  (1) 
1  O u0 p2 c0 {3,S} {4,S}
2  C u0 p0 c0 {3,S} {5,S} {7,S} {8,S}
3  C u0 p0 c0 {1,S} {2,S} {9,S} {10,S}
4  C u0 p0 c0 {1,S} {6,S} {11,S} {12,S}
5  C u0 p0 c0 {2,S} {13,S} {14,S} {15,S}
6  C u0 p0 c0 {4,S} {16,S} {17,S} {18,S}
7  H u0 p0 c0 {2,S}
8  H u0 p0 c0 {2,S}
9  H u0 p0 c0 {3,S}
10 H u0 p0 c0 {3,S}
11 H u0 p0 c0 {4,S}
12 H u0 p0 c0 {4,S}
13 H u0 p0 c0 {5,S}
14 H u0 p0 c0 {5,S}
15 H u0 p0 c0 {5,S}
16 H u0 p0 c0 {6,S}
17 H u0 p0 c0 {6,S}
18 H u0 p0 c0 {6,S}


>  <multiplicity>  (1) 
1

>  <reaction>  (1) 
rmg_rxn_336

>  <type>  (1) 
r1h

>  <role_mapnums>  (1) 
{"r1h_a": 3, "r1h_h": 12}

>  <role_mapidx>  (1) 
{"r1h_a": 2, "r1h_h": 11}

>  <ordered_mapped_smiles>  (1) 
[C:1]([C:2]([C:3]([O:4][C:5]([C:6]([H:16])([H:17])[H:18])([H:14])[H:15])([H:12])[H:13])([H:10])[H:11])([H:7])([H:8])[H:9]

>  <mol_properties>  (1) 
{"2": {"label": "donator", "atom_type": "Cs"}, "11": {"label": "d_hydrogen", "atom_type": "H0"}}

>  <level_of_theory>  (1) 
wb97xd/def2tzvp

>  <lot_method>  (1) 
wb97xd

>  <lot_basis>  (1) 
def2tzvp

>  <spin_multiplicity>  (1) 
1.0

>  <optical_isomers>  (1) 
2.0

>  <modes>  (1) 
IdealGasTranslation(mass=(88.0888, 'amu')),         NonlinearRotor(             inertia = ([59.5652, 317.445, 349.634

>  <frequency_value>  (1) 
unknown

>  <frequency_units>  (1) 
unknown

>  <frequency_list>  (1) 
unknown

>  <arkane_path>  (1) 
/home/calvin/Dropbox/PersonalFolders/Calvin/ATLAS_Converged/rmg_rxn_336/output/Species/rmg_rxn_336_r2_CCCOCC/arkane/output.py

>  <path_exists>  (1) 
True

>  <E0_value>  (1) 
-716327.3605709573

>  <E0_units>  (1) 
kJ/mol

>  <thermo_class>  (1) 
NASA

>  <Cp0_value>  (1) 
33.257888

>  <Cp0_units>  (1) 
J/(mol*K)

>  <CpInf_value>  (1) 
432.352544

>  <CpInf_units>  (1) 
J/(mol*K)

>  <Tmin_value>  (1) 
10.0

>  <Tmin_units>  (1) 
K

>  <Tmax_value>  (1) 
3000.0

>  <Tmax_units>  (1) 
K

>  <polynomials>  (1) 
[{"name": "polynomial1", "class": "NASAPolynomial", "Tmin_value": 10.0, "Tmin_units": "K", "Tmax_value": 424.14701041358796, "Tmax_units": "K", "coeffs": [3.4707042336928127, 0.05746545203879795, -0.00016719847115372115, 4.780470157694204e-07, -4.3347206706639054e-10, -86154279.58985142, 11.635447004604476]}, {"name": "polynomial2", "class": "NASAPolynomial", "Tmin_value": 424.14701041358796, "Tmin_units": "K", "Tmax_value": 3000.0, "Tmax_units": "K", "coeffs": [-2.8535624465972114, 0.06921008708460846, -3.934323609424939e-05, 1.0841890934368647e-08, -1.163418506360095e-12, -86153312.26572455, 41.80111524234505]}]

>  <H298_value>  (1) 
-171200.6815246165

>  <H298_units>  (1) 
kcal/mol

>  <S298_value>  (1) 
88.37399878129293

>  <S298_units>  (1) 
cal/(mol*K)

>  <Cp_T_value_list>  (1) 
[29.924593767526826, 38.16083070533892, 46.09960348181722, 53.05840207682852, 64.40406715451496, 72.91410593462665, 85.72980278110597, 92.03567805993791, 95.21197800865355]

>  <Cp_T_units>  (1) 
cal/(mol*K)

>  <T_list>  (1) 
[300.0, 400.0, 500.0, 600.0, 800.0, 1000.0, 1500.0, 2000.0, 2400.0]

>  <T_units>  (1) 
K

>  <yaml_path>  (1) 
/home/calvin/Dropbox/PersonalFolders/Calvin/ATLAS_Converged/rmg_rxn_336/output/Species/rmg_rxn_336_r2_CCCOCC/rmg_rxn_336_r2_CCCOCC.yml

>  <frequencies_cm1>  (1) 
[76.60808822992, 85.88538539723999, 152.39213822143998, 171.44115549912, 250.05440344247998, 256.05614861216003, 329.51915756551995, 440.0707542322, 493.7774464199199, 767.98990421816, 823.02879155796, 891.3896304185598, 900.4815189822399, 929.41899512072, 1002.9850088538799, 1082.00340893112, 1102.9065122452, 1152.52734816752, 1174.9617892079598, 1182.44680320676, 1190.2339645596398, 1270.1176047871998, 1295.23017010244, 1305.6473868328799, 1368.30176089256, 1380.4425909383199, 1399.7456866728398, 1405.4521514737598, 1443.92787022172, 1468.7794900948002, 1470.37949767436, 1482.5752636026798, 1487.2448136202797, 1494.6336898246, 1500.58049911172, 1519.49904366832, 2928.8997117010795, 2942.5512785172396, 2962.4655359452395, 2968.54281795344, 3015.14904732028, 3021.7276192568397, 3024.0692612509597, 3058.7338031463196, 3085.2403664815197, 3101.8035350733594, 3104.27564978856, 3105.2988306012394]

>  <ZPE_kJmol>  (1) 
431.0594598774012

>  <E_elec_kJmol>  (1) 
-716758.4200308347

>  <E0_minus_Eelec_plus_ZPE_kJmol>  (1) 
0.0

>  <rxn>  (1) 
rmg_rxn_336

>  <species_type>  (1) 
r1

>  <species_folder>  (1) 
rmg_rxn_336_r2_CCCOCC

>  <frequencies_cm1_list>  (1) 
[76.60808822992, 85.88538539723999, 152.39213822143998, 171.44115549912, 250.05440344247998, 256.05614861216003, 329.51915756551995, 440.0707542322, 493.7774464199199, 767.98990421816, 823.02879155796, 891.3896304185598, 900.4815189822399, 929.41899512072, 1002.9850088538799, 1082.00340893112, 1102.9065122452, 1152.52734816752, 1174.9617892079598, 1182.44680320676, 1190.2339645596398, 1270.1176047871998, 1295.23017010244, 1305.6473868328799, 1368.30176089256, 1380.4425909383199, 1399.7456866728398, 1405.4521514737598, 1443.92787022172, 1468.7794900948002, 1470.37949767436, 1482.5752636026798, 1487.2448136202797, 1494.6336898246, 1500.58049911172, 1519.49904366832, 2928.8997117010795, 2942.5512785172396, 2962.4655359452395, 2968.54281795344, 3015.14904732028, 3021.7276192568397, 3024.0692612509597, 3058.7338031463196, 3085.2403664815197, 3101.8035350733594, 3104.27564978856, 3105.2988306012394]

>  <E0_kJmol>  (1) 
-716327

>  <H298_kJmol>  (1) 
-716304

$$$$

     RDKit          3D

  9  8  0  0  0  0  0  0  0  0999 V2000
    0.5084   -1.4534    0.2053 C   0  0  0  0  0  0  0  0  0  1  0  0
    0.1410   -0.4308   -0.8179 C   0  0  0  0  0  0  0  0  0  2  0  0
   -0.3336    0.8863   -0.3373 N   0  0  0  0  0  0  0  0  0  3  0  0
   -0.2961    1.0381    0.8467 O   0  0  0  0  0  0  0  0  0  4  0  0
    1.0882   -2.2818   -0.1932 H   0  0  0  0  0  0  0  0  0  5  0  0
    0.9127   -1.0584    1.1323 H   0  0  0  0  0  0  0  0  0  6  0  0
    0.9716   -0.1587   -1.4847 H   0  0  0  0  0  0  0  0  0  7  0  0
   -0.6604   -0.7634   -1.4882 H   0  0  0  0  0  0  0  0  0  8  0  0
   -0.4202   -1.9407    0.4884 H   0  0  0  0  0  0  0  0  0  9  0  0
  1  5  1  0
  1  9  1  0
  1  6  1  0
  1  2  1  0
  2  3  1  0
  2  8  1  0
  2  7  1  0
  3  4  1  0
M  END
>  <rmg_smiles>  (2) 
CC[N][O]

>  <rmg_adjacency_list>  (2) 
1 O u0 p2 c0 {2,S}
2 N u0 p1 c0 {1,S} {3,S}
3 C u0 p0 c0 {2,S} {4,S} {5,S} {6,S}
4 C u0 p0 c0 {3,S} {7,S} {8,S} {9,S}
5 H u0 p0 c0 {3,S}
6 H u0 p0 c0 {3,S}
7 H u0 p0 c0 {4,S}
8 H u0 p0 c0 {4,S}
9 H u0 p0 c0 {4,S}


>  <multiplicity>  (2) 
1

>  <reaction>  (2) 
rmg_rxn_336

>  <type>  (2) 
r2h

>  <role_mapnums>  (2) 
{"r2h_a": 1, "r2h_h": 9}

>  <role_mapidx>  (2) 
{"r2h_a": 0, "r2h_h": 8}

>  <ordered_mapped_smiles>  (2) 
[C:1]([C:2]([NH:3][OH:4])([H:7])[H:8])([H:5])([H:6])[H:9]

>  <mol_properties>  (2) 
{"0": {"label": "acceptor", "atom_type": "Cs"}, "8": {"label": "a_hydrogen", "atom_type": "H0"}}

>  <level_of_theory>  (2) 
wb97xd/def2tzvp

>  <lot_method>  (2) 
wb97xd

>  <lot_basis>  (2) 
def2tzvp

>  <spin_multiplicity>  (2) 
1.0

>  <optical_isomers>  (2) 
1.0

>  <modes>  (2) 
IdealGasTranslation(mass=(59.0371, 'amu')),         NonlinearRotor(             inertia = ([29.0143, 77.6306, 100.462

>  <frequency_value>  (2) 
unknown

>  <frequency_units>  (2) 
unknown

>  <frequency_list>  (2) 
unknown

>  <arkane_path>  (2) 
/home/calvin/Dropbox/PersonalFolders/Calvin/ATLAS_Converged/rmg_rxn_336/output/Species/rmg_rxn_336_p1_CCN=O/arkane/output.py

>  <path_exists>  (2) 
True

>  <E0_value>  (2) 
-548877.558747515

>  <E0_units>  (2) 
kJ/mol

>  <thermo_class>  (2) 
NASA

>  <Cp0_value>  (2) 
33.257888

>  <Cp0_units>  (2) 
J/(mol*K)

>  <CpInf_value>  (2) 
207.8618

>  <CpInf_units>  (2) 
J/(mol*K)

>  <Tmin_value>  (2) 
10.0

>  <Tmin_units>  (2) 
K

>  <Tmax_value>  (2) 
3000.0

>  <Tmax_units>  (2) 
K

>  <polynomials>  (2) 
[{"name": "polynomial1", "class": "NASAPolynomial", "Tmin_value": 10.0, "Tmin_units": "K", "Tmax_value": 852.4467273079296, "Tmax_units": "K", "coeffs": [3.8936881543548516, 0.010863357132079992, 2.9518886027981582e-05, -4.241660668924857e-08, 1.6548322072430634e-11, -66014722.52296326, 8.31212640355373]}, {"name": "polynomial2", "class": "NASAPolynomial", "Tmin_value": 852.4467273079296, "Tmin_units": "K", "Tmax_value": 3000.0, "Tmax_units": "K", "coeffs": [1.958278249526995, 0.028191398788375954, -1.5482894354402147e-05, 4.125838418636631e-09, -4.294786972329381e-13, -66014692.17386343, 15.58298456087749]}]

>  <H298_value>  (2) 
-131181.2546973709

>  <H298_units>  (2) 
kcal/mol

>  <S298_value>  (2) 
68.95858975357608

>  <S298_units>  (2) 
cal/(mol*K)

>  <Cp_T_value_list>  (2) 
[17.483816518754196, 21.205534203635445, 24.715448679483146, 27.862973885513348, 32.86313144341251, 36.49135596500743, 42.04796388055017, 44.80066956867266, 46.148264111815415]

>  <Cp_T_units>  (2) 
cal/(mol*K)

>  <T_list>  (2) 
[300.0, 400.0, 500.0, 600.0, 800.0, 1000.0, 1500.0, 2000.0, 2400.0]

>  <T_units>  (2) 
K

>  <yaml_path>  (2) 
/home/calvin/Dropbox/PersonalFolders/Calvin/ATLAS_Converged/rmg_rxn_336/output/Species/rmg_rxn_336_p1_CCN=O/rmg_rxn_336_p1_CCN=O.yml

>  <frequencies_cm1>  (2) 
[158.20847478748, 231.91869521236, 304.63320276584, 688.52515009512, 725.82661435336, 817.79614874412, 992.8287375655999, 1036.4272273622798, 1118.5151698775599, 1253.84971656412, 1336.8441011416398, 1399.8555584379599, 1435.5776160726, 1473.98466496736, 1481.49027992212, 1699.7642753036398, 3019.11129784992, 3032.8315345192796, 3052.86253069772, 3109.68683422072, 3112.3100226129595]

>  <ZPE_kJmol>  (2) 
188.30930234902567

>  <E_elec_kJmol>  (2) 
-549065.868049864

>  <E0_minus_Eelec_plus_ZPE_kJmol>  (2) 
0.0

>  <rxn>  (2) 
rmg_rxn_336

>  <species_type>  (2) 
p0

>  <species_folder>  (2) 
rmg_rxn_336_p1_CCN=O

>  <frequencies_cm1_list>  (2) 
[158.20847478748, 231.91869521236, 304.63320276584, 688.52515009512, 725.82661435336, 817.79614874412, 992.8287375655999, 1036.4272273622798, 1118.5151698775599, 1253.84971656412, 1336.8441011416398, 1399.8555584379599, 1435.5776160726, 1473.98466496736, 1481.49027992212, 1699.7642753036398, 3019.11129784992, 3032.8315345192796, 3052.86253069772, 3109.68683422072, 3112.3100226129595]

>  <E0_kJmol>  (2) 
-548878

>  <H298_kJmol>  (2) 
-548862

$$$$

     RDKit          3D

 26 24  0  0  0  0  0  0  0  0999 V2000
    1.7278   -0.2117    0.2108 C   0  0  0  0  0  3  0  0  0  1  0  0
    1.3604    0.8109   -0.8124 C   0  0  0  0  0  0  0  0  0  2  0  0
    0.8857    2.1281   -0.3317 N   0  0  0  0  0  0  0  0  0  3  0  0
    0.9232    2.2798    0.8522 O   0  0  0  0  0  0  0  0  0  4  0  0
    2.3075   -1.0401   -0.1877 H   0  0  0  0  0  0  0  0  0  5  0  0
    2.1320    0.1833    1.1378 H   0  0  0  0  0  0  0  0  0  6  0  0
    2.1909    1.0830   -1.4791 H   0  0  0  0  0  0  0  0  0  7  0  0
    0.5589    0.4783   -1.4827 H   0  0  0  0  0  0  0  0  0  8  0  0
   -0.4707   -2.3569   -1.6257 C   0  0  0  0  0  0  0  0  0  9  0  0
   -0.6901   -2.6292   -0.1421 C   0  0  0  0  0  0  0  0  0 10  0  0
   -0.6645   -1.3914    0.7167 C   0  0  0  0  0  0  0  0  0 11  0  0
   -1.5932   -0.4580    0.3004 O   0  0  0  0  0  0  0  0  0 12  0  0
   -1.8942    0.5344    1.2658 C   0  0  0  0  0  0  0  0  0 13  0  0
   -2.6676    1.6448    0.5981 C   0  0  0  0  0  0  0  0  0 14  0  0
    0.5194   -1.9337   -1.8060 H   0  0  0  0  0  0  0  0  0 15  0  0
   -1.2141   -1.6556   -2.0053 H   0  0  0  0  0  0  0  0  0 16  0  0
   -0.5473   -3.2785   -2.2037 H   0  0  0  0  0  0  0  0  0 17  0  0
    0.0786   -3.3103    0.2329 H   0  0  0  0  0  0  0  0  0 18  0  0
   -1.6525   -3.1331   -0.0012 H   0  0  0  0  0  0  0  0  0 19  0  0
    0.5094   -0.8510    0.5822 H   0  0  0  0  0  0  0  0  0 20  0  0
   -0.7416   -1.6101    1.7885 H   0  0  0  0  0  0  0  0  0 21  0  0
   -2.4787    0.0794    2.0761 H   0  0  0  0  0  0  0  0  0 22  0  0
   -0.9656    0.9195    1.7005 H   0  0  0  0  0  0  0  0  0 23  0  0
   -3.5792    1.2578    0.1411 H   0  0  0  0  0  0  0  0  0 24  0  0
   -2.0639    2.1205   -0.1759 H   0  0  0  0  0  0  0  0  0 25  0  0
   -2.9414    2.4030    1.3329 H   0  0  0  0  0  0  0  0  0 26  0  0
  1  5  1  0
  1  6  1  0
  1  2  1  0
  2  8  1  0
  2  3  1  0
  2  7  1  0
  3  4  1  0
  9 17  1  0
  9 16  1  0
  9 15  1  0
  9 10  1  0
 10 18  1  0
 10 11  1  0
 10 19  1  0
 11 21  1  0
 11 12  1  0
 11 20  1  0
 12 13  1  0
 13 23  1  0
 13 14  1  0
 13 22  1  0
 14 24  1  0
 14 25  1  0
 14 26  1  0
M  RAD  1   1   2
M  END
>  <rmg_smiles>  (3) 
CCOCCC.[CH2]C[N][O]

>  <rmg_adjacency_list>  (3) 
multiplicity 2
1  O u0 p2 c0 {5,S} {6,S}
2  O u0 p2 c0 {3,S}
3  N u0 p1 c0 {2,S} {9,S}
4  C u0 p0 c0 {5,S} {7,S} {11,S} {12,S}
5  C u0 p0 c0 {1,S} {4,S} {13,S} {14,S}
6  C u0 p0 c0 {1,S} {8,S} {15,S} {16,S}
7  C u0 p0 c0 {4,S} {19,S} {20,S} {21,S}
8  C u0 p0 c0 {6,S} {22,S} {23,S} {24,S}
9  C u0 p0 c0 {3,S} {10,S} {17,S} {18,S}
10 C u1 p0 c0 {9,S} {25,S} {26,S}
11 H u0 p0 c0 {4,S}
12 H u0 p0 c0 {4,S}
13 H u0 p0 c0 {5,S}
14 H u0 p0 c0 {5,S}
15 H u0 p0 c0 {6,S}
16 H u0 p0 c0 {6,S}
17 H u0 p0 c0 {9,S}
18 H u0 p0 c0 {9,S}
19 H u0 p0 c0 {7,S}
20 H u0 p0 c0 {7,S}
21 H u0 p0 c0 {7,S}
22 H u0 p0 c0 {8,S}
23 H u0 p0 c0 {8,S}
24 H u0 p0 c0 {8,S}
25 H u0 p0 c0 {10,S}
26 H u0 p0 c0 {10,S}


>  <multiplicity>  (3) 
2

>  <reaction>  (3) 
rmg_rxn_336

>  <type>  (3) 
ts

>  <role_mapnums>  (3) 
{"*2": 20, "*1": 11, "*3": 1, "*0": 12, "*4": 2}

>  <role_mapidx>  (3) 
{"*2": 19, "*1": 10, "*3": 0, "*0": 11, "*4": 1}

>  <ordered_mapped_smiles>  (3) 
[C:1]([C:2]([NH:3][OH:4])([H:7])[H:8])([H:5])[H:6].[C:9]([C:10]([C:11]([O:12][C:13]([C:14]([H:24])([H:25])[H:26])([H:22])[H:23])([H:20])[H:21])([H:18])[H:19])([H:15])([H:16])[H:17]

>  <mol_properties>  (3) 
{"0": {"label": "*3", "atom_type": "Cs"}, "1": {"label": "*4", "atom_type": "Cs"}, "10": {"label": "*1", "atom_type": "Cs"}, "11": {"label": "*0", "atom_type": "O2s"}, "19": {"label": "*2", "atom_type": "H0"}}

>  <level_of_theory>  (3) 
wb97xd/def2tzvp

>  <lot_method>  (3) 
wb97xd

>  <lot_basis>  (3) 
def2tzvp

>  <spin_multiplicity>  (3) 
2.0

>  <optical_isomers>  (3) 
2.0

>  <modes>  (3) 
IdealGasTranslation(mass=(146.118, 'amu')),         NonlinearRotor(             inertia = ([386.384, 528.335, 769.492

>  <frequency_value>  (3) 
-1621.59

>  <frequency_units>  (3) 
cm^-1

>  <frequency_list>  (3) 
unknown

>  <arkane_path>  (3) 
/home/calvin/Dropbox/PersonalFolders/Calvin/ATLAS_Converged/rmg_rxn_336/output/rxns/TS0/arkane/output.py

>  <path_exists>  (3) 
True

>  <E0_value>  (3) 
-1263440.0

>  <E0_units>  (3) 
kJ/mol

>  <thermo_class>  (3) 
unknown

>  <Cp0_value>  (3) 
unknown

>  <Cp0_units>  (3) 
unknown

>  <CpInf_value>  (3) 
unknown

>  <CpInf_units>  (3) 
unknown

>  <Tmin_value>  (3) 
unknown

>  <Tmin_units>  (3) 
unknown

>  <Tmax_value>  (3) 
unknown

>  <Tmax_units>  (3) 
unknown

>  <polynomials>  (3) 
unknown

>  <H298_value>  (3) 
unknown

>  <H298_units>  (3) 
unknown

>  <S298_value>  (3) 
unknown

>  <S298_units>  (3) 
unknown

>  <Cp_T_value_list>  (3) 
unknown

>  <Cp_T_units>  (3) 
unknown

>  <T_list>  (3) 
unknown

>  <T_units>  (3) 
unknown

>  <yaml_path>  (3) 
unknown

>  <frequencies_cm1>  (3) 
unknown

>  <ZPE_kJmol>  (3) 
unknown

>  <E_elec_kJmol>  (3) 
unknown

>  <E0_minus_Eelec_plus_ZPE_kJmol>  (3) 
unknown

>  <rxn>  (3) 
unknown

>  <species_type>  (3) 
unknown

>  <species_folder>  (3) 
unknown

>  <frequencies_cm1_list>  (3) 
[]

>  <ts_imag_freq_cm1>  (3) 
-1641.2878

>  <ts_freq_out_path>  (3) 
/home/calvin/Dropbox/PersonalFolders/Calvin/ATLAS_Converged/rmg_rxn_336/output/rxns/TS0/geometry/freq.out

>  <E0_kJmol>  (3) 
-1.26344e+06

>  <H298_kJmol>  (3) 
unknown

$$$$

     RDKit          3D

 17 16  0  0  0  0  0  0  0  0999 V2000
   -2.5196    0.7765    0.6863 C   0  0  0  0  0  0  0  0  0  1  0  0
   -1.7832    0.2264   -0.5439 C   0  0  0  0  0  0  0  0  0  2  0  0
   -0.5364   -0.5090   -0.2164 C   0  0  0  0  0  3  0  0  0  3  0  0
   -0.7195   -1.6896    0.4220 O   0  0  0  0  0  0  0  0  0  4  0  0
    0.4618   -2.3470    0.8423 C   0  0  0  0  0  0  0  0  0  5  0  0
    0.0797   -3.6206    1.5573 C   0  0  0  0  0  0  0  0  0  6  0  0
   -1.8902    1.4809    1.2340 H   0  0  0  0  0  0  0  0  0  7  0  0
   -3.4347    1.2951    0.3937 H   0  0  0  0  0  0  0  0  0  8  0  0
   -2.7882   -0.0345    1.3642 H   0  0  0  0  0  0  0  0  0  9  0  0
   -2.4551   -0.4399   -1.0937 H   0  0  0  0  0  0  0  0  0 10  0  0
   -1.5294    1.0480   -1.2176 H   0  0  0  0  0  0  0  0  0 11  0  0
    0.3864    0.0229    0.0104 H   0  0  0  0  0  0  0  0  0 12  0  0
    1.0871   -2.5604   -0.0319 H   0  0  0  0  0  0  0  0  0 13  0  0
    1.0283   -1.6824    1.5065 H   0  0  0  0  0  0  0  0  0 14  0  0
   -0.4799   -4.2803    0.8934 H   0  0  0  0  0  0  0  0  0 15  0  0
    0.9764   -4.1449    1.8908 H   0  0  0  0  0  0  0  0  0 16  0  0
   -0.5383   -3.4025    2.4289 H   0  0  0  0  0  0  0  0  0 17  0  0
  1  8  1  0
  1  7  1  0
  1  9  1  0
  1  2  1  0
  2 10  1  0
  2 11  1  0
  2  3  1  0
  3  4  1  0
  3 12  1  0
  4  5  1  0
  5 13  1  0
  5 14  1  0
  5  6  1  0
  6 17  1  0
  6 15  1  0
  6 16  1  0
M  RAD  1   3   2
M  END
>  <rmg_smiles>  (4) 
CC[CH]OCC

>  <rmg_adjacency_list>  (4) 
multiplicity 2
1  O u0 p2 c0 {3,S} {6,S}
2  C u0 p0 c0 {4,S} {6,S} {7,S} {8,S}
3  C u0 p0 c0 {1,S} {5,S} {9,S} {10,S}
4  C u0 p0 c0 {2,S} {11,S} {12,S} {13,S}
5  C u0 p0 c0 {3,S} {14,S} {15,S} {16,S}
6  C u1 p0 c0 {1,S} {2,S} {17,S}
7  H u0 p0 c0 {2,S}
8  H u0 p0 c0 {2,S}
9  H u0 p0 c0 {3,S}
10 H u0 p0 c0 {3,S}
11 H u0 p0 c0 {4,S}
12 H u0 p0 c0 {4,S}
13 H u0 p0 c0 {4,S}
14 H u0 p0 c0 {5,S}
15 H u0 p0 c0 {5,S}
16 H u0 p0 c0 {5,S}
17 H u0 p0 c0 {6,S}


>  <multiplicity>  (4) 
2

>  <reaction>  (4) 
rmg_rxn_336

>  <type>  (4) 
r1

>  <role_mapnums>  (4) 
{}

>  <role_mapidx>  (4) 
{}

>  <ordered_mapped_smiles>  (4) 
[C:1]([C:2]([C:3]([O:4][C:5]([C:6]([H:15])([H:16])[H:17])([H:13])[H:14])[H:12])([H:10])[H:11])([H:7])([H:8])[H:9]

>  <level_of_theory>  (4) 
wb97xd/def2tzvp

>  <lot_method>  (4) 
wb97xd

>  <lot_basis>  (4) 
def2tzvp

>  <spin_multiplicity>  (4) 
2.0

>  <optical_isomers>  (4) 
2.0

>  <modes>  (4) 
IdealGasTranslation(mass=(87.081, 'amu')),         NonlinearRotor(             inertia = ([54.0033, 326.681, 352.519

>  <frequency_value>  (4) 
unknown

>  <frequency_units>  (4) 
unknown

>  <frequency_list>  (4) 
unknown

>  <arkane_path>  (4) 
/home/calvin/Dropbox/PersonalFolders/Calvin/ATLAS_Converged/rmg_rxn_336/output/Species/rmg_rxn_336_p2_CCsbr-CH-sbrOCC/arkane/output.py

>  <path_exists>  (4) 
True

>  <E0_value>  (4) 
-714624.8903626137

>  <E0_units>  (4) 
kJ/mol

>  <thermo_class>  (4) 
NASA

>  <Cp0_value>  (4) 
33.257888

>  <Cp0_units>  (4) 
J/(mol*K)

>  <CpInf_value>  (4) 
407.409128

>  <CpInf_units>  (4) 
J/(mol*K)

>  <Tmin_value>  (4) 
10.0

>  <Tmin_units>  (4) 
K

>  <Tmax_value>  (4) 
3000.0

>  <Tmax_units>  (4) 
K

>  <polynomials>  (4) 
[{"name": "polynomial1", "class": "NASAPolynomial", "Tmin_value": 10.0, "Tmin_units": "K", "Tmax_value": 423.9444908476886, "Tmax_units": "K", "coeffs": [3.4364747383725662, 0.05979522973071814, -0.00016092814605265254, 4.228478801898717e-07, -3.7248711232237204e-10, -85949519.65292636, 12.64316366492574]}, {"name": "polynomial2", "class": "NASAPolynomial", "Tmin_value": 423.9444908476886, "Tmin_units": "K", "Tmax_value": 3000.0, "Tmax_units": "K", "coeffs": [-1.111744104574418, 0.06368295204270104, -3.660326677346525e-05, 1.020691789066353e-08, -1.107737677672226e-12, -85948783.31280652, 34.81879818509147]}]

>  <H298_value>  (4) 
-170793.64533219274

>  <H298_units>  (4) 
kcal/mol

>  <S298_value>  (4) 
91.19326537010946

>  <S298_units>  (4) 
cal/(mol*K)

>  <Cp_T_value_list>  (4) 
[30.386886645970332, 38.020541402191725, 45.279585844268674, 51.6315646190747, 61.96256804390006, 69.68561157148531, 81.2683193524739, 86.98526119843194, 89.90296990808856]

>  <Cp_T_units>  (4) 
cal/(mol*K)

>  <T_list>  (4) 
[300.0, 400.0, 500.0, 600.0, 800.0, 1000.0, 1500.0, 2000.0, 2400.0]

>  <T_units>  (4) 
K

>  <yaml_path>  (4) 
/home/calvin/Dropbox/PersonalFolders/Calvin/ATLAS_Converged/rmg_rxn_336/output/Species/rmg_rxn_336_p2_CCsbr-CH-sbrOCC/rmg_rxn_336_p2_CCsbr-CH-sbrOCC.yml

>  <frequencies_cm1>  (4) 
[54.48952851419999, 82.85704487112, 127.80146379052002, 170.37677277452, 246.99859497507998, 250.43895462039995, 310.97143021619996, 438.9033667278, 491.6418139854, 605.5238985322799, 772.5633164412799, 819.403023309, 898.5106941954, 905.0823991466399, 1001.87255723204, 1052.16635771572, 1097.2069144296, 1121.5503773889998, 1171.49396162136, 1174.68024280984, 1255.65573370328, 1288.36318478244, 1294.21385627508, 1330.67754832428, 1376.8580246012798, 1387.8520680986, 1405.8641705929597, 1448.5974202393202, 1460.0240838118, 1470.9013885586799, 1481.4353440395598, 1487.3203504587998, 1491.1589952526797, 1509.26723554152, 2975.12825687532, 3009.9438724477195, 3012.71126753168, 3014.66835834788, 3025.43579132964, 3056.8316482126797, 3084.32019044864, 3088.30304193424, 3099.2284155783595, 3103.8086947867996, 3106.4799520762795]

>  <ZPE_kJmol>  (4) 
395.124157254276

>  <E_elec_kJmol>  (4) 
-715020.014519868

>  <E0_minus_Eelec_plus_ZPE_kJmol>  (4) 
0.0

>  <rxn>  (4) 
rmg_rxn_336

>  <species_type>  (4) 
p1

>  <species_folder>  (4) 
rmg_rxn_336_p2_CCsbr-CH-sbrOCC

>  <frequencies_cm1_list>  (4) 
[54.48952851419999, 82.85704487112, 127.80146379052002, 170.37677277452, 246.99859497507998, 250.43895462039995, 310.97143021619996, 438.9033667278, 491.6418139854, 605.5238985322799, 772.5633164412799, 819.403023309, 898.5106941954, 905.0823991466399, 1001.87255723204, 1052.16635771572, 1097.2069144296, 1121.5503773889998, 1171.49396162136, 1174.68024280984, 1255.65573370328, 1288.36318478244, 1294.21385627508, 1330.67754832428, 1376.8580246012798, 1387.8520680986, 1405.8641705929597, 1448.5974202393202, 1460.0240838118, 1470.9013885586799, 1481.4353440395598, 1487.3203504587998, 1491.1589952526797, 1509.26723554152, 2975.12825687532, 3009.9438724477195, 3012.71126753168, 3014.66835834788, 3025.43579132964, 3056.8316482126797, 3084.32019044864, 3088.30304193424, 3099.2284155783595, 3103.8086947867996, 3106.4799520762795]

>  <E0_kJmol>  (4) 
-714625

>  <H298_kJmol>  (4) 
-714601

$$$$

     RDKit          3D

  8  7  0  0  0  0  0  0  0  0999 V2000
   -1.0336    0.3440   -0.0356 C   0  0  0  0  0  3  0  0  0  1  0  0
    0.1991   -0.4326   -0.0698 C   0  0  0  0  0  0  0  0  0  2  0  0
    0.9631   -0.0368    1.2269 N   0  0  0  0  0  0  0  0  0  3  0  0
    0.8138   -0.8074    2.1160 O   0  0  0  0  0  0  0  0  0  4  0  0
   -1.0668    1.3490   -0.4321 H   0  0  0  0  0  0  0  0  0  5  0  0
   -1.8598    0.0102    0.5774 H   0  0  0  0  0  0  0  0  0  6  0  0
    0.0447   -1.5108   -0.0264 H   0  0  0  0  0  0  0  0  0  7  0  0
    0.8639   -0.1518   -0.8851 H   0  0  0  0  0  0  0  0  0  8  0  0
  1  5  1  0
  1  6  1  0
  1  2  1  0
  2  3  1  0
  2  8  1  0
  2  7  1  0
  3  4  1  0
M  RAD  1   1   2
M  END
>  <rmg_smiles>  (5) 
[CH2]C[N][O]

>  <rmg_adjacency_list>  (5) 
multiplicity 2
1 O u0 p2 c0 {2,S}
2 N u0 p1 c0 {1,S} {3,S}
3 C u0 p0 c0 {2,S} {4,S} {5,S} {6,S}
4 C u1 p0 c0 {3,S} {7,S} {8,S}
5 H u0 p0 c0 {3,S}
6 H u0 p0 c0 {3,S}
7 H u0 p0 c0 {4,S}
8 H u0 p0 c0 {4,S}


>  <multiplicity>  (5) 
2

>  <reaction>  (5) 
rmg_rxn_336

>  <type>  (5) 
r2

>  <role_mapnums>  (5) 
{}

>  <role_mapidx>  (5) 
{}

>  <ordered_mapped_smiles>  (5) 
[C:1]([C:2]([NH:3][OH:4])([H:7])[H:8])([H:5])[H:6]

>  <level_of_theory>  (5) 
wb97xd/def2tzvp

>  <lot_method>  (5) 
wb97xd

>  <lot_basis>  (5) 
def2tzvp

>  <spin_multiplicity>  (5) 
2.0

>  <optical_isomers>  (5) 
2.0

>  <modes>  (5) 
IdealGasTranslation(mass=(58.0293, 'amu')),         NonlinearRotor(             inertia = ([22.1608, 91.4743, 98.1404

>  <frequency_value>  (5) 
unknown

>  <frequency_units>  (5) 
unknown

>  <frequency_list>  (5) 
unknown

>  <arkane_path>  (5) 
/home/calvin/Dropbox/PersonalFolders/Calvin/ATLAS_Converged/rmg_rxn_336/output/Species/rmg_rxn_336_r1_sbr-CH2-sbrCN=O/arkane/output.py

>  <path_exists>  (5) 
True

>  <E0_value>  (5) 
-547146.7023069542

>  <E0_units>  (5) 
kJ/mol

>  <thermo_class>  (5) 
NASA

>  <Cp0_value>  (5) 
33.257888

>  <Cp0_units>  (5) 
J/(mol*K)

>  <CpInf_value>  (5) 
182.918384

>  <CpInf_units>  (5) 
J/(mol*K)

>  <Tmin_value>  (5) 
10.0

>  <Tmin_units>  (5) 
K

>  <Tmax_value>  (5) 
3000.0

>  <Tmax_units>  (5) 
K

>  <polynomials>  (5) 
[{"name": "polynomial1", "class": "NASAPolynomial", "Tmin_value": 10.0, "Tmin_units": "K", "Tmax_value": 326.276374951593, "Tmax_units": "K", "coeffs": [3.940819341091196, 0.004854009289033578, 0.00011129338709514705, -3.1833863495678465e-07, 2.953593453648331e-10, -65806549.8293943, 9.702528517413192]}, {"name": "polynomial2", "class": "NASAPolynomial", "Tmin_value": 326.276374951593, "Tmin_units": "K", "Tmax_value": 3000.0, "Tmax_units": "K", "coeffs": [2.776819309550134, 0.02583522144291814, -1.601730093384169e-05, 4.83080636877528e-09, -5.633659676887055e-13, -65806509.594192296, 13.46704514990697]}]

>  <H298_value>  (5) 
-130767.46203572692

>  <H298_units>  (5) 
kcal/mol

>  <S298_value>  (5) 
72.16753555448764

>  <S298_units>  (5) 
cal/(mol*K)

>  <Cp_T_value_list>  (5) 
[18.30355202843712, 21.547059859954224, 24.360658196069355, 26.791847495636276, 30.675596667686673, 33.50863415290605, 37.64296846492696, 39.765301572518176, 40.959572893301356]

>  <Cp_T_units>  (5) 
cal/(mol*K)

>  <T_list>  (5) 
[300.0, 400.0, 500.0, 600.0, 800.0, 1000.0, 1500.0, 2000.0, 2400.0]

>  <T_units>  (5) 
K

>  <yaml_path>  (5) 
/home/calvin/Dropbox/PersonalFolders/Calvin/ATLAS_Converged/rmg_rxn_336/output/Species/rmg_rxn_336_r1_sbr-CH2-sbrCN=O/rmg_rxn_336_r1_sbr-CH2-sbrCN=O.yml

>  <frequencies_cm1>  (5) 
[131.04954784688, 262.09222870843996, 346.66601990955996, 500.3972202684, 632.2502053977199, 654.47176989324, 811.1695079103199, 1087.0025742440798, 1125.80104130208, 1214.38515193008, 1243.73464718776, 1448.1373322228799, 1472.8996812868, 1680.95560251216, 3043.1663474258803, 3120.3924643346, 3133.0826532059596, 3239.93981177048]

>  <ZPE_kJmol>  (5) 
150.41605726776052

>  <E_elec_kJmol>  (5) 
-547297.118364222

>  <E0_minus_Eelec_plus_ZPE_kJmol>  (5) 
0.0

>  <rxn>  (5) 
rmg_rxn_336

>  <species_type>  (5) 
r0

>  <species_folder>  (5) 
rmg_rxn_336_r1_sbr-CH2-sbrCN=O

>  <frequencies_cm1_list>  (5) 
[131.04954784688, 262.09222870843996, 346.66601990955996, 500.3972202684, 632.2502053977199, 654.47176989324, 811.1695079103199, 1087.0025742440798, 1125.80104130208, 1214.38515193008, 1243.73464718776, 1448.1373322228799, 1472.8996812868, 1680.95560251216, 3043.1663474258803, 3120.3924643346, 3133.0826532059596, 3239.93981177048]

>  <E0_kJmol>  (5) 
-547147

>  <H298_kJmol>  (5) 
-547131

$$$$
