
     RDKit          3D

  6  5  0  0  0  0  0  0  0  0999 V2000
    0.5236   -0.4766    1.0474 C   0  0  0  0  0  0  0  0  0  1  0  0
   -0.0295    0.0823   -0.1387 C   0  0  0  0  0  2  0  0  0  2  0  0
   -0.5396    0.4949   -1.0860 N   0  0  0  0  0  0  0  0  0  3  0  0
   -0.2494   -1.1235    1.4507 H   0  0  0  0  0  0  0  0  0  4  0  0
    1.3668   -1.1383    0.8752 H   0  0  0  0  0  0  0  0  0  5  0  0
    0.6943    0.2459    1.8398 H   0  0  0  0  0  0  0  0  0  6  0  0
  1  5  1  0
  1  4  1  0
  1  6  1  0
  1  2  1  0
  2  3  1  0
M  RAD  1   2   3
M  END
>  <rmg_smiles>  (1) 
C[C][N]

>  <rmg_adjacency_list>  (1) 
1 N u0 p2 c0 {3,S}
2 C u0 p0 c0 {3,S} {4,S} {5,S} {6,S}
3 C u0 p1 c0 {1,S} {2,S}
4 H u0 p0 c0 {2,S}
5 H u0 p0 c0 {2,S}
6 H u0 p0 c0 {2,S}


>  <multiplicity>  (1) 
1

>  <reaction>  (1) 
rmg_rxn_97

>  <type>  (1) 
r1h

>  <role_mapnums>  (1) 
{"r1h_a": 1, "r1h_h": 4}

>  <role_mapidx>  (1) 
{"r1h_a": 0, "r1h_h": 3}

>  <ordered_mapped_smiles>  (1) 
[C:1]([C:2][NH2:3])([H:4])([H:5])[H:6]

>  <mol_properties>  (1) 
{"0": {"label": "donator", "atom_type": "Cs"}, "3": {"label": "d_hydrogen", "atom_type": "H0"}}

>  <level_of_theory>  (1) 
wb97xd/def2tzvp

>  <lot_method>  (1) 
wb97xd

>  <lot_basis>  (1) 
def2tzvp

>  <spin_multiplicity>  (1) 
1.0

>  <optical_isomers>  (1) 
1.0

>  <modes>  (1) 
IdealGasTranslation(mass=(41.0266, 'amu')),         NonlinearRotor(             inertia = ([3.17088, 54.2986, 54.2986

>  <frequency_value>  (1) 
unknown

>  <frequency_units>  (1) 
unknown

>  <frequency_list>  (1) 
unknown

>  <arkane_path>  (1) 
/home/calvin/Dropbox/PersonalFolders/Calvin/ATLAS_Converged/rmg_rxn_97/output/Species/rmg_rxn_97_r1_CCtN/arkane/output.py

>  <path_exists>  (1) 
True

>  <E0_value>  (1) 
-348435.7290944858

>  <E0_units>  (1) 
kJ/mol

>  <thermo_class>  (1) 
NASA

>  <Cp0_value>  (1) 
33.257888

>  <Cp0_units>  (1) 
J/(mol*K)

>  <CpInf_value>  (1) 
133.031552

>  <CpInf_units>  (1) 
J/(mol*K)

>  <Tmin_value>  (1) 
10.0

>  <Tmin_units>  (1) 
K

>  <Tmax_value>  (1) 
3000.0

>  <Tmax_units>  (1) 
K

>  <polynomials>  (1) 
[{"name": "polynomial1", "class": "NASAPolynomial", "Tmin_value": 10.0, "Tmin_units": "K", "Tmax_value": 511.0047217811454, "Tmax_units": "K", "coeffs": [3.9891826765760365, 0.0005009089420291138, 3.81914805026896e-05, -5.897492548510201e-08, 2.9733594077892804e-11, -41907137.48145763, 5.038698918911015]}, {"name": "polynomial2", "class": "NASAPolynomial", "Tmin_value": 511.0047217811454, "Tmin_units": "K", "Tmax_value": 3000.0, "Tmax_units": "K", "coeffs": [1.9459503138127907, 0.016494897079574664, -8.757595355908857e-06, 2.2763036875881413e-09, -2.327551492775615e-13, -41906928.66307153, 13.524317380785753]}]

>  <H298_value>  (1) 
-83275.2633014586

>  <H298_units>  (1) 
kcal/mol

>  <S298_value>  (1) 
57.92485573002877

>  <S298_units>  (1) 
cal/(mol*K)

>  <Cp_T_value_list>  (1) 
[12.37077326759869, 14.480710005326102, 16.442129136256206, 18.18625963405398, 21.078573448235012, 23.303574339623086, 26.803259226518527, 28.599299992988165, 29.480842343276066]

>  <Cp_T_units>  (1) 
cal/(mol*K)

>  <T_list>  (1) 
[300.0, 400.0, 500.0, 600.0, 800.0, 1000.0, 1500.0, 2000.0, 2400.0]

>  <T_units>  (1) 
K

>  <yaml_path>  (1) 
/home/calvin/Dropbox/PersonalFolders/Calvin/ATLAS_Converged/rmg_rxn_97/output/Species/rmg_rxn_97_r1_CCtN/rmg_rxn_97_r1_CCtN.yml

>  <frequencies_cm1>  (1) 
[383.692804755, 383.87134637331997, 927.5237071724, 1053.3268782348, 1053.59469066228, 1399.2855986564, 1460.8824569768, 1461.14340241896, 2373.9992289478396, 3039.28650072008, 3120.96242411616, 3121.60792073624]

>  <ZPE_kJmol>  (1) 
118.30578452478277

>  <E_elec_kJmol>  (1) 
-348554.0348790106

>  <E0_minus_Eelec_plus_ZPE_kJmol>  (1) 
0.0

>  <rxn>  (1) 
rmg_rxn_97

>  <species_type>  (1) 
r0

>  <species_folder>  (1) 
rmg_rxn_97_r1_CCtN

>  <frequencies_cm1_list>  (1) 
[383.692804755, 383.87134637331997, 927.5237071724, 1053.3268782348, 1053.59469066228, 1399.2855986564, 1460.8824569768, 1461.14340241896, 2373.9992289478396, 3039.28650072008, 3120.96242411616, 3121.60792073624]

>  <E0_kJmol>  (1) 
-348436

>  <H298_kJmol>  (1) 
-348424

$$$$

     RDKit          3D

 14 13  0  0  0  0  0  0  0  0999 V2000
    1.1278    0.8436    0.2814 H   0  0  0  0  0  0  0  0  0  1  0  0
   -0.5774    1.2789    1.3661 C   0  0  0  0  0  0  0  0  0  2  0  0
    0.2645    0.2729    0.6299 C   0  0  0  0  0  0  0  0  0  3  0  0
   -0.3253   -0.3094   -0.6279 C   0  0  0  0  0  0  0  0  0  4  0  0
    0.6115   -1.2638   -1.3558 C   0  0  0  0  0  0  0  0  0  5  0  0
   -1.4945    0.8144    1.7430 H   0  0  0  0  0  0  0  0  0  6  0  0
   -0.8739    2.0965    0.7048 H   0  0  0  0  0  0  0  0  0  7  0  0
   -0.0471    1.7024    2.2203 H   0  0  0  0  0  0  0  0  0  8  0  0
    0.7323   -0.4721    1.2769 H   0  0  0  0  0  0  0  0  0  9  0  0
   -0.6185    0.5057   -1.2968 H   0  0  0  0  0  0  0  0  0 10  0  0
   -1.2537   -0.8326   -0.3649 H   0  0  0  0  0  0  0  0  0 11  0  0
    0.9144   -2.0894   -0.7077 H   0  0  0  0  0  0  0  0  0 12  0  0
    0.1318   -1.6876   -2.2384 H   0  0  0  0  0  0  0  0  0 13  0  0
    1.5145   -0.7486   -1.6893 H   0  0  0  0  0  0  0  0  0 14  0  0
  1  3  1  0
  2  7  1  0
  2  8  1  0
  2  6  1  0
  2  3  1  0
  3  4  1  0
  3  9  1  0
  4  5  1  0
  4 10  1  0
  4 11  1  0
  5 12  1  0
  5 14  1  0
  5 13  1  0
M  END
>  <rmg_smiles>  (2) 
CCCC

>  <rmg_adjacency_list>  (2) 
1  C u0 p0 c0 {2,S} {3,S} {5,S} {6,S}
2  C u0 p0 c0 {1,S} {4,S} {7,S} {8,S}
3  C u0 p0 c0 {1,S} {9,S} {10,S} {11,S}
4  C u0 p0 c0 {2,S} {12,S} {13,S} {14,S}
5  H u0 p0 c0 {1,S}
6  H u0 p0 c0 {1,S}
7  H u0 p0 c0 {2,S}
8  H u0 p0 c0 {2,S}
9  H u0 p0 c0 {3,S}
10 H u0 p0 c0 {3,S}
11 H u0 p0 c0 {3,S}
12 H u0 p0 c0 {4,S}
13 H u0 p0 c0 {4,S}
14 H u0 p0 c0 {4,S}


>  <multiplicity>  (2) 
1

>  <reaction>  (2) 
rmg_rxn_97

>  <type>  (2) 
r2h

>  <role_mapnums>  (2) 
{"r2h_a": 3, "r2h_h": 1}

>  <role_mapidx>  (2) 
{"r2h_a": 2, "r2h_h": 0}

>  <ordered_mapped_smiles>  (2) 
[H:1][C:3]([C:2]([H:6])([H:7])[H:8])([C:4]([C:5]([H:12])([H:13])[H:14])([H:10])[H:11])[H:9]

>  <mol_properties>  (2) 
{"0": {"label": "a_hydrogen", "atom_type": "H0"}, "2": {"label": "acceptor", "atom_type": "Cs"}}

>  <level_of_theory>  (2) 
wb97xd/def2tzvp

>  <lot_method>  (2) 
wb97xd

>  <lot_basis>  (2) 
def2tzvp

>  <spin_multiplicity>  (2) 
1.0

>  <optical_isomers>  (2) 
1.0

>  <modes>  (2) 
IdealGasTranslation(mass=(58.0782, 'amu')),         NonlinearRotor(             inertia = ([21.4183, 138.436, 147.416

>  <frequency_value>  (2) 
unknown

>  <frequency_units>  (2) 
unknown

>  <frequency_list>  (2) 
unknown

>  <arkane_path>  (2) 
/home/calvin/Dropbox/PersonalFolders/Calvin/ATLAS_Converged/rmg_rxn_97/output/Species/rmg_rxn_97_p2_CCCC/arkane/output.py

>  <path_exists>  (2) 
True

>  <E0_value>  (2) 
-415711.4770347972

>  <E0_units>  (2) 
kJ/mol

>  <thermo_class>  (2) 
NASA

>  <Cp0_value>  (2) 
33.257888

>  <Cp0_units>  (2) 
J/(mol*K)

>  <CpInf_value>  (2) 
332.57888

>  <CpInf_units>  (2) 
J/(mol*K)

>  <Tmin_value>  (2) 
10.0

>  <Tmin_units>  (2) 
K

>  <Tmax_value>  (2) 
3000.0

>  <Tmax_units>  (2) 
K

>  <polynomials>  (2) 
[{"name": "polynomial1", "class": "NASAPolynomial", "Tmin_value": 10.0, "Tmin_units": "K", "Tmax_value": 1025.0239672813746, "Tmax_units": "K", "coeffs": [3.915013592071844, 0.015190476507378274, 4.499566831623061e-05, -5.4452087887537436e-08, 1.803189229500368e-11, -49998546.31449076, 7.728184054699678]}, {"name": "polynomial2", "class": "NASAPolynomial", "Tmin_value": 1025.0239672813746, "Tmin_units": "K", "Tmax_value": 3000.0, "Tmax_units": "K", "coeffs": [0.8557434606866323, 0.04413202068529884, -2.2238982520549216e-05, 5.4598853249734095e-09, -5.274578153178241e-13, -49998812.39100051, 18.205832942846666]}]

>  <H298_value>  (2) 
-99353.185245995

>  <H298_units>  (2) 
kcal/mol

>  <S298_value>  (2) 
71.76251802442486

>  <S298_units>  (2) 
cal/(mol*K)

>  <Cp_T_value_list>  (2) 
[22.251980571284225, 28.1531399049666, 33.94079391323614, 39.35269474865459, 48.430242634303475, 55.007789274879656, 65.12656285712895, 70.35428852741721, 72.83851882766015]

>  <Cp_T_units>  (2) 
cal/(mol*K)

>  <T_list>  (2) 
[300.0, 400.0, 500.0, 600.0, 800.0, 1000.0, 1500.0, 2000.0, 2400.0]

>  <T_units>  (2) 
K

>  <yaml_path>  (2) 
/home/calvin/Dropbox/PersonalFolders/Calvin/ATLAS_Converged/rmg_rxn_97/output/Species/rmg_rxn_97_p2_CCCC/rmg_rxn_97_p2_CCCC.yml

>  <frequencies_cm1>  (2) 
[117.85806904715999, 224.50921805207997, 259.37290252171994, 260.8081024536, 427.68957970024, 733.9639919575599, 810.5171443049198, 844.8383369342799, 959.6886664112799, 978.69648177704, 1024.40313606696, 1072.73297874912, 1166.6664709414, 1201.7086970293599, 1282.4438434365998, 1315.46030885516, 1324.99168447932, 1392.23320473276, 1403.41265683372, 1404.42210367576, 1477.30828586224, 1478.9082934418, 1485.02677736192, 1486.84652847172, 1491.0285225316, 1497.33241505536, 2994.3077468740794, 3001.82022881416, 3007.36875295272, 3008.254594059, 3019.68125763148, 3041.7654824206, 3075.78452769588, 3079.10128160544, 3084.83521434764, 3085.5356468502796]

>  <ZPE_kJmol>  (2) 
344.05401570070524

>  <E_elec_kJmol>  (2) 
-416055.5310504979

>  <E0_minus_Eelec_plus_ZPE_kJmol>  (2) 
0.0

>  <rxn>  (2) 
rmg_rxn_97

>  <species_type>  (2) 
p1

>  <species_folder>  (2) 
rmg_rxn_97_p2_CCCC

>  <frequencies_cm1_list>  (2) 
[117.85806904715999, 224.50921805207997, 259.37290252171994, 260.8081024536, 427.68957970024, 733.9639919575599, 810.5171443049198, 844.8383369342799, 959.6886664112799, 978.69648177704, 1024.40313606696, 1072.73297874912, 1166.6664709414, 1201.7086970293599, 1282.4438434365998, 1315.46030885516, 1324.99168447932, 1392.23320473276, 1403.41265683372, 1404.42210367576, 1477.30828586224, 1478.9082934418, 1485.02677736192, 1486.84652847172, 1491.0285225316, 1497.33241505536, 2994.3077468740794, 3001.82022881416, 3007.36875295272, 3008.254594059, 3019.68125763148, 3041.7654824206, 3075.78452769588, 3079.10128160544, 3084.83521434764, 3085.5356468502796]

>  <E0_kJmol>  (2) 
-415711

>  <H298_kJmol>  (2) 
-415694

$$$$

     RDKit          3D

 19 17  0  0  0  0  0  0  0  0999 V2000
    1.4098    0.9788    0.3358 C   0  0  0  0  0  0  0  0  0  1  0  0
    0.8566    1.5377   -0.8504 C   0  0  0  0  0  0  0  0  0  2  0  0
    0.3466    1.9502   -1.7977 N   0  0  0  0  0  2  0  0  0  3  0  0
    0.4387    0.1661    0.8423 H   0  0  0  0  0  0  0  0  0  4  0  0
    2.2529    0.3170    0.1635 H   0  0  0  0  0  0  0  0  0  5  0  0
    1.5804    1.7012    1.1282 H   0  0  0  0  0  0  0  0  0  6  0  0
   -1.4526    0.4784    2.0021 C   0  0  0  0  0  0  0  0  0  7  0  0
   -0.6106   -0.5276    1.2659 C   0  0  0  0  0  0  0  0  0  8  0  0
   -1.2004   -1.1099    0.0082 C   0  0  0  0  0  0  0  0  0  9  0  0
   -0.2637   -2.0643   -0.7198 C   0  0  0  0  0  0  0  0  0 10  0  0
   -2.3696    0.0139    2.3790 H   0  0  0  0  0  0  0  0  0 11  0  0
   -1.7490    1.2960    1.3408 H   0  0  0  0  0  0  0  0  0 12  0  0
   -0.9223    0.9019    2.8563 H   0  0  0  0  0  0  0  0  0 13  0  0
   -0.1428   -1.2726    1.9129 H   0  0  0  0  0  0  0  0  0 14  0  0
   -1.4936   -0.2948   -0.6607 H   0  0  0  0  0  0  0  0  0 15  0  0
   -2.1289   -1.6331    0.2711 H   0  0  0  0  0  0  0  0  0 16  0  0
    0.0392   -2.8899   -0.0717 H   0  0  0  0  0  0  0  0  0 17  0  0
   -0.7433   -2.4881   -1.6024 H   0  0  0  0  0  0  0  0  0 18  0  0
    0.6394   -1.5491   -1.0533 H   0  0  0  0  0  0  0  0  0 19  0  0
  1  6  1  0
  1  5  1  0
  1  2  1  0
  2  3  1  0
  4  8  1  0
  7 13  1  0
  7 12  1  0
  7  8  1  0
  7 11  1  0
  8  9  1  0
  8 14  1  0
  9 10  1  0
  9 15  1  0
  9 16  1  0
 10 19  1  0
 10 17  1  0
 10 18  1  0
M  RAD  1   3   2
M  END
>  <rmg_smiles>  (3) 
CCCC.[CH2][C][N]

>  <rmg_adjacency_list>  (3) 
multiplicity 2
1  N u1 p2 c0 {7,S}
2  C u0 p0 c0 {3,S} {4,S} {8,S} {9,S}
3  C u0 p0 c0 {2,S} {5,S} {10,S} {11,S}
4  C u0 p0 c0 {2,S} {12,S} {13,S} {14,S}
5  C u0 p0 c0 {3,S} {15,S} {16,S} {17,S}
6  C u0 p0 c0 {7,S} {18,S} {19,S}
7  C u0 p1 c0 {1,S} {6,S}
8  H u0 p0 c0 {2,S}
9  H u0 p0 c0 {2,S}
10 H u0 p0 c0 {3,S}
11 H u0 p0 c0 {3,S}
12 H u0 p0 c0 {4,S}
13 H u0 p0 c0 {4,S}
14 H u0 p0 c0 {4,S}
15 H u0 p0 c0 {5,S}
16 H u0 p0 c0 {5,S}
17 H u0 p0 c0 {5,S}
18 H u0 p0 c0 {6,S}
19 H u0 p0 c0 {6,S}


>  <multiplicity>  (3) 
2

>  <reaction>  (3) 
rmg_rxn_97

>  <type>  (3) 
ts

>  <role_mapnums>  (3) 
{"*2": 4, "*1": 1, "*3": 8, "*0": 9, "*4": 2}

>  <role_mapidx>  (3) 
{"*2": 3, "*1": 0, "*3": 7, "*0": 8, "*4": 1}

>  <ordered_mapped_smiles>  (3) 
[CH:1]([CH2:2][NH:3])([H:5])[H:6].[H:4][C:8]([C:7]([H:11])([H:12])[H:13])([C:9]([C:10]([H:17])([H:18])[H:19])([H:15])[H:16])[H:14]

>  <mol_properties>  (3) 
{"0": {"label": "*1", "atom_type": "Cs"}, "1": {"label": "*4", "atom_type": "C2s"}, "3": {"label": "*2", "atom_type": "H0"}, "7": {"label": "*3", "atom_type": "Cs"}, "8": {"label": "*0", "atom_type": "Cs"}}

>  <level_of_theory>  (3) 
wb97xd/def2tzvp

>  <lot_method>  (3) 
wb97xd

>  <lot_basis>  (3) 
def2tzvp

>  <spin_multiplicity>  (3) 
2.0

>  <optical_isomers>  (3) 
2.0

>  <modes>  (3) 
IdealGasTranslation(mass=(98.097, 'amu')),         NonlinearRotor(             inertia = ([190.248, 310.819, 398.309

>  <frequency_value>  (3) 
-1576.04

>  <frequency_units>  (3) 
cm^-1

>  <frequency_list>  (3) 
unknown

>  <arkane_path>  (3) 
/home/calvin/Dropbox/PersonalFolders/Calvin/ATLAS_Converged/rmg_rxn_97/output/rxns/TS0/arkane/output.py

>  <path_exists>  (3) 
True

>  <E0_value>  (3) 
-762387.0

>  <E0_units>  (3) 
kJ/mol

>  <thermo_class>  (3) 
unknown

>  <Cp0_value>  (3) 
unknown

>  <Cp0_units>  (3) 
unknown

>  <CpInf_value>  (3) 
unknown

>  <CpInf_units>  (3) 
unknown

>  <Tmin_value>  (3) 
unknown

>  <Tmin_units>  (3) 
unknown

>  <Tmax_value>  (3) 
unknown

>  <Tmax_units>  (3) 
unknown

>  <polynomials>  (3) 
unknown

>  <H298_value>  (3) 
unknown

>  <H298_units>  (3) 
unknown

>  <S298_value>  (3) 
unknown

>  <S298_units>  (3) 
unknown

>  <Cp_T_value_list>  (3) 
unknown

>  <Cp_T_units>  (3) 
unknown

>  <T_list>  (3) 
unknown

>  <T_units>  (3) 
unknown

>  <yaml_path>  (3) 
unknown

>  <frequencies_cm1>  (3) 
unknown

>  <ZPE_kJmol>  (3) 
unknown

>  <E_elec_kJmol>  (3) 
unknown

>  <E0_minus_Eelec_plus_ZPE_kJmol>  (3) 
unknown

>  <rxn>  (3) 
unknown

>  <species_type>  (3) 
unknown

>  <species_folder>  (3) 
unknown

>  <frequencies_cm1_list>  (3) 
[]

>  <ts_imag_freq_cm1>  (3) 
-1595.1779

>  <ts_freq_out_path>  (3) 
/home/calvin/Dropbox/PersonalFolders/Calvin/ATLAS_Converged/rmg_rxn_97/output/rxns/TS0/geometry/freq.out

>  <E0_kJmol>  (3) 
-762387

>  <H298_kJmol>  (3) 
unknown

$$$$

     RDKit          3D

  5  4  0  0  0  0  0  0  0  0999 V2000
   -0.5684   -0.0010    0.0059 C   0  0  0  0  0  0  0  0  0  1  0  0
    0.8107    0.0015   -0.0083 C   0  0  0  0  0  0  0  0  0  2  0  0
    1.9722    0.0036   -0.0203 N   0  0  0  0  0  2  0  0  0  3  0  0
   -1.1085    0.9327    0.0554 H   0  0  0  0  0  0  0  0  0  4  0  0
   -1.1060   -0.9368   -0.0326 H   0  0  0  0  0  0  0  0  0  5  0  0
  1  5  1  0
  1  4  1  0
  1  2  1  0
  2  3  1  0
M  RAD  1   3   2
M  END
>  <rmg_smiles>  (4) 
[CH2][C][N]

>  <rmg_adjacency_list>  (4) 
multiplicity 2
1 N u1 p2 c0 {3,S}
2 C u0 p0 c0 {3,S} {4,S} {5,S}
3 C u0 p1 c0 {1,S} {2,S}
4 H u0 p0 c0 {2,S}
5 H u0 p0 c0 {2,S}


>  <multiplicity>  (4) 
2

>  <reaction>  (4) 
rmg_rxn_97

>  <type>  (4) 
r1

>  <role_mapnums>  (4) 
{}

>  <role_mapidx>  (4) 
{}

>  <ordered_mapped_smiles>  (4) 
[CH:1]([CH2:2][NH:3])([H:4])[H:5]

>  <level_of_theory>  (4) 
wb97xd/def2tzvp

>  <lot_method>  (4) 
wb97xd

>  <lot_basis>  (4) 
def2tzvp

>  <spin_multiplicity>  (4) 
2.0

>  <optical_isomers>  (4) 
1.0

>  <modes>  (4) 
IdealGasTranslation(mass=(40.0187, 'amu')),         NonlinearRotor(             inertia = ([1.76513, 48.7017, 50.4668

>  <frequency_value>  (4) 
unknown

>  <frequency_units>  (4) 
unknown

>  <frequency_list>  (4) 
unknown

>  <arkane_path>  (4) 
/home/calvin/Dropbox/PersonalFolders/Calvin/ATLAS_Converged/rmg_rxn_97/output/Species/rmg_rxn_97_p1_C=C=sbr-N-sbr/arkane/output.py

>  <path_exists>  (4) 
True

>  <E0_value>  (4) 
-346728.38264853635

>  <E0_units>  (4) 
kJ/mol

>  <thermo_class>  (4) 
NASA

>  <Cp0_value>  (4) 
33.257888

>  <Cp0_units>  (4) 
J/(mol*K)

>  <CpInf_value>  (4) 
108.088136

>  <CpInf_units>  (4) 
J/(mol*K)

>  <Tmin_value>  (4) 
10.0

>  <Tmin_units>  (4) 
K

>  <Tmax_value>  (4) 
3000.0

>  <Tmax_units>  (4) 
K

>  <polynomials>  (4) 
[{"name": "polynomial1", "class": "NASAPolynomial", "Tmin_value": 10.0, "Tmin_units": "K", "Tmax_value": 527.0040671405167, "Tmax_units": "K", "coeffs": [3.9747449037282667, 0.0015353266756051366, 3.910302806424709e-05, -7.628994234029245e-08, 4.625865338238857e-11, -41701791.02109744, 5.577294410619089]}, {"name": "polynomial2", "class": "NASAPolynomial", "Tmin_value": 527.0040671405167, "Tmin_units": "K", "Tmax_value": 3000.0, "Tmax_units": "K", "coeffs": [3.239686817488942, 0.012530223097608446, -7.6062340101612755e-06, 2.2976789442675366e-09, -2.720349597801524e-13, -41701788.75209308, 7.939154814916592]}]

>  <H298_value>  (4) 
-82867.15118152696

>  <H298_units>  (4) 
kcal/mol

>  <S298_value>  (4) 
59.28592081605119

>  <S298_units>  (4) 
cal/(mol*K)

>  <Cp_T_value_list>  (4) 
[12.458755549788354, 14.202615101020045, 15.645452255252858, 16.852741911548225, 18.800685733817065, 20.248282724582875, 22.45242163881558, 23.65584364189494, 24.31935565202786]

>  <Cp_T_units>  (4) 
cal/(mol*K)

>  <T_list>  (4) 
[300.0, 400.0, 500.0, 600.0, 800.0, 1000.0, 1500.0, 2000.0, 2400.0]

>  <T_units>  (4) 
K

>  <yaml_path>  (4) 
/home/calvin/Dropbox/PersonalFolders/Calvin/ATLAS_Converged/rmg_rxn_97/output/Species/rmg_rxn_97_p1_C=C=sbr-N-sbr/rmg_rxn_97_p1_C=C=sbr-N-sbr.yml

>  <frequencies_cm1>  (4) 
[384.97006402451996, 436.79520223456, 664.47696750448, 1026.5799704134, 1046.4118240175599, 1433.3733137848799, 2141.73031748416, 3149.6183538565197, 3258.5150070610794]

>  <ZPE_kJmol>  (4) 
81.00198818833644

>  <E_elec_kJmol>  (4) 
-346809.3846367247

>  <E0_minus_Eelec_plus_ZPE_kJmol>  (4) 
0.0

>  <rxn>  (4) 
rmg_rxn_97

>  <species_type>  (4) 
p0

>  <species_folder>  (4) 
rmg_rxn_97_p1_C=C=sbr-N-sbr

>  <frequencies_cm1_list>  (4) 
[384.97006402451996, 436.79520223456, 664.47696750448, 1026.5799704134, 1046.4118240175599, 1433.3733137848799, 2141.73031748416, 3149.6183538565197, 3258.5150070610794]

>  <E0_kJmol>  (4) 
-346728

>  <H298_kJmol>  (4) 
-346716

$$$$

     RDKit          3D

 13 12  0  0  0  0  0  0  0  0999 V2000
    1.9060    0.2628    0.3980 C   0  0  0  0  0  0  0  0  0  1  0  0
    0.6330   -0.4250    0.0685 C   0  0  0  0  0  3  0  0  0  2  0  0
   -0.2610   -0.9325    1.1416 C   0  0  0  0  0  0  0  0  0  3  0  0
   -1.4364   -1.7546    0.6268 C   0  0  0  0  0  0  0  0  0  4  0  0
    2.4899   -0.3070    1.1292 H   0  0  0  0  0  0  0  0  0  5  0  0
    1.7297    1.2496    0.8515 H   0  0  0  0  0  0  0  0  0  6  0  0
    2.5269    0.4197   -0.4845 H   0  0  0  0  0  0  0  0  0  7  0  0
    0.2597   -0.3936   -0.9489 H   0  0  0  0  0  0  0  0  0  8  0  0
   -0.6439   -0.0868    1.7356 H   0  0  0  0  0  0  0  0  0  9  0  0
    0.3260   -1.5277    1.8536 H   0  0  0  0  0  0  0  0  0 10  0  0
   -1.0872   -2.6320    0.0792 H   0  0  0  0  0  0  0  0  0 11  0  0
   -2.0701   -2.0976    1.4459 H   0  0  0  0  0  0  0  0  0 12  0  0
   -2.0561   -1.1637   -0.0512 H   0  0  0  0  0  0  0  0  0 13  0  0
  1  5  1  0
  1  7  1  0
  1  6  1  0
  1  2  1  0
  2  8  1  0
  2  3  1  0
  3  4  1  0
  3  9  1  0
  3 10  1  0
  4 13  1  0
  4 12  1  0
  4 11  1  0
M  RAD  1   2   2
M  END
>  <rmg_smiles>  (5) 
C[CH]CC

>  <rmg_adjacency_list>  (5) 
multiplicity 2
1  C u0 p0 c0 {2,S} {4,S} {5,S} {6,S}
2  C u0 p0 c0 {1,S} {7,S} {8,S} {9,S}
3  C u0 p0 c0 {4,S} {10,S} {11,S} {12,S}
4  C u1 p0 c0 {1,S} {3,S} {13,S}
5  H u0 p0 c0 {1,S}
6  H u0 p0 c0 {1,S}
7  H u0 p0 c0 {2,S}
8  H u0 p0 c0 {2,S}
9  H u0 p0 c0 {2,S}
10 H u0 p0 c0 {3,S}
11 H u0 p0 c0 {3,S}
12 H u0 p0 c0 {3,S}
13 H u0 p0 c0 {4,S}


>  <multiplicity>  (5) 
2

>  <reaction>  (5) 
rmg_rxn_97

>  <type>  (5) 
r2

>  <role_mapnums>  (5) 
{}

>  <role_mapidx>  (5) 
{}

>  <ordered_mapped_smiles>  (5) 
[C:1]([C:2]([C:3]([C:4]([H:11])([H:12])[H:13])([H:9])[H:10])[H:8])([H:5])([H:6])[H:7]

>  <level_of_theory>  (5) 
wb97xd/def2tzvp

>  <lot_method>  (5) 
wb97xd

>  <lot_basis>  (5) 
def2tzvp

>  <spin_multiplicity>  (5) 
2.0

>  <optical_isomers>  (5) 
2.0

>  <modes>  (5) 
IdealGasTranslation(mass=(57.0704, 'amu')),         NonlinearRotor(             inertia = ([18.7542, 137.737, 146.856

>  <frequency_value>  (5) 
unknown

>  <frequency_units>  (5) 
unknown

>  <frequency_list>  (5) 
unknown

>  <arkane_path>  (5) 
/home/calvin/Dropbox/PersonalFolders/Calvin/ATLAS_Converged/rmg_rxn_97/output/Species/rmg_rxn_97_r2_Csbr-CH-sbrCC/arkane/output.py

>  <path_exists>  (5) 
True

>  <E0_value>  (5) 
-413995.2264405356

>  <E0_units>  (5) 
kJ/mol

>  <thermo_class>  (5) 
NASA

>  <Cp0_value>  (5) 
33.257888

>  <Cp0_units>  (5) 
J/(mol*K)

>  <CpInf_value>  (5) 
307.635464

>  <CpInf_units>  (5) 
J/(mol*K)

>  <Tmin_value>  (5) 
10.0

>  <Tmin_units>  (5) 
K

>  <Tmax_value>  (5) 
3000.0

>  <Tmax_units>  (5) 
K

>  <polynomials>  (5) 
[{"name": "polynomial1", "class": "NASAPolynomial", "Tmin_value": 10.0, "Tmin_units": "K", "Tmax_value": 437.64132334566835, "Tmax_units": "K", "coeffs": [3.6274282376646756, 0.03980524048628293, -0.00011211913315348379, 3.0275669442783334e-07, -2.6334100357152647e-10, -49792123.767797455, 10.477759673967103]}, {"name": "polynomial2", "class": "NASAPolynomial", "Tmin_value": 437.64132334566835, "Tmin_units": "K", "Tmax_value": 3000.0, "Tmax_units": "K", "coeffs": [-0.4712203043918067, 0.04588815729464738, -2.541997261504284e-05, 6.85639015424627e-09, -7.228277482308085e-13, -49791464.52563959, 30.297543071931177]}]

>  <H298_value>  (5) 
-98942.59688263848

>  <H298_units>  (5) 
kcal/mol

>  <S298_value>  (5) 
79.84336435797195

>  <S298_units>  (5) 
cal/(mol*K)

>  <Cp_T_value_list>  (5) 
[22.891917447574397, 28.308475735554, 33.64288387138264, 38.34868525299168, 46.07323283166112, 51.92675269306213, 60.90207372767515, 65.40111428959476, 67.64920413290923]

>  <Cp_T_units>  (5) 
cal/(mol*K)

>  <T_list>  (5) 
[300.0, 400.0, 500.0, 600.0, 800.0, 1000.0, 1500.0, 2000.0, 2400.0]

>  <T_units>  (5) 
K

>  <yaml_path>  (5) 
/home/calvin/Dropbox/PersonalFolders/Calvin/ATLAS_Converged/rmg_rxn_97/output/Species/rmg_rxn_97_r2_Csbr-CH-sbrCC/rmg_rxn_97_r2_Csbr-CH-sbrCC.yml

>  <frequencies_cm1>  (5) 
[56.84490447896, 98.78845081352, 231.15645984184, 255.98747875895998, 343.02651768996, 433.15570001495996, 765.0302335452399, 850.6821414415999, 969.8792726261601, 986.4561751886399, 1035.713060889, 1061.1277735583199, 1129.08346028504, 1177.0836876718397, 1262.3853793168798, 1303.7933007964798, 1389.89842972396, 1402.2452693293199, 1414.45476922828, 1456.0687002674797, 1460.55284168144, 1471.1898019421196, 1484.2096061088398, 1489.95040583636, 2924.0516200651596, 2943.40278469692, 2976.8244022493595, 3009.05803134144, 3013.50097084348, 3083.1390689736, 3085.4944449383597, 3091.2352446658797, 3146.1642602405595]

>  <ZPE_kJmol>  (5) 
303.861341375402

>  <E_elec_kJmol>  (5) 
-414299.087781911

>  <E0_minus_Eelec_plus_ZPE_kJmol>  (5) 
0.0

>  <rxn>  (5) 
rmg_rxn_97

>  <species_type>  (5) 
r1

>  <species_folder>  (5) 
rmg_rxn_97_r2_Csbr-CH-sbrCC

>  <frequencies_cm1_list>  (5) 
[56.84490447896, 98.78845081352, 231.15645984184, 255.98747875895998, 343.02651768996, 433.15570001495996, 765.0302335452399, 850.6821414415999, 969.8792726261601, 986.4561751886399, 1035.713060889, 1061.1277735583199, 1129.08346028504, 1177.0836876718397, 1262.3853793168798, 1303.7933007964798, 1389.89842972396, 1402.2452693293199, 1414.45476922828, 1456.0687002674797, 1460.55284168144, 1471.1898019421196, 1484.2096061088398, 1489.95040583636, 2924.0516200651596, 2943.40278469692, 2976.8244022493595, 3009.05803134144, 3013.50097084348, 3083.1390689736, 3085.4944449383597, 3091.2352446658797, 3146.1642602405595]

>  <E0_kJmol>  (5) 
-413995

>  <H298_kJmol>  (5) 
-413976

$$$$
