
     RDKit          3D

 18 17  0  0  0  0  0  0  0  0999 V2000
    2.1225    1.4649    0.2407 C   0  0  0  0  0  0  0  0  0  1  0  0
    1.9236    0.1207   -0.4035 C   0  0  0  0  0  0  0  0  0  2  0  0
    0.7935   -0.7180    0.1353 C   0  0  0  0  0  0  0  0  0  3  0  0
   -0.4188   -0.0779   -0.1802 O   0  0  0  0  0  0  0  0  0  4  0  0
   -1.5498   -0.7805    0.2800 C   0  0  0  0  0  0  0  0  0  5  0  0
   -2.7916   -0.0112   -0.1043 C   0  0  0  0  0  0  0  0  0  6  0  0
    2.2259    1.3719    1.3235 H   0  0  0  0  0  0  0  0  0  7  0  0
    1.2515    2.0956    0.0424 H   0  0  0  0  0  0  0  0  0  8  0  0
    3.0055    1.9689   -0.1518 H   0  0  0  0  0  0  0  0  0  9  0  0
    2.8176   -0.4654   -0.1862 H   0  0  0  0  0  0  0  0  0 10  0  0
    1.9350    0.1516   -1.4938 H   0  0  0  0  0  0  0  0  0 11  0  0
    0.8951   -0.8302    1.2246 H   0  0  0  0  0  0  0  0  0 12  0  0
    0.8225   -1.7236   -0.3051 H   0  0  0  0  0  0  0  0  0 13  0  0
   -1.5674   -1.7875   -0.1607 H   0  0  0  0  0  0  0  0  0 14  0  0
   -1.4932   -0.9029    1.3710 H   0  0  0  0  0  0  0  0  0 15  0  0
   -2.8531    0.0999   -1.1874 H   0  0  0  0  0  0  0  0  0 16  0  0
   -2.7806    0.9826    0.3445 H   0  0  0  0  0  0  0  0  0 17  0  0
   -3.6824   -0.5377    0.2414 H   0  0  0  0  0  0  0  0  0 18  0  0
  1  8  1  0
  1  7  1  0
  1  9  1  0
  1  2  1  0
  2 10  1  0
  2 11  1  0
  2  3  1  0
  3  4  1  0
  3 13  1  0
  3 12  1  0
  4  5  1  0
  5 14  1  0
  5  6  1  0
  5 15  1  0
  6 17  1  0
  6 18  1  0
  6 16  1  0
M  END
>  <rmg_smiles>  (1) 
CCCOCC

>  <rmg_adjacency_list>  (1) 
1  O u0 p2 c0 {3,S} {4,S}
2  C u0 p0 c0 {3,S} {5,S} {7,S} {8,S}
3  C u0 p0 c0 {1,S} {2,S} {9,S} {10,S}
4  C u0 p0 c0 {1,S} {6,S} {11,S} {12,S}
5  C u0 p0 c0 {2,S} {13,S} {14,S} {15,S}
6  C u0 p0 c0 {4,S} {16,S} {17,S} {18,S}
7  H u0 p0 c0 {2,S}
8  H u0 p0 c0 {2,S}
9  H u0 p0 c0 {3,S}
10 H u0 p0 c0 {3,S}
11 H u0 p0 c0 {4,S}
12 H u0 p0 c0 {4,S}
13 H u0 p0 c0 {5,S}
14 H u0 p0 c0 {5,S}
15 H u0 p0 c0 {5,S}
16 H u0 p0 c0 {6,S}
17 H u0 p0 c0 {6,S}
18 H u0 p0 c0 {6,S}


>  <multiplicity>  (1) 
1

>  <reaction>  (1) 
rmg_rxn_1156

>  <type>  (1) 
r1h

>  <role_mapnums>  (1) 
{"r1h_a": 2, "r1h_h": 10}

>  <role_mapidx>  (1) 
{"r1h_a": 1, "r1h_h": 9}

>  <ordered_mapped_smiles>  (1) 
[C:1]([C:2]([C:3]([O:4][C:5]([C:6]([H:16])([H:17])[H:18])([H:14])[H:15])([H:12])[H:13])([H:10])[H:11])([H:7])([H:8])[H:9]

>  <mol_properties>  (1) 
{"1": {"label": "donator", "atom_type": "Cs"}, "9": {"label": "d_hydrogen", "atom_type": "H0"}}

>  <level_of_theory>  (1) 
wb97xd/def2tzvp

>  <lot_method>  (1) 
wb97xd

>  <lot_basis>  (1) 
def2tzvp

>  <spin_multiplicity>  (1) 
1.0

>  <optical_isomers>  (1) 
2.0

>  <modes>  (1) 
IdealGasTranslation(mass=(88.0888, 'amu')),         NonlinearRotor(             inertia = ([58.9711, 322.806, 354.165

>  <frequency_value>  (1) 
unknown

>  <frequency_units>  (1) 
unknown

>  <frequency_list>  (1) 
unknown

>  <arkane_path>  (1) 
/home/calvin/Dropbox/PersonalFolders/Calvin/ATLAS_Converged/rmg_rxn_1156/output/Species/rmg_rxn_1156_r2_CCCOCC/arkane/output.py

>  <path_exists>  (1) 
True

>  <E0_value>  (1) 
-716327.6718123602

>  <E0_units>  (1) 
kJ/mol

>  <thermo_class>  (1) 
NASA

>  <Cp0_value>  (1) 
33.257888

>  <Cp0_units>  (1) 
J/(mol*K)

>  <CpInf_value>  (1) 
432.352544

>  <CpInf_units>  (1) 
J/(mol*K)

>  <Tmin_value>  (1) 
10.0

>  <Tmin_units>  (1) 
K

>  <Tmax_value>  (1) 
3000.0

>  <Tmax_units>  (1) 
K

>  <polynomials>  (1) 
[{"name": "polynomial1", "class": "NASAPolynomial", "Tmin_value": 10.0, "Tmin_units": "K", "Tmax_value": 1128.2117156298782, "Tmax_units": "K", "coeffs": [3.804267715822327, 0.0324484435394251, 3.13726610374143e-05, -4.5763142566312805e-08, 1.4963748269555625e-11, -86154324.12317792, 11.047926498109064]}, {"name": "polynomial2", "class": "NASAPolynomial", "Tmin_value": 1128.2117156298782, "Tmin_units": "K", "Tmax_value": 3000.0, "Tmax_units": "K", "coeffs": [5.025771470989986, 0.05146753648391503, -2.495845047700866e-05, 5.867605391842661e-09, -5.420126187305644e-13, -86156085.8028422, -1.5783723225617567]}]

>  <H298_value>  (1) 
-171200.93239262223

>  <H298_units>  (1) 
kcal/mol

>  <S298_value>  (1) 
86.26395115238546

>  <S298_units>  (1) 
cal/(mol*K)

>  <Cp_T_value_list>  (1) 
[30.300809036800477, 38.26863262811072, 45.8776353149455, 52.90332163550434, 64.66359602467148, 73.18082287752496, 85.7078029255419, 92.19780439577242, 95.2235242125213]

>  <Cp_T_units>  (1) 
cal/(mol*K)

>  <T_list>  (1) 
[300.0, 400.0, 500.0, 600.0, 800.0, 1000.0, 1500.0, 2000.0, 2400.0]

>  <T_units>  (1) 
K

>  <yaml_path>  (1) 
/home/calvin/Dropbox/PersonalFolders/Calvin/ATLAS_Converged/rmg_rxn_1156/output/Species/rmg_rxn_1156_r2_CCCOCC/rmg_rxn_1156_r2_CCCOCC.yml

>  <frequencies_cm1>  (1) 
[94.87426918112, 119.81515986335998, 172.05918417792, 211.846497122, 286.20221416695995, 290.91983308179994, 333.19986169704003, 440.2424288652, 493.92165311163996, 776.23715358748, 824.7592718585998, 886.52093782668, 893.21624851368, 930.3872400508399, 990.75490799896, 1062.6041754021198, 1098.5116416403998, 1122.9375084236399, 1145.32388056684, 1166.4741953524401, 1181.1626769519198, 1261.95962622704, 1287.27133411656, 1302.46797262972, 1358.0699527657598, 1373.28719223488, 1399.0589881408398, 1409.42126898872, 1428.73123170856, 1467.7631762674398, 1469.73400105428, 1481.5040138927598, 1487.5881628862799, 1495.2105165914797, 1497.6208284388, 1507.0491992831599, 2969.8338111936, 2979.79780689292, 2988.48454332272, 2992.7420742211198, 2993.9712645933996, 3016.5979812227997, 3020.3816901341197, 3038.3731916725196, 3059.19389116276, 3061.988754188, 3069.5767729666, 3077.01371806816]

>  <ZPE_kJmol>  (1) 
430.7554323107405

>  <E_elec_kJmol>  (1) 
-716758.4272446709

>  <E0_minus_Eelec_plus_ZPE_kJmol>  (1) 
0.0

>  <rxn>  (1) 
rmg_rxn_1156

>  <species_type>  (1) 
r1

>  <species_folder>  (1) 
rmg_rxn_1156_r2_CCCOCC

>  <frequencies_cm1_list>  (1) 
[94.87426918112, 119.81515986335998, 172.05918417792, 211.846497122, 286.20221416695995, 290.91983308179994, 333.19986169704003, 440.2424288652, 493.92165311163996, 776.23715358748, 824.7592718585998, 886.52093782668, 893.21624851368, 930.3872400508399, 990.75490799896, 1062.6041754021198, 1098.5116416403998, 1122.9375084236399, 1145.32388056684, 1166.4741953524401, 1181.1626769519198, 1261.95962622704, 1287.27133411656, 1302.46797262972, 1358.0699527657598, 1373.28719223488, 1399.0589881408398, 1409.42126898872, 1428.73123170856, 1467.7631762674398, 1469.73400105428, 1481.5040138927598, 1487.5881628862799, 1495.2105165914797, 1497.6208284388, 1507.0491992831599, 2969.8338111936, 2979.79780689292, 2988.48454332272, 2992.7420742211198, 2993.9712645933996, 3016.5979812227997, 3020.3816901341197, 3038.3731916725196, 3059.19389116276, 3061.988754188, 3069.5767729666, 3077.01371806816]

>  <E0_kJmol>  (1) 
-716328

>  <H298_kJmol>  (1) 
-716305

$$$$

     RDKit          3D

  2  1  0  0  0  0  0  0  0  0999 V2000
    0.0595   -0.0414    0.0188 O   0  0  0  0  0  1  0  0  0  1  0  0
   -0.7031    0.4894   -0.2226 H   0  0  0  0  0  0  0  0  0  2  0  0
  1  2  1  0
M  RAD  1   1   2
M  END
>  <rmg_smiles>  (2) 
[OH]

>  <rmg_adjacency_list>  (2) 
multiplicity 2
1 O u1 p2 c0 {2,S}
2 H u0 p0 c0 {1,S}


>  <multiplicity>  (2) 
2

>  <reaction>  (2) 
rmg_rxn_1156

>  <type>  (2) 
r2h

>  <role_mapnums>  (2) 
{"r2h_a": 1, "r2h_h": 2}

>  <role_mapidx>  (2) 
{"r2h_a": 0, "r2h_h": 1}

>  <ordered_mapped_smiles>  (2) 
[O:1][H:2]

>  <mol_properties>  (2) 
{"0": {"label": "acceptor", "atom_type": "O2s"}, "1": {"label": "a_hydrogen", "atom_type": "H0"}}

>  <level_of_theory>  (2) 
wb97xd/def2tzvp

>  <lot_method>  (2) 
wb97xd

>  <lot_basis>  (2) 
def2tzvp

>  <spin_multiplicity>  (2) 
2.0

>  <optical_isomers>  (2) 
1.0

>  <modes>  (2) 
IdealGasTranslation(mass=(17.0027, 'amu')),         LinearRotor(inertia=(0.893962, 'amu*angstrom^2'), symmetry=1),         HarmonicOscillator(frequencies=([3724.63

>  <frequency_value>  (2) 
unknown

>  <frequency_units>  (2) 
unknown

>  <frequency_list>  (2) 
unknown

>  <arkane_path>  (2) 
/home/calvin/Dropbox/PersonalFolders/Calvin/ATLAS_Converged/rmg_rxn_1156/output/Species/rmg_rxn_1156_p1_sbr-OH-sbr/arkane/output.py

>  <path_exists>  (2) 
True

>  <E0_value>  (2) 
-198836.11500557224

>  <E0_units>  (2) 
kJ/mol

>  <thermo_class>  (2) 
NASA

>  <Cp0_value>  (2) 
29.100652

>  <Cp0_units>  (2) 
J/(mol*K)

>  <CpInf_value>  (2) 
37.415124

>  <CpInf_units>  (2) 
J/(mol*K)

>  <Tmin_value>  (2) 
10.0

>  <Tmin_units>  (2) 
K

>  <Tmax_value>  (2) 
3000.0

>  <Tmax_units>  (2) 
K

>  <polynomials>  (2) 
[{"name": "polynomial1", "class": "NASAPolynomial", "Tmin_value": 10.0, "Tmin_units": "K", "Tmax_value": 985.4633103339054, "Tmax_units": "K", "coeffs": [3.496867247333508, 0.00018342449890259614, -9.934008380455364e-07, 1.5607090885398485e-09, -6.057976047375529e-13, -23914460.71315525, 1.4723763541989374]}, {"name": "polynomial2", "class": "NASAPolynomial", "Tmin_value": 985.4633103339054, "Tmin_units": "K", "Tmax_value": 3000.0, "Tmax_units": "K", "coeffs": [3.453605826539838, -0.000298394996284096, 7.406626419620715e-07, -2.893423009710026e-10, 3.527332886378172e-14, -23914420.264478575, 1.842419488011591]}]

>  <H298_value>  (2) 
-47520.89667525978

>  <H298_units>  (2) 
kcal/mol

>  <S298_value>  (2) 
42.56095640204575

>  <S298_units>  (2) 
cal/(mol*K)

>  <Cp_T_value_list>  (2) 
[6.954667739233619, 6.946617902371048, 6.950166451559511, 6.9709205689453935, 7.072028097634187, 7.2370175778306685, 7.699521485448446, 8.086144468717986, 8.29478093025019]

>  <Cp_T_units>  (2) 
cal/(mol*K)

>  <T_list>  (2) 
[300.0, 400.0, 500.0, 600.0, 800.0, 1000.0, 1500.0, 2000.0, 2400.0]

>  <T_units>  (2) 
K

>  <yaml_path>  (2) 
/home/calvin/Dropbox/PersonalFolders/Calvin/ATLAS_Converged/rmg_rxn_1156/output/Species/rmg_rxn_1156_p1_sbr-OH-sbr/rmg_rxn_1156_p1_sbr-OH-sbr.yml

>  <frequencies_cm1>  (2) 
[3724.62536962672]

>  <ZPE_kJmol>  (2) 
22.278213462109388

>  <E_elec_kJmol>  (2) 
-198858.3932190344

>  <E0_minus_Eelec_plus_ZPE_kJmol>  (2) 
0.0

>  <rxn>  (2) 
rmg_rxn_1156

>  <species_type>  (2) 
p0

>  <species_folder>  (2) 
rmg_rxn_1156_p1_sbr-OH-sbr

>  <frequencies_cm1_list>  (2) 
[3724.62536962672]

>  <E0_kJmol>  (2) 
-198836

>  <H298_kJmol>  (2) 
-198827

$$$$

     RDKit          3D

 19 17  0  0  0  0  0  0  0  0999 V2000
    3.3903   -1.0840    0.1431 O   0  0  0  0  0 15  0  0  0  1  0  0
    1.5545    1.6346    0.2189 C   0  0  0  0  0  0  0  0  0  2  0  0
    1.3556    0.2905   -0.4252 C   0  0  0  0  0  0  0  0  0  3  0  0
    0.2254   -0.5482    0.1135 C   0  0  0  0  0  0  0  0  0  4  0  0
   -0.9869    0.0919   -0.2019 O   0  0  0  0  0  0  0  0  0  5  0  0
   -2.1179   -0.6108    0.2582 C   0  0  0  0  0  0  0  0  0  6  0  0
   -3.3597    0.1586   -0.1261 C   0  0  0  0  0  0  0  0  0  7  0  0
    1.6578    1.5417    1.3018 H   0  0  0  0  0  0  0  0  0  8  0  0
    0.6835    2.2654    0.0207 H   0  0  0  0  0  0  0  0  0  9  0  0
    2.4374    2.1387   -0.1736 H   0  0  0  0  0  0  0  0  0 10  0  0
    2.3866   -0.3854   -0.1747 H   0  0  0  0  0  0  0  0  0 11  0  0
    1.3669    0.3213   -1.5156 H   0  0  0  0  0  0  0  0  0 12  0  0
    0.3270   -0.6604    1.2029 H   0  0  0  0  0  0  0  0  0 13  0  0
    0.2544   -1.5539   -0.3269 H   0  0  0  0  0  0  0  0  0 14  0  0
   -2.1355   -1.6177   -0.1824 H   0  0  0  0  0  0  0  0  0 15  0  0
   -2.0613   -0.7332    1.3493 H   0  0  0  0  0  0  0  0  0 16  0  0
   -3.4212    0.2696   -1.2091 H   0  0  0  0  0  0  0  0  0 17  0  0
   -3.3487    1.1524    0.3227 H   0  0  0  0  0  0  0  0  0 18  0  0
   -4.2505   -0.3680    0.2197 H   0  0  0  0  0  0  0  0  0 19  0  0
  2 10  1  0
  2  9  1  0
  2  8  1  0
  2  3  1  0
  3 11  1  0
  3  4  1  0
  3 12  1  0
  4 13  1  0
  4  5  1  0
  4 14  1  0
  5  6  1  0
  6 15  1  0
  6  7  1  0
  6 16  1  0
  7 19  1  0
  7 17  1  0
  7 18  1  0
M  END
>  <rmg_smiles>  (3) 
CCCOCC.[O]

>  <rmg_adjacency_list>  (3) 
multiplicity 3
1  O u0 p2 c0 {4,S} {5,S}
2  O u2 p3 c0
3  C u0 p0 c0 {4,S} {6,S} {8,S} {9,S}
4  C u0 p0 c0 {1,S} {3,S} {10,S} {11,S}
5  C u0 p0 c0 {1,S} {7,S} {12,S} {13,S}
6  C u0 p0 c0 {3,S} {14,S} {15,S} {16,S}
7  C u0 p0 c0 {5,S} {17,S} {18,S} {19,S}
8  H u0 p0 c0 {3,S}
9  H u0 p0 c0 {3,S}
10 H u0 p0 c0 {4,S}
11 H u0 p0 c0 {4,S}
12 H u0 p0 c0 {5,S}
13 H u0 p0 c0 {5,S}
14 H u0 p0 c0 {6,S}
15 H u0 p0 c0 {6,S}
16 H u0 p0 c0 {6,S}
17 H u0 p0 c0 {7,S}
18 H u0 p0 c0 {7,S}
19 H u0 p0 c0 {7,S}


>  <multiplicity>  (3) 
3

>  <reaction>  (3) 
rmg_rxn_1156

>  <type>  (3) 
ts

>  <role_mapnums>  (3) 
{"*2": 11, "*1": 3, "*3": 1, "*0": 4, "*4": null}

>  <role_mapidx>  (3) 
{"*2": 10, "*1": 2, "*3": 0, "*0": 3}

>  <ordered_mapped_smiles>  (3) 
[O:1].[C:2]([C:3]([C:4]([O:5][C:6]([C:7]([H:17])([H:18])[H:19])([H:15])[H:16])([H:13])[H:14])([H:11])[H:12])([H:8])([H:9])[H:10]

>  <mol_properties>  (3) 
{"0": {"label": "*3", "atom_type": "Oa"}, "2": {"label": "*1", "atom_type": "Cs"}, "3": {"label": "*0", "atom_type": "Cs"}, "10": {"label": "*2", "atom_type": "H0"}}

>  <level_of_theory>  (3) 
wb97xd/def2tzvp

>  <lot_method>  (3) 
wb97xd

>  <lot_basis>  (3) 
def2tzvp

>  <spin_multiplicity>  (3) 
3.0

>  <optical_isomers>  (3) 
2.0

>  <modes>  (3) 
IdealGasTranslation(mass=(104.084, 'amu')),         NonlinearRotor(             inertia = ([94.1817, 521.439, 587.937

>  <frequency_value>  (3) 
-1319.08

>  <frequency_units>  (3) 
cm^-1

>  <frequency_list>  (3) 
unknown

>  <arkane_path>  (3) 
/home/calvin/Dropbox/PersonalFolders/Calvin/ATLAS_Converged/rmg_rxn_1156/output/rxns/TS0/arkane/output.py

>  <path_exists>  (3) 
True

>  <E0_value>  (3) 
-913419.0

>  <E0_units>  (3) 
kJ/mol

>  <thermo_class>  (3) 
unknown

>  <Cp0_value>  (3) 
unknown

>  <Cp0_units>  (3) 
unknown

>  <CpInf_value>  (3) 
unknown

>  <CpInf_units>  (3) 
unknown

>  <Tmin_value>  (3) 
unknown

>  <Tmin_units>  (3) 
unknown

>  <Tmax_value>  (3) 
unknown

>  <Tmax_units>  (3) 
unknown

>  <polynomials>  (3) 
unknown

>  <H298_value>  (3) 
unknown

>  <H298_units>  (3) 
unknown

>  <S298_value>  (3) 
unknown

>  <S298_units>  (3) 
unknown

>  <Cp_T_value_list>  (3) 
unknown

>  <Cp_T_units>  (3) 
unknown

>  <T_list>  (3) 
unknown

>  <T_units>  (3) 
unknown

>  <yaml_path>  (3) 
unknown

>  <frequencies_cm1>  (3) 
unknown

>  <ZPE_kJmol>  (3) 
unknown

>  <E_elec_kJmol>  (3) 
unknown

>  <E0_minus_Eelec_plus_ZPE_kJmol>  (3) 
unknown

>  <rxn>  (3) 
unknown

>  <species_type>  (3) 
unknown

>  <species_folder>  (3) 
unknown

>  <frequencies_cm1_list>  (3) 
[]

>  <ts_imag_freq_cm1>  (3) 
-1335.1007

>  <ts_freq_out_path>  (3) 
/home/calvin/Dropbox/PersonalFolders/Calvin/ATLAS_Converged/rmg_rxn_1156/output/rxns/TS0/geometry/freq.out

>  <E0_kJmol>  (3) 
-913419

>  <H298_kJmol>  (3) 
unknown

$$$$

     RDKit          3D

 17 16  0  0  0  0  0  0  0  0999 V2000
    2.0952    1.0874   -0.1032 C   0  0  0  0  0  0  0  0  0  1  0  0
    1.7177   -0.2332    0.4712 C   0  0  0  0  0  3  0  0  0  2  0  0
    0.7240   -1.0995   -0.2240 C   0  0  0  0  0  0  0  0  0  3  0  0
   -0.4254   -0.3498   -0.5979 O   0  0  0  0  0  0  0  0  0  4  0  0
   -1.3639   -0.2082    0.4666 C   0  0  0  0  0  0  0  0  0  5  0  0
   -2.5268    0.6268   -0.0323 C   0  0  0  0  0  0  0  0  0  6  0  0
    1.2146    1.7120   -0.2772 H   0  0  0  0  0  0  0  0  0  7  0  0
    2.7512    1.6212    0.5911 H   0  0  0  0  0  0  0  0  0  8  0  0
    2.6320    0.9549   -1.0468 H   0  0  0  0  0  0  0  0  0  9  0  0
    2.3825   -0.6930    1.1938 H   0  0  0  0  0  0  0  0  0 10  0  0
    0.4455   -1.9567    0.3991 H   0  0  0  0  0  0  0  0  0 11  0  0
    1.1766   -1.4938   -1.1397 H   0  0  0  0  0  0  0  0  0 12  0  0
   -0.8950    0.2873    1.3234 H   0  0  0  0  0  0  0  0  0 13  0  0
   -1.7231   -1.1961    0.7751 H   0  0  0  0  0  0  0  0  0 14  0  0
   -3.0003    0.1511   -0.8975 H   0  0  0  0  0  0  0  0  0 15  0  0
   -3.2770    0.7593    0.7523 H   0  0  0  0  0  0  0  0  0 16  0  0
   -2.1804    1.6124   -0.3604 H   0  0  0  0  0  0  0  0  0 17  0  0
  1  8  1  0
  1  7  1  0
  1  9  1  0
  1  2  1  0
  2 10  1  0
  2  3  1  0
  3 11  1  0
  3  4  1  0
  3 12  1  0
  4  5  1  0
  5 13  1  0
  5  6  1  0
  5 14  1  0
  6 17  1  0
  6 15  1  0
  6 16  1  0
M  RAD  1   2   2
M  END
>  <rmg_smiles>  (4) 
C[CH]COCC

>  <rmg_adjacency_list>  (4) 
multiplicity 2
1  O u0 p2 c0 {2,S} {3,S}
2  C u0 p0 c0 {1,S} {4,S} {7,S} {8,S}
3  C u0 p0 c0 {1,S} {6,S} {9,S} {10,S}
4  C u0 p0 c0 {2,S} {11,S} {12,S} {13,S}
5  C u0 p0 c0 {6,S} {14,S} {15,S} {16,S}
6  C u1 p0 c0 {3,S} {5,S} {17,S}
7  H u0 p0 c0 {2,S}
8  H u0 p0 c0 {2,S}
9  H u0 p0 c0 {3,S}
10 H u0 p0 c0 {3,S}
11 H u0 p0 c0 {4,S}
12 H u0 p0 c0 {4,S}
13 H u0 p0 c0 {4,S}
14 H u0 p0 c0 {5,S}
15 H u0 p0 c0 {5,S}
16 H u0 p0 c0 {5,S}
17 H u0 p0 c0 {6,S}


>  <multiplicity>  (4) 
2

>  <reaction>  (4) 
rmg_rxn_1156

>  <type>  (4) 
r1

>  <role_mapnums>  (4) 
{}

>  <role_mapidx>  (4) 
{}

>  <ordered_mapped_smiles>  (4) 
[C:1]([C:2]([C:3]([O:4][C:5]([C:6]([H:15])([H:16])[H:17])([H:13])[H:14])([H:11])[H:12])[H:10])([H:7])([H:8])[H:9]

>  <level_of_theory>  (4) 
wb97xd/def2tzvp

>  <lot_method>  (4) 
wb97xd

>  <lot_basis>  (4) 
def2tzvp

>  <spin_multiplicity>  (4) 
2.0

>  <optical_isomers>  (4) 
2.0

>  <modes>  (4) 
IdealGasTranslation(mass=(87.081, 'amu')),         NonlinearRotor(             inertia = ([74.4033, 268.111, 302.513

>  <frequency_value>  (4) 
unknown

>  <frequency_units>  (4) 
unknown

>  <frequency_list>  (4) 
unknown

>  <arkane_path>  (4) 
/home/calvin/Dropbox/PersonalFolders/Calvin/ATLAS_Converged/rmg_rxn_1156/output/Species/rmg_rxn_1156_p2_Csbr-CH-sbrCOCC/arkane/output.py

>  <path_exists>  (4) 
True

>  <E0_value>  (4) 
-714607.0539892471

>  <E0_units>  (4) 
kJ/mol

>  <thermo_class>  (4) 
NASA

>  <Cp0_value>  (4) 
33.257888

>  <Cp0_units>  (4) 
J/(mol*K)

>  <CpInf_value>  (4) 
407.409128

>  <CpInf_units>  (4) 
J/(mol*K)

>  <Tmin_value>  (4) 
10.0

>  <Tmin_units>  (4) 
K

>  <Tmax_value>  (4) 
3000.0

>  <Tmax_units>  (4) 
K

>  <polynomials>  (4) 
[{"name": "polynomial1", "class": "NASAPolynomial", "Tmin_value": 10.0, "Tmin_units": "K", "Tmax_value": 418.97248035570385, "Tmax_units": "K", "coeffs": [3.415820202696168, 0.06232414617959733, -0.00017633287053632122, 4.6328319362259446e-07, -4.093471928882521e-10, -85947374.22650985, 12.667114503537347]}, {"name": "polynomial2", "class": "NASAPolynomial", "Tmin_value": 418.97248035570385, "Tmin_units": "K", "Tmax_value": 3000.0, "Tmax_units": "K", "coeffs": [-1.0100493068729137, 0.06399239170942762, -3.6999058978764434e-05, 1.036521275838224e-08, -1.1289850093466213e-12, -85946647.14151853, 34.42022340242221]}]

>  <H298_value>  (4) 
-170789.3170629634

>  <H298_units>  (4) 
kcal/mol

>  <S298_value>  (4) 
91.70976694301382

>  <S298_units>  (4) 
cal/(mol*K)

>  <Cp_T_value_list>  (4) 
[30.674598388634774, 38.35915766135116, 45.62918610175918, 51.98193186096589, 62.2969822778363, 69.9884415631329, 81.47101918052942, 87.11205877417771, 89.99819619837838]

>  <Cp_T_units>  (4) 
cal/(mol*K)

>  <T_list>  (4) 
[300.0, 400.0, 500.0, 600.0, 800.0, 1000.0, 1500.0, 2000.0, 2400.0]

>  <T_units>  (4) 
K

>  <yaml_path>  (4) 
/home/calvin/Dropbox/PersonalFolders/Calvin/ATLAS_Converged/rmg_rxn_1156/output/Species/rmg_rxn_1156_p2_Csbr-CH-sbrCOCC/rmg_rxn_1156_p2_Csbr-CH-sbrCOCC.yml

>  <frequencies_cm1>  (4) 
[54.723006015079996, 93.81675344183999, 109.75502636956, 128.96885129492, 262.26390334144, 294.80654677292, 303.4520812908, 387.54518351952, 438.3883428288, 616.99176401668, 824.2511149449199, 844.0486336224801, 873.29512410036, 927.75718467328, 988.0630497535199, 1009.5017779225599, 1083.89182989412, 1104.57518967796, 1134.98220067492, 1146.8552182931999, 1169.1042507299999, 1263.49783093872, 1283.3365515281998, 1350.9488889889199, 1360.74807704056, 1384.04775823132, 1397.12936526592, 1416.9337509288, 1456.6592610049997, 1462.4000607325202, 1469.2121101699602, 1471.7528947383598, 1490.2182182638398, 1503.51956882868, 2976.92740702916, 2982.70254168328, 2984.60469661692, 2991.3068742892397, 3020.2924193249596, 3023.5885722785597, 3052.1689651804, 3060.5398202854803, 3064.30979522616, 3075.7501927692797, 3146.1436592846]

>  <ZPE_kJmol>  (4) 
391.6920384390675

>  <E_elec_kJmol>  (4) 
-714998.7460276862

>  <E0_minus_Eelec_plus_ZPE_kJmol>  (4) 
0.0

>  <rxn>  (4) 
rmg_rxn_1156

>  <species_type>  (4) 
p1

>  <species_folder>  (4) 
rmg_rxn_1156_p2_Csbr-CH-sbrCOCC

>  <frequencies_cm1_list>  (4) 
[54.723006015079996, 93.81675344183999, 109.75502636956, 128.96885129492, 262.26390334144, 294.80654677292, 303.4520812908, 387.54518351952, 438.3883428288, 616.99176401668, 824.2511149449199, 844.0486336224801, 873.29512410036, 927.75718467328, 988.0630497535199, 1009.5017779225599, 1083.89182989412, 1104.57518967796, 1134.98220067492, 1146.8552182931999, 1169.1042507299999, 1263.49783093872, 1283.3365515281998, 1350.9488889889199, 1360.74807704056, 1384.04775823132, 1397.12936526592, 1416.9337509288, 1456.6592610049997, 1462.4000607325202, 1469.2121101699602, 1471.7528947383598, 1490.2182182638398, 1503.51956882868, 2976.92740702916, 2982.70254168328, 2984.60469661692, 2991.3068742892397, 3020.2924193249596, 3023.5885722785597, 3052.1689651804, 3060.5398202854803, 3064.30979522616, 3075.7501927692797, 3146.1436592846]

>  <E0_kJmol>  (4) 
-714607

>  <H298_kJmol>  (4) 
-714583

$$$$

     RDKit          3D

  1  0  0  0  0  0  0  0  0  0999 V2000
    0.0000    0.0000    0.0000 O   0  0  0  0  0 15  0  0  0  1  0  0
M  END
>  <rmg_smiles>  (5) 
[O]

>  <rmg_adjacency_list>  (5) 
multiplicity 3
1 O u2 p3 c0


>  <multiplicity>  (5) 
3

>  <reaction>  (5) 
rmg_rxn_1156

>  <type>  (5) 
r2

>  <role_mapnums>  (5) 
{}

>  <role_mapidx>  (5) 
{}

>  <ordered_mapped_smiles>  (5) 
[O:1]

>  <level_of_theory>  (5) 
wb97xd/def2tzvp

>  <lot_method>  (5) 
wb97xd

>  <lot_basis>  (5) 
def2tzvp

>  <spin_multiplicity>  (5) 
3.0

>  <optical_isomers>  (5) 
1.0

>  <modes>  (5) 
IdealGasTranslation(mass=(15.9994, 'amu')),

>  <frequency_value>  (5) 
unknown

>  <frequency_units>  (5) 
unknown

>  <frequency_list>  (5) 
unknown

>  <arkane_path>  (5) 
/home/calvin/Dropbox/PersonalFolders/Calvin/ATLAS_Converged/rmg_rxn_1156/output/Species/rmg_rxn_1156_r1_sbr-O-sbr/arkane/output.py

>  <path_exists>  (5) 
True

>  <E0_value>  (5) 
-197098.59938458708

>  <E0_units>  (5) 
kJ/mol

>  <thermo_class>  (5) 
NASA

>  <Cp0_value>  (5) 
20.78618

>  <Cp0_units>  (5) 
J/(mol*K)

>  <CpInf_value>  (5) 
20.78618

>  <CpInf_units>  (5) 
J/(mol*K)

>  <Tmin_value>  (5) 
10.0

>  <Tmin_units>  (5) 
K

>  <Tmax_value>  (5) 
3000.0

>  <Tmax_units>  (5) 
K

>  <polynomials>  (5) 
[{"name": "polynomial1", "class": "NASAPolynomial", "Tmin_value": 10.0, "Tmin_units": "K", "Tmax_value": 1853.5663026740365, "Tmax_units": "K", "coeffs": [2.500000000000126, -2.814048095438137e-15, 9.047587538332909e-18, -8.591944598242694e-21, 2.4182720553650057e-24, -23705485.977386568, 4.091313385047355]}, {"name": "polynomial2", "class": "NASAPolynomial", "Tmin_value": 1853.5663026740365, "Tmin_units": "K", "Tmax_value": 3000.0, "Tmax_units": "K", "coeffs": [2.500000000696122, -1.3129776766613561e-12, 9.140875080033424e-16, -2.782806647322001e-19, 3.1263265306749967e-23, -23705485.97738686, 4.091313381171202]}]

>  <H298_value>  (5) 
-47106.215373741215

>  <H298_units>  (5) 
kcal/mol

>  <S298_value>  (5) 
36.4335375885593

>  <S298_units>  (5) 
cal/(mol*K)

>  <Cp_T_value_list>  (5) 
[4.968016252389826, 4.968016252389978, 4.968016252390173, 4.96801625239036, 4.968016252390567, 4.968016252390427, 4.968016252389077, 4.968016252391019, 4.968016252390868]

>  <Cp_T_units>  (5) 
cal/(mol*K)

>  <T_list>  (5) 
[300.0, 400.0, 500.0, 600.0, 800.0, 1000.0, 1500.0, 2000.0, 2400.0]

>  <T_units>  (5) 
K

>  <yaml_path>  (5) 
/home/calvin/Dropbox/PersonalFolders/Calvin/ATLAS_Converged/rmg_rxn_1156/output/Species/rmg_rxn_1156_r1_sbr-O-sbr/rmg_rxn_1156_r1_sbr-O-sbr.yml

>  <frequencies_cm1>  (5) 
[]

>  <ZPE_kJmol>  (5) 
unknown

>  <E_elec_kJmol>  (5) 
unknown

>  <E0_minus_Eelec_plus_ZPE_kJmol>  (5) 
unknown

>  <rxn>  (5) 
rmg_rxn_1156

>  <species_type>  (5) 
r0

>  <species_folder>  (5) 
rmg_rxn_1156_r1_sbr-O-sbr

>  <frequencies_cm1_list>  (5) 
[]

>  <E0_kJmol>  (5) 
-197099

>  <H298_kJmol>  (5) 
-197092

$$$$
