
     RDKit          3D

 12 11  0  0  0  0  0  0  0  0999 V2000
    0.2371   -1.6304    0.3673 C   0  0  0  0  0  0  0  0  0  1  0  0
   -0.7096   -0.1160    0.6148 S   0  0  0  0  0  0  0  0  0  2  0  0
    0.3552    1.0922   -0.1259 C   0  0  0  0  0  0  0  0  0  3  0  0
    0.8385    0.8614   -1.5372 C   0  0  0  0  0  0  0  0  0  4  0  0
    0.2190   -1.9489   -0.6743 H   0  0  0  0  0  0  0  0  0  5  0  0
   -0.2363   -2.3983    0.9773 H   0  0  0  0  0  0  0  0  0  6  0  0
    1.2691   -1.4955    0.6919 H   0  0  0  0  0  0  0  0  0  7  0  0
    1.2500    1.1722    0.4920 H   0  0  0  0  0  0  0  0  0  8  0  0
   -0.1250    2.0617    0.0099 H   0  0  0  0  0  0  0  0  0  9  0  0
    1.4908    1.6809   -1.8462 H   0  0  0  0  0  0  0  0  0 10  0  0
    0.0040    0.8022   -2.2414 H   0  0  0  0  0  0  0  0  0 11  0  0
    1.4151   -0.0615   -1.6138 H   0  0  0  0  0  0  0  0  0 12  0  0
  1  5  1  0
  1  7  1  0
  1  2  1  0
  1  6  1  0
  2  3  1  0
  3  4  1  0
  3  9  1  0
  3  8  1  0
  4 12  1  0
  4 10  1  0
  4 11  1  0
M  END
>  <rmg_smiles>  (1) 
CSCC

>  <rmg_adjacency_list>  (1) 
1  S u0 p2 c0 {2,S} {4,S}
2  C u0 p0 c0 {1,S} {3,S} {5,S} {6,S}
3  C u0 p0 c0 {2,S} {7,S} {8,S} {9,S}
4  C u0 p0 c0 {1,S} {10,S} {11,S} {12,S}
5  H u0 p0 c0 {2,S}
6  H u0 p0 c0 {2,S}
7  H u0 p0 c0 {3,S}
8  H u0 p0 c0 {3,S}
9  H u0 p0 c0 {3,S}
10 H u0 p0 c0 {4,S}
11 H u0 p0 c0 {4,S}
12 H u0 p0 c0 {4,S}


>  <multiplicity>  (1) 
1

>  <reaction>  (1) 
rmg_rxn_15692

>  <type>  (1) 
r1h

>  <role_mapnums>  (1) 
{"r1h_a": 3, "r1h_h": 8}

>  <role_mapidx>  (1) 
{"r1h_a": 2, "r1h_h": 7}

>  <ordered_mapped_smiles>  (1) 
[C:1]([S:2][C:3]([C:4]([H:10])([H:11])[H:12])([H:8])[H:9])([H:5])([H:6])[H:7]

>  <mol_properties>  (1) 
{"2": {"label": "donator", "atom_type": "Cs"}, "7": {"label": "d_hydrogen", "atom_type": "H0"}}

>  <level_of_theory>  (1) 
wb97xd/def2tzvp

>  <lot_method>  (1) 
wb97xd

>  <lot_basis>  (1) 
def2tzvp

>  <spin_multiplicity>  (1) 
1.0

>  <optical_isomers>  (1) 
2.0

>  <modes>  (1) 
IdealGasTranslation(mass=(76.0347, 'amu')),         NonlinearRotor(             inertia = ([52.0964, 128.386, 157.856

>  <frequency_value>  (1) 
unknown

>  <frequency_units>  (1) 
unknown

>  <frequency_list>  (1) 
unknown

>  <arkane_path>  (1) 
/home/calvin/Dropbox/PersonalFolders/Calvin/ZEUS_Converged/rmg_rxn_15692/output/Species/rmg_rxn_15692_r2_CSCC/arkane/output.py

>  <path_exists>  (1) 
True

>  <E0_value>  (1) 
-1358024.382384707

>  <E0_units>  (1) 
kJ/mol

>  <thermo_class>  (1) 
NASA

>  <Cp0_value>  (1) 
33.257888

>  <Cp0_units>  (1) 
J/(mol*K)

>  <CpInf_value>  (1) 
282.692048

>  <CpInf_units>  (1) 
J/(mol*K)

>  <Tmin_value>  (1) 
10.0

>  <Tmin_units>  (1) 
K

>  <Tmax_value>  (1) 
3000.0

>  <Tmax_units>  (1) 
K

>  <polynomials>  (1) 
[{"name": "polynomial1", "class": "NASAPolynomial", "Tmin_value": 10.0, "Tmin_units": "K", "Tmax_value": 1066.2668866007684, "Tmax_units": "K", "coeffs": [3.793891230256719, 0.02301010100204071, 1.3424933532968856e-05, -2.439668573123584e-08, 8.539069592907902e-12, -163332607.18697146, 10.299389824596966]}, {"name": "polynomial2", "class": "NASAPolynomial", "Tmin_value": 1066.2668866007684, "Tmin_units": "K", "Tmax_value": 3000.0, "Tmax_units": "K", "coeffs": [3.8792179157527102, 0.03360306068829365, -1.6829238311357225e-05, 4.1180070097392094e-09, -3.9711678273721025e-13, -163333245.74945265, 6.973205796720211]}]

>  <H298_value>  (1) 
-324571.1940810462

>  <H298_units>  (1) 
kcal/mol

>  <S298_value>  (1) 
77.83544863665438

>  <S298_units>  (1) 
cal/(mol*K)

>  <Cp_T_value_list>  (1) 
[22.486476602776577, 27.42967620969081, 32.07208461613054, 36.30607836893156, 43.32195483624624, 48.430824927463995, 56.24965397469871, 60.32875481971757, 62.28322095073424]

>  <Cp_T_units>  (1) 
cal/(mol*K)

>  <T_list>  (1) 
[300.0, 400.0, 500.0, 600.0, 800.0, 1000.0, 1500.0, 2000.0, 2400.0]

>  <T_units>  (1) 
K

>  <yaml_path>  (1) 
/home/calvin/Dropbox/PersonalFolders/Calvin/ZEUS_Converged/rmg_rxn_15692/output/Species/rmg_rxn_15692_r2_CSCC/rmg_rxn_15692_r2_CSCC.yml

>  <frequencies_cm1>  (1) 
[86.86049731268, 173.63172381619998, 227.43455379839997, 277.98929972423997, 356.053188842, 666.01517221616, 740.88591316012, 758.5958683004, 952.29292322164, 966.1504995974, 986.7445885720799, 1060.0221889218, 1079.9089784085197, 1272.4729807519598, 1296.60356716644, 1348.6278479507598, 1400.27444454248, 1452.28499135616, 1457.8541164506798, 1470.393231645, 1480.8997191846001, 1487.8971772256798, 3015.3687908505194, 3018.78854953988, 3025.31218559388, 3073.71756511456, 3086.881575973, 3099.52369594712, 3104.7151368490404, 3118.41477256244]

>  <ZPE_kJmol>  (1) 
272.4054138316235

>  <E_elec_kJmol>  (1) 
-1358296.7877985386

>  <E0_minus_Eelec_plus_ZPE_kJmol>  (1) 
0.0

>  <rxn>  (1) 
rmg_rxn_15692

>  <species_type>  (1) 
r1

>  <species_folder>  (1) 
rmg_rxn_15692_r2_CSCC

>  <frequencies_cm1_list>  (1) 
[86.86049731268, 173.63172381619998, 227.43455379839997, 277.98929972423997, 356.053188842, 666.01517221616, 740.88591316012, 758.5958683004, 952.29292322164, 966.1504995974, 986.7445885720799, 1060.0221889218, 1079.9089784085197, 1272.4729807519598, 1296.60356716644, 1348.6278479507598, 1400.27444454248, 1452.28499135616, 1457.8541164506798, 1470.393231645, 1480.8997191846001, 1487.8971772256798, 3015.3687908505194, 3018.78854953988, 3025.31218559388, 3073.71756511456, 3086.881575973, 3099.52369594712, 3104.7151368490404, 3118.41477256244]

>  <E0_kJmol>  (1) 
-1.35802e+06

>  <H298_kJmol>  (1) 
-1.35801e+06

$$$$

     RDKit          3D

  9  8  0  0  0  0  0  0  0  0999 V2000
   -0.9826    1.0087    0.9232 C   0  0  0  0  0  0  0  0  0  1  0  0
    0.0583    0.6349    0.0817 O   0  0  0  0  0  0  0  0  0  2  0  0
    0.0538   -0.7235   -0.1313 N   0  0  0  0  0  0  0  0  0  3  0  0
    0.9644   -1.0788   -0.9329 C   0  0  0  0  0  0  0  0  0  4  0  0
   -1.1226    0.3320    1.7655 H   0  0  0  0  0  0  0  0  0  5  0  0
   -0.8399    2.0506    1.1951 H   0  0  0  0  0  0  0  0  0  6  0  0
    1.0328   -2.1367   -1.1482 H   0  0  0  0  0  0  0  0  0  7  0  0
    1.6531   -0.3714   -1.3886 H   0  0  0  0  0  0  0  0  0  8  0  0
   -1.9190    0.9528    0.3724 H   0  0  0  0  0  0  0  0  0  9  0  0
  1  5  1  0
  1  9  1  0
  1  2  1  0
  1  6  1  0
  2  3  1  0
  3  4  1  0
  4  8  1  0
  4  7  1  0
M  END
>  <rmg_smiles>  (2) 
CO[N][CH2]

>  <rmg_adjacency_list>  (2) 
1 O u0 p2 c0 {2,S} {3,S}
2 N u0 p1 c0 {1,S} {4,S}
3 C u0 p0 c0 {1,S} {5,S} {6,S} {7,S}
4 C u0 p0 c0 {2,S} {8,S} {9,S}
5 H u0 p0 c0 {3,S}
6 H u0 p0 c0 {3,S}
7 H u0 p0 c0 {3,S}
8 H u0 p0 c0 {4,S}
9 H u0 p0 c0 {4,S}


>  <multiplicity>  (2) 
1

>  <reaction>  (2) 
rmg_rxn_15692

>  <type>  (2) 
r2h

>  <role_mapnums>  (2) 
{"r2h_a": 1, "r2h_h": 9}

>  <role_mapidx>  (2) 
{"r2h_a": 0, "r2h_h": 8}

>  <ordered_mapped_smiles>  (2) 
[C:1]([O:2][NH:3][CH:4]([H:7])[H:8])([H:5])([H:6])[H:9]

>  <mol_properties>  (2) 
{"0": {"label": "acceptor", "atom_type": "Cs"}, "8": {"label": "a_hydrogen", "atom_type": "H0"}}

>  <level_of_theory>  (2) 
wb97xd/def2tzvp

>  <lot_method>  (2) 
wb97xd

>  <lot_basis>  (2) 
def2tzvp

>  <spin_multiplicity>  (2) 
1.0

>  <optical_isomers>  (2) 
1.0

>  <modes>  (2) 
IdealGasTranslation(mass=(59.0371, 'amu')),         NonlinearRotor(             inertia = ([11.9742, 101.538, 110.304

>  <frequency_value>  (2) 
unknown

>  <frequency_units>  (2) 
unknown

>  <frequency_list>  (2) 
unknown

>  <arkane_path>  (2) 
/home/calvin/Dropbox/PersonalFolders/Calvin/ZEUS_Converged/rmg_rxn_15692/output/Species/rmg_rxn_15692_p1_CON=C/arkane/output.py

>  <path_exists>  (2) 
True

>  <E0_value>  (2) 
-548882.9200394232

>  <E0_units>  (2) 
kJ/mol

>  <thermo_class>  (2) 
NASA

>  <Cp0_value>  (2) 
33.257888

>  <Cp0_units>  (2) 
J/(mol*K)

>  <CpInf_value>  (2) 
207.8618

>  <CpInf_units>  (2) 
J/(mol*K)

>  <Tmin_value>  (2) 
10.0

>  <Tmin_units>  (2) 
K

>  <Tmax_value>  (2) 
3000.0

>  <Tmax_units>  (2) 
K

>  <polynomials>  (2) 
[{"name": "polynomial1", "class": "NASAPolynomial", "Tmin_value": 10.0, "Tmin_units": "K", "Tmax_value": 1066.0445442103917, "Tmax_units": "K", "coeffs": [3.9488472240731216, 0.012909444164008412, 1.8432835387873368e-05, -2.5565901414715004e-08, 8.632634293818456e-12, -66015370.98001154, 7.906058800048573]}, {"name": "polynomial2", "class": "NASAPolynomial", "Tmin_value": 1066.0445442103917, "Tmin_units": "K", "Tmax_value": 3000.0, "Tmax_units": "K", "coeffs": [4.051174026649639, 0.02340322367340144, -1.163838712217072e-05, 2.8112466199843713e-09, -2.6680947262736413e-13, -66016010.897278614, 4.506810904924114]}]

>  <H298_value>  (2) 
-131182.46582067996

>  <H298_units>  (2) 
kcal/mol

>  <S298_value>  (2) 
69.27397375028742

>  <S298_units>  (2) 
cal/(mol*K)

>  <Cp_T_value_list>  (2) 
[17.607207323409234, 21.157104611048137, 24.5530891366924, 27.67560467885903, 32.827861850696166, 36.480858050170255, 41.94371504002133, 44.76201379304356, 46.08804102499818]

>  <Cp_T_units>  (2) 
cal/(mol*K)

>  <T_list>  (2) 
[300.0, 400.0, 500.0, 600.0, 800.0, 1000.0, 1500.0, 2000.0, 2400.0]

>  <T_units>  (2) 
K

>  <yaml_path>  (2) 
/home/calvin/Dropbox/PersonalFolders/Calvin/ZEUS_Converged/rmg_rxn_15692/output/Species/rmg_rxn_15692_p1_CON=C/rmg_rxn_15692_p1_CON=C.yml

>  <frequencies_cm1>  (2) 
[119.61601728907998, 180.59484693068, 346.29520270228, 574.9726808436, 796.6046320465999, 891.08061607916, 982.9746136314, 1126.32979917172, 1169.7222794088, 1171.7686410341598, 1237.71230106212, 1418.12173938916, 1456.2266409298397, 1467.4060930307999, 1493.1160860688801, 1708.0183916582798, 3005.45973103376, 3077.28153049564, 3083.54422110748, 3121.53925088304, 3213.405780494]

>  <ZPE_kJmol>  (2) 
189.2599943319938

>  <E_elec_kJmol>  (2) 
-549072.1800337551

>  <E0_minus_Eelec_plus_ZPE_kJmol>  (2) 
0.0

>  <rxn>  (2) 
rmg_rxn_15692

>  <species_type>  (2) 
p0

>  <species_folder>  (2) 
rmg_rxn_15692_p1_CON=C

>  <frequencies_cm1_list>  (2) 
[119.61601728907998, 180.59484693068, 346.29520270228, 574.9726808436, 796.6046320465999, 891.08061607916, 982.9746136314, 1126.32979917172, 1169.7222794088, 1171.7686410341598, 1237.71230106212, 1418.12173938916, 1456.2266409298397, 1467.4060930307999, 1493.1160860688801, 1708.0183916582798, 3005.45973103376, 3077.28153049564, 3083.54422110748, 3121.53925088304, 3213.405780494]

>  <E0_kJmol>  (2) 
-548883

>  <H298_kJmol>  (2) 
-548867

$$$$

     RDKit          3D

 20 18  0  0  0  0  0  0  0  0999 V2000
    1.0423    1.1929    1.1423 C   0  0  0  0  0  3  0  0  0  1  0  0
    2.0831    0.8191    0.3007 O   0  0  0  0  0  0  0  0  0  2  0  0
    2.0786   -0.5394    0.0877 N   0  0  0  0  0  0  0  0  0  3  0  0
    2.9893   -0.8947   -0.7138 C   0  0  0  0  0  0  0  0  0  4  0  0
    0.9022    0.5162    1.9846 H   0  0  0  0  0  0  0  0  0  5  0  0
    1.1849    2.2348    1.4141 H   0  0  0  0  0  0  0  0  0  6  0  0
    3.0576   -1.9525   -0.9291 H   0  0  0  0  0  0  0  0  0  7  0  0
    3.6780   -0.1872   -1.1696 H   0  0  0  0  0  0  0  0  0  8  0  0
   -1.3550   -1.6979    0.1840 C   0  0  0  0  0  0  0  0  0  9  0  0
   -2.3018   -0.1835    0.4316 S   0  0  0  0  0  0  0  0  0 10  0  0
   -1.2369    1.0247   -0.3092 C   0  0  0  0  0  0  0  0  0 11  0  0
   -0.7536    0.7939   -1.7205 C   0  0  0  0  0  0  0  0  0 12  0  0
   -1.3732   -2.0165   -0.8576 H   0  0  0  0  0  0  0  0  0 13  0  0
   -1.8285   -2.4659    0.7940 H   0  0  0  0  0  0  0  0  0 14  0  0
   -0.3230   -1.5630    0.5086 H   0  0  0  0  0  0  0  0  0 15  0  0
   -0.1536    1.1215    0.4389 H   0  0  0  0  0  0  0  0  0 16  0  0
   -1.7171    1.9941   -0.1733 H   0  0  0  0  0  0  0  0  0 17  0  0
   -0.1013    1.6133   -2.0295 H   0  0  0  0  0  0  0  0  0 18  0  0
   -1.5881    0.7346   -2.4247 H   0  0  0  0  0  0  0  0  0 19  0  0
   -0.1770   -0.1291   -1.7971 H   0  0  0  0  0  0  0  0  0 20  0  0
  1  5  1  0
  1  2  1  0
  1  6  1  0
  2  3  1  0
  3  4  1  0
  4  8  1  0
  4  7  1  0
  9 10  1  0
  9 14  1  0
  9 13  1  0
  9 15  1  0
 10 11  1  0
 11 12  1  0
 11 16  1  0
 11 17  1  0
 12 19  1  0
 12 20  1  0
 12 18  1  0
M  RAD  1   1   2
M  END
>  <rmg_smiles>  (3) 
[CH2]O[N][CH2].CSCC

>  <rmg_adjacency_list>  (3) 
multiplicity 2
1  S u0 p2 c0 {4,S} {6,S}
2  O u0 p2 c0 {3,S} {7,S}
3  N u0 p1 c0 {2,S} {8,S}
4  C u0 p0 c0 {1,S} {5,S} {9,S} {10,S}
5  C u0 p0 c0 {4,S} {11,S} {12,S} {13,S}
6  C u0 p0 c0 {1,S} {14,S} {15,S} {16,S}
7  C u1 p0 c0 {2,S} {17,S} {18,S}
8  C u0 p0 c0 {3,S} {19,S} {20,S}
9  H u0 p0 c0 {4,S}
10 H u0 p0 c0 {4,S}
11 H u0 p0 c0 {5,S}
12 H u0 p0 c0 {5,S}
13 H u0 p0 c0 {5,S}
14 H u0 p0 c0 {6,S}
15 H u0 p0 c0 {6,S}
16 H u0 p0 c0 {6,S}
17 H u0 p0 c0 {7,S}
18 H u0 p0 c0 {7,S}
19 H u0 p0 c0 {8,S}
20 H u0 p0 c0 {8,S}


>  <multiplicity>  (3) 
2

>  <reaction>  (3) 
rmg_rxn_15692

>  <type>  (3) 
ts

>  <role_mapnums>  (3) 
{"*2": 16, "*1": 11, "*3": 1, "*0": 10, "*4": 2}

>  <role_mapidx>  (3) 
{"*2": 15, "*1": 10, "*3": 0, "*0": 9, "*4": 1}

>  <ordered_mapped_smiles>  (3) 
[C:1]([O:2][NH:3][CH:4]([H:7])[H:8])([H:5])[H:6].[C:9]([S:10][C:11]([C:12]([H:18])([H:19])[H:20])([H:16])[H:17])([H:13])([H:14])[H:15]

>  <mol_properties>  (3) 
{"0": {"label": "*3", "atom_type": "Cs"}, "1": {"label": "*4", "atom_type": "O2s"}, "9": {"label": "*0", "atom_type": "S2s"}, "10": {"label": "*1", "atom_type": "Cs"}, "15": {"label": "*2", "atom_type": "H0"}}

>  <level_of_theory>  (3) 
wb97xd/def2tzvp

>  <lot_method>  (3) 
wb97xd

>  <lot_basis>  (3) 
def2tzvp

>  <spin_multiplicity>  (3) 
2.0

>  <optical_isomers>  (3) 
2.0

>  <modes>  (3) 
IdealGasTranslation(mass=(134.064, 'amu')),         NonlinearRotor(             inertia = ([216.44, 593.105, 630.982

>  <frequency_value>  (3) 
-1771.24

>  <frequency_units>  (3) 
cm^-1

>  <frequency_list>  (3) 
unknown

>  <arkane_path>  (3) 
/home/calvin/Dropbox/PersonalFolders/Calvin/ZEUS_Converged/rmg_rxn_15692/output/rxns/TS0/arkane/output.py

>  <path_exists>  (3) 
True

>  <E0_value>  (3) 
-1905150.0

>  <E0_units>  (3) 
kJ/mol

>  <thermo_class>  (3) 
unknown

>  <Cp0_value>  (3) 
unknown

>  <Cp0_units>  (3) 
unknown

>  <CpInf_value>  (3) 
unknown

>  <CpInf_units>  (3) 
unknown

>  <Tmin_value>  (3) 
unknown

>  <Tmin_units>  (3) 
unknown

>  <Tmax_value>  (3) 
unknown

>  <Tmax_units>  (3) 
unknown

>  <polynomials>  (3) 
unknown

>  <H298_value>  (3) 
unknown

>  <H298_units>  (3) 
unknown

>  <S298_value>  (3) 
unknown

>  <S298_units>  (3) 
unknown

>  <Cp_T_value_list>  (3) 
unknown

>  <Cp_T_units>  (3) 
unknown

>  <T_list>  (3) 
unknown

>  <T_units>  (3) 
unknown

>  <yaml_path>  (3) 
unknown

>  <frequencies_cm1>  (3) 
unknown

>  <ZPE_kJmol>  (3) 
unknown

>  <E_elec_kJmol>  (3) 
unknown

>  <E0_minus_Eelec_plus_ZPE_kJmol>  (3) 
unknown

>  <rxn>  (3) 
unknown

>  <species_type>  (3) 
unknown

>  <species_folder>  (3) 
unknown

>  <frequencies_cm1_list>  (3) 
[]

>  <ts_imag_freq_cm1>  (3) 
-1792.7526

>  <ts_freq_out_path>  (3) 
/home/calvin/Dropbox/PersonalFolders/Calvin/ZEUS_Converged/rmg_rxn_15692/output/rxns/TS0/geometry/freq.out

>  <E0_kJmol>  (3) 
-1.90515e+06

>  <H298_kJmol>  (3) 
unknown

$$$$

     RDKit          3D

 11 10  0  0  0  0  0  0  0  0999 V2000
   -2.0988   -0.3145   -0.2868 C   0  0  0  0  0  0  0  0  0  1  0  0
   -0.7126   -0.0625   -1.4056 S   0  0  0  0  0  0  0  0  0  2  0  0
    0.5890    0.0878   -0.3019 C   0  0  0  0  0  3  0  0  0  3  0  0
    1.9588    0.3511   -0.8202 C   0  0  0  0  0  0  0  0  0  4  0  0
   -2.2228    0.5468    0.3682 H   0  0  0  0  0  0  0  0  0  5  0  0
   -1.9535   -1.2167    0.3068 H   0  0  0  0  0  0  0  0  0  6  0  0
   -2.9906   -0.4323   -0.8998 H   0  0  0  0  0  0  0  0  0  7  0  0
    0.4439   -0.2864    0.7037 H   0  0  0  0  0  0  0  0  0  8  0  0
    2.5745    0.8210   -0.0507 H   0  0  0  0  0  0  0  0  0  9  0  0
    1.9374    1.0182   -1.6853 H   0  0  0  0  0  0  0  0  0 10  0  0
    2.4745   -0.5669   -1.1316 H   0  0  0  0  0  0  0  0  0 11  0  0
  1  5  1  0
  1  7  1  0
  1  2  1  0
  1  6  1  0
  2  3  1  0
  3  4  1  0
  3  8  1  0
  4  9  1  0
  4 10  1  0
  4 11  1  0
M  RAD  1   3   2
M  END
>  <rmg_smiles>  (4) 
CS[CH]C

>  <rmg_adjacency_list>  (4) 
multiplicity 2
1  S u0 p2 c0 {3,S} {4,S}
2  C u0 p0 c0 {4,S} {5,S} {6,S} {7,S}
3  C u0 p0 c0 {1,S} {8,S} {9,S} {10,S}
4  C u1 p0 c0 {1,S} {2,S} {11,S}
5  H u0 p0 c0 {2,S}
6  H u0 p0 c0 {2,S}
7  H u0 p0 c0 {2,S}
8  H u0 p0 c0 {3,S}
9  H u0 p0 c0 {3,S}
10 H u0 p0 c0 {3,S}
11 H u0 p0 c0 {4,S}


>  <multiplicity>  (4) 
2

>  <reaction>  (4) 
rmg_rxn_15692

>  <type>  (4) 
r1

>  <role_mapnums>  (4) 
{}

>  <role_mapidx>  (4) 
{}

>  <ordered_mapped_smiles>  (4) 
[C:1]([S:2][C:3]([C:4]([H:9])([H:10])[H:11])[H:8])([H:5])([H:6])[H:7]

>  <level_of_theory>  (4) 
wb97xd/def2tzvp

>  <lot_method>  (4) 
wb97xd

>  <lot_basis>  (4) 
def2tzvp

>  <spin_multiplicity>  (4) 
2.0

>  <optical_isomers>  (4) 
2.0

>  <modes>  (4) 
IdealGasTranslation(mass=(75.0268, 'amu')),         NonlinearRotor(             inertia = ([27.3191, 156.996, 177.781

>  <frequency_value>  (4) 
unknown

>  <frequency_units>  (4) 
unknown

>  <frequency_list>  (4) 
unknown

>  <arkane_path>  (4) 
/home/calvin/Dropbox/PersonalFolders/Calvin/ZEUS_Converged/rmg_rxn_15692/output/Species/rmg_rxn_15692_p2_CSsbr-CH-sbrC/arkane/output.py

>  <path_exists>  (4) 
True

>  <E0_value>  (4) 
-1356332.5422650937

>  <E0_units>  (4) 
kJ/mol

>  <thermo_class>  (4) 
NASA

>  <Cp0_value>  (4) 
33.257888

>  <Cp0_units>  (4) 
J/(mol*K)

>  <CpInf_value>  (4) 
257.748632

>  <CpInf_units>  (4) 
J/(mol*K)

>  <Tmin_value>  (4) 
10.0

>  <Tmin_units>  (4) 
K

>  <Tmax_value>  (4) 
3000.0

>  <Tmax_units>  (4) 
K

>  <polynomials>  (4) 
[{"name": "polynomial1", "class": "NASAPolynomial", "Tmin_value": 10.0, "Tmin_units": "K", "Tmax_value": 462.8954215885725, "Tmax_units": "K", "coeffs": [3.5853839600019564, 0.04068641015801913, -8.940569218891333e-05, 1.814642333134279e-07, -1.3675407519950979e-10, -163129123.73781177, 11.156036852509658]}, {"name": "polynomial2", "class": "NASAPolynomial", "Tmin_value": 462.8954215885725, "Tmin_units": "K", "Tmax_value": 3000.0, "Tmax_units": "K", "coeffs": [2.2762456826527875, 0.0356668317569631, -2.0215889552875888e-05, 5.594706347325877e-09, -6.049641817544136e-13, -163128827.56236768, 18.353526376016024]}]

>  <H298_value>  (4) 
-324166.525984713

>  <H298_units>  (4) 
kcal/mol

>  <S298_value>  (4) 
81.6109525881521

>  <S298_units>  (4) 
cal/(mol*K)

>  <Cp_T_value_list>  (4) 
[22.925648251760197, 27.16082821225964, 31.233356206657117, 34.83310230018859, 40.71435993624802, 45.143231081716586, 51.88644776341574, 55.293176039409325, 57.038945153776986]

>  <Cp_T_units>  (4) 
cal/(mol*K)

>  <T_list>  (4) 
[300.0, 400.0, 500.0, 600.0, 800.0, 1000.0, 1500.0, 2000.0, 2400.0]

>  <T_units>  (4) 
K

>  <yaml_path>  (4) 
/home/calvin/Dropbox/PersonalFolders/Calvin/ZEUS_Converged/rmg_rxn_15692/output/Species/rmg_rxn_15692_p2_CSsbr-CH-sbrC/rmg_rxn_15692_p2_CSsbr-CH-sbrC.yml

>  <frequencies_cm1>  (4) 
[77.17118102615999, 111.05288659504, 162.44540472992, 208.78382166928, 356.65748355015995, 405.68089174963995, 719.8042682277201, 771.8560169533199, 961.0826644312399, 968.6912841658, 1002.4425170136, 1039.05041575452, 1111.9297309556798, 1298.46452018816, 1347.8038097123601, 1399.48474123068, 1454.1184764365998, 1459.7768723402799, 1468.8000910507599, 1474.8224371763997, 2963.4131799193997, 3024.8177626508395, 3037.8581677735197, 3080.33733896304, 3110.86795569576, 3126.7787606822, 3158.1471496239596]

>  <ZPE_kJmol>  (4) 
235.0790680309652

>  <E_elec_kJmol>  (4) 
-1356567.6213331246

>  <E0_minus_Eelec_plus_ZPE_kJmol>  (4) 
0.0

>  <rxn>  (4) 
rmg_rxn_15692

>  <species_type>  (4) 
p1

>  <species_folder>  (4) 
rmg_rxn_15692_p2_CSsbr-CH-sbrC

>  <frequencies_cm1_list>  (4) 
[77.17118102615999, 111.05288659504, 162.44540472992, 208.78382166928, 356.65748355015995, 405.68089174963995, 719.8042682277201, 771.8560169533199, 961.0826644312399, 968.6912841658, 1002.4425170136, 1039.05041575452, 1111.9297309556798, 1298.46452018816, 1347.8038097123601, 1399.48474123068, 1454.1184764365998, 1459.7768723402799, 1468.8000910507599, 1474.8224371763997, 2963.4131799193997, 3024.8177626508395, 3037.8581677735197, 3080.33733896304, 3110.86795569576, 3126.7787606822, 3158.1471496239596]

>  <E0_kJmol>  (4) 
-1.35633e+06

>  <H298_kJmol>  (4) 
-1.35631e+06

$$$$

     RDKit          3D

  8  7  0  0  0  0  0  0  0  0999 V2000
    1.7077   -0.1964   -0.0607 C   0  0  0  0  0  3  0  0  0  1  0  0
    0.4209   -0.4565    0.2808 O   0  0  0  0  0  0  0  0  0  2  0  0
   -0.4607    0.4385   -0.2968 N   0  0  0  0  0  0  0  0  0  3  0  0
   -1.6584    0.1416   -0.0244 C   0  0  0  0  0  0  0  0  0  4  0  0
    2.4163   -0.7685    0.5170 H   0  0  0  0  0  0  0  0  0  5  0  0
    1.9214    0.7645   -0.5045 H   0  0  0  0  0  0  0  0  0  6  0  0
   -2.4185    0.7953   -0.4307 H   0  0  0  0  0  0  0  0  0  7  0  0
   -1.9286   -0.7185    0.5831 H   0  0  0  0  0  0  0  0  0  8  0  0
  1  6  1  0
  1  5  1  0
  1  2  1  0
  2  3  1  0
  3  4  1  0
  4  8  1  0
  4  7  1  0
M  RAD  1   1   2
M  END
>  <rmg_smiles>  (5) 
[CH2]O[N][CH2]

>  <rmg_adjacency_list>  (5) 
multiplicity 2
1 O u0 p2 c0 {2,S} {3,S}
2 N u0 p1 c0 {1,S} {4,S}
3 C u1 p0 c0 {1,S} {5,S} {6,S}
4 C u0 p0 c0 {2,S} {7,S} {8,S}
5 H u0 p0 c0 {3,S}
6 H u0 p0 c0 {3,S}
7 H u0 p0 c0 {4,S}
8 H u0 p0 c0 {4,S}


>  <multiplicity>  (5) 
2

>  <reaction>  (5) 
rmg_rxn_15692

>  <type>  (5) 
r2

>  <role_mapnums>  (5) 
{}

>  <role_mapidx>  (5) 
{}

>  <ordered_mapped_smiles>  (5) 
[C:1]([O:2][NH:3][CH:4]([H:7])[H:8])([H:5])[H:6]

>  <level_of_theory>  (5) 
wb97xd/def2tzvp

>  <lot_method>  (5) 
wb97xd

>  <lot_basis>  (5) 
def2tzvp

>  <spin_multiplicity>  (5) 
2.0

>  <optical_isomers>  (5) 
2.0

>  <modes>  (5) 
IdealGasTranslation(mass=(58.0293, 'amu')),         NonlinearRotor(             inertia = ([10.2741, 95.4529, 105.582

>  <frequency_value>  (5) 
unknown

>  <frequency_units>  (5) 
unknown

>  <frequency_list>  (5) 
unknown

>  <arkane_path>  (5) 
/home/calvin/Dropbox/PersonalFolders/Calvin/ZEUS_Converged/rmg_rxn_15692/output/Species/rmg_rxn_15692_r1_sbr-CH2-sbrON=C/arkane/output.py

>  <path_exists>  (5) 
True

>  <E0_value>  (5) 
-547168.2732446302

>  <E0_units>  (5) 
kJ/mol

>  <thermo_class>  (5) 
NASA

>  <Cp0_value>  (5) 
33.257888

>  <Cp0_units>  (5) 
J/(mol*K)

>  <CpInf_value>  (5) 
182.918384

>  <CpInf_units>  (5) 
J/(mol*K)

>  <Tmin_value>  (5) 
10.0

>  <Tmin_units>  (5) 
K

>  <Tmax_value>  (5) 
3000.0

>  <Tmax_units>  (5) 
K

>  <polynomials>  (5) 
[{"name": "polynomial1", "class": "NASAPolynomial", "Tmin_value": 10.0, "Tmin_units": "K", "Tmax_value": 253.2842427910515, "Tmax_units": "K", "coeffs": [3.956862909385456, 0.0038362890131335746, 0.00011727738047703725, -3.4736244039427427e-07, 3.472729073035136e-10, -65809144.38694886, 9.350338763280796]}, {"name": "polynomial2", "class": "NASAPolynomial", "Tmin_value": 253.2842427910515, "Tmin_units": "K", "Tmax_value": 3000.0, "Tmax_units": "K", "coeffs": [2.5252197328965313, 0.026445761179553072, -1.662161754135038e-05, 5.074735532607581e-09, -5.97403912324656e-13, -65809071.86505469, 14.291183066674913]}]

>  <H298_value>  (5) 
-130772.65860702786

>  <H298_units>  (5) 
kcal/mol

>  <S298_value>  (5) 
71.26914844977757

>  <S298_units>  (5) 
cal/(mol*K)

>  <Cp_T_value_list>  (5) 
[18.0740035969719, 21.369534269323825, 24.223451351766553, 26.683440747612977, 30.598134113509214, 33.438117676478754, 37.554421513360474, 39.68390492467901, 40.91110806828642]

>  <Cp_T_units>  (5) 
cal/(mol*K)

>  <T_list>  (5) 
[300.0, 400.0, 500.0, 600.0, 800.0, 1000.0, 1500.0, 2000.0, 2400.0]

>  <T_units>  (5) 
K

>  <yaml_path>  (5) 
/home/calvin/Dropbox/PersonalFolders/Calvin/ZEUS_Converged/rmg_rxn_15692/output/Species/rmg_rxn_15692_r1_sbr-CH2-sbrON=C/rmg_rxn_15692_r1_sbr-CH2-sbrON=C.yml

>  <frequencies_cm1>  (5) 
[132.13453152744, 273.14807507364, 360.4549264321199, 498.69420790903996, 595.9169860696, 789.3942974605999, 873.74834513148, 993.5360370535599, 1152.01232426852, 1206.54305469464, 1257.0497317232398, 1417.2771001948001, 1437.260027476, 1705.2166616477198, 3090.5210781926, 3134.7719315946797, 3218.94057066192, 3282.16490450316]

>  <ZPE_kJmol>  (5) 
152.0381400376291

>  <E_elec_kJmol>  (5) 
-547320.3113846679

>  <E0_minus_Eelec_plus_ZPE_kJmol>  (5) 
0.0

>  <rxn>  (5) 
rmg_rxn_15692

>  <species_type>  (5) 
r0

>  <species_folder>  (5) 
rmg_rxn_15692_r1_sbr-CH2-sbrON=C

>  <frequencies_cm1_list>  (5) 
[132.13453152744, 273.14807507364, 360.4549264321199, 498.69420790903996, 595.9169860696, 789.3942974605999, 873.74834513148, 993.5360370535599, 1152.01232426852, 1206.54305469464, 1257.0497317232398, 1417.2771001948001, 1437.260027476, 1705.2166616477198, 3090.5210781926, 3134.7719315946797, 3218.94057066192, 3282.16490450316]

>  <E0_kJmol>  (5) 
-547168

>  <H298_kJmol>  (5) 
-547153

$$$$
