
     RDKit          3D

 14 13  0  0  0  0  0  0  0  0999 V2000
    0.5820   -1.1392   -1.4687 C   0  0  0  0  0  0  0  0  0  1  0  0
    0.4299   -0.6258   -0.0439 C   0  0  0  0  0  0  0  0  0  2  0  0
   -0.3994    0.6514    0.0435 C   0  0  0  0  0  0  0  0  0  3  0  0
   -0.5930    1.1382    1.4561 C   0  0  0  0  0  0  0  0  0  4  0  0
    1.0645   -0.3935   -2.1051 H   0  0  0  0  0  0  0  0  0  5  0  0
   -0.3924   -1.3662   -1.9082 H   0  0  0  0  0  0  0  0  0  6  0  0
    1.1842   -2.0485   -1.5046 H   0  0  0  0  0  0  0  0  0  7  0  0
   -0.0341   -1.3973    0.5780 H   0  0  0  0  0  0  0  0  0  8  0  0
    1.4173   -0.4404    0.3903 H   0  0  0  0  0  0  0  0  0  9  0  0
   -1.3768    0.4803   -0.4210 H   0  0  0  0  0  0  0  0  0 10  0  0
    0.0838    1.4308   -0.5602 H   0  0  0  0  0  0  0  0  0 11  0  0
    0.3263    1.2292    2.0345 H   0  0  0  0  0  0  0  0  0 12  0  0
   -1.1574    0.3659    1.9772 H   0  0  0  0  0  0  0  0  0 13  0  0
   -1.2180    2.0241    1.5550 H   0  0  0  0  0  0  0  0  0 14  0  0
  1  5  1  0
  1  7  1  0
  1  6  1  0
  1  2  1  0
  2  9  1  0
  2  8  1  0
  2  3  1  0
  3 11  1  0
  3  4  1  0
  3 10  1  0
  4 14  1  0
  4 13  1  0
  4 12  1  0
M  END
>  <rmg_smiles>  (1) 
CCCC

>  <rmg_adjacency_list>  (1) 
1  C u0 p0 c0 {2,S} {3,S} {5,S} {6,S}
2  C u0 p0 c0 {1,S} {4,S} {7,S} {8,S}
3  C u0 p0 c0 {1,S} {9,S} {10,S} {11,S}
4  C u0 p0 c0 {2,S} {12,S} {13,S} {14,S}
5  H u0 p0 c0 {1,S}
6  H u0 p0 c0 {1,S}
7  H u0 p0 c0 {2,S}
8  H u0 p0 c0 {2,S}
9  H u0 p0 c0 {3,S}
10 H u0 p0 c0 {3,S}
11 H u0 p0 c0 {3,S}
12 H u0 p0 c0 {4,S}
13 H u0 p0 c0 {4,S}
14 H u0 p0 c0 {4,S}


>  <multiplicity>  (1) 
1

>  <reaction>  (1) 
rmg_rxn_236

>  <type>  (1) 
r1h

>  <role_mapnums>  (1) 
{"r1h_a": 4, "r1h_h": 13}

>  <role_mapidx>  (1) 
{"r1h_a": 3, "r1h_h": 12}

>  <ordered_mapped_smiles>  (1) 
[C:1]([C:2]([C:3]([C:4]([H:12])([H:13])[H:14])([H:10])[H:11])([H:8])[H:9])([H:5])([H:6])[H:7]

>  <mol_properties>  (1) 
{"3": {"label": "donator", "atom_type": "Cs"}, "12": {"label": "d_hydrogen", "atom_type": "H0"}}

>  <level_of_theory>  (1) 
wb97xd/def2tzvp

>  <lot_method>  (1) 
wb97xd

>  <lot_basis>  (1) 
def2tzvp

>  <spin_multiplicity>  (1) 
1.0

>  <optical_isomers>  (1) 
1.0

>  <modes>  (1) 
IdealGasTranslation(mass=(58.0782, 'amu')),         NonlinearRotor(             inertia = ([21.4183, 138.436, 147.416

>  <frequency_value>  (1) 
unknown

>  <frequency_units>  (1) 
unknown

>  <frequency_list>  (1) 
unknown

>  <arkane_path>  (1) 
/home/calvin/Dropbox/PersonalFolders/Calvin/ATLAS_Converged/rmg_rxn_236/output/Species/rmg_rxn_236_r1_CCCC/arkane/output.py

>  <path_exists>  (1) 
True

>  <E0_value>  (1) 
-415711.4770347972

>  <E0_units>  (1) 
kJ/mol

>  <thermo_class>  (1) 
NASA

>  <Cp0_value>  (1) 
33.257888

>  <Cp0_units>  (1) 
J/(mol*K)

>  <CpInf_value>  (1) 
332.57888

>  <CpInf_units>  (1) 
J/(mol*K)

>  <Tmin_value>  (1) 
10.0

>  <Tmin_units>  (1) 
K

>  <Tmax_value>  (1) 
3000.0

>  <Tmax_units>  (1) 
K

>  <polynomials>  (1) 
[{"name": "polynomial1", "class": "NASAPolynomial", "Tmin_value": 10.0, "Tmin_units": "K", "Tmax_value": 1025.0239672813746, "Tmax_units": "K", "coeffs": [3.915013592071844, 0.015190476507378274, 4.499566831623061e-05, -5.4452087887537436e-08, 1.803189229500368e-11, -49998546.31449076, 7.728184054699678]}, {"name": "polynomial2", "class": "NASAPolynomial", "Tmin_value": 1025.0239672813746, "Tmin_units": "K", "Tmax_value": 3000.0, "Tmax_units": "K", "coeffs": [0.8557434606866323, 0.04413202068529884, -2.2238982520549216e-05, 5.4598853249734095e-09, -5.274578153178241e-13, -49998812.39100051, 18.205832942846666]}]

>  <H298_value>  (1) 
-99353.185245995

>  <H298_units>  (1) 
kcal/mol

>  <S298_value>  (1) 
71.76251802442486

>  <S298_units>  (1) 
cal/(mol*K)

>  <Cp_T_value_list>  (1) 
[22.251980571284225, 28.1531399049666, 33.94079391323614, 39.35269474865459, 48.430242634303475, 55.007789274879656, 65.12656285712895, 70.35428852741721, 72.83851882766015]

>  <Cp_T_units>  (1) 
cal/(mol*K)

>  <T_list>  (1) 
[300.0, 400.0, 500.0, 600.0, 800.0, 1000.0, 1500.0, 2000.0, 2400.0]

>  <T_units>  (1) 
K

>  <yaml_path>  (1) 
/home/calvin/Dropbox/PersonalFolders/Calvin/ATLAS_Converged/rmg_rxn_236/output/Species/rmg_rxn_236_r1_CCCC/rmg_rxn_236_r1_CCCC.yml

>  <frequencies_cm1>  (1) 
[117.85806904715999, 224.50921805207997, 259.37290252171994, 260.8081024536, 427.68957970024, 733.9639919575599, 810.5171443049198, 844.8383369342799, 959.6886664112799, 978.69648177704, 1024.40313606696, 1072.73297874912, 1166.6664709414, 1201.7086970293599, 1282.4438434365998, 1315.46030885516, 1324.99168447932, 1392.23320473276, 1403.41265683372, 1404.42210367576, 1477.30828586224, 1478.9082934418, 1485.02677736192, 1486.84652847172, 1491.0285225316, 1497.33241505536, 2994.3077468740794, 3001.82022881416, 3007.36875295272, 3008.254594059, 3019.68125763148, 3041.7654824206, 3075.78452769588, 3079.10128160544, 3084.83521434764, 3085.5356468502796]

>  <ZPE_kJmol>  (1) 
344.05401570070524

>  <E_elec_kJmol>  (1) 
-416055.5310504979

>  <E0_minus_Eelec_plus_ZPE_kJmol>  (1) 
0.0

>  <rxn>  (1) 
rmg_rxn_236

>  <species_type>  (1) 
r0

>  <species_folder>  (1) 
rmg_rxn_236_r1_CCCC

>  <frequencies_cm1_list>  (1) 
[117.85806904715999, 224.50921805207997, 259.37290252171994, 260.8081024536, 427.68957970024, 733.9639919575599, 810.5171443049198, 844.8383369342799, 959.6886664112799, 978.69648177704, 1024.40313606696, 1072.73297874912, 1166.6664709414, 1201.7086970293599, 1282.4438434365998, 1315.46030885516, 1324.99168447932, 1392.23320473276, 1403.41265683372, 1404.42210367576, 1477.30828586224, 1478.9082934418, 1485.02677736192, 1486.84652847172, 1491.0285225316, 1497.33241505536, 2994.3077468740794, 3001.82022881416, 3007.36875295272, 3008.254594059, 3019.68125763148, 3041.7654824206, 3075.78452769588, 3079.10128160544, 3084.83521434764, 3085.5356468502796]

>  <E0_kJmol>  (1) 
-415711

>  <H298_kJmol>  (1) 
-415694

$$$$

     RDKit          3D

 18 17  0  0  0  0  0  0  0  0999 V2000
    2.9200    1.8304   -0.6783 H   0  0  0  0  0  0  0  0  0  1  0  0
    2.3061    1.0353   -0.2587 C   0  0  0  0  0  0  0  0  0  2  0  0
    1.3487    0.6101   -1.3414 C   0  0  0  0  0  0  0  0  0  3  0  0
    0.3769   -0.4733   -0.9039 C   0  0  0  0  0  0  0  0  0  4  0  0
   -0.4450    0.0273    0.1188 O   0  0  0  0  0  0  0  0  0  5  0  0
   -1.3580   -0.9200    0.6118 C   0  0  0  0  0  0  0  0  0  6  0  0
   -2.1876   -0.2807    1.7011 C   0  0  0  0  0  0  0  0  0  7  0  0
    1.8315    1.4975    0.6037 H   0  0  0  0  0  0  0  0  0  8  0  0
    3.0239    0.2701    0.0365 H   0  0  0  0  0  0  0  0  0  9  0  0
    1.9024    0.2306   -2.2057 H   0  0  0  0  0  0  0  0  0 10  0  0
    0.7690    1.4703   -1.6882 H   0  0  0  0  0  0  0  0  0 11  0  0
    0.9307   -1.3549   -0.5461 H   0  0  0  0  0  0  0  0  0 12  0  0
   -0.2385   -0.7952   -1.7575 H   0  0  0  0  0  0  0  0  0 13  0  0
   -2.0040   -1.2783   -0.2034 H   0  0  0  0  0  0  0  0  0 14  0  0
   -0.8164   -1.7936    1.0035 H   0  0  0  0  0  0  0  0  0 15  0  0
   -2.7356    0.5773    1.3103 H   0  0  0  0  0  0  0  0  0 16  0  0
   -2.9057   -0.9988    2.1001 H   0  0  0  0  0  0  0  0  0 17  0  0
   -1.5492    0.0610    2.5166 H   0  0  0  0  0  0  0  0  0 18  0  0
  1  2  1  0
  2  9  1  0
  2  8  1  0
  2  3  1  0
  3 11  1  0
  3  4  1  0
  3 10  1  0
  4 13  1  0
  4 12  1  0
  4  5  1  0
  5  6  1  0
  6 15  1  0
  6 14  1  0
  6  7  1  0
  7 17  1  0
  7 18  1  0
  7 16  1  0
M  END
>  <rmg_smiles>  (2) 
CCCOCC

>  <rmg_adjacency_list>  (2) 
1  O u0 p2 c0 {3,S} {4,S}
2  C u0 p0 c0 {3,S} {5,S} {7,S} {8,S}
3  C u0 p0 c0 {1,S} {2,S} {9,S} {10,S}
4  C u0 p0 c0 {1,S} {6,S} {11,S} {12,S}
5  C u0 p0 c0 {2,S} {13,S} {14,S} {15,S}
6  C u0 p0 c0 {4,S} {16,S} {17,S} {18,S}
7  H u0 p0 c0 {2,S}
8  H u0 p0 c0 {2,S}
9  H u0 p0 c0 {3,S}
10 H u0 p0 c0 {3,S}
11 H u0 p0 c0 {4,S}
12 H u0 p0 c0 {4,S}
13 H u0 p0 c0 {5,S}
14 H u0 p0 c0 {5,S}
15 H u0 p0 c0 {5,S}
16 H u0 p0 c0 {6,S}
17 H u0 p0 c0 {6,S}
18 H u0 p0 c0 {6,S}


>  <multiplicity>  (2) 
1

>  <reaction>  (2) 
rmg_rxn_236

>  <type>  (2) 
r2h

>  <role_mapnums>  (2) 
{"r2h_a": 2, "r2h_h": 1}

>  <role_mapidx>  (2) 
{"r2h_a": 1, "r2h_h": 0}

>  <ordered_mapped_smiles>  (2) 
[H:1][C:2]([C:3]([C:4]([O:5][C:6]([C:7]([H:16])([H:17])[H:18])([H:14])[H:15])([H:12])[H:13])([H:10])[H:11])([H:8])[H:9]

>  <mol_properties>  (2) 
{"0": {"label": "a_hydrogen", "atom_type": "H0"}, "1": {"label": "acceptor", "atom_type": "Cs"}}

>  <level_of_theory>  (2) 
wb97xd/def2tzvp

>  <lot_method>  (2) 
wb97xd

>  <lot_basis>  (2) 
def2tzvp

>  <spin_multiplicity>  (2) 
1.0

>  <optical_isomers>  (2) 
2.0

>  <modes>  (2) 
IdealGasTranslation(mass=(88.0888, 'amu')),         NonlinearRotor(             inertia = ([59.5652, 317.445, 349.634

>  <frequency_value>  (2) 
unknown

>  <frequency_units>  (2) 
unknown

>  <frequency_list>  (2) 
unknown

>  <arkane_path>  (2) 
/home/calvin/Dropbox/PersonalFolders/Calvin/ATLAS_Converged/rmg_rxn_236/output/Species/rmg_rxn_236_p2_CCCOCC/arkane/output.py

>  <path_exists>  (2) 
True

>  <E0_value>  (2) 
-716327.3605709573

>  <E0_units>  (2) 
kJ/mol

>  <thermo_class>  (2) 
NASA

>  <Cp0_value>  (2) 
33.257888

>  <Cp0_units>  (2) 
J/(mol*K)

>  <CpInf_value>  (2) 
432.352544

>  <CpInf_units>  (2) 
J/(mol*K)

>  <Tmin_value>  (2) 
10.0

>  <Tmin_units>  (2) 
K

>  <Tmax_value>  (2) 
3000.0

>  <Tmax_units>  (2) 
K

>  <polynomials>  (2) 
[{"name": "polynomial1", "class": "NASAPolynomial", "Tmin_value": 10.0, "Tmin_units": "K", "Tmax_value": 424.14701041358796, "Tmax_units": "K", "coeffs": [3.4707042336928127, 0.05746545203879795, -0.00016719847115372115, 4.780470157694204e-07, -4.3347206706639054e-10, -86154279.58985142, 11.635447004604476]}, {"name": "polynomial2", "class": "NASAPolynomial", "Tmin_value": 424.14701041358796, "Tmin_units": "K", "Tmax_value": 3000.0, "Tmax_units": "K", "coeffs": [-2.8535624465972114, 0.06921008708460846, -3.934323609424939e-05, 1.0841890934368647e-08, -1.163418506360095e-12, -86153312.26572455, 41.80111524234505]}]

>  <H298_value>  (2) 
-171200.6815246165

>  <H298_units>  (2) 
kcal/mol

>  <S298_value>  (2) 
88.37399878129293

>  <S298_units>  (2) 
cal/(mol*K)

>  <Cp_T_value_list>  (2) 
[29.924593767526826, 38.16083070533892, 46.09960348181722, 53.05840207682852, 64.40406715451496, 72.91410593462665, 85.72980278110597, 92.03567805993791, 95.21197800865355]

>  <Cp_T_units>  (2) 
cal/(mol*K)

>  <T_list>  (2) 
[300.0, 400.0, 500.0, 600.0, 800.0, 1000.0, 1500.0, 2000.0, 2400.0]

>  <T_units>  (2) 
K

>  <yaml_path>  (2) 
/home/calvin/Dropbox/PersonalFolders/Calvin/ATLAS_Converged/rmg_rxn_236/output/Species/rmg_rxn_236_p2_CCCOCC/rmg_rxn_236_p2_CCCOCC.yml

>  <frequencies_cm1>  (2) 
[76.60808822992, 85.88538539723999, 152.39213822143998, 171.44115549912, 250.05440344247998, 256.05614861216003, 329.51915756551995, 440.0707542322, 493.7774464199199, 767.98990421816, 823.02879155796, 891.3896304185598, 900.4815189822399, 929.41899512072, 1002.9850088538799, 1082.00340893112, 1102.9065122452, 1152.52734816752, 1174.9617892079598, 1182.44680320676, 1190.2339645596398, 1270.1176047871998, 1295.23017010244, 1305.6473868328799, 1368.30176089256, 1380.4425909383199, 1399.7456866728398, 1405.4521514737598, 1443.92787022172, 1468.7794900948002, 1470.37949767436, 1482.5752636026798, 1487.2448136202797, 1494.6336898246, 1500.58049911172, 1519.49904366832, 2928.8997117010795, 2942.5512785172396, 2962.4655359452395, 2968.54281795344, 3015.14904732028, 3021.7276192568397, 3024.0692612509597, 3058.7338031463196, 3085.2403664815197, 3101.8035350733594, 3104.27564978856, 3105.2988306012394]

>  <ZPE_kJmol>  (2) 
431.0594598774012

>  <E_elec_kJmol>  (2) 
-716758.4200308347

>  <E0_minus_Eelec_plus_ZPE_kJmol>  (2) 
0.0

>  <rxn>  (2) 
rmg_rxn_236

>  <species_type>  (2) 
p1

>  <species_folder>  (2) 
rmg_rxn_236_p2_CCCOCC

>  <frequencies_cm1_list>  (2) 
[76.60808822992, 85.88538539723999, 152.39213822143998, 171.44115549912, 250.05440344247998, 256.05614861216003, 329.51915756551995, 440.0707542322, 493.7774464199199, 767.98990421816, 823.02879155796, 891.3896304185598, 900.4815189822399, 929.41899512072, 1002.9850088538799, 1082.00340893112, 1102.9065122452, 1152.52734816752, 1174.9617892079598, 1182.44680320676, 1190.2339645596398, 1270.1176047871998, 1295.23017010244, 1305.6473868328799, 1368.30176089256, 1380.4425909383199, 1399.7456866728398, 1405.4521514737598, 1443.92787022172, 1468.7794900948002, 1470.37949767436, 1482.5752636026798, 1487.2448136202797, 1494.6336898246, 1500.58049911172, 1519.49904366832, 2928.8997117010795, 2942.5512785172396, 2962.4655359452395, 2968.54281795344, 3015.14904732028, 3021.7276192568397, 3024.0692612509597, 3058.7338031463196, 3085.2403664815197, 3101.8035350733594, 3104.27564978856, 3105.2988306012394]

>  <E0_kJmol>  (2) 
-716327

>  <H298_kJmol>  (2) 
-716304

$$$$

     RDKit          3D

 31 29  0  0  0  0  0  0  0  0999 V2000
    3.2056   -0.0073   -3.1889 C   0  0  0  0  0  0  0  0  0  1  0  0
    3.0534    0.5061   -1.7641 C   0  0  0  0  0  0  0  0  0  2  0  0
    2.2242    1.7832   -1.6767 C   0  0  0  0  0  0  0  0  0  3  0  0
    2.0305    2.2701   -0.2641 C   0  0  0  0  0  0  0  0  0  4  0  0
    3.6881    0.7384   -3.8253 H   0  0  0  0  0  0  0  0  0  5  0  0
    2.2311   -0.2344   -3.6284 H   0  0  0  0  0  0  0  0  0  6  0  0
    3.8077   -0.9166   -3.2248 H   0  0  0  0  0  0  0  0  0  7  0  0
    2.5894   -0.2654   -1.1422 H   0  0  0  0  0  0  0  0  0  8  0  0
    4.0409    0.6915   -1.3299 H   0  0  0  0  0  0  0  0  0  9  0  0
    1.2468    1.6121   -2.1412 H   0  0  0  0  0  0  0  0  0 10  0  0
    2.7073    2.5626   -2.2805 H   0  0  0  0  0  0  0  0  0 11  0  0
    2.9499    2.3611    0.3143 H   0  0  0  0  0  0  0  0  0 12  0  0
    1.3363    1.3201    0.3769 H   0  0  0  0  0  0  0  0  0 13  0  0
    1.4056    3.1560   -0.1652 H   0  0  0  0  0  0  0  0  0 14  0  0
    0.5752    0.3345    0.8969 C   0  0  0  0  0  3  0  0  0 15  0  0
   -0.3822   -0.0907   -0.1858 C   0  0  0  0  0  0  0  0  0 16  0  0
   -1.3540   -1.1742    0.2517 C   0  0  0  0  0  0  0  0  0 17  0  0
   -2.1759   -0.6735    1.2744 O   0  0  0  0  0  0  0  0  0 18  0  0
   -3.0888   -1.6209    1.7675 C   0  0  0  0  0  0  0  0  0 19  0  0
   -3.9184   -0.9816    2.8568 C   0  0  0  0  0  0  0  0  0 20  0  0
    0.1007    0.7966    1.7593 H   0  0  0  0  0  0  0  0  0 21  0  0
    1.2930   -0.4307    1.1922 H   0  0  0  0  0  0  0  0  0 22  0  0
    0.1715   -0.4703   -1.0501 H   0  0  0  0  0  0  0  0  0 23  0  0
   -0.9619    0.7694   -0.5325 H   0  0  0  0  0  0  0  0  0 24  0  0
   -0.8002   -2.0558    0.6095 H   0  0  0  0  0  0  0  0  0 25  0  0
   -1.9694   -1.4961   -0.6019 H   0  0  0  0  0  0  0  0  0 26  0  0
   -3.7349   -1.9792    0.9523 H   0  0  0  0  0  0  0  0  0 27  0  0
   -2.5473   -2.4945    2.1592 H   0  0  0  0  0  0  0  0  0 28  0  0
   -4.4664   -0.1235    2.4659 H   0  0  0  0  0  0  0  0  0 29  0  0
   -4.6366   -1.6996    3.2557 H   0  0  0  0  0  0  0  0  0 30  0  0
   -3.2800   -0.6398    3.6722 H   0  0  0  0  0  0  0  0  0 31  0  0
  1  7  1  0
  1  5  1  0
  1  6  1  0
  1  2  1  0
  2  8  1  0
  2  3  1  0
  2  9  1  0
  3  4  1  0
  3 11  1  0
  3 10  1  0
  4 12  1  0
  4 14  1  0
  4 13  1  0
 15 16  1  0
 15 22  1  0
 15 21  1  0
 16 17  1  0
 16 23  1  0
 16 24  1  0
 17 18  1  0
 17 26  1  0
 17 25  1  0
 18 19  1  0
 19 27  1  0
 19 28  1  0
 19 20  1  0
 20 31  1  0
 20 30  1  0
 20 29  1  0
M  RAD  1  15   2
M  END
>  <rmg_smiles>  (3) 
CCCC.[CH2]CCOCC

>  <rmg_adjacency_list>  (3) 
multiplicity 2
1  O u0 p2 c0 {5,S} {6,S}
2  C u0 p0 c0 {3,S} {7,S} {11,S} {12,S}
3  C u0 p0 c0 {2,S} {8,S} {13,S} {14,S}
4  C u0 p0 c0 {5,S} {10,S} {15,S} {16,S}
5  C u0 p0 c0 {1,S} {4,S} {17,S} {18,S}
6  C u0 p0 c0 {1,S} {9,S} {19,S} {20,S}
7  C u0 p0 c0 {2,S} {21,S} {22,S} {23,S}
8  C u0 p0 c0 {3,S} {24,S} {25,S} {26,S}
9  C u0 p0 c0 {6,S} {27,S} {28,S} {29,S}
10 C u1 p0 c0 {4,S} {30,S} {31,S}
11 H u0 p0 c0 {2,S}
12 H u0 p0 c0 {2,S}
13 H u0 p0 c0 {3,S}
14 H u0 p0 c0 {3,S}
15 H u0 p0 c0 {4,S}
16 H u0 p0 c0 {4,S}
17 H u0 p0 c0 {5,S}
18 H u0 p0 c0 {5,S}
19 H u0 p0 c0 {6,S}
20 H u0 p0 c0 {6,S}
21 H u0 p0 c0 {7,S}
22 H u0 p0 c0 {7,S}
23 H u0 p0 c0 {7,S}
24 H u0 p0 c0 {8,S}
25 H u0 p0 c0 {8,S}
26 H u0 p0 c0 {8,S}
27 H u0 p0 c0 {9,S}
28 H u0 p0 c0 {9,S}
29 H u0 p0 c0 {9,S}
30 H u0 p0 c0 {10,S}
31 H u0 p0 c0 {10,S}


>  <multiplicity>  (3) 
2

>  <reaction>  (3) 
rmg_rxn_236

>  <type>  (3) 
ts

>  <role_mapnums>  (3) 
{"*2": 13, "*1": 4, "*3": 15, "*0": 3, "*4": 16}

>  <role_mapidx>  (3) 
{"*2": 12, "*1": 3, "*3": 14, "*0": 2, "*4": 15}

>  <ordered_mapped_smiles>  (3) 
[C:1]([C:2]([C:3]([C:4]([H:12])([H:13])[H:14])([H:10])[H:11])([H:8])[H:9])([H:5])([H:6])[H:7].[C:15]([C:16]([C:17]([O:18][C:19]([C:20]([H:29])([H:30])[H:31])([H:27])[H:28])([H:25])[H:26])([H:23])[H:24])([H:21])[H:22]

>  <mol_properties>  (3) 
{"2": {"label": "*0", "atom_type": "Cs"}, "3": {"label": "*1", "atom_type": "Cs"}, "12": {"label": "*2", "atom_type": "H0"}, "14": {"label": "*3", "atom_type": "Cs"}, "15": {"label": "*4", "atom_type": "Cs"}}

>  <level_of_theory>  (3) 
wb97xd/def2tzvp

>  <lot_method>  (3) 
wb97xd

>  <lot_basis>  (3) 
def2tzvp

>  <spin_multiplicity>  (3) 
2.0

>  <optical_isomers>  (3) 
2.0

>  <modes>  (3) 
IdealGasTranslation(mass=(145.159, 'amu')),         NonlinearRotor(             inertia = ([180.274, 1440.98, 1552.77

>  <frequency_value>  (3) 
-1729.94

>  <frequency_units>  (3) 
cm^-1

>  <frequency_list>  (3) 
unknown

>  <arkane_path>  (3) 
/home/calvin/Dropbox/PersonalFolders/Calvin/ATLAS_Converged/rmg_rxn_236/output/rxns/TS0/arkane/output.py

>  <path_exists>  (3) 
True

>  <E0_value>  (3) 
-1130250.0

>  <E0_units>  (3) 
kJ/mol

>  <thermo_class>  (3) 
unknown

>  <Cp0_value>  (3) 
unknown

>  <Cp0_units>  (3) 
unknown

>  <CpInf_value>  (3) 
unknown

>  <CpInf_units>  (3) 
unknown

>  <Tmin_value>  (3) 
unknown

>  <Tmin_units>  (3) 
unknown

>  <Tmax_value>  (3) 
unknown

>  <Tmax_units>  (3) 
unknown

>  <polynomials>  (3) 
unknown

>  <H298_value>  (3) 
unknown

>  <H298_units>  (3) 
unknown

>  <S298_value>  (3) 
unknown

>  <S298_units>  (3) 
unknown

>  <Cp_T_value_list>  (3) 
unknown

>  <Cp_T_units>  (3) 
unknown

>  <T_list>  (3) 
unknown

>  <T_units>  (3) 
unknown

>  <yaml_path>  (3) 
unknown

>  <frequencies_cm1>  (3) 
unknown

>  <ZPE_kJmol>  (3) 
unknown

>  <E_elec_kJmol>  (3) 
unknown

>  <E0_minus_Eelec_plus_ZPE_kJmol>  (3) 
unknown

>  <rxn>  (3) 
unknown

>  <species_type>  (3) 
unknown

>  <species_folder>  (3) 
unknown

>  <frequencies_cm1_list>  (3) 
[]

>  <ts_imag_freq_cm1>  (3) 
-1750.9547

>  <ts_freq_out_path>  (3) 
/home/calvin/Dropbox/PersonalFolders/Calvin/ATLAS_Converged/rmg_rxn_236/output/rxns/TS0/geometry/freq.out

>  <E0_kJmol>  (3) 
-1.13025e+06

>  <H298_kJmol>  (3) 
unknown

$$$$

     RDKit          3D

 13 12  0  0  0  0  0  0  0  0999 V2000
    2.0654   -0.2739   -0.0844 C   0  0  0  0  0  3  0  0  0  1  0  0
    0.6326   -0.4110   -0.4406 C   0  0  0  0  0  0  0  0  0  2  0  0
   -0.3055    0.4151    0.4359 C   0  0  0  0  0  0  0  0  0  3  0  0
   -1.7714    0.2357    0.0671 C   0  0  0  0  0  0  0  0  0  4  0  0
    2.3610    0.0676    0.8995 H   0  0  0  0  0  0  0  0  0  5  0  0
    2.8408   -0.6127   -0.7582 H   0  0  0  0  0  0  0  0  0  6  0  0
    0.3313   -1.4695   -0.3768 H   0  0  0  0  0  0  0  0  0  7  0  0
    0.4826   -0.1432   -1.4940 H   0  0  0  0  0  0  0  0  0  8  0  0
   -0.1518    0.1351    1.4826 H   0  0  0  0  0  0  0  0  0  9  0  0
   -0.0303    1.4705    0.3565 H   0  0  0  0  0  0  0  0  0 10  0  0
   -2.0768   -0.8084    0.1692 H   0  0  0  0  0  0  0  0  0 11  0  0
   -1.9546    0.5339   -0.9679 H   0  0  0  0  0  0  0  0  0 12  0  0
   -2.4194    0.8370    0.7066 H   0  0  0  0  0  0  0  0  0 13  0  0
  1  5  1  0
  1  6  1  0
  1  2  1  0
  2  8  1  0
  2  7  1  0
  2  3  1  0
  3  4  1  0
  3  9  1  0
  3 10  1  0
  4 13  1  0
  4 12  1  0
  4 11  1  0
M  RAD  1   1   2
M  END
>  <rmg_smiles>  (4) 
[CH2]CCC

>  <rmg_adjacency_list>  (4) 
multiplicity 2
1  C u0 p0 c0 {2,S} {3,S} {5,S} {6,S}
2  C u0 p0 c0 {1,S} {4,S} {7,S} {8,S}
3  C u0 p0 c0 {1,S} {9,S} {10,S} {11,S}
4  C u1 p0 c0 {2,S} {12,S} {13,S}
5  H u0 p0 c0 {1,S}
6  H u0 p0 c0 {1,S}
7  H u0 p0 c0 {2,S}
8  H u0 p0 c0 {2,S}
9  H u0 p0 c0 {3,S}
10 H u0 p0 c0 {3,S}
11 H u0 p0 c0 {3,S}
12 H u0 p0 c0 {4,S}
13 H u0 p0 c0 {4,S}


>  <multiplicity>  (4) 
2

>  <reaction>  (4) 
rmg_rxn_236

>  <type>  (4) 
r1

>  <role_mapnums>  (4) 
{}

>  <role_mapidx>  (4) 
{}

>  <ordered_mapped_smiles>  (4) 
[C:1]([C:2]([C:3]([C:4]([H:11])([H:12])[H:13])([H:9])[H:10])([H:7])[H:8])([H:5])[H:6]

>  <level_of_theory>  (4) 
wb97xd/def2tzvp

>  <lot_method>  (4) 
wb97xd

>  <lot_basis>  (4) 
def2tzvp

>  <spin_multiplicity>  (4) 
2.0

>  <optical_isomers>  (4) 
2.0

>  <modes>  (4) 
IdealGasTranslation(mass=(57.0704, 'amu')),         NonlinearRotor(             inertia = ([19.9061, 131.501, 141.822

>  <frequency_value>  (4) 
unknown

>  <frequency_units>  (4) 
unknown

>  <frequency_list>  (4) 
unknown

>  <arkane_path>  (4) 
/home/calvin/Dropbox/PersonalFolders/Calvin/ATLAS_Converged/rmg_rxn_236/output/Species/rmg_rxn_236_p1_sbr-CH2-sbrCCC/arkane/output.py

>  <path_exists>  (4) 
True

>  <E0_value>  (4) 
-413980.515065041

>  <E0_units>  (4) 
kJ/mol

>  <thermo_class>  (4) 
NASA

>  <Cp0_value>  (4) 
33.257888

>  <Cp0_units>  (4) 
J/(mol*K)

>  <CpInf_value>  (4) 
307.635464

>  <CpInf_units>  (4) 
J/(mol*K)

>  <Tmin_value>  (4) 
10.0

>  <Tmin_units>  (4) 
K

>  <Tmax_value>  (4) 
3000.0

>  <Tmax_units>  (4) 
K

>  <polynomials>  (4) 
[{"name": "polynomial1", "class": "NASAPolynomial", "Tmin_value": 10.0, "Tmin_units": "K", "Tmax_value": 1154.93799035051, "Tmax_units": "K", "coeffs": [3.8608583449208367, 0.02312895427514024, 1.718157563784362e-05, -2.653261595233422e-08, 8.598323666501713e-12, -49790358.451797806, 9.98302976614612]}, {"name": "polynomial2", "class": "NASAPolynomial", "Tmin_value": 1154.93799035051, "Tmin_units": "K", "Tmax_value": 3000.0, "Tmax_units": "K", "coeffs": [5.006671859828862, 0.03390757519761412, -1.5970386346220703e-05, 3.659460065945614e-09, -3.3024942479245143e-13, -49791606.659514256, 0.032118084025620754]}]

>  <H298_value>  (4) 
-98939.19157782634

>  <H298_units>  (4) 
kcal/mol

>  <S298_value>  (4) 
78.32957530726806

>  <S298_units>  (4) 
cal/(mol*K)

>  <Cp_T_value_list>  (4) 
[23.248631358892137, 28.583028071211853, 33.66635358076252, 38.36678892872091, 46.296753040816824, 52.13852768190894, 60.835257561392275, 65.44261811889302, 67.61851586744878]

>  <Cp_T_units>  (4) 
cal/(mol*K)

>  <T_list>  (4) 
[300.0, 400.0, 500.0, 600.0, 800.0, 1000.0, 1500.0, 2000.0, 2400.0]

>  <T_units>  (4) 
K

>  <yaml_path>  (4) 
/home/calvin/Dropbox/PersonalFolders/Calvin/ATLAS_Converged/rmg_rxn_236/output/Species/rmg_rxn_236_p1_sbr-CH2-sbrCCC/rmg_rxn_236_p1_sbr-CH2-sbrCCC.yml

>  <frequencies_cm1>  (4) 
[73.35313718823998, 132.16886645403997, 238.64147384063997, 264.99696349879997, 431.39775177304, 467.79277396904, 728.50473862816, 827.3275243682799, 860.37832471344, 963.38310451344, 1040.3208080387199, 1067.46600100868, 1094.96141022996, 1160.5617209919199, 1239.42904739212, 1306.10747484932, 1314.7118074552798, 1388.4151608948398, 1404.06502043912, 1451.2686775288, 1453.0952956239198, 1480.39842925624, 1485.157250083, 1493.0199482744, 2921.4421656435597, 2989.1849758253597, 3008.40566773604, 3009.2159720037994, 3044.3474689009204, 3079.04634572288, 3088.11076634528, 3121.2096355876797, 3223.96720391616]

>  <ZPE_kJmol>  (4) 
304.16171338229066

>  <E_elec_kJmol>  (4) 
-414284.6767784233

>  <E0_minus_Eelec_plus_ZPE_kJmol>  (4) 
0.0

>  <rxn>  (4) 
rmg_rxn_236

>  <species_type>  (4) 
p0

>  <species_folder>  (4) 
rmg_rxn_236_p1_sbr-CH2-sbrCCC

>  <frequencies_cm1_list>  (4) 
[73.35313718823998, 132.16886645403997, 238.64147384063997, 264.99696349879997, 431.39775177304, 467.79277396904, 728.50473862816, 827.3275243682799, 860.37832471344, 963.38310451344, 1040.3208080387199, 1067.46600100868, 1094.96141022996, 1160.5617209919199, 1239.42904739212, 1306.10747484932, 1314.7118074552798, 1388.4151608948398, 1404.06502043912, 1451.2686775288, 1453.0952956239198, 1480.39842925624, 1485.157250083, 1493.0199482744, 2921.4421656435597, 2989.1849758253597, 3008.40566773604, 3009.2159720037994, 3044.3474689009204, 3079.04634572288, 3088.11076634528, 3121.2096355876797, 3223.96720391616]

>  <E0_kJmol>  (4) 
-413981

>  <H298_kJmol>  (4) 
-413962

$$$$

     RDKit          3D

 17 16  0  0  0  0  0  0  0  0999 V2000
    2.3128   -0.1525    1.1777 C   0  0  0  0  0  3  0  0  0  1  0  0
    1.7469    0.7266    0.1254 C   0  0  0  0  0  0  0  0  0  2  0  0
    1.6374    2.1830    0.5408 C   0  0  0  0  0  0  0  0  0  3  0  0
    2.9245    2.6874    0.7877 O   0  0  0  0  0  0  0  0  0  4  0  0
    2.9227    4.0197    1.2361 C   0  0  0  0  0  0  0  0  0  5  0  0
    4.3491    4.4603    1.4693 C   0  0  0  0  0  0  0  0  0  6  0  0
    2.1393   -1.2196    1.1557 H   0  0  0  0  0  0  0  0  0  7  0  0
    3.0313    0.2400    1.8838 H   0  0  0  0  0  0  0  0  0  8  0  0
    0.7555    0.3746   -0.1764 H   0  0  0  0  0  0  0  0  0  9  0  0
    2.3678    0.6841   -0.7826 H   0  0  0  0  0  0  0  0  0 10  0  0
    1.0170    2.2718    1.4449 H   0  0  0  0  0  0  0  0  0 11  0  0
    1.1499    2.7653   -0.2546 H   0  0  0  0  0  0  0  0  0 12  0  0
    2.4379    4.6655    0.4891 H   0  0  0  0  0  0  0  0  0 13  0  0
    2.3377    4.1015    2.1638 H   0  0  0  0  0  0  0  0  0 14  0  0
    4.9261    4.3920    0.5465 H   0  0  0  0  0  0  0  0  0 15  0  0
    4.3728    5.4939    1.8180 H   0  0  0  0  0  0  0  0  0 16  0  0
    4.8260    3.8299    2.2206 H   0  0  0  0  0  0  0  0  0 17  0  0
  1  8  1  0
  1  7  1  0
  1  2  1  0
  2 10  1  0
  2  9  1  0
  2  3  1  0
  3 11  1  0
  3  4  1  0
  3 12  1  0
  4  5  1  0
  5 13  1  0
  5  6  1  0
  5 14  1  0
  6 17  1  0
  6 15  1  0
  6 16  1  0
M  RAD  1   1   2
M  END
>  <rmg_smiles>  (5) 
[CH2]CCOCC

>  <rmg_adjacency_list>  (5) 
multiplicity 2
1  O u0 p2 c0 {3,S} {4,S}
2  C u0 p0 c0 {3,S} {6,S} {7,S} {8,S}
3  C u0 p0 c0 {1,S} {2,S} {9,S} {10,S}
4  C u0 p0 c0 {1,S} {5,S} {11,S} {12,S}
5  C u0 p0 c0 {4,S} {13,S} {14,S} {15,S}
6  C u1 p0 c0 {2,S} {16,S} {17,S}
7  H u0 p0 c0 {2,S}
8  H u0 p0 c0 {2,S}
9  H u0 p0 c0 {3,S}
10 H u0 p0 c0 {3,S}
11 H u0 p0 c0 {4,S}
12 H u0 p0 c0 {4,S}
13 H u0 p0 c0 {5,S}
14 H u0 p0 c0 {5,S}
15 H u0 p0 c0 {5,S}
16 H u0 p0 c0 {6,S}
17 H u0 p0 c0 {6,S}


>  <multiplicity>  (5) 
2

>  <reaction>  (5) 
rmg_rxn_236

>  <type>  (5) 
r2

>  <role_mapnums>  (5) 
{}

>  <role_mapidx>  (5) 
{}

>  <ordered_mapped_smiles>  (5) 
[C:1]([C:2]([C:3]([O:4][C:5]([C:6]([H:15])([H:16])[H:17])([H:13])[H:14])([H:11])[H:12])([H:9])[H:10])([H:7])[H:8]

>  <level_of_theory>  (5) 
wb97xd/def2tzvp

>  <lot_method>  (5) 
wb97xd

>  <lot_basis>  (5) 
def2tzvp

>  <spin_multiplicity>  (5) 
2.0

>  <optical_isomers>  (5) 
2.0

>  <modes>  (5) 
IdealGasTranslation(mass=(87.081, 'amu')),         NonlinearRotor(             inertia = ([56.1942, 309.598, 341.445

>  <frequency_value>  (5) 
unknown

>  <frequency_units>  (5) 
unknown

>  <frequency_list>  (5) 
unknown

>  <arkane_path>  (5) 
/home/calvin/Dropbox/PersonalFolders/Calvin/ATLAS_Converged/rmg_rxn_236/output/Species/rmg_rxn_236_r2_sbr-CH2-sbrCCOCC/arkane/output.py

>  <path_exists>  (5) 
True

>  <E0_value>  (5) 
-714594.9534761205

>  <E0_units>  (5) 
kJ/mol

>  <thermo_class>  (5) 
NASA

>  <Cp0_value>  (5) 
33.257888

>  <Cp0_units>  (5) 
J/(mol*K)

>  <CpInf_value>  (5) 
407.409128

>  <CpInf_units>  (5) 
J/(mol*K)

>  <Tmin_value>  (5) 
10.0

>  <Tmin_units>  (5) 
K

>  <Tmax_value>  (5) 
3000.0

>  <Tmax_units>  (5) 
K

>  <polynomials>  (5) 
[{"name": "polynomial1", "class": "NASAPolynomial", "Tmin_value": 10.0, "Tmin_units": "K", "Tmax_value": 428.2196342565028, "Tmax_units": "K", "coeffs": [3.449989296280544, 0.057423832316827995, -0.00013332000129952934, 3.4481867882035973e-07, -3.039663546787581e-10, -85945919.20509715, 12.33173677011069]}, {"name": "polynomial2", "class": "NASAPolynomial", "Tmin_value": 428.2196342565028, "Tmin_units": "K", "Tmax_value": 3000.0, "Tmax_units": "K", "coeffs": [-0.8337724645043922, 0.06365483127668993, -3.68065916523196e-05, 1.0327972414463865e-08, -1.1275406847880222e-12, -85945242.57829364, 32.98197379692207]}]

>  <H298_value>  (5) 
-170786.4494875034

>  <H298_units>  (5) 
kcal/mol

>  <S298_value>  (5) 
90.65975504557764

>  <S298_units>  (5) 
cal/(mol*K)

>  <Cp_T_value_list>  (5) 
[30.85399555380273, 38.5024812284313, 45.73063038026963, 52.05182606770565, 62.3187066664259, 69.97927600380646, 81.44044284908489, 87.10453068800588, 90.01380036436508]

>  <Cp_T_units>  (5) 
cal/(mol*K)

>  <T_list>  (5) 
[300.0, 400.0, 500.0, 600.0, 800.0, 1000.0, 1500.0, 2000.0, 2400.0]

>  <T_units>  (5) 
K

>  <yaml_path>  (5) 
/home/calvin/Dropbox/PersonalFolders/Calvin/ATLAS_Converged/rmg_rxn_236/output/Species/rmg_rxn_236_r2_sbr-CH2-sbrCCOCC/rmg_rxn_236_r2_sbr-CH2-sbrCCOCC.yml

>  <frequencies_cm1>  (5) 
[77.74114080771999, 86.7643595182, 154.72691323024, 159.93208810279998, 205.28852614139996, 250.85784072491998, 323.93629850035995, 437.44756583995996, 463.20562777527994, 521.1423829201199, 769.3220993702398, 823.3858747945999, 896.9312875718, 917.44297272264, 996.1248905191999, 1038.9886128866399, 1087.27038667156, 1111.9984008088798, 1157.1694302438398, 1177.7154503212798, 1186.02450255848, 1226.1551647685599, 1286.5434336726398, 1297.95636327448, 1365.48629691136, 1376.61081312976, 1398.7293728454802, 1437.088352843, 1439.70467424992, 1453.5004477578, 1470.50997039544, 1487.1830107523997, 1499.68779102012, 1519.27930013808, 2936.7761438631196, 2941.988185721, 2946.20451470748, 2969.2432504560797, 2976.1926395999203, 3024.23406889864, 3030.8195078205194, 3102.0438795595596, 3104.5915311132794, 3130.6998092999197, 3236.4651171985597]

>  <ZPE_kJmol>  (5) 
391.7837560230114

>  <E_elec_kJmol>  (5) 
-714986.7372321435

>  <E0_minus_Eelec_plus_ZPE_kJmol>  (5) 
0.0

>  <rxn>  (5) 
rmg_rxn_236

>  <species_type>  (5) 
r1

>  <species_folder>  (5) 
rmg_rxn_236_r2_sbr-CH2-sbrCCOCC

>  <frequencies_cm1_list>  (5) 
[77.74114080771999, 86.7643595182, 154.72691323024, 159.93208810279998, 205.28852614139996, 250.85784072491998, 323.93629850035995, 437.44756583995996, 463.20562777527994, 521.1423829201199, 769.3220993702398, 823.3858747945999, 896.9312875718, 917.44297272264, 996.1248905191999, 1038.9886128866399, 1087.27038667156, 1111.9984008088798, 1157.1694302438398, 1177.7154503212798, 1186.02450255848, 1226.1551647685599, 1286.5434336726398, 1297.95636327448, 1365.48629691136, 1376.61081312976, 1398.7293728454802, 1437.088352843, 1439.70467424992, 1453.5004477578, 1470.50997039544, 1487.1830107523997, 1499.68779102012, 1519.27930013808, 2936.7761438631196, 2941.988185721, 2946.20451470748, 2969.2432504560797, 2976.1926395999203, 3024.23406889864, 3030.8195078205194, 3102.0438795595596, 3104.5915311132794, 3130.6998092999197, 3236.4651171985597]

>  <E0_kJmol>  (5) 
-714595

>  <H298_kJmol>  (5) 
-714571

$$$$
