
     RDKit          3D

  8  7  0  0  0  0  0  0  0  0999 V2000
   -1.2236   -0.1843    0.2710 C   0  0  0  0  0  0  0  0  0  1  0  0
    0.2696   -0.2758    0.2100 C   0  0  0  0  0  0  0  0  0  2  0  0
    0.9591    0.4926   -0.5079 N   0  0  0  0  0  0  0  0  0  3  0  0
   -1.5436    0.0012    1.2991 H   0  0  0  0  0  0  0  0  0  4  0  0
   -1.5869    0.6147   -0.3726 H   0  0  0  0  0  0  0  0  0  5  0  0
   -1.6678   -1.1330   -0.0395 H   0  0  0  0  0  0  0  0  0  6  0  0
    0.7339   -1.0543    0.8294 H   0  0  0  0  0  0  0  0  0  7  0  0
    1.9621    0.2389   -0.4022 H   0  0  0  0  0  0  0  0  0  8  0  0
  1  5  1  0
  1  4  1  0
  1  6  1  0
  1  2  1  0
  2  3  1  0
  2  7  1  0
  3  8  1  0
M  END
>  <rmg_smiles>  (1) 
C[CH][NH]

>  <rmg_adjacency_list>  (1) 
1 N u0 p1 c0 {3,S} {8,S}
2 C u0 p0 c0 {3,S} {4,S} {5,S} {6,S}
3 C u0 p0 c0 {1,S} {2,S} {7,S}
4 H u0 p0 c0 {2,S}
5 H u0 p0 c0 {2,S}
6 H u0 p0 c0 {2,S}
7 H u0 p0 c0 {3,S}
8 H u0 p0 c0 {1,S}


>  <multiplicity>  (1) 
1

>  <reaction>  (1) 
rmg_rxn_16511

>  <type>  (1) 
r1h

>  <role_mapnums>  (1) 
{"r1h_a": 3, "r1h_h": 8}

>  <role_mapidx>  (1) 
{"r1h_a": 2, "r1h_h": 7}

>  <ordered_mapped_smiles>  (1) 
[C:1]([CH:2]([NH:3][H:8])[H:7])([H:4])([H:5])[H:6]

>  <mol_properties>  (1) 
{"2": {"label": "donator", "atom_type": "N3s"}, "7": {"label": "d_hydrogen", "atom_type": "H0"}}

>  <level_of_theory>  (1) 
wb97xd/def2tzvp

>  <lot_method>  (1) 
wb97xd

>  <lot_basis>  (1) 
def2tzvp

>  <spin_multiplicity>  (1) 
1.0

>  <optical_isomers>  (1) 
1.0

>  <modes>  (1) 
IdealGasTranslation(mass=(43.0422, 'amu')),         NonlinearRotor(             inertia = ([9.32783, 51.3348, 57.5532

>  <frequency_value>  (1) 
unknown

>  <frequency_units>  (1) 
unknown

>  <frequency_list>  (1) 
unknown

>  <arkane_path>  (1) 
/home/calvin/Dropbox/PersonalFolders/Calvin/ZEUS_Converged/rmg_rxn_16511/output/Species/rmg_rxn_16511_r1_CC=N/arkane/output.py

>  <path_exists>  (1) 
True

>  <E0_value>  (1) 
-351535.20335661684

>  <E0_units>  (1) 
kJ/mol

>  <thermo_class>  (1) 
NASA

>  <Cp0_value>  (1) 
33.257888

>  <Cp0_units>  (1) 
J/(mol*K)

>  <CpInf_value>  (1) 
182.918384

>  <CpInf_units>  (1) 
J/(mol*K)

>  <Tmin_value>  (1) 
10.0

>  <Tmin_units>  (1) 
K

>  <Tmax_value>  (1) 
3000.0

>  <Tmax_units>  (1) 
K

>  <polynomials>  (1) 
[{"name": "polynomial1", "class": "NASAPolynomial", "Tmin_value": 10.0, "Tmin_units": "K", "Tmax_value": 834.0183041901832, "Tmax_units": "K", "coeffs": [4.020859284868709, 0.0012406595733239277, 4.4482903010182226e-05, -5.482114439751344e-08, 2.0739201558559772e-11, -42279921.71645892, 6.726586383468645]}, {"name": "polynomial2", "class": "NASAPolynomial", "Tmin_value": 834.0183041901832, "Tmin_units": "K", "Tmax_value": 3000.0, "Tmax_units": "K", "coeffs": [0.8146767610859666, 0.025012560508124084, -1.3369721411120483e-05, 3.4917002293006827e-09, -3.579375529269218e-13, -42279678.881200545, 19.862274208798944]}]

>  <H298_value>  (1) 
-84015.86036687854

>  <H298_units>  (1) 
kcal/mol

>  <S298_value>  (1) 
62.66843297179497

>  <S298_units>  (1) 
cal/(mol*K)

>  <Cp_T_value_list>  (1) 
[14.078036689508782, 17.202765604471058, 20.2803800489589, 23.1023356383003, 27.639649626797436, 30.983090061901617, 36.21499785066487, 38.88468928045463, 40.19916387517873]

>  <Cp_T_units>  (1) 
cal/(mol*K)

>  <T_list>  (1) 
[300.0, 400.0, 500.0, 600.0, 800.0, 1000.0, 1500.0, 2000.0, 2400.0]

>  <T_units>  (1) 
K

>  <yaml_path>  (1) 
/home/calvin/Dropbox/PersonalFolders/Calvin/ZEUS_Converged/rmg_rxn_16511/output/Species/rmg_rxn_16511_r1_CC=N/rmg_rxn_16511_r1_CC=N.yml

>  <frequencies_cm1>  (1) 
[185.42920459596, 489.9250676554, 680.6761858743599, 921.32968641376, 1055.89513074448, 1069.62910138448, 1130.4431233784, 1267.5150173509198, 1378.7876474762, 1425.071128533, 1456.56312321052, 1463.3683056626398, 1737.36788691596, 2989.2124437666403, 3014.6889593038395, 3075.43431144456, 3123.3452680222, 3455.8927661138396]

>  <ZPE_kJmol>  (1) 
178.96482902382195

>  <E_elec_kJmol>  (1) 
-351714.16818564065

>  <E0_minus_Eelec_plus_ZPE_kJmol>  (1) 
0.0

>  <rxn>  (1) 
rmg_rxn_16511

>  <species_type>  (1) 
r0

>  <species_folder>  (1) 
rmg_rxn_16511_r1_CC=N

>  <frequencies_cm1_list>  (1) 
[185.42920459596, 489.9250676554, 680.6761858743599, 921.32968641376, 1055.89513074448, 1069.62910138448, 1130.4431233784, 1267.5150173509198, 1378.7876474762, 1425.071128533, 1456.56312321052, 1463.3683056626398, 1737.36788691596, 2989.2124437666403, 3014.6889593038395, 3075.43431144456, 3123.3452680222, 3455.8927661138396]

>  <E0_kJmol>  (1) 
-351535

>  <H298_kJmol>  (1) 
-351522

$$$$

     RDKit          3D

  9  8  0  0  0  0  0  0  0  0999 V2000
   -1.3574    0.4238   -0.3627 H   0  0  0  0  0  0  0  0  0  1  0  0
   -0.2032   -1.2521   -0.2637 C   0  0  0  0  0  0  0  0  0  2  0  0
   -0.3670    0.0418   -0.1152 C   0  0  0  0  0  0  0  0  0  3  0  0
    0.5365    1.1163    0.3521 C   0  0  0  0  0  0  0  0  0  4  0  0
   -0.9947   -1.8906   -0.6411 H   0  0  0  0  0  0  0  0  0  5  0  0
    0.7422   -1.7359   -0.0209 H   0  0  0  0  0  0  0  0  0  6  0  0
    0.6706    1.8729   -0.4239 H   0  0  0  0  0  0  0  0  0  7  0  0
    0.1206    1.6208    1.2268 H   0  0  0  0  0  0  0  0  0  8  0  0
    1.5193    0.7135    0.6171 H   0  0  0  0  0  0  0  0  0  9  0  0
  1  3  1  0
  2  5  1  0
  2  6  1  0
  2  3  1  0
  3  4  1  0
  4  8  1  0
  4  9  1  0
  4  7  1  0
M  END
>  <rmg_smiles>  (2) 
[CH2][CH]C

>  <rmg_adjacency_list>  (2) 
1 C u0 p0 c0 {2,S} {4,S} {5,S} {6,S}
2 C u0 p0 c0 {1,S} {3,S} {7,S}
3 C u0 p0 c0 {2,S} {8,S} {9,S}
4 H u0 p0 c0 {1,S}
5 H u0 p0 c0 {1,S}
6 H u0 p0 c0 {1,S}
7 H u0 p0 c0 {2,S}
8 H u0 p0 c0 {3,S}
9 H u0 p0 c0 {3,S}


>  <multiplicity>  (2) 
1

>  <reaction>  (2) 
rmg_rxn_16511

>  <type>  (2) 
r2h

>  <role_mapnums>  (2) 
{"r2h_a": 3, "r2h_h": 1}

>  <role_mapidx>  (2) 
{"r2h_a": 2, "r2h_h": 0}

>  <ordered_mapped_smiles>  (2) 
[H:1][CH:3]([CH:2]([H:5])[H:6])[C:4]([H:7])([H:8])[H:9]

>  <mol_properties>  (2) 
{"0": {"label": "a_hydrogen", "atom_type": "H0"}, "2": {"label": "acceptor", "atom_type": "Cs"}}

>  <level_of_theory>  (2) 
wb97xd/def2tzvp

>  <lot_method>  (2) 
wb97xd

>  <lot_basis>  (2) 
def2tzvp

>  <spin_multiplicity>  (2) 
1.0

>  <optical_isomers>  (2) 
1.0

>  <modes>  (2) 
IdealGasTranslation(mass=(42.047, 'amu')),         NonlinearRotor(             inertia = ([10.7194, 53.9495, 61.5633

>  <frequency_value>  (2) 
unknown

>  <frequency_units>  (2) 
unknown

>  <frequency_list>  (2) 
unknown

>  <arkane_path>  (2) 
/home/calvin/Dropbox/PersonalFolders/Calvin/ZEUS_Converged/rmg_rxn_16511/output/Species/rmg_rxn_16511_p2_C=CC/arkane/output.py

>  <path_exists>  (2) 
True

>  <E0_value>  (2) 
-309367.88328007184

>  <E0_units>  (2) 
kJ/mol

>  <thermo_class>  (2) 
NASA

>  <Cp0_value>  (2) 
33.257888

>  <Cp0_units>  (2) 
J/(mol*K)

>  <CpInf_value>  (2) 
207.8618

>  <CpInf_units>  (2) 
J/(mol*K)

>  <Tmin_value>  (2) 
10.0

>  <Tmin_units>  (2) 
K

>  <Tmax_value>  (2) 
3000.0

>  <Tmax_units>  (2) 
K

>  <polynomials>  (2) 
[{"name": "polynomial1", "class": "NASAPolynomial", "Tmin_value": 10.0, "Tmin_units": "K", "Tmax_value": 531.9055225993732, "Tmax_units": "K", "coeffs": [4.020436719737996, -0.0017312817472453872, 7.469369250877763e-05, -1.1039896278615284e-07, 5.3574122437634835e-11, -37208361.61961987, 6.984063136788081]}, {"name": "polynomial2", "class": "NASAPolynomial", "Tmin_value": 531.9055225993732, "Tmin_units": "K", "Tmax_value": 3000.0, "Tmax_units": "K", "coeffs": [-0.30746967349798776, 0.030814974999638145, -1.70878814174512e-05, 4.6353593569365904e-09, -4.92674569396714e-13, -37207901.20971421, 25.13157127988152]}]

>  <H298_value>  (2) 
-73937.54315081467

>  <H298_units>  (2) 
kcal/mol

>  <S298_value>  (2) 
63.23542809596166

>  <S298_units>  (2) 
cal/(mol*K)

>  <Cp_T_value_list>  (2) 
[15.255114456045423, 19.04713333969236, 22.607914354064658, 25.76863333326829, 30.96022163070603, 34.89993401294243, 40.9710958151176, 44.05842766923591, 45.61775863684636]

>  <Cp_T_units>  (2) 
cal/(mol*K)

>  <T_list>  (2) 
[300.0, 400.0, 500.0, 600.0, 800.0, 1000.0, 1500.0, 2000.0, 2400.0]

>  <T_units>  (2) 
K

>  <yaml_path>  (2) 
/home/calvin/Dropbox/PersonalFolders/Calvin/ZEUS_Converged/rmg_rxn_16511/output/Species/rmg_rxn_16511_p2_C=CC/rmg_rxn_16511_p2_C=CC.yml

>  <frequencies_cm1>  (2) 
[200.92112347787997, 429.72220735495995, 590.1693193567598, 925.5460154002399, 944.49202789812, 949.7315376972799, 1024.05291981564, 1068.7501272635197, 1186.76613697304, 1322.2792252779197, 1396.37399688072, 1440.26090006084, 1466.0326959668, 1481.02332492036, 1720.5094379553598, 3007.2932161142003, 3065.80679802592, 3091.5648599612396, 3111.3280437122, 3123.2628641983597, 3201.2855514042]

>  <ZPE_kJmol>  (2) 
207.8343042708976

>  <E_elec_kJmol>  (2) 
-309575.71758434275

>  <E0_minus_Eelec_plus_ZPE_kJmol>  (2) 
0.0

>  <rxn>  (2) 
rmg_rxn_16511

>  <species_type>  (2) 
p1

>  <species_folder>  (2) 
rmg_rxn_16511_p2_C=CC

>  <frequencies_cm1_list>  (2) 
[200.92112347787997, 429.72220735495995, 590.1693193567598, 925.5460154002399, 944.49202789812, 949.7315376972799, 1024.05291981564, 1068.7501272635197, 1186.76613697304, 1322.2792252779197, 1396.37399688072, 1440.26090006084, 1466.0326959668, 1481.02332492036, 1720.5094379553598, 3007.2932161142003, 3065.80679802592, 3091.5648599612396, 3111.3280437122, 3123.2628641983597, 3201.2855514042]

>  <E0_kJmol>  (2) 
-309368

>  <H298_kJmol>  (2) 
-309355

$$$$

     RDKit          3D

 16 14  0  0  0  0  0  0  0  0999 V2000
   -3.0763   -0.0216    0.1188 C   0  0  0  0  0  0  0  0  0  1  0  0
   -1.5830   -0.1131    0.0579 C   0  0  0  0  0  0  0  0  0  2  0  0
   -0.8936    0.6553   -0.6601 N   0  0  0  0  0  0  0  0  0  3  0  0
   -3.3963    0.1639    1.1469 H   0  0  0  0  0  0  0  0  0  4  0  0
   -3.4395    0.7774   -0.5248 H   0  0  0  0  0  0  0  0  0  5  0  0
   -3.5204   -0.9703   -0.1917 H   0  0  0  0  0  0  0  0  0  6  0  0
   -1.1187   -0.8916    0.6773 H   0  0  0  0  0  0  0  0  0  7  0  0
    0.2453    0.3672   -0.5401 H   0  0  0  0  0  0  0  0  0  8  0  0
    1.6992   -1.4242   -0.3663 C   0  0  0  0  0  0  0  0  0  9  0  0
    1.5354   -0.1303   -0.2178 C   0  0  0  0  0  3  0  0  0 10  0  0
    2.4389    0.9441    0.2495 C   0  0  0  0  0  0  0  0  0 11  0  0
    0.9076   -2.0627   -0.7437 H   0  0  0  0  0  0  0  0  0 12  0  0
    2.6446   -1.9080   -0.1235 H   0  0  0  0  0  0  0  0  0 13  0  0
    2.5730    1.7008   -0.5264 H   0  0  0  0  0  0  0  0  0 14  0  0
    2.0229    1.4487    1.1242 H   0  0  0  0  0  0  0  0  0 15  0  0
    3.4217    0.5414    0.5146 H   0  0  0  0  0  0  0  0  0 16  0  0
  1  5  1  0
  1  4  1  0
  1  6  1  0
  1  2  1  0
  2  3  1  0
  2  7  1  0
  3  8  1  0
  9 12  1  0
  9 10  1  0
  9 13  1  0
 10 11  1  0
 11 14  1  0
 11 16  1  0
 11 15  1  0
M  RAD  1  10   2
M  END
>  <rmg_smiles>  (3) 
[CH2][C]C.C[CH][NH]

>  <rmg_adjacency_list>  (3) 
multiplicity 2
1  N u0 p1 c0 {4,S} {16,S}
2  C u0 p0 c0 {4,S} {7,S} {8,S} {9,S}
3  C u0 p0 c0 {6,S} {10,S} {11,S} {12,S}
4  C u0 p0 c0 {1,S} {2,S} {13,S}
5  C u0 p0 c0 {6,S} {14,S} {15,S}
6  C u1 p1 c0 {3,S} {5,S}
7  H u0 p0 c0 {2,S}
8  H u0 p0 c0 {2,S}
9  H u0 p0 c0 {2,S}
10 H u0 p0 c0 {3,S}
11 H u0 p0 c0 {3,S}
12 H u0 p0 c0 {3,S}
13 H u0 p0 c0 {4,S}
14 H u0 p0 c0 {5,S}
15 H u0 p0 c0 {5,S}
16 H u0 p0 c0 {1,S}


>  <multiplicity>  (3) 
2

>  <reaction>  (3) 
rmg_rxn_16511

>  <type>  (3) 
ts

>  <role_mapnums>  (3) 
{"*2": 8, "*1": 3, "*3": 10, "*0": 2, "*4": 9}

>  <role_mapidx>  (3) 
{"*2": 7, "*1": 2, "*3": 9, "*0": 1, "*4": 8}

>  <ordered_mapped_smiles>  (3) 
[C:1]([CH:2]([NH:3][H:8])[H:7])([H:4])([H:5])[H:6].[CH:9]([CH:10][C:11]([H:14])([H:15])[H:16])([H:12])[H:13]

>  <mol_properties>  (3) 
{"1": {"label": "*0", "atom_type": "Cs"}, "2": {"label": "*1", "atom_type": "N3s"}, "7": {"label": "*2", "atom_type": "H0"}, "8": {"label": "*4", "atom_type": "Cs"}, "9": {"label": "*3", "atom_type": "C2s"}}

>  <level_of_theory>  (3) 
wb97xd/def2tzvp

>  <lot_method>  (3) 
wb97xd

>  <lot_basis>  (3) 
def2tzvp

>  <spin_multiplicity>  (3) 
2.0

>  <optical_isomers>  (3) 
2.0

>  <modes>  (3) 
IdealGasTranslation(mass=(84.0813, 'amu')),         NonlinearRotor(             inertia = ([69.8604, 369.24, 414.769

>  <frequency_value>  (3) 
-1640.96

>  <frequency_units>  (3) 
cm^-1

>  <frequency_list>  (3) 
unknown

>  <arkane_path>  (3) 
/home/calvin/Dropbox/PersonalFolders/Calvin/ZEUS_Converged/rmg_rxn_16511/output/rxns/TS0/arkane/output.py

>  <path_exists>  (3) 
True

>  <E0_value>  (3) 
-659140.0

>  <E0_units>  (3) 
kJ/mol

>  <thermo_class>  (3) 
unknown

>  <Cp0_value>  (3) 
unknown

>  <Cp0_units>  (3) 
unknown

>  <CpInf_value>  (3) 
unknown

>  <CpInf_units>  (3) 
unknown

>  <Tmin_value>  (3) 
unknown

>  <Tmin_units>  (3) 
unknown

>  <Tmax_value>  (3) 
unknown

>  <Tmax_units>  (3) 
unknown

>  <polynomials>  (3) 
unknown

>  <H298_value>  (3) 
unknown

>  <H298_units>  (3) 
unknown

>  <S298_value>  (3) 
unknown

>  <S298_units>  (3) 
unknown

>  <Cp_T_value_list>  (3) 
unknown

>  <Cp_T_units>  (3) 
unknown

>  <T_list>  (3) 
unknown

>  <T_units>  (3) 
unknown

>  <yaml_path>  (3) 
unknown

>  <frequencies_cm1>  (3) 
unknown

>  <ZPE_kJmol>  (3) 
unknown

>  <E_elec_kJmol>  (3) 
unknown

>  <E0_minus_Eelec_plus_ZPE_kJmol>  (3) 
unknown

>  <rxn>  (3) 
unknown

>  <species_type>  (3) 
unknown

>  <species_folder>  (3) 
unknown

>  <frequencies_cm1_list>  (3) 
[]

>  <ts_imag_freq_cm1>  (3) 
-1660.8919

>  <ts_freq_out_path>  (3) 
/home/calvin/Dropbox/PersonalFolders/Calvin/ZEUS_Converged/rmg_rxn_16511/output/rxns/TS0/geometry/freq.out

>  <E0_kJmol>  (3) 
-659140

>  <H298_kJmol>  (3) 
unknown

$$$$

     RDKit          3D

  7  6  0  0  0  0  0  0  0  0999 V2000
   -0.6441   -0.1356    0.0624 C   0  0  0  0  0  0  0  0  0  1  0  0
    0.8523    0.0148   -0.0333 C   0  0  0  0  0  0  0  0  0  2  0  0
    1.6700   -0.6077    0.6603 N   0  0  0  0  0  2  0  0  0  3  0  0
   -1.0940    0.8275    0.3091 H   0  0  0  0  0  0  0  0  0  4  0  0
   -0.9104   -0.8656    0.8237 H   0  0  0  0  0  0  0  0  0  5  0  0
   -1.0427   -0.4545   -0.9022 H   0  0  0  0  0  0  0  0  0  6  0  0
    1.2362    0.7308   -0.7748 H   0  0  0  0  0  0  0  0  0  7  0  0
  1  5  1  0
  1  4  1  0
  1  6  1  0
  1  2  1  0
  2  3  1  0
  2  7  1  0
M  RAD  1   3   2
M  END
>  <rmg_smiles>  (4) 
C[CH][N]

>  <rmg_adjacency_list>  (4) 
multiplicity 2
1 N u1 p2 c0 {3,S}
2 C u0 p0 c0 {3,S} {4,S} {5,S} {6,S}
3 C u0 p0 c0 {1,S} {2,S} {7,S}
4 H u0 p0 c0 {2,S}
5 H u0 p0 c0 {2,S}
6 H u0 p0 c0 {2,S}
7 H u0 p0 c0 {3,S}


>  <multiplicity>  (4) 
2

>  <reaction>  (4) 
rmg_rxn_16511

>  <type>  (4) 
r1

>  <role_mapnums>  (4) 
{}

>  <role_mapidx>  (4) 
{}

>  <ordered_mapped_smiles>  (4) 
[C:1]([CH:2]([NH:3])[H:7])([H:4])([H:5])[H:6]

>  <level_of_theory>  (4) 
wb97xd/def2tzvp

>  <lot_method>  (4) 
wb97xd

>  <lot_basis>  (4) 
def2tzvp

>  <spin_multiplicity>  (4) 
2.0

>  <optical_isomers>  (4) 
1.0

>  <modes>  (4) 
IdealGasTranslation(mass=(42.0344, 'amu')),         NonlinearRotor(             inertia = ([8.81492, 48.174, 53.8511

>  <frequency_value>  (4) 
unknown

>  <frequency_units>  (4) 
unknown

>  <frequency_list>  (4) 
unknown

>  <arkane_path>  (4) 
/home/calvin/Dropbox/PersonalFolders/Calvin/ZEUS_Converged/rmg_rxn_16511/output/Species/rmg_rxn_16511_p1_CC=sbr-N-sbr/arkane/output.py

>  <path_exists>  (4) 
True

>  <E0_value>  (4) 
-349854.82234455534

>  <E0_units>  (4) 
kJ/mol

>  <thermo_class>  (4) 
NASA

>  <Cp0_value>  (4) 
33.257888

>  <Cp0_units>  (4) 
J/(mol*K)

>  <CpInf_value>  (4) 
157.97496800000002

>  <CpInf_units>  (4) 
J/(mol*K)

>  <Tmin_value>  (4) 
10.0

>  <Tmin_units>  (4) 
K

>  <Tmax_value>  (4) 
3000.0

>  <Tmax_units>  (4) 
K

>  <polynomials>  (4) 
[{"name": "polynomial1", "class": "NASAPolynomial", "Tmin_value": 10.0, "Tmin_units": "K", "Tmax_value": 503.5856077016928, "Tmax_units": "K", "coeffs": [3.976811592049577, 0.0012685228752087534, 4.786155959427562e-05, -7.554553197268183e-08, 3.869280929218241e-11, -42077814.38325793, 7.559402827950991]}, {"name": "polynomial2", "class": "NASAPolynomial", "Tmin_value": 503.5856077016928, "Tmin_units": "K", "Tmax_value": 3000.0, "Tmax_units": "K", "coeffs": [1.4688672877735052, 0.02118998940112054, -1.1479594923736429e-05, 3.0156770231218235e-09, -3.096140671693614e-13, -42077561.800061174, 17.93823402033286]}]

>  <H298_value>  (4) 
-83614.2601862362

>  <H298_units>  (4) 
kcal/mol

>  <S298_value>  (4) 
63.84640386523673

>  <S298_units>  (4) 
cal/(mol*K)

>  <Cp_T_value_list>  (4) 
[13.788413560189577, 16.48922778111735, 18.980945997388957, 21.186536551582613, 24.822448324400693, 27.593007553675324, 31.86535612271467, 33.985319854322825, 35.01227851918305]

>  <Cp_T_units>  (4) 
cal/(mol*K)

>  <T_list>  (4) 
[300.0, 400.0, 500.0, 600.0, 800.0, 1000.0, 1500.0, 2000.0, 2400.0]

>  <T_units>  (4) 
K

>  <yaml_path>  (4) 
/home/calvin/Dropbox/PersonalFolders/Calvin/ZEUS_Converged/rmg_rxn_16511/output/Species/rmg_rxn_16511_p1_CC=sbr-N-sbr/rmg_rxn_16511_p1_CC=sbr-N-sbr.yml

>  <frequencies_cm1>  (4) 
[183.94593576684, 430.87586088872, 744.9511684695599, 909.3948659275999, 1050.2642027820798, 1063.7578289358798, 1237.9320445923597, 1377.0846351168398, 1461.72709617116, 1465.6893467008, 1739.36617964408, 2963.10416558, 3026.2186276561197, 3097.525403219, 3131.35217290532]

>  <ZPE_kJmol>  (4) 
142.8532380575317

>  <E_elec_kJmol>  (4) 
-349997.67558261286

>  <E0_minus_Eelec_plus_ZPE_kJmol>  (4) 
0.0

>  <rxn>  (4) 
rmg_rxn_16511

>  <species_type>  (4) 
p0

>  <species_folder>  (4) 
rmg_rxn_16511_p1_CC=sbr-N-sbr

>  <frequencies_cm1_list>  (4) 
[183.94593576684, 430.87586088872, 744.9511684695599, 909.3948659275999, 1050.2642027820798, 1063.7578289358798, 1237.9320445923597, 1377.0846351168398, 1461.72709617116, 1465.6893467008, 1739.36617964408, 2963.10416558, 3026.2186276561197, 3097.525403219, 3131.35217290532]

>  <E0_kJmol>  (4) 
-349855

>  <H298_kJmol>  (4) 
-349842

$$$$

     RDKit          3D

  8  7  0  0  0  0  0  0  0  0999 V2000
    1.4098   -0.3617   -0.1137 C   0  0  0  0  0  0  0  0  0  1  0  0
    0.1829   -0.1715   -0.5109 C   0  0  0  0  0  3  0  0  0  2  0  0
   -1.1129    0.2669    0.0153 C   0  0  0  0  0  0  0  0  0  3  0  0
    2.1881   -0.7137   -0.7829 H   0  0  0  0  0  0  0  0  0  4  0  0
    1.7065   -0.1722    0.9205 H   0  0  0  0  0  0  0  0  0  5  0  0
   -1.8665   -0.5154   -0.0958 H   0  0  0  0  0  0  0  0  0  6  0  0
   -1.0351    0.5163    1.0818 H   0  0  0  0  0  0  0  0  0  7  0  0
   -1.4726    1.1513   -0.5143 H   0  0  0  0  0  0  0  0  0  8  0  0
  1  5  1  0
  1  4  1  0
  1  2  1  0
  2  3  1  0
  3  6  1  0
  3  7  1  0
  3  8  1  0
M  RAD  1   2   2
M  END
>  <rmg_smiles>  (5) 
[CH2][C]C

>  <rmg_adjacency_list>  (5) 
multiplicity 2
1 C u0 p0 c0 {3,S} {4,S} {5,S} {6,S}
2 C u0 p0 c0 {3,S} {7,S} {8,S}
3 C u1 p1 c0 {1,S} {2,S}
4 H u0 p0 c0 {1,S}
5 H u0 p0 c0 {1,S}
6 H u0 p0 c0 {1,S}
7 H u0 p0 c0 {2,S}
8 H u0 p0 c0 {2,S}


>  <multiplicity>  (5) 
2

>  <reaction>  (5) 
rmg_rxn_16511

>  <type>  (5) 
r2

>  <role_mapnums>  (5) 
{}

>  <role_mapidx>  (5) 
{}

>  <ordered_mapped_smiles>  (5) 
[CH:1]([CH:2][C:3]([H:6])([H:7])[H:8])([H:4])[H:5]

>  <level_of_theory>  (5) 
wb97xd/def2tzvp

>  <lot_method>  (5) 
wb97xd

>  <lot_basis>  (5) 
def2tzvp

>  <spin_multiplicity>  (5) 
2.0

>  <optical_isomers>  (5) 
1.0

>  <modes>  (5) 
IdealGasTranslation(mass=(41.0391, 'amu')),         NonlinearRotor(             inertia = ([6.71616, 57.9316, 61.5152

>  <frequency_value>  (5) 
unknown

>  <frequency_units>  (5) 
unknown

>  <frequency_list>  (5) 
unknown

>  <arkane_path>  (5) 
/home/calvin/Dropbox/PersonalFolders/Calvin/ZEUS_Converged/rmg_rxn_16511/output/Species/rmg_rxn_16511_r2_C=sbr-C-sbrC/arkane/output.py

>  <path_exists>  (5) 
True

>  <E0_value>  (5) 
-307613.25653515075

>  <E0_units>  (5) 
kJ/mol

>  <thermo_class>  (5) 
NASA

>  <Cp0_value>  (5) 
33.257888

>  <Cp0_units>  (5) 
J/(mol*K)

>  <CpInf_value>  (5) 
182.918384

>  <CpInf_units>  (5) 
J/(mol*K)

>  <Tmin_value>  (5) 
10.0

>  <Tmin_units>  (5) 
K

>  <Tmax_value>  (5) 
3000.0

>  <Tmax_units>  (5) 
K

>  <polynomials>  (5) 
[{"name": "polynomial1", "class": "NASAPolynomial", "Tmin_value": 10.0, "Tmin_units": "K", "Tmax_value": 538.1721786181564, "Tmax_units": "K", "coeffs": [3.9303922764400583, 0.005417957622056139, 4.115103513417311e-05, -6.444122651258351e-08, 3.128241427728439e-11, -36997327.50074482, 7.425360287393725]}, {"name": "polynomial2", "class": "NASAPolynomial", "Tmin_value": 538.1721786181564, "Tmin_units": "K", "Tmax_value": 3000.0, "Tmax_units": "K", "coeffs": [1.2730137490855735, 0.025169279994585066, -1.3900597247315137e-05, 3.7552138842648574e-09, -3.9753517119553523e-13, -36997041.47794579, 18.599201139321465]}]

>  <H298_value>  (5) 
-73518.0260337464

>  <H298_units>  (5) 
kcal/mol

>  <S298_value>  (5) 
65.0852612337371

>  <S298_units>  (5) 
cal/(mol*K)

>  <Cp_T_value_list>  (5) 
[15.446252417103832, 18.596938696083715, 21.515738053866244, 24.10475996521834, 28.361201748150528, 31.595341777308043, 36.588277162622454, 39.12875791048535, 40.409167417549874]

>  <Cp_T_units>  (5) 
cal/(mol*K)

>  <T_list>  (5) 
[300.0, 400.0, 500.0, 600.0, 800.0, 1000.0, 1500.0, 2000.0, 2400.0]

>  <T_units>  (5) 
K

>  <yaml_path>  (5) 
/home/calvin/Dropbox/PersonalFolders/Calvin/ZEUS_Converged/rmg_rxn_16511/output/Species/rmg_rxn_16511_r2_C=sbr-C-sbrC/rmg_rxn_16511_r2_C=sbr-C-sbrC.yml

>  <frequencies_cm1>  (5) 
[176.04890264884, 312.72251147279997, 484.02632726551997, 893.4703269705199, 895.1939402858399, 932.7632169715598, 1043.3422815795197, 1098.3399670074, 1378.28635754784, 1408.11654177792, 1443.1999697778, 1458.9940360138, 1748.7121466646001, 2967.7256467003594, 3032.41264841476, 3055.0530990147995, 3082.9330594139997, 3144.5505186903597]

>  <ZPE_kJmol>  (5) 
170.8022104950377

>  <E_elec_kJmol>  (5) 
-307784.0587456458

>  <E0_minus_Eelec_plus_ZPE_kJmol>  (5) 
0.0

>  <rxn>  (5) 
rmg_rxn_16511

>  <species_type>  (5) 
r1

>  <species_folder>  (5) 
rmg_rxn_16511_r2_C=sbr-C-sbrC

>  <frequencies_cm1_list>  (5) 
[176.04890264884, 312.72251147279997, 484.02632726551997, 893.4703269705199, 895.1939402858399, 932.7632169715598, 1043.3422815795197, 1098.3399670074, 1378.28635754784, 1408.11654177792, 1443.1999697778, 1458.9940360138, 1748.7121466646001, 2967.7256467003594, 3032.41264841476, 3055.0530990147995, 3082.9330594139997, 3144.5505186903597]

>  <E0_kJmol>  (5) 
-307613

>  <H298_kJmol>  (5) 
-307599

$$$$
