
     RDKit          3D

 17 16  0  0  0  0  0  0  0  0999 V2000
   -0.0898    2.5760   -1.0686 C   0  0  0  0  0  0  0  0  0  1  0  0
    1.0986    1.7793   -0.6339 C   0  0  0  0  0  0  0  0  0  2  0  0
    1.0576    0.6513    0.0611 C   0  0  0  0  0  0  0  0  0  3  0  0
   -0.1145    0.1305    0.5243 O   0  0  0  0  0  0  0  0  0  4  0  0
   -0.1018   -1.3226    0.3921 N   0  0  0  0  0  0  0  0  0  5  0  0
   -0.6266   -1.7211   -0.7945 N   0  0  0  0  0  0  0  0  0  6  0  0
   -0.8777   -1.8156    1.5136 C   0  0  0  0  0  0  0  0  0  7  0  0
   -0.2702    3.4209   -0.3978 H   0  0  0  0  0  0  0  0  0  8  0  0
   -0.9909    1.9632   -1.0893 H   0  0  0  0  0  0  0  0  0  9  0  0
    0.0673    2.9872   -2.0671 H   0  0  0  0  0  0  0  0  0 10  0  0
    2.0846    2.1582   -0.8760 H   0  0  0  0  0  0  0  0  0 11  0  0
    1.9421    0.0870    0.3360 H   0  0  0  0  0  0  0  0  0 12  0  0
   -1.5646   -1.3484   -0.9287 H   0  0  0  0  0  0  0  0  0 13  0  0
   -0.0775   -1.2865   -1.5338 H   0  0  0  0  0  0  0  0  0 14  0  0
   -0.8771   -2.9015    1.4587 H   0  0  0  0  0  0  0  0  0 15  0  0
   -1.9111   -1.4493    1.4851 H   0  0  0  0  0  0  0  0  0 16  0  0
   -0.4036   -1.4901    2.4362 H   0  0  0  0  0  0  0  0  0 17  0  0
  1 10  1  0
  1  8  1  0
  1  9  1  0
  1  2  1  0
  2 11  1  0
  2  3  1  0
  3  4  1  0
  3 12  1  0
  4  5  1  0
  5  6  1  0
  5  7  1  0
  6 14  1  0
  6 13  1  0
  7 17  1  0
  7 15  1  0
  7 16  1  0
M  END
>  <rmg_smiles>  (1) 
C[CH][CH]ON(N)C

>  <rmg_adjacency_list>  (1) 
1  O u0 p2 c0 {2,S} {7,S}
2  N u0 p1 c0 {1,S} {3,S} {4,S}
3  N u0 p1 c0 {2,S} {16,S} {17,S}
4  C u0 p0 c0 {2,S} {11,S} {12,S} {13,S}
5  C u0 p0 c0 {6,S} {8,S} {9,S} {10,S}
6  C u0 p0 c0 {5,S} {7,S} {14,S}
7  C u0 p0 c0 {1,S} {6,S} {15,S}
8  H u0 p0 c0 {5,S}
9  H u0 p0 c0 {5,S}
10 H u0 p0 c0 {5,S}
11 H u0 p0 c0 {4,S}
12 H u0 p0 c0 {4,S}
13 H u0 p0 c0 {4,S}
14 H u0 p0 c0 {6,S}
15 H u0 p0 c0 {7,S}
16 H u0 p0 c0 {3,S}
17 H u0 p0 c0 {3,S}


>  <multiplicity>  (1) 
1

>  <reaction>  (1) 
rmg_rxn_10706

>  <type>  (1) 
r1h

>  <role_mapnums>  (1) 
{"r1h_a": 6, "r1h_h": 13}

>  <role_mapidx>  (1) 
{"r1h_a": 5, "r1h_h": 12}

>  <ordered_mapped_smiles>  (1) 
[C:1]([CH:2]([CH:3]([O:4][N:5]([N:6]([H:13])[H:14])[C:7]([H:15])([H:16])[H:17])[H:12])[H:11])([H:8])([H:9])[H:10]

>  <mol_properties>  (1) 
{"5": {"label": "donator", "atom_type": "N3s"}, "12": {"label": "d_hydrogen", "atom_type": "H0"}}

>  <level_of_theory>  (1) 
wb97xd/def2tzvp

>  <lot_method>  (1) 
wb97xd

>  <lot_basis>  (1) 
def2tzvp

>  <spin_multiplicity>  (1) 
1.0

>  <optical_isomers>  (1) 
2.0

>  <modes>  (1) 
IdealGasTranslation(mass=(102.079, 'amu')),         NonlinearRotor(             inertia = ([85.6795, 376.18, 388.876

>  <frequency_value>  (1) 
unknown

>  <frequency_units>  (1) 
unknown

>  <frequency_list>  (1) 
unknown

>  <arkane_path>  (1) 
/home/calvin/Dropbox/PersonalFolders/Calvin/ZEUS_Converged/rmg_rxn_10706/output/Species/rmg_rxn_10706_r2_CC=CONrbr-N-rbrC/arkane/output.py

>  <path_exists>  (1) 
True

>  <E0_value>  (1) 
-900405.0494296006

>  <E0_units>  (1) 
kJ/mol

>  <thermo_class>  (1) 
NASA

>  <Cp0_value>  (1) 
33.257888

>  <Cp0_units>  (1) 
J/(mol*K)

>  <CpInf_value>  (1) 
407.409128

>  <CpInf_units>  (1) 
J/(mol*K)

>  <Tmin_value>  (1) 
10.0

>  <Tmin_units>  (1) 
K

>  <Tmax_value>  (1) 
3000.0

>  <Tmax_units>  (1) 
K

>  <polynomials>  (1) 
[{"name": "polynomial1", "class": "NASAPolynomial", "Tmin_value": 10.0, "Tmin_units": "K", "Tmax_value": 1108.736796573486, "Tmax_units": "K", "coeffs": [3.593482067657345, 0.04527343613148581, -7.853115807860651e-07, -2.043658609457127e-08, 8.18045447415304e-12, -108293714.18687978, 12.85162704751556]}, {"name": "polynomial2", "class": "NASAPolynomial", "Tmin_value": 1108.736796573486, "Tmin_units": "K", "Tmax_value": 3000.0, "Tmax_units": "K", "coeffs": [7.506038002578287, 0.046589931565087575, -2.3444009976697085e-05, 5.741145862751885e-09, -5.527118171710488e-13, -108295530.30298632, -10.705520626468415]}]

>  <H298_value>  (1) 
-215195.9362782153

>  <H298_units>  (1) 
kcal/mol

>  <S298_value>  (1) 
92.63660749241524

>  <S298_units>  (1) 
cal/(mol*K)

>  <Cp_T_value_list>  (1) 
[33.0259983327988, 40.69537554931736, 47.67423133324528, 53.89446290908325, 63.981717362233816, 71.19261681574156, 81.91300293988421, 87.42841994031997, 90.0449470406118]

>  <Cp_T_units>  (1) 
cal/(mol*K)

>  <T_list>  (1) 
[300.0, 400.0, 500.0, 600.0, 800.0, 1000.0, 1500.0, 2000.0, 2400.0]

>  <T_units>  (1) 
K

>  <yaml_path>  (1) 
/home/calvin/Dropbox/PersonalFolders/Calvin/ZEUS_Converged/rmg_rxn_10706/output/Species/rmg_rxn_10706_r2_CC=CONrbr-N-rbrC/rmg_rxn_10706_r2_CC=CONrbr-N-rbrC.yml

>  <frequencies_cm1>  (1) 
[42.90492427935999, 70.94969232623998, 121.85465450339998, 166.71666959895998, 253.87244728039994, 301.92074356444, 373.40606074563993, 419.64833989052, 445.81842094504, 504.72342102, 549.00174236336, 631.06908392268, 758.13578028396, 848.92419319968, 869.8822323963199, 938.1057315505199, 966.4663809221199, 985.6939398181199, 1045.86246519196, 1060.8324931895597, 1129.8319616849199, 1145.91444130436, 1177.50257377636, 1255.0720399510801, 1275.68672988172, 1357.8776771768, 1378.40309629828, 1417.9431977708398, 1431.4368239246398, 1469.8713407606797, 1474.3760831306, 1478.2284618951198, 1482.71260330908, 1665.8688357641197, 1738.5215404497199, 2975.03898606616, 3009.26404090104, 3062.7647235291597, 3097.66960991072, 3105.09968802696, 3145.0998775159596, 3146.5076095065597, 3168.9763854735997, 3405.2006804816, 3560.0443324622797]

>  <ZPE_kJmol>  (1) 
382.271003727177

>  <E_elec_kJmol>  (1) 
-900787.3204333278

>  <E0_minus_Eelec_plus_ZPE_kJmol>  (1) 
0.0

>  <rxn>  (1) 
rmg_rxn_10706

>  <species_type>  (1) 
r1

>  <species_folder>  (1) 
rmg_rxn_10706_r2_CC=CONrbr-N-rbrC

>  <frequencies_cm1_list>  (1) 
[42.90492427935999, 70.94969232623998, 121.85465450339998, 166.71666959895998, 253.87244728039994, 301.92074356444, 373.40606074563993, 419.64833989052, 445.81842094504, 504.72342102, 549.00174236336, 631.06908392268, 758.13578028396, 848.92419319968, 869.8822323963199, 938.1057315505199, 966.4663809221199, 985.6939398181199, 1045.86246519196, 1060.8324931895597, 1129.8319616849199, 1145.91444130436, 1177.50257377636, 1255.0720399510801, 1275.68672988172, 1357.8776771768, 1378.40309629828, 1417.9431977708398, 1431.4368239246398, 1469.8713407606797, 1474.3760831306, 1478.2284618951198, 1482.71260330908, 1665.8688357641197, 1738.5215404497199, 2975.03898606616, 3009.26404090104, 3062.7647235291597, 3097.66960991072, 3105.09968802696, 3145.0998775159596, 3146.5076095065597, 3168.9763854735997, 3405.2006804816, 3560.0443324622797]

>  <E0_kJmol>  (1) 
-900405

>  <H298_kJmol>  (1) 
-900380

$$$$

     RDKit          3D

 14 13  0  0  0  0  0  0  0  0999 V2000
    1.1197   -1.2948   -1.1659 C   0  0  0  0  0  0  0  0  0  1  0  0
    0.9180    0.0594   -1.0141 O   0  0  0  0  0  0  0  0  0  2  0  0
    0.9098    0.5326    0.3023 C   0  0  0  0  0  0  0  0  0  3  0  0
   -0.0211   -0.1096    1.1297 O   0  0  0  0  0  0  0  0  0  4  0  0
   -1.3403    0.1405    0.9303 C   0  0  0  0  0  0  0  0  0  5  0  0
   -1.9059    0.8044   -0.0673 C   0  0  0  0  0  0  0  0  0  6  0  0
    0.5148   -1.9144   -0.5015 H   0  0  0  0  0  0  0  0  0  7  0  0
    1.0127   -1.5561   -2.2157 H   0  0  0  0  0  0  0  0  0  8  0  0
    0.6846    1.5991    0.2310 H   0  0  0  0  0  0  0  0  0  9  0  0
    1.8815    0.3645    0.7697 H   0  0  0  0  0  0  0  0  0 10  0  0
   -1.9210   -0.2932    1.7351 H   0  0  0  0  0  0  0  0  0 11  0  0
   -1.3520    1.2081   -0.9024 H   0  0  0  0  0  0  0  0  0 12  0  0
   -2.9783    0.9328   -0.0567 H   0  0  0  0  0  0  0  0  0 13  0  0
    2.1329   -1.6290   -0.9461 H   0  0  0  0  0  0  0  0  0 14  0  0
  1  8  1  0
  1  7  1  0
  1  2  1  0
  1 14  1  0
  2  3  1  0
  3  4  1  0
  3  9  1  0
  3 10  1  0
  4  5  1  0
  5 11  1  0
  5  6  1  0
  6 12  1  0
  6 13  1  0
M  END
>  <rmg_smiles>  (2) 
[CH2][CH]OCOC

>  <rmg_adjacency_list>  (2) 
1  O u0 p2 c0 {3,S} {4,S}
2  O u0 p2 c0 {3,S} {5,S}
3  C u0 p0 c0 {1,S} {2,S} {7,S} {8,S}
4  C u0 p0 c0 {1,S} {9,S} {10,S} {11,S}
5  C u0 p0 c0 {2,S} {6,S} {12,S}
6  C u0 p0 c0 {5,S} {13,S} {14,S}
7  H u0 p0 c0 {3,S}
8  H u0 p0 c0 {3,S}
9  H u0 p0 c0 {4,S}
10 H u0 p0 c0 {4,S}
11 H u0 p0 c0 {4,S}
12 H u0 p0 c0 {5,S}
13 H u0 p0 c0 {6,S}
14 H u0 p0 c0 {6,S}


>  <multiplicity>  (2) 
1

>  <reaction>  (2) 
rmg_rxn_10706

>  <type>  (2) 
r2h

>  <role_mapnums>  (2) 
{"r2h_a": 1, "r2h_h": 14}

>  <role_mapidx>  (2) 
{"r2h_a": 0, "r2h_h": 13}

>  <ordered_mapped_smiles>  (2) 
[C:1]([O:2][C:3]([O:4][CH:5]([CH:6]([H:12])[H:13])[H:11])([H:9])[H:10])([H:7])([H:8])[H:14]

>  <mol_properties>  (2) 
{"0": {"label": "acceptor", "atom_type": "Cs"}, "13": {"label": "a_hydrogen", "atom_type": "H0"}}

>  <level_of_theory>  (2) 
wb97xd/def2tzvp

>  <lot_method>  (2) 
wb97xd

>  <lot_basis>  (2) 
def2tzvp

>  <spin_multiplicity>  (2) 
1.0

>  <optical_isomers>  (2) 
2.0

>  <modes>  (2) 
IdealGasTranslation(mass=(88.0524, 'amu')),         NonlinearRotor(inertia=([74.6, 207.265, 226.772

>  <frequency_value>  (2) 
unknown

>  <frequency_units>  (2) 
unknown

>  <frequency_list>  (2) 
unknown

>  <arkane_path>  (2) 
/home/calvin/Dropbox/PersonalFolders/Calvin/ZEUS_Converged/rmg_rxn_10706/output/Species/rmg_rxn_10706_p1_C=COCOC/arkane/output.py

>  <path_exists>  (2) 
True

>  <E0_value>  (2) 
-807464.8692775278

>  <E0_units>  (2) 
kJ/mol

>  <thermo_class>  (2) 
NASA

>  <Cp0_value>  (2) 
33.257888

>  <Cp0_units>  (2) 
J/(mol*K)

>  <CpInf_value>  (2) 
332.57888

>  <CpInf_units>  (2) 
J/(mol*K)

>  <Tmin_value>  (2) 
10.0

>  <Tmin_units>  (2) 
K

>  <Tmax_value>  (2) 
3000.0

>  <Tmax_units>  (2) 
K

>  <polynomials>  (2) 
[{"name": "polynomial1", "class": "NASAPolynomial", "Tmin_value": 10.0, "Tmin_units": "K", "Tmax_value": 1126.325395573665, "Tmax_units": "K", "coeffs": [3.8695029423973812, 0.028498299453807118, 1.7022190512316403e-05, -3.0641801015141055e-08, 1.0501484226634505e-11, -97115598.3407524, 10.801996699490312]}, {"name": "polynomial2", "class": "NASAPolynomial", "Tmin_value": 1126.325395573665, "Tmin_units": "K", "Tmax_value": 3000.0, "Tmax_units": "K", "coeffs": [6.683476251086028, 0.03655855886471113, -1.7755481766857817e-05, 4.174057536267347e-09, -3.850184221734767e-13, -97117377.38643233, -8.192141503345525]}]

>  <H298_value>  (2) 
-192983.75417154783

>  <H298_units>  (2) 
kcal/mol

>  <S298_value>  (2) 
83.1559197898133

>  <S298_units>  (2) 
cal/(mol*K)

>  <Cp_T_value_list>  (2) 
[26.248460849789986, 32.39173610071906, 38.15499662016311, 43.39827396248086, 52.01542874587051, 58.12514653655066, 66.98827209332843, 71.56096034637841, 73.68686249171367]

>  <Cp_T_units>  (2) 
cal/(mol*K)

>  <T_list>  (2) 
[300.0, 400.0, 500.0, 600.0, 800.0, 1000.0, 1500.0, 2000.0, 2400.0]

>  <T_units>  (2) 
K

>  <yaml_path>  (2) 
/home/calvin/Dropbox/PersonalFolders/Calvin/ZEUS_Converged/rmg_rxn_10706/output/Species/rmg_rxn_10706_p1_C=COCOC/rmg_rxn_10706_p1_C=COCOC.yml

>  <frequencies_cm1>  (2) 
[74.04670270556, 138.48649294843997, 165.9063653312, 221.56328134979998, 286.20908115227996, 409.34786191051995, 520.22907387256, 668.65896156436, 725.4145952341601, 872.38868203812, 904.47123745316, 964.57795995912, 1001.1995926706799, 1023.65463466708, 1124.2216346784799, 1173.32057971648, 1192.9807586876398, 1223.72425196528, 1242.86254005212, 1330.47153876468, 1353.0501864968398, 1415.64275768864, 1444.00340706024, 1470.2558919386001, 1478.18039299788, 1491.75642297552, 1501.1229909519998, 1698.26040551856, 2978.5205476233996, 2998.82622321464, 3051.1320503970796, 3063.76730338588, 3117.3572568231602, 3151.1908934947996, 3170.4459203320794, 3245.9552909107997]

>  <ZPE_kJmol>  (2) 
310.3903764968326

>  <E_elec_kJmol>  (2) 
-807775.2596540246

>  <E0_minus_Eelec_plus_ZPE_kJmol>  (2) 
0.0

>  <rxn>  (2) 
rmg_rxn_10706

>  <species_type>  (2) 
p0

>  <species_folder>  (2) 
rmg_rxn_10706_p1_C=COCOC

>  <frequencies_cm1_list>  (2) 
[74.04670270556, 138.48649294843997, 165.9063653312, 221.56328134979998, 286.20908115227996, 409.34786191051995, 520.22907387256, 668.65896156436, 725.4145952341601, 872.38868203812, 904.47123745316, 964.57795995912, 1001.1995926706799, 1023.65463466708, 1124.2216346784799, 1173.32057971648, 1192.9807586876398, 1223.72425196528, 1242.86254005212, 1330.47153876468, 1353.0501864968398, 1415.64275768864, 1444.00340706024, 1470.2558919386001, 1478.18039299788, 1491.75642297552, 1501.1229909519998, 1698.26040551856, 2978.5205476233996, 2998.82622321464, 3051.1320503970796, 3063.76730338588, 3117.3572568231602, 3151.1908934947996, 3170.4459203320794, 3245.9552909107997]

>  <E0_kJmol>  (2) 
-807465

>  <H298_kJmol>  (2) 
-807444

$$$$

     RDKit          3D

 30 28  0  0  0  0  0  0  0  0999 V2000
   -1.1098   -1.0447   -1.1307 C   0  0  0  0  0  3  0  0  0  1  0  0
   -1.3115    0.3096   -0.9790 O   0  0  0  0  0  0  0  0  0  2  0  0
   -1.3197    0.7828    0.3374 C   0  0  0  0  0  0  0  0  0  3  0  0
   -2.2506    0.1406    1.1648 O   0  0  0  0  0  0  0  0  0  4  0  0
   -3.5698    0.3906    0.9654 C   0  0  0  0  0  0  0  0  0  5  0  0
   -4.1354    1.0546   -0.0322 C   0  0  0  0  0  0  0  0  0  6  0  0
   -1.7147   -1.6642   -0.4664 H   0  0  0  0  0  0  0  0  0  7  0  0
   -1.2169   -1.3060   -2.1805 H   0  0  0  0  0  0  0  0  0  8  0  0
   -1.5449    1.8493    0.2661 H   0  0  0  0  0  0  0  0  0  9  0  0
   -0.3480    0.6147    0.8048 H   0  0  0  0  0  0  0  0  0 10  0  0
   -4.1506   -0.0430    1.7702 H   0  0  0  0  0  0  0  0  0 11  0  0
   -3.5815    1.4582   -0.8672 H   0  0  0  0  0  0  0  0  0 12  0  0
   -5.2078    1.1829   -0.0215 H   0  0  0  0  0  0  0  0  0 13  0  0
    1.8693    2.3690   -0.9601 C   0  0  0  0  0  0  0  0  0 14  0  0
    3.0578    1.5723   -0.5255 C   0  0  0  0  0  0  0  0  0 15  0  0
    3.0167    0.4443    0.1695 C   0  0  0  0  0  0  0  0  0 16  0  0
    1.8446   -0.0765    0.6327 O   0  0  0  0  0  0  0  0  0 17  0  0
    1.8573   -1.5295    0.5006 N   0  0  0  0  0  0  0  0  0 18  0  0
    1.3325   -1.9281   -0.6861 N   0  0  0  0  0  0  0  0  0 19  0  0
    1.0814   -2.0225    1.6220 C   0  0  0  0  0  0  0  0  0 20  0  0
    1.6890    3.2139   -0.2893 H   0  0  0  0  0  0  0  0  0 21  0  0
    0.9682    1.7563   -0.9808 H   0  0  0  0  0  0  0  0  0 22  0  0
    2.0264    2.7802   -1.9586 H   0  0  0  0  0  0  0  0  0 23  0  0
    4.0437    1.9512   -0.7675 H   0  0  0  0  0  0  0  0  0 24  0  0
    3.9012   -0.1199    0.4445 H   0  0  0  0  0  0  0  0  0 25  0  0
    0.1800   -1.4701   -0.8509 H   0  0  0  0  0  0  0  0  0 26  0  0
    1.8816   -1.4934   -1.4253 H   0  0  0  0  0  0  0  0  0 27  0  0
    1.0821   -3.1085    1.5671 H   0  0  0  0  0  0  0  0  0 28  0  0
    0.0481   -1.6563    1.5935 H   0  0  0  0  0  0  0  0  0 29  0  0
    1.5555   -1.6970    2.5446 H   0  0  0  0  0  0  0  0  0 30  0  0
  1  7  1  0
  1  8  1  0
  1  2  1  0
  2  3  1  0
  3  4  1  0
  3  9  1  0
  3 10  1  0
  4  5  1  0
  5 11  1  0
  5  6  1  0
  6 12  1  0
  6 13  1  0
 14 15  1  0
 14 23  1  0
 14 22  1  0
 14 21  1  0
 15 16  1  0
 15 24  1  0
 16 17  1  0
 16 25  1  0
 17 18  1  0
 18 19  1  0
 18 20  1  0
 19 27  1  0
 19 26  1  0
 20 30  1  0
 20 29  1  0
 20 28  1  0
M  RAD  1   1   2
M  END
>  <rmg_smiles>  (3) 
C[CH][CH]ON(N)C.[CH2]OCO[CH][CH2]

>  <rmg_adjacency_list>  (3) 
multiplicity 2
1  O u0 p2 c0 {6,S} {11,S}
2  O u0 p2 c0 {6,S} {13,S}
3  O u0 p2 c0 {4,S} {10,S}
4  N u0 p1 c0 {3,S} {5,S} {7,S}
5  N u0 p1 c0 {4,S} {27,S} {28,S}
6  C u0 p0 c0 {1,S} {2,S} {14,S} {15,S}
7  C u0 p0 c0 {4,S} {19,S} {20,S} {21,S}
8  C u0 p0 c0 {9,S} {16,S} {17,S} {18,S}
9  C u0 p0 c0 {8,S} {10,S} {22,S}
10 C u0 p0 c0 {3,S} {9,S} {24,S}
11 C u0 p0 c0 {1,S} {12,S} {23,S}
12 C u0 p0 c0 {11,S} {25,S} {26,S}
13 C u1 p0 c0 {2,S} {29,S} {30,S}
14 H u0 p0 c0 {6,S}
15 H u0 p0 c0 {6,S}
16 H u0 p0 c0 {8,S}
17 H u0 p0 c0 {8,S}
18 H u0 p0 c0 {8,S}
19 H u0 p0 c0 {7,S}
20 H u0 p0 c0 {7,S}
21 H u0 p0 c0 {7,S}
22 H u0 p0 c0 {9,S}
23 H u0 p0 c0 {11,S}
24 H u0 p0 c0 {10,S}
25 H u0 p0 c0 {12,S}
26 H u0 p0 c0 {12,S}
27 H u0 p0 c0 {5,S}
28 H u0 p0 c0 {5,S}
29 H u0 p0 c0 {13,S}
30 H u0 p0 c0 {13,S}


>  <multiplicity>  (3) 
2

>  <reaction>  (3) 
rmg_rxn_10706

>  <type>  (3) 
ts

>  <role_mapnums>  (3) 
{"*2": 26, "*1": 19, "*3": 1, "*0": 18, "*4": 2}

>  <role_mapidx>  (3) 
{"*2": 25, "*1": 18, "*3": 0, "*0": 17, "*4": 1}

>  <ordered_mapped_smiles>  (3) 
[C:1]([O:2][C:3]([O:4][CH:5]([CH:6]([H:12])[H:13])[H:11])([H:9])[H:10])([H:7])[H:8].[C:14]([CH:15]([CH:16]([O:17][N:18]([N:19]([H:26])[H:27])[C:20]([H:28])([H:29])[H:30])[H:25])[H:24])([H:21])([H:22])[H:23]

>  <mol_properties>  (3) 
{"0": {"label": "*3", "atom_type": "Cs"}, "1": {"label": "*4", "atom_type": "O2s"}, "17": {"label": "*0", "atom_type": "N3s"}, "18": {"label": "*1", "atom_type": "N3s"}, "25": {"label": "*2", "atom_type": "H0"}}

>  <level_of_theory>  (3) 
wb97xd/def2tzvp

>  <lot_method>  (3) 
wb97xd

>  <lot_basis>  (3) 
def2tzvp

>  <spin_multiplicity>  (3) 
2.0

>  <optical_isomers>  (3) 
2.0

>  <modes>  (3) 
IdealGasTranslation(mass=(189.124, 'amu')),         NonlinearRotor(             inertia = ([477.052, 1155.39, 1373.2

>  <frequency_value>  (3) 
-1948.09

>  <frequency_units>  (3) 
cm^-1

>  <frequency_list>  (3) 
unknown

>  <arkane_path>  (3) 
/home/calvin/Dropbox/PersonalFolders/Calvin/ZEUS_Converged/rmg_rxn_10706/output/rxns/TS0/arkane/output.py

>  <path_exists>  (3) 
True

>  <E0_value>  (3) 
-1706130.0

>  <E0_units>  (3) 
kJ/mol

>  <thermo_class>  (3) 
unknown

>  <Cp0_value>  (3) 
unknown

>  <Cp0_units>  (3) 
unknown

>  <CpInf_value>  (3) 
unknown

>  <CpInf_units>  (3) 
unknown

>  <Tmin_value>  (3) 
unknown

>  <Tmin_units>  (3) 
unknown

>  <Tmax_value>  (3) 
unknown

>  <Tmax_units>  (3) 
unknown

>  <polynomials>  (3) 
unknown

>  <H298_value>  (3) 
unknown

>  <H298_units>  (3) 
unknown

>  <S298_value>  (3) 
unknown

>  <S298_units>  (3) 
unknown

>  <Cp_T_value_list>  (3) 
unknown

>  <Cp_T_units>  (3) 
unknown

>  <T_list>  (3) 
unknown

>  <T_units>  (3) 
unknown

>  <yaml_path>  (3) 
unknown

>  <frequencies_cm1>  (3) 
unknown

>  <ZPE_kJmol>  (3) 
unknown

>  <E_elec_kJmol>  (3) 
unknown

>  <E0_minus_Eelec_plus_ZPE_kJmol>  (3) 
unknown

>  <rxn>  (3) 
unknown

>  <species_type>  (3) 
unknown

>  <species_folder>  (3) 
unknown

>  <frequencies_cm1_list>  (3) 
[]

>  <ts_imag_freq_cm1>  (3) 
-1971.7553

>  <ts_freq_out_path>  (3) 
/home/calvin/Dropbox/PersonalFolders/Calvin/ZEUS_Converged/rmg_rxn_10706/output/rxns/TS0/geometry/freq.out

>  <E0_kJmol>  (3) 
-1.70613e+06

>  <H298_kJmol>  (3) 
unknown

$$$$

     RDKit          3D

 16 15  0  0  0  0  0  0  0  0999 V2000
   -2.7163    0.6711   -0.2082 C   0  0  0  0  0  0  0  0  0  1  0  0
   -2.0604   -0.6699   -0.1371 C   0  0  0  0  0  0  0  0  0  2  0  0
   -1.8776   -1.4967   -1.1546 C   0  0  0  0  0  0  0  0  0  3  0  0
   -2.2450   -1.1612   -2.4322 O   0  0  0  0  0  0  0  0  0  4  0  0
   -2.5108   -2.3329   -3.2086 N   0  0  0  0  0  0  0  0  0  5  0  0
   -2.0229   -2.3050   -4.4233 N   0  0  0  0  0  2  0  0  0  6  0  0
   -3.9082   -2.7128   -3.0828 C   0  0  0  0  0  0  0  0  0  7  0  0
   -3.4812    0.7676    0.5653 H   0  0  0  0  0  0  0  0  0  8  0  0
   -3.1809    0.8365   -1.1792 H   0  0  0  0  0  0  0  0  0  9  0  0
   -1.9897    1.4706   -0.0417 H   0  0  0  0  0  0  0  0  0 10  0  0
   -1.6717   -0.9974    0.8197 H   0  0  0  0  0  0  0  0  0 11  0  0
   -1.3990   -2.4648   -1.0638 H   0  0  0  0  0  0  0  0  0 12  0  0
   -1.1779   -1.7364   -4.3793 H   0  0  0  0  0  0  0  0  0 13  0  0
   -4.5563   -1.9305   -3.4853 H   0  0  0  0  0  0  0  0  0 14  0  0
   -4.1357   -2.8800   -2.0315 H   0  0  0  0  0  0  0  0  0 15  0  0
   -4.0457   -3.6333   -3.6440 H   0  0  0  0  0  0  0  0  0 16  0  0
  1 10  1  0
  1  8  1  0
  1  9  1  0
  1  2  1  0
  2 11  1  0
  2  3  1  0
  3  4  1  0
  3 12  1  0
  4  5  1  0
  5  6  1  0
  5  7  1  0
  6 13  1  0
  7 14  1  0
  7 15  1  0
  7 16  1  0
M  RAD  1   6   2
M  END
>  <rmg_smiles>  (4) 
C[CH][CH]ON([NH])C

>  <rmg_adjacency_list>  (4) 
multiplicity 2
1  O u0 p2 c0 {2,S} {7,S}
2  N u0 p1 c0 {1,S} {3,S} {5,S}
3  N u1 p1 c0 {2,S} {16,S}
4  C u0 p0 c0 {6,S} {8,S} {9,S} {10,S}
5  C u0 p0 c0 {2,S} {11,S} {12,S} {13,S}
6  C u0 p0 c0 {4,S} {7,S} {14,S}
7  C u0 p0 c0 {1,S} {6,S} {15,S}
8  H u0 p0 c0 {4,S}
9  H u0 p0 c0 {4,S}
10 H u0 p0 c0 {4,S}
11 H u0 p0 c0 {5,S}
12 H u0 p0 c0 {5,S}
13 H u0 p0 c0 {5,S}
14 H u0 p0 c0 {6,S}
15 H u0 p0 c0 {7,S}
16 H u0 p0 c0 {3,S}


>  <multiplicity>  (4) 
2

>  <reaction>  (4) 
rmg_rxn_10706

>  <type>  (4) 
r1

>  <role_mapnums>  (4) 
{}

>  <role_mapidx>  (4) 
{}

>  <ordered_mapped_smiles>  (4) 
[C:1]([CH:2]([CH:3]([O:4][N:5]([N:6][H:13])[C:7]([H:14])([H:15])[H:16])[H:12])[H:11])([H:8])([H:9])[H:10]

>  <level_of_theory>  (4) 
wb97xd/def2tzvp

>  <lot_method>  (4) 
wb97xd

>  <lot_basis>  (4) 
def2tzvp

>  <spin_multiplicity>  (4) 
2.0

>  <optical_isomers>  (4) 
2.0

>  <modes>  (4) 
IdealGasTranslation(mass=(101.071, 'amu')),         NonlinearRotor(             inertia = ([82.2482, 367.276, 386.349

>  <frequency_value>  (4) 
unknown

>  <frequency_units>  (4) 
unknown

>  <frequency_list>  (4) 
unknown

>  <arkane_path>  (4) 
/home/calvin/Dropbox/PersonalFolders/Calvin/ZEUS_Converged/rmg_rxn_10706/output/Species/rmg_rxn_10706_p2_CC=CONrbr-sbr-NH-sbr-rbrC/arkane/output.py

>  <path_exists>  (4) 
True

>  <E0_value>  (4) 
-898742.9185377804

>  <E0_units>  (4) 
kJ/mol

>  <thermo_class>  (4) 
NASA

>  <Cp0_value>  (4) 
33.257888

>  <Cp0_units>  (4) 
J/(mol*K)

>  <CpInf_value>  (4) 
382.465712

>  <CpInf_units>  (4) 
J/(mol*K)

>  <Tmin_value>  (4) 
10.0

>  <Tmin_units>  (4) 
K

>  <Tmax_value>  (4) 
3000.0

>  <Tmax_units>  (4) 
K

>  <polynomials>  (4) 
[{"name": "polynomial1", "class": "NASAPolynomial", "Tmin_value": 10.0, "Tmin_units": "K", "Tmax_value": 1230.351550791476, "Tmax_units": "K", "coeffs": [3.636448192617725, 0.046012269057782156, -1.0447598723861432e-05, -9.397618320350448e-09, 4.2997715161361366e-12, -108093806.20736969, 13.356245971953898]}, {"name": "polynomial2", "class": "NASAPolynomial", "Tmin_value": 1230.351550791476, "Tmin_units": "K", "Tmax_value": 3000.0, "Tmax_units": "K", "coeffs": [10.637798077256372, 0.03762876756034826, -1.7756617991574368e-05, 4.0613531266158274e-09, -3.6506325325576807e-13, -108096617.32351352, -26.295285854594052]}]

>  <H298_value>  (4) 
-214798.71695714595

>  <H298_units>  (4) 
kcal/mol

>  <S298_value>  (4) 
93.88909266705956

>  <S298_units>  (4) 
cal/(mol*K)

>  <Cp_T_value_list>  (4) 
[32.353584800793946, 39.50241933237663, 45.9535869024618, 51.687318427953755, 61.025931419689, 67.77024327047224, 77.47619958424356, 82.5061792663907, 84.85559276208323]

>  <Cp_T_units>  (4) 
cal/(mol*K)

>  <T_list>  (4) 
[300.0, 400.0, 500.0, 600.0, 800.0, 1000.0, 1500.0, 2000.0, 2400.0]

>  <T_units>  (4) 
K

>  <yaml_path>  (4) 
/home/calvin/Dropbox/PersonalFolders/Calvin/ZEUS_Converged/rmg_rxn_10706/output/Species/rmg_rxn_10706_p2_CC=CONrbr-sbr-NH-sbr-rbrC/rmg_rxn_10706_p2_CC=CONrbr-sbr-NH-sbr-rbrC.yml

>  <frequencies_cm1>  (4) 
[39.766711988119994, 75.63297631448, 123.26238649399998, 170.50724549560002, 210.75464645612, 275.49658405307997, 409.25172411604, 436.20464149704003, 468.50694044231994, 500.21867865008005, 576.8748357772399, 635.10687129084, 759.24136492048, 839.57822617916, 939.32118795216, 961.2680730348799, 1009.44684204, 1040.7534281138799, 1058.9372052412398, 1116.31086758984, 1136.6302771517198, 1158.60463017572, 1269.5201770643598, 1302.9417946168, 1381.1704913822398, 1418.63676328816, 1428.2162078095598, 1447.1828212633998, 1467.8867820031996, 1473.94346305544, 1477.12974424392, 1484.2920099326798, 1743.06061774624, 3013.6108426086, 3018.15678689044, 3068.4780553153996, 3106.953774063359, 3110.6619461361597, 3147.0088994349203, 3149.9479691518795, 3171.6476427630796, 3452.55541124832]

>  <ZPE_kJmol>  (4) 
347.3638170215182

>  <E_elec_kJmol>  (4) 
-899090.2823548019

>  <E0_minus_Eelec_plus_ZPE_kJmol>  (4) 
0.0

>  <rxn>  (4) 
rmg_rxn_10706

>  <species_type>  (4) 
p1

>  <species_folder>  (4) 
rmg_rxn_10706_p2_CC=CONrbr-sbr-NH-sbr-rbrC

>  <frequencies_cm1_list>  (4) 
[39.766711988119994, 75.63297631448, 123.26238649399998, 170.50724549560002, 210.75464645612, 275.49658405307997, 409.25172411604, 436.20464149704003, 468.50694044231994, 500.21867865008005, 576.8748357772399, 635.10687129084, 759.24136492048, 839.57822617916, 939.32118795216, 961.2680730348799, 1009.44684204, 1040.7534281138799, 1058.9372052412398, 1116.31086758984, 1136.6302771517198, 1158.60463017572, 1269.5201770643598, 1302.9417946168, 1381.1704913822398, 1418.63676328816, 1428.2162078095598, 1447.1828212633998, 1467.8867820031996, 1473.94346305544, 1477.12974424392, 1484.2920099326798, 1743.06061774624, 3013.6108426086, 3018.15678689044, 3068.4780553153996, 3106.953774063359, 3110.6619461361597, 3147.0088994349203, 3149.9479691518795, 3171.6476427630796, 3452.55541124832]

>  <E0_kJmol>  (4) 
-898743

>  <H298_kJmol>  (4) 
-898718

$$$$

     RDKit          3D

 13 12  0  0  0  0  0  0  0  0999 V2000
    2.6140   -0.1760    0.1061 C   0  0  0  0  0  3  0  0  0  1  0  0
    1.7369    0.6015    0.7849 O   0  0  0  0  0  0  0  0  0  2  0  0
    0.3829    0.2955    0.5984 C   0  0  0  0  0  0  0  0  0  3  0  0
    0.0214   -0.9610    1.0915 O   0  0  0  0  0  0  0  0  0  4  0  0
   -0.0421   -1.1265    2.4384 C   0  0  0  0  0  0  0  0  0  5  0  0
    0.3542   -0.2893    3.3854 C   0  0  0  0  0  0  0  0  0  6  0  0
    3.6468    0.0574    0.3129 H   0  0  0  0  0  0  0  0  0  7  0  0
    2.2997   -1.1687   -0.1909 H   0  0  0  0  0  0  0  0  0  8  0  0
    0.1461    0.2666   -0.4670 H   0  0  0  0  0  0  0  0  0  9  0  0
   -0.1746    1.0839    1.1083 H   0  0  0  0  0  0  0  0  0 10  0  0
   -0.4863   -2.0871    2.6674 H   0  0  0  0  0  0  0  0  0 11  0  0
    0.8422    0.6530    3.1826 H   0  0  0  0  0  0  0  0  0 12  0  0
    0.2043   -0.5722    4.4170 H   0  0  0  0  0  0  0  0  0 13  0  0
  1  8  1  0
  1  7  1  0
  1  2  1  0
  2  3  1  0
  3  4  1  0
  3  9  1  0
  3 10  1  0
  4  5  1  0
  5 11  1  0
  5  6  1  0
  6 12  1  0
  6 13  1  0
M  RAD  1   1   2
M  END
>  <rmg_smiles>  (5) 
[CH2][CH]OCO[CH2]

>  <rmg_adjacency_list>  (5) 
multiplicity 2
1  O u0 p2 c0 {3,S} {4,S}
2  O u0 p2 c0 {3,S} {6,S}
3  C u0 p0 c0 {1,S} {2,S} {7,S} {8,S}
4  C u0 p0 c0 {1,S} {5,S} {9,S}
5  C u0 p0 c0 {4,S} {10,S} {11,S}
6  C u1 p0 c0 {2,S} {12,S} {13,S}
7  H u0 p0 c0 {3,S}
8  H u0 p0 c0 {3,S}
9  H u0 p0 c0 {4,S}
10 H u0 p0 c0 {5,S}
11 H u0 p0 c0 {5,S}
12 H u0 p0 c0 {6,S}
13 H u0 p0 c0 {6,S}


>  <multiplicity>  (5) 
2

>  <reaction>  (5) 
rmg_rxn_10706

>  <type>  (5) 
r2

>  <role_mapnums>  (5) 
{}

>  <role_mapidx>  (5) 
{}

>  <ordered_mapped_smiles>  (5) 
[C:1]([O:2][C:3]([O:4][CH:5]([CH:6]([H:12])[H:13])[H:11])([H:9])[H:10])([H:7])[H:8]

>  <level_of_theory>  (5) 
wb97xd/def2tzvp

>  <lot_method>  (5) 
wb97xd

>  <lot_basis>  (5) 
def2tzvp

>  <spin_multiplicity>  (5) 
2.0

>  <optical_isomers>  (5) 
2.0

>  <modes>  (5) 
IdealGasTranslation(mass=(87.0446, 'amu')),         NonlinearRotor(             inertia = ([72.7273, 199.476, 220.908

>  <frequency_value>  (5) 
unknown

>  <frequency_units>  (5) 
unknown

>  <frequency_list>  (5) 
unknown

>  <arkane_path>  (5) 
/home/calvin/Dropbox/PersonalFolders/Calvin/ZEUS_Converged/rmg_rxn_10706/output/Species/rmg_rxn_10706_r1_sbr-CH2-sbrOCOC=C/arkane/output.py

>  <path_exists>  (5) 
True

>  <E0_value>  (5) 
-805750.711592887

>  <E0_units>  (5) 
kJ/mol

>  <thermo_class>  (5) 
NASA

>  <Cp0_value>  (5) 
33.257888

>  <Cp0_units>  (5) 
J/(mol*K)

>  <CpInf_value>  (5) 
307.635464

>  <CpInf_units>  (5) 
J/(mol*K)

>  <Tmin_value>  (5) 
10.0

>  <Tmin_units>  (5) 
K

>  <Tmax_value>  (5) 
3000.0

>  <Tmax_units>  (5) 
K

>  <polynomials>  (5) 
[{"name": "polynomial1", "class": "NASAPolynomial", "Tmin_value": 10.0, "Tmin_units": "K", "Tmax_value": 795.833183974657, "Tmax_units": "K", "coeffs": [3.6724417656433466, 0.029821680697272538, 2.0678152124366964e-05, -4.852398163950526e-08, 2.215152792395944e-11, -96909423.41612482, 12.022685191557494]}, {"name": "polynomial2", "class": "NASAPolynomial", "Tmin_value": 795.833183974657, "Tmin_units": "K", "Tmax_value": 3000.0, "Tmax_units": "K", "coeffs": [3.3688646664144435, 0.042491831872105854, -2.420776744185498e-05, 6.6726121260221715e-09, -7.152020713564091e-13, -96909728.00973469, 11.200688031175948]}]

>  <H298_value>  (5) 
-192574.037039463

>  <H298_units>  (5) 
kcal/mol

>  <S298_value>  (5) 
84.18914479572827

>  <S298_units>  (5) 
cal/(mol*K)

>  <Cp_T_value_list>  (5) 
[26.527735336734747, 32.53288089472878, 37.899590906671776, 42.524714673169235, 49.66583405243175, 54.86744545512572, 62.67349468233981, 66.4901857675222, 68.41161567804997]

>  <Cp_T_units>  (5) 
cal/(mol*K)

>  <T_list>  (5) 
[300.0, 400.0, 500.0, 600.0, 800.0, 1000.0, 1500.0, 2000.0, 2400.0]

>  <T_units>  (5) 
K

>  <yaml_path>  (5) 
/home/calvin/Dropbox/PersonalFolders/Calvin/ZEUS_Converged/rmg_rxn_10706/output/Species/rmg_rxn_10706_r1_sbr-CH2-sbrOCOC=C/rmg_rxn_10706_r1_sbr-CH2-sbrOCOC=C.yml

>  <frequencies_cm1>  (5) 
[76.86216668676, 146.69940739115998, 181.7004315672, 260.23814267204, 288.06316718868, 406.52553094399997, 518.1071754086801, 574.4233220179999, 660.8031303582799, 723.2789627996399, 874.46937859008, 906.81287944728, 980.6467056079199, 1000.80817450744, 1037.944831118, 1128.2388210906797, 1214.24781222368, 1224.7336988073198, 1265.413719843, 1331.5908573718398, 1353.20126017388, 1416.0685107784798, 1439.55360057288, 1472.40525834376, 1500.951316319, 1699.97715184856, 3028.2924572227603, 3089.51163135056, 3117.30918792592, 3151.7951882029597, 3176.8665516062797, 3244.2248106101597, 3258.02058411804]

>  <ZPE_kJmol>  (5) 
273.6445664469421

>  <E_elec_kJmol>  (5) 
-806024.3561593338

>  <E0_minus_Eelec_plus_ZPE_kJmol>  (5) 
0.0

>  <rxn>  (5) 
rmg_rxn_10706

>  <species_type>  (5) 
r0

>  <species_folder>  (5) 
rmg_rxn_10706_r1_sbr-CH2-sbrOCOC=C

>  <frequencies_cm1_list>  (5) 
[76.86216668676, 146.69940739115998, 181.7004315672, 260.23814267204, 288.06316718868, 406.52553094399997, 518.1071754086801, 574.4233220179999, 660.8031303582799, 723.2789627996399, 874.46937859008, 906.81287944728, 980.6467056079199, 1000.80817450744, 1037.944831118, 1128.2388210906797, 1214.24781222368, 1224.7336988073198, 1265.413719843, 1331.5908573718398, 1353.20126017388, 1416.0685107784798, 1439.55360057288, 1472.40525834376, 1500.951316319, 1699.97715184856, 3028.2924572227603, 3089.51163135056, 3117.30918792592, 3151.7951882029597, 3176.8665516062797, 3244.2248106101597, 3258.02058411804]

>  <E0_kJmol>  (5) 
-805751

>  <H298_kJmol>  (5) 
-805730

$$$$
