
     RDKit          3D

  8  7  0  0  0  0  0  0  0  0999 V2000
    0.8674   -0.8793    0.2922 C   0  0  0  0  0  0  0  0  0  1  0  0
   -0.4109   -0.1738   -0.0277 C   0  0  0  0  0  0  0  0  0  2  0  0
   -0.4365    1.0923   -0.2716 N   0  0  0  0  0  0  0  0  0  3  0  0
    0.7796   -1.3403    1.2793 H   0  0  0  0  0  0  0  0  0  4  0  0
    1.0889   -1.6464   -0.4537 H   0  0  0  0  0  0  0  0  0  5  0  0
    1.6784   -0.1470    0.3190 H   0  0  0  0  0  0  0  0  0  6  0  0
   -1.3240   -0.7688   -0.0476 H   0  0  0  0  0  0  0  0  0  7  0  0
   -1.3984    1.3923   -0.4685 H   0  0  0  0  0  0  0  0  0  8  0  0
  1  5  1  0
  1  4  1  0
  1  6  1  0
  1  2  1  0
  2  3  1  0
  2  7  1  0
  3  8  1  0
M  END
>  <rmg_smiles>  (1) 
C[CH][NH]

>  <rmg_adjacency_list>  (1) 
1 N u0 p1 c0 {3,S} {8,S}
2 C u0 p0 c0 {3,S} {4,S} {5,S} {6,S}
3 C u0 p0 c0 {1,S} {2,S} {7,S}
4 H u0 p0 c0 {2,S}
5 H u0 p0 c0 {2,S}
6 H u0 p0 c0 {2,S}
7 H u0 p0 c0 {3,S}
8 H u0 p0 c0 {1,S}


>  <multiplicity>  (1) 
1

>  <reaction>  (1) 
rmg_rxn_16774

>  <type>  (1) 
r1h

>  <role_mapnums>  (1) 
{"r1h_a": 2, "r1h_h": 7}

>  <role_mapidx>  (1) 
{"r1h_a": 1, "r1h_h": 6}

>  <ordered_mapped_smiles>  (1) 
[C:1]([CH:2]([NH:3][H:8])[H:7])([H:4])([H:5])[H:6]

>  <mol_properties>  (1) 
{"1": {"label": "donator", "atom_type": "Cs"}, "6": {"label": "d_hydrogen", "atom_type": "H0"}}

>  <level_of_theory>  (1) 
wb97xd/def2tzvp

>  <lot_method>  (1) 
wb97xd

>  <lot_basis>  (1) 
def2tzvp

>  <spin_multiplicity>  (1) 
1.0

>  <optical_isomers>  (1) 
2.0

>  <modes>  (1) 
IdealGasTranslation(mass=(43.0422, 'amu')),         NonlinearRotor(             inertia = ([9.58574, 51.8782, 58.2459

>  <frequency_value>  (1) 
unknown

>  <frequency_units>  (1) 
unknown

>  <frequency_list>  (1) 
unknown

>  <arkane_path>  (1) 
/home/calvin/Dropbox/PersonalFolders/Calvin/ZEUS_Converged/rmg_rxn_16774/output/Species/rmg_rxn_16774_r1_CC=N/arkane/output.py

>  <path_exists>  (1) 
True

>  <E0_value>  (1) 
-351532.73105076194

>  <E0_units>  (1) 
kJ/mol

>  <thermo_class>  (1) 
NASA

>  <Cp0_value>  (1) 
33.257888

>  <Cp0_units>  (1) 
J/(mol*K)

>  <CpInf_value>  (1) 
182.918384

>  <CpInf_units>  (1) 
J/(mol*K)

>  <Tmin_value>  (1) 
10.0

>  <Tmin_units>  (1) 
K

>  <Tmax_value>  (1) 
3000.0

>  <Tmax_units>  (1) 
K

>  <polynomials>  (1) 
[{"name": "polynomial1", "class": "NASAPolynomial", "Tmin_value": 10.0, "Tmin_units": "K", "Tmax_value": 595.5373651451594, "Tmax_units": "K", "coeffs": [4.030703313481149, -0.00229058814131209, 6.377490274321222e-05, -8.93766559780865e-08, 4.0934862340445074e-11, -42279622.021195926, 7.585695917242757]}, {"name": "polynomial2", "class": "NASAPolynomial", "Tmin_value": 595.5373651451594, "Tmin_units": "K", "Tmax_value": 3000.0, "Tmax_units": "K", "coeffs": [-0.11565217745608042, 0.027337056045592743, -1.5327895767727505e-05, 4.187529468154553e-09, -4.469900950756201e-13, -42279159.691402115, 25.175708204040994]}]

>  <H298_value>  (1) 
-84015.34890439233

>  <H298_units>  (1) 
kcal/mol

>  <S298_value>  (1) 
63.57157650832207

>  <S298_units>  (1) 
cal/(mol*K)

>  <Cp_T_value_list>  (1) 
[13.913765714474152, 17.18194181639411, 20.300271898294582, 23.081632876583395, 27.63224015948139, 31.06808077557062, 36.31061676624832, 38.93985005203162, 40.26666894785372]

>  <Cp_T_units>  (1) 
cal/(mol*K)

>  <T_list>  (1) 
[300.0, 400.0, 500.0, 600.0, 800.0, 1000.0, 1500.0, 2000.0, 2400.0]

>  <T_units>  (1) 
K

>  <yaml_path>  (1) 
/home/calvin/Dropbox/PersonalFolders/Calvin/ZEUS_Converged/rmg_rxn_16774/output/Species/rmg_rxn_16774_r1_CC=N/rmg_rxn_16774_r1_CC=N.yml

>  <frequencies_cm1>  (1) 
[234.89896684124, 508.23245051851995, 714.5510244579199, 916.92108183832, 1068.95613682312, 1083.47981077492, 1139.4045392209998, 1281.18718512304, 1373.1841874550798, 1414.5234390814799, 1449.02317332916, 1470.9357234852798, 1633.2506554941199, 2948.45001890712, 3002.78847374428, 3084.88328324488, 3091.9562781244804, 3362.8176470865596]

>  <ZPE_kJmol>  (1) 
178.12068223241255

>  <E_elec_kJmol>  (1) 
-351710.8517329944

>  <E0_minus_Eelec_plus_ZPE_kJmol>  (1) 
0.0

>  <rxn>  (1) 
rmg_rxn_16774

>  <species_type>  (1) 
r0

>  <species_folder>  (1) 
rmg_rxn_16774_r1_CC=N

>  <frequencies_cm1_list>  (1) 
[234.89896684124, 508.23245051851995, 714.5510244579199, 916.92108183832, 1068.95613682312, 1083.47981077492, 1139.4045392209998, 1281.18718512304, 1373.1841874550798, 1414.5234390814799, 1449.02317332916, 1470.9357234852798, 1633.2506554941199, 2948.45001890712, 3002.78847374428, 3084.88328324488, 3091.9562781244804, 3362.8176470865596]

>  <E0_kJmol>  (1) 
-351533

>  <H298_kJmol>  (1) 
-351520

$$$$

     RDKit          3D

 10  9  0  0  0  0  0  0  0  0999 V2000
    1.6293   -0.3965   -0.1190 H   0  0  0  0  0  0  0  0  0  1  0  0
   -0.4932    1.0406    0.5329 C   0  0  0  0  0  0  0  0  0  2  0  0
   -0.3583   -0.0970   -0.4650 C   0  0  0  0  0  0  0  0  0  3  0  0
    0.7753   -0.9530   -0.1377 N   0  0  0  0  0  0  0  0  0  4  0  0
    0.4022    1.6712    0.5387 H   0  0  0  0  0  0  0  0  0  5  0  0
   -1.3484    1.6720    0.2715 H   0  0  0  0  0  0  0  0  0  6  0  0
   -0.6520    0.6611    1.5478 H   0  0  0  0  0  0  0  0  0  7  0  0
   -0.2253    0.3068   -1.4739 H   0  0  0  0  0  0  0  0  0  8  0  0
   -1.2736   -0.6977   -0.4704 H   0  0  0  0  0  0  0  0  0  9  0  0
    0.6630   -1.3224    0.8059 H   0  0  0  0  0  0  0  0  0 10  0  0
  1  4  1  0
  2  7  1  0
  2  5  1  0
  2  6  1  0
  2  3  1  0
  3  4  1  0
  3  8  1  0
  3  9  1  0
  4 10  1  0
M  END
>  <rmg_smiles>  (2) 
CCN

>  <rmg_adjacency_list>  (2) 
1  N u0 p1 c0 {2,S} {9,S} {10,S}
2  C u0 p0 c0 {1,S} {3,S} {4,S} {5,S}
3  C u0 p0 c0 {2,S} {6,S} {7,S} {8,S}
4  H u0 p0 c0 {2,S}
5  H u0 p0 c0 {2,S}
6  H u0 p0 c0 {3,S}
7  H u0 p0 c0 {3,S}
8  H u0 p0 c0 {3,S}
9  H u0 p0 c0 {1,S}
10 H u0 p0 c0 {1,S}


>  <multiplicity>  (2) 
1

>  <reaction>  (2) 
rmg_rxn_16774

>  <type>  (2) 
r2h

>  <role_mapnums>  (2) 
{"r2h_a": 4, "r2h_h": 1}

>  <role_mapidx>  (2) 
{"r2h_a": 3, "r2h_h": 0}

>  <ordered_mapped_smiles>  (2) 
[H:1][N:4]([C:3]([C:2]([H:5])([H:6])[H:7])([H:8])[H:9])[H:10]

>  <mol_properties>  (2) 
{"0": {"label": "a_hydrogen", "atom_type": "H0"}, "3": {"label": "acceptor", "atom_type": "N3s"}}

>  <level_of_theory>  (2) 
wb97xd/def2tzvp

>  <lot_method>  (2) 
wb97xd

>  <lot_basis>  (2) 
def2tzvp

>  <spin_multiplicity>  (2) 
1.0

>  <optical_isomers>  (2) 
1.0

>  <modes>  (2) 
IdealGasTranslation(mass=(45.0579, 'amu')),         NonlinearRotor(             inertia = ([16.6351, 54.4924, 62.1463

>  <frequency_value>  (2) 
unknown

>  <frequency_units>  (2) 
unknown

>  <frequency_list>  (2) 
unknown

>  <arkane_path>  (2) 
/home/calvin/Dropbox/PersonalFolders/Calvin/ZEUS_Converged/rmg_rxn_16774/output/Species/rmg_rxn_16774_p2_CCN/arkane/output.py

>  <path_exists>  (2) 
True

>  <E0_value>  (2) 
-354685.9232010943

>  <E0_units>  (2) 
kJ/mol

>  <thermo_class>  (2) 
NASA

>  <Cp0_value>  (2) 
33.257888

>  <Cp0_units>  (2) 
J/(mol*K)

>  <CpInf_value>  (2) 
232.805216

>  <CpInf_units>  (2) 
J/(mol*K)

>  <Tmin_value>  (2) 
10.0

>  <Tmin_units>  (2) 
K

>  <Tmax_value>  (2) 
3000.0

>  <Tmax_units>  (2) 
K

>  <polynomials>  (2) 
[{"name": "polynomial1", "class": "NASAPolynomial", "Tmin_value": 10.0, "Tmin_units": "K", "Tmax_value": 528.0929665021883, "Tmax_units": "K", "coeffs": [4.041220699598529, -0.003283165395408491, 8.918282181979645e-05, -1.316574106408274e-07, 6.423920951309475e-11, -42658863.20914765, 7.169352525656008]}, {"name": "polynomial2", "class": "NASAPolynomial", "Tmin_value": 528.0929665021883, "Tmin_units": "K", "Tmax_value": 3000.0, "Tmax_units": "K", "coeffs": [-0.9983202013869823, 0.034888090841029486, -1.9238125978083574e-05, 5.212324795877988e-09, -5.545118248117188e-13, -42658330.93486601, 28.264611280199812]}]

>  <H298_value>  (2) 
-84768.7593052148

>  <H298_units>  (2) 
kcal/mol

>  <S298_value>  (2) 
63.867527313316

>  <S298_units>  (2) 
cal/(mol*K)

>  <Cp_T_value_list>  (2) 
[15.993659030051013, 20.30061705118332, 24.349475192763485, 27.945700249161096, 33.864649903534946, 38.371879737487696, 45.37271891507159, 48.98815112254846, 50.831348552602286]

>  <Cp_T_units>  (2) 
cal/(mol*K)

>  <T_list>  (2) 
[300.0, 400.0, 500.0, 600.0, 800.0, 1000.0, 1500.0, 2000.0, 2400.0]

>  <T_units>  (2) 
K

>  <yaml_path>  (2) 
/home/calvin/Dropbox/PersonalFolders/Calvin/ZEUS_Converged/rmg_rxn_16774/output/Species/rmg_rxn_16774_p2_CCN/rmg_rxn_16774_p2_CCN.yml

>  <frequencies_cm1>  (2) 
[307.78514902771997, 376.54427303688, 437.93512179768, 804.57720200312, 903.9218786275599, 923.56832362808, 1019.5962463429598, 1071.6479950685598, 1150.89300566136, 1269.71931963864, 1368.0614164063597, 1379.58421777332, 1405.5551562535597, 1476.2370361523201, 1486.4894452350798, 1495.43026012172, 1663.47912487276, 2979.84587579016, 3000.27515711716, 3035.0976396748797, 3055.03249805884, 3062.65485176404, 3405.9423148961596, 3477.90145406444]

>  <ZPE_kJmol>  (2) 
242.5894361195207

>  <E_elec_kJmol>  (2) 
-354928.51263721386

>  <E0_minus_Eelec_plus_ZPE_kJmol>  (2) 
0.0

>  <rxn>  (2) 
rmg_rxn_16774

>  <species_type>  (2) 
p1

>  <species_folder>  (2) 
rmg_rxn_16774_p2_CCN

>  <frequencies_cm1_list>  (2) 
[307.78514902771997, 376.54427303688, 437.93512179768, 804.57720200312, 903.9218786275599, 923.56832362808, 1019.5962463429598, 1071.6479950685598, 1150.89300566136, 1269.71931963864, 1368.0614164063597, 1379.58421777332, 1405.5551562535597, 1476.2370361523201, 1486.4894452350798, 1495.43026012172, 1663.47912487276, 2979.84587579016, 3000.27515711716, 3035.0976396748797, 3055.03249805884, 3062.65485176404, 3405.9423148961596, 3477.90145406444]

>  <E0_kJmol>  (2) 
-354686

>  <H298_kJmol>  (2) 
-354672

$$$$

     RDKit          3D

 17 15  0  0  0  0  0  0  0  0999 V2000
    2.5979   -0.5669    0.2399 C   0  0  0  0  0  0  0  0  0  1  0  0
    1.3195    0.1386   -0.0799 C   0  0  0  0  0  3  0  0  0  2  0  0
    1.2940    1.4047   -0.3239 N   0  0  0  0  0  0  0  0  0  3  0  0
    2.5101   -1.0279    1.2270 H   0  0  0  0  0  0  0  0  0  4  0  0
    2.8194   -1.3340   -0.5060 H   0  0  0  0  0  0  0  0  0  5  0  0
    3.4088    0.1653    0.2667 H   0  0  0  0  0  0  0  0  0  6  0  0
    0.2109   -0.5839   -0.1041 H   0  0  0  0  0  0  0  0  0  7  0  0
    0.3321    1.7047   -0.5207 H   0  0  0  0  0  0  0  0  0  8  0  0
   -2.0823    0.7419    0.5441 C   0  0  0  0  0  0  0  0  0  9  0  0
   -1.9474   -0.3958   -0.4538 C   0  0  0  0  0  0  0  0  0 10  0  0
   -0.8138   -1.2517   -0.1264 N   0  0  0  0  0  0  0  0  0 11  0  0
   -1.1869    1.3725    0.5499 H   0  0  0  0  0  0  0  0  0 12  0  0
   -2.9376    1.3733    0.2827 H   0  0  0  0  0  0  0  0  0 13  0  0
   -2.2411    0.3623    1.5591 H   0  0  0  0  0  0  0  0  0 14  0  0
   -1.8144    0.0080   -1.4627 H   0  0  0  0  0  0  0  0  0 15  0  0
   -2.8627   -0.9965   -0.4592 H   0  0  0  0  0  0  0  0  0 16  0  0
   -0.9261   -1.6211    0.8171 H   0  0  0  0  0  0  0  0  0 17  0  0
  1  5  1  0
  1  4  1  0
  1  6  1  0
  1  2  1  0
  2  3  1  0
  3  8  1  0
  7 11  1  0
  9 13  1  0
  9 12  1  0
  9 10  1  0
  9 14  1  0
 10 11  1  0
 10 16  1  0
 10 15  1  0
 11 17  1  0
M  RAD  1   2   2
M  END
>  <rmg_smiles>  (3) 
C[C][NH].CCN

>  <rmg_adjacency_list>  (3) 
multiplicity 2
1  N u0 p1 c0 {3,S} {15,S} {16,S}
2  N u0 p1 c0 {6,S} {17,S}
3  C u0 p0 c0 {1,S} {4,S} {7,S} {8,S}
4  C u0 p0 c0 {3,S} {9,S} {10,S} {11,S}
5  C u0 p0 c0 {6,S} {12,S} {13,S} {14,S}
6  C u1 p1 c0 {2,S} {5,S}
7  H u0 p0 c0 {3,S}
8  H u0 p0 c0 {3,S}
9  H u0 p0 c0 {4,S}
10 H u0 p0 c0 {4,S}
11 H u0 p0 c0 {4,S}
12 H u0 p0 c0 {5,S}
13 H u0 p0 c0 {5,S}
14 H u0 p0 c0 {5,S}
15 H u0 p0 c0 {1,S}
16 H u0 p0 c0 {1,S}
17 H u0 p0 c0 {2,S}


>  <multiplicity>  (3) 
2

>  <reaction>  (3) 
rmg_rxn_16774

>  <type>  (3) 
ts

>  <role_mapnums>  (3) 
{"*2": 7, "*1": 2, "*3": 11, "*0": 10, "*4": 3}

>  <role_mapidx>  (3) 
{"*2": 6, "*1": 1, "*3": 10, "*0": 9, "*4": 2}

>  <ordered_mapped_smiles>  (3) 
[C:1]([CH:2][NH:3][H:8])([H:4])([H:5])[H:6].[H:7][N:11]([C:10]([C:9]([H:12])([H:13])[H:14])([H:15])[H:16])[H:17]

>  <mol_properties>  (3) 
{"1": {"label": "*1", "atom_type": "C2s"}, "2": {"label": "*4", "atom_type": "N3s"}, "6": {"label": "*2", "atom_type": "H0"}, "9": {"label": "*0", "atom_type": "Cs"}, "10": {"label": "*3", "atom_type": "N3s"}}

>  <level_of_theory>  (3) 
wb97xd/def2tzvp

>  <lot_method>  (3) 
wb97xd

>  <lot_basis>  (3) 
def2tzvp

>  <spin_multiplicity>  (3) 
2.0

>  <optical_isomers>  (3) 
2.0

>  <modes>  (3) 
IdealGasTranslation(mass=(87.0922, 'amu')),         NonlinearRotor(             inertia = ([92.0736, 302.628, 361.794

>  <frequency_value>  (3) 
-1751.6

>  <frequency_units>  (3) 
cm^-1

>  <frequency_list>  (3) 
unknown

>  <arkane_path>  (3) 
/home/calvin/Dropbox/PersonalFolders/Calvin/ZEUS_Converged/rmg_rxn_16774/output/rxns/TS0/arkane/output.py

>  <path_exists>  (3) 
True

>  <E0_value>  (3) 
-704449.0

>  <E0_units>  (3) 
kJ/mol

>  <thermo_class>  (3) 
unknown

>  <Cp0_value>  (3) 
unknown

>  <Cp0_units>  (3) 
unknown

>  <CpInf_value>  (3) 
unknown

>  <CpInf_units>  (3) 
unknown

>  <Tmin_value>  (3) 
unknown

>  <Tmin_units>  (3) 
unknown

>  <Tmax_value>  (3) 
unknown

>  <Tmax_units>  (3) 
unknown

>  <polynomials>  (3) 
unknown

>  <H298_value>  (3) 
unknown

>  <H298_units>  (3) 
unknown

>  <S298_value>  (3) 
unknown

>  <S298_units>  (3) 
unknown

>  <Cp_T_value_list>  (3) 
unknown

>  <Cp_T_units>  (3) 
unknown

>  <T_list>  (3) 
unknown

>  <T_units>  (3) 
unknown

>  <yaml_path>  (3) 
unknown

>  <frequencies_cm1>  (3) 
unknown

>  <ZPE_kJmol>  (3) 
unknown

>  <E_elec_kJmol>  (3) 
unknown

>  <E0_minus_Eelec_plus_ZPE_kJmol>  (3) 
unknown

>  <rxn>  (3) 
unknown

>  <species_type>  (3) 
unknown

>  <species_folder>  (3) 
unknown

>  <frequencies_cm1_list>  (3) 
[]

>  <ts_imag_freq_cm1>  (3) 
-1772.878

>  <ts_freq_out_path>  (3) 
/home/calvin/Dropbox/PersonalFolders/Calvin/ZEUS_Converged/rmg_rxn_16774/output/rxns/TS0/geometry/freq.out

>  <E0_kJmol>  (3) 
-704449

>  <H298_kJmol>  (3) 
unknown

$$$$

     RDKit          3D

  7  6  0  0  0  0  0  0  0  0999 V2000
    1.1892   -0.0240   -0.0752 C   0  0  0  0  0  0  0  0  0  1  0  0
   -0.2083    0.3217   -0.4379 C   0  0  0  0  0  3  0  0  0  2  0  0
   -1.3329   -0.0285   -0.1137 N   0  0  0  0  0  0  0  0  0  3  0  0
    1.2204   -0.8071    0.6918 H   0  0  0  0  0  0  0  0  0  4  0  0
    1.7258   -0.3667   -0.9604 H   0  0  0  0  0  0  0  0  0  5  0  0
    1.7037    0.8628    0.2960 H   0  0  0  0  0  0  0  0  0  6  0  0
   -1.4455   -0.7580    0.5994 H   0  0  0  0  0  0  0  0  0  7  0  0
  1  5  1  0
  1  4  1  0
  1  6  1  0
  1  2  1  0
  2  3  1  0
  3  7  1  0
M  RAD  1   2   2
M  END
>  <rmg_smiles>  (4) 
C[C][NH]

>  <rmg_adjacency_list>  (4) 
multiplicity 2
1 N u0 p1 c0 {3,S} {7,S}
2 C u0 p0 c0 {3,S} {4,S} {5,S} {6,S}
3 C u1 p1 c0 {1,S} {2,S}
4 H u0 p0 c0 {2,S}
5 H u0 p0 c0 {2,S}
6 H u0 p0 c0 {2,S}
7 H u0 p0 c0 {1,S}


>  <multiplicity>  (4) 
2

>  <reaction>  (4) 
rmg_rxn_16774

>  <type>  (4) 
r1

>  <role_mapnums>  (4) 
{}

>  <role_mapidx>  (4) 
{}

>  <ordered_mapped_smiles>  (4) 
[C:1]([CH:2][NH:3][H:7])([H:4])([H:5])[H:6]

>  <level_of_theory>  (4) 
wb97xd/def2tzvp

>  <lot_method>  (4) 
wb97xd

>  <lot_basis>  (4) 
def2tzvp

>  <spin_multiplicity>  (4) 
2.0

>  <optical_isomers>  (4) 
1.0

>  <modes>  (4) 
IdealGasTranslation(mass=(42.0344, 'amu')),         NonlinearRotor(             inertia = ([6.47627, 53.1492, 56.5104

>  <frequency_value>  (4) 
unknown

>  <frequency_units>  (4) 
unknown

>  <frequency_list>  (4) 
unknown

>  <arkane_path>  (4) 
/home/calvin/Dropbox/PersonalFolders/Calvin/ZEUS_Converged/rmg_rxn_16774/output/Species/rmg_rxn_16774_p1_Csbr-C-sbr=N/arkane/output.py

>  <path_exists>  (4) 
True

>  <E0_value>  (4) 
-349811.7984606463

>  <E0_units>  (4) 
kJ/mol

>  <thermo_class>  (4) 
NASA

>  <Cp0_value>  (4) 
33.257888

>  <Cp0_units>  (4) 
J/(mol*K)

>  <CpInf_value>  (4) 
157.97496800000002

>  <CpInf_units>  (4) 
J/(mol*K)

>  <Tmin_value>  (4) 
10.0

>  <Tmin_units>  (4) 
K

>  <Tmax_value>  (4) 
3000.0

>  <Tmax_units>  (4) 
K

>  <polynomials>  (4) 
[{"name": "polynomial1", "class": "NASAPolynomial", "Tmin_value": 10.0, "Tmin_units": "K", "Tmax_value": 524.3381741623458, "Tmax_units": "K", "coeffs": [3.9475244943692536, 0.004556131692433622, 3.568489245451489e-05, -5.7273774101939616e-08, 2.852601061565114e-11, -42072640.57442131, 7.40497424151584]}, {"name": "polynomial2", "class": "NASAPolynomial", "Tmin_value": 524.3381741623458, "Tmin_units": "K", "Tmax_value": 3000.0, "Tmax_units": "K", "coeffs": [1.764297277474948, 0.0212112023338434, -1.1960980577351223e-05, 3.305153503395757e-09, -3.5744431133451413e-13, -42072411.624034576, 16.52825669017569]}]

>  <H298_value>  (4) 
-83603.8573791565

>  <H298_units>  (4) 
kcal/mol

>  <S298_value>  (4) 
64.36087908752434

>  <S298_units>  (4) 
cal/(mol*K)

>  <Cp_T_value_list>  (4) 
[14.32909647696347, 16.979297037795433, 19.415936245136294, 21.56646466870266, 25.08661604565762, 27.745830698595245, 31.8235734725302, 33.91147759817313, 34.989206689852885]

>  <Cp_T_units>  (4) 
cal/(mol*K)

>  <T_list>  (4) 
[300.0, 400.0, 500.0, 600.0, 800.0, 1000.0, 1500.0, 2000.0, 2400.0]

>  <T_units>  (4) 
K

>  <yaml_path>  (4) 
/home/calvin/Dropbox/PersonalFolders/Calvin/ZEUS_Converged/rmg_rxn_16774/output/Species/rmg_rxn_16774_p1_Csbr-C-sbr=N/rmg_rxn_16774_p1_Csbr-C-sbr=N.yml

>  <frequencies_cm1>  (4) 
[150.215303875, 409.3959308077599, 650.3172437746399, 895.0428666088, 925.44301062044, 1030.68642763476, 1055.79899295, 1371.2339636241998, 1446.0360347149601, 1454.40002283472, 1897.6570582553998, 2978.7540251242795, 3079.9184528585197, 3106.8233013422796, 3285.9898153264]

>  <ZPE_kJmol>  (4) 
141.98309161066487

>  <E_elec_kJmol>  (4) 
-349953.78155225696

>  <E0_minus_Eelec_plus_ZPE_kJmol>  (4) 
0.0

>  <rxn>  (4) 
rmg_rxn_16774

>  <species_type>  (4) 
p0

>  <species_folder>  (4) 
rmg_rxn_16774_p1_Csbr-C-sbr=N

>  <frequencies_cm1_list>  (4) 
[150.215303875, 409.3959308077599, 650.3172437746399, 895.0428666088, 925.44301062044, 1030.68642763476, 1055.79899295, 1371.2339636241998, 1446.0360347149601, 1454.40002283472, 1897.6570582553998, 2978.7540251242795, 3079.9184528585197, 3106.8233013422796, 3285.9898153264]

>  <E0_kJmol>  (4) 
-349812

>  <H298_kJmol>  (4) 
-349799

$$$$

     RDKit          3D

  9  8  0  0  0  0  0  0  0  0999 V2000
   -1.2038   -0.2138    0.0000 C   0  0  0  0  0  0  0  0  0  1  0  0
    0.1306    0.5162    0.0000 C   0  0  0  0  0  0  0  0  0  2  0  0
    1.2313   -0.4354    0.0000 N   0  0  0  0  0  2  0  0  0  3  0  0
   -1.3085   -0.8503    0.8857 H   0  0  0  0  0  0  0  0  0  4  0  0
   -2.0295    0.5051   -0.0000 H   0  0  0  0  0  0  0  0  0  5  0  0
   -1.3085   -0.8503   -0.8857 H   0  0  0  0  0  0  0  0  0  6  0  0
    0.1770    1.1695    0.8790 H   0  0  0  0  0  0  0  0  0  7  0  0
    0.1770    1.1695   -0.8790 H   0  0  0  0  0  0  0  0  0  8  0  0
    2.1131    0.0897   -0.0000 H   0  0  0  0  0  0  0  0  0  9  0  0
  1  5  1  0
  1  4  1  0
  1  6  1  0
  1  2  1  0
  2  3  1  0
  2  8  1  0
  2  7  1  0
  3  9  1  0
M  RAD  1   3   2
M  END
>  <rmg_smiles>  (5) 
CC[NH]

>  <rmg_adjacency_list>  (5) 
multiplicity 2
1 N u1 p1 c0 {2,S} {9,S}
2 C u0 p0 c0 {1,S} {3,S} {4,S} {5,S}
3 C u0 p0 c0 {2,S} {6,S} {7,S} {8,S}
4 H u0 p0 c0 {2,S}
5 H u0 p0 c0 {2,S}
6 H u0 p0 c0 {3,S}
7 H u0 p0 c0 {3,S}
8 H u0 p0 c0 {3,S}
9 H u0 p0 c0 {1,S}


>  <multiplicity>  (5) 
2

>  <reaction>  (5) 
rmg_rxn_16774

>  <type>  (5) 
r2

>  <role_mapnums>  (5) 
{}

>  <role_mapidx>  (5) 
{}

>  <ordered_mapped_smiles>  (5) 
[C:1]([C:2]([N:3][H:9])([H:7])[H:8])([H:4])([H:5])[H:6]

>  <level_of_theory>  (5) 
wb97xd/def2tzvp

>  <lot_method>  (5) 
wb97xd

>  <lot_basis>  (5) 
def2tzvp

>  <spin_multiplicity>  (5) 
2.0

>  <optical_isomers>  (5) 
1.0

>  <modes>  (5) 
IdealGasTranslation(mass=(44.05, 'amu')),         NonlinearRotor(             inertia = ([13.9098, 54.0954, 61.7281

>  <frequency_value>  (5) 
unknown

>  <frequency_units>  (5) 
unknown

>  <frequency_list>  (5) 
unknown

>  <arkane_path>  (5) 
/home/calvin/Dropbox/PersonalFolders/Calvin/ZEUS_Converged/rmg_rxn_16774/output/Species/rmg_rxn_16774_r2_CCsbr-NH-sbr/arkane/output.py

>  <path_exists>  (5) 
True

>  <E0_value>  (5) 
-352968.2572823929

>  <E0_units>  (5) 
kJ/mol

>  <thermo_class>  (5) 
NASA

>  <Cp0_value>  (5) 
33.257888

>  <Cp0_units>  (5) 
J/(mol*K)

>  <CpInf_value>  (5) 
207.8618

>  <CpInf_units>  (5) 
J/(mol*K)

>  <Tmin_value>  (5) 
10.0

>  <Tmin_units>  (5) 
K

>  <Tmax_value>  (5) 
3000.0

>  <Tmax_units>  (5) 
K

>  <polynomials>  (5) 
[{"name": "polynomial1", "class": "NASAPolynomial", "Tmin_value": 10.0, "Tmin_units": "K", "Tmax_value": 478.37407649544554, "Tmax_units": "K", "coeffs": [3.98908732160704, 0.0003705380734242499, 7.614498410962815e-05, -1.2481683946357936e-07, 6.711794709909803e-11, -42452274.34478444, 7.783303853046535]}, {"name": "polynomial2", "class": "NASAPolynomial", "Tmin_value": 478.37407649544554, "Tmin_units": "K", "Tmax_value": 3000.0, "Tmax_units": "K", "coeffs": [0.44884561634771525, 0.029972781620866504, -1.667630776767189e-05, 4.539605533105455e-09, -4.840930297845202e-13, -42451935.63231324, 22.252488209197235]}]

>  <H298_value>  (5) 
-84358.13211386444

>  <H298_units>  (5) 
kcal/mol

>  <S298_value>  (5) 
65.64181999987596

>  <S298_units>  (5) 
cal/(mol*K)

>  <Cp_T_value_list>  (5) 
[16.149824576930992, 19.972303140523948, 23.45570252153153, 26.522967219666885, 31.55729126441082, 35.3739290188997, 41.24799480353421, 44.236277036350025, 45.750363796965004]

>  <Cp_T_units>  (5) 
cal/(mol*K)

>  <T_list>  (5) 
[300.0, 400.0, 500.0, 600.0, 800.0, 1000.0, 1500.0, 2000.0, 2400.0]

>  <T_units>  (5) 
K

>  <yaml_path>  (5) 
/home/calvin/Dropbox/PersonalFolders/Calvin/ZEUS_Converged/rmg_rxn_16774/output/Species/rmg_rxn_16774_r2_CCsbr-NH-sbr/rmg_rxn_16774_r2_CCsbr-NH-sbr.yml

>  <frequencies_cm1>  (5) 
[259.35916855107996, 305.50530990147996, 431.80290390691994, 729.02662951248, 890.05056828116, 1013.9584513952399, 1025.68039533648, 1042.6624500328398, 1232.85734244088, 1256.1707576022798, 1368.67944508516, 1411.8453148066799, 1420.1955689558, 1479.9383412398001, 1490.84311392796, 2974.0020712828396, 2985.53860662044, 3009.9438724477195, 3059.3037629278797, 3059.7157820470798, 3367.9129501939997]

>  <ZPE_kJmol>  (5) 
202.25863092327987

>  <E_elec_kJmol>  (5) 
-353170.51591331617

>  <E0_minus_Eelec_plus_ZPE_kJmol>  (5) 
0.0

>  <rxn>  (5) 
rmg_rxn_16774

>  <species_type>  (5) 
r1

>  <species_folder>  (5) 
rmg_rxn_16774_r2_CCsbr-NH-sbr

>  <frequencies_cm1_list>  (5) 
[259.35916855107996, 305.50530990147996, 431.80290390691994, 729.02662951248, 890.05056828116, 1013.9584513952399, 1025.68039533648, 1042.6624500328398, 1232.85734244088, 1256.1707576022798, 1368.67944508516, 1411.8453148066799, 1420.1955689558, 1479.9383412398001, 1490.84311392796, 2974.0020712828396, 2985.53860662044, 3009.9438724477195, 3059.3037629278797, 3059.7157820470798, 3367.9129501939997]

>  <E0_kJmol>  (5) 
-352968

>  <H298_kJmol>  (5) 
-352954

$$$$
