
     RDKit          3D

  4  4  0  0  0  0  0  0  0  0999 V2000
   -0.6631   -0.4543    0.1619 O   0  0  0  0  0  0  0  0  0  1  0  0
    0.7363   -0.3207   -0.1477 O   0  0  0  0  0  0  0  0  0  2  0  0
   -0.0603    0.7994    0.0647 N   0  0  0  0  0  0  0  0  0  3  0  0
   -0.2756    1.1192   -0.9012 H   0  0  0  0  0  0  0  0  0  4  0  0
  1  3  1  0
  1  2  1  0
  2  3  1  0
  3  4  1  0
M  END
>  <rmg_smiles>  (1) 
O1ON1

>  <rmg_adjacency_list>  (1) 
1 O u0 p2 c0 {2,S} {3,S}
2 O u0 p2 c0 {1,S} {3,S}
3 N u0 p1 c0 {1,S} {2,S} {4,S}
4 H u0 p0 c0 {3,S}


>  <multiplicity>  (1) 
1

>  <reaction>  (1) 
rmg_rxn_10701

>  <type>  (1) 
r1h

>  <role_mapnums>  (1) 
{"r1h_a": 3, "r1h_h": 4}

>  <role_mapidx>  (1) 
{"r1h_a": 2, "r1h_h": 3}

>  <ordered_mapped_smiles>  (1) 
[o:1]1[o:2][n:3]1[H:4]

>  <mol_properties>  (1) 
{"2": {"label": "donator", "atom_type": "N3s"}, "3": {"label": "d_hydrogen", "atom_type": "H0"}}

>  <level_of_theory>  (1) 
wb97xd/def2tzvp

>  <lot_method>  (1) 
wb97xd

>  <lot_basis>  (1) 
def2tzvp

>  <spin_multiplicity>  (1) 
1.0

>  <optical_isomers>  (1) 
1.0

>  <modes>  (1) 
IdealGasTranslation(mass=(47.0007, 'amu')),         NonlinearRotor(             inertia = ([16.5167, 17.2103, 31.9585

>  <frequency_value>  (1) 
unknown

>  <frequency_units>  (1) 
unknown

>  <frequency_list>  (1) 
unknown

>  <arkane_path>  (1) 
/home/calvin/Dropbox/PersonalFolders/Calvin/ZEUS_Converged/rmg_rxn_10701/output/Species/rmg_rxn_10701_r1_O1ON1/arkane/output.py

>  <path_exists>  (1) 
True

>  <E0_value>  (1) 
-539726.7155066682

>  <E0_units>  (1) 
kJ/mol

>  <thermo_class>  (1) 
NASA

>  <Cp0_value>  (1) 
33.257888

>  <Cp0_units>  (1) 
J/(mol*K)

>  <CpInf_value>  (1) 
83.14472

>  <CpInf_units>  (1) 
J/(mol*K)

>  <Tmin_value>  (1) 
10.0

>  <Tmin_units>  (1) 
K

>  <Tmax_value>  (1) 
3000.0

>  <Tmax_units>  (1) 
K

>  <polynomials>  (1) 
[{"name": "polynomial1", "class": "NASAPolynomial", "Tmin_value": 10.0, "Tmin_units": "K", "Tmax_value": 759.8712057762272, "Tmax_units": "K", "coeffs": [4.073551117790592, -0.005066850530637747, 3.8188306210048434e-05, -4.9290995993968364e-08, 2.053468873891786e-11, -64914131.66172466, 6.444570671167424]}, {"name": "polynomial2", "class": "NASAPolynomial", "Tmin_value": 759.8712057762272, "Tmin_units": "K", "Tmax_value": 3000.0, "Tmax_units": "K", "coeffs": [2.3231605910603736, 0.010953287132375235, -6.870906354093344e-06, 2.028554585519069e-09, -2.276379010399841e-13, -64914062.13795873, 13.115605025969666]}]

>  <H298_value>  (1) 
-128995.32372587378

>  <H298_units>  (1) 
kcal/mol

>  <S298_value>  (1) 
58.51005077764586

>  <S298_units>  (1) 
cal/(mol*K)

>  <Cp_T_value_list>  (1) 
[9.590094836644568, 10.985285858206502, 12.339053921690585, 13.504402704166482, 15.169916506570887, 16.307926794376698, 17.860032029820704, 18.545286134781605, 18.92792029612517]

>  <Cp_T_units>  (1) 
cal/(mol*K)

>  <T_list>  (1) 
[300.0, 400.0, 500.0, 600.0, 800.0, 1000.0, 1500.0, 2000.0, 2400.0]

>  <T_units>  (1) 
K

>  <yaml_path>  (1) 
/home/calvin/Dropbox/PersonalFolders/Calvin/ZEUS_Converged/rmg_rxn_10701/output/Species/rmg_rxn_10701_r1_O1ON1/rmg_rxn_10701_r1_O1ON1.yml

>  <frequencies_cm1>  (1) 
[846.34220671936, 897.3089717644, 1252.05056641028, 1263.63517064512, 1439.3475910132797, 3309.70838262168]

>  <ZPE_kJmol>  (1) 
53.88217063980384

>  <E_elec_kJmol>  (1) 
-539780.597677308

>  <E0_minus_Eelec_plus_ZPE_kJmol>  (1) 
0.0

>  <rxn>  (1) 
rmg_rxn_10701

>  <species_type>  (1) 
r0

>  <species_folder>  (1) 
rmg_rxn_10701_r1_O1ON1

>  <frequencies_cm1_list>  (1) 
[846.34220671936, 897.3089717644, 1252.05056641028, 1263.63517064512, 1439.3475910132797, 3309.70838262168]

>  <E0_kJmol>  (1) 
-539727

>  <H298_kJmol>  (1) 
-539716

$$$$

     RDKit          3D

 17 16  0  0  0  0  0  0  0  0999 V2000
    2.2359   -0.0376    0.6134 H   0  0  0  0  0  0  0  0  0  1  0  0
   -1.5838   -1.9585    1.2328 C   0  0  0  0  0  0  0  0  0  2  0  0
   -1.5442   -1.5208   -0.1945 C   0  0  0  0  0  0  0  0  0  3  0  0
   -0.9327   -0.4427   -0.6602 C   0  0  0  0  0  0  0  0  0  4  0  0
   -0.2942    0.4406    0.1713 O   0  0  0  0  0  0  0  0  0  5  0  0
    0.9033    0.9331   -0.4518 N   0  0  0  0  0  0  0  0  0  6  0  0
    1.9520    0.1082   -0.3553 N   0  0  0  0  0  0  0  0  0  7  0  0
    1.1425    2.2577    0.0842 C   0  0  0  0  0  0  0  0  0  8  0  0
   -2.5977   -1.8805    1.6334 H   0  0  0  0  0  0  0  0  0  9  0  0
   -0.9260   -1.3544    1.8549 H   0  0  0  0  0  0  0  0  0 10  0  0
   -1.2827   -3.0042    1.3218 H   0  0  0  0  0  0  0  0  0 11  0  0
   -2.0878   -2.1121   -0.9222 H   0  0  0  0  0  0  0  0  0 12  0  0
   -0.9242   -0.1613   -1.7075 H   0  0  0  0  0  0  0  0  0 13  0  0
    1.6477   -0.8189   -0.6523 H   0  0  0  0  0  0  0  0  0 14  0  0
    1.2908    2.2227    1.1684 H   0  0  0  0  0  0  0  0  0 15  0  0
    0.2856    2.8852   -0.1460 H   0  0  0  0  0  0  0  0  0 16  0  0
    2.0344    2.6497   -0.3974 H   0  0  0  0  0  0  0  0  0 17  0  0
  1  7  1  0
  2 10  1  0
  2  9  1  0
  2 11  1  0
  2  3  1  0
  3  4  1  0
  3 12  1  0
  4 13  1  0
  4  5  1  0
  5  6  1  0
  6  8  1  0
  6  7  1  0
  7 14  1  0
  8 17  1  0
  8 16  1  0
  8 15  1  0
M  END
>  <rmg_smiles>  (2) 
C[CH][CH]ON(N)C

>  <rmg_adjacency_list>  (2) 
1  O u0 p2 c0 {2,S} {7,S}
2  N u0 p1 c0 {1,S} {3,S} {4,S}
3  N u0 p1 c0 {2,S} {16,S} {17,S}
4  C u0 p0 c0 {2,S} {11,S} {12,S} {13,S}
5  C u0 p0 c0 {6,S} {8,S} {9,S} {10,S}
6  C u0 p0 c0 {5,S} {7,S} {14,S}
7  C u0 p0 c0 {1,S} {6,S} {15,S}
8  H u0 p0 c0 {5,S}
9  H u0 p0 c0 {5,S}
10 H u0 p0 c0 {5,S}
11 H u0 p0 c0 {4,S}
12 H u0 p0 c0 {4,S}
13 H u0 p0 c0 {4,S}
14 H u0 p0 c0 {6,S}
15 H u0 p0 c0 {7,S}
16 H u0 p0 c0 {3,S}
17 H u0 p0 c0 {3,S}


>  <multiplicity>  (2) 
1

>  <reaction>  (2) 
rmg_rxn_10701

>  <type>  (2) 
r2h

>  <role_mapnums>  (2) 
{"r2h_a": 7, "r2h_h": 1}

>  <role_mapidx>  (2) 
{"r2h_a": 6, "r2h_h": 0}

>  <ordered_mapped_smiles>  (2) 
[H:1][N:7]([N:6]([O:5][CH:4]([CH:3]([C:2]([H:9])([H:10])[H:11])[H:12])[H:13])[C:8]([H:15])([H:16])[H:17])[H:14]

>  <mol_properties>  (2) 
{"0": {"label": "a_hydrogen", "atom_type": "H0"}, "6": {"label": "acceptor", "atom_type": "N3s"}}

>  <level_of_theory>  (2) 
wb97xd/def2tzvp

>  <lot_method>  (2) 
wb97xd

>  <lot_basis>  (2) 
def2tzvp

>  <spin_multiplicity>  (2) 
1.0

>  <optical_isomers>  (2) 
2.0

>  <modes>  (2) 
IdealGasTranslation(mass=(102.079, 'amu')),         NonlinearRotor(             inertia = ([85.6795, 376.18, 388.876

>  <frequency_value>  (2) 
unknown

>  <frequency_units>  (2) 
unknown

>  <frequency_list>  (2) 
unknown

>  <arkane_path>  (2) 
/home/calvin/Dropbox/PersonalFolders/Calvin/ZEUS_Converged/rmg_rxn_10701/output/Species/rmg_rxn_10701_p2_CC=CONrbr-N-rbrC/arkane/output.py

>  <path_exists>  (2) 
True

>  <E0_value>  (2) 
-900405.0494296006

>  <E0_units>  (2) 
kJ/mol

>  <thermo_class>  (2) 
NASA

>  <Cp0_value>  (2) 
33.257888

>  <Cp0_units>  (2) 
J/(mol*K)

>  <CpInf_value>  (2) 
407.409128

>  <CpInf_units>  (2) 
J/(mol*K)

>  <Tmin_value>  (2) 
10.0

>  <Tmin_units>  (2) 
K

>  <Tmax_value>  (2) 
3000.0

>  <Tmax_units>  (2) 
K

>  <polynomials>  (2) 
[{"name": "polynomial1", "class": "NASAPolynomial", "Tmin_value": 10.0, "Tmin_units": "K", "Tmax_value": 1108.736796573486, "Tmax_units": "K", "coeffs": [3.593482067657345, 0.04527343613148581, -7.853115807860651e-07, -2.043658609457127e-08, 8.18045447415304e-12, -108293714.18687978, 12.85162704751556]}, {"name": "polynomial2", "class": "NASAPolynomial", "Tmin_value": 1108.736796573486, "Tmin_units": "K", "Tmax_value": 3000.0, "Tmax_units": "K", "coeffs": [7.506038002578287, 0.046589931565087575, -2.3444009976697085e-05, 5.741145862751885e-09, -5.527118171710488e-13, -108295530.30298632, -10.705520626468415]}]

>  <H298_value>  (2) 
-215195.9362782153

>  <H298_units>  (2) 
kcal/mol

>  <S298_value>  (2) 
92.63660749241524

>  <S298_units>  (2) 
cal/(mol*K)

>  <Cp_T_value_list>  (2) 
[33.0259983327988, 40.69537554931736, 47.67423133324528, 53.89446290908325, 63.981717362233816, 71.19261681574156, 81.91300293988421, 87.42841994031997, 90.0449470406118]

>  <Cp_T_units>  (2) 
cal/(mol*K)

>  <T_list>  (2) 
[300.0, 400.0, 500.0, 600.0, 800.0, 1000.0, 1500.0, 2000.0, 2400.0]

>  <T_units>  (2) 
K

>  <yaml_path>  (2) 
/home/calvin/Dropbox/PersonalFolders/Calvin/ZEUS_Converged/rmg_rxn_10701/output/Species/rmg_rxn_10701_p2_CC=CONrbr-N-rbrC/rmg_rxn_10701_p2_CC=CONrbr-N-rbrC.yml

>  <frequencies_cm1>  (2) 
[42.90492427935999, 70.94969232623998, 121.85465450339998, 166.71666959895998, 253.87244728039994, 301.92074356444, 373.40606074563993, 419.64833989052, 445.81842094504, 504.72342102, 549.00174236336, 631.06908392268, 758.13578028396, 848.92419319968, 869.8822323963199, 938.1057315505199, 966.4663809221199, 985.6939398181199, 1045.86246519196, 1060.8324931895597, 1129.8319616849199, 1145.91444130436, 1177.50257377636, 1255.0720399510801, 1275.68672988172, 1357.8776771768, 1378.40309629828, 1417.9431977708398, 1431.4368239246398, 1469.8713407606797, 1474.3760831306, 1478.2284618951198, 1482.71260330908, 1665.8688357641197, 1738.5215404497199, 2975.03898606616, 3009.26404090104, 3062.7647235291597, 3097.66960991072, 3105.09968802696, 3145.0998775159596, 3146.5076095065597, 3168.9763854735997, 3405.2006804816, 3560.0443324622797]

>  <ZPE_kJmol>  (2) 
382.271003727177

>  <E_elec_kJmol>  (2) 
-900787.3204333278

>  <E0_minus_Eelec_plus_ZPE_kJmol>  (2) 
0.0

>  <rxn>  (2) 
rmg_rxn_10701

>  <species_type>  (2) 
p1

>  <species_folder>  (2) 
rmg_rxn_10701_p2_CC=CONrbr-N-rbrC

>  <frequencies_cm1_list>  (2) 
[42.90492427935999, 70.94969232623998, 121.85465450339998, 166.71666959895998, 253.87244728039994, 301.92074356444, 373.40606074563993, 419.64833989052, 445.81842094504, 504.72342102, 549.00174236336, 631.06908392268, 758.13578028396, 848.92419319968, 869.8822323963199, 938.1057315505199, 966.4663809221199, 985.6939398181199, 1045.86246519196, 1060.8324931895597, 1129.8319616849199, 1145.91444130436, 1177.50257377636, 1255.0720399510801, 1275.68672988172, 1357.8776771768, 1378.40309629828, 1417.9431977708398, 1431.4368239246398, 1469.8713407606797, 1474.3760831306, 1478.2284618951198, 1482.71260330908, 1665.8688357641197, 1738.5215404497199, 2975.03898606616, 3009.26404090104, 3062.7647235291597, 3097.66960991072, 3105.09968802696, 3145.0998775159596, 3146.5076095065597, 3168.9763854735997, 3405.2006804816, 3560.0443324622797]

>  <E0_kJmol>  (2) 
-900405

>  <H298_kJmol>  (2) 
-900380

$$$$

     RDKit          3D

 20 19  0  0  0  0  0  0  0  0999 V2000
    0.9034   -1.2940    1.7037 O   0  0  0  0  0  0  0  0  0  1  0  0
    2.3028   -1.1604    1.3941 O   0  0  0  0  0  0  0  0  0  2  0  0
    1.5062   -0.0403    1.6065 N   0  0  0  0  0  2  0  0  0  3  0  0
    1.2415    0.3528    0.4190 H   0  0  0  0  0  0  0  0  0  4  0  0
   -2.6437   -1.5344    0.8144 C   0  0  0  0  0  0  0  0  0  5  0  0
   -2.6042   -1.0966   -0.6129 C   0  0  0  0  0  0  0  0  0  6  0  0
   -1.9927   -0.0186   -1.0786 C   0  0  0  0  0  0  0  0  0  7  0  0
   -1.3541    0.8647   -0.2471 O   0  0  0  0  0  0  0  0  0  8  0  0
   -0.1566    1.3572   -0.8702 N   0  0  0  0  0  0  0  0  0  9  0  0
    0.8921    0.5323   -0.7737 N   0  0  0  0  0  0  0  0  0 10  0  0
    0.0825    2.6818   -0.3342 C   0  0  0  0  0  0  0  0  0 11  0  0
   -3.6577   -1.4564    1.2150 H   0  0  0  0  0  0  0  0  0 12  0  0
   -1.9860   -0.9303    1.4365 H   0  0  0  0  0  0  0  0  0 13  0  0
   -2.3426   -2.5801    0.9034 H   0  0  0  0  0  0  0  0  0 14  0  0
   -3.1478   -1.6880   -1.3406 H   0  0  0  0  0  0  0  0  0 15  0  0
   -1.9841    0.2628   -2.1259 H   0  0  0  0  0  0  0  0  0 16  0  0
    0.5877   -0.3947   -1.0707 H   0  0  0  0  0  0  0  0  0 17  0  0
    0.2309    2.6468    0.7500 H   0  0  0  0  0  0  0  0  0 18  0  0
   -0.7744    3.3093   -0.5644 H   0  0  0  0  0  0  0  0  0 19  0  0
    0.9745    3.0738   -0.8158 H   0  0  0  0  0  0  0  0  0 20  0  0
  1  2  1  0
  1  3  1  0
  2  3  1  0
  4 10  1  0
  5 12  1  0
  5 14  1  0
  5 13  1  0
  5  6  1  0
  6  7  1  0
  6 15  1  0
  7 16  1  0
  7  8  1  0
  8  9  1  0
  9 11  1  0
  9 10  1  0
 10 17  1  0
 11 19  1  0
 11 20  1  0
 11 18  1  0
M  RAD  1   3   2
M  END
>  <rmg_smiles>  (3) 
O1O[N]1.C[CH][CH]ON(N)C

>  <rmg_adjacency_list>  (3) 
multiplicity 2
1  O u0 p2 c0 {4,S} {10,S}
2  O u0 p2 c0 {3,S} {6,S}
3  O u0 p2 c0 {2,S} {6,S}
4  N u0 p1 c0 {1,S} {5,S} {7,S}
5  N u0 p1 c0 {4,S} {19,S} {20,S}
6  N u1 p1 c0 {2,S} {3,S}
7  C u0 p0 c0 {4,S} {14,S} {15,S} {16,S}
8  C u0 p0 c0 {9,S} {11,S} {12,S} {13,S}
9  C u0 p0 c0 {8,S} {10,S} {17,S}
10 C u0 p0 c0 {1,S} {9,S} {18,S}
11 H u0 p0 c0 {8,S}
12 H u0 p0 c0 {8,S}
13 H u0 p0 c0 {8,S}
14 H u0 p0 c0 {7,S}
15 H u0 p0 c0 {7,S}
16 H u0 p0 c0 {7,S}
17 H u0 p0 c0 {9,S}
18 H u0 p0 c0 {10,S}
19 H u0 p0 c0 {5,S}
20 H u0 p0 c0 {5,S}


>  <multiplicity>  (3) 
2

>  <reaction>  (3) 
rmg_rxn_10701

>  <type>  (3) 
ts

>  <role_mapnums>  (3) 
{"*2": 4, "*1": 3, "*3": 10, "*0": 9, "*4": 1}

>  <role_mapidx>  (3) 
{"*2": 3, "*1": 2, "*3": 9, "*0": 8, "*4": 0}

>  <ordered_mapped_smiles>  (3) 
[O:1]1[O:2][N:3]1.[H:4][N:10]([N:9]([O:8][CH:7]([CH:6]([C:5]([H:12])([H:13])[H:14])[H:15])[H:16])[C:11]([H:18])([H:19])[H:20])[H:17]

>  <mol_properties>  (3) 
{"0": {"label": "*4", "atom_type": "O2s"}, "2": {"label": "*1", "atom_type": "N3s"}, "3": {"label": "*2", "atom_type": "H0"}, "8": {"label": "*0", "atom_type": "N3s"}, "9": {"label": "*3", "atom_type": "N3s"}}

>  <level_of_theory>  (3) 
wb97xd/def2tzvp

>  <lot_method>  (3) 
wb97xd

>  <lot_basis>  (3) 
def2tzvp

>  <spin_multiplicity>  (3) 
2.0

>  <optical_isomers>  (3) 
2.0

>  <modes>  (3) 
IdealGasTranslation(mass=(148.072, 'amu')),         NonlinearRotor(             inertia = ([369.513, 524.279, 794.184

>  <frequency_value>  (3) 
-2035.96

>  <frequency_units>  (3) 
cm^-1

>  <frequency_list>  (3) 
unknown

>  <arkane_path>  (3) 
/home/calvin/Dropbox/PersonalFolders/Calvin/ZEUS_Converged/rmg_rxn_10701/output/rxns/TS0/arkane/output.py

>  <path_exists>  (3) 
True

>  <E0_value>  (3) 
-1438450.0

>  <E0_units>  (3) 
kJ/mol

>  <thermo_class>  (3) 
unknown

>  <Cp0_value>  (3) 
unknown

>  <Cp0_units>  (3) 
unknown

>  <CpInf_value>  (3) 
unknown

>  <CpInf_units>  (3) 
unknown

>  <Tmin_value>  (3) 
unknown

>  <Tmin_units>  (3) 
unknown

>  <Tmax_value>  (3) 
unknown

>  <Tmax_units>  (3) 
unknown

>  <polynomials>  (3) 
unknown

>  <H298_value>  (3) 
unknown

>  <H298_units>  (3) 
unknown

>  <S298_value>  (3) 
unknown

>  <S298_units>  (3) 
unknown

>  <Cp_T_value_list>  (3) 
unknown

>  <Cp_T_units>  (3) 
unknown

>  <T_list>  (3) 
unknown

>  <T_units>  (3) 
unknown

>  <yaml_path>  (3) 
unknown

>  <frequencies_cm1>  (3) 
unknown

>  <ZPE_kJmol>  (3) 
unknown

>  <E_elec_kJmol>  (3) 
unknown

>  <E0_minus_Eelec_plus_ZPE_kJmol>  (3) 
unknown

>  <rxn>  (3) 
unknown

>  <species_type>  (3) 
unknown

>  <species_folder>  (3) 
unknown

>  <frequencies_cm1_list>  (3) 
[]

>  <ts_imag_freq_cm1>  (3) 
-2060.687

>  <ts_freq_out_path>  (3) 
/home/calvin/Dropbox/PersonalFolders/Calvin/ZEUS_Converged/rmg_rxn_10701/output/rxns/TS0/geometry/freq.out

>  <E0_kJmol>  (3) 
-1.43845e+06

>  <H298_kJmol>  (3) 
unknown

$$$$

     RDKit          3D

  3  3  0  0  0  0  0  0  0  0999 V2000
   -0.4658   -0.6798    0.0000 O   0  0  0  0  0  0  0  0  0  1  0  0
   -0.2864    0.7727    0.0000 O   0  0  0  0  0  0  0  0  0  2  0  0
    0.7521   -0.0929    0.0000 N   0  0  0  0  0  2  0  0  0  3  0  0
  1  3  1  0
  1  2  1  0
  2  3  1  0
M  RAD  1   3   2
M  END
>  <rmg_smiles>  (4) 
O1O[N]1

>  <rmg_adjacency_list>  (4) 
multiplicity 2
1 O u0 p2 c0 {2,S} {3,S}
2 O u0 p2 c0 {1,S} {3,S}
3 N u1 p1 c0 {1,S} {2,S}


>  <multiplicity>  (4) 
2

>  <reaction>  (4) 
rmg_rxn_10701

>  <type>  (4) 
r1

>  <role_mapnums>  (4) 
{}

>  <role_mapidx>  (4) 
{}

>  <ordered_mapped_smiles>  (4) 
[O:1]1[O:2][N:3]1

>  <level_of_theory>  (4) 
wb97xd/def2tzvp

>  <lot_method>  (4) 
wb97xd

>  <lot_basis>  (4) 
def2tzvp

>  <spin_multiplicity>  (4) 
2.0

>  <optical_isomers>  (4) 
1.0

>  <modes>  (4) 
IdealGasTranslation(mass=(45.9929, 'amu')),         NonlinearRotor(             inertia = ([12.5866, 17.1302, 29.7168

>  <frequency_value>  (4) 
unknown

>  <frequency_units>  (4) 
unknown

>  <frequency_list>  (4) 
unknown

>  <arkane_path>  (4) 
/home/calvin/Dropbox/PersonalFolders/Calvin/ZEUS_Converged/rmg_rxn_10701/output/Species/rmg_rxn_10701_p1_O1Osbr-N-sbr1/arkane/output.py

>  <path_exists>  (4) 
True

>  <E0_value>  (4) 
-538124.6201474321

>  <E0_units>  (4) 
kJ/mol

>  <thermo_class>  (4) 
NASA

>  <Cp0_value>  (4) 
33.257888

>  <Cp0_units>  (4) 
J/(mol*K)

>  <CpInf_value>  (4) 
58.201304

>  <CpInf_units>  (4) 
J/(mol*K)

>  <Tmin_value>  (4) 
10.0

>  <Tmin_units>  (4) 
K

>  <Tmax_value>  (4) 
3000.0

>  <Tmax_units>  (4) 
K

>  <polynomials>  (4) 
[{"name": "polynomial1", "class": "NASAPolynomial", "Tmin_value": 10.0, "Tmin_units": "K", "Tmax_value": 653.8476932451143, "Tmax_units": "K", "coeffs": [4.043718610962325, -0.0035224051649329216, 3.2864799356287016e-05, -5.188574405390698e-08, 2.60451919694984e-11, -64721442.51707979, 6.240864765107789]}, {"name": "polynomial2", "class": "NASAPolynomial", "Tmin_value": 653.8476932451143, "Tmin_units": "K", "Tmax_value": 3000.0, "Tmax_units": "K", "coeffs": [3.506534762877587, 0.006272159635767436, -4.535736698306257e-06, 1.4714741460676549e-09, -1.767581080544161e-13, -64721511.38956478, 7.540372634031045]}]

>  <H298_value>  (4) 
-128612.39033338884

>  <H298_units>  (4) 
kcal/mol

>  <S298_value>  (4) 
58.188483527392016

>  <S298_units>  (4) 
cal/(mol*K)

>  <Cp_T_value_list>  (4) 
[9.448928385753245, 10.411359853863319, 11.209478862389666, 11.783616771831795, 12.52414168812128, 12.991707753982569, 13.474758363199827, 13.61548579876073, 13.733829142577656]

>  <Cp_T_units>  (4) 
cal/(mol*K)

>  <T_list>  (4) 
[300.0, 400.0, 500.0, 600.0, 800.0, 1000.0, 1500.0, 2000.0, 2400.0]

>  <T_units>  (4) 
K

>  <yaml_path>  (4) 
/home/calvin/Dropbox/PersonalFolders/Calvin/ZEUS_Converged/rmg_rxn_10701/output/Species/rmg_rxn_10701_p1_O1Osbr-N-sbr1/rmg_rxn_10701_p1_O1Osbr-N-sbr1.yml

>  <frequencies_cm1>  (4) 
[692.10284944684, 886.1638545900399, 1362.56782815036]

>  <ZPE_kJmol>  (4) 
17.590101812407504

>  <E_elec_kJmol>  (4) 
-538142.2102492445

>  <E0_minus_Eelec_plus_ZPE_kJmol>  (4) 
0.0

>  <rxn>  (4) 
rmg_rxn_10701

>  <species_type>  (4) 
p0

>  <species_folder>  (4) 
rmg_rxn_10701_p1_O1Osbr-N-sbr1

>  <frequencies_cm1_list>  (4) 
[692.10284944684, 886.1638545900399, 1362.56782815036]

>  <E0_kJmol>  (4) 
-538125

>  <H298_kJmol>  (4) 
-538114

$$$$

     RDKit          3D

 16 15  0  0  0  0  0  0  0  0999 V2000
   -2.7163    0.6711   -0.2082 C   0  0  0  0  0  0  0  0  0  1  0  0
   -2.0604   -0.6699   -0.1371 C   0  0  0  0  0  0  0  0  0  2  0  0
   -1.8776   -1.4967   -1.1546 C   0  0  0  0  0  0  0  0  0  3  0  0
   -2.2450   -1.1612   -2.4322 O   0  0  0  0  0  0  0  0  0  4  0  0
   -2.5108   -2.3329   -3.2086 N   0  0  0  0  0  0  0  0  0  5  0  0
   -2.0229   -2.3050   -4.4233 N   0  0  0  0  0  2  0  0  0  6  0  0
   -3.9082   -2.7128   -3.0828 C   0  0  0  0  0  0  0  0  0  7  0  0
   -3.4812    0.7676    0.5653 H   0  0  0  0  0  0  0  0  0  8  0  0
   -3.1809    0.8365   -1.1792 H   0  0  0  0  0  0  0  0  0  9  0  0
   -1.9897    1.4706   -0.0417 H   0  0  0  0  0  0  0  0  0 10  0  0
   -1.6717   -0.9974    0.8197 H   0  0  0  0  0  0  0  0  0 11  0  0
   -1.3990   -2.4648   -1.0638 H   0  0  0  0  0  0  0  0  0 12  0  0
   -1.1779   -1.7364   -4.3793 H   0  0  0  0  0  0  0  0  0 13  0  0
   -4.5563   -1.9305   -3.4853 H   0  0  0  0  0  0  0  0  0 14  0  0
   -4.1357   -2.8800   -2.0315 H   0  0  0  0  0  0  0  0  0 15  0  0
   -4.0457   -3.6333   -3.6440 H   0  0  0  0  0  0  0  0  0 16  0  0
  1 10  1  0
  1  8  1  0
  1  9  1  0
  1  2  1  0
  2 11  1  0
  2  3  1  0
  3  4  1  0
  3 12  1  0
  4  5  1  0
  5  6  1  0
  5  7  1  0
  6 13  1  0
  7 14  1  0
  7 15  1  0
  7 16  1  0
M  RAD  1   6   2
M  END
>  <rmg_smiles>  (5) 
C[CH][CH]ON([NH])C

>  <rmg_adjacency_list>  (5) 
multiplicity 2
1  O u0 p2 c0 {2,S} {7,S}
2  N u0 p1 c0 {1,S} {3,S} {5,S}
3  N u1 p1 c0 {2,S} {16,S}
4  C u0 p0 c0 {6,S} {8,S} {9,S} {10,S}
5  C u0 p0 c0 {2,S} {11,S} {12,S} {13,S}
6  C u0 p0 c0 {4,S} {7,S} {14,S}
7  C u0 p0 c0 {1,S} {6,S} {15,S}
8  H u0 p0 c0 {4,S}
9  H u0 p0 c0 {4,S}
10 H u0 p0 c0 {4,S}
11 H u0 p0 c0 {5,S}
12 H u0 p0 c0 {5,S}
13 H u0 p0 c0 {5,S}
14 H u0 p0 c0 {6,S}
15 H u0 p0 c0 {7,S}
16 H u0 p0 c0 {3,S}


>  <multiplicity>  (5) 
2

>  <reaction>  (5) 
rmg_rxn_10701

>  <type>  (5) 
r2

>  <role_mapnums>  (5) 
{}

>  <role_mapidx>  (5) 
{}

>  <ordered_mapped_smiles>  (5) 
[C:1]([CH:2]([CH:3]([O:4][N:5]([N:6][H:13])[C:7]([H:14])([H:15])[H:16])[H:12])[H:11])([H:8])([H:9])[H:10]

>  <level_of_theory>  (5) 
wb97xd/def2tzvp

>  <lot_method>  (5) 
wb97xd

>  <lot_basis>  (5) 
def2tzvp

>  <spin_multiplicity>  (5) 
2.0

>  <optical_isomers>  (5) 
2.0

>  <modes>  (5) 
IdealGasTranslation(mass=(101.071, 'amu')),         NonlinearRotor(             inertia = ([82.2482, 367.276, 386.349

>  <frequency_value>  (5) 
unknown

>  <frequency_units>  (5) 
unknown

>  <frequency_list>  (5) 
unknown

>  <arkane_path>  (5) 
/home/calvin/Dropbox/PersonalFolders/Calvin/ZEUS_Converged/rmg_rxn_10701/output/Species/rmg_rxn_10701_r2_CC=CONrbr-sbr-NH-sbr-rbrC/arkane/output.py

>  <path_exists>  (5) 
True

>  <E0_value>  (5) 
-898742.9185379538

>  <E0_units>  (5) 
kJ/mol

>  <thermo_class>  (5) 
NASA

>  <Cp0_value>  (5) 
33.257888

>  <Cp0_units>  (5) 
J/(mol*K)

>  <CpInf_value>  (5) 
382.465712

>  <CpInf_units>  (5) 
J/(mol*K)

>  <Tmin_value>  (5) 
10.0

>  <Tmin_units>  (5) 
K

>  <Tmax_value>  (5) 
3000.0

>  <Tmax_units>  (5) 
K

>  <polynomials>  (5) 
[{"name": "polynomial1", "class": "NASAPolynomial", "Tmin_value": 10.0, "Tmin_units": "K", "Tmax_value": 1230.3472949169695, "Tmax_units": "K", "coeffs": [3.6364475231756046, 0.04601226900129711, -1.0447555598908227e-05, -9.397698188465058e-09, 4.2998077544836165e-12, -108093806.2073487, 13.356248752428224]}, {"name": "polynomial2", "class": "NASAPolynomial", "Tmin_value": 1230.3472949169695, "Tmin_units": "K", "Tmax_value": 3000.0, "Tmax_units": "K", "coeffs": [10.637608490990464, 0.03762916917718073, -1.775692675502755e-05, 4.061454965423361e-09, -3.650754676341201e-13, -108096617.25339198, -26.294251832019942]}]

>  <H298_value>  (5) 
-214798.7169570288

>  <H298_units>  (5) 
kcal/mol

>  <S298_value>  (5) 
93.88909312712664

>  <S298_units>  (5) 
cal/(mol*K)

>  <Cp_T_value_list>  (5) 
[32.353587447653005, 39.5024233546788, 45.9535916020781, 51.68732293220983, 61.02593308117714, 67.77024082473554, 77.47619956814351, 82.5061750415756, 84.8555895677637]

>  <Cp_T_units>  (5) 
cal/(mol*K)

>  <T_list>  (5) 
[300.0, 400.0, 500.0, 600.0, 800.0, 1000.0, 1500.0, 2000.0, 2400.0]

>  <T_units>  (5) 
K

>  <yaml_path>  (5) 
/home/calvin/Dropbox/PersonalFolders/Calvin/ZEUS_Converged/rmg_rxn_10701/output/Species/rmg_rxn_10701_r2_CC=CONrbr-sbr-NH-sbr-rbrC/rmg_rxn_10701_r2_CC=CONrbr-sbr-NH-sbr-rbrC.yml

>  <frequencies_cm1>  (5) 
[39.766711988119994, 75.63297631448, 123.26238649399998, 170.50724549560002, 210.75464645612, 275.49658405307997, 409.25172411604, 436.20464149704003, 468.50694044231994, 500.21867865008005, 576.8748357772399, 635.10687129084, 759.24136492048, 839.57822617916, 939.32118795216, 961.2680730348799, 1009.44684204, 1040.7534281138799, 1058.9372052412398, 1116.31086758984, 1136.6302771517198, 1158.60463017572, 1269.5201770643598, 1302.9417946168, 1381.1704913822398, 1418.63676328816, 1428.2093408242401, 1447.1828212633998, 1467.8867820031996, 1473.94346305544, 1477.12974424392, 1484.2920099326798, 1743.06061774624, 3013.6108426086, 3018.1636538757602, 3068.4780553153996, 3106.96064104868, 3110.6619461361597, 3147.0088994349203, 3149.9479691518795, 3171.6476427630796, 3452.55541124832]

>  <ZPE_kJmol>  (5) 
347.36385809522346

>  <E_elec_kJmol>  (5) 
-899090.282396049

>  <E0_minus_Eelec_plus_ZPE_kJmol>  (5) 
0.0

>  <rxn>  (5) 
rmg_rxn_10701

>  <species_type>  (5) 
r1

>  <species_folder>  (5) 
rmg_rxn_10701_r2_CC=CONrbr-sbr-NH-sbr-rbrC

>  <frequencies_cm1_list>  (5) 
[39.766711988119994, 75.63297631448, 123.26238649399998, 170.50724549560002, 210.75464645612, 275.49658405307997, 409.25172411604, 436.20464149704003, 468.50694044231994, 500.21867865008005, 576.8748357772399, 635.10687129084, 759.24136492048, 839.57822617916, 939.32118795216, 961.2680730348799, 1009.44684204, 1040.7534281138799, 1058.9372052412398, 1116.31086758984, 1136.6302771517198, 1158.60463017572, 1269.5201770643598, 1302.9417946168, 1381.1704913822398, 1418.63676328816, 1428.2093408242401, 1447.1828212633998, 1467.8867820031996, 1473.94346305544, 1477.12974424392, 1484.2920099326798, 1743.06061774624, 3013.6108426086, 3018.1636538757602, 3068.4780553153996, 3106.96064104868, 3110.6619461361597, 3147.0088994349203, 3149.9479691518795, 3171.6476427630796, 3452.55541124832]

>  <E0_kJmol>  (5) 
-898743

>  <H298_kJmol>  (5) 
-898718

$$$$
