
     RDKit          3D

 14 13  0  0  0  0  0  0  0  0999 V2000
   -2.4557    1.2622   -0.2393 C   0  0  0  0  0  0  0  0  0  1  0  0
   -1.2515    1.0893    0.4975 O   0  0  0  0  0  0  0  0  0  2  0  0
   -0.3885    0.1375   -0.1278 C   0  0  0  0  0  0  0  0  0  3  0  0
    0.8660    0.0124    0.7164 C   0  0  0  0  0  0  0  0  0  4  0  0
    1.8397   -0.9732    0.1340 C   0  0  0  0  0  0  0  0  0  5  0  0
    1.6528   -1.6065   -0.8999 O   0  0  0  0  0  0  0  0  0  6  0  0
   -3.0071    0.3195   -0.2983 H   0  0  0  0  0  0  0  0  0  7  0  0
   -2.2393    1.6368   -1.2444 H   0  0  0  0  0  0  0  0  0  8  0  0
   -3.0751    1.9972    0.2816 H   0  0  0  0  0  0  0  0  0  9  0  0
   -0.9005   -0.8295   -0.2004 H   0  0  0  0  0  0  0  0  0 10  0  0
   -0.1382    0.4786   -1.1394 H   0  0  0  0  0  0  0  0  0 11  0  0
    0.6123   -0.3105    1.7319 H   0  0  0  0  0  0  0  0  0 12  0  0
    1.3662    0.9830    0.8033 H   0  0  0  0  0  0  0  0  0 13  0  0
    2.7726   -1.1041    0.7090 H   0  0  0  0  0  0  0  0  0 14  0  0
  1  8  1  0
  1  7  1  0
  1  9  1  0
  1  2  1  0
  2  3  1  0
  3 11  1  0
  3  4  1  0
  3 10  1  0
  4  5  1  0
  4 13  1  0
  4 12  1  0
  5  6  1  0
  5 14  1  0
M  END
>  <rmg_smiles>  (1) 
COCC[CH]O

>  <rmg_adjacency_list>  (1) 
1  O u0 p2 c0 {4,S} {5,S}
2  O u0 p2 c0 {6,S}
3  C u0 p0 c0 {4,S} {6,S} {7,S} {8,S}
4  C u0 p0 c0 {1,S} {3,S} {9,S} {10,S}
5  C u0 p0 c0 {1,S} {11,S} {12,S} {13,S}
6  C u0 p0 c0 {2,S} {3,S} {14,S}
7  H u0 p0 c0 {3,S}
8  H u0 p0 c0 {3,S}
9  H u0 p0 c0 {4,S}
10 H u0 p0 c0 {4,S}
11 H u0 p0 c0 {5,S}
12 H u0 p0 c0 {5,S}
13 H u0 p0 c0 {5,S}
14 H u0 p0 c0 {6,S}


>  <multiplicity>  (1) 
1

>  <reaction>  (1) 
rmg_rxn_1345

>  <type>  (1) 
r1h

>  <role_mapnums>  (1) 
{"r1h_a": 1, "r1h_h": 7}

>  <role_mapidx>  (1) 
{"r1h_a": 0, "r1h_h": 6}

>  <ordered_mapped_smiles>  (1) 
[C:1]([O:2][C:3]([C:4]([CH:5]([OH:6])[H:14])([H:12])[H:13])([H:10])[H:11])([H:7])([H:8])[H:9]

>  <mol_properties>  (1) 
{"0": {"label": "donator", "atom_type": "Cs"}, "6": {"label": "d_hydrogen", "atom_type": "H0"}}

>  <level_of_theory>  (1) 
wb97xd/def2tzvp

>  <lot_method>  (1) 
wb97xd

>  <lot_basis>  (1) 
def2tzvp

>  <spin_multiplicity>  (1) 
1.0

>  <optical_isomers>  (1) 
1.0

>  <modes>  (1) 
IdealGasTranslation(mass=(88.0524, 'amu')),         NonlinearRotor(             inertia = ([44.5755, 319.739, 354.742

>  <frequency_value>  (1) 
unknown

>  <frequency_units>  (1) 
unknown

>  <frequency_list>  (1) 
unknown

>  <arkane_path>  (1) 
/home/calvin/Dropbox/PersonalFolders/Calvin/ATLAS_Converged/rmg_rxn_1345/output/Species/rmg_rxn_1345_r2_COCCC=O/arkane/output.py

>  <path_exists>  (1) 
True

>  <E0_value>  (1) 
-807523.0692133828

>  <E0_units>  (1) 
kJ/mol

>  <thermo_class>  (1) 
NASA

>  <Cp0_value>  (1) 
33.257888

>  <Cp0_units>  (1) 
J/(mol*K)

>  <CpInf_value>  (1) 
332.57888

>  <CpInf_units>  (1) 
J/(mol*K)

>  <Tmin_value>  (1) 
10.0

>  <Tmin_units>  (1) 
K

>  <Tmax_value>  (1) 
3000.0

>  <Tmax_units>  (1) 
K

>  <polynomials>  (1) 
[{"name": "polynomial1", "class": "NASAPolynomial", "Tmin_value": 10.0, "Tmin_units": "K", "Tmax_value": 1204.677878169956, "Tmax_units": "K", "coeffs": [3.790465311208139, 0.030699920677143125, 9.705173370391078e-06, -2.2350985107123487e-08, 7.493684368045059e-12, -97122593.77472001, 10.236283451255074]}, {"name": "polynomial2", "class": "NASAPolynomial", "Tmin_value": 1204.677878169956, "Tmin_units": "K", "Tmax_value": 3000.0, "Tmax_units": "K", "coeffs": [7.657827754436762, 0.03474573361246971, -1.635919198395561e-05, 3.709149991149387e-09, -3.292149943200658e-13, -97124750.91916926, -14.227492678605005]}]

>  <H298_value>  (1) 
-192997.60667747093

>  <H298_units>  (1) 
kcal/mol

>  <S298_value>  (1) 
81.92862073686686

>  <S298_units>  (1) 
cal/(mol*K)

>  <Cp_T_value_list>  (1) 
[26.491706935587295, 32.55965635598301, 38.23623996575659, 43.41578980901889, 52.039814351960636, 58.3011782557252, 67.20727720396616, 71.77449485623696, 73.8671854880944]

>  <Cp_T_units>  (1) 
cal/(mol*K)

>  <T_list>  (1) 
[300.0, 400.0, 500.0, 600.0, 800.0, 1000.0, 1500.0, 2000.0, 2400.0]

>  <T_units>  (1) 
K

>  <yaml_path>  (1) 
/home/calvin/Dropbox/PersonalFolders/Calvin/ATLAS_Converged/rmg_rxn_1345/output/Species/rmg_rxn_1345_r2_COCCC=O/rmg_rxn_1345_r2_COCCC=O.yml

>  <frequencies_cm1>  (1) 
[119.45120964139998, 126.72334709527999, 181.116737815, 228.09378438912, 254.05098889872, 316.95257442992, 441.25187570724, 683.77319625368, 694.6779689418399, 886.61707562116, 906.60000290236, 959.42772096912, 1080.58194296988, 1116.1185920008797, 1122.2714108475998, 1168.5411579337601, 1202.02457835408, 1219.26071150728, 1296.5280303279199, 1314.7186744406, 1384.4597773505197, 1408.2744824402798, 1440.37763881128, 1463.0798922791998, 1479.6361938857199, 1483.0628195603997, 1499.1178312385598, 1681.9513153835596, 2935.04566356248, 2975.2106606991597, 2980.62871211664, 3013.01341488576, 3021.32933410828, 3049.1680925955598, 3058.9329457206, 3074.12271724844]

>  <ZPE_kJmol>  (1) 
306.640018612928

>  <E_elec_kJmol>  (1) 
-807829.7092319957

>  <E0_minus_Eelec_plus_ZPE_kJmol>  (1) 
0.0

>  <rxn>  (1) 
rmg_rxn_1345

>  <species_type>  (1) 
r1

>  <species_folder>  (1) 
rmg_rxn_1345_r2_COCCC=O

>  <frequencies_cm1_list>  (1) 
[119.45120964139998, 126.72334709527999, 181.116737815, 228.09378438912, 254.05098889872, 316.95257442992, 441.25187570724, 683.77319625368, 694.6779689418399, 886.61707562116, 906.60000290236, 959.42772096912, 1080.58194296988, 1116.1185920008797, 1122.2714108475998, 1168.5411579337601, 1202.02457835408, 1219.26071150728, 1296.5280303279199, 1314.7186744406, 1384.4597773505197, 1408.2744824402798, 1440.37763881128, 1463.0798922791998, 1479.6361938857199, 1483.0628195603997, 1499.1178312385598, 1681.9513153835596, 2935.04566356248, 2975.2106606991597, 2980.62871211664, 3013.01341488576, 3021.32933410828, 3049.1680925955598, 3058.9329457206, 3074.12271724844]

>  <E0_kJmol>  (1) 
-807523

>  <H298_kJmol>  (1) 
-807502

$$$$

     RDKit          3D

  9  8  0  0  0  0  0  0  0  0999 V2000
    0.6236   -0.5652    0.9685 C   0  0  0  0  0  0  0  0  0  1  0  0
    0.1771   -0.3112   -0.4563 C   0  0  0  0  0  0  0  0  0  2  0  0
   -0.7736    0.7433   -0.4863 O   0  0  0  0  0  0  0  0  0  3  0  0
   -0.2339   -0.8136    1.6025 H   0  0  0  0  0  0  0  0  0  4  0  0
    1.3444   -1.3865    1.0108 H   0  0  0  0  0  0  0  0  0  5  0  0
    1.0856    0.3313    1.3950 H   0  0  0  0  0  0  0  0  0  6  0  0
   -0.2924   -1.2058   -0.8756 H   0  0  0  0  0  0  0  0  0  7  0  0
    1.0256   -0.0372   -1.0906 H   0  0  0  0  0  0  0  0  0  8  0  0
   -0.2897    1.5708   -0.4345 H   0  0  0  0  0  0  0  0  0  9  0  0
  1  5  1  0
  1  4  1  0
  1  6  1  0
  1  2  1  0
  2  8  1  0
  2  7  1  0
  2  3  1  0
  3  9  1  0
M  END
>  <rmg_smiles>  (2) 
CCO

>  <rmg_adjacency_list>  (2) 
1 O u0 p2 c0 {2,S} {9,S}
2 C u0 p0 c0 {1,S} {3,S} {4,S} {5,S}
3 C u0 p0 c0 {2,S} {6,S} {7,S} {8,S}
4 H u0 p0 c0 {2,S}
5 H u0 p0 c0 {2,S}
6 H u0 p0 c0 {3,S}
7 H u0 p0 c0 {3,S}
8 H u0 p0 c0 {3,S}
9 H u0 p0 c0 {1,S}


>  <multiplicity>  (2) 
1

>  <reaction>  (2) 
rmg_rxn_1345

>  <type>  (2) 
r2h

>  <role_mapnums>  (2) 
{"r2h_a": 3, "r2h_h": 9}

>  <role_mapidx>  (2) 
{"r2h_a": 2, "r2h_h": 8}

>  <ordered_mapped_smiles>  (2) 
[C:1]([C:2]([O:3][H:9])([H:7])[H:8])([H:4])([H:5])[H:6]

>  <mol_properties>  (2) 
{"2": {"label": "acceptor", "atom_type": "O2s"}, "8": {"label": "a_hydrogen", "atom_type": "H0"}}

>  <level_of_theory>  (2) 
wb97xd/def2tzvp

>  <lot_method>  (2) 
wb97xd

>  <lot_basis>  (2) 
def2tzvp

>  <spin_multiplicity>  (2) 
1.0

>  <optical_isomers>  (2) 
2.0

>  <modes>  (2) 
IdealGasTranslation(mass=(46.0419, 'amu')),         NonlinearRotor(             inertia = ([15.1748, 52.9695, 60.7286

>  <frequency_value>  (2) 
unknown

>  <frequency_units>  (2) 
unknown

>  <frequency_list>  (2) 
unknown

>  <arkane_path>  (2) 
/home/calvin/Dropbox/PersonalFolders/Calvin/ATLAS_Converged/rmg_rxn_1345/output/Species/rmg_rxn_1345_p1_CCO/arkane/output.py

>  <path_exists>  (2) 
True

>  <E0_value>  (2) 
-406892.66655824624

>  <E0_units>  (2) 
kJ/mol

>  <thermo_class>  (2) 
NASA

>  <Cp0_value>  (2) 
33.257888

>  <Cp0_units>  (2) 
J/(mol*K)

>  <CpInf_value>  (2) 
207.8618

>  <CpInf_units>  (2) 
J/(mol*K)

>  <Tmin_value>  (2) 
10.0

>  <Tmin_units>  (2) 
K

>  <Tmax_value>  (2) 
3000.0

>  <Tmax_units>  (2) 
K

>  <polynomials>  (2) 
[{"name": "polynomial1", "class": "NASAPolynomial", "Tmin_value": 10.0, "Tmin_units": "K", "Tmax_value": 572.6197001810335, "Tmax_units": "K", "coeffs": [4.049824970642936, -0.003974693788225865, 8.462545348965952e-05, -1.2582814469386139e-07, 6.165274134787529e-11, -48937884.19370053, 7.8491448316511425]}, {"name": "polynomial2", "class": "NASAPolynomial", "Tmin_value": 572.6197001810335, "Tmin_units": "K", "Tmax_value": 3000.0, "Tmax_units": "K", "coeffs": [-0.424809658803518, 0.031141145346632045, -1.7469508215061047e-05, 4.802581619866999e-09, -5.169809658960232e-13, -48937435.0005803, 26.389541020723986]}]

>  <H298_value>  (2) 
-97246.58601384833

>  <H298_units>  (2) 
kcal/mol

>  <S298_value>  (2) 
64.5962393131653

>  <S298_units>  (2) 
cal/(mol*K)

>  <Cp_T_value_list>  (2) 
[15.05454973506158, 18.92879557701068, 22.542114805167, 25.716859600124174, 30.91057533104244, 34.84055515099889, 40.8808353968457, 43.97371162073534, 45.5632121146154]

>  <Cp_T_units>  (2) 
cal/(mol*K)

>  <T_list>  (2) 
[300.0, 400.0, 500.0, 600.0, 800.0, 1000.0, 1500.0, 2000.0, 2400.0]

>  <T_units>  (2) 
K

>  <yaml_path>  (2) 
/home/calvin/Dropbox/PersonalFolders/Calvin/ATLAS_Converged/rmg_rxn_1345/output/Species/rmg_rxn_1345_p1_CCO/rmg_rxn_1345_p1_CCO.yml

>  <frequencies_cm1>  (2) 
[300.61601635363996, 438.80722893331995, 519.8857246065601, 815.3652359408399, 905.02059627876, 1069.79390903216, 1082.6077036392799, 1147.3839761628399, 1278.72880437848, 1370.0047732519197, 1403.41265683372, 1418.8427728477598, 1476.07909548996, 1485.5280672902798, 1506.6989830318398, 2989.0339021483196, 2998.4554060073597, 3042.4384469819593, 3067.69521898892, 3075.2214348996404, 3657.3838493732796]

>  <ZPE_kJmol>  (2) 
209.63965791383288

>  <E_elec_kJmol>  (2) 
-407102.30621616007

>  <E0_minus_Eelec_plus_ZPE_kJmol>  (2) 
0.0

>  <rxn>  (2) 
rmg_rxn_1345

>  <species_type>  (2) 
p0

>  <species_folder>  (2) 
rmg_rxn_1345_p1_CCO

>  <frequencies_cm1_list>  (2) 
[300.61601635363996, 438.80722893331995, 519.8857246065601, 815.3652359408399, 905.02059627876, 1069.79390903216, 1082.6077036392799, 1147.3839761628399, 1278.72880437848, 1370.0047732519197, 1403.41265683372, 1418.8427728477598, 1476.07909548996, 1485.5280672902798, 1506.6989830318398, 2989.0339021483196, 2998.4554060073597, 3042.4384469819593, 3067.69521898892, 3075.2214348996404, 3657.3838493732796]

>  <E0_kJmol>  (2) 
-406893

>  <H298_kJmol>  (2) 
-406880

$$$$

     RDKit          3D

 22 20  0  0  0  0  0  0  0  0999 V2000
   -1.2936   -1.6166    1.0219 C   0  0  0  0  0  0  0  0  0  1  0  0
   -1.7400   -1.3627   -0.4030 C   0  0  0  0  0  0  0  0  0  2  0  0
   -2.6907   -0.3081   -0.4330 O   0  0  0  0  0  0  0  0  0  3  0  0
   -2.1511   -1.8651    1.6558 H   0  0  0  0  0  0  0  0  0  4  0  0
   -0.5728   -2.4379    1.0641 H   0  0  0  0  0  0  0  0  0  5  0  0
   -0.8315   -0.7202    1.4483 H   0  0  0  0  0  0  0  0  0  6  0  0
   -2.2095   -2.2573   -0.8223 H   0  0  0  0  0  0  0  0  0  7  0  0
   -0.8915   -1.0887   -1.0373 H   0  0  0  0  0  0  0  0  0  8  0  0
   -1.4406    1.8296   -0.2991 C   0  0  0  0  0  3  0  0  0  9  0  0
   -0.2364    1.6567    0.4377 O   0  0  0  0  0  0  0  0  0 10  0  0
    0.6266    0.7048   -0.1876 C   0  0  0  0  0  0  0  0  0 11  0  0
    1.8811    0.5797    0.6566 C   0  0  0  0  0  0  0  0  0 12  0  0
    2.8548   -0.4059    0.0742 C   0  0  0  0  0  0  0  0  0 13  0  0
    2.6679   -1.0392   -0.9597 O   0  0  0  0  0  0  0  0  0 14  0  0
   -2.1025    0.6977   -0.3700 H   0  0  0  0  0  0  0  0  0 15  0  0
   -1.2242    2.2042   -1.3042 H   0  0  0  0  0  0  0  0  0 16  0  0
   -2.0600    2.5646    0.2218 H   0  0  0  0  0  0  0  0  0 17  0  0
    0.1146   -0.2621   -0.2602 H   0  0  0  0  0  0  0  0  0 18  0  0
    0.8769    1.0459   -1.1992 H   0  0  0  0  0  0  0  0  0 19  0  0
    1.6274    0.2568    1.6721 H   0  0  0  0  0  0  0  0  0 20  0  0
    2.3813    1.5504    0.7435 H   0  0  0  0  0  0  0  0  0 21  0  0
    3.7877   -0.5368    0.6492 H   0  0  0  0  0  0  0  0  0 22  0  0
  1  4  1  0
  1  5  1  0
  1  6  1  0
  1  2  1  0
  2  8  1  0
  2  3  1  0
  2  7  1  0
  3 15  1  0
  9 10  1  0
  9 17  1  0
  9 16  1  0
 10 11  1  0
 11 19  1  0
 11 12  1  0
 11 18  1  0
 12 20  1  0
 12 21  1  0
 12 13  1  0
 13 22  1  0
 13 14  1  0
M  RAD  1   9   2
M  END
>  <rmg_smiles>  (3) 
CCO.[CH2]OCC[CH]O

>  <rmg_adjacency_list>  (3) 
multiplicity 2
1  O u0 p2 c0 {5,S} {9,S}
2  O u0 p2 c0 {6,S} {22,S}
3  O u0 p2 c0 {8,S}
4  C u0 p0 c0 {5,S} {8,S} {10,S} {11,S}
5  C u0 p0 c0 {1,S} {4,S} {14,S} {15,S}
6  C u0 p0 c0 {2,S} {7,S} {12,S} {13,S}
7  C u0 p0 c0 {6,S} {16,S} {17,S} {18,S}
8  C u0 p0 c0 {3,S} {4,S} {19,S}
9  C u1 p0 c0 {1,S} {20,S} {21,S}
10 H u0 p0 c0 {4,S}
11 H u0 p0 c0 {4,S}
12 H u0 p0 c0 {6,S}
13 H u0 p0 c0 {6,S}
14 H u0 p0 c0 {5,S}
15 H u0 p0 c0 {5,S}
16 H u0 p0 c0 {7,S}
17 H u0 p0 c0 {7,S}
18 H u0 p0 c0 {7,S}
19 H u0 p0 c0 {8,S}
20 H u0 p0 c0 {9,S}
21 H u0 p0 c0 {9,S}
22 H u0 p0 c0 {2,S}


>  <multiplicity>  (3) 
2

>  <reaction>  (3) 
rmg_rxn_1345

>  <type>  (3) 
ts

>  <role_mapnums>  (3) 
{"*2": 15, "*1": 9, "*3": 3, "*0": 2, "*4": 10}

>  <role_mapidx>  (3) 
{"*2": 14, "*1": 8, "*3": 2, "*0": 1, "*4": 9}

>  <ordered_mapped_smiles>  (3) 
[C:1]([C:2]([O:3][H:15])([H:7])[H:8])([H:4])([H:5])[H:6].[C:9]([O:10][C:11]([C:12]([CH:13]([OH:14])[H:22])([H:20])[H:21])([H:18])[H:19])([H:16])[H:17]

>  <mol_properties>  (3) 
{"1": {"label": "*0", "atom_type": "Cs"}, "2": {"label": "*3", "atom_type": "O2s"}, "8": {"label": "*1", "atom_type": "Cs"}, "9": {"label": "*4", "atom_type": "O2s"}, "14": {"label": "*2", "atom_type": "H0"}}

>  <level_of_theory>  (3) 
wb97xd/def2tzvp

>  <lot_method>  (3) 
wb97xd

>  <lot_basis>  (3) 
def2tzvp

>  <spin_multiplicity>  (3) 
2.0

>  <optical_isomers>  (3) 
2.0

>  <modes>  (3) 
IdealGasTranslation(mass=(133.086, 'amu')),         NonlinearRotor(             inertia = ([257.593, 558.844, 703.136

>  <frequency_value>  (3) 
-1655.19

>  <frequency_units>  (3) 
cm^-1

>  <frequency_list>  (3) 
unknown

>  <arkane_path>  (3) 
/home/calvin/Dropbox/PersonalFolders/Calvin/ATLAS_Converged/rmg_rxn_1345/output/rxns/TS0/arkane/output.py

>  <path_exists>  (3) 
True

>  <E0_value>  (3) 
-1212660.0

>  <E0_units>  (3) 
kJ/mol

>  <thermo_class>  (3) 
unknown

>  <Cp0_value>  (3) 
unknown

>  <Cp0_units>  (3) 
unknown

>  <CpInf_value>  (3) 
unknown

>  <CpInf_units>  (3) 
unknown

>  <Tmin_value>  (3) 
unknown

>  <Tmin_units>  (3) 
unknown

>  <Tmax_value>  (3) 
unknown

>  <Tmax_units>  (3) 
unknown

>  <polynomials>  (3) 
unknown

>  <H298_value>  (3) 
unknown

>  <H298_units>  (3) 
unknown

>  <S298_value>  (3) 
unknown

>  <S298_units>  (3) 
unknown

>  <Cp_T_value_list>  (3) 
unknown

>  <Cp_T_units>  (3) 
unknown

>  <T_list>  (3) 
unknown

>  <T_units>  (3) 
unknown

>  <yaml_path>  (3) 
unknown

>  <frequencies_cm1>  (3) 
unknown

>  <ZPE_kJmol>  (3) 
unknown

>  <E_elec_kJmol>  (3) 
unknown

>  <E0_minus_Eelec_plus_ZPE_kJmol>  (3) 
unknown

>  <rxn>  (3) 
unknown

>  <species_type>  (3) 
unknown

>  <species_folder>  (3) 
unknown

>  <frequencies_cm1_list>  (3) 
[]

>  <ts_imag_freq_cm1>  (3) 
-1675.2971

>  <ts_freq_out_path>  (3) 
/home/calvin/Dropbox/PersonalFolders/Calvin/ATLAS_Converged/rmg_rxn_1345/output/rxns/TS0/geometry/freq.out

>  <E0_kJmol>  (3) 
-1.21266e+06

>  <H298_kJmol>  (3) 
unknown

$$$$

     RDKit          3D

 13 12  0  0  0  0  0  0  0  0999 V2000
   -2.7070   -0.4344   -0.2055 C   0  0  0  0  0  3  0  0  0  1  0  0
   -1.6720    0.4487    0.0704 O   0  0  0  0  0  0  0  0  0  2  0  0
   -0.3991   -0.2089    0.0000 C   0  0  0  0  0  0  0  0  0  3  0  0
    0.6760    0.8635    0.0035 C   0  0  0  0  0  0  0  0  0  4  0  0
    2.0575    0.2721   -0.0091 C   0  0  0  0  0  0  0  0  0  5  0  0
    2.2973   -0.9310   -0.0033 O   0  0  0  0  0  0  0  0  0  6  0  0
   -3.6755    0.0422    0.2382 H   0  0  0  0  0  0  0  0  0  7  0  0
   -2.5094   -1.4767    0.5114 H   0  0  0  0  0  0  0  0  0  8  0  0
   -0.3167   -0.8506   -0.8718 H   0  0  0  0  0  0  0  0  0  9  0  0
   -0.2954   -0.8300    0.9139 H   0  0  0  0  0  0  0  0  0 10  0  0
    0.5688    1.4911   -0.8987 H   0  0  0  0  0  0  0  0  0 11  0  0
    0.5799    1.5212    0.8631 H   0  0  0  0  0  0  0  0  0 12  0  0
    2.8808    1.0068   -0.0260 H   0  0  0  0  0  0  0  0  0 13  0  0
  1  8  1  0
  1  7  1  0
  1  2  1  0
  2  3  1  0
  3  4  1  0
  3  9  1  0
  3 10  1  0
  4  5  1  0
  4 12  1  0
  4 11  1  0
  5  6  1  0
  5 13  1  0
M  RAD  1   1   2
M  END
>  <rmg_smiles>  (4) 
[CH2]OCC[CH]O

>  <rmg_adjacency_list>  (4) 
multiplicity 2
1  O u0 p2 c0 {4,S} {6,S}
2  O u0 p2 c0 {5,S}
3  C u0 p0 c0 {4,S} {5,S} {7,S} {8,S}
4  C u0 p0 c0 {1,S} {3,S} {9,S} {10,S}
5  C u0 p0 c0 {2,S} {3,S} {11,S}
6  C u1 p0 c0 {1,S} {12,S} {13,S}
7  H u0 p0 c0 {3,S}
8  H u0 p0 c0 {3,S}
9  H u0 p0 c0 {4,S}
10 H u0 p0 c0 {4,S}
11 H u0 p0 c0 {5,S}
12 H u0 p0 c0 {6,S}
13 H u0 p0 c0 {6,S}


>  <multiplicity>  (4) 
2

>  <reaction>  (4) 
rmg_rxn_1345

>  <type>  (4) 
r1

>  <role_mapnums>  (4) 
{}

>  <role_mapidx>  (4) 
{}

>  <ordered_mapped_smiles>  (4) 
[C:1]([O:2][C:3]([C:4]([CH:5]([OH:6])[H:13])([H:11])[H:12])([H:9])[H:10])([H:7])[H:8]

>  <level_of_theory>  (4) 
wb97xd/def2tzvp

>  <lot_method>  (4) 
wb97xd

>  <lot_basis>  (4) 
def2tzvp

>  <spin_multiplicity>  (4) 
2.0

>  <optical_isomers>  (4) 
2.0

>  <modes>  (4) 
IdealGasTranslation(mass=(87.0446, 'amu')),         NonlinearRotor(             inertia = ([42.6978, 308.679, 343.305

>  <frequency_value>  (4) 
unknown

>  <frequency_units>  (4) 
unknown

>  <frequency_list>  (4) 
unknown

>  <arkane_path>  (4) 
/home/calvin/Dropbox/PersonalFolders/Calvin/ATLAS_Converged/rmg_rxn_1345/output/Species/rmg_rxn_1345_p2_sbr-CH2-sbrOCCC=O/arkane/output.py

>  <path_exists>  (4) 
True

>  <E0_value>  (4) 
-805817.2707726001

>  <E0_units>  (4) 
kJ/mol

>  <thermo_class>  (4) 
NASA

>  <Cp0_value>  (4) 
33.257888

>  <Cp0_units>  (4) 
J/(mol*K)

>  <CpInf_value>  (4) 
307.635464

>  <CpInf_units>  (4) 
J/(mol*K)

>  <Tmin_value>  (4) 
10.0

>  <Tmin_units>  (4) 
K

>  <Tmax_value>  (4) 
3000.0

>  <Tmax_units>  (4) 
K

>  <polynomials>  (4) 
[{"name": "polynomial1", "class": "NASAPolynomial", "Tmin_value": 10.0, "Tmin_units": "K", "Tmax_value": 848.7481586044175, "Tmax_units": "K", "coeffs": [3.8391832038762055, 0.017648908552463077, 5.587439355546979e-05, -8.223625298538009e-08, 3.285208394099403e-11, -96917433.13816744, 11.66847398088421]}, {"name": "polynomial2", "class": "NASAPolynomial", "Tmin_value": 848.7481586044175, "Tmin_units": "K", "Tmax_value": 3000.0, "Tmax_units": "K", "coeffs": [1.3874589095296035, 0.04688441111892003, -2.7041477707297145e-05, 7.435878454552619e-09, -7.904896269928865e-13, -96917653.80354828, 19.342890965820466]}]

>  <H298_value>  (4) 
-192590.4344562697

>  <H298_units>  (4) 
kcal/mol

>  <S298_value>  (4) 
80.72095618465457

>  <S298_units>  (4) 
cal/(mol*K)

>  <Cp_T_value_list>  (4) 
[24.26036193304411, 30.635853978169912, 36.57644235906376, 41.806670424041755, 49.81762549684448, 55.394933517948274, 63.521029559920144, 67.22632935172831, 68.99217135295126]

>  <Cp_T_units>  (4) 
cal/(mol*K)

>  <T_list>  (4) 
[300.0, 400.0, 500.0, 600.0, 800.0, 1000.0, 1500.0, 2000.0, 2400.0]

>  <T_units>  (4) 
K

>  <yaml_path>  (4) 
/home/calvin/Dropbox/PersonalFolders/Calvin/ATLAS_Converged/rmg_rxn_1345/output/Species/rmg_rxn_1345_p2_sbr-CH2-sbrOCCC=O/rmg_rxn_1345_p2_sbr-CH2-sbrOCCC=O.yml

>  <frequencies_cm1>  (4) 
[136.21352080751998, 205.837884967, 226.22596438207998, 282.70005165376, 343.22566026423993, 493.44783112455997, 683.39551206108, 700.78271889132, 817.63820808176, 887.17330143208, 910.562253432, 984.2175379743198, 1086.60428909552, 1114.2507719938399, 1134.06202464204, 1217.44096039748, 1289.09108522636, 1298.6842637184, 1307.69374845824, 1330.11445552804, 1385.4142883099998, 1413.0882391496, 1444.51843095924, 1495.6843385785598, 1501.4457392620398, 1681.2783508221999, 1686.83374194608, 2455.7712901383993, 2883.4128009413994, 2934.66797936988, 2953.5727899558397, 3113.5117450439598, 3127.9392812012798]

>  <ZPE_kJmol>  (4) 
266.3276965840741

>  <E_elec_kJmol>  (4) 
-806083.5984691841

>  <E0_minus_Eelec_plus_ZPE_kJmol>  (4) 
0.0

>  <rxn>  (4) 
rmg_rxn_1345

>  <species_type>  (4) 
p1

>  <species_folder>  (4) 
rmg_rxn_1345_p2_sbr-CH2-sbrOCCC=O

>  <frequencies_cm1_list>  (4) 
[136.21352080751998, 205.837884967, 226.22596438207998, 282.70005165376, 343.22566026423993, 493.44783112455997, 683.39551206108, 700.78271889132, 817.63820808176, 887.17330143208, 910.562253432, 984.2175379743198, 1086.60428909552, 1114.2507719938399, 1134.06202464204, 1217.44096039748, 1289.09108522636, 1298.6842637184, 1307.69374845824, 1330.11445552804, 1385.4142883099998, 1413.0882391496, 1444.51843095924, 1495.6843385785598, 1501.4457392620398, 1681.2783508221999, 1686.83374194608, 2455.7712901383993, 2883.4128009413994, 2934.66797936988, 2953.5727899558397, 3113.5117450439598, 3127.9392812012798]

>  <E0_kJmol>  (4) 
-805817

>  <H298_kJmol>  (4) 
-805798

$$$$

     RDKit          3D

  8  7  0  0  0  0  0  0  0  0999 V2000
   -1.1207   -0.2113   -0.0024 C   0  0  0  0  0  0  0  0  0  1  0  0
    0.2278    0.5304   -0.0026 C   0  0  0  0  0  0  0  0  0  2  0  0
    1.1758   -0.3927    0.0010 O   0  0  0  0  0  1  0  0  0  3  0  0
   -1.2050   -0.8270    0.9007 H   0  0  0  0  0  0  0  0  0  4  0  0
   -1.9706    0.4828   -0.0053 H   0  0  0  0  0  0  0  0  0  5  0  0
   -1.2203   -0.8816   -0.8654 H   0  0  0  0  0  0  0  0  0  6  0  0
    0.1749    1.2243   -0.8560 H   0  0  0  0  0  0  0  0  0  7  0  0
    0.1727    1.2287    0.8472 H   0  0  0  0  0  0  0  0  0  8  0  0
  1  5  1  0
  1  4  1  0
  1  6  1  0
  1  2  1  0
  2  7  1  0
  2  8  1  0
  2  3  1  0
M  RAD  1   3   2
M  END
>  <rmg_smiles>  (5) 
CC[O]

>  <rmg_adjacency_list>  (5) 
multiplicity 2
1 O u1 p2 c0 {3,S}
2 C u0 p0 c0 {3,S} {4,S} {5,S} {6,S}
3 C u0 p0 c0 {1,S} {2,S} {7,S} {8,S}
4 H u0 p0 c0 {2,S}
5 H u0 p0 c0 {2,S}
6 H u0 p0 c0 {2,S}
7 H u0 p0 c0 {3,S}
8 H u0 p0 c0 {3,S}


>  <multiplicity>  (5) 
2

>  <reaction>  (5) 
rmg_rxn_1345

>  <type>  (5) 
r2

>  <role_mapnums>  (5) 
{}

>  <role_mapidx>  (5) 
{}

>  <ordered_mapped_smiles>  (5) 
[C:1]([C:2]([O:3])([H:7])[H:8])([H:4])([H:5])[H:6]

>  <level_of_theory>  (5) 
wb97xd/def2tzvp

>  <lot_method>  (5) 
wb97xd

>  <lot_basis>  (5) 
def2tzvp

>  <spin_multiplicity>  (5) 
2.0

>  <optical_isomers>  (5) 
2.0

>  <modes>  (5) 
IdealGasTranslation(mass=(45.034, 'amu')),         NonlinearRotor(             inertia = ([14.0582, 47.4836, 55.4728

>  <frequency_value>  (5) 
unknown

>  <frequency_units>  (5) 
unknown

>  <frequency_list>  (5) 
unknown

>  <arkane_path>  (5) 
/home/calvin/Dropbox/PersonalFolders/Calvin/ATLAS_Converged/rmg_rxn_1345/output/Species/rmg_rxn_1345_r1_CCsbr-O-sbr/arkane/output.py

>  <path_exists>  (5) 
True

>  <E0_value>  (5) 
-405157.2161029534

>  <E0_units>  (5) 
kJ/mol

>  <thermo_class>  (5) 
NASA

>  <Cp0_value>  (5) 
33.257888

>  <Cp0_units>  (5) 
J/(mol*K)

>  <CpInf_value>  (5) 
182.918384

>  <CpInf_units>  (5) 
J/(mol*K)

>  <Tmin_value>  (5) 
10.0

>  <Tmin_units>  (5) 
K

>  <Tmax_value>  (5) 
3000.0

>  <Tmax_units>  (5) 
K

>  <polynomials>  (5) 
[{"name": "polynomial1", "class": "NASAPolynomial", "Tmin_value": 10.0, "Tmin_units": "K", "Tmax_value": 655.5584179485454, "Tmax_units": "K", "coeffs": [4.055896680763939, -0.004117670069248816, 7.122707515855976e-05, -9.785263843573845e-08, 4.3679961511989154e-11, -48729158.325679846, 8.411904971199016]}, {"name": "polynomial2", "class": "NASAPolynomial", "Tmin_value": 655.5584179485454, "Tmin_units": "K", "Tmax_value": 3000.0, "Tmax_units": "K", "coeffs": [-0.2963153099961466, 0.028239390993956913, -1.608406430571112e-05, 4.437008920708728e-09, -4.765506877400804e-13, -48728712.35741161, 26.62023881836554]}]

>  <H298_value>  (5) 
-96831.95568243512

>  <H298_units>  (5) 
kcal/mol

>  <S298_value>  (5) 
64.93639533849537

>  <S298_units>  (5) 
cal/(mol*K)

>  <Cp_T_value_list>  (5) 
[13.796814802847175, 17.210795744913966, 20.472694648795237, 23.353243036643658, 27.97579323395892, 31.43655285308924, 36.63612661925797, 39.182684202551286, 40.46035083252092]

>  <Cp_T_units>  (5) 
cal/(mol*K)

>  <T_list>  (5) 
[300.0, 400.0, 500.0, 600.0, 800.0, 1000.0, 1500.0, 2000.0, 2400.0]

>  <T_units>  (5) 
K

>  <yaml_path>  (5) 
/home/calvin/Dropbox/PersonalFolders/Calvin/ATLAS_Converged/rmg_rxn_1345/output/Species/rmg_rxn_1345_r1_CCsbr-O-sbr/rmg_rxn_1345_r1_CCsbr-O-sbr.yml

>  <frequencies_cm1>  (5) 
[300.60914936832, 468.21852705888, 815.8733928545199, 907.07382488944, 1062.40503282784, 1086.9751063028, 1131.43196926448, 1292.3941051652798, 1299.0482139403598, 1361.6888540294, 1409.66848046024, 1481.5177478633998, 1487.32721744412, 2924.60097889076, 2942.33840197232, 2969.44926001568, 3038.38692564316, 3046.5449042033197]

>  <ZPE_kJmol>  (5) 
173.61140549560463

>  <E_elec_kJmol>  (5) 
-405330.827508449

>  <E0_minus_Eelec_plus_ZPE_kJmol>  (5) 
0.0

>  <rxn>  (5) 
rmg_rxn_1345

>  <species_type>  (5) 
r0

>  <species_folder>  (5) 
rmg_rxn_1345_r1_CCsbr-O-sbr

>  <frequencies_cm1_list>  (5) 
[300.60914936832, 468.21852705888, 815.8733928545199, 907.07382488944, 1062.40503282784, 1086.9751063028, 1131.43196926448, 1292.3941051652798, 1299.0482139403598, 1361.6888540294, 1409.66848046024, 1481.5177478633998, 1487.32721744412, 2924.60097889076, 2942.33840197232, 2969.44926001568, 3038.38692564316, 3046.5449042033197]

>  <E0_kJmol>  (5) 
-405157

>  <H298_kJmol>  (5) 
-405145

$$$$
