
     RDKit          3D

 12 11  0  0  0  0  0  0  0  0999 V2000
    0.9282    1.1446    0.8272 C   0  0  0  0  0  0  0  0  0  1  0  0
   -0.6372    0.3701    0.5730 S   0  0  0  0  0  0  0  0  0  2  0  0
   -0.1660   -1.1187   -0.3419 C   0  0  0  0  0  0  0  0  0  3  0  0
    0.4927   -0.8718   -1.6888 C   0  0  0  0  0  0  0  0  0  4  0  0
    1.2690    1.6837   -0.0556 H   0  0  0  0  0  0  0  0  0  5  0  0
    1.7266    0.4441    1.0722 H   0  0  0  0  0  0  0  0  0  6  0  0
    0.8320    1.9204    1.5842 H   0  0  0  0  0  0  0  0  0  7  0  0
   -1.1041   -1.6627   -0.4643 H   0  0  0  0  0  0  0  0  0  8  0  0
    0.4764   -1.7244    0.3013 H   0  0  0  0  0  0  0  0  0  9  0  0
    1.4578   -0.3798   -1.5711 H   0  0  0  0  0  0  0  0  0 10  0  0
   -0.1206   -0.2403   -2.3312 H   0  0  0  0  0  0  0  0  0 11  0  0
    0.6645   -1.8222   -2.1994 H   0  0  0  0  0  0  0  0  0 12  0  0
  1  5  1  0
  1  7  1  0
  1  2  1  0
  1  6  1  0
  2  3  1  0
  3  4  1  0
  3  9  1  0
  3  8  1  0
  4 12  1  0
  4 10  1  0
  4 11  1  0
M  END
>  <rmg_smiles>  (1) 
CSCC

>  <rmg_adjacency_list>  (1) 
1  S u0 p2 c0 {2,S} {4,S}
2  C u0 p0 c0 {1,S} {3,S} {5,S} {6,S}
3  C u0 p0 c0 {2,S} {7,S} {8,S} {9,S}
4  C u0 p0 c0 {1,S} {10,S} {11,S} {12,S}
5  H u0 p0 c0 {2,S}
6  H u0 p0 c0 {2,S}
7  H u0 p0 c0 {3,S}
8  H u0 p0 c0 {3,S}
9  H u0 p0 c0 {3,S}
10 H u0 p0 c0 {4,S}
11 H u0 p0 c0 {4,S}
12 H u0 p0 c0 {4,S}


>  <multiplicity>  (1) 
1

>  <reaction>  (1) 
rmg_rxn_524

>  <type>  (1) 
r1h

>  <role_mapnums>  (1) 
{"r1h_a": 1, "r1h_h": 5}

>  <role_mapidx>  (1) 
{"r1h_a": 0, "r1h_h": 4}

>  <ordered_mapped_smiles>  (1) 
[C:1]([S:2][C:3]([C:4]([H:10])([H:11])[H:12])([H:8])[H:9])([H:5])([H:6])[H:7]

>  <mol_properties>  (1) 
{"0": {"label": "donator", "atom_type": "Cs"}, "4": {"label": "d_hydrogen", "atom_type": "H0"}}

>  <level_of_theory>  (1) 
wb97xd/def2tzvp

>  <lot_method>  (1) 
wb97xd

>  <lot_basis>  (1) 
def2tzvp

>  <spin_multiplicity>  (1) 
1.0

>  <optical_isomers>  (1) 
2.0

>  <modes>  (1) 
IdealGasTranslation(mass=(76.0347, 'amu')),         NonlinearRotor(             inertia = ([52.0964, 128.386, 157.856

>  <frequency_value>  (1) 
unknown

>  <frequency_units>  (1) 
unknown

>  <frequency_list>  (1) 
unknown

>  <arkane_path>  (1) 
/home/calvin/Dropbox/PersonalFolders/Calvin/ATLAS_Converged/rmg_rxn_524/output/Species/rmg_rxn_524_r1_CSCC/arkane/output.py

>  <path_exists>  (1) 
True

>  <E0_value>  (1) 
-1358024.3823847063

>  <E0_units>  (1) 
kJ/mol

>  <thermo_class>  (1) 
NASA

>  <Cp0_value>  (1) 
33.257888

>  <Cp0_units>  (1) 
J/(mol*K)

>  <CpInf_value>  (1) 
282.692048

>  <CpInf_units>  (1) 
J/(mol*K)

>  <Tmin_value>  (1) 
10.0

>  <Tmin_units>  (1) 
K

>  <Tmax_value>  (1) 
3000.0

>  <Tmax_units>  (1) 
K

>  <polynomials>  (1) 
[{"name": "polynomial1", "class": "NASAPolynomial", "Tmin_value": 10.0, "Tmin_units": "K", "Tmax_value": 1066.2668684701744, "Tmax_units": "K", "coeffs": [3.7938912313276787, 0.023010100947195324, 1.342493384076101e-05, -2.4396686231991315e-08, 8.539069834136729e-12, -163332607.1869712, 10.299389825114616]}, {"name": "polynomial2", "class": "NASAPolynomial", "Tmin_value": 1066.2668684701744, "Tmin_units": "K", "Tmax_value": 3000.0, "Tmax_units": "K", "coeffs": [3.879217425430389, 0.03360306179863777, -1.6829239210706833e-05, 4.118007320046649e-09, -3.971168214124496e-13, -163333245.74928793, 6.973208429713539]}]

>  <H298_value>  (1) 
-324571.19408104627

>  <H298_units>  (1) 
kcal/mol

>  <S298_value>  (1) 
77.83544863665438

>  <S298_units>  (1) 
cal/(mol*K)

>  <Cp_T_value_list>  (1) 
[22.486476604271342, 27.42967621467206, 32.072084622248504, 36.30607837304303, 43.32195482949402, 48.43082491651662, 56.2496539809613, 60.32875481300712, 62.28322095230064]

>  <Cp_T_units>  (1) 
cal/(mol*K)

>  <T_list>  (1) 
[300.0, 400.0, 500.0, 600.0, 800.0, 1000.0, 1500.0, 2000.0, 2400.0]

>  <T_units>  (1) 
K

>  <yaml_path>  (1) 
/home/calvin/Dropbox/PersonalFolders/Calvin/ATLAS_Converged/rmg_rxn_524/output/Species/rmg_rxn_524_r1_CSCC/rmg_rxn_524_r1_CSCC.yml

>  <frequencies_cm1>  (1) 
[86.86049731268, 173.63172381619998, 227.43455379839997, 277.98929972423997, 356.053188842, 666.01517221616, 740.88591316012, 758.5958683004, 952.29292322164, 966.1504995974, 986.7445885720799, 1060.0221889218, 1079.9089784085197, 1272.4729807519598, 1296.60356716644, 1348.6278479507598, 1400.27444454248, 1452.28499135616, 1457.8541164506798, 1470.393231645, 1480.8997191846001, 1487.8971772256798, 3015.3687908505194, 3018.78854953988, 3025.31218559388, 3073.71756511456, 3086.881575973, 3099.52369594712, 3104.7151368490404, 3118.41477256244]

>  <ZPE_kJmol>  (1) 
272.4054138316235

>  <E_elec_kJmol>  (1) 
-1358296.787798538

>  <E0_minus_Eelec_plus_ZPE_kJmol>  (1) 
0.0

>  <rxn>  (1) 
rmg_rxn_524

>  <species_type>  (1) 
r0

>  <species_folder>  (1) 
rmg_rxn_524_r1_CSCC

>  <frequencies_cm1_list>  (1) 
[86.86049731268, 173.63172381619998, 227.43455379839997, 277.98929972423997, 356.053188842, 666.01517221616, 740.88591316012, 758.5958683004, 952.29292322164, 966.1504995974, 986.7445885720799, 1060.0221889218, 1079.9089784085197, 1272.4729807519598, 1296.60356716644, 1348.6278479507598, 1400.27444454248, 1452.28499135616, 1457.8541164506798, 1470.393231645, 1480.8997191846001, 1487.8971772256798, 3015.3687908505194, 3018.78854953988, 3025.31218559388, 3073.71756511456, 3086.881575973, 3099.52369594712, 3104.7151368490404, 3118.41477256244]

>  <E0_kJmol>  (1) 
-1.35802e+06

>  <H298_kJmol>  (1) 
-1.35801e+06

$$$$

     RDKit          3D

 18 17  0  0  0  0  0  0  0  0999 V2000
    0.5840   -0.1204    3.2494 H   0  0  0  0  0  0  0  0  0  1  0  0
    0.8574    0.4318    2.3530 C   0  0  0  0  0  0  0  0  0  2  0  0
   -0.4480    0.8662    1.7381 C   0  0  0  0  0  0  0  0  0  3  0  0
   -0.3924    0.9999    0.2253 C   0  0  0  0  0  0  0  0  0  4  0  0
   -0.1708   -0.2728   -0.3300 O   0  0  0  0  0  0  0  0  0  5  0  0
   -0.0501   -0.2644   -1.7293 C   0  0  0  0  0  0  0  0  0  6  0  0
    0.1760   -1.6806   -2.2060 C   0  0  0  0  0  0  0  0  0  7  0  0
    1.3983   -0.3140    1.7753 H   0  0  0  0  0  0  0  0  0  8  0  0
    1.5055    1.2306    2.7078 H   0  0  0  0  0  0  0  0  0  9  0  0
   -0.7706    1.8206    2.1604 H   0  0  0  0  0  0  0  0  0 10  0  0
   -1.2335    0.1407    1.9763 H   0  0  0  0  0  0  0  0  0 11  0  0
    0.4137    1.6867   -0.0736 H   0  0  0  0  0  0  0  0  0 12  0  0
   -1.3386    1.4139   -0.1527 H   0  0  0  0  0  0  0  0  0 13  0  0
   -0.9609    0.1535   -2.1828 H   0  0  0  0  0  0  0  0  0 14  0  0
    0.7877    0.3817   -2.0297 H   0  0  0  0  0  0  0  0  0 15  0  0
   -0.6621   -2.3178   -1.9210 H   0  0  0  0  0  0  0  0  0 16  0  0
    0.2758   -1.7039   -3.2922 H   0  0  0  0  0  0  0  0  0 17  0  0
    1.0853   -2.0910   -1.7652 H   0  0  0  0  0  0  0  0  0 18  0  0
  1  2  1  0
  2  9  1  0
  2  8  1  0
  2  3  1  0
  3  4  1  0
  3 11  1  0
  3 10  1  0
  4 13  1  0
  4 12  1  0
  4  5  1  0
  5  6  1  0
  6 15  1  0
  6 14  1  0
  6  7  1  0
  7 17  1  0
  7 18  1  0
  7 16  1  0
M  END
>  <rmg_smiles>  (2) 
CCCOCC

>  <rmg_adjacency_list>  (2) 
1  O u0 p2 c0 {3,S} {4,S}
2  C u0 p0 c0 {3,S} {5,S} {7,S} {8,S}
3  C u0 p0 c0 {1,S} {2,S} {9,S} {10,S}
4  C u0 p0 c0 {1,S} {6,S} {11,S} {12,S}
5  C u0 p0 c0 {2,S} {13,S} {14,S} {15,S}
6  C u0 p0 c0 {4,S} {16,S} {17,S} {18,S}
7  H u0 p0 c0 {2,S}
8  H u0 p0 c0 {2,S}
9  H u0 p0 c0 {3,S}
10 H u0 p0 c0 {3,S}
11 H u0 p0 c0 {4,S}
12 H u0 p0 c0 {4,S}
13 H u0 p0 c0 {5,S}
14 H u0 p0 c0 {5,S}
15 H u0 p0 c0 {5,S}
16 H u0 p0 c0 {6,S}
17 H u0 p0 c0 {6,S}
18 H u0 p0 c0 {6,S}


>  <multiplicity>  (2) 
1

>  <reaction>  (2) 
rmg_rxn_524

>  <type>  (2) 
r2h

>  <role_mapnums>  (2) 
{"r2h_a": 2, "r2h_h": 1}

>  <role_mapidx>  (2) 
{"r2h_a": 1, "r2h_h": 0}

>  <ordered_mapped_smiles>  (2) 
[H:1][C:2]([C:3]([C:4]([O:5][C:6]([C:7]([H:16])([H:17])[H:18])([H:14])[H:15])([H:12])[H:13])([H:10])[H:11])([H:8])[H:9]

>  <mol_properties>  (2) 
{"0": {"label": "a_hydrogen", "atom_type": "H0"}, "1": {"label": "acceptor", "atom_type": "Cs"}}

>  <level_of_theory>  (2) 
wb97xd/def2tzvp

>  <lot_method>  (2) 
wb97xd

>  <lot_basis>  (2) 
def2tzvp

>  <spin_multiplicity>  (2) 
1.0

>  <optical_isomers>  (2) 
2.0

>  <modes>  (2) 
IdealGasTranslation(mass=(88.0888, 'amu')),         NonlinearRotor(             inertia = ([59.5652, 317.445, 349.634

>  <frequency_value>  (2) 
unknown

>  <frequency_units>  (2) 
unknown

>  <frequency_list>  (2) 
unknown

>  <arkane_path>  (2) 
/home/calvin/Dropbox/PersonalFolders/Calvin/ATLAS_Converged/rmg_rxn_524/output/Species/rmg_rxn_524_p2_CCCOCC/arkane/output.py

>  <path_exists>  (2) 
True

>  <E0_value>  (2) 
-716327.3605709573

>  <E0_units>  (2) 
kJ/mol

>  <thermo_class>  (2) 
NASA

>  <Cp0_value>  (2) 
33.257888

>  <Cp0_units>  (2) 
J/(mol*K)

>  <CpInf_value>  (2) 
432.352544

>  <CpInf_units>  (2) 
J/(mol*K)

>  <Tmin_value>  (2) 
10.0

>  <Tmin_units>  (2) 
K

>  <Tmax_value>  (2) 
3000.0

>  <Tmax_units>  (2) 
K

>  <polynomials>  (2) 
[{"name": "polynomial1", "class": "NASAPolynomial", "Tmin_value": 10.0, "Tmin_units": "K", "Tmax_value": 424.14701041358796, "Tmax_units": "K", "coeffs": [3.4707042336928127, 0.05746545203879795, -0.00016719847115372115, 4.780470157694204e-07, -4.3347206706639054e-10, -86154279.58985142, 11.635447004604476]}, {"name": "polynomial2", "class": "NASAPolynomial", "Tmin_value": 424.14701041358796, "Tmin_units": "K", "Tmax_value": 3000.0, "Tmax_units": "K", "coeffs": [-2.8535624465972114, 0.06921008708460846, -3.934323609424939e-05, 1.0841890934368647e-08, -1.163418506360095e-12, -86153312.26572455, 41.80111524234505]}]

>  <H298_value>  (2) 
-171200.6815246165

>  <H298_units>  (2) 
kcal/mol

>  <S298_value>  (2) 
88.37399878129293

>  <S298_units>  (2) 
cal/(mol*K)

>  <Cp_T_value_list>  (2) 
[29.924593767526826, 38.16083070533892, 46.09960348181722, 53.05840207682852, 64.40406715451496, 72.91410593462665, 85.72980278110597, 92.03567805993791, 95.21197800865355]

>  <Cp_T_units>  (2) 
cal/(mol*K)

>  <T_list>  (2) 
[300.0, 400.0, 500.0, 600.0, 800.0, 1000.0, 1500.0, 2000.0, 2400.0]

>  <T_units>  (2) 
K

>  <yaml_path>  (2) 
/home/calvin/Dropbox/PersonalFolders/Calvin/ATLAS_Converged/rmg_rxn_524/output/Species/rmg_rxn_524_p2_CCCOCC/rmg_rxn_524_p2_CCCOCC.yml

>  <frequencies_cm1>  (2) 
[76.60808822992, 85.88538539723999, 152.39213822143998, 171.44115549912, 250.05440344247998, 256.05614861216003, 329.51915756551995, 440.0707542322, 493.7774464199199, 767.98990421816, 823.02879155796, 891.3896304185598, 900.4815189822399, 929.41899512072, 1002.9850088538799, 1082.00340893112, 1102.9065122452, 1152.52734816752, 1174.9617892079598, 1182.44680320676, 1190.2339645596398, 1270.1176047871998, 1295.23017010244, 1305.6473868328799, 1368.30176089256, 1380.4425909383199, 1399.7456866728398, 1405.4521514737598, 1443.92787022172, 1468.7794900948002, 1470.37949767436, 1482.5752636026798, 1487.2448136202797, 1494.6336898246, 1500.58049911172, 1519.49904366832, 2928.8997117010795, 2942.5512785172396, 2962.4655359452395, 2968.54281795344, 3015.14904732028, 3021.7276192568397, 3024.0692612509597, 3058.7338031463196, 3085.2403664815197, 3101.8035350733594, 3104.27564978856, 3105.2988306012394]

>  <ZPE_kJmol>  (2) 
431.0594598774012

>  <E_elec_kJmol>  (2) 
-716758.4200308347

>  <E0_minus_Eelec_plus_ZPE_kJmol>  (2) 
0.0

>  <rxn>  (2) 
rmg_rxn_524

>  <species_type>  (2) 
p1

>  <species_folder>  (2) 
rmg_rxn_524_p2_CCCOCC

>  <frequencies_cm1_list>  (2) 
[76.60808822992, 85.88538539723999, 152.39213822143998, 171.44115549912, 250.05440344247998, 256.05614861216003, 329.51915756551995, 440.0707542322, 493.7774464199199, 767.98990421816, 823.02879155796, 891.3896304185598, 900.4815189822399, 929.41899512072, 1002.9850088538799, 1082.00340893112, 1102.9065122452, 1152.52734816752, 1174.9617892079598, 1182.44680320676, 1190.2339645596398, 1270.1176047871998, 1295.23017010244, 1305.6473868328799, 1368.30176089256, 1380.4425909383199, 1399.7456866728398, 1405.4521514737598, 1443.92787022172, 1468.7794900948002, 1470.37949767436, 1482.5752636026798, 1487.2448136202797, 1494.6336898246, 1500.58049911172, 1519.49904366832, 2928.8997117010795, 2942.5512785172396, 2962.4655359452395, 2968.54281795344, 3015.14904732028, 3021.7276192568397, 3024.0692612509597, 3058.7338031463196, 3085.2403664815197, 3101.8035350733594, 3104.27564978856, 3105.2988306012394]

>  <E0_kJmol>  (2) 
-716327

>  <H298_kJmol>  (2) 
-716304

$$$$

     RDKit          3D

 29 27  0  0  0  0  0  0  0  0999 V2000
    0.4141   -0.0027    2.7405 C   0  0  0  0  0  0  0  0  0  1  0  0
   -1.1514   -0.7771    2.4863 S   0  0  0  0  0  0  0  0  0  2  0  0
   -0.6801   -2.2660    1.5714 C   0  0  0  0  0  0  0  0  0  3  0  0
   -0.0214   -2.0191    0.2245 C   0  0  0  0  0  0  0  0  0  4  0  0
    0.8257    0.6484    1.6742 H   0  0  0  0  0  0  0  0  0  5  0  0
    1.2125   -0.7032    2.9855 H   0  0  0  0  0  0  0  0  0  6  0  0
    0.3179    0.7732    3.4974 H   0  0  0  0  0  0  0  0  0  7  0  0
   -1.6182   -2.8100    1.4489 H   0  0  0  0  0  0  0  0  0  8  0  0
   -0.0377   -2.8717    2.2146 H   0  0  0  0  0  0  0  0  0  9  0  0
    0.9437   -1.5271    0.3422 H   0  0  0  0  0  0  0  0  0 10  0  0
   -0.6347   -1.3876   -0.4180 H   0  0  0  0  0  0  0  0  0 11  0  0
    0.1504   -2.9695   -0.2861 H   0  0  0  0  0  0  0  0  0 12  0  0
    1.1744    1.3527    0.5310 C   0  0  0  0  0  3  0  0  0 13  0  0
   -0.1310    1.7871   -0.0838 C   0  0  0  0  0  0  0  0  0 14  0  0
   -0.0754    1.9207   -1.5967 C   0  0  0  0  0  0  0  0  0 15  0  0
    0.1462    0.6481   -2.1520 O   0  0  0  0  0  0  0  0  0 16  0  0
    0.2669    0.6565   -3.5513 C   0  0  0  0  0  0  0  0  0 17  0  0
    0.4930   -0.7597   -4.0280 C   0  0  0  0  0  0  0  0  0 18  0  0
    1.7153    0.6069   -0.0467 H   0  0  0  0  0  0  0  0  0 19  0  0
    1.8225    2.1515    0.8858 H   0  0  0  0  0  0  0  0  0 20  0  0
   -0.4537    2.7415    0.3384 H   0  0  0  0  0  0  0  0  0 21  0  0
   -0.9165    1.0616    0.1543 H   0  0  0  0  0  0  0  0  0 22  0  0
    0.7307    2.6076   -1.8956 H   0  0  0  0  0  0  0  0  0 23  0  0
   -1.0216    2.3348   -1.9747 H   0  0  0  0  0  0  0  0  0 24  0  0
   -0.6439    1.0744   -4.0048 H   0  0  0  0  0  0  0  0  0 25  0  0
    1.1047    1.3026   -3.8517 H   0  0  0  0  0  0  0  0  0 26  0  0
   -0.3451   -1.3969   -3.7430 H   0  0  0  0  0  0  0  0  0 27  0  0
    0.5927   -0.7830   -5.1142 H   0  0  0  0  0  0  0  0  0 28  0  0
    1.4023   -1.1701   -3.5872 H   0  0  0  0  0  0  0  0  0 29  0  0
  1  7  1  0
  1  2  1  0
  1  5  1  0
  1  6  1  0
  2  3  1  0
  3  4  1  0
  3  8  1  0
  3  9  1  0
  4 10  1  0
  4 11  1  0
  4 12  1  0
 13 19  1  0
 13 20  1  0
 13 14  1  0
 14 15  1  0
 14 22  1  0
 14 21  1  0
 15 16  1  0
 15 23  1  0
 15 24  1  0
 16 17  1  0
 17 18  1  0
 17 26  1  0
 17 25  1  0
 18 29  1  0
 18 28  1  0
 18 27  1  0
M  RAD  1  13   2
M  END
>  <rmg_smiles>  (3) 
CCOCC[CH2].CSCC

>  <rmg_adjacency_list>  (3) 
multiplicity 2
1  S u0 p2 c0 {5,S} {9,S}
2  O u0 p2 c0 {4,S} {6,S}
3  C u0 p0 c0 {4,S} {10,S} {11,S} {12,S}
4  C u0 p0 c0 {2,S} {3,S} {15,S} {16,S}
5  C u0 p0 c0 {1,S} {7,S} {13,S} {14,S}
6  C u0 p0 c0 {2,S} {8,S} {17,S} {18,S}
7  C u0 p0 c0 {5,S} {19,S} {20,S} {21,S}
8  C u0 p0 c0 {6,S} {22,S} {23,S} {24,S}
9  C u0 p0 c0 {1,S} {25,S} {26,S} {27,S}
10 C u1 p0 c0 {3,S} {28,S} {29,S}
11 H u0 p0 c0 {3,S}
12 H u0 p0 c0 {3,S}
13 H u0 p0 c0 {5,S}
14 H u0 p0 c0 {5,S}
15 H u0 p0 c0 {4,S}
16 H u0 p0 c0 {4,S}
17 H u0 p0 c0 {6,S}
18 H u0 p0 c0 {6,S}
19 H u0 p0 c0 {7,S}
20 H u0 p0 c0 {7,S}
21 H u0 p0 c0 {7,S}
22 H u0 p0 c0 {8,S}
23 H u0 p0 c0 {8,S}
24 H u0 p0 c0 {8,S}
25 H u0 p0 c0 {9,S}
26 H u0 p0 c0 {9,S}
27 H u0 p0 c0 {9,S}
28 H u0 p0 c0 {10,S}
29 H u0 p0 c0 {10,S}


>  <multiplicity>  (3) 
2

>  <reaction>  (3) 
rmg_rxn_524

>  <type>  (3) 
ts

>  <role_mapnums>  (3) 
{"*2": 5, "*1": 1, "*3": 13, "*0": 2, "*4": 14}

>  <role_mapidx>  (3) 
{"*2": 4, "*1": 0, "*3": 12, "*0": 1, "*4": 13}

>  <ordered_mapped_smiles>  (3) 
[C:1]([S:2][C:3]([C:4]([H:10])([H:11])[H:12])([H:8])[H:9])([H:5])([H:6])[H:7].[C:13]([C:14]([C:15]([O:16][C:17]([C:18]([H:27])([H:28])[H:29])([H:25])[H:26])([H:23])[H:24])([H:21])[H:22])([H:19])[H:20]

>  <mol_properties>  (3) 
{"0": {"label": "*1", "atom_type": "Cs"}, "1": {"label": "*0", "atom_type": "S2s"}, "4": {"label": "*2", "atom_type": "H0"}, "12": {"label": "*3", "atom_type": "Cs"}, "13": {"label": "*4", "atom_type": "Cs"}}

>  <level_of_theory>  (3) 
wb97xd/def2tzvp

>  <lot_method>  (3) 
wb97xd

>  <lot_basis>  (3) 
def2tzvp

>  <spin_multiplicity>  (3) 
2.0

>  <optical_isomers>  (3) 
2.0

>  <modes>  (3) 
IdealGasTranslation(mass=(163.116, 'amu')),         NonlinearRotor(             inertia = ([340.63, 1023.47, 1238.4

>  <frequency_value>  (3) 
-1757.78

>  <frequency_units>  (3) 
cm^-1

>  <frequency_list>  (3) 
unknown

>  <arkane_path>  (3) 
/home/calvin/Dropbox/PersonalFolders/Calvin/ATLAS_Converged/rmg_rxn_524/output/rxns/TS0/arkane/output.py

>  <path_exists>  (3) 
True

>  <E0_value>  (3) 
-2072570.0

>  <E0_units>  (3) 
kJ/mol

>  <thermo_class>  (3) 
unknown

>  <Cp0_value>  (3) 
unknown

>  <Cp0_units>  (3) 
unknown

>  <CpInf_value>  (3) 
unknown

>  <CpInf_units>  (3) 
unknown

>  <Tmin_value>  (3) 
unknown

>  <Tmin_units>  (3) 
unknown

>  <Tmax_value>  (3) 
unknown

>  <Tmax_units>  (3) 
unknown

>  <polynomials>  (3) 
unknown

>  <H298_value>  (3) 
unknown

>  <H298_units>  (3) 
unknown

>  <S298_value>  (3) 
unknown

>  <S298_units>  (3) 
unknown

>  <Cp_T_value_list>  (3) 
unknown

>  <Cp_T_units>  (3) 
unknown

>  <T_list>  (3) 
unknown

>  <T_units>  (3) 
unknown

>  <yaml_path>  (3) 
unknown

>  <frequencies_cm1>  (3) 
unknown

>  <ZPE_kJmol>  (3) 
unknown

>  <E_elec_kJmol>  (3) 
unknown

>  <E0_minus_Eelec_plus_ZPE_kJmol>  (3) 
unknown

>  <rxn>  (3) 
unknown

>  <species_type>  (3) 
unknown

>  <species_folder>  (3) 
unknown

>  <frequencies_cm1_list>  (3) 
[]

>  <ts_imag_freq_cm1>  (3) 
-1779.1283

>  <ts_freq_out_path>  (3) 
/home/calvin/Dropbox/PersonalFolders/Calvin/ATLAS_Converged/rmg_rxn_524/output/rxns/TS0/geometry/freq.out

>  <E0_kJmol>  (3) 
-2.07257e+06

>  <H298_kJmol>  (3) 
unknown

$$$$

     RDKit          3D

 11 10  0  0  0  0  0  0  0  0999 V2000
    2.2312    0.7411   -0.3115 C   0  0  0  0  0  3  0  0  0  1  0  0
    0.6426    1.1039   -0.7896 S   0  0  0  0  0  0  0  0  0  2  0  0
    0.9085    2.4168   -2.0061 C   0  0  0  0  0  0  0  0  0  3  0  0
    1.5570    1.9429   -3.2967 C   0  0  0  0  0  0  0  0  0  4  0  0
    2.3707   -0.0938    0.3575 H   0  0  0  0  0  0  0  0  0  5  0  0
    3.0432    1.4267   -0.5066 H   0  0  0  0  0  0  0  0  0  6  0  0
    1.4997    3.2005   -1.5289 H   0  0  0  0  0  0  0  0  0  7  0  0
   -0.0844    2.8269   -2.1951 H   0  0  0  0  0  0  0  0  0  8  0  0
    0.9451    1.1830   -3.7838 H   0  0  0  0  0  0  0  0  0  9  0  0
    1.6803    2.7812   -3.9857 H   0  0  0  0  0  0  0  0  0 10  0  0
    2.5399    1.5119   -3.1043 H   0  0  0  0  0  0  0  0  0 11  0  0
  1  5  1  0
  1  2  1  0
  1  6  1  0
  2  3  1  0
  3  4  1  0
  3  7  1  0
  3  8  1  0
  4  9  1  0
  4 10  1  0
  4 11  1  0
M  RAD  1   1   2
M  END
>  <rmg_smiles>  (4) 
[CH2]SCC

>  <rmg_adjacency_list>  (4) 
multiplicity 2
1  S u0 p2 c0 {2,S} {4,S}
2  C u0 p0 c0 {1,S} {3,S} {5,S} {6,S}
3  C u0 p0 c0 {2,S} {7,S} {8,S} {9,S}
4  C u1 p0 c0 {1,S} {10,S} {11,S}
5  H u0 p0 c0 {2,S}
6  H u0 p0 c0 {2,S}
7  H u0 p0 c0 {3,S}
8  H u0 p0 c0 {3,S}
9  H u0 p0 c0 {3,S}
10 H u0 p0 c0 {4,S}
11 H u0 p0 c0 {4,S}


>  <multiplicity>  (4) 
2

>  <reaction>  (4) 
rmg_rxn_524

>  <type>  (4) 
r1

>  <role_mapnums>  (4) 
{}

>  <role_mapidx>  (4) 
{}

>  <ordered_mapped_smiles>  (4) 
[C:1]([S:2][C:3]([C:4]([H:9])([H:10])[H:11])([H:7])[H:8])([H:5])[H:6]

>  <level_of_theory>  (4) 
wb97xd/def2tzvp

>  <lot_method>  (4) 
wb97xd

>  <lot_basis>  (4) 
def2tzvp

>  <spin_multiplicity>  (4) 
2.0

>  <optical_isomers>  (4) 
2.0

>  <modes>  (4) 
IdealGasTranslation(mass=(75.0268, 'amu')),         NonlinearRotor(             inertia = ([46.1764, 125.175, 150.124

>  <frequency_value>  (4) 
unknown

>  <frequency_units>  (4) 
unknown

>  <frequency_list>  (4) 
unknown

>  <arkane_path>  (4) 
/home/calvin/Dropbox/PersonalFolders/Calvin/ATLAS_Converged/rmg_rxn_524/output/Species/rmg_rxn_524_p1_sbr-CH2-sbrSCC/arkane/output.py

>  <path_exists>  (4) 
True

>  <E0_value>  (4) 
-1356326.828812391

>  <E0_units>  (4) 
kJ/mol

>  <thermo_class>  (4) 
NASA

>  <Cp0_value>  (4) 
33.257888

>  <Cp0_units>  (4) 
J/(mol*K)

>  <CpInf_value>  (4) 
257.748632

>  <CpInf_units>  (4) 
J/(mol*K)

>  <Tmin_value>  (4) 
10.0

>  <Tmin_units>  (4) 
K

>  <Tmax_value>  (4) 
3000.0

>  <Tmax_units>  (4) 
K

>  <polynomials>  (4) 
[{"name": "polynomial1", "class": "NASAPolynomial", "Tmin_value": 10.0, "Tmin_units": "K", "Tmax_value": 163.4983384736605, "Tmax_units": "K", "coeffs": [3.8835361135606306, 0.01179835617528283, 0.0001860962387176214, -8.310788830243038e-07, 1.2781022117046402e-09, -163128450.95392784, 10.667754233192833]}, {"name": "polynomial2", "class": "NASAPolynomial", "Tmin_value": 163.4983384736605, "Tmin_units": "K", "Tmax_value": 3000.0, "Tmax_units": "K", "coeffs": [2.9698107402056713, 0.03415257681811664, -1.8989116425627386e-05, 5.154010868808518e-09, -5.461082436872671e-13, -163128421.07521912, 13.421243662452813]}]

>  <H298_value>  (4) 
-324165.39986954443

>  <H298_units>  (4) 
kcal/mol

>  <S298_value>  (4) 
78.93032022623957

>  <S298_units>  (4) 
cal/(mol*K)

>  <Cp_T_value_list>  (4) 
[23.133663311616047, 27.638980468817827, 31.614348268428742, 35.109498731473295, 40.84505297373627, 45.19140833090281, 51.87260315815638, 55.269883733256364, 57.01130488605395]

>  <Cp_T_units>  (4) 
cal/(mol*K)

>  <T_list>  (4) 
[300.0, 400.0, 500.0, 600.0, 800.0, 1000.0, 1500.0, 2000.0, 2400.0]

>  <T_units>  (4) 
K

>  <yaml_path>  (4) 
/home/calvin/Dropbox/PersonalFolders/Calvin/ATLAS_Converged/rmg_rxn_524/output/Species/rmg_rxn_524_p1_sbr-CH2-sbrSCC/rmg_rxn_524_p1_sbr-CH2-sbrSCC.yml

>  <frequencies_cm1>  (4) 
[110.60653254923999, 205.67307731931996, 220.086879506, 285.94813571012, 367.82320168047994, 369.88329727648, 670.6023184099199, 763.8628460408399, 854.34224461716, 913.1854418242399, 983.7231150312799, 1058.73119568164, 1076.4068158953198, 1269.6918516973599, 1295.3263078969198, 1396.0581155559998, 1402.33454013848, 1458.69188865972, 1476.6353213008802, 1485.0748462591598, 3018.4589342445192, 3035.15257555744, 3083.1459359589203, 3092.3408293024, 3109.00013568872, 3136.8045592493995, 3260.19741846448]

>  <ZPE_kJmol>  (4) 
235.6631361203891

>  <E_elec_kJmol>  (4) 
-1356562.4919485117

>  <E0_minus_Eelec_plus_ZPE_kJmol>  (4) 
0.0

>  <rxn>  (4) 
rmg_rxn_524

>  <species_type>  (4) 
p0

>  <species_folder>  (4) 
rmg_rxn_524_p1_sbr-CH2-sbrSCC

>  <frequencies_cm1_list>  (4) 
[110.60653254923999, 205.67307731931996, 220.086879506, 285.94813571012, 367.82320168047994, 369.88329727648, 670.6023184099199, 763.8628460408399, 854.34224461716, 913.1854418242399, 983.7231150312799, 1058.73119568164, 1076.4068158953198, 1269.6918516973599, 1295.3263078969198, 1396.0581155559998, 1402.33454013848, 1458.69188865972, 1476.6353213008802, 1485.0748462591598, 3018.4589342445192, 3035.15257555744, 3083.1459359589203, 3092.3408293024, 3109.00013568872, 3136.8045592493995, 3260.19741846448]

>  <E0_kJmol>  (4) 
-1.35633e+06

>  <H298_kJmol>  (4) 
-1.35631e+06

$$$$

     RDKit          3D

 17 16  0  0  0  0  0  0  0  0999 V2000
    2.3128   -0.1525    1.1777 C   0  0  0  0  0  3  0  0  0  1  0  0
    1.7469    0.7266    0.1254 C   0  0  0  0  0  0  0  0  0  2  0  0
    1.6374    2.1830    0.5408 C   0  0  0  0  0  0  0  0  0  3  0  0
    2.9245    2.6874    0.7877 O   0  0  0  0  0  0  0  0  0  4  0  0
    2.9227    4.0197    1.2361 C   0  0  0  0  0  0  0  0  0  5  0  0
    4.3491    4.4603    1.4693 C   0  0  0  0  0  0  0  0  0  6  0  0
    2.1393   -1.2196    1.1557 H   0  0  0  0  0  0  0  0  0  7  0  0
    3.0313    0.2400    1.8838 H   0  0  0  0  0  0  0  0  0  8  0  0
    0.7555    0.3746   -0.1764 H   0  0  0  0  0  0  0  0  0  9  0  0
    2.3678    0.6841   -0.7826 H   0  0  0  0  0  0  0  0  0 10  0  0
    1.0170    2.2718    1.4449 H   0  0  0  0  0  0  0  0  0 11  0  0
    1.1499    2.7653   -0.2546 H   0  0  0  0  0  0  0  0  0 12  0  0
    2.4379    4.6655    0.4891 H   0  0  0  0  0  0  0  0  0 13  0  0
    2.3377    4.1015    2.1638 H   0  0  0  0  0  0  0  0  0 14  0  0
    4.9261    4.3920    0.5465 H   0  0  0  0  0  0  0  0  0 15  0  0
    4.3728    5.4939    1.8180 H   0  0  0  0  0  0  0  0  0 16  0  0
    4.8260    3.8299    2.2206 H   0  0  0  0  0  0  0  0  0 17  0  0
  1  8  1  0
  1  7  1  0
  1  2  1  0
  2 10  1  0
  2  9  1  0
  2  3  1  0
  3 11  1  0
  3  4  1  0
  3 12  1  0
  4  5  1  0
  5 13  1  0
  5  6  1  0
  5 14  1  0
  6 17  1  0
  6 15  1  0
  6 16  1  0
M  RAD  1   1   2
M  END
>  <rmg_smiles>  (5) 
[CH2]CCOCC

>  <rmg_adjacency_list>  (5) 
multiplicity 2
1  O u0 p2 c0 {3,S} {4,S}
2  C u0 p0 c0 {3,S} {6,S} {7,S} {8,S}
3  C u0 p0 c0 {1,S} {2,S} {9,S} {10,S}
4  C u0 p0 c0 {1,S} {5,S} {11,S} {12,S}
5  C u0 p0 c0 {4,S} {13,S} {14,S} {15,S}
6  C u1 p0 c0 {2,S} {16,S} {17,S}
7  H u0 p0 c0 {2,S}
8  H u0 p0 c0 {2,S}
9  H u0 p0 c0 {3,S}
10 H u0 p0 c0 {3,S}
11 H u0 p0 c0 {4,S}
12 H u0 p0 c0 {4,S}
13 H u0 p0 c0 {5,S}
14 H u0 p0 c0 {5,S}
15 H u0 p0 c0 {5,S}
16 H u0 p0 c0 {6,S}
17 H u0 p0 c0 {6,S}


>  <multiplicity>  (5) 
2

>  <reaction>  (5) 
rmg_rxn_524

>  <type>  (5) 
r2

>  <role_mapnums>  (5) 
{}

>  <role_mapidx>  (5) 
{}

>  <ordered_mapped_smiles>  (5) 
[C:1]([C:2]([C:3]([O:4][C:5]([C:6]([H:15])([H:16])[H:17])([H:13])[H:14])([H:11])[H:12])([H:9])[H:10])([H:7])[H:8]

>  <level_of_theory>  (5) 
wb97xd/def2tzvp

>  <lot_method>  (5) 
wb97xd

>  <lot_basis>  (5) 
def2tzvp

>  <spin_multiplicity>  (5) 
2.0

>  <optical_isomers>  (5) 
2.0

>  <modes>  (5) 
IdealGasTranslation(mass=(87.081, 'amu')),         NonlinearRotor(             inertia = ([56.1942, 309.598, 341.445

>  <frequency_value>  (5) 
unknown

>  <frequency_units>  (5) 
unknown

>  <frequency_list>  (5) 
unknown

>  <arkane_path>  (5) 
/home/calvin/Dropbox/PersonalFolders/Calvin/ATLAS_Converged/rmg_rxn_524/output/Species/rmg_rxn_524_r2_sbr-CH2-sbrCCOCC/arkane/output.py

>  <path_exists>  (5) 
True

>  <E0_value>  (5) 
-714594.9534761205

>  <E0_units>  (5) 
kJ/mol

>  <thermo_class>  (5) 
NASA

>  <Cp0_value>  (5) 
33.257888

>  <Cp0_units>  (5) 
J/(mol*K)

>  <CpInf_value>  (5) 
407.409128

>  <CpInf_units>  (5) 
J/(mol*K)

>  <Tmin_value>  (5) 
10.0

>  <Tmin_units>  (5) 
K

>  <Tmax_value>  (5) 
3000.0

>  <Tmax_units>  (5) 
K

>  <polynomials>  (5) 
[{"name": "polynomial1", "class": "NASAPolynomial", "Tmin_value": 10.0, "Tmin_units": "K", "Tmax_value": 428.2196342565028, "Tmax_units": "K", "coeffs": [3.449989296280544, 0.057423832316827995, -0.00013332000129952934, 3.4481867882035973e-07, -3.039663546787581e-10, -85945919.20509715, 12.33173677011069]}, {"name": "polynomial2", "class": "NASAPolynomial", "Tmin_value": 428.2196342565028, "Tmin_units": "K", "Tmax_value": 3000.0, "Tmax_units": "K", "coeffs": [-0.8337724645043922, 0.06365483127668993, -3.68065916523196e-05, 1.0327972414463865e-08, -1.1275406847880222e-12, -85945242.57829364, 32.98197379692207]}]

>  <H298_value>  (5) 
-170786.4494875034

>  <H298_units>  (5) 
kcal/mol

>  <S298_value>  (5) 
90.65975504557764

>  <S298_units>  (5) 
cal/(mol*K)

>  <Cp_T_value_list>  (5) 
[30.85399555380273, 38.5024812284313, 45.73063038026963, 52.05182606770565, 62.3187066664259, 69.97927600380646, 81.44044284908489, 87.10453068800588, 90.01380036436508]

>  <Cp_T_units>  (5) 
cal/(mol*K)

>  <T_list>  (5) 
[300.0, 400.0, 500.0, 600.0, 800.0, 1000.0, 1500.0, 2000.0, 2400.0]

>  <T_units>  (5) 
K

>  <yaml_path>  (5) 
/home/calvin/Dropbox/PersonalFolders/Calvin/ATLAS_Converged/rmg_rxn_524/output/Species/rmg_rxn_524_r2_sbr-CH2-sbrCCOCC/rmg_rxn_524_r2_sbr-CH2-sbrCCOCC.yml

>  <frequencies_cm1>  (5) 
[77.74114080771999, 86.7643595182, 154.72691323024, 159.93208810279998, 205.28852614139996, 250.85784072491998, 323.93629850035995, 437.44756583995996, 463.20562777527994, 521.1423829201199, 769.3220993702398, 823.3858747945999, 896.9312875718, 917.44297272264, 996.1248905191999, 1038.9886128866399, 1087.27038667156, 1111.9984008088798, 1157.1694302438398, 1177.7154503212798, 1186.02450255848, 1226.1551647685599, 1286.5434336726398, 1297.95636327448, 1365.48629691136, 1376.61081312976, 1398.7293728454802, 1437.088352843, 1439.70467424992, 1453.5004477578, 1470.50997039544, 1487.1830107523997, 1499.68779102012, 1519.27930013808, 2936.7761438631196, 2941.988185721, 2946.20451470748, 2969.2432504560797, 2976.1926395999203, 3024.23406889864, 3030.8195078205194, 3102.0438795595596, 3104.5915311132794, 3130.6998092999197, 3236.4651171985597]

>  <ZPE_kJmol>  (5) 
391.7837560230114

>  <E_elec_kJmol>  (5) 
-714986.7372321435

>  <E0_minus_Eelec_plus_ZPE_kJmol>  (5) 
0.0

>  <rxn>  (5) 
rmg_rxn_524

>  <species_type>  (5) 
r1

>  <species_folder>  (5) 
rmg_rxn_524_r2_sbr-CH2-sbrCCOCC

>  <frequencies_cm1_list>  (5) 
[77.74114080771999, 86.7643595182, 154.72691323024, 159.93208810279998, 205.28852614139996, 250.85784072491998, 323.93629850035995, 437.44756583995996, 463.20562777527994, 521.1423829201199, 769.3220993702398, 823.3858747945999, 896.9312875718, 917.44297272264, 996.1248905191999, 1038.9886128866399, 1087.27038667156, 1111.9984008088798, 1157.1694302438398, 1177.7154503212798, 1186.02450255848, 1226.1551647685599, 1286.5434336726398, 1297.95636327448, 1365.48629691136, 1376.61081312976, 1398.7293728454802, 1437.088352843, 1439.70467424992, 1453.5004477578, 1470.50997039544, 1487.1830107523997, 1499.68779102012, 1519.27930013808, 2936.7761438631196, 2941.988185721, 2946.20451470748, 2969.2432504560797, 2976.1926395999203, 3024.23406889864, 3030.8195078205194, 3102.0438795595596, 3104.5915311132794, 3130.6998092999197, 3236.4651171985597]

>  <E0_kJmol>  (5) 
-714595

>  <H298_kJmol>  (5) 
-714571

$$$$
