
     RDKit          3D

 10  9  0  0  0  0  0  0  0  0999 V2000
    0.9000    0.1324   -1.8352 C   0  0  0  0  0  0  0  0  0  1  0  0
    0.2456    0.0675   -0.5373 C   0  0  0  0  0  2  0  0  0  2  0  0
   -0.2937    0.0093    0.5389 C   0  0  0  0  0  2  0  0  0  3  0  0
   -0.8778   -0.1559    1.8221 C   0  0  0  0  0  0  0  0  0  4  0  0
    0.1663    0.1603   -2.6429 H   0  0  0  0  0  0  0  0  0  5  0  0
    1.5372   -0.7413   -1.9896 H   0  0  0  0  0  0  0  0  0  6  0  0
    1.5243    1.0243   -1.9155 H   0  0  0  0  0  0  0  0  0  7  0  0
   -1.9556   -0.3052    1.8223 H   0  0  0  0  0  0  0  0  0  8  0  0
   -0.5607    0.5669    2.5712 H   0  0  0  0  0  0  0  0  0  9  0  0
   -0.4981   -1.1037    2.1983 H   0  0  0  0  0  0  0  0  0 10  0  0
  1  5  1  0
  1  7  1  0
  1  6  1  0
  1  2  1  0
  2  3  1  0
  3  4  1  0
  4  8  1  0
  4  9  1  0
  4 10  1  0
M  RAD  2   2   3   3   3
M  END
>  <rmg_smiles>  (1) 
C[C][C]C

>  <rmg_adjacency_list>  (1) 
1  C u0 p0 c0 {3,S} {5,S} {6,S} {7,S}
2  C u0 p0 c0 {4,S} {8,S} {9,S} {10,S}
3  C u0 p1 c0 {1,S} {4,S}
4  C u0 p1 c0 {2,S} {3,S}
5  H u0 p0 c0 {1,S}
6  H u0 p0 c0 {1,S}
7  H u0 p0 c0 {1,S}
8  H u0 p0 c0 {2,S}
9  H u0 p0 c0 {2,S}
10 H u0 p0 c0 {2,S}


>  <multiplicity>  (1) 
1

>  <reaction>  (1) 
rmg_rxn_58

>  <type>  (1) 
r1h

>  <role_mapnums>  (1) 
{"r1h_a": 4, "r1h_h": 10}

>  <role_mapidx>  (1) 
{"r1h_a": 3, "r1h_h": 9}

>  <ordered_mapped_smiles>  (1) 
[C:1]([C:2][C:3][C:4]([H:8])([H:9])[H:10])([H:5])([H:6])[H:7]

>  <mol_properties>  (1) 
{"3": {"label": "donator", "atom_type": "Cs"}, "9": {"label": "d_hydrogen", "atom_type": "H0"}}

>  <level_of_theory>  (1) 
wb97xd/def2tzvp

>  <lot_method>  (1) 
wb97xd

>  <lot_basis>  (1) 
def2tzvp

>  <spin_multiplicity>  (1) 
1.0

>  <optical_isomers>  (1) 
1.0

>  <modes>  (1) 
IdealGasTranslation(mass=(54.047, 'amu')),         NonlinearRotor(             inertia = ([6.28531, 149.436, 149.436

>  <frequency_value>  (1) 
unknown

>  <frequency_units>  (1) 
unknown

>  <frequency_list>  (1) 
unknown

>  <arkane_path>  (1) 
/home/calvin/Dropbox/PersonalFolders/Calvin/ATLAS_Converged/rmg_rxn_58/output/Species/rmg_rxn_58_r1_CCtCC/arkane/output.py

>  <path_exists>  (1) 
True

>  <E0_value>  (1) 
-409307.71887411503

>  <E0_units>  (1) 
kJ/mol

>  <thermo_class>  (1) 
NASA

>  <Cp0_value>  (1) 
33.257888

>  <Cp0_units>  (1) 
J/(mol*K)

>  <CpInf_value>  (1) 
232.805216

>  <CpInf_units>  (1) 
J/(mol*K)

>  <Tmin_value>  (1) 
10.0

>  <Tmin_units>  (1) 
K

>  <Tmax_value>  (1) 
3000.0

>  <Tmax_units>  (1) 
K

>  <polynomials>  (1) 
[{"name": "polynomial1", "class": "NASAPolynomial", "Tmin_value": 10.0, "Tmin_units": "K", "Tmax_value": 459.52605216071686, "Tmax_units": "K", "coeffs": [3.685152454584519, 0.0320062876552588, -8.324087757708511e-05, 1.9567747029056846e-07, -1.564315572759374e-10, -49228347.15996269, 7.9265632668688015]}, {"name": "polynomial2", "class": "NASAPolynomial", "Tmin_value": 459.52605216071686, "Tmin_units": "K", "Tmax_value": 3000.0, "Tmax_units": "K", "coeffs": [1.3593996692287567, 0.03205778812495947, -1.749337030482703e-05, 4.664543752445668e-09, -4.875511665093206e-13, -49227920.206117146, 19.658400874924826]}]

>  <H298_value>  (1) 
-97822.72374975822

>  <H298_units>  (1) 
kcal/mol

>  <S298_value>  (1) 
71.89858677224395

>  <S298_units>  (1) 
cal/(mol*K)

>  <Cp_T_value_list>  (1) 
[19.497587575842502, 23.22614633758055, 26.961517951467627, 30.286644767603814, 35.76657448373718, 39.94446045611361, 46.42234821848613, 49.71399681159051, 51.35568257116428]

>  <Cp_T_units>  (1) 
cal/(mol*K)

>  <T_list>  (1) 
[300.0, 400.0, 500.0, 600.0, 800.0, 1000.0, 1500.0, 2000.0, 2400.0]

>  <T_units>  (1) 
K

>  <yaml_path>  (1) 
/home/calvin/Dropbox/PersonalFolders/Calvin/ATLAS_Converged/rmg_rxn_58/output/Species/rmg_rxn_58_r1_CCtCC/rmg_rxn_58_r1_CCtCC.yml

>  <frequencies_cm1>  (1) 
[13.637832845519998, 200.73571487424, 201.36061053836, 411.160746035, 411.62083405143994, 721.9467676475599, 1040.9663046588, 1041.41952568992, 1055.09169346204, 1055.5105795665597, 1163.1780423988398, 1403.93454771804, 1405.04013235456, 1467.77691023808, 1467.89364898852, 1467.9897867829998, 1468.13399347472, 2367.5717306883203, 3017.2709457841597, 3017.8477725510397, 3086.4695568537995, 3086.99144773812, 3087.2180582536794, 3087.7262151673594]

>  <ZPE_kJmol>  (1) 
219.80486601842264

>  <E_elec_kJmol>  (1) 
-409527.5237401335

>  <E0_minus_Eelec_plus_ZPE_kJmol>  (1) 
0.0

>  <rxn>  (1) 
rmg_rxn_58

>  <species_type>  (1) 
r0

>  <species_folder>  (1) 
rmg_rxn_58_r1_CCtCC

>  <frequencies_cm1_list>  (1) 
[13.637832845519998, 200.73571487424, 201.36061053836, 411.160746035, 411.62083405143994, 721.9467676475599, 1040.9663046588, 1041.41952568992, 1055.09169346204, 1055.5105795665597, 1163.1780423988398, 1403.93454771804, 1405.04013235456, 1467.77691023808, 1467.89364898852, 1467.9897867829998, 1468.13399347472, 2367.5717306883203, 3017.2709457841597, 3017.8477725510397, 3086.4695568537995, 3086.99144773812, 3087.2180582536794, 3087.7262151673594]

>  <E0_kJmol>  (1) 
-409308

>  <H298_kJmol>  (1) 
-409290

$$$$

     RDKit          3D

 15 14  0  0  0  0  0  0  0  0999 V2000
   -1.4547    0.9187    0.0882 H   0  0  0  0  0  0  0  0  0  1  0  0
    1.4802    1.8244    0.3135 C   0  0  0  0  0  0  0  0  0  2  0  0
    1.5716    0.3079    0.3569 C   0  0  0  0  0  0  0  0  0  3  0  0
    0.2583   -0.5616   -0.5325 S   0  0  0  0  0  0  0  0  0  4  0  0
   -1.1679   -0.0904    0.3878 C   0  0  0  0  0  0  0  0  0  5  0  0
   -2.3904   -0.9109    0.0597 C   0  0  0  0  0  0  0  0  0  6  0  0
    0.5955    2.1803    0.8419 H   0  0  0  0  0  0  0  0  0  7  0  0
    2.3565    2.2662    0.7931 H   0  0  0  0  0  0  0  0  0  8  0  0
    1.4197    2.1845   -0.7134 H   0  0  0  0  0  0  0  0  0  9  0  0
    1.5878   -0.0553    1.3868 H   0  0  0  0  0  0  0  0  0 10  0  0
    2.4908   -0.0359   -0.1201 H   0  0  0  0  0  0  0  0  0 11  0  0
   -0.9607    0.0005    1.4551 H   0  0  0  0  0  0  0  0  0 12  0  0
   -2.2705   -1.9568    0.3530 H   0  0  0  0  0  0  0  0  0 13  0  0
   -3.2611   -0.5096    0.5813 H   0  0  0  0  0  0  0  0  0 14  0  0
   -2.5992   -0.8821   -1.0120 H   0  0  0  0  0  0  0  0  0 15  0  0
  1  5  1  0
  2  9  1  0
  2  8  1  0
  2  7  1  0
  2  3  1  0
  3 11  1  0
  3 10  1  0
  3  4  1  0
  4  5  1  0
  5 12  1  0
  5  6  1  0
  6 15  1  0
  6 14  1  0
  6 13  1  0
M  END
>  <rmg_smiles>  (2) 
CCSCC

>  <rmg_adjacency_list>  (2) 
1  S u0 p2 c0 {2,S} {3,S}
2  C u0 p0 c0 {1,S} {4,S} {7,S} {8,S}
3  C u0 p0 c0 {1,S} {5,S} {6,S} {9,S}
4  C u0 p0 c0 {2,S} {10,S} {11,S} {12,S}
5  C u0 p0 c0 {3,S} {13,S} {14,S} {15,S}
6  H u0 p0 c0 {3,S}
7  H u0 p0 c0 {2,S}
8  H u0 p0 c0 {2,S}
9  H u0 p0 c0 {3,S}
10 H u0 p0 c0 {4,S}
11 H u0 p0 c0 {4,S}
12 H u0 p0 c0 {4,S}
13 H u0 p0 c0 {5,S}
14 H u0 p0 c0 {5,S}
15 H u0 p0 c0 {5,S}


>  <multiplicity>  (2) 
1

>  <reaction>  (2) 
rmg_rxn_58

>  <type>  (2) 
r2h

>  <role_mapnums>  (2) 
{"r2h_a": 5, "r2h_h": 1}

>  <role_mapidx>  (2) 
{"r2h_a": 4, "r2h_h": 0}

>  <ordered_mapped_smiles>  (2) 
[H:1][C:5]([S:4][C:3]([C:2]([H:7])([H:8])[H:9])([H:10])[H:11])([C:6]([H:13])([H:14])[H:15])[H:12]

>  <mol_properties>  (2) 
{"0": {"label": "a_hydrogen", "atom_type": "H0"}, "4": {"label": "acceptor", "atom_type": "Cs"}}

>  <level_of_theory>  (2) 
wb97xd/def2tzvp

>  <lot_method>  (2) 
wb97xd

>  <lot_basis>  (2) 
def2tzvp

>  <spin_multiplicity>  (2) 
1.0

>  <optical_isomers>  (2) 
2.0

>  <modes>  (2) 
IdealGasTranslation(mass=(90.0503, 'amu')),         NonlinearRotor(             inertia = ([97.9259, 182.785, 231.685

>  <frequency_value>  (2) 
unknown

>  <frequency_units>  (2) 
unknown

>  <frequency_list>  (2) 
unknown

>  <arkane_path>  (2) 
/home/calvin/Dropbox/PersonalFolders/Calvin/ATLAS_Converged/rmg_rxn_58/output/Species/rmg_rxn_58_p2_CCSCC/arkane/output.py

>  <path_exists>  (2) 
True

>  <E0_value>  (2) 
-1461176.7123028408

>  <E0_units>  (2) 
kJ/mol

>  <thermo_class>  (2) 
NASA

>  <Cp0_value>  (2) 
33.257888

>  <Cp0_units>  (2) 
J/(mol*K)

>  <CpInf_value>  (2) 
357.522296

>  <CpInf_units>  (2) 
J/(mol*K)

>  <Tmin_value>  (2) 
10.0

>  <Tmin_units>  (2) 
K

>  <Tmax_value>  (2) 
3000.0

>  <Tmax_units>  (2) 
K

>  <polynomials>  (2) 
[{"name": "polynomial1", "class": "NASAPolynomial", "Tmin_value": 10.0, "Tmin_units": "K", "Tmax_value": 1062.740332266501, "Tmax_units": "K", "coeffs": [3.7240768769611408, 0.031177750271788266, 1.590200165997747e-05, -3.1138888238628924e-08, 1.1081299545578661e-11, -175738967.30653694, 10.691637972640313]}, {"name": "polynomial2", "class": "NASAPolynomial", "Tmin_value": 1062.740332266501, "Tmin_units": "K", "Tmax_value": 3000.0, "Tmax_units": "K", "coeffs": [4.272256190616837, 0.04355880957526612, -2.1960566897444118e-05, 5.4018330156847166e-09, -5.231130586129144e-13, -175739899.50439465, 4.175990433518907]}]

>  <H298_value>  (2) 
-349224.4948454063

>  <H298_units>  (2) 
kcal/mol

>  <S298_value>  (2) 
82.77165630085062

>  <S298_units>  (2) 
cal/(mol*K)

>  <Cp_T_value_list>  (2) 
[27.339173580692723, 33.84270235009273, 39.920340825285514, 45.438637568785964, 54.52765007672161, 61.099128237827436, 71.10646466743047, 76.29375194018085, 78.77254304981717]

>  <Cp_T_units>  (2) 
cal/(mol*K)

>  <T_list>  (2) 
[300.0, 400.0, 500.0, 600.0, 800.0, 1000.0, 1500.0, 2000.0, 2400.0]

>  <T_units>  (2) 
K

>  <yaml_path>  (2) 
/home/calvin/Dropbox/PersonalFolders/Calvin/ATLAS_Converged/rmg_rxn_58/output/Species/rmg_rxn_58_p2_CCSCC/rmg_rxn_58_p2_CCSCC.yml

>  <frequencies_cm1>  (2) 
[66.48615186823999, 121.63491097315999, 224.63969077315997, 254.99863287287997, 273.62876404604003, 341.45397805167994, 381.0490154068, 647.6597204558, 701.8333676452798, 742.1151035324, 786.8329119362398, 985.17891591912, 988.88708799192, 1023.0091380469999, 1055.1809642711999, 1060.18699656948, 1093.14852610548, 1263.72444145428, 1273.9013136985197, 1289.2490258887199, 1308.3598460342798, 1399.5396771132398, 1399.8967603498797, 1460.7725852116798, 1462.4000607325202, 1478.53747623452, 1481.2362014652797, 1489.1538355392402, 1493.6723118798, 3015.6091353367196, 3016.10355827976, 3035.3242501904397, 3036.18262335544, 3073.69009717328, 3077.2334615983996, 3086.3528181033594, 3086.8953099436403, 3101.4052499247996, 3104.1520440527997]

>  <ZPE_kJmol>  (2) 
348.0016505911852

>  <E_elec_kJmol>  (2) 
-1461524.713953432

>  <E0_minus_Eelec_plus_ZPE_kJmol>  (2) 
0.0

>  <rxn>  (2) 
rmg_rxn_58

>  <species_type>  (2) 
p1

>  <species_folder>  (2) 
rmg_rxn_58_p2_CCSCC

>  <frequencies_cm1_list>  (2) 
[66.48615186823999, 121.63491097315999, 224.63969077315997, 254.99863287287997, 273.62876404604003, 341.45397805167994, 381.0490154068, 647.6597204558, 701.8333676452798, 742.1151035324, 786.8329119362398, 985.17891591912, 988.88708799192, 1023.0091380469999, 1055.1809642711999, 1060.18699656948, 1093.14852610548, 1263.72444145428, 1273.9013136985197, 1289.2490258887199, 1308.3598460342798, 1399.5396771132398, 1399.8967603498797, 1460.7725852116798, 1462.4000607325202, 1478.53747623452, 1481.2362014652797, 1489.1538355392402, 1493.6723118798, 3015.6091353367196, 3016.10355827976, 3035.3242501904397, 3036.18262335544, 3073.69009717328, 3077.2334615983996, 3086.3528181033594, 3086.8953099436403, 3101.4052499247996, 3104.1520440527997]

>  <E0_kJmol>  (2) 
-1.46118e+06

>  <H298_kJmol>  (2) 
-1.46116e+06

$$$$

     RDKit          3D

 24 22  0  0  0  0  0  0  0  0999 V2000
    0.1215    1.4115   -3.1099 C   0  0  0  0  0  0  0  0  0  1  0  0
   -0.5330    1.3466   -1.8119 C   0  0  0  0  0  3  0  0  0  2  0  0
   -1.0723    1.2884   -0.7358 C   0  0  0  0  0  0  0  0  0  3  0  0
   -1.6563    1.1232    0.5474 C   0  0  0  0  0  0  0  0  0  4  0  0
   -0.6122    1.4394   -3.9175 H   0  0  0  0  0  0  0  0  0  5  0  0
    0.7587    0.5378   -3.2643 H   0  0  0  0  0  0  0  0  0  6  0  0
    0.7457    2.3034   -3.1902 H   0  0  0  0  0  0  0  0  0  7  0  0
   -2.7342    0.9739    0.5476 H   0  0  0  0  0  0  0  0  0  8  0  0
   -1.3393    1.8460    1.2966 H   0  0  0  0  0  0  0  0  0  9  0  0
   -1.1823   -0.0601    1.0171 H   0  0  0  0  0  0  0  0  0 10  0  0
    1.8207    0.6060    1.3136 C   0  0  0  0  0  0  0  0  0 11  0  0
    1.9121   -0.9106    1.3570 C   0  0  0  0  0  0  0  0  0 12  0  0
    0.5988   -1.7800    0.4676 S   0  0  0  0  0  0  0  0  0 13  0  0
   -0.8275   -1.3089    1.3879 C   0  0  0  0  0  0  0  0  0 14  0  0
   -2.0500   -2.1293    1.0597 C   0  0  0  0  0  0  0  0  0 15  0  0
    0.9360    0.9619    1.8420 H   0  0  0  0  0  0  0  0  0 16  0  0
    2.6969    1.0478    1.7932 H   0  0  0  0  0  0  0  0  0 17  0  0
    1.7601    0.9661    0.2867 H   0  0  0  0  0  0  0  0  0 18  0  0
    1.9282   -1.2737    2.3868 H   0  0  0  0  0  0  0  0  0 19  0  0
    2.8312   -1.2543    0.8799 H   0  0  0  0  0  0  0  0  0 20  0  0
   -0.6203   -1.2179    2.4552 H   0  0  0  0  0  0  0  0  0 21  0  0
   -1.9301   -3.1752    1.3531 H   0  0  0  0  0  0  0  0  0 22  0  0
   -2.9207   -1.7280    1.5813 H   0  0  0  0  0  0  0  0  0 23  0  0
   -2.2587   -2.1006   -0.0119 H   0  0  0  0  0  0  0  0  0 24  0  0
  1  7  1  0
  1  5  1  0
  1  6  1  0
  1  2  1  0
  2  3  1  0
  3  4  1  0
  4  9  1  0
  4  8  1  0
 10 14  1  0
 11 17  1  0
 11 12  1  0
 11 16  1  0
 11 18  1  0
 12 19  1  0
 12 13  1  0
 12 20  1  0
 13 14  1  0
 14 15  1  0
 14 21  1  0
 15 23  1  0
 15 22  1  0
 15 24  1  0
M  RAD  1   2   2
M  END
>  <rmg_smiles>  (3) 
CCSCC.[CH2][C][C]C

>  <rmg_adjacency_list>  (3) 
multiplicity 2
1  S u0 p2 c0 {2,S} {3,S}
2  C u0 p0 c0 {1,S} {4,S} {11,S} {12,S}
3  C u0 p0 c0 {1,S} {5,S} {10,S} {13,S}
4  C u0 p0 c0 {2,S} {14,S} {15,S} {16,S}
5  C u0 p0 c0 {3,S} {17,S} {18,S} {19,S}
6  C u0 p0 c0 {8,S} {20,S} {21,S} {22,S}
7  C u0 p0 c0 {9,S} {23,S} {24,S}
8  C u1 p1 c0 {6,S} {9,S}
9  C u0 p1 c0 {7,S} {8,S}
10 H u0 p0 c0 {3,S}
11 H u0 p0 c0 {2,S}
12 H u0 p0 c0 {2,S}
13 H u0 p0 c0 {3,S}
14 H u0 p0 c0 {4,S}
15 H u0 p0 c0 {4,S}
16 H u0 p0 c0 {4,S}
17 H u0 p0 c0 {5,S}
18 H u0 p0 c0 {5,S}
19 H u0 p0 c0 {5,S}
20 H u0 p0 c0 {6,S}
21 H u0 p0 c0 {6,S}
22 H u0 p0 c0 {6,S}
23 H u0 p0 c0 {7,S}
24 H u0 p0 c0 {7,S}


>  <multiplicity>  (3) 
2

>  <reaction>  (3) 
rmg_rxn_58

>  <type>  (3) 
ts

>  <role_mapnums>  (3) 
{"*2": 10, "*1": 14, "*3": 4, "*0": 13, "*4": 3}

>  <role_mapidx>  (3) 
{"*2": 9, "*1": 13, "*3": 3, "*0": 12, "*4": 2}

>  <ordered_mapped_smiles>  (3) 
[C:1]([CH:2][CH2:3][CH:4]([H:8])[H:9])([H:5])([H:6])[H:7].[H:10][C:14]([S:13][C:12]([C:11]([H:16])([H:17])[H:18])([H:19])[H:20])([C:15]([H:22])([H:23])[H:24])[H:21]

>  <mol_properties>  (3) 
{"2": {"label": "*4", "atom_type": "C2s"}, "3": {"label": "*3", "atom_type": "Cs"}, "9": {"label": "*2", "atom_type": "H0"}, "12": {"label": "*0", "atom_type": "S2s"}, "13": {"label": "*1", "atom_type": "Cs"}}

>  <level_of_theory>  (3) 
wb97xd/def2tzvp

>  <lot_method>  (3) 
wb97xd

>  <lot_basis>  (3) 
def2tzvp

>  <spin_multiplicity>  (3) 
2.0

>  <optical_isomers>  (3) 
2.0

>  <modes>  (3) 
IdealGasTranslation(mass=(143.089, 'amu')),         NonlinearRotor(             inertia = ([373.271, 612.67, 746.542

>  <frequency_value>  (3) 
-1763.76

>  <frequency_units>  (3) 
cm^-1

>  <frequency_list>  (3) 
unknown

>  <arkane_path>  (3) 
/home/calvin/Dropbox/PersonalFolders/Calvin/ATLAS_Converged/rmg_rxn_58/output/rxns/TS0/arkane/output.py

>  <path_exists>  (3) 
True

>  <E0_value>  (3) 
-1868730.0

>  <E0_units>  (3) 
kJ/mol

>  <thermo_class>  (3) 
unknown

>  <Cp0_value>  (3) 
unknown

>  <Cp0_units>  (3) 
unknown

>  <CpInf_value>  (3) 
unknown

>  <CpInf_units>  (3) 
unknown

>  <Tmin_value>  (3) 
unknown

>  <Tmin_units>  (3) 
unknown

>  <Tmax_value>  (3) 
unknown

>  <Tmax_units>  (3) 
unknown

>  <polynomials>  (3) 
unknown

>  <H298_value>  (3) 
unknown

>  <H298_units>  (3) 
unknown

>  <S298_value>  (3) 
unknown

>  <S298_units>  (3) 
unknown

>  <Cp_T_value_list>  (3) 
unknown

>  <Cp_T_units>  (3) 
unknown

>  <T_list>  (3) 
unknown

>  <T_units>  (3) 
unknown

>  <yaml_path>  (3) 
unknown

>  <frequencies_cm1>  (3) 
unknown

>  <ZPE_kJmol>  (3) 
unknown

>  <E_elec_kJmol>  (3) 
unknown

>  <E0_minus_Eelec_plus_ZPE_kJmol>  (3) 
unknown

>  <rxn>  (3) 
unknown

>  <species_type>  (3) 
unknown

>  <species_folder>  (3) 
unknown

>  <frequencies_cm1_list>  (3) 
[]

>  <ts_imag_freq_cm1>  (3) 
-1785.1828

>  <ts_freq_out_path>  (3) 
/home/calvin/Dropbox/PersonalFolders/Calvin/ATLAS_Converged/rmg_rxn_58/output/rxns/TS0/geometry/freq.out

>  <E0_kJmol>  (3) 
-1.86873e+06

>  <H298_kJmol>  (3) 
unknown

$$$$

     RDKit          3D

  9  8  0  0  0  0  0  0  0  0999 V2000
    2.2285    0.1429   -0.1875 C   0  0  0  0  0  0  0  0  0  1  0  0
    0.8689    0.0588   -0.0734 C   0  0  0  0  0  0  0  0  0  2  0  0
   -0.3436   -0.0148    0.0282 C   0  0  0  0  0  3  0  0  0  3  0  0
   -1.7876   -0.1130    0.1500 C   0  0  0  0  0  0  0  0  0  4  0  0
    2.8646    0.0330    0.6803 H   0  0  0  0  0  0  0  0  0  5  0  0
    2.6934    0.3211   -1.1477 H   0  0  0  0  0  0  0  0  0  6  0  0
   -2.1322    0.3380    1.0826 H   0  0  0  0  0  0  0  0  0  7  0  0
   -2.1068   -1.1583    0.1470 H   0  0  0  0  0  0  0  0  0  8  0  0
   -2.2854    0.3923   -0.6795 H   0  0  0  0  0  0  0  0  0  9  0  0
  1  5  1  0
  1  6  1  0
  1  2  1  0
  2  3  1  0
  3  4  1  0
  4  8  1  0
  4  9  1  0
  4  7  1  0
M  RAD  1   3   2
M  END
>  <rmg_smiles>  (4) 
[CH2]C[C]C

>  <rmg_adjacency_list>  (4) 
multiplicity 2
1 C u0 p0 c0 {3,S} {5,S} {6,S} {7,S}
2 C u0 p0 c0 {4,S} {8,S} {9,S}
3 C u1 p1 c0 {1,S} {4,S}
4 C u0 p1 c0 {2,S} {3,S}
5 H u0 p0 c0 {1,S}
6 H u0 p0 c0 {1,S}
7 H u0 p0 c0 {1,S}
8 H u0 p0 c0 {2,S}
9 H u0 p0 c0 {2,S}


>  <multiplicity>  (4) 
2

>  <reaction>  (4) 
rmg_rxn_58

>  <type>  (4) 
r1

>  <role_mapnums>  (4) 
{}

>  <role_mapidx>  (4) 
{}

>  <ordered_mapped_smiles>  (4) 
[CH:1]([CH2:2][CH:3][C:4]([H:7])([H:8])[H:9])([H:5])[H:6]

>  <level_of_theory>  (4) 
wb97xd/def2tzvp

>  <lot_method>  (4) 
wb97xd

>  <lot_basis>  (4) 
def2tzvp

>  <spin_multiplicity>  (4) 
2.0

>  <optical_isomers>  (4) 
2.0

>  <modes>  (4) 
IdealGasTranslation(mass=(53.0391, 'amu')),         NonlinearRotor(             inertia = ([4.88746, 139.242, 140.992

>  <frequency_value>  (4) 
unknown

>  <frequency_units>  (4) 
unknown

>  <frequency_list>  (4) 
unknown

>  <arkane_path>  (4) 
/home/calvin/Dropbox/PersonalFolders/Calvin/ATLAS_Converged/rmg_rxn_58/output/Species/rmg_rxn_58_p1_sbr-CH2-sbrCtCC/arkane/output.py

>  <path_exists>  (4) 
True

>  <E0_value>  (4) 
-407625.4064849042

>  <E0_units>  (4) 
kJ/mol

>  <thermo_class>  (4) 
NASA

>  <Cp0_value>  (4) 
33.257888

>  <Cp0_units>  (4) 
J/(mol*K)

>  <CpInf_value>  (4) 
207.8618

>  <CpInf_units>  (4) 
J/(mol*K)

>  <Tmin_value>  (4) 
10.0

>  <Tmin_units>  (4) 
K

>  <Tmax_value>  (4) 
3000.0

>  <Tmax_units>  (4) 
K

>  <polynomials>  (4) 
[{"name": "polynomial1", "class": "NASAPolynomial", "Tmin_value": 10.0, "Tmin_units": "K", "Tmax_value": 502.02681672017746, "Tmax_units": "K", "coeffs": [3.6872708306254283, 0.02905362892588458, -4.470123419696922e-05, 7.503439442217303e-08, -5.158529069834182e-11, -49026010.75493381, 10.463726652875142]}, {"name": "polynomial2", "class": "NASAPolynomial", "Tmin_value": 502.02681672017746, "Tmin_units": "K", "Tmax_value": 3000.0, "Tmax_units": "K", "coeffs": [2.89846206737678, 0.02729908074769455, -1.5437590070255374e-05, 4.274702327424854e-09, -4.631616139282801e-13, -49025830.24365285, 14.734719791594486]}]

>  <H298_value>  (4) 
-97420.59795787682

>  <H298_units>  (4) 
kcal/mol

>  <S298_value>  (4) 
76.91244568160063

>  <S298_units>  (4) 
cal/(mol*K)

>  <Cp_T_value_list>  (4) 
[19.8488866808607, 23.12739289331374, 26.21919338964091, 28.980799697417396, 33.497556262468905, 36.9053925328209, 42.11858387894413, 44.77831245474619, 46.148163827512555]

>  <Cp_T_units>  (4) 
cal/(mol*K)

>  <T_list>  (4) 
[300.0, 400.0, 500.0, 600.0, 800.0, 1000.0, 1500.0, 2000.0, 2400.0]

>  <T_units>  (4) 
K

>  <yaml_path>  (4) 
/home/calvin/Dropbox/PersonalFolders/Calvin/ATLAS_Converged/rmg_rxn_58/output/Species/rmg_rxn_58_p1_sbr-CH2-sbrCtCC/rmg_rxn_58_p1_sbr-CH2-sbrCtCC.yml

>  <frequencies_cm1>  (4) 
[24.18552229704, 186.74766577739996, 206.32544092471997, 398.28514856, 428.84323323399997, 670.45124473288, 768.8002084859199, 1023.53102893132, 1025.11730254024, 1044.32426048028, 1244.297739984, 1401.51050190008, 1455.78715386936, 1460.16829050352, 1460.7931861676398, 2137.33544687936, 3007.2588811876003, 3071.0325738544398, 3085.0961597897995, 3128.557309880079, 3222.30539346872]

>  <ZPE_kJmol>  (4) 
182.1360065892337

>  <E_elec_kJmol>  (4) 
-407807.5424914934

>  <E0_minus_Eelec_plus_ZPE_kJmol>  (4) 
0.0

>  <rxn>  (4) 
rmg_rxn_58

>  <species_type>  (4) 
p0

>  <species_folder>  (4) 
rmg_rxn_58_p1_sbr-CH2-sbrCtCC

>  <frequencies_cm1_list>  (4) 
[24.18552229704, 186.74766577739996, 206.32544092471997, 398.28514856, 428.84323323399997, 670.45124473288, 768.8002084859199, 1023.53102893132, 1025.11730254024, 1044.32426048028, 1244.297739984, 1401.51050190008, 1455.78715386936, 1460.16829050352, 1460.7931861676398, 2137.33544687936, 3007.2588811876003, 3071.0325738544398, 3085.0961597897995, 3128.557309880079, 3222.30539346872]

>  <E0_kJmol>  (4) 
-407625

>  <H298_kJmol>  (4) 
-407608

$$$$

     RDKit          3D

 14 13  0  0  0  0  0  0  0  0999 V2000
    2.6194    0.1388   -0.2451 C   0  0  0  0  0  0  0  0  0  1  0  0
    1.2416   -0.4914   -0.3670 C   0  0  0  0  0  0  0  0  0  2  0  0
    0.9567   -1.8675    0.7732 S   0  0  0  0  0  0  0  0  0  3  0  0
    1.9992   -3.0673    0.1320 C   0  0  0  0  0  3  0  0  0  4  0  0
    2.1769   -4.3519    0.8615 C   0  0  0  0  0  0  0  0  0  5  0  0
    3.4009   -0.5920   -0.4552 H   0  0  0  0  0  0  0  0  0  6  0  0
    2.7219    0.9635   -0.9540 H   0  0  0  0  0  0  0  0  0  7  0  0
    2.7821    0.5262    0.7612 H   0  0  0  0  0  0  0  0  0  8  0  0
    1.0587   -0.8507   -1.3815 H   0  0  0  0  0  0  0  0  0  9  0  0
    0.4587    0.2313   -0.1333 H   0  0  0  0  0  0  0  0  0 10  0  0
    2.2677   -2.9922   -0.9152 H   0  0  0  0  0  0  0  0  0 11  0  0
    1.3745   -5.0711    0.6500 H   0  0  0  0  0  0  0  0  0 12  0  0
    3.1173   -4.8269    0.5747 H   0  0  0  0  0  0  0  0  0 13  0  0
    2.1945   -4.1971    1.9428 H   0  0  0  0  0  0  0  0  0 14  0  0
  1  8  1  0
  1  7  1  0
  1  6  1  0
  1  2  1  0
  2 10  1  0
  2  9  1  0
  2  3  1  0
  3  4  1  0
  4  5  1  0
  4 11  1  0
  5 12  1  0
  5 14  1  0
  5 13  1  0
M  RAD  1   4   2
M  END
>  <rmg_smiles>  (5) 
CCS[CH]C

>  <rmg_adjacency_list>  (5) 
multiplicity 2
1  S u0 p2 c0 {2,S} {5,S}
2  C u0 p0 c0 {1,S} {3,S} {6,S} {7,S}
3  C u0 p0 c0 {2,S} {8,S} {9,S} {10,S}
4  C u0 p0 c0 {5,S} {11,S} {12,S} {13,S}
5  C u1 p0 c0 {1,S} {4,S} {14,S}
6  H u0 p0 c0 {2,S}
7  H u0 p0 c0 {2,S}
8  H u0 p0 c0 {3,S}
9  H u0 p0 c0 {3,S}
10 H u0 p0 c0 {3,S}
11 H u0 p0 c0 {4,S}
12 H u0 p0 c0 {4,S}
13 H u0 p0 c0 {4,S}
14 H u0 p0 c0 {5,S}


>  <multiplicity>  (5) 
2

>  <reaction>  (5) 
rmg_rxn_58

>  <type>  (5) 
r2

>  <role_mapnums>  (5) 
{}

>  <role_mapidx>  (5) 
{}

>  <ordered_mapped_smiles>  (5) 
[C:1]([C:2]([S:3][C:4]([C:5]([H:12])([H:13])[H:14])[H:11])([H:9])[H:10])([H:6])([H:7])[H:8]

>  <level_of_theory>  (5) 
wb97xd/def2tzvp

>  <lot_method>  (5) 
wb97xd

>  <lot_basis>  (5) 
def2tzvp

>  <spin_multiplicity>  (5) 
2.0

>  <optical_isomers>  (5) 
2.0

>  <modes>  (5) 
IdealGasTranslation(mass=(89.0425, 'amu')),         NonlinearRotor(             inertia = ([61.1392, 234.583, 269.728

>  <frequency_value>  (5) 
unknown

>  <frequency_units>  (5) 
unknown

>  <frequency_list>  (5) 
unknown

>  <arkane_path>  (5) 
/home/calvin/Dropbox/PersonalFolders/Calvin/ATLAS_Converged/rmg_rxn_58/output/Species/rmg_rxn_58_r2_CCSsbr-CH-sbrC/arkane/output.py

>  <path_exists>  (5) 
True

>  <E0_value>  (5) 
-1459485.5932708492

>  <E0_units>  (5) 
kJ/mol

>  <thermo_class>  (5) 
NASA

>  <Cp0_value>  (5) 
33.257888

>  <Cp0_units>  (5) 
J/(mol*K)

>  <CpInf_value>  (5) 
332.57888

>  <CpInf_units>  (5) 
J/(mol*K)

>  <Tmin_value>  (5) 
10.0

>  <Tmin_units>  (5) 
K

>  <Tmax_value>  (5) 
3000.0

>  <Tmax_units>  (5) 
K

>  <polynomials>  (5) 
[{"name": "polynomial1", "class": "NASAPolynomial", "Tmin_value": 10.0, "Tmin_units": "K", "Tmax_value": 454.73652427014537, "Tmax_units": "K", "coeffs": [3.493929872758391, 0.04996954034356644, -9.706557814371871e-05, 2.0442141353294147e-07, -1.6137135098939988e-10, -175535569.76703313, 12.309949975756851]}, {"name": "polynomial2", "class": "NASAPolynomial", "Tmin_value": 454.73652427014537, "Tmin_units": "K", "Tmax_value": 3000.0, "Tmax_units": "K", "coeffs": [1.385626895078579, 0.048785175139354195, -2.8078373702267293e-05, 7.871486597778785e-09, -8.60198315864174e-13, -175535174.03261974, 23.062818681609528]}]

>  <H298_value>  (5) 
-348819.9985643355

>  <H298_units>  (5) 
kcal/mol

>  <S298_value>  (5) 
87.9960956943955

>  <S298_units>  (5) 
cal/(mol*K)

>  <Cp_T_value_list>  (5) 
[27.74370824131066, 33.58998475979596, 39.12570036512099, 43.99134046831092, 51.90875846619441, 57.83509485748177, 66.76728096321004, 71.24374186653883, 73.55591166534288]

>  <Cp_T_units>  (5) 
cal/(mol*K)

>  <T_list>  (5) 
[300.0, 400.0, 500.0, 600.0, 800.0, 1000.0, 1500.0, 2000.0, 2400.0]

>  <T_units>  (5) 
K

>  <yaml_path>  (5) 
/home/calvin/Dropbox/PersonalFolders/Calvin/ATLAS_Converged/rmg_rxn_58/output/Species/rmg_rxn_58_r2_CCSsbr-CH-sbrC/rmg_rxn_58_r2_CCSsbr-CH-sbrC.yml

>  <frequencies_cm1>  (5) 
[75.52310454936, 94.65452565087999, 130.82293733132, 178.45921449616, 258.28105185583996, 303.93277026320004, 399.92635805147995, 433.28617273604, 673.1087680517201, 749.4147089275599, 777.8920970496, 982.3977868645198, 1001.81075436416, 1020.13873818324, 1056.2934158930398, 1066.42908622536, 1115.65850398444, 1268.2978536774, 1291.53573200028, 1305.242234699, 1399.3061996123597, 1400.4461191754801, 1458.1905987313598, 1459.3785871917198, 1474.98037783876, 1476.0447605633601, 1485.12978214172, 2961.25694652892, 3017.9164424042397, 3034.9122310712396, 3037.7551629937198, 3080.4884126400793, 3082.99486228188, 3091.5030570933595, 3108.8215940703994, 3146.2535310497196]

>  <ZPE_kJmol>  (5) 
310.42196217621137

>  <E_elec_kJmol>  (5) 
-1459796.0152330254

>  <E0_minus_Eelec_plus_ZPE_kJmol>  (5) 
0.0

>  <rxn>  (5) 
rmg_rxn_58

>  <species_type>  (5) 
r1

>  <species_folder>  (5) 
rmg_rxn_58_r2_CCSsbr-CH-sbrC

>  <frequencies_cm1_list>  (5) 
[75.52310454936, 94.65452565087999, 130.82293733132, 178.45921449616, 258.28105185583996, 303.93277026320004, 399.92635805147995, 433.28617273604, 673.1087680517201, 749.4147089275599, 777.8920970496, 982.3977868645198, 1001.81075436416, 1020.13873818324, 1056.2934158930398, 1066.42908622536, 1115.65850398444, 1268.2978536774, 1291.53573200028, 1305.242234699, 1399.3061996123597, 1400.4461191754801, 1458.1905987313598, 1459.3785871917198, 1474.98037783876, 1476.0447605633601, 1485.12978214172, 2961.25694652892, 3017.9164424042397, 3034.9122310712396, 3037.7551629937198, 3080.4884126400793, 3082.99486228188, 3091.5030570933595, 3108.8215940703994, 3146.2535310497196]

>  <E0_kJmol>  (5) 
-1.45949e+06

>  <H298_kJmol>  (5) 
-1.45946e+06

$$$$
