
     RDKit          3D

  9  8  0  0  0  0  0  0  0  0999 V2000
    0.5662   -1.6595   -0.1623 C   0  0  0  0  0  0  0  0  0  1  0  0
    0.1849   -0.4737    0.7083 C   0  0  0  0  0  0  0  0  0  2  0  0
   -0.3872    0.9740   -0.2282 S   0  0  0  0  0  0  0  0  0  3  0  0
    1.3991   -1.4034   -0.8187 H   0  0  0  0  0  0  0  0  0  4  0  0
   -0.2724   -1.9711   -0.7862 H   0  0  0  0  0  0  0  0  0  5  0  0
    0.8692   -2.5068    0.4588 H   0  0  0  0  0  0  0  0  0  6  0  0
    1.0215   -0.1706    1.3377 H   0  0  0  0  0  0  0  0  0  7  0  0
   -0.6441   -0.7309    1.3704 H   0  0  0  0  0  0  0  0  0  8  0  0
    0.8134    1.2470   -0.7568 H   0  0  0  0  0  0  0  0  0  9  0  0
  1  5  1  0
  1  4  1  0
  1  6  1  0
  1  2  1  0
  2  7  1  0
  2  3  1  0
  2  8  1  0
  3  9  1  0
M  END
>  <rmg_smiles>  (1) 
CCS

>  <rmg_adjacency_list>  (1) 
1 S u0 p2 c0 {2,S} {9,S}
2 C u0 p0 c0 {1,S} {3,S} {4,S} {5,S}
3 C u0 p0 c0 {2,S} {6,S} {7,S} {8,S}
4 H u0 p0 c0 {2,S}
5 H u0 p0 c0 {2,S}
6 H u0 p0 c0 {3,S}
7 H u0 p0 c0 {3,S}
8 H u0 p0 c0 {3,S}
9 H u0 p0 c0 {1,S}


>  <multiplicity>  (1) 
1

>  <reaction>  (1) 
rmg_rxn_252

>  <type>  (1) 
r1h

>  <role_mapnums>  (1) 
{"r1h_a": 3, "r1h_h": 9}

>  <role_mapidx>  (1) 
{"r1h_a": 2, "r1h_h": 8}

>  <ordered_mapped_smiles>  (1) 
[C:1]([C:2]([S:3][H:9])([H:7])[H:8])([H:4])([H:5])[H:6]

>  <mol_properties>  (1) 
{"2": {"label": "donator", "atom_type": "S2s"}, "8": {"label": "d_hydrogen", "atom_type": "H0"}}

>  <level_of_theory>  (1) 
wb97xd/def2tzvp

>  <lot_method>  (1) 
wb97xd

>  <lot_basis>  (1) 
def2tzvp

>  <spin_multiplicity>  (1) 
1.0

>  <optical_isomers>  (1) 
2.0

>  <modes>  (1) 
IdealGasTranslation(mass=(62.019, 'amu')),         NonlinearRotor(             inertia = ([17.3187, 95.472, 104.033

>  <frequency_value>  (1) 
unknown

>  <frequency_units>  (1) 
unknown

>  <frequency_list>  (1) 
unknown

>  <arkane_path>  (1) 
/home/calvin/Dropbox/PersonalFolders/Calvin/ATLAS_Converged/rmg_rxn_252/output/Species/rmg_rxn_252_r1_CCS/arkane/output.py

>  <path_exists>  (1) 
True

>  <E0_value>  (1) 
-1254880.5539257105

>  <E0_units>  (1) 
kJ/mol

>  <thermo_class>  (1) 
NASA

>  <Cp0_value>  (1) 
33.257888

>  <Cp0_units>  (1) 
J/(mol*K)

>  <CpInf_value>  (1) 
207.8618

>  <CpInf_units>  (1) 
J/(mol*K)

>  <Tmin_value>  (1) 
10.0

>  <Tmin_units>  (1) 
K

>  <Tmax_value>  (1) 
3000.0

>  <Tmax_units>  (1) 
K

>  <polynomials>  (1) 
[{"name": "polynomial1", "class": "NASAPolynomial", "Tmin_value": 10.0, "Tmin_units": "K", "Tmax_value": 456.94594899547127, "Tmax_units": "K", "coeffs": [3.912577624338537, 0.00615582175220408, 5.7903930492959536e-05, -1.030503984599124e-07, 5.821320863281675e-11, -150927266.2322327, 9.021117452044235]}, {"name": "polynomial2", "class": "NASAPolynomial", "Tmin_value": 456.94594899547127, "Tmin_units": "K", "Tmax_value": 3000.0, "Tmax_units": "K", "coeffs": [1.355858308005039, 0.028536747355681385, -1.556509888997289e-05, 4.138064392594878e-09, -4.3071928406011676e-13, -150927032.57563502, 19.353413792179573]}]

>  <H298_value>  (1) 
-299920.1188186392

>  <H298_units>  (1) 
kcal/mol

>  <S298_value>  (1) 
69.39854649104443

>  <S298_units>  (1) 
cal/(mol*K)

>  <Cp_T_value_list>  (1) 
[17.20889854420324, 20.934361703682253, 24.290211996879982, 27.24951312622027, 32.12490060154891, 35.83897490418279, 41.58221214962001, 44.47758447480336, 45.91133080340105]

>  <Cp_T_units>  (1) 
cal/(mol*K)

>  <T_list>  (1) 
[300.0, 400.0, 500.0, 600.0, 800.0, 1000.0, 1500.0, 2000.0, 2400.0]

>  <T_units>  (1) 
K

>  <yaml_path>  (1) 
/home/calvin/Dropbox/PersonalFolders/Calvin/ATLAS_Converged/rmg_rxn_252/output/Species/rmg_rxn_252_r1_CCS/rmg_rxn_252_r1_CCS.yml

>  <frequencies_cm1>  (1) 
[202.32885546847996, 256.50936964327997, 331.52431727896, 667.1482247939599, 735.969151671, 875.5955641825599, 988.159187548, 1063.6273562148, 1117.6087278153198, 1273.38628979952, 1303.10660226448, 1402.5542836687198, 1466.616389719, 1477.4456255686398, 1483.85938985752, 2700.25656848636, 3013.3430301811195, 3044.51914353392, 3080.6051513905195, 3088.40604671404, 3107.9357529641197]

>  <ZPE_kJmol>  (1) 
195.4728851436989

>  <E_elec_kJmol>  (1) 
-1255076.0268108542

>  <E0_minus_Eelec_plus_ZPE_kJmol>  (1) 
0.0

>  <rxn>  (1) 
rmg_rxn_252

>  <species_type>  (1) 
r0

>  <species_folder>  (1) 
rmg_rxn_252_r1_CCS

>  <frequencies_cm1_list>  (1) 
[202.32885546847996, 256.50936964327997, 331.52431727896, 667.1482247939599, 735.969151671, 875.5955641825599, 988.159187548, 1063.6273562148, 1117.6087278153198, 1273.38628979952, 1303.10660226448, 1402.5542836687198, 1466.616389719, 1477.4456255686398, 1483.85938985752, 2700.25656848636, 3013.3430301811195, 3044.51914353392, 3080.6051513905195, 3088.40604671404, 3107.9357529641197]

>  <E0_kJmol>  (1) 
-1.25488e+06

>  <H298_kJmol>  (1) 
-1.25487e+06

$$$$

     RDKit          3D

 14 14  0  0  0  0  0  0  0  0999 V2000
   -1.6748   -0.1621   -0.8264 H   0  0  0  0  0  0  0  0  0  1  0  0
   -0.6869    0.1190   -1.1816 C   0  0  0  0  0  0  0  0  0  2  0  0
   -0.3708    1.3280   -0.3510 C   0  0  0  0  0  0  0  0  0  3  0  0
   -0.2319    0.9180    1.1190 C   0  0  0  0  0  0  0  0  0  4  0  0
    0.1785   -0.4434    1.2405 O   0  0  0  0  0  0  0  0  0  5  0  0
    0.9278   -0.8865    0.1709 C   0  0  0  0  0  0  0  0  0  6  0  0
    0.1711   -0.9330   -1.0291 O   0  0  0  0  0  0  0  0  0  7  0  0
   -0.9355    0.2645   -2.2295 H   0  0  0  0  0  0  0  0  0  8  0  0
    0.5562    1.7872   -0.7141 H   0  0  0  0  0  0  0  0  0  9  0  0
   -1.1622    2.0686   -0.4640 H   0  0  0  0  0  0  0  0  0 10  0  0
    0.4813    1.5624    1.6426 H   0  0  0  0  0  0  0  0  0 11  0  0
   -1.1979    0.9754    1.6187 H   0  0  0  0  0  0  0  0  0 12  0  0
    1.8060   -0.2458    0.0025 H   0  0  0  0  0  0  0  0  0 13  0  0
    1.2418   -1.9067    0.3777 H   0  0  0  0  0  0  0  0  0 14  0  0
  1  2  1  0
  2  7  1  0
  2  8  1  0
  2  3  1  0
  3  4  1  0
  3  9  1  0
  3 10  1  0
  4 11  1  0
  4 12  1  0
  4  5  1  0
  5  6  1  0
  6 14  1  0
  6 13  1  0
  6  7  1  0
M  END
>  <rmg_smiles>  (2) 
C1COCOC1

>  <rmg_adjacency_list>  (2) 
1  O u0 p2 c0 {5,S} {6,S}
2  O u0 p2 c0 {4,S} {6,S}
3  C u0 p0 c0 {4,S} {5,S} {7,S} {8,S}
4  C u0 p0 c0 {2,S} {3,S} {9,S} {10,S}
5  C u0 p0 c0 {1,S} {3,S} {11,S} {12,S}
6  C u0 p0 c0 {1,S} {2,S} {13,S} {14,S}
7  H u0 p0 c0 {3,S}
8  H u0 p0 c0 {3,S}
9  H u0 p0 c0 {4,S}
10 H u0 p0 c0 {4,S}
11 H u0 p0 c0 {5,S}
12 H u0 p0 c0 {5,S}
13 H u0 p0 c0 {6,S}
14 H u0 p0 c0 {6,S}


>  <multiplicity>  (2) 
1

>  <reaction>  (2) 
rmg_rxn_252

>  <type>  (2) 
r2h

>  <role_mapnums>  (2) 
{"r2h_a": 2, "r2h_h": 1}

>  <role_mapidx>  (2) 
{"r2h_a": 1, "r2h_h": 0}

>  <ordered_mapped_smiles>  (2) 
[H:1][C:2]1([H:8])[C:3]([H:9])([H:10])[C:4]([H:11])([H:12])[O:5][C:6]([H:13])([H:14])[O:7]1

>  <mol_properties>  (2) 
{"0": {"label": "a_hydrogen", "atom_type": "H0"}, "1": {"label": "acceptor", "atom_type": "Cs"}}

>  <level_of_theory>  (2) 
wb97xd/def2tzvp

>  <lot_method>  (2) 
wb97xd

>  <lot_basis>  (2) 
def2tzvp

>  <spin_multiplicity>  (2) 
1.0

>  <optical_isomers>  (2) 
1.0

>  <modes>  (2) 
IdealGasTranslation(mass=(88.0524, 'amu')),         NonlinearRotor(             inertia = ([100.123, 103.988, 181.806

>  <frequency_value>  (2) 
unknown

>  <frequency_units>  (2) 
unknown

>  <frequency_list>  (2) 
unknown

>  <arkane_path>  (2) 
/home/calvin/Dropbox/PersonalFolders/Calvin/ATLAS_Converged/rmg_rxn_252/output/Species/rmg_rxn_252_p2_C1COCOC1/arkane/output.py

>  <path_exists>  (2) 
True

>  <E0_value>  (2) 
-807534.4862541369

>  <E0_units>  (2) 
kJ/mol

>  <thermo_class>  (2) 
NASA

>  <Cp0_value>  (2) 
33.257888

>  <Cp0_units>  (2) 
J/(mol*K)

>  <CpInf_value>  (2) 
332.57888

>  <CpInf_units>  (2) 
J/(mol*K)

>  <Tmin_value>  (2) 
10.0

>  <Tmin_units>  (2) 
K

>  <Tmax_value>  (2) 
3000.0

>  <Tmax_units>  (2) 
K

>  <polynomials>  (2) 
[{"name": "polynomial1", "class": "NASAPolynomial", "Tmin_value": 10.0, "Tmin_units": "K", "Tmax_value": 635.616554573151, "Tmax_units": "K", "coeffs": [4.089858497697602, -0.00720848048360332, 0.00016188875003168496, -2.401508213073996e-07, 1.1440937882219611e-10, -97123964.81365098, 9.940070949440356]}, {"name": "polynomial2", "class": "NASAPolynomial", "Tmin_value": 635.616554573151, "Tmin_units": "K", "Tmax_value": 3000.0, "Tmax_units": "K", "coeffs": [-3.6233751272420895, 0.05886750722676344, -3.5427870905530145e-05, 1.0209382893823142e-08, -1.1338653155444558e-12, -97123338.5127768, 40.87012283464024]}]

>  <H298_value>  (2) 
-193001.58453999052

>  <H298_units>  (2) 
kcal/mol

>  <S298_value>  (2) 
72.30963326519604

>  <S298_units>  (2) 
cal/(mol*K)

>  <Cp_T_value_list>  (2) 
[21.739931113059615, 29.14813400113705, 35.94765005011551, 41.73053828287379, 50.792135881792035, 57.413930600437965, 66.93239440365458, 71.40703402864166, 73.74460734469625]

>  <Cp_T_units>  (2) 
cal/(mol*K)

>  <T_list>  (2) 
[300.0, 400.0, 500.0, 600.0, 800.0, 1000.0, 1500.0, 2000.0, 2400.0]

>  <T_units>  (2) 
K

>  <yaml_path>  (2) 
/home/calvin/Dropbox/PersonalFolders/Calvin/ATLAS_Converged/rmg_rxn_252/output/Species/rmg_rxn_252_p2_C1COCOC1/rmg_rxn_252_p2_C1COCOC1.yml

>  <frequencies_cm1>  (2) 
[264.26219606955993, 269.44676998615995, 439.22611503784, 466.70779028847994, 494.62208561427997, 656.81341188736, 851.50617968, 900.41284912904, 919.12538412604, 926.80954069912, 1013.8966485273598, 1037.6289497932798, 1094.57685905204, 1112.95291176836, 1188.75069573052, 1216.28730686372, 1226.8487302858798, 1252.366447735, 1315.55644664964, 1328.3633742714399, 1363.72148168412, 1380.93701388136, 1404.8272558096398, 1432.53554157584, 1460.95799381532, 1489.42164796672, 1490.0946125280798, 1506.58911126672, 2894.63345495428, 2944.5289702893997, 2950.530715459079, 3031.06671929204, 3080.8454958767197, 3088.2893079635996, 3091.87387430064, 3110.9160245929997]

>  <ZPE_kJmol>  (2) 
321.1850391352071

>  <E_elec_kJmol>  (2) 
-807855.671293272

>  <E0_minus_Eelec_plus_ZPE_kJmol>  (2) 
0.0

>  <rxn>  (2) 
rmg_rxn_252

>  <species_type>  (2) 
p1

>  <species_folder>  (2) 
rmg_rxn_252_p2_C1COCOC1

>  <frequencies_cm1_list>  (2) 
[264.26219606955993, 269.44676998615995, 439.22611503784, 466.70779028847994, 494.62208561427997, 656.81341188736, 851.50617968, 900.41284912904, 919.12538412604, 926.80954069912, 1013.8966485273598, 1037.6289497932798, 1094.57685905204, 1112.95291176836, 1188.75069573052, 1216.28730686372, 1226.8487302858798, 1252.366447735, 1315.55644664964, 1328.3633742714399, 1363.72148168412, 1380.93701388136, 1404.8272558096398, 1432.53554157584, 1460.95799381532, 1489.42164796672, 1490.0946125280798, 1506.58911126672, 2894.63345495428, 2944.5289702893997, 2950.530715459079, 3031.06671929204, 3080.8454958767197, 3088.2893079635996, 3091.87387430064, 3110.9160245929997]

>  <E0_kJmol>  (2) 
-807534

>  <H298_kJmol>  (2) 
-807519

$$$$

     RDKit          3D

 22 21  0  0  0  0  0  0  0  0999 V2000
   -1.2869   -2.6119   -0.5733 C   0  0  0  0  0  0  0  0  0  1  0  0
   -1.6682   -1.4261    0.2973 C   0  0  0  0  0  0  0  0  0  2  0  0
   -2.2403    0.0216   -0.6392 S   0  0  0  0  0  1  0  0  0  3  0  0
   -0.4540   -2.3558   -1.2297 H   0  0  0  0  0  0  0  0  0  4  0  0
   -2.1255   -2.9235   -1.1972 H   0  0  0  0  0  0  0  0  0  5  0  0
   -0.9839   -3.4592    0.0478 H   0  0  0  0  0  0  0  0  0  6  0  0
   -0.8315   -1.1230    0.9267 H   0  0  0  0  0  0  0  0  0  7  0  0
   -2.4972   -1.6833    0.9594 H   0  0  0  0  0  0  0  0  0  8  0  0
   -0.8850    0.3298   -1.2359 H   0  0  0  0  0  0  0  0  0  9  0  0
    0.4589    0.7121   -1.7191 C   0  0  0  0  0  0  0  0  0 10  0  0
    0.7749    1.9212   -0.8884 C   0  0  0  0  0  0  0  0  0 11  0  0
    0.9138    1.5111    0.5816 C   0  0  0  0  0  0  0  0  0 12  0  0
    1.3242    0.1497    0.7030 O   0  0  0  0  0  0  0  0  0 13  0  0
    2.0735   -0.2934   -0.3666 C   0  0  0  0  0  0  0  0  0 14  0  0
    1.3168   -0.3399   -1.5666 O   0  0  0  0  0  0  0  0  0 15  0  0
    0.2102    0.8577   -2.7670 H   0  0  0  0  0  0  0  0  0 16  0  0
    1.7019    2.3803   -1.2516 H   0  0  0  0  0  0  0  0  0 17  0  0
   -0.0165    2.6617   -1.0015 H   0  0  0  0  0  0  0  0  0 18  0  0
    1.6270    2.1555    1.1051 H   0  0  0  0  0  0  0  0  0 19  0  0
   -0.0522    1.5685    1.0812 H   0  0  0  0  0  0  0  0  0 20  0  0
    2.9517    0.3473   -0.5350 H   0  0  0  0  0  0  0  0  0 21  0  0
    2.3875   -1.3136   -0.1597 H   0  0  0  0  0  0  0  0  0 22  0  0
  1  4  1  0
  1  5  1  0
  1  6  1  0
  1  2  1  0
  2  8  1  0
  2  3  1  0
  2  7  1  0
  9 10  1  0
 10 16  1  0
 10 11  1  0
 10 15  1  0
 11 17  1  0
 11 12  1  0
 11 18  1  0
 12 19  1  0
 12 13  1  0
 12 20  1  0
 13 14  1  0
 14 22  1  0
 14 21  1  0
 14 15  1  0
M  RAD  1   3   2
M  END
>  <rmg_smiles>  (3) 
C1CCOCO1.CC[S]

>  <rmg_adjacency_list>  (3) 
multiplicity 2
1  S u1 p2 c0 {8,S}
2  O u0 p2 c0 {6,S} {9,S}
3  O u0 p2 c0 {5,S} {9,S}
4  C u0 p0 c0 {5,S} {6,S} {10,S} {11,S}
5  C u0 p0 c0 {3,S} {4,S} {12,S} {13,S}
6  C u0 p0 c0 {2,S} {4,S} {14,S} {15,S}
7  C u0 p0 c0 {8,S} {16,S} {17,S} {18,S}
8  C u0 p0 c0 {1,S} {7,S} {19,S} {20,S}
9  C u0 p0 c0 {2,S} {3,S} {21,S} {22,S}
10 H u0 p0 c0 {4,S}
11 H u0 p0 c0 {4,S}
12 H u0 p0 c0 {5,S}
13 H u0 p0 c0 {5,S}
14 H u0 p0 c0 {6,S}
15 H u0 p0 c0 {6,S}
16 H u0 p0 c0 {7,S}
17 H u0 p0 c0 {7,S}
18 H u0 p0 c0 {7,S}
19 H u0 p0 c0 {8,S}
20 H u0 p0 c0 {8,S}
21 H u0 p0 c0 {9,S}
22 H u0 p0 c0 {9,S}


>  <multiplicity>  (3) 
2

>  <reaction>  (3) 
rmg_rxn_252

>  <type>  (3) 
ts

>  <role_mapnums>  (3) 
{"*2": 9, "*1": 3, "*3": 10, "*0": 15, "*4": 2}

>  <role_mapidx>  (3) 
{"*2": 8, "*1": 2, "*3": 9, "*0": 14, "*4": 1}

>  <ordered_mapped_smiles>  (3) 
[C:1]([C:2]([S:3])([H:7])[H:8])([H:4])([H:5])[H:6].[H:9][C:10]1([H:16])[C:11]([H:17])([H:18])[C:12]([H:19])([H:20])[O:13][C:14]([H:21])([H:22])[O:15]1

>  <mol_properties>  (3) 
{"1": {"label": "*4", "atom_type": "Cs"}, "2": {"label": "*1", "atom_type": "S2s"}, "8": {"label": "*2", "atom_type": "H0"}, "9": {"label": "*3", "atom_type": "Cs"}, "14": {"label": "*0", "atom_type": "O2s"}}

>  <level_of_theory>  (3) 
wb97xd/def2tzvp

>  <lot_method>  (3) 
wb97xd

>  <lot_basis>  (3) 
def2tzvp

>  <spin_multiplicity>  (3) 
2.0

>  <optical_isomers>  (3) 
2.0

>  <modes>  (3) 
IdealGasTranslation(mass=(149.064, 'amu')),         NonlinearRotor(             inertia = ([274.637, 540.044, 613.808

>  <frequency_value>  (3) 
-1107.12

>  <frequency_units>  (3) 
cm^-1

>  <frequency_list>  (3) 
unknown

>  <arkane_path>  (3) 
/home/calvin/Dropbox/PersonalFolders/Calvin/ATLAS_Converged/rmg_rxn_252/output/rxns/TS0/arkane/output.py

>  <path_exists>  (3) 
True

>  <E0_value>  (3) 
-2060700.0

>  <E0_units>  (3) 
kJ/mol

>  <thermo_class>  (3) 
unknown

>  <Cp0_value>  (3) 
unknown

>  <Cp0_units>  (3) 
unknown

>  <CpInf_value>  (3) 
unknown

>  <CpInf_units>  (3) 
unknown

>  <Tmin_value>  (3) 
unknown

>  <Tmin_units>  (3) 
unknown

>  <Tmax_value>  (3) 
unknown

>  <Tmax_units>  (3) 
unknown

>  <polynomials>  (3) 
unknown

>  <H298_value>  (3) 
unknown

>  <H298_units>  (3) 
unknown

>  <S298_value>  (3) 
unknown

>  <S298_units>  (3) 
unknown

>  <Cp_T_value_list>  (3) 
unknown

>  <Cp_T_units>  (3) 
unknown

>  <T_list>  (3) 
unknown

>  <T_units>  (3) 
unknown

>  <yaml_path>  (3) 
unknown

>  <frequencies_cm1>  (3) 
unknown

>  <ZPE_kJmol>  (3) 
unknown

>  <E_elec_kJmol>  (3) 
unknown

>  <E0_minus_Eelec_plus_ZPE_kJmol>  (3) 
unknown

>  <rxn>  (3) 
unknown

>  <species_type>  (3) 
unknown

>  <species_folder>  (3) 
unknown

>  <frequencies_cm1_list>  (3) 
[]

>  <ts_imag_freq_cm1>  (3) 
-1120.5664

>  <ts_freq_out_path>  (3) 
/home/calvin/Dropbox/PersonalFolders/Calvin/ATLAS_Converged/rmg_rxn_252/output/rxns/TS0/geometry/freq.out

>  <E0_kJmol>  (3) 
-2.0607e+06

>  <H298_kJmol>  (3) 
unknown

$$$$

     RDKit          3D

  8  7  0  0  0  0  0  0  0  0999 V2000
    0.8136   -0.0249    0.0404 C   0  0  0  0  0  0  0  0  0  1  0  0
   -0.7034   -0.1038   -0.0095 C   0  0  0  0  0  0  0  0  0  2  0  0
   -1.5481    1.4368   -0.3594 S   0  0  0  0  0  1  0  0  0  3  0  0
    1.1410    0.6704    0.8138 H   0  0  0  0  0  0  0  0  0  4  0  0
    1.2160    0.3193   -0.9127 H   0  0  0  0  0  0  0  0  0  5  0  0
    1.2398   -1.0069    0.2586 H   0  0  0  0  0  0  0  0  0  6  0  0
   -1.1164   -0.4724    0.9353 H   0  0  0  0  0  0  0  0  0  7  0  0
   -1.0424   -0.8185   -0.7666 H   0  0  0  0  0  0  0  0  0  8  0  0
  1  5  1  0
  1  4  1  0
  1  6  1  0
  1  2  1  0
  2  8  1  0
  2  3  1  0
  2  7  1  0
M  RAD  1   3   2
M  END
>  <rmg_smiles>  (4) 
CC[S]

>  <rmg_adjacency_list>  (4) 
multiplicity 2
1 S u1 p2 c0 {3,S}
2 C u0 p0 c0 {3,S} {4,S} {5,S} {6,S}
3 C u0 p0 c0 {1,S} {2,S} {7,S} {8,S}
4 H u0 p0 c0 {2,S}
5 H u0 p0 c0 {2,S}
6 H u0 p0 c0 {2,S}
7 H u0 p0 c0 {3,S}
8 H u0 p0 c0 {3,S}


>  <multiplicity>  (4) 
2

>  <reaction>  (4) 
rmg_rxn_252

>  <type>  (4) 
r1

>  <role_mapnums>  (4) 
{}

>  <role_mapidx>  (4) 
{}

>  <ordered_mapped_smiles>  (4) 
[C:1]([C:2]([S:3])([H:7])[H:8])([H:4])([H:5])[H:6]

>  <level_of_theory>  (4) 
wb97xd/def2tzvp

>  <lot_method>  (4) 
wb97xd

>  <lot_basis>  (4) 
def2tzvp

>  <spin_multiplicity>  (4) 
2.0

>  <optical_isomers>  (4) 
1.0

>  <modes>  (4) 
IdealGasTranslation(mass=(61.0112, 'amu')),         NonlinearRotor(             inertia = ([15.0526, 92.9571, 101.83

>  <frequency_value>  (4) 
unknown

>  <frequency_units>  (4) 
unknown

>  <frequency_list>  (4) 
unknown

>  <arkane_path>  (4) 
/home/calvin/Dropbox/PersonalFolders/Calvin/ATLAS_Converged/rmg_rxn_252/output/Species/rmg_rxn_252_p1_CCsbr-S-sbr/arkane/output.py

>  <path_exists>  (4) 
True

>  <E0_value>  (4) 
-1253208.922166764

>  <E0_units>  (4) 
kJ/mol

>  <thermo_class>  (4) 
NASA

>  <Cp0_value>  (4) 
33.257888

>  <Cp0_units>  (4) 
J/(mol*K)

>  <CpInf_value>  (4) 
182.918384

>  <CpInf_units>  (4) 
J/(mol*K)

>  <Tmin_value>  (4) 
10.0

>  <Tmin_units>  (4) 
K

>  <Tmax_value>  (4) 
3000.0

>  <Tmax_units>  (4) 
K

>  <polynomials>  (4) 
[{"name": "polynomial1", "class": "NASAPolynomial", "Tmin_value": 10.0, "Tmin_units": "K", "Tmax_value": 440.0978211440308, "Tmax_units": "K", "coeffs": [3.971330343368945, 0.0017395741729326751, 6.639241915662955e-05, -1.1831165105009355e-07, 6.904672716608172e-11, -150726216.8935369, 8.832661563473982]}, {"name": "polynomial2", "class": "NASAPolynomial", "Tmin_value": 440.0978211440308, "Tmin_units": "K", "Tmax_value": 3000.0, "Tmax_units": "K", "coeffs": [1.368746051664327, 0.025402724389837854, -1.4288628355994027e-05, 3.9493425383134495e-09, -4.2938772330649123e-13, -150725987.89802116, 19.251592870167155]}]

>  <H298_value>  (4) 
-299520.8480182593

>  <H298_units>  (4) 
kcal/mol

>  <S298_value>  (4) 
67.59786735546184

>  <S298_units>  (4) 
cal/(mol*K)

>  <Cp_T_value_list>  (4) 
[15.566552068405397, 18.849841267539052, 21.78928655320196, 24.370869647603786, 28.60065014531565, 31.800862034182526, 36.72094220077885, 39.23583864602479, 40.50412199817051]

>  <Cp_T_units>  (4) 
cal/(mol*K)

>  <T_list>  (4) 
[300.0, 400.0, 500.0, 600.0, 800.0, 1000.0, 1500.0, 2000.0, 2400.0]

>  <T_units>  (4) 
K

>  <yaml_path>  (4) 
/home/calvin/Dropbox/PersonalFolders/Calvin/ATLAS_Converged/rmg_rxn_252/output/Species/rmg_rxn_252_p1_CCsbr-S-sbr/rmg_rxn_252_p1_CCsbr-S-sbr.yml

>  <frequencies_cm1>  (4) 
[226.21909739676, 334.16123964184, 489.39630978575997, 681.8229724227999, 904.8283206898, 980.8458481821998, 1069.55356454596, 1246.44023940384, 1278.3648541565199, 1403.29591808328, 1419.59814123296, 1475.8250170331198, 1482.36925404308, 2999.6708624089997, 3016.93446350348, 3020.6083006496797, 3090.0403892202, 3104.2962507445195]

>  <ZPE_kJmol>  (4) 
168.8186791184933

>  <E_elec_kJmol>  (4) 
-1253377.7408458826

>  <E0_minus_Eelec_plus_ZPE_kJmol>  (4) 
0.0

>  <rxn>  (4) 
rmg_rxn_252

>  <species_type>  (4) 
p0

>  <species_folder>  (4) 
rmg_rxn_252_p1_CCsbr-S-sbr

>  <frequencies_cm1_list>  (4) 
[226.21909739676, 334.16123964184, 489.39630978575997, 681.8229724227999, 904.8283206898, 980.8458481821998, 1069.55356454596, 1246.44023940384, 1278.3648541565199, 1403.29591808328, 1419.59814123296, 1475.8250170331198, 1482.36925404308, 2999.6708624089997, 3016.93446350348, 3020.6083006496797, 3090.0403892202, 3104.2962507445195]

>  <E0_kJmol>  (4) 
-1.25321e+06

>  <H298_kJmol>  (4) 
-1.2532e+06

$$$$

     RDKit          3D

 13 13  0  0  0  0  0  0  0  0999 V2000
   -0.9087    1.0135    0.2744 C   0  0  0  0  0  3  0  0  0  1  0  0
   -1.1528   -0.4306   -0.0132 C   0  0  0  0  0  0  0  0  0  2  0  0
    0.1597   -1.1985    0.0580 C   0  0  0  0  0  0  0  0  0  3  0  0
    1.1497   -0.5125   -0.6902 O   0  0  0  0  0  0  0  0  0  4  0  0
    1.3593    0.7608   -0.1866 C   0  0  0  0  0  0  0  0  0  5  0  0
    0.2092    1.5798   -0.2538 O   0  0  0  0  0  0  0  0  0  6  0  0
   -1.7260    1.7182    0.3534 H   0  0  0  0  0  0  0  0  0  7  0  0
   -1.8796   -0.8393    0.6913 H   0  0  0  0  0  0  0  0  0  8  0  0
   -1.5725   -0.5507   -1.0227 H   0  0  0  0  0  0  0  0  0  9  0  0
    0.4914   -1.2968    1.1007 H   0  0  0  0  0  0  0  0  0 10  0  0
    0.0732   -2.1931   -0.3758 H   0  0  0  0  0  0  0  0  0 11  0  0
    1.6805    0.7077    0.8652 H   0  0  0  0  0  0  0  0  0 12  0  0
    2.1167    1.2415   -0.8007 H   0  0  0  0  0  0  0  0  0 13  0  0
  1  6  1  0
  1  7  1  0
  1  2  1  0
  2  9  1  0
  2  8  1  0
  2  3  1  0
  3 11  1  0
  3  4  1  0
  3 10  1  0
  4  5  1  0
  5 13  1  0
  5  6  1  0
  5 12  1  0
M  RAD  1   1   2
M  END
>  <rmg_smiles>  (5) 
[CH]1CCOCO1

>  <rmg_adjacency_list>  (5) 
multiplicity 2
1  O u0 p2 c0 {4,S} {5,S}
2  O u0 p2 c0 {5,S} {6,S}
3  C u0 p0 c0 {4,S} {6,S} {7,S} {8,S}
4  C u0 p0 c0 {1,S} {3,S} {9,S} {10,S}
5  C u0 p0 c0 {1,S} {2,S} {11,S} {12,S}
6  C u1 p0 c0 {2,S} {3,S} {13,S}
7  H u0 p0 c0 {3,S}
8  H u0 p0 c0 {3,S}
9  H u0 p0 c0 {4,S}
10 H u0 p0 c0 {4,S}
11 H u0 p0 c0 {5,S}
12 H u0 p0 c0 {5,S}
13 H u0 p0 c0 {6,S}


>  <multiplicity>  (5) 
2

>  <reaction>  (5) 
rmg_rxn_252

>  <type>  (5) 
r2

>  <role_mapnums>  (5) 
{}

>  <role_mapidx>  (5) 
{}

>  <ordered_mapped_smiles>  (5) 
[C:1]1([H:7])[C:2]([H:8])([H:9])[C:3]([H:10])([H:11])[O:4][C:5]([H:12])([H:13])[O:6]1

>  <level_of_theory>  (5) 
wb97xd/def2tzvp

>  <lot_method>  (5) 
wb97xd

>  <lot_basis>  (5) 
def2tzvp

>  <spin_multiplicity>  (5) 
2.0

>  <optical_isomers>  (5) 
2.0

>  <modes>  (5) 
IdealGasTranslation(mass=(87.0446, 'amu')),         NonlinearRotor(             inertia = ([96.9848, 100.571, 180.326

>  <frequency_value>  (5) 
unknown

>  <frequency_units>  (5) 
unknown

>  <frequency_list>  (5) 
unknown

>  <arkane_path>  (5) 
/home/calvin/Dropbox/PersonalFolders/Calvin/ATLAS_Converged/rmg_rxn_252/output/Species/rmg_rxn_252_r2_sbr-CH-sbr1CCOCO1/arkane/output.py

>  <path_exists>  (5) 
True

>  <E0_value>  (5) 
-805827.3421493819

>  <E0_units>  (5) 
kJ/mol

>  <thermo_class>  (5) 
NASA

>  <Cp0_value>  (5) 
33.257888

>  <Cp0_units>  (5) 
J/(mol*K)

>  <CpInf_value>  (5) 
307.635464

>  <CpInf_units>  (5) 
J/(mol*K)

>  <Tmin_value>  (5) 
10.0

>  <Tmin_units>  (5) 
K

>  <Tmax_value>  (5) 
3000.0

>  <Tmax_units>  (5) 
K

>  <polynomials>  (5) 
[{"name": "polynomial1", "class": "NASAPolynomial", "Tmin_value": 10.0, "Tmin_units": "K", "Tmax_value": 594.5881445366083, "Tmax_units": "K", "coeffs": [4.0448110838926565, -0.004287247298286005, 0.0001561678296055211, -2.5056792670345e-07, 1.28608989510542e-10, -96918641.31425966, 11.310846190181683]}, {"name": "polynomial2", "class": "NASAPolynomial", "Tmin_value": 594.5881445366083, "Tmin_units": "K", "Tmax_value": 3000.0, "Tmax_units": "K", "coeffs": [-2.0223142792396813, 0.05358769196829288, -3.287284368824778e-05, 9.64252563065185e-09, -1.0874709432735165e-12, -96918221.37894577, 34.89119071361758]}]

>  <H298_value>  (5) 
-192593.46110107773

>  <H298_units>  (5) 
kcal/mol

>  <S298_value>  (5) 
75.62180337642914

>  <S298_units>  (5) 
cal/(mol*K)

>  <Cp_T_value_list>  (5) 
[22.038399005889005, 28.959178246137498, 35.09449573071628, 40.21693905885679, 48.29063691328946, 54.14658537653456, 62.464910648605866, 66.37739659151993, 68.47747700545682]

>  <Cp_T_units>  (5) 
cal/(mol*K)

>  <T_list>  (5) 
[300.0, 400.0, 500.0, 600.0, 800.0, 1000.0, 1500.0, 2000.0, 2400.0]

>  <T_units>  (5) 
K

>  <yaml_path>  (5) 
/home/calvin/Dropbox/PersonalFolders/Calvin/ATLAS_Converged/rmg_rxn_252/output/Species/rmg_rxn_252_r2_sbr-CH-sbr1CCOCO1/rmg_rxn_252_r2_sbr-CH-sbr1CCOCO1.yml

>  <frequencies_cm1>  (5) 
[225.5461328354, 251.49647035968, 410.99593838732, 475.95761951452, 495.8306750306, 591.7830609069599, 728.8686888501201, 860.14484721256, 919.0292463315599, 933.8413336668, 1002.5523887787199, 1034.68988007632, 1061.81447209032, 1129.37187366848, 1164.5789074041202, 1229.20410625064, 1259.04115746604, 1263.30555534976, 1323.45347976764, 1354.19010605996, 1364.1609687445998, 1410.3689129628801, 1445.48667588936, 1452.1064497378397, 1489.32551017224, 1505.45605868892, 2941.13667954132, 2947.4199711091196, 2972.12051730516, 3065.6282564076, 3096.83183770168, 3120.1177849217997, 3169.457074446]

>  <ZPE_kJmol>  (5) 
285.28140433887154

>  <E_elec_kJmol>  (5) 
-806112.6235537208

>  <E0_minus_Eelec_plus_ZPE_kJmol>  (5) 
0.0

>  <rxn>  (5) 
rmg_rxn_252

>  <species_type>  (5) 
r1

>  <species_folder>  (5) 
rmg_rxn_252_r2_sbr-CH-sbr1CCOCO1

>  <frequencies_cm1_list>  (5) 
[225.5461328354, 251.49647035968, 410.99593838732, 475.95761951452, 495.8306750306, 591.7830609069599, 728.8686888501201, 860.14484721256, 919.0292463315599, 933.8413336668, 1002.5523887787199, 1034.68988007632, 1061.81447209032, 1129.37187366848, 1164.5789074041202, 1229.20410625064, 1259.04115746604, 1263.30555534976, 1323.45347976764, 1354.19010605996, 1364.1609687445998, 1410.3689129628801, 1445.48667588936, 1452.1064497378397, 1489.32551017224, 1505.45605868892, 2941.13667954132, 2947.4199711091196, 2972.12051730516, 3065.6282564076, 3096.83183770168, 3120.1177849217997, 3169.457074446]

>  <E0_kJmol>  (5) 
-805827

>  <H298_kJmol>  (5) 
-805811

$$$$
