
     RDKit          3D

 19 18  0  0  0  0  0  0  0  0999 V2000
    2.0061   -2.6153    0.2859 C   0  0  0  0  0  0  0  0  0  1  0  0
    1.4874   -1.2431    0.0076 C   0  0  0  0  0  0  0  0  0  2  0  0
    0.2291   -0.8606    0.2105 C   0  0  0  0  0  0  0  0  0  3  0  0
   -0.3180    0.4763   -0.0585 C   0  0  0  0  0  0  0  0  0  4  0  0
    0.6286    1.5260   -0.5846 C   0  0  0  0  0  0  0  0  0  5  0  0
   -1.6048    0.7291    0.1688 C   0  0  0  0  0  0  0  0  0  6  0  0
   -2.4613    1.9266    0.0004 C   0  0  0  0  0  0  0  0  0  7  0  0
    2.4124   -3.0686   -0.6220 H   0  0  0  0  0  0  0  0  0  8  0  0
    1.2231   -3.2684    0.6724 H   0  0  0  0  0  0  0  0  0  9  0  0
    2.8202   -2.5843    1.0150 H   0  0  0  0  0  0  0  0  0 10  0  0
    2.2081   -0.5329   -0.3868 H   0  0  0  0  0  0  0  0  0 11  0  0
   -0.4709   -1.5893    0.6105 H   0  0  0  0  0  0  0  0  0 12  0  0
    1.4454    1.6881    0.1221 H   0  0  0  0  0  0  0  0  0 13  0  0
    1.0719    1.2025   -1.5291 H   0  0  0  0  0  0  0  0  0 14  0  0
    0.1323    2.4789   -0.7515 H   0  0  0  0  0  0  0  0  0 15  0  0
   -2.1969   -0.1085    0.5375 H   0  0  0  0  0  0  0  0  0 16  0  0
   -1.9429    2.7453   -0.5035 H   0  0  0  0  0  0  0  0  0 17  0  0
   -2.8083    2.2936    0.9698 H   0  0  0  0  0  0  0  0  0 18  0  0
   -3.3509    1.6824   -0.5857 H   0  0  0  0  0  0  0  0  0 19  0  0
  1 10  1  0
  1  8  1  0
  1  9  1  0
  1  2  1  0
  2 11  1  0
  2  3  1  0
  3  4  1  0
  3 12  1  0
  4  5  1  0
  4  6  1  0
  5 13  1  0
  5 14  1  0
  5 15  1  0
  6  7  1  0
  6 16  1  0
  7 19  1  0
  7 18  1  0
  7 17  1  0
M  END
>  <rmg_smiles>  (1) 
C[CH][CH]C(C)[CH]C

>  <rmg_adjacency_list>  (1) 
1  C u0 p0 c0 {4,S} {11,S} {12,S} {13,S}
2  C u0 p0 c0 {6,S} {8,S} {9,S} {10,S}
3  C u0 p0 c0 {5,S} {14,S} {15,S} {16,S}
4  C u0 p0 c0 {1,S} {5,S} {7,S}
5  C u0 p0 c0 {3,S} {4,S} {18,S}
6  C u0 p0 c0 {2,S} {7,S} {17,S}
7  C u0 p0 c0 {4,S} {6,S} {19,S}
8  H u0 p0 c0 {2,S}
9  H u0 p0 c0 {2,S}
10 H u0 p0 c0 {2,S}
11 H u0 p0 c0 {1,S}
12 H u0 p0 c0 {1,S}
13 H u0 p0 c0 {1,S}
14 H u0 p0 c0 {3,S}
15 H u0 p0 c0 {3,S}
16 H u0 p0 c0 {3,S}
17 H u0 p0 c0 {6,S}
18 H u0 p0 c0 {5,S}
19 H u0 p0 c0 {7,S}


>  <multiplicity>  (1) 
1

>  <reaction>  (1) 
rmg_rxn_15493

>  <type>  (1) 
r1h

>  <role_mapnums>  (1) 
{"r1h_a": 6, "r1h_h": 16}

>  <role_mapidx>  (1) 
{"r1h_a": 5, "r1h_h": 15}

>  <ordered_mapped_smiles>  (1) 
[C:1]([CH:2]([CH:3]([CH:4]([C:5]([H:13])([H:14])[H:15])[CH:6]([C:7]([H:17])([H:18])[H:19])[H:16])[H:12])[H:11])([H:8])([H:9])[H:10]

>  <mol_properties>  (1) 
{"5": {"label": "donator", "atom_type": "Cs"}, "15": {"label": "d_hydrogen", "atom_type": "H0"}}

>  <level_of_theory>  (1) 
wb97xd/def2tzvp

>  <lot_method>  (1) 
wb97xd

>  <lot_basis>  (1) 
def2tzvp

>  <spin_multiplicity>  (1) 
1.0

>  <optical_isomers>  (1) 
1.0

>  <modes>  (1) 
IdealGasTranslation(mass=(96.0939, 'amu')),         NonlinearRotor(             inertia = ([72.7896, 426.149, 489.618

>  <frequency_value>  (1) 
unknown

>  <frequency_units>  (1) 
unknown

>  <frequency_list>  (1) 
unknown

>  <arkane_path>  (1) 
/home/calvin/Dropbox/PersonalFolders/Calvin/ZEUS_Converged/rmg_rxn_15493/output/Species/rmg_rxn_15493_r2_CC=CCrbr-C-rbr=CC/arkane/output.py

>  <path_exists>  (1) 
True

>  <E0_value>  (1) 
-718824.520310405

>  <E0_units>  (1) 
kJ/mol

>  <thermo_class>  (1) 
NASA

>  <Cp0_value>  (1) 
33.257888

>  <Cp0_units>  (1) 
J/(mol*K)

>  <CpInf_value>  (1) 
457.29596

>  <CpInf_units>  (1) 
J/(mol*K)

>  <Tmin_value>  (1) 
10.0

>  <Tmin_units>  (1) 
K

>  <Tmax_value>  (1) 
3000.0

>  <Tmax_units>  (1) 
K

>  <polynomials>  (1) 
[{"name": "polynomial1", "class": "NASAPolynomial", "Tmin_value": 10.0, "Tmin_units": "K", "Tmax_value": 454.75172719283506, "Tmax_units": "K", "coeffs": [3.4115575059028473, 0.05796193994481998, -7.81420730201156e-05, 1.8421664239423442e-07, -1.6136171660253165e-10, -86454618.3957937, 11.474863184303345]}, {"name": "polynomial2", "class": "NASAPolynomial", "Tmin_value": 454.75172719283506, "Tmin_units": "K", "Tmax_value": 3000.0, "Tmax_units": "K", "coeffs": [-0.8988496008520183, 0.07134322958274006, -4.1357833205933336e-05, 1.1658447851539688e-08, -1.2795086782050336e-12, -86453972.69171806, 31.662585196643054]}]

>  <H298_value>  (1) 
-171796.84388099247

>  <H298_units>  (1) 
kcal/mol

>  <S298_value>  (1) 
91.4526335624786

>  <S298_units>  (1) 
cal/(mol*K)

>  <Cp_T_value_list>  (1) 
[34.64530064801372, 43.22692198117749, 51.291078712237926, 58.36558359105597, 69.85380471812378, 78.42607024181639, 91.27362442221083, 97.67461891205346, 100.98812162361888]

>  <Cp_T_units>  (1) 
cal/(mol*K)

>  <T_list>  (1) 
[300.0, 400.0, 500.0, 600.0, 800.0, 1000.0, 1500.0, 2000.0, 2400.0]

>  <T_units>  (1) 
K

>  <yaml_path>  (1) 
/home/calvin/Dropbox/PersonalFolders/Calvin/ZEUS_Converged/rmg_rxn_15493/output/Species/rmg_rxn_15493_r2_CC=CCrbr-C-rbr=CC/rmg_rxn_15493_r2_CC=CCrbr-C-rbr=CC.yml

>  <frequencies_cm1>  (1) 
[91.83219468435999, 96.04165668552001, 161.86171097772, 166.06430599356, 173.78966447855998, 210.17781968923998, 306.72076630312, 314.92681376051996, 371.77858522479994, 446.48451852108, 502.33371012863995, 595.0929478311999, 800.2990701487599, 805.9986679643599, 885.0308020122399, 931.3005490984, 982.0132356866, 998.3909956747999, 1035.5963221385598, 1051.5757969782, 1058.67625979908, 1062.1509543710001, 1096.7948953103999, 1129.104061241, 1252.8128017807999, 1319.2646187224398, 1337.3385240846799, 1370.9867521526799, 1401.64784160648, 1404.86845772156, 1420.5663861630799, 1465.7648835393202, 1466.0944988346798, 1472.46706121164, 1473.22242959684, 1479.55379006188, 1481.9641019091998, 1708.83556291136, 1736.0768936758, 3002.67860197916, 3008.1035203819597, 3015.8220118816403, 3057.30547019976, 3057.9715677757995, 3068.7183998016, 3087.9596926682398, 3101.65246139632, 3108.38210700992, 3117.2954539552798, 3126.73755877028, 3133.7212828407196]

>  <ZPE_kJmol>  (1) 
442.330413202482

>  <E_elec_kJmol>  (1) 
-719266.8507236075

>  <E0_minus_Eelec_plus_ZPE_kJmol>  (1) 
0.0

>  <rxn>  (1) 
rmg_rxn_15493

>  <species_type>  (1) 
r1

>  <species_folder>  (1) 
rmg_rxn_15493_r2_CC=CCrbr-C-rbr=CC

>  <frequencies_cm1_list>  (1) 
[91.83219468435999, 96.04165668552001, 161.86171097772, 166.06430599356, 173.78966447855998, 210.17781968923998, 306.72076630312, 314.92681376051996, 371.77858522479994, 446.48451852108, 502.33371012863995, 595.0929478311999, 800.2990701487599, 805.9986679643599, 885.0308020122399, 931.3005490984, 982.0132356866, 998.3909956747999, 1035.5963221385598, 1051.5757969782, 1058.67625979908, 1062.1509543710001, 1096.7948953103999, 1129.104061241, 1252.8128017807999, 1319.2646187224398, 1337.3385240846799, 1370.9867521526799, 1401.64784160648, 1404.86845772156, 1420.5663861630799, 1465.7648835393202, 1466.0944988346798, 1472.46706121164, 1473.22242959684, 1479.55379006188, 1481.9641019091998, 1708.83556291136, 1736.0768936758, 3002.67860197916, 3008.1035203819597, 3015.8220118816403, 3057.30547019976, 3057.9715677757995, 3068.7183998016, 3087.9596926682398, 3101.65246139632, 3108.38210700992, 3117.2954539552798, 3126.73755877028, 3133.7212828407196]

>  <E0_kJmol>  (1) 
-718825

>  <H298_kJmol>  (1) 
-718798

$$$$

     RDKit          3D

  6  5  0  0  0  0  0  0  0  0999 V2000
    0.2893   -0.1592   -1.0598 O   0  0  0  0  0  0  0  0  0  1  0  0
   -0.3196   -0.3684    0.1485 N   0  0  0  0  0  0  0  0  0  2  0  0
   -0.0950    0.4398    1.0780 C   0  0  0  0  0  0  0  0  0  3  0  0
    0.8552    0.6288   -0.9876 H   0  0  0  0  0  0  0  0  0  4  0  0
   -0.5663    0.2928    2.0443 H   0  0  0  0  0  0  0  0  0  5  0  0
    0.5478    1.2965    0.9034 H   0  0  0  0  0  0  0  0  0  6  0  0
  1  4  1  0
  1  2  1  0
  2  3  1  0
  3  6  1  0
  3  5  1  0
M  END
>  <rmg_smiles>  (2) 
[CH2][N]O

>  <rmg_adjacency_list>  (2) 
1 O u0 p2 c0 {2,S} {6,S}
2 N u0 p1 c0 {1,S} {3,S}
3 C u0 p0 c0 {2,S} {4,S} {5,S}
4 H u0 p0 c0 {3,S}
5 H u0 p0 c0 {3,S}
6 H u0 p0 c0 {1,S}


>  <multiplicity>  (2) 
1

>  <reaction>  (2) 
rmg_rxn_15493

>  <type>  (2) 
r2h

>  <role_mapnums>  (2) 
{"r2h_a": 3, "r2h_h": 6}

>  <role_mapidx>  (2) 
{"r2h_a": 2, "r2h_h": 5}

>  <ordered_mapped_smiles>  (2) 
[O:1]([NH:2][CH:3]([H:5])[H:6])[H:4]

>  <mol_properties>  (2) 
{"2": {"label": "acceptor", "atom_type": "Cs"}, "5": {"label": "a_hydrogen", "atom_type": "H0"}}

>  <level_of_theory>  (2) 
wb97xd/def2tzvp

>  <lot_method>  (2) 
wb97xd

>  <lot_basis>  (2) 
def2tzvp

>  <spin_multiplicity>  (2) 
1.0

>  <optical_isomers>  (2) 
1.0

>  <modes>  (2) 
IdealGasTranslation(mass=(45.0215, 'amu')),         NonlinearRotor(             inertia = ([7.10552, 42.1368, 49.2423

>  <frequency_value>  (2) 
unknown

>  <frequency_units>  (2) 
unknown

>  <frequency_list>  (2) 
unknown

>  <arkane_path>  (2) 
/home/calvin/Dropbox/PersonalFolders/Calvin/ZEUS_Converged/rmg_rxn_15493/output/Species/rmg_rxn_15493_p1_ON=C/arkane/output.py

>  <path_exists>  (2) 
True

>  <E0_value>  (2) 
-445765.04652910994

>  <E0_units>  (2) 
kJ/mol

>  <thermo_class>  (2) 
NASA

>  <Cp0_value>  (2) 
33.257888

>  <Cp0_units>  (2) 
J/(mol*K)

>  <CpInf_value>  (2) 
133.031552

>  <CpInf_units>  (2) 
J/(mol*K)

>  <Tmin_value>  (2) 
10.0

>  <Tmin_units>  (2) 
K

>  <Tmax_value>  (2) 
3000.0

>  <Tmax_units>  (2) 
K

>  <polynomials>  (2) 
[{"name": "polynomial1", "class": "NASAPolynomial", "Tmin_value": 10.0, "Tmin_units": "K", "Tmax_value": 555.0008285415723, "Tmax_units": "K", "coeffs": [4.0729558966761115, -0.006525504673073184, 8.044401869233928e-05, -1.3643340673050255e-07, 7.605604608176978e-11, -53613151.050707266, 6.598063650688069]}, {"name": "polynomial2", "class": "NASAPolynomial", "Tmin_value": 555.0008285415723, "Tmin_units": "K", "Tmax_value": 3000.0, "Tmax_units": "K", "coeffs": [1.9629419554542669, 0.01794293278685335, -1.0716899102514014e-05, 3.1351804200574135e-09, -3.5588210478784073e-13, -53613059.472560614, 14.250328412630774]}]

>  <H298_value>  (2) 
-106537.6194767193

>  <H298_units>  (2) 
kcal/mol

>  <S298_value>  (2) 
60.36296822828259

>  <S298_units>  (2) 
cal/(mol*K)

>  <Cp_T_value_list>  (2) 
[12.494795700177992, 15.001608210431446, 17.130783734283074, 18.881829280437152, 21.69615330289245, 23.7834318087242, 26.9145239767162, 28.553257692891545, 29.47039525924992]

>  <Cp_T_units>  (2) 
cal/(mol*K)

>  <T_list>  (2) 
[300.0, 400.0, 500.0, 600.0, 800.0, 1000.0, 1500.0, 2000.0, 2400.0]

>  <T_units>  (2) 
K

>  <yaml_path>  (2) 
/home/calvin/Dropbox/PersonalFolders/Calvin/ZEUS_Converged/rmg_rxn_15493/output/Species/rmg_rxn_15493_p1_ON=C/rmg_rxn_15493_p1_ON=C.yml

>  <frequencies_cm1>  (2) 
[438.20980121048, 539.7244451960399, 801.7205361099999, 965.59427378648, 986.4836431299199, 1183.2914424011199, 1353.5034075279598, 1444.4016922088, 1728.97643085492, 3083.6403589019596, 3214.03754314344, 3841.1169085952]

>  <ZPE_kJmol>  (2) 
117.11863122037906

>  <E_elec_kJmol>  (2) 
-445882.1651603303

>  <E0_minus_Eelec_plus_ZPE_kJmol>  (2) 
0.0

>  <rxn>  (2) 
rmg_rxn_15493

>  <species_type>  (2) 
p0

>  <species_folder>  (2) 
rmg_rxn_15493_p1_ON=C

>  <frequencies_cm1_list>  (2) 
[438.20980121048, 539.7244451960399, 801.7205361099999, 965.59427378648, 986.4836431299199, 1183.2914424011199, 1353.5034075279598, 1444.4016922088, 1728.97643085492, 3083.6403589019596, 3214.03754314344, 3841.1169085952]

>  <E0_kJmol>  (2) 
-445765

>  <H298_kJmol>  (2) 
-445753

$$$$

     RDKit          3D

 24 22  0  0  0  0  0  0  0  0999 V2000
   -1.7967   -1.3668   -1.2346 O   0  0  0  0  0  0  0  0  0  1  0  0
   -2.4056   -1.5760   -0.0263 N   0  0  0  0  0  0  0  0  0  2  0  0
   -2.1810   -0.7678    0.9032 C   0  0  0  0  0  0  0  0  0  3  0  0
   -1.2308   -0.5788   -1.1624 H   0  0  0  0  0  0  0  0  0  4  0  0
   -2.6523   -0.9148    1.8695 H   0  0  0  0  0  0  0  0  0  5  0  0
    2.9586   -2.0142    0.3444 C   0  0  0  0  0  0  0  0  0  6  0  0
    2.4399   -0.6419    0.0661 C   0  0  0  0  0  0  0  0  0  7  0  0
    1.1816   -0.2595    0.2689 C   0  0  0  0  0  0  0  0  0  8  0  0
    0.6345    1.0775   -0.0001 C   0  0  0  0  0  0  0  0  0  9  0  0
    1.5812    2.1271   -0.5262 C   0  0  0  0  0  0  0  0  0 10  0  0
   -0.6523    1.3302    0.2272 C   0  0  0  0  0  3  0  0  0 11  0  0
   -1.5087    2.5278    0.0588 C   0  0  0  0  0  0  0  0  0 12  0  0
    3.3649   -2.4675   -0.5636 H   0  0  0  0  0  0  0  0  0 13  0  0
    2.1757   -2.6673    0.7308 H   0  0  0  0  0  0  0  0  0 14  0  0
    3.7727   -1.9831    1.0734 H   0  0  0  0  0  0  0  0  0 15  0  0
    3.1607    0.0682   -0.3283 H   0  0  0  0  0  0  0  0  0 16  0  0
    0.4816   -0.9882    0.6690 H   0  0  0  0  0  0  0  0  0 17  0  0
    2.3980    2.2892    0.1806 H   0  0  0  0  0  0  0  0  0 18  0  0
    2.0244    1.8037   -1.4707 H   0  0  0  0  0  0  0  0  0 19  0  0
    1.0848    3.0801   -0.6930 H   0  0  0  0  0  0  0  0  0 20  0  0
   -1.3949    0.2797    0.6897 H   0  0  0  0  0  0  0  0  0 21  0  0
   -0.9904    3.3464   -0.4451 H   0  0  0  0  0  0  0  0  0 22  0  0
   -1.8558    2.8947    1.0282 H   0  0  0  0  0  0  0  0  0 23  0  0
   -2.3984    2.2835   -0.5273 H   0  0  0  0  0  0  0  0  0 24  0  0
  1  2  1  0
  1  4  1  0
  2  3  1  0
  3  5  1  0
  3 21  1  0
  6  7  1  0
  6 15  1  0
  6 13  1  0
  6 14  1  0
  7  8  1  0
  7 16  1  0
  8 17  1  0
  8  9  1  0
  9 11  1  0
  9 10  1  0
 10 18  1  0
 10 19  1  0
 10 20  1  0
 11 12  1  0
 12 22  1  0
 12 24  1  0
 12 23  1  0
M  RAD  1  11   2
M  END
>  <rmg_smiles>  (3) 
C[CH][CH][C]([C]C)C.[CH2][N]O

>  <rmg_adjacency_list>  (3) 
multiplicity 2
1  O u0 p2 c0 {2,S} {24,S}
2  N u0 p1 c0 {1,S} {9,S}
3  C u0 p0 c0 {6,S} {14,S} {15,S} {16,S}
4  C u0 p0 c0 {7,S} {11,S} {12,S} {13,S}
5  C u0 p0 c0 {10,S} {17,S} {18,S} {19,S}
6  C u0 p0 c0 {3,S} {8,S} {10,S}
7  C u0 p0 c0 {4,S} {8,S} {20,S}
8  C u0 p0 c0 {6,S} {7,S} {21,S}
9  C u0 p0 c0 {2,S} {22,S} {23,S}
10 C u1 p1 c0 {5,S} {6,S}
11 H u0 p0 c0 {4,S}
12 H u0 p0 c0 {4,S}
13 H u0 p0 c0 {4,S}
14 H u0 p0 c0 {3,S}
15 H u0 p0 c0 {3,S}
16 H u0 p0 c0 {3,S}
17 H u0 p0 c0 {5,S}
18 H u0 p0 c0 {5,S}
19 H u0 p0 c0 {5,S}
20 H u0 p0 c0 {7,S}
21 H u0 p0 c0 {8,S}
22 H u0 p0 c0 {9,S}
23 H u0 p0 c0 {9,S}
24 H u0 p0 c0 {1,S}


>  <multiplicity>  (3) 
2

>  <reaction>  (3) 
rmg_rxn_15493

>  <type>  (3) 
ts

>  <role_mapnums>  (3) 
{"*2": 21, "*1": 11, "*3": 3, "*0": 2, "*4": 9}

>  <role_mapidx>  (3) 
{"*2": 20, "*1": 10, "*3": 2, "*0": 1, "*4": 8}

>  <ordered_mapped_smiles>  (3) 
[O:1]([NH:2][CH:3]([H:5])[H:21])[H:4].[C:6]([CH:7]([CH:8]([CH:9]([C:10]([H:18])([H:19])[H:20])[CH:11][C:12]([H:22])([H:23])[H:24])[H:17])[H:16])([H:13])([H:14])[H:15]

>  <mol_properties>  (3) 
{"1": {"label": "*0", "atom_type": "N3s"}, "2": {"label": "*3", "atom_type": "Cs"}, "8": {"label": "*4", "atom_type": "Cs"}, "10": {"label": "*1", "atom_type": "C2s"}, "20": {"label": "*2", "atom_type": "H0"}}

>  <level_of_theory>  (3) 
wb97xd/def2tzvp

>  <lot_method>  (3) 
wb97xd

>  <lot_basis>  (3) 
def2tzvp

>  <spin_multiplicity>  (3) 
2.0

>  <optical_isomers>  (3) 
2.0

>  <modes>  (3) 
IdealGasTranslation(mass=(140.108, 'amu')),         NonlinearRotor(             inertia = ([406.528, 576.108, 878.355

>  <frequency_value>  (3) 
-1674.63

>  <frequency_units>  (3) 
cm^-1

>  <frequency_list>  (3) 
unknown

>  <arkane_path>  (3) 
/home/calvin/Dropbox/PersonalFolders/Calvin/ZEUS_Converged/rmg_rxn_15493/output/rxns/TS0/arkane/output.py

>  <path_exists>  (3) 
True

>  <E0_value>  (3) 
-1162790.0

>  <E0_units>  (3) 
kJ/mol

>  <thermo_class>  (3) 
unknown

>  <Cp0_value>  (3) 
unknown

>  <Cp0_units>  (3) 
unknown

>  <CpInf_value>  (3) 
unknown

>  <CpInf_units>  (3) 
unknown

>  <Tmin_value>  (3) 
unknown

>  <Tmin_units>  (3) 
unknown

>  <Tmax_value>  (3) 
unknown

>  <Tmax_units>  (3) 
unknown

>  <polynomials>  (3) 
unknown

>  <H298_value>  (3) 
unknown

>  <H298_units>  (3) 
unknown

>  <S298_value>  (3) 
unknown

>  <S298_units>  (3) 
unknown

>  <Cp_T_value_list>  (3) 
unknown

>  <Cp_T_units>  (3) 
unknown

>  <T_list>  (3) 
unknown

>  <T_units>  (3) 
unknown

>  <yaml_path>  (3) 
unknown

>  <frequencies_cm1>  (3) 
unknown

>  <ZPE_kJmol>  (3) 
unknown

>  <E_elec_kJmol>  (3) 
unknown

>  <E0_minus_Eelec_plus_ZPE_kJmol>  (3) 
unknown

>  <rxn>  (3) 
unknown

>  <species_type>  (3) 
unknown

>  <species_folder>  (3) 
unknown

>  <frequencies_cm1_list>  (3) 
[]

>  <ts_imag_freq_cm1>  (3) 
-1694.9743

>  <ts_freq_out_path>  (3) 
/home/calvin/Dropbox/PersonalFolders/Calvin/ZEUS_Converged/rmg_rxn_15493/output/rxns/TS0/geometry/freq.out

>  <E0_kJmol>  (3) 
-1.16279e+06

>  <H298_kJmol>  (3) 
unknown

$$$$

     RDKit          3D

 18 17  0  0  0  0  0  0  0  0999 V2000
    2.3950    1.5094   -1.3453 C   0  0  0  0  0  0  0  0  0  1  0  0
    1.9536    0.7172   -0.1950 C   0  0  0  0  0  3  0  0  0  2  0  0
    0.9955   -0.1069    0.1769 C   0  0  0  0  0  0  0  0  0  3  0  0
   -0.1271   -0.4939   -0.7607 C   0  0  0  0  0  0  0  0  0  4  0  0
    1.0004   -0.6742    1.5314 C   0  0  0  0  0  0  0  0  0  5  0  0
    0.0943   -1.5141    2.0265 C   0  0  0  0  0  0  0  0  0  6  0  0
    0.1277   -2.0743    3.4114 C   0  0  0  0  0  0  0  0  0  7  0  0
    2.4393    2.5726   -1.0979 H   0  0  0  0  0  0  0  0  0  8  0  0
    3.3917    1.2055   -1.6739 H   0  0  0  0  0  0  0  0  0  9  0  0
    1.7131    1.3935   -2.1979 H   0  0  0  0  0  0  0  0  0 10  0  0
   -0.1410   -1.5753   -0.9159 H   0  0  0  0  0  0  0  0  0 11  0  0
   -0.0231   -0.0124   -1.7316 H   0  0  0  0  0  0  0  0  0 12  0  0
   -1.0938   -0.2077   -0.3396 H   0  0  0  0  0  0  0  0  0 13  0  0
    1.8285   -0.3630    2.1620 H   0  0  0  0  0  0  0  0  0 14  0  0
   -0.7376   -1.8315    1.4043 H   0  0  0  0  0  0  0  0  0 15  0  0
   -0.7758   -1.8055    3.9656 H   0  0  0  0  0  0  0  0  0 16  0  0
    0.1725   -3.1667    3.3920 H   0  0  0  0  0  0  0  0  0 17  0  0
    0.9907   -1.7081    3.9691 H   0  0  0  0  0  0  0  0  0 18  0  0
  1 10  1  0
  1  8  1  0
  1  9  1  0
  1  2  1  0
  2  3  1  0
  3  4  1  0
  3  5  1  0
  4 13  1  0
  4 12  1  0
  4 11  1  0
  5 14  1  0
  5  6  1  0
  6 15  1  0
  6  7  1  0
  7 17  1  0
  7 18  1  0
  7 16  1  0
M  RAD  1   2   2
M  END
>  <rmg_smiles>  (4) 
C[C]C(C)[CH][CH]C

>  <rmg_adjacency_list>  (4) 
multiplicity 2
1  C u0 p0 c0 {4,S} {8,S} {9,S} {10,S}
2  C u0 p0 c0 {5,S} {11,S} {12,S} {13,S}
3  C u0 p0 c0 {7,S} {14,S} {15,S} {16,S}
4  C u0 p0 c0 {1,S} {6,S} {7,S}
5  C u0 p0 c0 {2,S} {6,S} {17,S}
6  C u0 p0 c0 {4,S} {5,S} {18,S}
7  C u1 p1 c0 {3,S} {4,S}
8  H u0 p0 c0 {1,S}
9  H u0 p0 c0 {1,S}
10 H u0 p0 c0 {1,S}
11 H u0 p0 c0 {2,S}
12 H u0 p0 c0 {2,S}
13 H u0 p0 c0 {2,S}
14 H u0 p0 c0 {3,S}
15 H u0 p0 c0 {3,S}
16 H u0 p0 c0 {3,S}
17 H u0 p0 c0 {5,S}
18 H u0 p0 c0 {6,S}


>  <multiplicity>  (4) 
2

>  <reaction>  (4) 
rmg_rxn_15493

>  <type>  (4) 
r1

>  <role_mapnums>  (4) 
{}

>  <role_mapidx>  (4) 
{}

>  <ordered_mapped_smiles>  (4) 
[C:1]([CH:2][CH:3]([C:4]([H:11])([H:12])[H:13])[CH:5]([CH:6]([C:7]([H:16])([H:17])[H:18])[H:15])[H:14])([H:8])([H:9])[H:10]

>  <level_of_theory>  (4) 
wb97xd/def2tzvp

>  <lot_method>  (4) 
wb97xd

>  <lot_basis>  (4) 
def2tzvp

>  <spin_multiplicity>  (4) 
2.0

>  <optical_isomers>  (4) 
1.0

>  <modes>  (4) 
IdealGasTranslation(mass=(95.0861, 'amu')),         NonlinearRotor(             inertia = ([72.8548, 425.998, 489.481

>  <frequency_value>  (4) 
unknown

>  <frequency_units>  (4) 
unknown

>  <frequency_list>  (4) 
unknown

>  <arkane_path>  (4) 
/home/calvin/Dropbox/PersonalFolders/Calvin/ZEUS_Converged/rmg_rxn_15493/output/Species/rmg_rxn_15493_p2_Csbr-C-sbr=Crbr-C-rbrC=CC/arkane/output.py

>  <path_exists>  (4) 
True

>  <E0_value>  (4) 
-717064.5586105426

>  <E0_units>  (4) 
kJ/mol

>  <thermo_class>  (4) 
NASA

>  <Cp0_value>  (4) 
33.257888

>  <Cp0_units>  (4) 
J/(mol*K)

>  <CpInf_value>  (4) 
432.352544

>  <CpInf_units>  (4) 
J/(mol*K)

>  <Tmin_value>  (4) 
10.0

>  <Tmin_units>  (4) 
K

>  <Tmax_value>  (4) 
3000.0

>  <Tmax_units>  (4) 
K

>  <polynomials>  (4) 
[{"name": "polynomial1", "class": "NASAPolynomial", "Tmin_value": 10.0, "Tmin_units": "K", "Tmax_value": 478.6834372734163, "Tmax_units": "K", "coeffs": [3.3668918017133653, 0.05977021821016826, -8.029025951074401e-05, 1.5605472165062128e-07, -1.2250324322049338e-10, -86242943.2450356, 12.180133611934965]}, {"name": "polynomial2", "class": "NASAPolynomial", "Tmin_value": 478.6834372734163, "Tmin_units": "K", "Tmax_value": 3000.0, "Tmax_units": "K", "coeffs": [0.18031247614877347, 0.06643587441099341, -3.862425369357922e-05, 1.0907330417433497e-08, -1.1985621380748048e-12, -86242409.46763863, 27.594828080278205]}]

>  <H298_value>  (4) 
-171376.18023718428

>  <H298_units>  (4) 
kcal/mol

>  <S298_value>  (4) 
92.88834646751276

>  <S298_units>  (4) 
cal/(mol*K)

>  <Cp_T_value_list>  (4) 
[34.36483181823821, 42.28766834051866, 49.74115471396802, 56.31297197222761, 66.97504279792732, 74.91907905759223, 86.78940102756884, 92.67674478691478, 95.72022036374028]

>  <Cp_T_units>  (4) 
cal/(mol*K)

>  <T_list>  (4) 
[300.0, 400.0, 500.0, 600.0, 800.0, 1000.0, 1500.0, 2000.0, 2400.0]

>  <T_units>  (4) 
K

>  <yaml_path>  (4) 
/home/calvin/Dropbox/PersonalFolders/Calvin/ZEUS_Converged/rmg_rxn_15493/output/Species/rmg_rxn_15493_p2_Csbr-C-sbr=Crbr-C-rbrC=CC/rmg_rxn_15493_p2_Csbr-C-sbr=Crbr-C-rbrC=CC.yml

>  <frequencies_cm1>  (4) 
[96.0347897002, 103.80821708244, 146.3354571692, 162.28059708224, 199.76746994412002, 220.43709575731998, 255.56859265443998, 290.63141969836, 366.79315388247994, 426.34365057752, 505.87707455376, 565.3657683809199, 784.74534839896, 822.8090480277199, 930.33230416828, 983.6750461340399, 999.4210434728, 1019.87092575576, 1037.8349593528799, 1040.44441377448, 1061.8762749582, 1062.8513868736397, 1139.56934686868, 1244.5724193968001, 1315.69378635604, 1331.7625320048398, 1377.6339939424402, 1393.654670694, 1403.2684501420001, 1442.45833536324, 1458.2111996873202, 1465.7648835393202, 1469.12970634612, 1477.9949843942402, 1481.71002345236, 1716.75319698532, 1746.52844533284, 2967.93852324528, 3002.8022077149203, 3012.25804650056, 3045.77580184748, 3057.58014961256, 3070.86776620676, 3073.0033986412795, 3089.88244855784, 3111.27310782964, 3124.14183831932, 3131.87406378964]

>  <ZPE_kJmol>  (4) 
408.13729286353447

>  <E_elec_kJmol>  (4) 
-717472.6959034061

>  <E0_minus_Eelec_plus_ZPE_kJmol>  (4) 
0.0

>  <rxn>  (4) 
rmg_rxn_15493

>  <species_type>  (4) 
p1

>  <species_folder>  (4) 
rmg_rxn_15493_p2_Csbr-C-sbr=Crbr-C-rbrC=CC

>  <frequencies_cm1_list>  (4) 
[96.0347897002, 103.80821708244, 146.3354571692, 162.28059708224, 199.76746994412002, 220.43709575731998, 255.56859265443998, 290.63141969836, 366.79315388247994, 426.34365057752, 505.87707455376, 565.3657683809199, 784.74534839896, 822.8090480277199, 930.33230416828, 983.6750461340399, 999.4210434728, 1019.87092575576, 1037.8349593528799, 1040.44441377448, 1061.8762749582, 1062.8513868736397, 1139.56934686868, 1244.5724193968001, 1315.69378635604, 1331.7625320048398, 1377.6339939424402, 1393.654670694, 1403.2684501420001, 1442.45833536324, 1458.2111996873202, 1465.7648835393202, 1469.12970634612, 1477.9949843942402, 1481.71002345236, 1716.75319698532, 1746.52844533284, 2967.93852324528, 3002.8022077149203, 3012.25804650056, 3045.77580184748, 3057.58014961256, 3070.86776620676, 3073.0033986412795, 3089.88244855784, 3111.27310782964, 3124.14183831932, 3131.87406378964]

>  <E0_kJmol>  (4) 
-717065

>  <H298_kJmol>  (4) 
-717038

$$$$

     RDKit          3D

  5  4  0  0  0  0  0  0  0  0999 V2000
    0.8934    0.3742    0.4948 O   0  0  0  0  0  0  0  0  0  1  0  0
    0.1582   -0.1610   -0.5904 N   0  0  0  0  0  0  0  0  0  2  0  0
   -1.0297   -0.3739   -0.4689 C   0  0  0  0  0  3  0  0  0  3  0  0
    1.7805    0.4382    0.1306 H   0  0  0  0  0  0  0  0  0  4  0  0
   -1.8023   -0.2775    0.2859 H   0  0  0  0  0  0  0  0  0  5  0  0
  1  4  1  0
  1  2  1  0
  2  3  1  0
  3  5  1  0
M  RAD  1   3   2
M  END
>  <rmg_smiles>  (5) 
[CH][N]O

>  <rmg_adjacency_list>  (5) 
multiplicity 2
1 O u0 p2 c0 {2,S} {4,S}
2 N u0 p1 c0 {1,S} {3,S}
3 C u1 p1 c0 {2,S} {5,S}
4 H u0 p0 c0 {1,S}
5 H u0 p0 c0 {3,S}


>  <multiplicity>  (5) 
2

>  <reaction>  (5) 
rmg_rxn_15493

>  <type>  (5) 
r2

>  <role_mapnums>  (5) 
{}

>  <role_mapidx>  (5) 
{}

>  <ordered_mapped_smiles>  (5) 
[O:1]([NH:2][CH:3][H:5])[H:4]

>  <level_of_theory>  (5) 
wb97xd/def2tzvp

>  <lot_method>  (5) 
wb97xd

>  <lot_basis>  (5) 
def2tzvp

>  <spin_multiplicity>  (5) 
2.0

>  <optical_isomers>  (5) 
1.0

>  <modes>  (5) 
IdealGasTranslation(mass=(44.0136, 'amu')),         NonlinearRotor(             inertia = ([5.81591, 41.4826, 47.2985

>  <frequency_value>  (5) 
unknown

>  <frequency_units>  (5) 
unknown

>  <frequency_list>  (5) 
unknown

>  <arkane_path>  (5) 
/home/calvin/Dropbox/PersonalFolders/Calvin/ZEUS_Converged/rmg_rxn_15493/output/Species/rmg_rxn_15493_r1_ON=sbr-CH-sbr/arkane/output.py

>  <path_exists>  (5) 
True

>  <E0_value>  (5) 
-444005.359324532

>  <E0_units>  (5) 
kJ/mol

>  <thermo_class>  (5) 
NASA

>  <Cp0_value>  (5) 
33.257888

>  <Cp0_units>  (5) 
J/(mol*K)

>  <CpInf_value>  (5) 
108.088136

>  <CpInf_units>  (5) 
J/(mol*K)

>  <Tmin_value>  (5) 
10.0

>  <Tmin_units>  (5) 
K

>  <Tmax_value>  (5) 
3000.0

>  <Tmax_units>  (5) 
K

>  <polynomials>  (5) 
[{"name": "polynomial1", "class": "NASAPolynomial", "Tmin_value": 10.0, "Tmin_units": "K", "Tmax_value": 581.5521855773558, "Tmax_units": "K", "coeffs": [3.9651854378376354, 0.0020096300724220997, 4.068547950040168e-05, -7.790242028845132e-08, 4.4772375189871534e-11, -53401508.17068676, 6.828671301777145]}, {"name": "polynomial2", "class": "NASAPolynomial", "Tmin_value": 581.5521855773558, "Tmin_units": "K", "Tmax_value": 3000.0, "Tmax_units": "K", "coeffs": [3.5849357627708427, 0.012844035212889389, -8.4590302800557e-06, 2.7367089532336234e-09, -3.401217371194876e-13, -53401602.928060964, 7.262096783490094]}]

>  <H298_value>  (5) 
-106116.84893693788

>  <H298_units>  (5) 
kcal/mol

>  <S298_value>  (5) 
62.05085615552054

>  <S298_units>  (5) 
cal/(mol*K)

>  <Cp_T_value_list>  (5) 
[12.895099247909474, 14.783091657217865, 16.298752276569193, 17.47381546838603, 19.292328661132526, 20.6004316585094, 22.520408903315662, 23.62512089396801, 24.312373577063074]

>  <Cp_T_units>  (5) 
cal/(mol*K)

>  <T_list>  (5) 
[300.0, 400.0, 500.0, 600.0, 800.0, 1000.0, 1500.0, 2000.0, 2400.0]

>  <T_units>  (5) 
K

>  <yaml_path>  (5) 
/home/calvin/Dropbox/PersonalFolders/Calvin/ZEUS_Converged/rmg_rxn_15493/output/Species/rmg_rxn_15493_r1_ON=sbr-CH-sbr/rmg_rxn_15493_r1_ON=sbr-CH-sbr.yml

>  <frequencies_cm1>  (5) 
[407.41137205027997, 410.42597860575995, 739.51938308144, 761.67227772376, 903.0703724478799, 1348.68965081864, 1755.81260948548, 3154.3291057860397, 3817.47387813844]

>  <ZPE_kJmol>  (5) 
79.54214655441899

>  <E_elec_kJmol>  (5) 
-444084.9014710864

>  <E0_minus_Eelec_plus_ZPE_kJmol>  (5) 
0.0

>  <rxn>  (5) 
rmg_rxn_15493

>  <species_type>  (5) 
r0

>  <species_folder>  (5) 
rmg_rxn_15493_r1_ON=sbr-CH-sbr

>  <frequencies_cm1_list>  (5) 
[407.41137205027997, 410.42597860575995, 739.51938308144, 761.67227772376, 903.0703724478799, 1348.68965081864, 1755.81260948548, 3154.3291057860397, 3817.47387813844]

>  <E0_kJmol>  (5) 
-444005

>  <H298_kJmol>  (5) 
-443993

$$$$
