
     RDKit          3D

 13 12  0  0  0  0  0  0  0  0999 V2000
    1.6317    1.1685    1.1945 N   0  0  0  0  0  0  0  0  0  1  0  0
    0.6723    1.0088    0.2394 N   0  0  0  0  0  0  0  0  0  2  0  0
   -1.3352   -1.7773   -1.0838 C   0  0  0  0  0  0  0  0  0  3  0  0
   -1.0322   -0.3377   -0.7503 C   0  0  0  0  0  0  0  0  0  4  0  0
    0.0060   -0.0813    0.2370 C   0  0  0  0  0  0  0  0  0  5  0  0
   -0.5309   -2.2274   -1.6723 H   0  0  0  0  0  0  0  0  0  6  0  0
   -1.4613   -2.3717   -0.1763 H   0  0  0  0  0  0  0  0  0  7  0  0
   -2.2585   -1.8545   -1.6591 H   0  0  0  0  0  0  0  0  0  8  0  0
   -0.9601    0.3261   -1.6102 H   0  0  0  0  0  0  0  0  0  9  0  0
   -1.9651   -0.0032   -0.2997 H   0  0  0  0  0  0  0  0  0 10  0  0
    0.1668   -0.8392    1.0146 H   0  0  0  0  0  0  0  0  0 11  0  0
    1.4770    0.6592    2.0583 H   0  0  0  0  0  0  0  0  0 12  0  0
    1.8208    2.1443    1.3499 H   0  0  0  0  0  0  0  0  0 13  0  0
  1  2  1  0
  1 13  1  0
  1 12  1  0
  2  5  1  0
  3  4  1  0
  3  6  1  0
  3  7  1  0
  3  8  1  0
  4  5  1  0
  4  9  1  0
  4 10  1  0
  5 11  1  0
M  END
>  <rmg_smiles>  (1) 
CC[CH][N]N

>  <rmg_adjacency_list>  (1) 
1  N u0 p1 c0 {2,S} {12,S} {13,S}
2  N u0 p1 c0 {1,S} {5,S}
3  C u0 p0 c0 {4,S} {5,S} {6,S} {7,S}
4  C u0 p0 c0 {3,S} {8,S} {9,S} {10,S}
5  C u0 p0 c0 {2,S} {3,S} {11,S}
6  H u0 p0 c0 {3,S}
7  H u0 p0 c0 {3,S}
8  H u0 p0 c0 {4,S}
9  H u0 p0 c0 {4,S}
10 H u0 p0 c0 {4,S}
11 H u0 p0 c0 {5,S}
12 H u0 p0 c0 {1,S}
13 H u0 p0 c0 {1,S}


>  <multiplicity>  (1) 
1

>  <reaction>  (1) 
rmg_rxn_13981

>  <type>  (1) 
r1h

>  <role_mapnums>  (1) 
{"r1h_a": 4, "r1h_h": 10}

>  <role_mapidx>  (1) 
{"r1h_a": 3, "r1h_h": 9}

>  <ordered_mapped_smiles>  (1) 
[N:1]([NH:2][CH:5]([C:4]([C:3]([H:6])([H:7])[H:8])([H:9])[H:10])[H:11])([H:12])[H:13]

>  <mol_properties>  (1) 
{"3": {"label": "donator", "atom_type": "Cs"}, "9": {"label": "d_hydrogen", "atom_type": "H0"}}

>  <level_of_theory>  (1) 
wb97xd/def2tzvp

>  <lot_method>  (1) 
wb97xd

>  <lot_basis>  (1) 
def2tzvp

>  <spin_multiplicity>  (1) 
1.0

>  <optical_isomers>  (1) 
2.0

>  <modes>  (1) 
IdealGasTranslation(mass=(72.0687, 'amu')),         NonlinearRotor(             inertia = ([34.684, 184.298, 212.234

>  <frequency_value>  (1) 
unknown

>  <frequency_units>  (1) 
unknown

>  <frequency_list>  (1) 
unknown

>  <arkane_path>  (1) 
/home/calvin/Dropbox/PersonalFolders/Calvin/ZEUS_Converged/rmg_rxn_13981/output/Species/rmg_rxn_13981_r1_CCC=NN/arkane/output.py

>  <path_exists>  (1) 
True

>  <E0_value>  (1) 
-599920.9873317869

>  <E0_units>  (1) 
kJ/mol

>  <thermo_class>  (1) 
NASA

>  <Cp0_value>  (1) 
33.257888

>  <Cp0_units>  (1) 
J/(mol*K)

>  <CpInf_value>  (1) 
307.635464

>  <CpInf_units>  (1) 
J/(mol*K)

>  <Tmin_value>  (1) 
10.0

>  <Tmin_units>  (1) 
K

>  <Tmax_value>  (1) 
3000.0

>  <Tmax_units>  (1) 
K

>  <polynomials>  (1) 
[{"name": "polynomial1", "class": "NASAPolynomial", "Tmin_value": 10.0, "Tmin_units": "K", "Tmax_value": 499.3147300725661, "Tmax_units": "K", "coeffs": [3.772737889467939, 0.01901670993956432, 5.4211482346469644e-05, -1.0002807179596149e-07, 5.2945469938438315e-11, -72153825.17368056, 10.319749085738847]}, {"name": "polynomial2", "class": "NASAPolynomial", "Tmin_value": 499.3147300725661, "Tmin_units": "K", "Tmax_value": 3000.0, "Tmax_units": "K", "coeffs": [0.4321564708677366, 0.045777830025256636, -2.6181433413240182e-05, 7.308755881392629e-09, -7.961803655511034e-13, -72153491.5707767, 24.116053316438002]}]

>  <H298_value>  (1) 
-143380.03046920145

>  <H298_units>  (1) 
kcal/mol

>  <S298_value>  (1) 
77.71862079027869

>  <S298_units>  (1) 
cal/(mol*K)

>  <Cp_T_value_list>  (1) 
[24.015161340836656, 29.82174262050609, 35.05342116575715, 39.64287141955497, 47.12515278152197, 52.74270329409755, 61.259742638110225, 65.56438910501056, 67.79311195775227]

>  <Cp_T_units>  (1) 
cal/(mol*K)

>  <T_list>  (1) 
[300.0, 400.0, 500.0, 600.0, 800.0, 1000.0, 1500.0, 2000.0, 2400.0]

>  <T_units>  (1) 
K

>  <yaml_path>  (1) 
/home/calvin/Dropbox/PersonalFolders/Calvin/ZEUS_Converged/rmg_rxn_13981/output/Species/rmg_rxn_13981_r1_CCC=NN/rmg_rxn_13981_r1_CCC=NN.yml

>  <frequencies_cm1>  (1) 
[131.53023681928, 204.72543334515998, 211.99757079904, 294.46319750692, 385.55375777672003, 420.17023077484, 638.286285494, 720.7931141138, 773.8749106374, 906.79227849132, 928.7185626180799, 1015.77820250504, 1104.88420401736, 1109.64989182944, 1147.56251778116, 1260.9570463703199, 1278.52279481888, 1369.2425378813998, 1404.13369029232, 1415.2307385694398, 1466.4378481006797, 1477.5005614511997, 1488.6731465668397, 1650.7546010748, 1744.5507535606796, 2983.5815158042396, 3001.1197963115196, 3021.061521680799, 3026.87099126152, 3100.27906433232, 3105.4911061902, 3444.6789790862795, 3612.59050413092]

>  <ZPE_kJmol>  (1) 
298.14811218872103

>  <E_elec_kJmol>  (1) 
-600219.1354439756

>  <E0_minus_Eelec_plus_ZPE_kJmol>  (1) 
0.0

>  <rxn>  (1) 
rmg_rxn_13981

>  <species_type>  (1) 
r0

>  <species_folder>  (1) 
rmg_rxn_13981_r1_CCC=NN

>  <frequencies_cm1_list>  (1) 
[131.53023681928, 204.72543334515998, 211.99757079904, 294.46319750692, 385.55375777672003, 420.17023077484, 638.286285494, 720.7931141138, 773.8749106374, 906.79227849132, 928.7185626180799, 1015.77820250504, 1104.88420401736, 1109.64989182944, 1147.56251778116, 1260.9570463703199, 1278.52279481888, 1369.2425378813998, 1404.13369029232, 1415.2307385694398, 1466.4378481006797, 1477.5005614511997, 1488.6731465668397, 1650.7546010748, 1744.5507535606796, 2983.5815158042396, 3001.1197963115196, 3021.061521680799, 3026.87099126152, 3100.27906433232, 3105.4911061902, 3444.6789790862795, 3612.59050413092]

>  <E0_kJmol>  (1) 
-599921

>  <H298_kJmol>  (1) 
-599902

$$$$

     RDKit          3D

 10  9  0  0  0  0  0  0  0  0999 V2000
    0.7699    1.7283    0.1844 C   0  0  0  0  0  0  0  0  0  1  0  0
    0.5940    0.2951   -0.1518 C   0  0  0  0  0  0  0  0  0  2  0  0
   -1.1622   -1.5988    0.0063 C   0  0  0  0  0  0  0  0  0  3  0  0
   -0.3001   -0.6019   -0.0530 C   0  0  0  0  0  2  0  0  0  4  0  0
   -0.0931    2.1164    0.7278 H   0  0  0  0  0  0  0  0  0  5  0  0
    0.9058    2.3205   -0.7227 H   0  0  0  0  0  0  0  0  0  6  0  0
    1.6631    1.8700    0.7963 H   0  0  0  0  0  0  0  0  0  7  0  0
    1.5232   -0.0696   -0.5897 H   0  0  0  0  0  0  0  0  0  8  0  0
   -1.2074   -2.2489    0.8715 H   0  0  0  0  0  0  0  0  0  9  0  0
   -1.8624   -1.7817   -0.7998 H   0  0  0  0  0  0  0  0  0 10  0  0
  1  5  1  0
  1  7  1  0
  1  6  1  0
  1  2  1  0
  2  8  1  0
  2  4  1  0
  3  4  1  0
  3  9  1  0
  3 10  1  0
M  RAD  1   4   3
M  END
>  <rmg_smiles>  (2) 
[CH2][C][CH]C

>  <rmg_adjacency_list>  (2) 
1  C u0 p0 c0 {2,S} {5,S} {6,S} {7,S}
2  C u0 p0 c0 {1,S} {4,S} {8,S}
3  C u0 p0 c0 {4,S} {9,S} {10,S}
4  C u0 p1 c0 {2,S} {3,S}
5  H u0 p0 c0 {1,S}
6  H u0 p0 c0 {1,S}
7  H u0 p0 c0 {1,S}
8  H u0 p0 c0 {2,S}
9  H u0 p0 c0 {3,S}
10 H u0 p0 c0 {3,S}


>  <multiplicity>  (2) 
1

>  <reaction>  (2) 
rmg_rxn_13981

>  <type>  (2) 
r2h

>  <role_mapnums>  (2) 
{"r2h_a": 2, "r2h_h": 8}

>  <role_mapidx>  (2) 
{"r2h_a": 1, "r2h_h": 7}

>  <ordered_mapped_smiles>  (2) 
[C:1]([CH:2]([C:4][CH:3]([H:9])[H:10])[H:8])([H:5])([H:6])[H:7]

>  <mol_properties>  (2) 
{"1": {"label": "acceptor", "atom_type": "Cs"}, "7": {"label": "a_hydrogen", "atom_type": "H0"}}

>  <level_of_theory>  (2) 
wb97xd/def2tzvp

>  <lot_method>  (2) 
wb97xd

>  <lot_basis>  (2) 
def2tzvp

>  <spin_multiplicity>  (2) 
1.0

>  <optical_isomers>  (2) 
1.0

>  <modes>  (2) 
IdealGasTranslation(mass=(54.047, 'amu')),         NonlinearRotor(             inertia = ([14.6121, 119.467, 127.49

>  <frequency_value>  (2) 
unknown

>  <frequency_units>  (2) 
unknown

>  <frequency_list>  (2) 
unknown

>  <arkane_path>  (2) 
/home/calvin/Dropbox/PersonalFolders/Calvin/ZEUS_Converged/rmg_rxn_13981/output/Species/rmg_rxn_13981_p2_C=C=CC/arkane/output.py

>  <path_exists>  (2) 
True

>  <E0_value>  (2) 
-409296.6502421279

>  <E0_units>  (2) 
kJ/mol

>  <thermo_class>  (2) 
NASA

>  <Cp0_value>  (2) 
33.257888

>  <Cp0_units>  (2) 
J/(mol*K)

>  <CpInf_value>  (2) 
232.805216

>  <CpInf_units>  (2) 
J/(mol*K)

>  <Tmin_value>  (2) 
10.0

>  <Tmin_units>  (2) 
K

>  <Tmax_value>  (2) 
3000.0

>  <Tmax_units>  (2) 
K

>  <polynomials>  (2) 
[{"name": "polynomial1", "class": "NASAPolynomial", "Tmin_value": 10.0, "Tmin_units": "K", "Tmax_value": 452.8802664009696, "Tmax_units": "K", "coeffs": [3.9021943352433452, 0.007937521032632688, 6.664442489196733e-05, -1.2131953588307993e-07, 6.938885885775227e-11, -49227014.555544384, 8.255511443201872]}, {"name": "polynomial2", "class": "NASAPolynomial", "Tmin_value": 452.8802664009696, "Tmin_units": "K", "Tmax_value": 3000.0, "Tmax_units": "K", "coeffs": [0.958037882717614, 0.033941191741253485, -1.948265019694705e-05, 5.463813645242153e-09, -5.979209978345261e-13, -49226747.88374059, 20.12723627389473]}]

>  <H298_value>  (2) 
-97820.47439749332

>  <H298_units>  (2) 
kcal/mol

>  <S298_value>  (2) 
69.30943774444917

>  <S298_units>  (2) 
cal/(mol*K)

>  <Cp_T_value_list>  (2) 
[19.013335795722274, 23.35407848830737, 27.231838984706652, 30.626214617830076, 36.15654523435027, 40.30546036176962, 46.594544625367064, 49.786664420046236, 51.450781523093035]

>  <Cp_T_units>  (2) 
cal/(mol*K)

>  <T_list>  (2) 
[300.0, 400.0, 500.0, 600.0, 800.0, 1000.0, 1500.0, 2000.0, 2400.0]

>  <T_units>  (2) 
K

>  <yaml_path>  (2) 
/home/calvin/Dropbox/PersonalFolders/Calvin/ZEUS_Converged/rmg_rxn_13981/output/Species/rmg_rxn_13981_p2_C=C=CC/rmg_rxn_13981_p2_C=C=CC.yml

>  <frequencies_cm1>  (2) 
[164.84884959192, 210.28769145436, 340.98015606459995, 540.2944049775999, 574.7186023867599, 878.6239047086799, 884.0282221555199, 895.09093550604, 1017.79709618912, 1055.91573170044, 1088.91159616304, 1146.5530709391198, 1353.77808694076, 1399.01778622892, 1463.354571692, 1470.3726306890399, 1494.8053644576, 2061.4346581373993, 3012.63573069316, 3072.0282867258397, 3106.42501619372, 3110.62074422424, 3124.134971334, 3189.66661224276]

>  <ZPE_kJmol>  (2) 
219.25357474583132

>  <E_elec_kJmol>  (2) 
-409515.9038168737

>  <E0_minus_Eelec_plus_ZPE_kJmol>  (2) 
0.0

>  <rxn>  (2) 
rmg_rxn_13981

>  <species_type>  (2) 
p1

>  <species_folder>  (2) 
rmg_rxn_13981_p2_C=C=CC

>  <frequencies_cm1_list>  (2) 
[164.84884959192, 210.28769145436, 340.98015606459995, 540.2944049775999, 574.7186023867599, 878.6239047086799, 884.0282221555199, 895.09093550604, 1017.79709618912, 1055.91573170044, 1088.91159616304, 1146.5530709391198, 1353.77808694076, 1399.01778622892, 1463.354571692, 1470.3726306890399, 1494.8053644576, 2061.4346581373993, 3012.63573069316, 3072.0282867258397, 3106.42501619372, 3110.62074422424, 3124.134971334, 3189.66661224276]

>  <E0_kJmol>  (2) 
-409297

>  <H298_kJmol>  (2) 
-409281

$$$$

     RDKit          3D

 22 20  0  0  0  0  0  0  0  0999 V2000
    3.4447    1.1671    1.0021 N   0  0  0  0  0  0  0  0  0  1  0  0
    2.4853    1.0075    0.0470 N   0  0  0  0  0  0  0  0  0  2  0  0
    0.4778   -1.7787   -1.2762 C   0  0  0  0  0  0  0  0  0  3  0  0
   -1.3327    1.9547    0.4856 C   0  0  0  0  0  0  0  0  0  4  0  0
    0.7808   -0.3391   -0.9427 C   0  0  0  0  0  0  0  0  0  5  0  0
   -1.5086    0.5216    0.1494 C   0  0  0  0  0  3  0  0  0  6  0  0
    1.8190   -0.0827    0.0446 C   0  0  0  0  0  0  0  0  0  7  0  0
   -3.2648   -1.3723    0.3075 C   0  0  0  0  0  0  0  0  0  8  0  0
   -2.4027   -0.3754    0.2482 C   0  0  0  0  0  0  0  0  0  9  0  0
   -2.1957    2.3428    1.0290 H   0  0  0  0  0  0  0  0  0 10  0  0
   -1.1968    2.5470   -0.4215 H   0  0  0  0  0  0  0  0  0 11  0  0
   -0.4395    2.0965    1.0975 H   0  0  0  0  0  0  0  0  0 12  0  0
    1.2820   -2.2288   -1.8647 H   0  0  0  0  0  0  0  0  0 13  0  0
    0.3516   -2.3731   -0.3687 H   0  0  0  0  0  0  0  0  0 14  0  0
   -0.4455   -1.8559   -1.8515 H   0  0  0  0  0  0  0  0  0 15  0  0
    0.8529    0.3247   -1.8025 H   0  0  0  0  0  0  0  0  0 16  0  0
   -0.3366    0.0615   -0.4029 H   0  0  0  0  0  0  0  0  0 17  0  0
    1.9798   -0.8406    0.8223 H   0  0  0  0  0  0  0  0  0 18  0  0
   -3.3100   -2.0224    1.1728 H   0  0  0  0  0  0  0  0  0 19  0  0
   -3.9650   -1.5552   -0.4986 H   0  0  0  0  0  0  0  0  0 20  0  0
    3.2900    0.6578    1.8659 H   0  0  0  0  0  0  0  0  0 21  0  0
    3.6338    2.1430    1.1576 H   0  0  0  0  0  0  0  0  0 22  0  0
  1 22  1  0
  1  2  1  0
  1 21  1  0
  2  7  1  0
  3 15  1  0
  3 13  1  0
  3  5  1  0
  3 14  1  0
  4 10  1  0
  4  6  1  0
  4 11  1  0
  4 12  1  0
  5  7  1  0
  5 16  1  0
  5 17  1  0
  6  9  1  0
  7 18  1  0
  8 20  1  0
  8 19  1  0
  8  9  1  0
M  RAD  1   6   2
M  END
>  <rmg_smiles>  (3) 
CC[CH][N]N.[CH2][C][C]C

>  <rmg_adjacency_list>  (3) 
multiplicity 2
1  N u0 p1 c0 {2,S} {21,S} {22,S}
2  N u0 p1 c0 {1,S} {6,S}
3  C u0 p0 c0 {4,S} {6,S} {10,S} {11,S}
4  C u0 p0 c0 {3,S} {12,S} {13,S} {14,S}
5  C u0 p0 c0 {8,S} {15,S} {16,S} {17,S}
6  C u0 p0 c0 {2,S} {3,S} {18,S}
7  C u0 p0 c0 {9,S} {19,S} {20,S}
8  C u1 p1 c0 {5,S} {9,S}
9  C u0 p1 c0 {7,S} {8,S}
10 H u0 p0 c0 {3,S}
11 H u0 p0 c0 {3,S}
12 H u0 p0 c0 {4,S}
13 H u0 p0 c0 {4,S}
14 H u0 p0 c0 {4,S}
15 H u0 p0 c0 {5,S}
16 H u0 p0 c0 {5,S}
17 H u0 p0 c0 {5,S}
18 H u0 p0 c0 {6,S}
19 H u0 p0 c0 {7,S}
20 H u0 p0 c0 {7,S}
21 H u0 p0 c0 {1,S}
22 H u0 p0 c0 {1,S}


>  <multiplicity>  (3) 
2

>  <reaction>  (3) 
rmg_rxn_13981

>  <type>  (3) 
ts

>  <role_mapnums>  (3) 
{"*2": 17, "*1": 5, "*3": 6, "*0": 7, "*4": 9}

>  <role_mapidx>  (3) 
{"*2": 16, "*1": 4, "*3": 5, "*0": 6, "*4": 8}

>  <ordered_mapped_smiles>  (3) 
[N:1]([NH:2][CH:7]([C:5]([C:3]([H:13])([H:14])[H:15])([H:16])[H:17])[H:18])([H:21])[H:22].[C:4]([CH:6][CH2:9][CH:8]([H:19])[H:20])([H:10])([H:11])[H:12]

>  <mol_properties>  (3) 
{"4": {"label": "*1", "atom_type": "Cs"}, "5": {"label": "*3", "atom_type": "C2s"}, "6": {"label": "*0", "atom_type": "Cs"}, "8": {"label": "*4", "atom_type": "C2s"}, "16": {"label": "*2", "atom_type": "H0"}}

>  <level_of_theory>  (3) 
wb97xd/def2tzvp

>  <lot_method>  (3) 
wb97xd

>  <lot_basis>  (3) 
def2tzvp

>  <spin_multiplicity>  (3) 
2.0

>  <optical_isomers>  (3) 
2.0

>  <modes>  (3) 
IdealGasTranslation(mass=(125.108, 'amu')),         NonlinearRotor(             inertia = ([230.373, 674.09, 830.847

>  <frequency_value>  (3) 
-1749.44

>  <frequency_units>  (3) 
cm^-1

>  <frequency_list>  (3) 
unknown

>  <arkane_path>  (3) 
/home/calvin/Dropbox/PersonalFolders/Calvin/ZEUS_Converged/rmg_rxn_13981/output/rxns/TS0/arkane/output.py

>  <path_exists>  (3) 
True

>  <E0_value>  (3) 
-1007480.0

>  <E0_units>  (3) 
kJ/mol

>  <thermo_class>  (3) 
unknown

>  <Cp0_value>  (3) 
unknown

>  <Cp0_units>  (3) 
unknown

>  <CpInf_value>  (3) 
unknown

>  <CpInf_units>  (3) 
unknown

>  <Tmin_value>  (3) 
unknown

>  <Tmin_units>  (3) 
unknown

>  <Tmax_value>  (3) 
unknown

>  <Tmax_units>  (3) 
unknown

>  <polynomials>  (3) 
unknown

>  <H298_value>  (3) 
unknown

>  <H298_units>  (3) 
unknown

>  <S298_value>  (3) 
unknown

>  <S298_units>  (3) 
unknown

>  <Cp_T_value_list>  (3) 
unknown

>  <Cp_T_units>  (3) 
unknown

>  <T_list>  (3) 
unknown

>  <T_units>  (3) 
unknown

>  <yaml_path>  (3) 
unknown

>  <frequencies_cm1>  (3) 
unknown

>  <ZPE_kJmol>  (3) 
unknown

>  <E_elec_kJmol>  (3) 
unknown

>  <E0_minus_Eelec_plus_ZPE_kJmol>  (3) 
unknown

>  <rxn>  (3) 
unknown

>  <species_type>  (3) 
unknown

>  <species_folder>  (3) 
unknown

>  <frequencies_cm1_list>  (3) 
[]

>  <ts_imag_freq_cm1>  (3) 
-1770.6856

>  <ts_freq_out_path>  (3) 
/home/calvin/Dropbox/PersonalFolders/Calvin/ZEUS_Converged/rmg_rxn_13981/output/rxns/TS0/geometry/freq.out

>  <E0_kJmol>  (3) 
-1.00748e+06

>  <H298_kJmol>  (3) 
unknown

$$$$

     RDKit          3D

 12 11  0  0  0  0  0  0  0  0999 V2000
   -1.6799    0.1163   -0.1840 C   0  0  0  0  0  0  0  0  0  1  0  0
   -0.3995    0.5010    0.4722 C   0  0  0  0  0  3  0  0  0  2  0  0
    0.5137    1.3724   -0.0474 C   0  0  0  0  0  0  0  0  0  3  0  0
    0.3502    1.9710   -1.2320 N   0  0  0  0  0  0  0  0  0  4  0  0
    1.3174    2.8431   -1.5696 N   0  0  0  0  0  0  0  0  0  5  0  0
   -1.7177   -0.9628   -0.3601 H   0  0  0  0  0  0  0  0  0  6  0  0
   -2.5324    0.3598    0.4569 H   0  0  0  0  0  0  0  0  0  7  0  0
   -1.8040    0.6283   -1.1363 H   0  0  0  0  0  0  0  0  0  8  0  0
   -0.1711    0.0588    1.4348 H   0  0  0  0  0  0  0  0  0  9  0  0
    1.4168    1.5865    0.5319 H   0  0  0  0  0  0  0  0  0 10  0  0
    2.2323    2.7152   -1.1508 H   0  0  0  0  0  0  0  0  0 11  0  0
    1.3361    3.0383   -2.5559 H   0  0  0  0  0  0  0  0  0 12  0  0
  1  8  1  0
  1  7  1  0
  1  6  1  0
  1  2  1  0
  2  9  1  0
  2  3  1  0
  3 10  1  0
  3  4  1  0
  4  5  1  0
  5 12  1  0
  5 11  1  0
M  RAD  1   2   2
M  END
>  <rmg_smiles>  (4) 
C[CH][CH][N]N

>  <rmg_adjacency_list>  (4) 
multiplicity 2
1  N u0 p1 c0 {2,S} {11,S} {12,S}
2  N u0 p1 c0 {1,S} {5,S}
3  C u0 p0 c0 {4,S} {6,S} {7,S} {8,S}
4  C u1 p0 c0 {3,S} {5,S} {9,S}
5  C u0 p0 c0 {2,S} {4,S} {10,S}
6  H u0 p0 c0 {3,S}
7  H u0 p0 c0 {3,S}
8  H u0 p0 c0 {3,S}
9  H u0 p0 c0 {4,S}
10 H u0 p0 c0 {5,S}
11 H u0 p0 c0 {1,S}
12 H u0 p0 c0 {1,S}


>  <multiplicity>  (4) 
2

>  <reaction>  (4) 
rmg_rxn_13981

>  <type>  (4) 
r1

>  <role_mapnums>  (4) 
{}

>  <role_mapidx>  (4) 
{}

>  <ordered_mapped_smiles>  (4) 
[C:1]([C:2]([CH:3]([NH:4][N:5]([H:11])[H:12])[H:10])[H:9])([H:6])([H:7])[H:8]

>  <level_of_theory>  (4) 
wb97xd/def2tzvp

>  <lot_method>  (4) 
wb97xd

>  <lot_basis>  (4) 
def2tzvp

>  <spin_multiplicity>  (4) 
2.0

>  <optical_isomers>  (4) 
2.0

>  <modes>  (4) 
IdealGasTranslation(mass=(71.0609, 'amu')),         NonlinearRotor(             inertia = ([29.5336, 184.64, 210.701

>  <frequency_value>  (4) 
unknown

>  <frequency_units>  (4) 
unknown

>  <frequency_list>  (4) 
unknown

>  <arkane_path>  (4) 
/home/calvin/Dropbox/PersonalFolders/Calvin/ZEUS_Converged/rmg_rxn_13981/output/Species/rmg_rxn_13981_p1_Csbr-CH-sbrC=NN/arkane/output.py

>  <path_exists>  (4) 
True

>  <E0_value>  (4) 
-598275.2800468821

>  <E0_units>  (4) 
kJ/mol

>  <thermo_class>  (4) 
NASA

>  <Cp0_value>  (4) 
33.257888

>  <Cp0_units>  (4) 
J/(mol*K)

>  <CpInf_value>  (4) 
282.692048

>  <CpInf_units>  (4) 
J/(mol*K)

>  <Tmin_value>  (4) 
10.0

>  <Tmin_units>  (4) 
K

>  <Tmax_value>  (4) 
3000.0

>  <Tmax_units>  (4) 
K

>  <polynomials>  (4) 
[{"name": "polynomial1", "class": "NASAPolynomial", "Tmin_value": 10.0, "Tmin_units": "K", "Tmax_value": 366.7174735517215, "Tmax_units": "K", "coeffs": [3.7971464582164076, 0.01712840359899359, 7.532734518680577e-05, -1.7422019347854378e-07, 1.2273335988277786e-10, -71955893.35815866, 11.070679841005424]}, {"name": "polynomial2", "class": "NASAPolynomial", "Tmin_value": 366.7174735517215, "Tmin_units": "K", "Tmax_value": 3000.0, "Tmax_units": "K", "coeffs": [1.5634281556089815, 0.04149259727204526, -2.4329457873497574e-05, 6.946910059379756e-09, -7.712017446099328e-13, -71955729.52766144, 19.606319064288527]}]

>  <H298_value>  (4) 
-142986.70658008612

>  <H298_units>  (4) 
kcal/mol

>  <S298_value>  (4) 
79.20502345005374

>  <S298_units>  (4) 
cal/(mol*K)

>  <Cp_T_value_list>  (4) 
[23.857057095767413, 29.197256633611634, 33.87695443606276, 37.95756482540437, 44.56824599166819, 49.485964495331025, 56.83938487509146, 60.5439099973707, 62.508466614878564]

>  <Cp_T_units>  (4) 
cal/(mol*K)

>  <T_list>  (4) 
[300.0, 400.0, 500.0, 600.0, 800.0, 1000.0, 1500.0, 2000.0, 2400.0]

>  <T_units>  (4) 
K

>  <yaml_path>  (4) 
/home/calvin/Dropbox/PersonalFolders/Calvin/ZEUS_Converged/rmg_rxn_13981/output/Species/rmg_rxn_13981_p1_Csbr-CH-sbrC=NN/rmg_rxn_13981_p1_Csbr-CH-sbrC=NN.yml

>  <frequencies_cm1>  (4) 
[102.20820950288, 176.13817345799998, 210.80958233868, 366.32619888072, 419.83374849416, 450.85878816991993, 605.60630235612, 675.42980908988, 714.09093644148, 933.4361815329199, 945.3160661365198, 1018.3876569266398, 1029.10702101116, 1134.1306944952398, 1222.9688835800798, 1246.50890925704, 1330.9728286930401, 1386.72588250612, 1446.1390394947598, 1461.01292969788, 1471.12799907424, 1556.1275433651997, 1644.9863334059999, 3000.3781618969597, 3032.3783134881596, 3048.60499979932, 3116.86970086544, 3157.53598793048, 3449.68501138456, 3630.6575425078395]

>  <ZPE_kJmol>  (4) 
263.0849686240226

>  <E_elec_kJmol>  (4) 
-598538.3650155062

>  <E0_minus_Eelec_plus_ZPE_kJmol>  (4) 
0.0

>  <rxn>  (4) 
rmg_rxn_13981

>  <species_type>  (4) 
p0

>  <species_folder>  (4) 
rmg_rxn_13981_p1_Csbr-CH-sbrC=NN

>  <frequencies_cm1_list>  (4) 
[102.20820950288, 176.13817345799998, 210.80958233868, 366.32619888072, 419.83374849416, 450.85878816991993, 605.60630235612, 675.42980908988, 714.09093644148, 933.4361815329199, 945.3160661365198, 1018.3876569266398, 1029.10702101116, 1134.1306944952398, 1222.9688835800798, 1246.50890925704, 1330.9728286930401, 1386.72588250612, 1446.1390394947598, 1461.01292969788, 1471.12799907424, 1556.1275433651997, 1644.9863334059999, 3000.3781618969597, 3032.3783134881596, 3048.60499979932, 3116.86970086544, 3157.53598793048, 3449.68501138456, 3630.6575425078395]

>  <E0_kJmol>  (4) 
-598275

>  <H298_kJmol>  (4) 
-598256

$$$$

     RDKit          3D

  9  8  0  0  0  0  0  0  0  0999 V2000
    2.2285    0.1429   -0.1875 C   0  0  0  0  0  0  0  0  0  1  0  0
    0.8689    0.0588   -0.0734 C   0  0  0  0  0  0  0  0  0  2  0  0
   -0.3436   -0.0148    0.0282 C   0  0  0  0  0  3  0  0  0  3  0  0
   -1.7876   -0.1130    0.1500 C   0  0  0  0  0  0  0  0  0  4  0  0
    2.8646    0.0330    0.6803 H   0  0  0  0  0  0  0  0  0  5  0  0
    2.6934    0.3211   -1.1477 H   0  0  0  0  0  0  0  0  0  6  0  0
   -2.1322    0.3380    1.0826 H   0  0  0  0  0  0  0  0  0  7  0  0
   -2.1068   -1.1583    0.1470 H   0  0  0  0  0  0  0  0  0  8  0  0
   -2.2854    0.3923   -0.6795 H   0  0  0  0  0  0  0  0  0  9  0  0
  1  5  1  0
  1  6  1  0
  1  2  1  0
  2  3  1  0
  3  4  1  0
  4  8  1  0
  4  9  1  0
  4  7  1  0
M  RAD  1   3   2
M  END
>  <rmg_smiles>  (5) 
[CH2]C[C]C

>  <rmg_adjacency_list>  (5) 
multiplicity 2
1 C u0 p0 c0 {3,S} {5,S} {6,S} {7,S}
2 C u0 p0 c0 {4,S} {8,S} {9,S}
3 C u1 p1 c0 {1,S} {4,S}
4 C u0 p1 c0 {2,S} {3,S}
5 H u0 p0 c0 {1,S}
6 H u0 p0 c0 {1,S}
7 H u0 p0 c0 {1,S}
8 H u0 p0 c0 {2,S}
9 H u0 p0 c0 {2,S}


>  <multiplicity>  (5) 
2

>  <reaction>  (5) 
rmg_rxn_13981

>  <type>  (5) 
r2

>  <role_mapnums>  (5) 
{}

>  <role_mapidx>  (5) 
{}

>  <ordered_mapped_smiles>  (5) 
[CH:1]([CH2:2][CH:3][C:4]([H:7])([H:8])[H:9])([H:5])[H:6]

>  <level_of_theory>  (5) 
wb97xd/def2tzvp

>  <lot_method>  (5) 
wb97xd

>  <lot_basis>  (5) 
def2tzvp

>  <spin_multiplicity>  (5) 
2.0

>  <optical_isomers>  (5) 
2.0

>  <modes>  (5) 
IdealGasTranslation(mass=(53.0391, 'amu')),         NonlinearRotor(             inertia = ([4.88746, 139.242, 140.992

>  <frequency_value>  (5) 
unknown

>  <frequency_units>  (5) 
unknown

>  <frequency_list>  (5) 
unknown

>  <arkane_path>  (5) 
/home/calvin/Dropbox/PersonalFolders/Calvin/ZEUS_Converged/rmg_rxn_13981/output/Species/rmg_rxn_13981_r2_sbr-CH2-sbrCtCC/arkane/output.py

>  <path_exists>  (5) 
True

>  <E0_value>  (5) 
-407625.4064849041

>  <E0_units>  (5) 
kJ/mol

>  <thermo_class>  (5) 
NASA

>  <Cp0_value>  (5) 
33.257888

>  <Cp0_units>  (5) 
J/(mol*K)

>  <CpInf_value>  (5) 
207.8618

>  <CpInf_units>  (5) 
J/(mol*K)

>  <Tmin_value>  (5) 
10.0

>  <Tmin_units>  (5) 
K

>  <Tmax_value>  (5) 
3000.0

>  <Tmax_units>  (5) 
K

>  <polynomials>  (5) 
[{"name": "polynomial1", "class": "NASAPolynomial", "Tmin_value": 10.0, "Tmin_units": "K", "Tmax_value": 502.0268159976515, "Tmax_units": "K", "coeffs": [3.687270830426517, 0.029053628934412008, -4.470123428186127e-05, 7.503439468745092e-08, -5.158529094876398e-11, -49026010.75493378, 10.46372665339021]}, {"name": "polynomial2", "class": "NASAPolynomial", "Tmin_value": 502.0268159976515, "Tmin_units": "K", "Tmax_value": 3000.0, "Tmax_units": "K", "coeffs": [2.898462070883104, 0.02729908073702909, -1.54375900595206e-05, 4.274702323061024e-09, -4.631616133105543e-13, -49025830.24365362, 14.734719774038638]}]

>  <H298_value>  (5) 
-97420.5979578768

>  <H298_units>  (5) 
kcal/mol

>  <S298_value>  (5) 
76.91244568160063

>  <S298_units>  (5) 
cal/(mol*K)

>  <Cp_T_value_list>  (5) 
[19.848886680568814, 23.127392893703846, 26.219193390336713, 28.980799697634083, 33.49755626219656, 36.90539253248215, 42.11858387906473, 44.77831245492002, 46.14816382733488]

>  <Cp_T_units>  (5) 
cal/(mol*K)

>  <T_list>  (5) 
[300.0, 400.0, 500.0, 600.0, 800.0, 1000.0, 1500.0, 2000.0, 2400.0]

>  <T_units>  (5) 
K

>  <yaml_path>  (5) 
/home/calvin/Dropbox/PersonalFolders/Calvin/ZEUS_Converged/rmg_rxn_13981/output/Species/rmg_rxn_13981_r2_sbr-CH2-sbrCtCC/rmg_rxn_13981_r2_sbr-CH2-sbrCtCC.yml

>  <frequencies_cm1>  (5) 
[24.18552229704, 186.74766577739996, 206.32544092471997, 398.28514856, 428.84323323399997, 670.45124473288, 768.8002084859199, 1023.53102893132, 1025.11730254024, 1044.32426048028, 1244.297739984, 1401.51050190008, 1455.78715386936, 1460.16829050352, 1460.7931861676398, 2137.33544687936, 3007.2588811876003, 3071.0325738544398, 3085.0961597897995, 3128.557309880079, 3222.30539346872]

>  <ZPE_kJmol>  (5) 
182.1360065892337

>  <E_elec_kJmol>  (5) 
-407807.5424914933

>  <E0_minus_Eelec_plus_ZPE_kJmol>  (5) 
0.0

>  <rxn>  (5) 
rmg_rxn_13981

>  <species_type>  (5) 
r1

>  <species_folder>  (5) 
rmg_rxn_13981_r2_sbr-CH2-sbrCtCC

>  <frequencies_cm1_list>  (5) 
[24.18552229704, 186.74766577739996, 206.32544092471997, 398.28514856, 428.84323323399997, 670.45124473288, 768.8002084859199, 1023.53102893132, 1025.11730254024, 1044.32426048028, 1244.297739984, 1401.51050190008, 1455.78715386936, 1460.16829050352, 1460.7931861676398, 2137.33544687936, 3007.2588811876003, 3071.0325738544398, 3085.0961597897995, 3128.557309880079, 3222.30539346872]

>  <E0_kJmol>  (5) 
-407625

>  <H298_kJmol>  (5) 
-407608

$$$$
