
     RDKit          3D

 10  9  0  0  0  0  0  0  0  0999 V2000
   -0.2488    1.4612    1.2804 C   0  0  0  0  0  0  0  0  0  1  0  0
    0.0317    0.5581    0.3706 C   0  0  0  0  0  2  0  0  0  2  0  0
    0.3885   -0.2774   -0.5312 C   0  0  0  0  0  0  0  0  0  3  0  0
   -0.1581   -1.5742   -1.0151 C   0  0  0  0  0  0  0  0  0  4  0  0
    0.1438    1.3797    2.2872 H   0  0  0  0  0  0  0  0  0  5  0  0
   -0.8920    2.3037    1.0562 H   0  0  0  0  0  0  0  0  0  6  0  0
    1.3025    0.0006   -1.0559 H   0  0  0  0  0  0  0  0  0  7  0  0
    0.5910   -2.3611   -0.9034 H   0  0  0  0  0  0  0  0  0  8  0  0
   -0.4110   -1.5112   -2.0757 H   0  0  0  0  0  0  0  0  0  9  0  0
   -1.0544   -1.8586   -0.4625 H   0  0  0  0  0  0  0  0  0 10  0  0
  1  5  1  0
  1  6  1  0
  1  2  1  0
  2  3  1  0
  3  4  1  0
  3  7  1  0
  4  8  1  0
  4  9  1  0
  4 10  1  0
M  RAD  1   2   3
M  END
>  <rmg_smiles>  (1) 
[CH2][C][CH]C

>  <rmg_adjacency_list>  (1) 
1  C u0 p0 c0 {2,S} {5,S} {6,S} {7,S}
2  C u0 p0 c0 {1,S} {4,S} {8,S}
3  C u0 p0 c0 {4,S} {9,S} {10,S}
4  C u0 p1 c0 {2,S} {3,S}
5  H u0 p0 c0 {1,S}
6  H u0 p0 c0 {1,S}
7  H u0 p0 c0 {1,S}
8  H u0 p0 c0 {2,S}
9  H u0 p0 c0 {3,S}
10 H u0 p0 c0 {3,S}


>  <multiplicity>  (1) 
1

>  <reaction>  (1) 
rmg_rxn_13937

>  <type>  (1) 
r1h

>  <role_mapnums>  (1) 
{"r1h_a": 3, "r1h_h": 7}

>  <role_mapidx>  (1) 
{"r1h_a": 2, "r1h_h": 6}

>  <ordered_mapped_smiles>  (1) 
[CH:1]([C:2][CH:3]([C:4]([H:8])([H:9])[H:10])[H:7])([H:5])[H:6]

>  <mol_properties>  (1) 
{"2": {"label": "donator", "atom_type": "Cs"}, "6": {"label": "d_hydrogen", "atom_type": "H0"}}

>  <level_of_theory>  (1) 
wb97xd/def2tzvp

>  <lot_method>  (1) 
wb97xd

>  <lot_basis>  (1) 
def2tzvp

>  <spin_multiplicity>  (1) 
1.0

>  <optical_isomers>  (1) 
1.0

>  <modes>  (1) 
IdealGasTranslation(mass=(54.047, 'amu')),         NonlinearRotor(             inertia = ([14.6121, 119.467, 127.49

>  <frequency_value>  (1) 
unknown

>  <frequency_units>  (1) 
unknown

>  <frequency_list>  (1) 
unknown

>  <arkane_path>  (1) 
/home/calvin/Dropbox/PersonalFolders/Calvin/ZEUS_Converged/rmg_rxn_13937/output/Species/rmg_rxn_13937_r1_C=C=CC/arkane/output.py

>  <path_exists>  (1) 
True

>  <E0_value>  (1) 
-409296.6502421279

>  <E0_units>  (1) 
kJ/mol

>  <thermo_class>  (1) 
NASA

>  <Cp0_value>  (1) 
33.257888

>  <Cp0_units>  (1) 
J/(mol*K)

>  <CpInf_value>  (1) 
232.805216

>  <CpInf_units>  (1) 
J/(mol*K)

>  <Tmin_value>  (1) 
10.0

>  <Tmin_units>  (1) 
K

>  <Tmax_value>  (1) 
3000.0

>  <Tmax_units>  (1) 
K

>  <polynomials>  (1) 
[{"name": "polynomial1", "class": "NASAPolynomial", "Tmin_value": 10.0, "Tmin_units": "K", "Tmax_value": 452.8802664009696, "Tmax_units": "K", "coeffs": [3.9021943352433452, 0.007937521032632688, 6.664442489196733e-05, -1.2131953588307993e-07, 6.938885885775227e-11, -49227014.555544384, 8.255511443201872]}, {"name": "polynomial2", "class": "NASAPolynomial", "Tmin_value": 452.8802664009696, "Tmin_units": "K", "Tmax_value": 3000.0, "Tmax_units": "K", "coeffs": [0.958037882717614, 0.033941191741253485, -1.948265019694705e-05, 5.463813645242153e-09, -5.979209978345261e-13, -49226747.88374059, 20.12723627389473]}]

>  <H298_value>  (1) 
-97820.47439749332

>  <H298_units>  (1) 
kcal/mol

>  <S298_value>  (1) 
69.30943774444917

>  <S298_units>  (1) 
cal/(mol*K)

>  <Cp_T_value_list>  (1) 
[19.013335795722274, 23.35407848830737, 27.231838984706652, 30.626214617830076, 36.15654523435027, 40.30546036176962, 46.594544625367064, 49.786664420046236, 51.450781523093035]

>  <Cp_T_units>  (1) 
cal/(mol*K)

>  <T_list>  (1) 
[300.0, 400.0, 500.0, 600.0, 800.0, 1000.0, 1500.0, 2000.0, 2400.0]

>  <T_units>  (1) 
K

>  <yaml_path>  (1) 
/home/calvin/Dropbox/PersonalFolders/Calvin/ZEUS_Converged/rmg_rxn_13937/output/Species/rmg_rxn_13937_r1_C=C=CC/rmg_rxn_13937_r1_C=C=CC.yml

>  <frequencies_cm1>  (1) 
[164.84884959192, 210.28769145436, 340.98015606459995, 540.2944049775999, 574.7186023867599, 878.6239047086799, 884.0282221555199, 895.09093550604, 1017.79709618912, 1055.91573170044, 1088.91159616304, 1146.5530709391198, 1353.77808694076, 1399.01778622892, 1463.354571692, 1470.3726306890399, 1494.8053644576, 2061.4346581373993, 3012.63573069316, 3072.0282867258397, 3106.42501619372, 3110.62074422424, 3124.134971334, 3189.66661224276]

>  <ZPE_kJmol>  (1) 
219.25357474583132

>  <E_elec_kJmol>  (1) 
-409515.9038168737

>  <E0_minus_Eelec_plus_ZPE_kJmol>  (1) 
0.0

>  <rxn>  (1) 
rmg_rxn_13937

>  <species_type>  (1) 
r0

>  <species_folder>  (1) 
rmg_rxn_13937_r1_C=C=CC

>  <frequencies_cm1_list>  (1) 
[164.84884959192, 210.28769145436, 340.98015606459995, 540.2944049775999, 574.7186023867599, 878.6239047086799, 884.0282221555199, 895.09093550604, 1017.79709618912, 1055.91573170044, 1088.91159616304, 1146.5530709391198, 1353.77808694076, 1399.01778622892, 1463.354571692, 1470.3726306890399, 1494.8053644576, 2061.4346581373993, 3012.63573069316, 3072.0282867258397, 3106.42501619372, 3110.62074422424, 3124.134971334, 3189.66661224276]

>  <E0_kJmol>  (1) 
-409297

>  <H298_kJmol>  (1) 
-409281

$$$$

     RDKit          3D

 14 13  0  0  0  0  0  0  0  0999 V2000
   -1.5550    0.4066   -1.2666 H   0  0  0  0  0  0  0  0  0  1  0  0
   -0.6519    0.6797   -1.8065 C   0  0  0  0  0  0  0  0  0  2  0  0
    0.1872    1.4917   -0.8594 C   0  0  0  0  0  0  0  0  0  3  0  0
    0.9370    0.6898    0.1890 C   0  0  0  0  0  0  0  0  0  4  0  0
    0.0570    0.1681    1.1965 O   0  0  0  0  0  0  0  0  0  5  0  0
   -0.3788   -1.0798    1.0659 C   0  0  0  0  0  0  0  0  0  6  0  0
   -0.0924   -1.8490    0.1938 O   0  0  0  0  0  0  0  0  0  7  0  0
   -0.2430   -0.2835   -2.1011 H   0  0  0  0  0  0  0  0  0  8  0  0
   -1.0781    1.2408   -2.6343 H   0  0  0  0  0  0  0  0  0  9  0  0
   -0.4294    2.2453   -0.3592 H   0  0  0  0  0  0  0  0  0 10  0  0
    0.9435    2.0484   -1.4279 H   0  0  0  0  0  0  0  0  0 11  0  0
    1.6274    1.3326    0.7333 H   0  0  0  0  0  0  0  0  0 12  0  0
    1.4914   -0.1323   -0.2648 H   0  0  0  0  0  0  0  0  0 13  0  0
   -1.0488   -1.3138    1.9026 H   0  0  0  0  0  0  0  0  0 14  0  0
  1  2  1  0
  2  9  1  0
  2  8  1  0
  2  3  1  0
  3 11  1  0
  3  4  1  0
  3 10  1  0
  4 13  1  0
  4 12  1  0
  4  5  1  0
  5  6  1  0
  6 14  1  0
  6  7  1  0
M  END
>  <rmg_smiles>  (2) 
CCCO[CH]O

>  <rmg_adjacency_list>  (2) 
1  O u0 p2 c0 {4,S} {6,S}
2  O u0 p2 c0 {6,S}
3  C u0 p0 c0 {4,S} {5,S} {7,S} {8,S}
4  C u0 p0 c0 {1,S} {3,S} {9,S} {10,S}
5  C u0 p0 c0 {3,S} {11,S} {12,S} {13,S}
6  C u0 p0 c0 {1,S} {2,S} {14,S}
7  H u0 p0 c0 {3,S}
8  H u0 p0 c0 {3,S}
9  H u0 p0 c0 {4,S}
10 H u0 p0 c0 {4,S}
11 H u0 p0 c0 {5,S}
12 H u0 p0 c0 {5,S}
13 H u0 p0 c0 {5,S}
14 H u0 p0 c0 {6,S}


>  <multiplicity>  (2) 
1

>  <reaction>  (2) 
rmg_rxn_13937

>  <type>  (2) 
r2h

>  <role_mapnums>  (2) 
{"r2h_a": 2, "r2h_h": 1}

>  <role_mapidx>  (2) 
{"r2h_a": 1, "r2h_h": 0}

>  <ordered_mapped_smiles>  (2) 
[H:1][C:2]([C:3]([C:4]([O:5][CH:6]([OH:7])[H:14])([H:12])[H:13])([H:10])[H:11])([H:8])[H:9]

>  <mol_properties>  (2) 
{"0": {"label": "a_hydrogen", "atom_type": "H0"}, "1": {"label": "acceptor", "atom_type": "Cs"}}

>  <level_of_theory>  (2) 
wb97xd/def2tzvp

>  <lot_method>  (2) 
wb97xd

>  <lot_basis>  (2) 
def2tzvp

>  <spin_multiplicity>  (2) 
1.0

>  <optical_isomers>  (2) 
2.0

>  <modes>  (2) 
IdealGasTranslation(mass=(88.0524, 'amu')),         NonlinearRotor(             inertia = ([48.3633, 284.16, 302.217

>  <frequency_value>  (2) 
unknown

>  <frequency_units>  (2) 
unknown

>  <frequency_list>  (2) 
unknown

>  <arkane_path>  (2) 
/home/calvin/Dropbox/PersonalFolders/Calvin/ZEUS_Converged/rmg_rxn_13937/output/Species/rmg_rxn_13937_p2_CCCOC=O/arkane/output.py

>  <path_exists>  (2) 
True

>  <E0_value>  (2) 
-807618.4108643779

>  <E0_units>  (2) 
kJ/mol

>  <thermo_class>  (2) 
NASA

>  <Cp0_value>  (2) 
33.257888

>  <Cp0_units>  (2) 
J/(mol*K)

>  <CpInf_value>  (2) 
332.57888

>  <CpInf_units>  (2) 
J/(mol*K)

>  <Tmin_value>  (2) 
10.0

>  <Tmin_units>  (2) 
K

>  <Tmax_value>  (2) 
3000.0

>  <Tmax_units>  (2) 
K

>  <polynomials>  (2) 
[{"name": "polynomial1", "class": "NASAPolynomial", "Tmin_value": 10.0, "Tmin_units": "K", "Tmax_value": 405.10744411587814, "Tmax_units": "K", "coeffs": [3.6051186443860916, 0.0433857404928104, -0.00011712945642388352, 3.5153974457342437e-07, -3.3677062560376364e-10, -97134056.76009497, 11.602927682630103]}, {"name": "polynomial2", "class": "NASAPolynomial", "Tmin_value": 405.10744411587814, "Tmin_units": "K", "Tmax_value": 3000.0, "Tmax_units": "K", "coeffs": [-0.7474451635456619, 0.053294207334936367, -3.1374616587479094e-05, 8.91792929927193e-09, -9.826468132408713e-13, -97133432.76263109, 32.017607916268844]}]

>  <H298_value>  (2) 
-193020.456463745

>  <H298_units>  (2) 
kcal/mol

>  <S298_value>  (2) 
84.07242684194651

>  <S298_units>  (2) 
cal/(mol*K)

>  <Cp_T_value_list>  (2) 
[25.521535606004147, 31.985911797342972, 37.97418499098442, 43.188235042536576, 51.611039182396816, 57.842470286699886, 67.01722850328892, 71.46707694187613, 73.76600476206598]

>  <Cp_T_units>  (2) 
cal/(mol*K)

>  <T_list>  (2) 
[300.0, 400.0, 500.0, 600.0, 800.0, 1000.0, 1500.0, 2000.0, 2400.0]

>  <T_units>  (2) 
K

>  <yaml_path>  (2) 
/home/calvin/Dropbox/PersonalFolders/Calvin/ZEUS_Converged/rmg_rxn_13937/output/Species/rmg_rxn_13937_p2_CCCOC=O/rmg_rxn_13937_p2_CCCOC=O.yml

>  <frequencies_cm1>  (2) 
[46.4551556898, 126.02978157796, 189.48759292007998, 250.07500439844, 297.16878972300003, 346.86516248384, 461.00819247287995, 761.5486719879999, 784.73161442832, 897.4257105148399, 914.51763697632, 942.4594002434001, 1045.6633226176798, 1075.20509346432, 1123.17098592452, 1166.94801733952, 1239.2985746710401, 1272.15709942724, 1302.4817066003598, 1370.97301818204, 1394.12849268108, 1404.8547237509197, 1411.8865167186, 1469.7752029661997, 1483.13835639892, 1494.14613386688, 1498.0465815286398, 1809.5330356438396, 3017.80657063912, 3018.8022835105194, 3022.331913965, 3030.1602772297992, 3060.8351006542393, 3080.8180279354397, 3091.29704753376, 3102.77178000348]

>  <ZPE_kJmol>  (2) 
311.0531007319138

>  <E_elec_kJmol>  (2) 
-807929.4639651098

>  <E0_minus_Eelec_plus_ZPE_kJmol>  (2) 
0.0

>  <rxn>  (2) 
rmg_rxn_13937

>  <species_type>  (2) 
p1

>  <species_folder>  (2) 
rmg_rxn_13937_p2_CCCOC=O

>  <frequencies_cm1_list>  (2) 
[46.4551556898, 126.02978157796, 189.48759292007998, 250.07500439844, 297.16878972300003, 346.86516248384, 461.00819247287995, 761.5486719879999, 784.73161442832, 897.4257105148399, 914.51763697632, 942.4594002434001, 1045.6633226176798, 1075.20509346432, 1123.17098592452, 1166.94801733952, 1239.2985746710401, 1272.15709942724, 1302.4817066003598, 1370.97301818204, 1394.12849268108, 1404.8547237509197, 1411.8865167186, 1469.7752029661997, 1483.13835639892, 1494.14613386688, 1498.0465815286398, 1809.5330356438396, 3017.80657063912, 3018.8022835105194, 3022.331913965, 3030.1602772297992, 3060.8351006542393, 3080.8180279354397, 3091.29704753376, 3102.77178000348]

>  <E0_kJmol>  (2) 
-807618

>  <H298_kJmol>  (2) 
-807598

$$$$

     RDKit          3D

 23 21  0  0  0  0  0  0  0  0999 V2000
   -2.2336    1.6304    1.2582 C   0  0  0  0  0  0  0  0  0  1  0  0
   -1.9531    0.7274    0.3484 C   0  0  0  0  0  0  0  0  0  2  0  0
   -1.5963   -0.1082   -0.5534 C   0  0  0  0  0  0  0  0  0  3  0  0
   -2.1428   -1.4050   -1.0372 C   0  0  0  0  0  0  0  0  0  4  0  0
   -1.8409    1.5490    2.2650 H   0  0  0  0  0  0  0  0  0  5  0  0
   -2.8768    2.4730    1.0340 H   0  0  0  0  0  0  0  0  0  6  0  0
   -0.5199    0.2192   -1.1712 H   0  0  0  0  0  0  0  0  0  7  0  0
   -1.3938   -2.1919   -0.9256 H   0  0  0  0  0  0  0  0  0  8  0  0
   -2.3958   -1.3420   -2.0979 H   0  0  0  0  0  0  0  0  0  9  0  0
   -3.0392   -1.6893   -0.4847 H   0  0  0  0  0  0  0  0  0 10  0  0
    0.6414    0.5704   -1.8657 C   0  0  0  0  0  3  0  0  0 11  0  0
    1.4805    1.3825   -0.9185 C   0  0  0  0  0  0  0  0  0 12  0  0
    2.2303    0.5805    0.1299 C   0  0  0  0  0  0  0  0  0 13  0  0
    1.3503    0.0588    1.1373 O   0  0  0  0  0  0  0  0  0 14  0  0
    0.9146   -1.1891    1.0068 C   0  0  0  0  0  0  0  0  0 15  0  0
    1.2009   -1.9583    0.1346 O   0  0  0  0  0  0  0  0  0 16  0  0
    1.0504   -0.3928   -2.1602 H   0  0  0  0  0  0  0  0  0 17  0  0
    0.2152    1.1315   -2.6934 H   0  0  0  0  0  0  0  0  0 18  0  0
    0.8639    2.1360   -0.4183 H   0  0  0  0  0  0  0  0  0 19  0  0
    2.2368    1.9391   -1.4870 H   0  0  0  0  0  0  0  0  0 20  0  0
    2.9207    1.2233    0.6742 H   0  0  0  0  0  0  0  0  0 21  0  0
    2.7847   -0.2416   -0.3239 H   0  0  0  0  0  0  0  0  0 22  0  0
    0.2445   -1.4231    1.8435 H   0  0  0  0  0  0  0  0  0 23  0  0
  1  5  1  0
  1  6  1  0
  1  2  1  0
  2  3  1  0
  3  4  1  0
  3  7  1  0
  4 10  1  0
  4  9  1  0
  4  8  1  0
 11 17  1  0
 11 12  1  0
 11 18  1  0
 12 19  1  0
 12 20  1  0
 12 13  1  0
 13 21  1  0
 13 22  1  0
 13 14  1  0
 14 15  1  0
 15 16  1  0
 15 23  1  0
M  RAD  1  11   2
M  END
>  <rmg_smiles>  (3) 
[CH2]CCO[CH]O.[CH2]C[CH]C

>  <rmg_adjacency_list>  (3) 
multiplicity 2
1  O u0 p2 c0 {4,S} {8,S}
2  O u0 p2 c0 {8,S}
3  C u0 p0 c0 {4,S} {7,S} {11,S} {12,S}
4  C u0 p0 c0 {1,S} {3,S} {13,S} {14,S}
5  C u0 p0 c0 {6,S} {15,S} {16,S} {17,S}
6  C u0 p0 c0 {5,S} {10,S} {18,S}
7  C u1 p0 c0 {3,S} {19,S} {20,S}
8  C u0 p0 c0 {1,S} {2,S} {23,S}
9  C u0 p0 c0 {10,S} {21,S} {22,S}
10 C u0 p1 c0 {6,S} {9,S}
11 H u0 p0 c0 {3,S}
12 H u0 p0 c0 {3,S}
13 H u0 p0 c0 {4,S}
14 H u0 p0 c0 {4,S}
15 H u0 p0 c0 {5,S}
16 H u0 p0 c0 {5,S}
17 H u0 p0 c0 {5,S}
18 H u0 p0 c0 {6,S}
19 H u0 p0 c0 {7,S}
20 H u0 p0 c0 {7,S}
21 H u0 p0 c0 {9,S}
22 H u0 p0 c0 {9,S}
23 H u0 p0 c0 {8,S}


>  <multiplicity>  (3) 
2

>  <reaction>  (3) 
rmg_rxn_13937

>  <type>  (3) 
ts

>  <role_mapnums>  (3) 
{"*2": 7, "*1": 3, "*3": 11, "*0": 2, "*4": 12}

>  <role_mapidx>  (3) 
{"*2": 6, "*1": 2, "*3": 10, "*0": 1, "*4": 11}

>  <ordered_mapped_smiles>  (3) 
[CH:1]([CH2:2][CH:3]([C:4]([H:8])([H:9])[H:10])[H:7])([H:5])[H:6].[C:11]([C:12]([C:13]([O:14][CH:15]([OH:16])[H:23])([H:21])[H:22])([H:19])[H:20])([H:17])[H:18]

>  <mol_properties>  (3) 
{"1": {"label": "*0", "atom_type": "C2s"}, "2": {"label": "*1", "atom_type": "Cs"}, "6": {"label": "*2", "atom_type": "H0"}, "10": {"label": "*3", "atom_type": "Cs"}, "11": {"label": "*4", "atom_type": "Cs"}}

>  <level_of_theory>  (3) 
wb97xd/def2tzvp

>  <lot_method>  (3) 
wb97xd

>  <lot_basis>  (3) 
def2tzvp

>  <spin_multiplicity>  (3) 
2.0

>  <optical_isomers>  (3) 
2.0

>  <modes>  (3) 
IdealGasTranslation(mass=(141.092, 'amu')),         NonlinearRotor(             inertia = ([354.996, 551.309, 600.177

>  <frequency_value>  (3) 
-1650.23

>  <frequency_units>  (3) 
cm^-1

>  <frequency_list>  (3) 
unknown

>  <arkane_path>  (3) 
/home/calvin/Dropbox/PersonalFolders/Calvin/ZEUS_Converged/rmg_rxn_13937/output/rxns/TS0/arkane/output.py

>  <path_exists>  (3) 
True

>  <E0_value>  (3) 
-1215150.0

>  <E0_units>  (3) 
kJ/mol

>  <thermo_class>  (3) 
unknown

>  <Cp0_value>  (3) 
unknown

>  <Cp0_units>  (3) 
unknown

>  <CpInf_value>  (3) 
unknown

>  <CpInf_units>  (3) 
unknown

>  <Tmin_value>  (3) 
unknown

>  <Tmin_units>  (3) 
unknown

>  <Tmax_value>  (3) 
unknown

>  <Tmax_units>  (3) 
unknown

>  <polynomials>  (3) 
unknown

>  <H298_value>  (3) 
unknown

>  <H298_units>  (3) 
unknown

>  <S298_value>  (3) 
unknown

>  <S298_units>  (3) 
unknown

>  <Cp_T_value_list>  (3) 
unknown

>  <Cp_T_units>  (3) 
unknown

>  <T_list>  (3) 
unknown

>  <T_units>  (3) 
unknown

>  <yaml_path>  (3) 
unknown

>  <frequencies_cm1>  (3) 
unknown

>  <ZPE_kJmol>  (3) 
unknown

>  <E_elec_kJmol>  (3) 
unknown

>  <E0_minus_Eelec_plus_ZPE_kJmol>  (3) 
unknown

>  <rxn>  (3) 
unknown

>  <species_type>  (3) 
unknown

>  <species_folder>  (3) 
unknown

>  <frequencies_cm1_list>  (3) 
[]

>  <ts_imag_freq_cm1>  (3) 
-1670.2711

>  <ts_freq_out_path>  (3) 
/home/calvin/Dropbox/PersonalFolders/Calvin/ZEUS_Converged/rmg_rxn_13937/output/rxns/TS0/geometry/freq.out

>  <E0_kJmol>  (3) 
-1.21515e+06

>  <H298_kJmol>  (3) 
unknown

$$$$

     RDKit          3D

  9  8  0  0  0  0  0  0  0  0999 V2000
    2.2285    0.1429   -0.1875 C   0  0  0  0  0  0  0  0  0  1  0  0
    0.8689    0.0588   -0.0734 C   0  0  0  0  0  0  0  0  0  2  0  0
   -0.3436   -0.0148    0.0282 C   0  0  0  0  0  3  0  0  0  3  0  0
   -1.7876   -0.1130    0.1500 C   0  0  0  0  0  0  0  0  0  4  0  0
    2.8646    0.0330    0.6803 H   0  0  0  0  0  0  0  0  0  5  0  0
    2.6934    0.3211   -1.1477 H   0  0  0  0  0  0  0  0  0  6  0  0
   -2.1322    0.3380    1.0826 H   0  0  0  0  0  0  0  0  0  7  0  0
   -2.1068   -1.1583    0.1470 H   0  0  0  0  0  0  0  0  0  8  0  0
   -2.2854    0.3923   -0.6795 H   0  0  0  0  0  0  0  0  0  9  0  0
  1  5  1  0
  1  6  1  0
  1  2  1  0
  2  3  1  0
  3  4  1  0
  4  8  1  0
  4  9  1  0
  4  7  1  0
M  RAD  1   3   2
M  END
>  <rmg_smiles>  (4) 
[CH2]C[C]C

>  <rmg_adjacency_list>  (4) 
multiplicity 2
1 C u0 p0 c0 {3,S} {5,S} {6,S} {7,S}
2 C u0 p0 c0 {4,S} {8,S} {9,S}
3 C u1 p1 c0 {1,S} {4,S}
4 C u0 p1 c0 {2,S} {3,S}
5 H u0 p0 c0 {1,S}
6 H u0 p0 c0 {1,S}
7 H u0 p0 c0 {1,S}
8 H u0 p0 c0 {2,S}
9 H u0 p0 c0 {2,S}


>  <multiplicity>  (4) 
2

>  <reaction>  (4) 
rmg_rxn_13937

>  <type>  (4) 
r1

>  <role_mapnums>  (4) 
{}

>  <role_mapidx>  (4) 
{}

>  <ordered_mapped_smiles>  (4) 
[CH:1]([CH2:2][CH:3][C:4]([H:7])([H:8])[H:9])([H:5])[H:6]

>  <level_of_theory>  (4) 
wb97xd/def2tzvp

>  <lot_method>  (4) 
wb97xd

>  <lot_basis>  (4) 
def2tzvp

>  <spin_multiplicity>  (4) 
2.0

>  <optical_isomers>  (4) 
2.0

>  <modes>  (4) 
IdealGasTranslation(mass=(53.0391, 'amu')),         NonlinearRotor(             inertia = ([4.88746, 139.242, 140.992

>  <frequency_value>  (4) 
unknown

>  <frequency_units>  (4) 
unknown

>  <frequency_list>  (4) 
unknown

>  <arkane_path>  (4) 
/home/calvin/Dropbox/PersonalFolders/Calvin/ZEUS_Converged/rmg_rxn_13937/output/Species/rmg_rxn_13937_p1_sbr-CH2-sbrCtCC/arkane/output.py

>  <path_exists>  (4) 
True

>  <E0_value>  (4) 
-407625.4064849041

>  <E0_units>  (4) 
kJ/mol

>  <thermo_class>  (4) 
NASA

>  <Cp0_value>  (4) 
33.257888

>  <Cp0_units>  (4) 
J/(mol*K)

>  <CpInf_value>  (4) 
207.8618

>  <CpInf_units>  (4) 
J/(mol*K)

>  <Tmin_value>  (4) 
10.0

>  <Tmin_units>  (4) 
K

>  <Tmax_value>  (4) 
3000.0

>  <Tmax_units>  (4) 
K

>  <polynomials>  (4) 
[{"name": "polynomial1", "class": "NASAPolynomial", "Tmin_value": 10.0, "Tmin_units": "K", "Tmax_value": 502.0268159976515, "Tmax_units": "K", "coeffs": [3.687270830426517, 0.029053628934412008, -4.470123428186127e-05, 7.503439468745092e-08, -5.158529094876398e-11, -49026010.75493378, 10.46372665339021]}, {"name": "polynomial2", "class": "NASAPolynomial", "Tmin_value": 502.0268159976515, "Tmin_units": "K", "Tmax_value": 3000.0, "Tmax_units": "K", "coeffs": [2.898462070883104, 0.02729908073702909, -1.54375900595206e-05, 4.274702323061024e-09, -4.631616133105543e-13, -49025830.24365362, 14.734719774038638]}]

>  <H298_value>  (4) 
-97420.5979578768

>  <H298_units>  (4) 
kcal/mol

>  <S298_value>  (4) 
76.91244568160063

>  <S298_units>  (4) 
cal/(mol*K)

>  <Cp_T_value_list>  (4) 
[19.848886680568814, 23.127392893703846, 26.219193390336713, 28.980799697634083, 33.49755626219656, 36.90539253248215, 42.11858387906473, 44.77831245492002, 46.14816382733488]

>  <Cp_T_units>  (4) 
cal/(mol*K)

>  <T_list>  (4) 
[300.0, 400.0, 500.0, 600.0, 800.0, 1000.0, 1500.0, 2000.0, 2400.0]

>  <T_units>  (4) 
K

>  <yaml_path>  (4) 
/home/calvin/Dropbox/PersonalFolders/Calvin/ZEUS_Converged/rmg_rxn_13937/output/Species/rmg_rxn_13937_p1_sbr-CH2-sbrCtCC/rmg_rxn_13937_p1_sbr-CH2-sbrCtCC.yml

>  <frequencies_cm1>  (4) 
[24.18552229704, 186.74766577739996, 206.32544092471997, 398.28514856, 428.84323323399997, 670.45124473288, 768.8002084859199, 1023.53102893132, 1025.11730254024, 1044.32426048028, 1244.297739984, 1401.51050190008, 1455.78715386936, 1460.16829050352, 1460.7931861676398, 2137.33544687936, 3007.2588811876003, 3071.0325738544398, 3085.0961597897995, 3128.557309880079, 3222.30539346872]

>  <ZPE_kJmol>  (4) 
182.1360065892337

>  <E_elec_kJmol>  (4) 
-407807.5424914933

>  <E0_minus_Eelec_plus_ZPE_kJmol>  (4) 
0.0

>  <rxn>  (4) 
rmg_rxn_13937

>  <species_type>  (4) 
p0

>  <species_folder>  (4) 
rmg_rxn_13937_p1_sbr-CH2-sbrCtCC

>  <frequencies_cm1_list>  (4) 
[24.18552229704, 186.74766577739996, 206.32544092471997, 398.28514856, 428.84323323399997, 670.45124473288, 768.8002084859199, 1023.53102893132, 1025.11730254024, 1044.32426048028, 1244.297739984, 1401.51050190008, 1455.78715386936, 1460.16829050352, 1460.7931861676398, 2137.33544687936, 3007.2588811876003, 3071.0325738544398, 3085.0961597897995, 3128.557309880079, 3222.30539346872]

>  <E0_kJmol>  (4) 
-407625

>  <H298_kJmol>  (4) 
-407608

$$$$

     RDKit          3D

 13 12  0  0  0  0  0  0  0  0999 V2000
   -1.5799    1.1067    0.0515 C   0  0  0  0  0  3  0  0  0  1  0  0
   -0.9928   -0.2393    0.2618 C   0  0  0  0  0  0  0  0  0  2  0  0
   -1.7555   -1.0997    1.2551 C   0  0  0  0  0  0  0  0  0  3  0  0
   -1.8361   -0.4775    2.5485 O   0  0  0  0  0  0  0  0  0  4  0  0
   -0.7917   -0.6299    3.3579 C   0  0  0  0  0  0  0  0  0  5  0  0
    0.2062   -1.2445    3.1186 O   0  0  0  0  0  0  0  0  0  6  0  0
   -1.2812    1.7056   -0.7974 H   0  0  0  0  0  0  0  0  0  7  0  0
   -2.2051    1.5632    0.8066 H   0  0  0  0  0  0  0  0  0  8  0  0
    0.0498   -0.1629    0.6011 H   0  0  0  0  0  0  0  0  0  9  0  0
   -0.9461   -0.7884   -0.6853 H   0  0  0  0  0  0  0  0  0 10  0  0
   -1.2850   -2.0771    1.3590 H   0  0  0  0  0  0  0  0  0 11  0  0
   -2.7930   -1.2235    0.9483 H   0  0  0  0  0  0  0  0  0 12  0  0
   -0.9863   -0.1022    4.3012 H   0  0  0  0  0  0  0  0  0 13  0  0
  1  8  1  0
  1  7  1  0
  1  2  1  0
  2 10  1  0
  2  9  1  0
  2  3  1  0
  3 11  1  0
  3  4  1  0
  3 12  1  0
  4  5  1  0
  5 13  1  0
  5  6  1  0
M  RAD  1   1   2
M  END
>  <rmg_smiles>  (5) 
[CH2]CCO[CH]O

>  <rmg_adjacency_list>  (5) 
multiplicity 2
1  O u0 p2 c0 {4,S} {6,S}
2  O u0 p2 c0 {6,S}
3  C u0 p0 c0 {4,S} {5,S} {7,S} {8,S}
4  C u0 p0 c0 {1,S} {3,S} {9,S} {10,S}
5  C u1 p0 c0 {3,S} {11,S} {12,S}
6  C u0 p0 c0 {1,S} {2,S} {13,S}
7  H u0 p0 c0 {3,S}
8  H u0 p0 c0 {3,S}
9  H u0 p0 c0 {4,S}
10 H u0 p0 c0 {4,S}
11 H u0 p0 c0 {5,S}
12 H u0 p0 c0 {5,S}
13 H u0 p0 c0 {6,S}


>  <multiplicity>  (5) 
2

>  <reaction>  (5) 
rmg_rxn_13937

>  <type>  (5) 
r2

>  <role_mapnums>  (5) 
{}

>  <role_mapidx>  (5) 
{}

>  <ordered_mapped_smiles>  (5) 
[C:1]([C:2]([C:3]([O:4][CH:5]([OH:6])[H:13])([H:11])[H:12])([H:9])[H:10])([H:7])[H:8]

>  <level_of_theory>  (5) 
wb97xd/def2tzvp

>  <lot_method>  (5) 
wb97xd

>  <lot_basis>  (5) 
def2tzvp

>  <spin_multiplicity>  (5) 
2.0

>  <optical_isomers>  (5) 
2.0

>  <modes>  (5) 
IdealGasTranslation(mass=(87.0446, 'amu')),         NonlinearRotor(             inertia = ([68.7019, 226.633, 235.582

>  <frequency_value>  (5) 
unknown

>  <frequency_units>  (5) 
unknown

>  <frequency_list>  (5) 
unknown

>  <arkane_path>  (5) 
/home/calvin/Dropbox/PersonalFolders/Calvin/ZEUS_Converged/rmg_rxn_13937/output/Species/rmg_rxn_13937_r2_sbr-CH2-sbrCCOC=O/arkane/output.py

>  <path_exists>  (5) 
True

>  <E0_value>  (5) 
-805884.7092299287

>  <E0_units>  (5) 
kJ/mol

>  <thermo_class>  (5) 
NASA

>  <Cp0_value>  (5) 
33.257888

>  <Cp0_units>  (5) 
J/(mol*K)

>  <CpInf_value>  (5) 
307.635464

>  <CpInf_units>  (5) 
J/(mol*K)

>  <Tmin_value>  (5) 
10.0

>  <Tmin_units>  (5) 
K

>  <Tmax_value>  (5) 
3000.0

>  <Tmax_units>  (5) 
K

>  <polynomials>  (5) 
[{"name": "polynomial1", "class": "NASAPolynomial", "Tmin_value": 10.0, "Tmin_units": "K", "Tmax_value": 1245.5964599272857, "Tmax_units": "K", "coeffs": [3.789891563063979, 0.03413078889127189, -3.6942369782737685e-06, -1.0789613735459911e-08, 4.235189521121176e-12, -96925545.1812989, 11.8460825145934]}, {"name": "polynomial2", "class": "NASAPolynomial", "Tmin_value": 1245.5964599272857, "Tmin_units": "K", "Tmax_value": 3000.0, "Tmax_units": "K", "coeffs": [9.787111500246223, 0.028344599597379765, -1.2950731562685165e-05, 2.848277370790249e-09, -2.448995020587443e-13, -96928084.3609841, -22.59951912990215]}]

>  <H298_value>  (5) 
-192605.92067874363

>  <H298_units>  (5) 
kcal/mol

>  <S298_value>  (5) 
86.16043534336268

>  <S298_units>  (5) 
cal/(mol*K)

>  <Cp_T_value_list>  (5) 
[26.707324809494818, 32.32989192646078, 37.454320440544485, 42.042858126809364, 49.56224646992595, 54.99001657147695, 62.672513217018995, 66.6533132996006, 68.49373282412317]

>  <Cp_T_units>  (5) 
cal/(mol*K)

>  <T_list>  (5) 
[300.0, 400.0, 500.0, 600.0, 800.0, 1000.0, 1500.0, 2000.0, 2400.0]

>  <T_units>  (5) 
K

>  <yaml_path>  (5) 
/home/calvin/Dropbox/PersonalFolders/Calvin/ZEUS_Converged/rmg_rxn_13937/output/Species/rmg_rxn_13937_r2_sbr-CH2-sbrCCOC=O/rmg_rxn_13937_r2_sbr-CH2-sbrCCOC=O.yml

>  <frequencies_cm1>  (5) 
[61.260376039719986, 108.80738239539998, 142.00238943227998, 224.59848886123999, 308.3963107212, 363.84035019488, 458.33693518340004, 517.3655409941199, 763.2654183179999, 771.0045107736399, 901.1544835435999, 929.42586210604, 1012.3172419037601, 1046.5422967386398, 1078.02055744552, 1119.50401576364, 1201.87350467704, 1244.6685571912801, 1309.8431148634, 1369.0983311896798, 1392.2744066446799, 1405.6100921361199, 1446.4961227313997, 1453.42491091928, 1479.2585096931198, 1807.7682204166, 2966.7917366968395, 3016.63918313472, 3022.0160326402797, 3059.5509743993994, 3115.6954463757197, 3132.8148407784797, 3237.440229114]

>  <ZPE_kJmol>  (5) 
271.9537673680998

>  <E_elec_kJmol>  (5) 
-806156.6629972968

>  <E0_minus_Eelec_plus_ZPE_kJmol>  (5) 
0.0

>  <rxn>  (5) 
rmg_rxn_13937

>  <species_type>  (5) 
r1

>  <species_folder>  (5) 
rmg_rxn_13937_r2_sbr-CH2-sbrCCOC=O

>  <frequencies_cm1_list>  (5) 
[61.260376039719986, 108.80738239539998, 142.00238943227998, 224.59848886123999, 308.3963107212, 363.84035019488, 458.33693518340004, 517.3655409941199, 763.2654183179999, 771.0045107736399, 901.1544835435999, 929.42586210604, 1012.3172419037601, 1046.5422967386398, 1078.02055744552, 1119.50401576364, 1201.87350467704, 1244.6685571912801, 1309.8431148634, 1369.0983311896798, 1392.2744066446799, 1405.6100921361199, 1446.4961227313997, 1453.42491091928, 1479.2585096931198, 1807.7682204166, 2966.7917366968395, 3016.63918313472, 3022.0160326402797, 3059.5509743993994, 3115.6954463757197, 3132.8148407784797, 3237.440229114]

>  <E0_kJmol>  (5) 
-805885

>  <H298_kJmol>  (5) 
-805863

$$$$
