
     RDKit          3D

  3  2  0  0  0  0  0  0  0  0999 V2000
   -0.5452    0.2108   -0.0594 N   0  0  0  0  0  0  0  0  0  1  0  0
    0.5120   -0.2671    0.0219 O   0  0  0  0  0  0  0  0  0  2  0  0
   -0.5491    1.1449    0.3978 H   0  0  0  0  0  0  0  0  0  3  0  0
  1  3  1  0
  1  2  1  0
M  END
>  <rmg_smiles>  (1) 
[NH][O]

>  <rmg_adjacency_list>  (1) 
1 O u0 p2 c0 {2,S}
2 N u0 p1 c0 {1,S} {3,S}
3 H u0 p0 c0 {2,S}


>  <multiplicity>  (1) 
1

>  <reaction>  (1) 
rmg_rxn_2908

>  <type>  (1) 
r1h

>  <role_mapnums>  (1) 
{"r1h_a": 1, "r1h_h": 3}

>  <role_mapidx>  (1) 
{"r1h_a": 0, "r1h_h": 2}

>  <ordered_mapped_smiles>  (1) 
[NH:1]([OH:2])[H:3]

>  <mol_properties>  (1) 
{"0": {"label": "donator", "atom_type": "N3s"}, "2": {"label": "d_hydrogen", "atom_type": "H0"}}

>  <level_of_theory>  (1) 
wb97xd/def2tzvp

>  <lot_method>  (1) 
wb97xd

>  <lot_basis>  (1) 
def2tzvp

>  <spin_multiplicity>  (1) 
1.0

>  <optical_isomers>  (1) 
1.0

>  <modes>  (1) 
IdealGasTranslation(mass=(31.0058, 'amu')),         NonlinearRotor(             inertia = ([0.894997, 11.6018, 12.4968

>  <frequency_value>  (1) 
unknown

>  <frequency_units>  (1) 
unknown

>  <frequency_list>  (1) 
unknown

>  <arkane_path>  (1) 
/home/calvin/Dropbox/PersonalFolders/Calvin/ATLAS_Converged/rmg_rxn_2908/output/Species/rmg_rxn_2908_r1_N=O/arkane/output.py

>  <path_exists>  (1) 
True

>  <E0_value>  (1) 
-342549.8942768721

>  <E0_units>  (1) 
kJ/mol

>  <thermo_class>  (1) 
NASA

>  <Cp0_value>  (1) 
33.257888

>  <Cp0_units>  (1) 
J/(mol*K)

>  <CpInf_value>  (1) 
58.201304

>  <CpInf_units>  (1) 
J/(mol*K)

>  <Tmin_value>  (1) 
10.0

>  <Tmin_units>  (1) 
K

>  <Tmax_value>  (1) 
3000.0

>  <Tmax_units>  (1) 
K

>  <polynomials>  (1) 
[{"name": "polynomial1", "class": "NASAPolynomial", "Tmin_value": 10.0, "Tmin_units": "K", "Tmax_value": 671.7035683460227, "Tmax_units": "K", "coeffs": [4.015397317465916, -0.0008611623196567181, 2.7881895948404837e-06, 3.1572614316441516e-09, -3.856509378623432e-12, -41199236.778277814, 3.7404406180568657]}, {"name": "polynomial2", "class": "NASAPolynomial", "Tmin_value": 671.7035683460227, "Tmin_units": "K", "Tmax_value": 3000.0, "Tmax_units": "K", "coeffs": [2.5318336423252847, 0.004599422101218795, -1.8713112431566604e-06, 3.036396350118557e-10, -1.1135938546781076e-14, -41198961.3591478, 10.874001344432743]}]

>  <H298_value>  (1) 
-81869.03163411531

>  <H298_units>  (1) 
kcal/mol

>  <S298_value>  (1) 
52.668835486753125

>  <S298_units>  (1) 
cal/(mol*K)

>  <Cp_T_value_list>  (1) 
[8.07202091900091, 8.38676819468166, 8.814233368891006, 9.30929347479349, 10.263194936258623, 11.033861153006823, 12.298671151995416, 12.90963850443875, 13.15479935344093]

>  <Cp_T_units>  (1) 
cal/(mol*K)

>  <T_list>  (1) 
[300.0, 400.0, 500.0, 600.0, 800.0, 1000.0, 1500.0, 2000.0, 2400.0]

>  <T_units>  (1) 
K

>  <yaml_path>  (1) 
/home/calvin/Dropbox/PersonalFolders/Calvin/ATLAS_Converged/rmg_rxn_2908/output/Species/rmg_rxn_2908_r1_N=O/rmg_rxn_2908_r1_N=O.yml

>  <frequencies_cm1>  (1) 
[1568.4194470879997, 1706.1986405484797, 2886.20079698132]

>  <ZPE_kJmol>  (1) 
36.84989081913098

>  <E_elec_kJmol>  (1) 
-342586.7441676912

>  <E0_minus_Eelec_plus_ZPE_kJmol>  (1) 
0.0

>  <rxn>  (1) 
rmg_rxn_2908

>  <species_type>  (1) 
r0

>  <species_folder>  (1) 
rmg_rxn_2908_r1_N=O

>  <frequencies_cm1_list>  (1) 
[1568.4194470879997, 1706.1986405484797, 2886.20079698132]

>  <E0_kJmol>  (1) 
-342550

>  <H298_kJmol>  (1) 
-342540

$$$$

     RDKit          3D

  6  5  0  0  0  0  0  0  0  0999 V2000
    0.3529   -0.6305   -1.5107 H   0  0  0  0  0  0  0  0  0  1  0  0
    0.5489    0.2994   -0.9819 C   0  0  0  0  0  0  0  0  0  2  0  0
   -0.3115    0.3168    0.0602 N   0  0  0  0  0  0  0  0  0  3  0  0
   -0.2810   -0.5122    0.9453 O   0  0  0  0  0  0  0  0  0  4  0  0
    0.3872    1.0934   -1.7010 H   0  0  0  0  0  0  0  0  0  5  0  0
    1.5813    0.0338   -0.7453 H   0  0  0  0  0  0  0  0  0  6  0  0
  1  2  1  0
  2  3  1  0
  2  5  1  0
  2  6  1  0
  3  4  1  0
M  END
>  <rmg_smiles>  (2) 
C[N][O]

>  <rmg_adjacency_list>  (2) 
1 O u0 p2 c0 {2,S}
2 N u0 p1 c0 {1,S} {3,S}
3 C u0 p0 c0 {2,S} {4,S} {5,S} {6,S}
4 H u0 p0 c0 {3,S}
5 H u0 p0 c0 {3,S}
6 H u0 p0 c0 {3,S}


>  <multiplicity>  (2) 
1

>  <reaction>  (2) 
rmg_rxn_2908

>  <type>  (2) 
r2h

>  <role_mapnums>  (2) 
{"r2h_a": 2, "r2h_h": 1}

>  <role_mapidx>  (2) 
{"r2h_a": 1, "r2h_h": 0}

>  <ordered_mapped_smiles>  (2) 
[H:1][C:2]([NH:3][OH:4])([H:5])[H:6]

>  <mol_properties>  (2) 
{"0": {"label": "a_hydrogen", "atom_type": "H0"}, "1": {"label": "acceptor", "atom_type": "Cs"}}

>  <level_of_theory>  (2) 
wb97xd/def2tzvp

>  <lot_method>  (2) 
wb97xd

>  <lot_basis>  (2) 
def2tzvp

>  <spin_multiplicity>  (2) 
1.0

>  <optical_isomers>  (2) 
1.0

>  <modes>  (2) 
IdealGasTranslation(mass=(45.0215, 'amu')),         NonlinearRotor(             inertia = ([8.07699, 43.5338, 48.4889

>  <frequency_value>  (2) 
unknown

>  <frequency_units>  (2) 
unknown

>  <frequency_list>  (2) 
unknown

>  <arkane_path>  (2) 
/home/calvin/Dropbox/PersonalFolders/Calvin/ATLAS_Converged/rmg_rxn_2908/output/Species/rmg_rxn_2908_p2_CN=O/arkane/output.py

>  <path_exists>  (2) 
True

>  <E0_value>  (2) 
-445718.776356613

>  <E0_units>  (2) 
kJ/mol

>  <thermo_class>  (2) 
NASA

>  <Cp0_value>  (2) 
33.257888

>  <Cp0_units>  (2) 
J/(mol*K)

>  <CpInf_value>  (2) 
133.031552

>  <CpInf_units>  (2) 
J/(mol*K)

>  <Tmin_value>  (2) 
10.0

>  <Tmin_units>  (2) 
K

>  <Tmax_value>  (2) 
3000.0

>  <Tmax_units>  (2) 
K

>  <polynomials>  (2) 
[{"name": "polynomial1", "class": "NASAPolynomial", "Tmin_value": 10.0, "Tmin_units": "K", "Tmax_value": 511.90687785810604, "Tmax_units": "K", "coeffs": [3.9789352478099715, 0.001161265651303563, 3.748997662509957e-05, -5.8505700772999076e-08, 2.9515965803367326e-11, -53607585.080265164, 6.986782485664598]}, {"name": "polynomial2", "class": "NASAPolynomial", "Tmin_value": 511.90687785810604, "Tmin_units": "K", "Tmax_value": 3000.0, "Tmax_units": "K", "coeffs": [1.9343545091495096, 0.0171365636524948, -9.318546376811868e-06, 2.45056971641056e-09, -2.5158502413706336e-13, -53607375.74155318, 15.481740257492172]}]

>  <H298_value>  (2) 
-106526.42729706276

>  <H298_units>  (2) 
kcal/mol

>  <S298_value>  (2) 
62.01661564600373

>  <S298_units>  (2) 
cal/(mol*K)

>  <Cp_T_value_list>  (2) 
[12.640299105229849, 14.810812294003128, 16.818915965173034, 18.596941456685723, 21.524185210914364, 23.74981328654779, 27.164107834916802, 28.83932173030383, 29.643096991481094]

>  <Cp_T_units>  (2) 
cal/(mol*K)

>  <T_list>  (2) 
[300.0, 400.0, 500.0, 600.0, 800.0, 1000.0, 1500.0, 2000.0, 2400.0]

>  <T_units>  (2) 
K

>  <yaml_path>  (2) 
/home/calvin/Dropbox/PersonalFolders/Calvin/ATLAS_Converged/rmg_rxn_2908/output/Species/rmg_rxn_2908_p2_CN=O/rmg_rxn_2908_p2_CN=O.yml

>  <frequencies_cm1>  (2) 
[159.67800964595997, 581.79159726636, 871.00155100348, 967.4689607788398, 1152.46554529964, 1368.8854546447599, 1439.8214130003598, 1441.90210955232, 1701.8724397968801, 3006.5378477289996, 3098.8369974151196, 3119.62336197876]

>  <ZPE_kJmol>  (2) 
113.10626417033984

>  <E_elec_kJmol>  (2) 
-445831.88262078335

>  <E0_minus_Eelec_plus_ZPE_kJmol>  (2) 
0.0

>  <rxn>  (2) 
rmg_rxn_2908

>  <species_type>  (2) 
p1

>  <species_folder>  (2) 
rmg_rxn_2908_p2_CN=O

>  <frequencies_cm1_list>  (2) 
[159.67800964595997, 581.79159726636, 871.00155100348, 967.4689607788398, 1152.46554529964, 1368.8854546447599, 1439.8214130003598, 1441.90210955232, 1701.8724397968801, 3006.5378477289996, 3098.8369974151196, 3119.62336197876]

>  <E0_kJmol>  (2) 
-445719

>  <H298_kJmol>  (2) 
-445707

$$$$

     RDKit          3D

  8  6  0  0  0  0  0  0  0  0999 V2000
    0.0990   -1.2279   -1.1921 N   0  0  0  0  0  0  0  0  0  1  0  0
    1.1562   -1.7059   -1.1108 O   0  0  0  0  0  0  0  0  0  2  0  0
    0.0944   -0.1283   -0.6539 H   0  0  0  0  0  0  0  0  0  3  0  0
    0.3611    1.1368    0.0655 C   0  0  0  0  0  0  0  0  0  4  0  0
   -0.4993    1.1542    1.1076 N   0  0  0  0  0  0  0  0  0  5  0  0
   -0.4688    0.3252    1.9927 O   0  0  0  0  0  1  0  0  0  6  0  0
    0.1994    1.9308   -0.6535 H   0  0  0  0  0  0  0  0  0  7  0  0
    1.3935    0.8712    0.3022 H   0  0  0  0  0  0  0  0  0  8  0  0
  1  2  1  0
  1  3  1  0
  4  8  1  0
  4  5  1  0
  4  7  1  0
  5  6  1  0
M  RAD  1   6   2
M  END
>  <rmg_smiles>  (3) 
[CH2][N][O].[NH][O]

>  <rmg_adjacency_list>  (3) 
multiplicity 2
1 O u1 p2 c0 {3,S}
2 O u0 p2 c0 {4,S}
3 N u0 p1 c0 {1,S} {5,S}
4 N u0 p1 c0 {2,S} {8,S}
5 C u0 p0 c0 {3,S} {6,S} {7,S}
6 H u0 p0 c0 {5,S}
7 H u0 p0 c0 {5,S}
8 H u0 p0 c0 {4,S}


>  <multiplicity>  (3) 
2

>  <reaction>  (3) 
rmg_rxn_2908

>  <type>  (3) 
ts

>  <role_mapnums>  (3) 
{"*2": 3, "*1": 1, "*3": 4, "*0": 2, "*4": 5}

>  <role_mapidx>  (3) 
{"*2": 2, "*1": 0, "*3": 3, "*0": 1, "*4": 4}

>  <ordered_mapped_smiles>  (3) 
[NH:1]([OH:2])[H:3].[CH:4]([NH:5][O:6])([H:7])[H:8]

>  <mol_properties>  (3) 
{"0": {"label": "*1", "atom_type": "N3s"}, "1": {"label": "*0", "atom_type": "O2s"}, "2": {"label": "*2", "atom_type": "H0"}, "3": {"label": "*3", "atom_type": "Cs"}, "4": {"label": "*4", "atom_type": "N3s"}}

>  <level_of_theory>  (3) 
wb97xd/def2tzvp

>  <lot_method>  (3) 
wb97xd

>  <lot_basis>  (3) 
def2tzvp

>  <spin_multiplicity>  (3) 
2.0

>  <optical_isomers>  (3) 
2.0

>  <modes>  (3) 
IdealGasTranslation(mass=(75.0195, 'amu')),         NonlinearRotor(             inertia = ([44.4271, 223.076, 246.464

>  <frequency_value>  (3) 
-2772.43

>  <frequency_units>  (3) 
cm^-1

>  <frequency_list>  (3) 
unknown

>  <arkane_path>  (3) 
/home/calvin/Dropbox/PersonalFolders/Calvin/ATLAS_Converged/rmg_rxn_2908/output/rxns/TS0/arkane/output.py

>  <path_exists>  (3) 
True

>  <E0_value>  (3) 
-786608.0

>  <E0_units>  (3) 
kJ/mol

>  <thermo_class>  (3) 
unknown

>  <Cp0_value>  (3) 
unknown

>  <Cp0_units>  (3) 
unknown

>  <CpInf_value>  (3) 
unknown

>  <CpInf_units>  (3) 
unknown

>  <Tmin_value>  (3) 
unknown

>  <Tmin_units>  (3) 
unknown

>  <Tmax_value>  (3) 
unknown

>  <Tmax_units>  (3) 
unknown

>  <polynomials>  (3) 
unknown

>  <H298_value>  (3) 
unknown

>  <H298_units>  (3) 
unknown

>  <S298_value>  (3) 
unknown

>  <S298_units>  (3) 
unknown

>  <Cp_T_value_list>  (3) 
unknown

>  <Cp_T_units>  (3) 
unknown

>  <T_list>  (3) 
unknown

>  <T_units>  (3) 
unknown

>  <yaml_path>  (3) 
unknown

>  <frequencies_cm1>  (3) 
unknown

>  <ZPE_kJmol>  (3) 
unknown

>  <E_elec_kJmol>  (3) 
unknown

>  <E0_minus_Eelec_plus_ZPE_kJmol>  (3) 
unknown

>  <rxn>  (3) 
unknown

>  <species_type>  (3) 
unknown

>  <species_folder>  (3) 
unknown

>  <frequencies_cm1_list>  (3) 
[]

>  <ts_imag_freq_cm1>  (3) 
-2806.1044

>  <ts_freq_out_path>  (3) 
/home/calvin/Dropbox/PersonalFolders/Calvin/ATLAS_Converged/rmg_rxn_2908/output/rxns/TS0/geometry/freq.out

>  <E0_kJmol>  (3) 
-786608

>  <H298_kJmol>  (3) 
unknown

$$$$

     RDKit          3D

  2  1  0  0  0  0  0  0  0  0999 V2000
    0.0000    0.0000    0.5699 N   0  0  0  0  0  2  0  0  0  1  0  0
    0.0000    0.0000   -0.5699 O   0  0  0  0  0  0  0  0  0  2  0  0
  1  2  1  0
M  RAD  1   1   2
M  END
>  <rmg_smiles>  (4) 
[N]=O

>  <rmg_adjacency_list>  (4) 
multiplicity 2
1 N u1 p2 c0 {2,S}
2 O u0 p2 c0 {1,S}


>  <multiplicity>  (4) 
2

>  <reaction>  (4) 
rmg_rxn_2908

>  <type>  (4) 
r1

>  <role_mapnums>  (4) 
{}

>  <role_mapidx>  (4) 
{}

>  <ordered_mapped_smiles>  (4) 
[NH:1][OH:2]

>  <level_of_theory>  (4) 
wb97xd/def2tzvp

>  <lot_method>  (4) 
wb97xd

>  <lot_basis>  (4) 
def2tzvp

>  <spin_multiplicity>  (4) 
2.0

>  <optical_isomers>  (4) 
1.0

>  <modes>  (4) 
IdealGasTranslation(mass=(29.998, 'amu')),         LinearRotor(inertia=(9.70079, 'amu*angstrom^2'), symmetry=1),         HarmonicOscillator(frequencies=([2034.32

>  <frequency_value>  (4) 
unknown

>  <frequency_units>  (4) 
unknown

>  <frequency_list>  (4) 
unknown

>  <arkane_path>  (4) 
/home/calvin/Dropbox/PersonalFolders/Calvin/ATLAS_Converged/rmg_rxn_2908/output/Species/rmg_rxn_2908_p1_sbr-N-sbr=O/arkane/output.py

>  <path_exists>  (4) 
True

>  <E0_value>  (4) 
-341044.6317811924

>  <E0_units>  (4) 
kJ/mol

>  <thermo_class>  (4) 
NASA

>  <Cp0_value>  (4) 
29.100652

>  <Cp0_units>  (4) 
J/(mol*K)

>  <CpInf_value>  (4) 
37.415124

>  <CpInf_units>  (4) 
J/(mol*K)

>  <Tmin_value>  (4) 
10.0

>  <Tmin_units>  (4) 
K

>  <Tmax_value>  (4) 
3000.0

>  <Tmax_units>  (4) 
K

>  <polynomials>  (4) 
[{"name": "polynomial1", "class": "NASAPolynomial", "Tmin_value": 10.0, "Tmin_units": "K", "Tmax_value": 720.3138643760603, "Tmax_units": "K", "coeffs": [3.505451677336064, -0.00028953210299893214, 6.077025119860231e-07, 1.5112348759071728e-09, -1.3872630628454572e-12, -41018195.02857665, 4.731882697322634]}, {"name": "polynomial2", "class": "NASAPolynomial", "Tmin_value": 720.3138643760603, "Tmin_units": "K", "Tmax_value": 3000.0, "Tmax_units": "K", "coeffs": [2.922952781623477, 0.001616659587859859, -5.952907480043382e-07, 6.416589639706871e-11, 3.635908475569635e-15, -41018076.64733901, 7.590238585995561]}]

>  <H298_value>  (4) 
-81509.5582027967

>  <H298_units>  (4) 
kcal/mol

>  <S298_value>  (4) 
48.9927224470057

>  <S298_units>  (4) 
cal/(mol*K)

>  <Cp_T_value_list>  (4) 
[6.96088983576959, 7.0507603601981605, 7.18337725411879, 7.34698612783888, 7.689766968620922, 7.972917755483923, 8.432720061896857, 8.637612984744813, 8.707384760249072]

>  <Cp_T_units>  (4) 
cal/(mol*K)

>  <T_list>  (4) 
[300.0, 400.0, 500.0, 600.0, 800.0, 1000.0, 1500.0, 2000.0, 2400.0]

>  <T_units>  (4) 
K

>  <yaml_path>  (4) 
/home/calvin/Dropbox/PersonalFolders/Calvin/ATLAS_Converged/rmg_rxn_2908/output/Species/rmg_rxn_2908_p1_sbr-N-sbr=O/rmg_rxn_2908_p1_sbr-N-sbr=O.yml

>  <frequencies_cm1>  (4) 
[2009.90480029612]

>  <ZPE_kJmol>  (4) 
12.021903879155191

>  <E_elec_kJmol>  (4) 
-341056.6536850716

>  <E0_minus_Eelec_plus_ZPE_kJmol>  (4) 
0.0

>  <rxn>  (4) 
rmg_rxn_2908

>  <species_type>  (4) 
p0

>  <species_folder>  (4) 
rmg_rxn_2908_p1_sbr-N-sbr=O

>  <frequencies_cm1_list>  (4) 
[2009.90480029612]

>  <E0_kJmol>  (4) 
-341045

>  <H298_kJmol>  (4) 
-341036

$$$$

     RDKit          3D

  5  4  0  0  0  0  0  0  0  0999 V2000
   -0.4986    0.0189   -0.0212 C   0  0  0  0  0  0  0  0  0  1  0  0
    0.6799   -0.4410    0.1054 N   0  0  0  0  0  0  0  0  0  2  0  0
    1.7950    0.0236    0.0595 O   0  0  0  0  0  1  0  0  0  3  0  0
   -1.3180   -0.6753    0.0776 H   0  0  0  0  0  0  0  0  0  4  0  0
   -0.6584    1.0737   -0.2213 H   0  0  0  0  0  0  0  0  0  5  0  0
  1  5  1  0
  1  4  1  0
  1  2  1  0
  2  3  1  0
M  RAD  1   3   2
M  END
>  <rmg_smiles>  (5) 
[CH2][N][O]

>  <rmg_adjacency_list>  (5) 
multiplicity 2
1 O u1 p2 c0 {2,S}
2 N u0 p1 c0 {1,S} {3,S}
3 C u0 p0 c0 {2,S} {4,S} {5,S}
4 H u0 p0 c0 {3,S}
5 H u0 p0 c0 {3,S}


>  <multiplicity>  (5) 
2

>  <reaction>  (5) 
rmg_rxn_2908

>  <type>  (5) 
r2

>  <role_mapnums>  (5) 
{}

>  <role_mapidx>  (5) 
{}

>  <ordered_mapped_smiles>  (5) 
[CH:1]([NH:2][O:3])([H:4])[H:5]

>  <level_of_theory>  (5) 
wb97xd/def2tzvp

>  <lot_method>  (5) 
wb97xd

>  <lot_basis>  (5) 
def2tzvp

>  <spin_multiplicity>  (5) 
2.0

>  <optical_isomers>  (5) 
1.0

>  <modes>  (5) 
IdealGasTranslation(mass=(44.0136, 'amu')),         NonlinearRotor(             inertia = ([3.87779, 42.4322, 46.31

>  <frequency_value>  (5) 
unknown

>  <frequency_units>  (5) 
unknown

>  <frequency_list>  (5) 
unknown

>  <arkane_path>  (5) 
/home/calvin/Dropbox/PersonalFolders/Calvin/ATLAS_Converged/rmg_rxn_2908/output/Species/rmg_rxn_2908_r2_sbr-CH2-sbrN=O/arkane/output.py

>  <path_exists>  (5) 
True

>  <E0_value>  (5) 
-444125.8698569815

>  <E0_units>  (5) 
kJ/mol

>  <thermo_class>  (5) 
NASA

>  <Cp0_value>  (5) 
33.257888

>  <Cp0_units>  (5) 
J/(mol*K)

>  <CpInf_value>  (5) 
108.088136

>  <CpInf_units>  (5) 
J/(mol*K)

>  <Tmin_value>  (5) 
10.0

>  <Tmin_units>  (5) 
K

>  <Tmax_value>  (5) 
3000.0

>  <Tmax_units>  (5) 
K

>  <polynomials>  (5) 
[{"name": "polynomial1", "class": "NASAPolynomial", "Tmin_value": 10.0, "Tmin_units": "K", "Tmax_value": 562.3844127225133, "Tmax_units": "K", "coeffs": [4.053937176279305, -0.0047398271406768585, 5.7437859425445556e-05, -9.385630136446055e-08, 5.059118934882412e-11, -53416003.88498011, 6.9306587758022244]}, {"name": "polynomial2", "class": "NASAPolynomial", "Tmin_value": 562.3844127225133, "Tmin_units": "K", "Tmax_value": 3000.0, "Tmax_units": "K", "coeffs": [2.1822483082936537, 0.014293062944345295, -8.584392971883197e-06, 2.4949936009645337e-09, -2.805584349724308e-13, -53415883.824056074, 14.078927000603649]}]

>  <H298_value>  (5) 
-106145.96131022584

>  <H298_units>  (5) 
kcal/mol

>  <S298_value>  (5) 
60.48266213431546

>  <S298_units>  (5) 
cal/(mol*K)

>  <Cp_T_value_list>  (5) 
[11.281500234397477, 13.187887263233034, 14.851189314724579, 16.235999449361433, 18.451624012184585, 20.08142406383569, 22.469810630137335, 23.65136644158371, 24.287701175564127]

>  <Cp_T_units>  (5) 
cal/(mol*K)

>  <T_list>  (5) 
[300.0, 400.0, 500.0, 600.0, 800.0, 1000.0, 1500.0, 2000.0, 2400.0]

>  <T_units>  (5) 
K

>  <yaml_path>  (5) 
/home/calvin/Dropbox/PersonalFolders/Calvin/ATLAS_Converged/rmg_rxn_2908/output/Species/rmg_rxn_2908_r2_sbr-CH2-sbrN=O/rmg_rxn_2908_r2_sbr-CH2-sbrN=O.yml

>  <frequencies_cm1>  (5) 
[458.37813709531997, 701.3458116875601, 834.5447259396, 1127.25684218992, 1261.9046903444798, 1486.4825782497596, 1744.7430291496398, 3101.34344705692, 3245.26172539348]

>  <ZPE_kJmol>  (5) 
83.50690918001081

>  <E_elec_kJmol>  (5) 
-444209.3767661615

>  <E0_minus_Eelec_plus_ZPE_kJmol>  (5) 
0.0

>  <rxn>  (5) 
rmg_rxn_2908

>  <species_type>  (5) 
r1

>  <species_folder>  (5) 
rmg_rxn_2908_r2_sbr-CH2-sbrN=O

>  <frequencies_cm1_list>  (5) 
[458.37813709531997, 701.3458116875601, 834.5447259396, 1127.25684218992, 1261.9046903444798, 1486.4825782497596, 1744.7430291496398, 3101.34344705692, 3245.26172539348]

>  <E0_kJmol>  (5) 
-444126

>  <H298_kJmol>  (5) 
-444115

$$$$
