
     RDKit          3D

 21 21  0  0  0  0  0  0  0  0999 V2000
    3.3113    1.7646   -0.3890 C   0  0  0  0  0  0  0  0  0  1  0  0
    2.0841    1.3963    0.3793 C   0  0  0  0  0  0  0  0  0  2  0  0
    1.1177    0.5927   -0.0941 C   0  0  0  0  0  0  0  0  0  3  0  0
   -0.1310    0.2129    0.6733 C   0  0  0  0  0  0  0  0  0  4  0  0
   -1.3450    0.7558   -0.0457 C   0  0  0  0  0  0  0  0  0  5  0  0
   -2.2187   -0.0297   -0.6924 C   0  0  0  0  0  0  0  0  0  6  0  0
   -2.0420   -1.4587   -0.7518 C   0  0  0  0  0  0  0  0  0  7  0  0
   -1.1115   -2.0763   -0.0112 C   0  0  0  0  0  0  0  0  0  8  0  0
   -0.1865   -1.3228    0.9089 C   0  0  0  0  0  0  0  0  0  9  0  0
    3.3329    1.3036   -1.3814 H   0  0  0  0  0  0  0  0  0 10  0  0
    3.3593    2.8505   -0.5158 H   0  0  0  0  0  0  0  0  0 11  0  0
    4.2031    1.4419    0.1569 H   0  0  0  0  0  0  0  0  0 12  0  0
    1.9955    1.8216    1.3765 H   0  0  0  0  0  0  0  0  0 13  0  0
    1.2101    0.1709   -1.0942 H   0  0  0  0  0  0  0  0  0 14  0  0
   -0.0967    0.6877    1.6634 H   0  0  0  0  0  0  0  0  0 15  0  0
   -1.4922    1.8322   -0.0369 H   0  0  0  0  0  0  0  0  0 16  0  0
   -3.0745    0.3975   -1.2068 H   0  0  0  0  0  0  0  0  0 17  0  0
   -2.7038   -2.0252   -1.4005 H   0  0  0  0  0  0  0  0  0 18  0  0
   -1.0154   -3.1571   -0.0505 H   0  0  0  0  0  0  0  0  0 19  0  0
    0.8183   -1.7602    0.8378 H   0  0  0  0  0  0  0  0  0 20  0  0
   -0.5265   -1.5104    1.9362 H   0  0  0  0  0  0  0  0  0 21  0  0
  1 11  1  0
  1 10  1  0
  1 12  1  0
  1  2  1  0
  2 13  1  0
  2  3  1  0
  3  4  1  0
  3 14  1  0
  4  9  1  0
  4  5  1  0
  4 15  1  0
  5 16  1  0
  5  6  1  0
  6  7  1  0
  6 17  1  0
  7 18  1  0
  7  8  1  0
  8 19  1  0
  8  9  1  0
  9 21  1  0
  9 20  1  0
M  END
>  <rmg_smiles>  (1) 
C[CH][CH]C1[CH][CH][CH][CH]C1

>  <rmg_adjacency_list>  (1) 
1  C u0 p0 c0 {2,S} {4,S} {5,S} {10,S}
2  C u0 p0 c0 {1,S} {6,S} {11,S} {12,S}
3  C u0 p0 c0 {7,S} {13,S} {14,S} {15,S}
4  C u0 p0 c0 {1,S} {7,S} {17,S}
5  C u0 p0 c0 {1,S} {8,S} {18,S}
6  C u0 p0 c0 {2,S} {9,S} {19,S}
7  C u0 p0 c0 {3,S} {4,S} {16,S}
8  C u0 p0 c0 {5,S} {9,S} {20,S}
9  C u0 p0 c0 {6,S} {8,S} {21,S}
10 H u0 p0 c0 {1,S}
11 H u0 p0 c0 {2,S}
12 H u0 p0 c0 {2,S}
13 H u0 p0 c0 {3,S}
14 H u0 p0 c0 {3,S}
15 H u0 p0 c0 {3,S}
16 H u0 p0 c0 {7,S}
17 H u0 p0 c0 {4,S}
18 H u0 p0 c0 {5,S}
19 H u0 p0 c0 {6,S}
20 H u0 p0 c0 {8,S}
21 H u0 p0 c0 {9,S}


>  <multiplicity>  (1) 
1

>  <reaction>  (1) 
rmg_rxn_16799

>  <type>  (1) 
r1h

>  <role_mapnums>  (1) 
{"r1h_a": 9, "r1h_h": 20}

>  <role_mapidx>  (1) 
{"r1h_a": 8, "r1h_h": 19}

>  <ordered_mapped_smiles>  (1) 
[C:1]([CH:2]([CH:3]([C:4]1([H:15])[CH:5]([H:16])[CH:6]([H:17])[CH:7]([H:18])[CH:8]([H:19])[C:9]1([H:20])[H:21])[H:14])[H:13])([H:10])([H:11])[H:12]

>  <mol_properties>  (1) 
{"8": {"label": "donator", "atom_type": "Cs"}, "19": {"label": "d_hydrogen", "atom_type": "H0"}}

>  <level_of_theory>  (1) 
wb97xd/def2tzvp

>  <lot_method>  (1) 
wb97xd

>  <lot_basis>  (1) 
def2tzvp

>  <spin_multiplicity>  (1) 
1.0

>  <optical_isomers>  (1) 
2.0

>  <modes>  (1) 
IdealGasTranslation(mass=(120.094, 'amu')),         NonlinearRotor(             inertia = ([136.923, 571.819, 629.677

>  <frequency_value>  (1) 
unknown

>  <frequency_units>  (1) 
unknown

>  <frequency_list>  (1) 
unknown

>  <arkane_path>  (1) 
/home/calvin/Dropbox/PersonalFolders/Calvin/ZEUS_Converged/rmg_rxn_16799/output/Species/rmg_rxn_16799_r2_CC=CC1C=CC=CC1/arkane/output.py

>  <path_exists>  (1) 
True

>  <E0_value>  (1) 
-918805.5205445364

>  <E0_units>  (1) 
kJ/mol

>  <thermo_class>  (1) 
NASA

>  <Cp0_value>  (1) 
33.257888

>  <Cp0_units>  (1) 
J/(mol*K)

>  <CpInf_value>  (1) 
507.182792

>  <CpInf_units>  (1) 
J/(mol*K)

>  <Tmin_value>  (1) 
10.0

>  <Tmin_units>  (1) 
K

>  <Tmax_value>  (1) 
3000.0

>  <Tmax_units>  (1) 
K

>  <polynomials>  (1) 
[{"name": "polynomial1", "class": "NASAPolynomial", "Tmin_value": 10.0, "Tmin_units": "K", "Tmax_value": 842.8936886573033, "Tmax_units": "K", "coeffs": [3.790741501742132, 0.031997503273455075, 9.129791600598743e-05, -1.390033382966277e-07, 5.668821857733742e-11, -110506785.60039666, 13.993760915054619]}, {"name": "polynomial2", "class": "NASAPolynomial", "Tmin_value": 842.8936886573033, "Tmin_units": "K", "Tmax_value": 3000.0, "Tmax_units": "K", "coeffs": [1.3004716576604614, 0.075542526387929, -4.265550519546997e-05, 1.160072550222012e-08, -1.225627931491181e-12, -110507492.85843147, 18.896563881601985]}]

>  <H298_value>  (1) 
-219593.62582142887

>  <H298_units>  (1) 
kcal/mol

>  <S298_value>  (1) 
95.51433080108878

>  <S298_units>  (1) 
cal/(mol*K)

>  <Cp_T_value_list>  (1) 
[36.391492789040356, 47.20095174606176, 57.19492005867565, 65.93266062380873, 79.22832445715335, 88.55506938375056, 102.51418415250818, 109.21540028101965, 112.49945849981991]

>  <Cp_T_units>  (1) 
cal/(mol*K)

>  <T_list>  (1) 
[300.0, 400.0, 500.0, 600.0, 800.0, 1000.0, 1500.0, 2000.0, 2400.0]

>  <T_units>  (1) 
K

>  <yaml_path>  (1) 
/home/calvin/Dropbox/PersonalFolders/Calvin/ZEUS_Converged/rmg_rxn_16799/output/Species/rmg_rxn_16799_r2_CC=CC1C=CC=CC1/rmg_rxn_16799_r2_CC=CC1C=CC=CC1.yml

>  <frequencies_cm1>  (1) 
[16.41896190012, 107.66059584695999, 190.81292108684, 209.22330872976, 237.64576096924, 281.51206319339997, 343.50720666236003, 408.070602641, 462.27858475707995, 530.76302935344, 574.3546521648, 608.40803236668, 705.4385349382799, 796.9891832245198, 820.02791897312, 836.5910875649599, 897.80339470744, 943.16669973136, 955.7950857348399, 973.7591193319598, 991.6956849878001, 997.19614022912, 1000.2588156818399, 1006.37729960196, 1072.9458552940398, 1083.94676577668, 1107.80953976368, 1127.6825952797599, 1192.88462089316, 1203.1370299759199, 1233.60584384076, 1271.51846979248, 1305.1254959485598, 1317.10151834664, 1352.624433407, 1357.5205939401599, 1395.00059981672, 1403.0281056558, 1452.8824190789999, 1465.20179074308, 1472.13057893096, 1475.3580620313599, 1645.7966376737597, 1674.97445829844, 1689.57366908876, 2961.99171395816, 2980.9033915294394, 2987.11801324404, 3006.8674630243595, 3056.4951659319995, 3062.1810297769593, 3101.89967286784, 3115.55810666932, 3118.85425962292, 3127.1564448747995, 3141.05522316248, 3150.4355251096003]

>  <ZPE_kJmol>  (1) 
478.543004410115

>  <E_elec_kJmol>  (1) 
-919284.0635489466

>  <E0_minus_Eelec_plus_ZPE_kJmol>  (1) 
0.0

>  <rxn>  (1) 
rmg_rxn_16799

>  <species_type>  (1) 
r1

>  <species_folder>  (1) 
rmg_rxn_16799_r2_CC=CC1C=CC=CC1

>  <frequencies_cm1_list>  (1) 
[16.41896190012, 107.66059584695999, 190.81292108684, 209.22330872976, 237.64576096924, 281.51206319339997, 343.50720666236003, 408.070602641, 462.27858475707995, 530.76302935344, 574.3546521648, 608.40803236668, 705.4385349382799, 796.9891832245198, 820.02791897312, 836.5910875649599, 897.80339470744, 943.16669973136, 955.7950857348399, 973.7591193319598, 991.6956849878001, 997.19614022912, 1000.2588156818399, 1006.37729960196, 1072.9458552940398, 1083.94676577668, 1107.80953976368, 1127.6825952797599, 1192.88462089316, 1203.1370299759199, 1233.60584384076, 1271.51846979248, 1305.1254959485598, 1317.10151834664, 1352.624433407, 1357.5205939401599, 1395.00059981672, 1403.0281056558, 1452.8824190789999, 1465.20179074308, 1472.13057893096, 1475.3580620313599, 1645.7966376737597, 1674.97445829844, 1689.57366908876, 2961.99171395816, 2980.9033915294394, 2987.11801324404, 3006.8674630243595, 3056.4951659319995, 3062.1810297769593, 3101.89967286784, 3115.55810666932, 3118.85425962292, 3127.1564448747995, 3141.05522316248, 3150.4355251096003]

>  <E0_kJmol>  (1) 
-918806

>  <H298_kJmol>  (1) 
-918780

$$$$

     RDKit          3D

  8  7  0  0  0  0  0  0  0  0999 V2000
    1.0702   -0.1571   -0.6684 C   0  0  0  0  0  0  0  0  0  1  0  0
   -0.1682    0.4136   -0.0561 C   0  0  0  0  0  0  0  0  0  2  0  0
   -0.8909   -0.2733    0.7620 N   0  0  0  0  0  0  0  0  0  3  0  0
    0.9649   -0.1448   -1.7562 H   0  0  0  0  0  0  0  0  0  4  0  0
    1.1821   -1.1934   -0.3395 H   0  0  0  0  0  0  0  0  0  5  0  0
    1.9522    0.4184   -0.3776 H   0  0  0  0  0  0  0  0  0  6  0  0
   -0.4433    1.4461   -0.3292 H   0  0  0  0  0  0  0  0  0  7  0  0
   -1.8424    0.1409    0.8293 H   0  0  0  0  0  0  0  0  0  8  0  0
  1  5  1  0
  1  4  1  0
  1  6  1  0
  1  2  1  0
  2  3  1  0
  2  7  1  0
  3  8  1  0
M  END
>  <rmg_smiles>  (2) 
C[CH][NH]

>  <rmg_adjacency_list>  (2) 
1 N u0 p1 c0 {3,S} {8,S}
2 C u0 p0 c0 {3,S} {4,S} {5,S} {6,S}
3 C u0 p0 c0 {1,S} {2,S} {7,S}
4 H u0 p0 c0 {2,S}
5 H u0 p0 c0 {2,S}
6 H u0 p0 c0 {2,S}
7 H u0 p0 c0 {3,S}
8 H u0 p0 c0 {1,S}


>  <multiplicity>  (2) 
1

>  <reaction>  (2) 
rmg_rxn_16799

>  <type>  (2) 
r2h

>  <role_mapnums>  (2) 
{"r2h_a": 3, "r2h_h": 8}

>  <role_mapidx>  (2) 
{"r2h_a": 2, "r2h_h": 7}

>  <ordered_mapped_smiles>  (2) 
[C:1]([CH:2]([NH:3][H:8])[H:7])([H:4])([H:5])[H:6]

>  <mol_properties>  (2) 
{"2": {"label": "acceptor", "atom_type": "N3s"}, "7": {"label": "a_hydrogen", "atom_type": "H0"}}

>  <level_of_theory>  (2) 
wb97xd/def2tzvp

>  <lot_method>  (2) 
wb97xd

>  <lot_basis>  (2) 
def2tzvp

>  <spin_multiplicity>  (2) 
1.0

>  <optical_isomers>  (2) 
2.0

>  <modes>  (2) 
IdealGasTranslation(mass=(43.0422, 'amu')),         NonlinearRotor(             inertia = ([9.58574, 51.8782, 58.2459

>  <frequency_value>  (2) 
unknown

>  <frequency_units>  (2) 
unknown

>  <frequency_list>  (2) 
unknown

>  <arkane_path>  (2) 
/home/calvin/Dropbox/PersonalFolders/Calvin/ZEUS_Converged/rmg_rxn_16799/output/Species/rmg_rxn_16799_p1_CC=N/arkane/output.py

>  <path_exists>  (2) 
True

>  <E0_value>  (2) 
-351532.73105076194

>  <E0_units>  (2) 
kJ/mol

>  <thermo_class>  (2) 
NASA

>  <Cp0_value>  (2) 
33.257888

>  <Cp0_units>  (2) 
J/(mol*K)

>  <CpInf_value>  (2) 
182.918384

>  <CpInf_units>  (2) 
J/(mol*K)

>  <Tmin_value>  (2) 
10.0

>  <Tmin_units>  (2) 
K

>  <Tmax_value>  (2) 
3000.0

>  <Tmax_units>  (2) 
K

>  <polynomials>  (2) 
[{"name": "polynomial1", "class": "NASAPolynomial", "Tmin_value": 10.0, "Tmin_units": "K", "Tmax_value": 595.5373651451594, "Tmax_units": "K", "coeffs": [4.030703313481149, -0.00229058814131209, 6.377490274321222e-05, -8.93766559780865e-08, 4.0934862340445074e-11, -42279622.021195926, 7.585695917242757]}, {"name": "polynomial2", "class": "NASAPolynomial", "Tmin_value": 595.5373651451594, "Tmin_units": "K", "Tmax_value": 3000.0, "Tmax_units": "K", "coeffs": [-0.11565217745608042, 0.027337056045592743, -1.5327895767727505e-05, 4.187529468154553e-09, -4.469900950756201e-13, -42279159.691402115, 25.175708204040994]}]

>  <H298_value>  (2) 
-84015.34890439233

>  <H298_units>  (2) 
kcal/mol

>  <S298_value>  (2) 
63.57157650832207

>  <S298_units>  (2) 
cal/(mol*K)

>  <Cp_T_value_list>  (2) 
[13.913765714474152, 17.18194181639411, 20.300271898294582, 23.081632876583395, 27.63224015948139, 31.06808077557062, 36.31061676624832, 38.93985005203162, 40.26666894785372]

>  <Cp_T_units>  (2) 
cal/(mol*K)

>  <T_list>  (2) 
[300.0, 400.0, 500.0, 600.0, 800.0, 1000.0, 1500.0, 2000.0, 2400.0]

>  <T_units>  (2) 
K

>  <yaml_path>  (2) 
/home/calvin/Dropbox/PersonalFolders/Calvin/ZEUS_Converged/rmg_rxn_16799/output/Species/rmg_rxn_16799_p1_CC=N/rmg_rxn_16799_p1_CC=N.yml

>  <frequencies_cm1>  (2) 
[234.89896684124, 508.23245051851995, 714.5510244579199, 916.92108183832, 1068.95613682312, 1083.47981077492, 1139.4045392209998, 1281.18718512304, 1373.1841874550798, 1414.5234390814799, 1449.02317332916, 1470.9357234852798, 1633.2506554941199, 2948.45001890712, 3002.78847374428, 3084.88328324488, 3091.9562781244804, 3362.8176470865596]

>  <ZPE_kJmol>  (2) 
178.12068223241255

>  <E_elec_kJmol>  (2) 
-351710.8517329944

>  <E0_minus_Eelec_plus_ZPE_kJmol>  (2) 
0.0

>  <rxn>  (2) 
rmg_rxn_16799

>  <species_type>  (2) 
p0

>  <species_folder>  (2) 
rmg_rxn_16799_p1_CC=N

>  <frequencies_cm1_list>  (2) 
[234.89896684124, 508.23245051851995, 714.5510244579199, 916.92108183832, 1068.95613682312, 1083.47981077492, 1139.4045392209998, 1281.18718512304, 1373.1841874550798, 1414.5234390814799, 1449.02317332916, 1470.9357234852798, 1633.2506554941199, 2948.45001890712, 3002.78847374428, 3084.88328324488, 3091.9562781244804, 3362.8176470865596]

>  <E0_kJmol>  (2) 
-351533

>  <H298_kJmol>  (2) 
-351520

$$$$

     RDKit          3D

 28 27  0  0  0  0  0  0  0  0999 V2000
    3.2555   -1.7009   -0.6629 C   0  0  0  0  0  0  0  0  0  1  0  0
    2.0172   -1.1302   -0.0506 C   0  0  0  0  0  0  0  0  0  2  0  0
    1.2945   -1.8170    0.7674 N   0  0  0  0  0  0  0  0  0  3  0  0
    3.1502   -1.6886   -1.7507 H   0  0  0  0  0  0  0  0  0  4  0  0
    3.3675   -2.7372   -0.3341 H   0  0  0  0  0  0  0  0  0  5  0  0
    4.1376   -1.1253   -0.3722 H   0  0  0  0  0  0  0  0  0  6  0  0
    1.7421   -0.0977   -0.3237 H   0  0  0  0  0  0  0  0  0  7  0  0
    2.4602    2.2855   -0.3654 C   0  0  0  0  0  0  0  0  0  8  0  0
    1.2329    1.9172    0.4029 C   0  0  0  0  0  0  0  0  0  9  0  0
    0.2666    1.1136   -0.0705 C   0  0  0  0  0  0  0  0  0 10  0  0
   -0.9822    0.7337    0.6968 C   0  0  0  0  0  0  0  0  0 11  0  0
   -2.1961    1.2767   -0.0222 C   0  0  0  0  0  3  0  0  0 12  0  0
   -3.0699    0.4912   -0.6688 C   0  0  0  0  0  0  0  0  0 13  0  0
   -2.8931   -0.9378   -0.7283 C   0  0  0  0  0  0  0  0  0 14  0  0
   -1.9626   -1.5554    0.0124 C   0  0  0  0  0  0  0  0  0 15  0  0
   -1.0377   -0.8019    0.9325 C   0  0  0  0  0  0  0  0  0 16  0  0
    2.4818    1.8245   -1.3579 H   0  0  0  0  0  0  0  0  0 17  0  0
    2.5081    3.3713   -0.4922 H   0  0  0  0  0  0  0  0  0 18  0  0
    3.3519    1.9628    0.1804 H   0  0  0  0  0  0  0  0  0 19  0  0
    1.1444    2.3425    1.4001 H   0  0  0  0  0  0  0  0  0 20  0  0
    0.3589    0.6918   -1.0707 H   0  0  0  0  0  0  0  0  0 21  0  0
   -0.9478    1.2086    1.6870 H   0  0  0  0  0  0  0  0  0 22  0  0
   -2.3433    2.3531   -0.0133 H   0  0  0  0  0  0  0  0  0 23  0  0
   -3.9257    0.9184   -1.1832 H   0  0  0  0  0  0  0  0  0 24  0  0
   -3.5549   -1.5043   -1.3769 H   0  0  0  0  0  0  0  0  0 25  0  0
   -1.8665   -2.6362   -0.0269 H   0  0  0  0  0  0  0  0  0 26  0  0
    0.1673   -1.3264    0.8472 H   0  0  0  0  0  0  0  0  0 27  0  0
   -1.3777   -0.9895    1.9597 H   0  0  0  0  0  0  0  0  0 28  0  0
  1  4  1  0
  1  5  1  0
  1  6  1  0
  1  2  1  0
  2  3  1  0
  2  7  1  0
  3 27  1  0
  8 19  1  0
  8 17  1  0
  8  9  1  0
  8 18  1  0
  9 20  1  0
  9 10  1  0
 10 21  1  0
 10 11  1  0
 11 16  1  0
 11 12  1  0
 11 22  1  0
 12 23  1  0
 12 13  1  0
 13 24  1  0
 13 14  1  0
 14 15  1  0
 14 25  1  0
 15 16  1  0
 15 26  1  0
 16 28  1  0
M  RAD  1  12   2
M  END
>  <rmg_smiles>  (3) 
C[CH][CH]C1[CH][CH][CH][CH][CH]1.C[CH][NH]

>  <rmg_adjacency_list>  (3) 
multiplicity 2
1  N u0 p1 c0 {12,S} {28,S}
2  C u0 p0 c0 {5,S} {6,S} {7,S} {13,S}
3  C u0 p0 c0 {8,S} {17,S} {18,S} {19,S}
4  C u0 p0 c0 {12,S} {14,S} {15,S} {16,S}
5  C u0 p0 c0 {2,S} {8,S} {21,S}
6  C u1 p0 c0 {2,S} {9,S} {22,S}
7  C u0 p0 c0 {2,S} {10,S} {23,S}
8  C u0 p0 c0 {3,S} {5,S} {20,S}
9  C u0 p0 c0 {6,S} {11,S} {25,S}
10 C u0 p0 c0 {7,S} {11,S} {27,S}
11 C u0 p0 c0 {9,S} {10,S} {26,S}
12 C u0 p0 c0 {1,S} {4,S} {24,S}
13 H u0 p0 c0 {2,S}
14 H u0 p0 c0 {4,S}
15 H u0 p0 c0 {4,S}
16 H u0 p0 c0 {4,S}
17 H u0 p0 c0 {3,S}
18 H u0 p0 c0 {3,S}
19 H u0 p0 c0 {3,S}
20 H u0 p0 c0 {8,S}
21 H u0 p0 c0 {5,S}
22 H u0 p0 c0 {6,S}
23 H u0 p0 c0 {7,S}
24 H u0 p0 c0 {12,S}
25 H u0 p0 c0 {9,S}
26 H u0 p0 c0 {11,S}
27 H u0 p0 c0 {10,S}
28 H u0 p0 c0 {1,S}


>  <multiplicity>  (3) 
2

>  <reaction>  (3) 
rmg_rxn_16799

>  <type>  (3) 
ts

>  <role_mapnums>  (3) 
{"*2": 27, "*1": 16, "*3": 3, "*0": 2, "*4": 11}

>  <role_mapidx>  (3) 
{"*2": 26, "*1": 15, "*3": 2, "*0": 1, "*4": 10}

>  <ordered_mapped_smiles>  (3) 
[C:1]([CH:2]([NH:3][H:27])[H:7])([H:4])([H:5])[H:6].[C:8]([CH:9]([CH:10]([C:11]1([H:22])[C:12]([H:23])[CH:13]([H:24])[CH:14]([H:25])[CH:15]([H:26])[CH:16]1[H:28])[H:21])[H:20])([H:17])([H:18])[H:19]

>  <mol_properties>  (3) 
{"1": {"label": "*0", "atom_type": "Cs"}, "2": {"label": "*3", "atom_type": "N3s"}, "10": {"label": "*4", "atom_type": "Cs"}, "15": {"label": "*1", "atom_type": "Cs"}, "26": {"label": "*2", "atom_type": "H0"}}

>  <level_of_theory>  (3) 
wb97xd/def2tzvp

>  <lot_method>  (3) 
wb97xd

>  <lot_basis>  (3) 
def2tzvp

>  <spin_multiplicity>  (3) 
2.0

>  <optical_isomers>  (3) 
2.0

>  <modes>  (3) 
IdealGasTranslation(mass=(162.128, 'amu')),         NonlinearRotor(             inertia = ([415.01, 804.769, 1090.68

>  <frequency_value>  (3) 
-1827.25

>  <frequency_units>  (3) 
cm^-1

>  <frequency_list>  (3) 
unknown

>  <arkane_path>  (3) 
/home/calvin/Dropbox/PersonalFolders/Calvin/ZEUS_Converged/rmg_rxn_16799/output/rxns/TS0/arkane/output.py

>  <path_exists>  (3) 
True

>  <E0_value>  (3) 
-1268540.0

>  <E0_units>  (3) 
kJ/mol

>  <thermo_class>  (3) 
unknown

>  <Cp0_value>  (3) 
unknown

>  <Cp0_units>  (3) 
unknown

>  <CpInf_value>  (3) 
unknown

>  <CpInf_units>  (3) 
unknown

>  <Tmin_value>  (3) 
unknown

>  <Tmin_units>  (3) 
unknown

>  <Tmax_value>  (3) 
unknown

>  <Tmax_units>  (3) 
unknown

>  <polynomials>  (3) 
unknown

>  <H298_value>  (3) 
unknown

>  <H298_units>  (3) 
unknown

>  <S298_value>  (3) 
unknown

>  <S298_units>  (3) 
unknown

>  <Cp_T_value_list>  (3) 
unknown

>  <Cp_T_units>  (3) 
unknown

>  <T_list>  (3) 
unknown

>  <T_units>  (3) 
unknown

>  <yaml_path>  (3) 
unknown

>  <frequencies_cm1>  (3) 
unknown

>  <ZPE_kJmol>  (3) 
unknown

>  <E_elec_kJmol>  (3) 
unknown

>  <E0_minus_Eelec_plus_ZPE_kJmol>  (3) 
unknown

>  <rxn>  (3) 
unknown

>  <species_type>  (3) 
unknown

>  <species_folder>  (3) 
unknown

>  <frequencies_cm1_list>  (3) 
[]

>  <ts_imag_freq_cm1>  (3) 
-1849.4393

>  <ts_freq_out_path>  (3) 
/home/calvin/Dropbox/PersonalFolders/Calvin/ZEUS_Converged/rmg_rxn_16799/output/rxns/TS0/geometry/freq.out

>  <E0_kJmol>  (3) 
-1.26854e+06

>  <H298_kJmol>  (3) 
unknown

$$$$

     RDKit          3D

 20 20  0  0  0  0  0  0  0  0999 V2000
   -3.7470   -0.0074   -0.4868 C   0  0  0  0  0  0  0  0  0  1  0  0
   -2.4937   -0.0015    0.3262 C   0  0  0  0  0  0  0  0  0  2  0  0
   -1.2582   -0.0079   -0.2019 C   0  0  0  0  0  0  0  0  0  3  0  0
    0.0176   -0.0021    0.6051 C   0  0  0  0  0  0  0  0  0  4  0  0
    0.8022   -1.2624    0.3355 C   0  0  0  0  0  3  0  0  0  5  0  0
    2.1462   -1.1947   -0.1863 C   0  0  0  0  0  0  0  0  0  6  0  0
    2.7393   -0.0155   -0.4209 C   0  0  0  0  0  0  0  0  0  7  0  0
    2.0662    1.2358   -0.1602 C   0  0  0  0  0  0  0  0  0  8  0  0
    0.8100    1.2549    0.3137 C   0  0  0  0  0  0  0  0  0  9  0  0
   -4.3441   -0.8917   -0.2441 H   0  0  0  0  0  0  0  0  0 10  0  0
   -3.5434   -0.0174   -1.5622 H   0  0  0  0  0  0  0  0  0 11  0  0
   -4.3419    0.8827   -0.2603 H   0  0  0  0  0  0  0  0  0 12  0  0
   -2.6208    0.0084    1.4065 H   0  0  0  0  0  0  0  0  0 13  0  0
   -1.1375   -0.0178   -1.2844 H   0  0  0  0  0  0  0  0  0 14  0  0
   -0.2219    0.0076    1.6767 H   0  0  0  0  0  0  0  0  0 15  0  0
    0.3675   -2.2297    0.5579 H   0  0  0  0  0  0  0  0  0 16  0  0
    2.6656   -2.1275   -0.3814 H   0  0  0  0  0  0  0  0  0 17  0  0
    3.7511    0.0268   -0.8125 H   0  0  0  0  0  0  0  0  0 18  0  0
    2.6054    2.1573   -0.3551 H   0  0  0  0  0  0  0  0  0 19  0  0
    0.3253    2.2065    0.5121 H   0  0  0  0  0  0  0  0  0 20  0  0
  1 11  1  0
  1 10  1  0
  1 12  1  0
  1  2  1  0
  2 13  1  0
  2  3  1  0
  3  4  1  0
  3 14  1  0
  4  9  1  0
  4  5  1  0
  4 15  1  0
  5 16  1  0
  5  6  1  0
  6  7  1  0
  6 17  1  0
  7 18  1  0
  7  8  1  0
  8 19  1  0
  8  9  1  0
  9 20  1  0
M  RAD  1   5   2
M  END
>  <rmg_smiles>  (4) 
C[CH][CH]C1[CH][CH][CH][CH][CH]1

>  <rmg_adjacency_list>  (4) 
multiplicity 2
1  C u0 p0 c0 {3,S} {4,S} {5,S} {10,S}
2  C u0 p0 c0 {6,S} {11,S} {12,S} {13,S}
3  C u0 p0 c0 {1,S} {6,S} {15,S}
4  C u1 p0 c0 {1,S} {7,S} {16,S}
5  C u0 p0 c0 {1,S} {8,S} {17,S}
6  C u0 p0 c0 {2,S} {3,S} {14,S}
7  C u0 p0 c0 {4,S} {9,S} {18,S}
8  C u0 p0 c0 {5,S} {9,S} {20,S}
9  C u0 p0 c0 {7,S} {8,S} {19,S}
10 H u0 p0 c0 {1,S}
11 H u0 p0 c0 {2,S}
12 H u0 p0 c0 {2,S}
13 H u0 p0 c0 {2,S}
14 H u0 p0 c0 {6,S}
15 H u0 p0 c0 {3,S}
16 H u0 p0 c0 {4,S}
17 H u0 p0 c0 {5,S}
18 H u0 p0 c0 {7,S}
19 H u0 p0 c0 {9,S}
20 H u0 p0 c0 {8,S}


>  <multiplicity>  (4) 
2

>  <reaction>  (4) 
rmg_rxn_16799

>  <type>  (4) 
r1

>  <role_mapnums>  (4) 
{}

>  <role_mapidx>  (4) 
{}

>  <ordered_mapped_smiles>  (4) 
[C:1]([CH:2]([CH:3]([C:4]1([H:15])[C:5]([H:16])[CH:6]([H:17])[CH:7]([H:18])[CH:8]([H:19])[CH:9]1[H:20])[H:14])[H:13])([H:10])([H:11])[H:12]

>  <level_of_theory>  (4) 
wb97xd/def2tzvp

>  <lot_method>  (4) 
wb97xd

>  <lot_basis>  (4) 
def2tzvp

>  <spin_multiplicity>  (4) 
2.0

>  <optical_isomers>  (4) 
2.0

>  <modes>  (4) 
IdealGasTranslation(mass=(119.086, 'amu')),         NonlinearRotor(             inertia = ([119.209, 586.239, 655.502

>  <frequency_value>  (4) 
unknown

>  <frequency_units>  (4) 
unknown

>  <frequency_list>  (4) 
unknown

>  <arkane_path>  (4) 
/home/calvin/Dropbox/PersonalFolders/Calvin/ZEUS_Converged/rmg_rxn_16799/output/Species/rmg_rxn_16799_p2_CC=CC1sbr-CH-sbrC=CC=C1/arkane/output.py

>  <path_exists>  (4) 
True

>  <E0_value>  (4) 
-917171.6427363502

>  <E0_units>  (4) 
kJ/mol

>  <thermo_class>  (4) 
NASA

>  <Cp0_value>  (4) 
33.257888

>  <Cp0_units>  (4) 
J/(mol*K)

>  <CpInf_value>  (4) 
482.239376

>  <CpInf_units>  (4) 
J/(mol*K)

>  <Tmin_value>  (4) 
10.0

>  <Tmin_units>  (4) 
K

>  <Tmax_value>  (4) 
3000.0

>  <Tmax_units>  (4) 
K

>  <polynomials>  (4) 
[{"name": "polynomial1", "class": "NASAPolynomial", "Tmin_value": 10.0, "Tmin_units": "K", "Tmax_value": 423.1631410216887, "Tmax_units": "K", "coeffs": [3.8819915931820246, 0.008063320538118828, 0.00027916041256053796, -6.047029665269674e-07, 4.2221779884017815e-10, -110310268.17761275, 14.638822570318622]}, {"name": "polynomial2", "class": "NASAPolynomial", "Tmin_value": 423.1631410216887, "Tmin_units": "K", "Tmax_value": 3000.0, "Tmax_units": "K", "coeffs": [-2.3660687165837877, 0.08449396759856585, -5.333815825118881e-05, 1.6130828381223565e-08, -1.872302956933041e-12, -110309894.90858404, 37.57118775167725]}]

>  <H298_value>  (4) 
-219203.3529279665

>  <H298_units>  (4) 
kcal/mol

>  <S298_value>  (4) 
93.5005614457994

>  <S298_units>  (4) 
cal/(mol*K)

>  <Cp_T_value_list>  (4) 
[36.7999026715682, 47.456024592625646, 56.5275001001046, 64.32623876890294, 76.67591158758574, 85.54579415954697, 98.02301194425603, 104.04817144379984, 107.43974022989886]

>  <Cp_T_units>  (4) 
cal/(mol*K)

>  <T_list>  (4) 
[300.0, 400.0, 500.0, 600.0, 800.0, 1000.0, 1500.0, 2000.0, 2400.0]

>  <T_units>  (4) 
K

>  <yaml_path>  (4) 
/home/calvin/Dropbox/PersonalFolders/Calvin/ZEUS_Converged/rmg_rxn_16799/output/Species/rmg_rxn_16799_p2_CC=CC1sbr-CH-sbrC=CC=C1/rmg_rxn_16799_p2_CC=CC1sbr-CH-sbrC=CC=C1.yml

>  <frequencies_cm1>  (4) 
[62.55136927988, 106.86402554984, 209.71086468747998, 228.14185328635998, 237.47408633623996, 329.09340447567996, 348.6025097698, 447.4527634512, 456.63392282404, 575.4190348894, 586.9967721389199, 604.4045799251198, 670.4031758356399, 736.6695841736399, 811.5128571763199, 817.4459324928, 844.3713819325199, 936.1623747049599, 940.8319247225598, 959.40712001316, 967.4002909256399, 981.8552950242399, 991.08452329432, 998.08884832072, 1073.06259404448, 1084.47552364632, 1102.0138041535997, 1124.59931887108, 1180.434776508, 1187.8648546242398, 1205.7190164562398, 1270.61889471556, 1307.6868814729198, 1314.0319759085999, 1328.1367637558799, 1382.0357315325598, 1403.34398698052, 1440.49437756172, 1472.33658849056, 1474.87050607364, 1521.4698684551602, 1655.4378850630399, 1673.2645789537596, 2960.5977159382, 2987.9008495705198, 3057.4428099061597, 3062.9776000740794, 3102.5726374292, 3114.521191886, 3123.40020390476, 3129.1890725295198, 3145.6149014149596, 3153.7797469604398, 3166.1883894336797]

>  <ZPE_kJmol>  (4) 
442.9453687182946

>  <E_elec_kJmol>  (4) 
-917614.5881050684

>  <E0_minus_Eelec_plus_ZPE_kJmol>  (4) 
0.0

>  <rxn>  (4) 
rmg_rxn_16799

>  <species_type>  (4) 
p1

>  <species_folder>  (4) 
rmg_rxn_16799_p2_CC=CC1sbr-CH-sbrC=CC=C1

>  <frequencies_cm1_list>  (4) 
[62.55136927988, 106.86402554984, 209.71086468747998, 228.14185328635998, 237.47408633623996, 329.09340447567996, 348.6025097698, 447.4527634512, 456.63392282404, 575.4190348894, 586.9967721389199, 604.4045799251198, 670.4031758356399, 736.6695841736399, 811.5128571763199, 817.4459324928, 844.3713819325199, 936.1623747049599, 940.8319247225598, 959.40712001316, 967.4002909256399, 981.8552950242399, 991.08452329432, 998.08884832072, 1073.06259404448, 1084.47552364632, 1102.0138041535997, 1124.59931887108, 1180.434776508, 1187.8648546242398, 1205.7190164562398, 1270.61889471556, 1307.6868814729198, 1314.0319759085999, 1328.1367637558799, 1382.0357315325598, 1403.34398698052, 1440.49437756172, 1472.33658849056, 1474.87050607364, 1521.4698684551602, 1655.4378850630399, 1673.2645789537596, 2960.5977159382, 2987.9008495705198, 3057.4428099061597, 3062.9776000740794, 3102.5726374292, 3114.521191886, 3123.40020390476, 3129.1890725295198, 3145.6149014149596, 3153.7797469604398, 3166.1883894336797]

>  <E0_kJmol>  (4) 
-917172

>  <H298_kJmol>  (4) 
-917147

$$$$

     RDKit          3D

  7  6  0  0  0  0  0  0  0  0999 V2000
    1.1443   -0.1870   -0.0026 C   0  0  0  0  0  0  0  0  0  1  0  0
   -0.1897    0.4747   -0.0008 C   0  0  0  0  0  0  0  0  0  2  0  0
   -1.4128   -0.3182   -0.0012 N   0  0  0  0  0  2  0  0  0  3  0  0
    1.7295    0.1072   -0.8768 H   0  0  0  0  0  0  0  0  0  4  0  0
    1.0018   -1.2707   -0.0040 H   0  0  0  0  0  0  0  0  0  5  0  0
    1.6793    0.0928    0.9085 H   0  0  0  0  0  0  0  0  0  6  0  0
   -0.2483    1.5721    0.0008 H   0  0  0  0  0  0  0  0  0  7  0  0
  1  5  1  0
  1  4  1  0
  1  6  1  0
  1  2  1  0
  2  3  1  0
  2  7  1  0
M  RAD  1   3   2
M  END
>  <rmg_smiles>  (5) 
C[CH][N]

>  <rmg_adjacency_list>  (5) 
multiplicity 2
1 N u1 p2 c0 {3,S}
2 C u0 p0 c0 {3,S} {4,S} {5,S} {6,S}
3 C u0 p0 c0 {1,S} {2,S} {7,S}
4 H u0 p0 c0 {2,S}
5 H u0 p0 c0 {2,S}
6 H u0 p0 c0 {2,S}
7 H u0 p0 c0 {3,S}


>  <multiplicity>  (5) 
2

>  <reaction>  (5) 
rmg_rxn_16799

>  <type>  (5) 
r2

>  <role_mapnums>  (5) 
{}

>  <role_mapidx>  (5) 
{}

>  <ordered_mapped_smiles>  (5) 
[C:1]([CH:2]([NH:3])[H:7])([H:4])([H:5])[H:6]

>  <level_of_theory>  (5) 
wb97xd/def2tzvp

>  <lot_method>  (5) 
wb97xd

>  <lot_basis>  (5) 
def2tzvp

>  <spin_multiplicity>  (5) 
2.0

>  <optical_isomers>  (5) 
2.0

>  <modes>  (5) 
IdealGasTranslation(mass=(42.0344, 'amu')),         NonlinearRotor(             inertia = ([10.2421, 52.2612, 59.29

>  <frequency_value>  (5) 
unknown

>  <frequency_units>  (5) 
unknown

>  <frequency_list>  (5) 
unknown

>  <arkane_path>  (5) 
/home/calvin/Dropbox/PersonalFolders/Calvin/ZEUS_Converged/rmg_rxn_16799/output/Species/rmg_rxn_16799_r1_CC=sbr-N-sbr/arkane/output.py

>  <path_exists>  (5) 
True

>  <E0_value>  (5) 
-349751.721788727

>  <E0_units>  (5) 
kJ/mol

>  <thermo_class>  (5) 
NASA

>  <Cp0_value>  (5) 
33.257888

>  <Cp0_units>  (5) 
J/(mol*K)

>  <CpInf_value>  (5) 
157.97496800000002

>  <CpInf_units>  (5) 
J/(mol*K)

>  <Tmin_value>  (5) 
10.0

>  <Tmin_units>  (5) 
K

>  <Tmax_value>  (5) 
3000.0

>  <Tmax_units>  (5) 
K

>  <polynomials>  (5) 
[{"name": "polynomial1", "class": "NASAPolynomial", "Tmin_value": 10.0, "Tmin_units": "K", "Tmax_value": 490.5339132301173, "Tmax_units": "K", "coeffs": [4.049312896346921, -0.004985483903637657, 9.188674937783723e-05, -1.6705919118097335e-07, 1.0075842881274692e-10, -42065415.26613993, 8.250100476398787]}, {"name": "polynomial2", "class": "NASAPolynomial", "Tmin_value": 490.5339132301173, "Tmin_units": "K", "Tmax_value": 3000.0, "Tmax_units": "K", "coeffs": [1.4392260072994894, 0.022923427553041862, -1.3715069243975608e-05, 3.99413304138486e-09, -4.512332533348987e-13, -42065238.90871145, 18.170718207182137]}]

>  <H298_value>  (5) 
-83589.65829927742

>  <H298_units>  (5) 
kcal/mol

>  <S298_value>  (5) 
64.85980261331086

>  <S298_units>  (5) 
cal/(mol*K)

>  <Cp_T_value_list>  (5) 
[14.166835447369518, 17.178658530327862, 19.75926525596328, 21.978723523854637, 25.556458693643158, 28.199422264007993, 32.11582493875913, 34.098747435079204, 35.17497009220758]

>  <Cp_T_units>  (5) 
cal/(mol*K)

>  <T_list>  (5) 
[300.0, 400.0, 500.0, 600.0, 800.0, 1000.0, 1500.0, 2000.0, 2400.0]

>  <T_units>  (5) 
K

>  <yaml_path>  (5) 
/home/calvin/Dropbox/PersonalFolders/Calvin/ZEUS_Converged/rmg_rxn_16799/output/Species/rmg_rxn_16799_r1_CC=sbr-N-sbr/rmg_rxn_16799_r1_CC=sbr-N-sbr.yml

>  <frequencies_cm1>  (5) 
[297.87608921095995, 485.33105447632, 632.46994892796, 761.9950260338, 963.56851311708, 1053.4504839705598, 1115.1846819973598, 1278.66013452528, 1382.24860807748, 1460.12022160628, 1464.0756051506, 3000.5498365299595, 3020.7181724148, 3081.38112073168, 3090.17086194128]

>  <ZPE_kJmol>  (5) 
138.09575291957125

>  <E_elec_kJmol>  (5) 
-349889.81754164654

>  <E0_minus_Eelec_plus_ZPE_kJmol>  (5) 
0.0

>  <rxn>  (5) 
rmg_rxn_16799

>  <species_type>  (5) 
r0

>  <species_folder>  (5) 
rmg_rxn_16799_r1_CC=sbr-N-sbr

>  <frequencies_cm1_list>  (5) 
[297.87608921095995, 485.33105447632, 632.46994892796, 761.9950260338, 963.56851311708, 1053.4504839705598, 1115.1846819973598, 1278.66013452528, 1382.24860807748, 1460.12022160628, 1464.0756051506, 3000.5498365299595, 3020.7181724148, 3081.38112073168, 3090.17086194128]

>  <E0_kJmol>  (5) 
-349752

>  <H298_kJmol>  (5) 
-349739

$$$$
