
     RDKit          3D

 14 14  0  0  0  0  0  0  0  0999 V2000
    0.3211   -0.9815   -1.0269 C   0  0  0  0  0  0  0  0  0  1  0  0
    0.8072   -1.0985    0.4080 C   0  0  0  0  0  0  0  0  0  2  0  0
   -0.0865   -0.4378    1.2891 O   0  0  0  0  0  0  0  0  0  3  0  0
   -0.3256    0.8725    0.9287 C   0  0  0  0  0  0  0  0  0  4  0  0
   -0.7834    1.0573   -0.3573 O   0  0  0  0  0  0  0  0  0  5  0  0
    0.0676    0.4845   -1.3372 C   0  0  0  0  0  0  0  0  0  6  0  0
    1.0643   -1.3916   -1.7138 H   0  0  0  0  0  0  0  0  0  7  0  0
   -0.6052   -1.5466   -1.1465 H   0  0  0  0  0  0  0  0  0  8  0  0
    0.8561   -2.1339    0.7405 H   0  0  0  0  0  0  0  0  0  9  0  0
    1.8081   -0.6568    0.5075 H   0  0  0  0  0  0  0  0  0 10  0  0
    0.5966    1.4336    1.0638 H   0  0  0  0  0  0  0  0  0 11  0  0
   -1.0438    1.3025    1.6235 H   0  0  0  0  0  0  0  0  0 12  0  0
    1.0151    1.0380   -1.3644 H   0  0  0  0  0  0  0  0  0 13  0  0
   -0.4342    0.6183   -2.2939 H   0  0  0  0  0  0  0  0  0 14  0  0
  1  8  1  0
  1  7  1  0
  1  6  1  0
  1  2  1  0
  2 10  1  0
  2  9  1  0
  2  3  1  0
  3  4  1  0
  4 11  1  0
  4 12  1  0
  4  5  1  0
  5  6  1  0
  6 14  1  0
  6 13  1  0
M  END
>  <rmg_smiles>  (1) 
C1COCOC1

>  <rmg_adjacency_list>  (1) 
1  O u0 p2 c0 {4,S} {6,S}
2  O u0 p2 c0 {5,S} {6,S}
3  C u0 p0 c0 {4,S} {5,S} {7,S} {8,S}
4  C u0 p0 c0 {1,S} {3,S} {9,S} {10,S}
5  C u0 p0 c0 {2,S} {3,S} {11,S} {12,S}
6  C u0 p0 c0 {1,S} {2,S} {13,S} {14,S}
7  H u0 p0 c0 {3,S}
8  H u0 p0 c0 {3,S}
9  H u0 p0 c0 {4,S}
10 H u0 p0 c0 {4,S}
11 H u0 p0 c0 {5,S}
12 H u0 p0 c0 {5,S}
13 H u0 p0 c0 {6,S}
14 H u0 p0 c0 {6,S}


>  <multiplicity>  (1) 
1

>  <reaction>  (1) 
rmg_rxn_198

>  <type>  (1) 
r1h

>  <role_mapnums>  (1) 
{"r1h_a": 4, "r1h_h": 11}

>  <role_mapidx>  (1) 
{"r1h_a": 3, "r1h_h": 10}

>  <ordered_mapped_smiles>  (1) 
[C:1]1([H:7])([H:8])[C:2]([H:9])([H:10])[O:3][C:4]([H:11])([H:12])[O:5][C:6]1([H:13])[H:14]

>  <mol_properties>  (1) 
{"3": {"label": "donator", "atom_type": "Cs"}, "10": {"label": "d_hydrogen", "atom_type": "H0"}}

>  <level_of_theory>  (1) 
wb97xd/def2tzvp

>  <lot_method>  (1) 
wb97xd

>  <lot_basis>  (1) 
def2tzvp

>  <spin_multiplicity>  (1) 
1.0

>  <optical_isomers>  (1) 
1.0

>  <modes>  (1) 
IdealGasTranslation(mass=(88.0524, 'amu')),         NonlinearRotor(             inertia = ([100.123, 103.988, 181.806

>  <frequency_value>  (1) 
unknown

>  <frequency_units>  (1) 
unknown

>  <frequency_list>  (1) 
unknown

>  <arkane_path>  (1) 
/home/calvin/Dropbox/PersonalFolders/Calvin/ATLAS_Converged/rmg_rxn_198/output/Species/rmg_rxn_198_r2_C1COCOC1/arkane/output.py

>  <path_exists>  (1) 
True

>  <E0_value>  (1) 
-807534.4862541369

>  <E0_units>  (1) 
kJ/mol

>  <thermo_class>  (1) 
NASA

>  <Cp0_value>  (1) 
33.257888

>  <Cp0_units>  (1) 
J/(mol*K)

>  <CpInf_value>  (1) 
332.57888

>  <CpInf_units>  (1) 
J/(mol*K)

>  <Tmin_value>  (1) 
10.0

>  <Tmin_units>  (1) 
K

>  <Tmax_value>  (1) 
3000.0

>  <Tmax_units>  (1) 
K

>  <polynomials>  (1) 
[{"name": "polynomial1", "class": "NASAPolynomial", "Tmin_value": 10.0, "Tmin_units": "K", "Tmax_value": 635.616554573151, "Tmax_units": "K", "coeffs": [4.089858497697602, -0.00720848048360332, 0.00016188875003168496, -2.401508213073996e-07, 1.1440937882219611e-10, -97123964.81365098, 9.940070949440356]}, {"name": "polynomial2", "class": "NASAPolynomial", "Tmin_value": 635.616554573151, "Tmin_units": "K", "Tmax_value": 3000.0, "Tmax_units": "K", "coeffs": [-3.6233751272420895, 0.05886750722676344, -3.5427870905530145e-05, 1.0209382893823142e-08, -1.1338653155444558e-12, -97123338.5127768, 40.87012283464024]}]

>  <H298_value>  (1) 
-193001.58453999052

>  <H298_units>  (1) 
kcal/mol

>  <S298_value>  (1) 
72.30963326519604

>  <S298_units>  (1) 
cal/(mol*K)

>  <Cp_T_value_list>  (1) 
[21.739931113059615, 29.14813400113705, 35.94765005011551, 41.73053828287379, 50.792135881792035, 57.413930600437965, 66.93239440365458, 71.40703402864166, 73.74460734469625]

>  <Cp_T_units>  (1) 
cal/(mol*K)

>  <T_list>  (1) 
[300.0, 400.0, 500.0, 600.0, 800.0, 1000.0, 1500.0, 2000.0, 2400.0]

>  <T_units>  (1) 
K

>  <yaml_path>  (1) 
/home/calvin/Dropbox/PersonalFolders/Calvin/ATLAS_Converged/rmg_rxn_198/output/Species/rmg_rxn_198_r2_C1COCOC1/rmg_rxn_198_r2_C1COCOC1.yml

>  <frequencies_cm1>  (1) 
[264.26219606955993, 269.44676998615995, 439.22611503784, 466.70779028847994, 494.62208561427997, 656.81341188736, 851.50617968, 900.41284912904, 919.12538412604, 926.80954069912, 1013.8966485273598, 1037.6289497932798, 1094.57685905204, 1112.95291176836, 1188.75069573052, 1216.28730686372, 1226.8487302858798, 1252.366447735, 1315.55644664964, 1328.3633742714399, 1363.72148168412, 1380.93701388136, 1404.8272558096398, 1432.53554157584, 1460.95799381532, 1489.42164796672, 1490.0946125280798, 1506.58911126672, 2894.63345495428, 2944.5289702893997, 2950.530715459079, 3031.06671929204, 3080.8454958767197, 3088.2893079635996, 3091.87387430064, 3110.9160245929997]

>  <ZPE_kJmol>  (1) 
321.1850391352071

>  <E_elec_kJmol>  (1) 
-807855.671293272

>  <E0_minus_Eelec_plus_ZPE_kJmol>  (1) 
0.0

>  <rxn>  (1) 
rmg_rxn_198

>  <species_type>  (1) 
r1

>  <species_folder>  (1) 
rmg_rxn_198_r2_C1COCOC1

>  <frequencies_cm1_list>  (1) 
[264.26219606955993, 269.44676998615995, 439.22611503784, 466.70779028847994, 494.62208561427997, 656.81341188736, 851.50617968, 900.41284912904, 919.12538412604, 926.80954069912, 1013.8966485273598, 1037.6289497932798, 1094.57685905204, 1112.95291176836, 1188.75069573052, 1216.28730686372, 1226.8487302858798, 1252.366447735, 1315.55644664964, 1328.3633742714399, 1363.72148168412, 1380.93701388136, 1404.8272558096398, 1432.53554157584, 1460.95799381532, 1489.42164796672, 1490.0946125280798, 1506.58911126672, 2894.63345495428, 2944.5289702893997, 2950.530715459079, 3031.06671929204, 3080.8454958767197, 3088.2893079635996, 3091.87387430064, 3110.9160245929997]

>  <E0_kJmol>  (1) 
-807534

>  <H298_kJmol>  (1) 
-807519

$$$$

     RDKit          3D

 14 14  0  0  0  0  0  0  0  0999 V2000
   -1.4126    0.1206   -0.2120 C   0  0  0  0  0  0  0  0  0  1  0  0
   -0.8376   -0.5654    0.9983 C   0  0  0  0  0  0  0  0  0  2  0  0
    0.4542   -0.0421    1.2927 O   0  0  0  0  0  0  0  0  0  3  0  0
    1.2955   -0.1377    0.1851 C   0  0  0  0  0  0  0  0  0  4  0  0
    0.8345    0.5804   -0.9205 O   0  0  0  0  0  0  0  0  0  5  0  0
   -0.4302    0.0912   -1.3517 C   0  0  0  0  0  0  0  0  0  6  0  0
   -1.8012    1.1160   -0.0042 H   0  0  0  0  0  0  0  0  0  7  0  0
   -1.4451   -0.4150    1.8889 H   0  0  0  0  0  0  0  0  0  8  0  0
   -0.7525   -1.6487    0.8211 H   0  0  0  0  0  0  0  0  0  9  0  0
    1.4152   -1.2012   -0.0947 H   0  0  0  0  0  0  0  0  0 10  0  0
    2.2551    0.2892    0.4691 H   0  0  0  0  0  0  0  0  0 11  0  0
   -0.3007   -0.9377   -1.7241 H   0  0  0  0  0  0  0  0  0 12  0  0
   -0.7401    0.7204   -2.1851 H   0  0  0  0  0  0  0  0  0 13  0  0
   -2.3101   -0.4394   -0.4690 H   0  0  0  0  0  0  0  0  0 14  0  0
  1  7  1  0
  1  6  1  0
  1 14  1  0
  1  2  1  0
  2  9  1  0
  2  8  1  0
  2  3  1  0
  3  4  1  0
  4 11  1  0
  4 10  1  0
  4  5  1  0
  5  6  1  0
  6 12  1  0
  6 13  1  0
M  END
>  <rmg_smiles>  (2) 
C1COCOC1

>  <rmg_adjacency_list>  (2) 
1  O u0 p2 c0 {4,S} {6,S}
2  O u0 p2 c0 {5,S} {6,S}
3  C u0 p0 c0 {4,S} {5,S} {7,S} {8,S}
4  C u0 p0 c0 {1,S} {3,S} {9,S} {10,S}
5  C u0 p0 c0 {2,S} {3,S} {11,S} {12,S}
6  C u0 p0 c0 {1,S} {2,S} {13,S} {14,S}
7  H u0 p0 c0 {3,S}
8  H u0 p0 c0 {3,S}
9  H u0 p0 c0 {4,S}
10 H u0 p0 c0 {4,S}
11 H u0 p0 c0 {5,S}
12 H u0 p0 c0 {5,S}
13 H u0 p0 c0 {6,S}
14 H u0 p0 c0 {6,S}


>  <multiplicity>  (2) 
1

>  <reaction>  (2) 
rmg_rxn_198

>  <type>  (2) 
r2h

>  <role_mapnums>  (2) 
{"r2h_a": 1, "r2h_h": 14}

>  <role_mapidx>  (2) 
{"r2h_a": 0, "r2h_h": 13}

>  <ordered_mapped_smiles>  (2) 
[C:1]1([H:7])([H:14])[C:2]([H:8])([H:9])[O:3][C:4]([H:10])([H:11])[O:5][C:6]1([H:12])[H:13]

>  <mol_properties>  (2) 
{"0": {"label": "acceptor", "atom_type": "Cs"}, "13": {"label": "a_hydrogen", "atom_type": "H0"}}

>  <level_of_theory>  (2) 
wb97xd/def2tzvp

>  <lot_method>  (2) 
wb97xd

>  <lot_basis>  (2) 
def2tzvp

>  <spin_multiplicity>  (2) 
1.0

>  <optical_isomers>  (2) 
1.0

>  <modes>  (2) 
IdealGasTranslation(mass=(88.0524, 'amu')),         NonlinearRotor(             inertia = ([100.123, 103.988, 181.806

>  <frequency_value>  (2) 
unknown

>  <frequency_units>  (2) 
unknown

>  <frequency_list>  (2) 
unknown

>  <arkane_path>  (2) 
/home/calvin/Dropbox/PersonalFolders/Calvin/ATLAS_Converged/rmg_rxn_198/output/Species/rmg_rxn_198_p2_C1COCOC1/arkane/output.py

>  <path_exists>  (2) 
True

>  <E0_value>  (2) 
-807534.4862541369

>  <E0_units>  (2) 
kJ/mol

>  <thermo_class>  (2) 
NASA

>  <Cp0_value>  (2) 
33.257888

>  <Cp0_units>  (2) 
J/(mol*K)

>  <CpInf_value>  (2) 
332.57888

>  <CpInf_units>  (2) 
J/(mol*K)

>  <Tmin_value>  (2) 
10.0

>  <Tmin_units>  (2) 
K

>  <Tmax_value>  (2) 
3000.0

>  <Tmax_units>  (2) 
K

>  <polynomials>  (2) 
[{"name": "polynomial1", "class": "NASAPolynomial", "Tmin_value": 10.0, "Tmin_units": "K", "Tmax_value": 635.616554573151, "Tmax_units": "K", "coeffs": [4.089858497697602, -0.00720848048360332, 0.00016188875003168496, -2.401508213073996e-07, 1.1440937882219611e-10, -97123964.81365098, 9.940070949440356]}, {"name": "polynomial2", "class": "NASAPolynomial", "Tmin_value": 635.616554573151, "Tmin_units": "K", "Tmax_value": 3000.0, "Tmax_units": "K", "coeffs": [-3.6233751272420895, 0.05886750722676344, -3.5427870905530145e-05, 1.0209382893823142e-08, -1.1338653155444558e-12, -97123338.5127768, 40.87012283464024]}]

>  <H298_value>  (2) 
-193001.58453999052

>  <H298_units>  (2) 
kcal/mol

>  <S298_value>  (2) 
72.30963326519604

>  <S298_units>  (2) 
cal/(mol*K)

>  <Cp_T_value_list>  (2) 
[21.739931113059615, 29.14813400113705, 35.94765005011551, 41.73053828287379, 50.792135881792035, 57.413930600437965, 66.93239440365458, 71.40703402864166, 73.74460734469625]

>  <Cp_T_units>  (2) 
cal/(mol*K)

>  <T_list>  (2) 
[300.0, 400.0, 500.0, 600.0, 800.0, 1000.0, 1500.0, 2000.0, 2400.0]

>  <T_units>  (2) 
K

>  <yaml_path>  (2) 
/home/calvin/Dropbox/PersonalFolders/Calvin/ATLAS_Converged/rmg_rxn_198/output/Species/rmg_rxn_198_p2_C1COCOC1/rmg_rxn_198_p2_C1COCOC1.yml

>  <frequencies_cm1>  (2) 
[264.26219606955993, 269.44676998615995, 439.22611503784, 466.70779028847994, 494.62208561427997, 656.81341188736, 851.50617968, 900.41284912904, 919.12538412604, 926.80954069912, 1013.8966485273598, 1037.6289497932798, 1094.57685905204, 1112.95291176836, 1188.75069573052, 1216.28730686372, 1226.8487302858798, 1252.366447735, 1315.55644664964, 1328.3633742714399, 1363.72148168412, 1380.93701388136, 1404.8272558096398, 1432.53554157584, 1460.95799381532, 1489.42164796672, 1490.0946125280798, 1506.58911126672, 2894.63345495428, 2944.5289702893997, 2950.530715459079, 3031.06671929204, 3080.8454958767197, 3088.2893079635996, 3091.87387430064, 3110.9160245929997]

>  <ZPE_kJmol>  (2) 
321.1850391352071

>  <E_elec_kJmol>  (2) 
-807855.671293272

>  <E0_minus_Eelec_plus_ZPE_kJmol>  (2) 
0.0

>  <rxn>  (2) 
rmg_rxn_198

>  <species_type>  (2) 
p1

>  <species_folder>  (2) 
rmg_rxn_198_p2_C1COCOC1

>  <frequencies_cm1_list>  (2) 
[264.26219606955993, 269.44676998615995, 439.22611503784, 466.70779028847994, 494.62208561427997, 656.81341188736, 851.50617968, 900.41284912904, 919.12538412604, 926.80954069912, 1013.8966485273598, 1037.6289497932798, 1094.57685905204, 1112.95291176836, 1188.75069573052, 1216.28730686372, 1226.8487302858798, 1252.366447735, 1315.55644664964, 1328.3633742714399, 1363.72148168412, 1380.93701388136, 1404.8272558096398, 1432.53554157584, 1460.95799381532, 1489.42164796672, 1490.0946125280798, 1506.58911126672, 2894.63345495428, 2944.5289702893997, 2950.530715459079, 3031.06671929204, 3080.8454958767197, 3088.2893079635996, 3091.87387430064, 3110.9160245929997]

>  <E0_kJmol>  (2) 
-807534

>  <H298_kJmol>  (2) 
-807519

$$$$

     RDKit          3D

 27 27  0  0  0  0  0  0  0  0999 V2000
    0.3014    1.1966    0.6476 C   0  0  0  0  0  3  0  0  0  1  0  0
    0.8764    0.5106    1.8578 C   0  0  0  0  0  0  0  0  0  2  0  0
    2.1682    1.0340    2.1522 O   0  0  0  0  0  0  0  0  0  3  0  0
    3.0095    0.9384    1.0447 C   0  0  0  0  0  0  0  0  0  4  0  0
    2.5485    1.6564   -0.0609 O   0  0  0  0  0  0  0  0  0  5  0  0
    1.2838    1.1673   -0.4921 C   0  0  0  0  0  0  0  0  0  6  0  0
   -0.0872    2.1920    0.8553 H   0  0  0  0  0  0  0  0  0  7  0  0
    0.2690    0.6611    2.7484 H   0  0  0  0  0  0  0  0  0  8  0  0
    0.9615   -0.5726    1.6806 H   0  0  0  0  0  0  0  0  0  9  0  0
    3.1292   -0.1251    0.7648 H   0  0  0  0  0  0  0  0  0 10  0  0
    3.9691    1.3652    1.3287 H   0  0  0  0  0  0  0  0  0 11  0  0
    1.4133    0.1383   -0.8646 H   0  0  0  0  0  0  0  0  0 12  0  0
    0.9739    1.7964   -1.3256 H   0  0  0  0  0  0  0  0  0 13  0  0
   -1.3412   -2.0686   -1.8085 C   0  0  0  0  0  0  0  0  0 14  0  0
   -0.8552   -2.1855   -0.3736 C   0  0  0  0  0  0  0  0  0 15  0  0
   -1.7488   -1.5248    0.5075 O   0  0  0  0  0  0  0  0  0 16  0  0
   -1.9879   -0.2146    0.1471 C   0  0  0  0  0  0  0  0  0 17  0  0
   -2.4458   -0.0297   -1.1389 O   0  0  0  0  0  0  0  0  0 18  0  0
   -1.5948   -0.6026   -2.1188 C   0  0  0  0  0  0  0  0  0 19  0  0
   -0.5980   -2.4787   -2.4954 H   0  0  0  0  0  0  0  0  0 20  0  0
   -2.2675   -2.6337   -1.9281 H   0  0  0  0  0  0  0  0  0 21  0  0
   -0.8062   -3.2209   -0.0411 H   0  0  0  0  0  0  0  0  0 22  0  0
    0.1457   -1.7438   -0.2741 H   0  0  0  0  0  0  0  0  0 23  0  0
   -0.8791    0.4601    0.3095 H   0  0  0  0  0  0  0  0  0 24  0  0
   -2.7061    0.2155    0.8419 H   0  0  0  0  0  0  0  0  0 25  0  0
   -0.6473   -0.0491   -2.1460 H   0  0  0  0  0  0  0  0  0 26  0  0
   -2.0965   -0.4688   -3.0755 H   0  0  0  0  0  0  0  0  0 27  0  0
  1  7  1  0
  1  6  1  0
  1  2  1  0
  2  8  1  0
  2  3  1  0
  2  9  1  0
  3  4  1  0
  4 10  1  0
  4 11  1  0
  4  5  1  0
  5  6  1  0
  6 12  1  0
  6 13  1  0
 14 15  1  0
 14 19  1  0
 14 20  1  0
 14 21  1  0
 15 16  1  0
 15 23  1  0
 15 22  1  0
 16 17  1  0
 17 18  1  0
 17 24  1  0
 17 25  1  0
 18 19  1  0
 19 27  1  0
 19 26  1  0
M  RAD  1   1   2
M  END
>  <rmg_smiles>  (3) 
C1COCOC1.[CH]1COCOC1

>  <rmg_adjacency_list>  (3) 
multiplicity 2
1  O u0 p2 c0 {6,S} {11,S}
2  O u0 p2 c0 {7,S} {11,S}
3  O u0 p2 c0 {8,S} {10,S}
4  O u0 p2 c0 {9,S} {10,S}
5  C u0 p0 c0 {6,S} {7,S} {13,S} {14,S}
6  C u0 p0 c0 {1,S} {5,S} {15,S} {16,S}
7  C u0 p0 c0 {2,S} {5,S} {17,S} {18,S}
8  C u0 p0 c0 {3,S} {12,S} {19,S} {20,S}
9  C u0 p0 c0 {4,S} {12,S} {21,S} {22,S}
10 C u0 p0 c0 {3,S} {4,S} {23,S} {24,S}
11 C u0 p0 c0 {1,S} {2,S} {25,S} {26,S}
12 C u1 p0 c0 {8,S} {9,S} {27,S}
13 H u0 p0 c0 {5,S}
14 H u0 p0 c0 {5,S}
15 H u0 p0 c0 {6,S}
16 H u0 p0 c0 {6,S}
17 H u0 p0 c0 {7,S}
18 H u0 p0 c0 {7,S}
19 H u0 p0 c0 {8,S}
20 H u0 p0 c0 {8,S}
21 H u0 p0 c0 {9,S}
22 H u0 p0 c0 {9,S}
23 H u0 p0 c0 {10,S}
24 H u0 p0 c0 {10,S}
25 H u0 p0 c0 {11,S}
26 H u0 p0 c0 {11,S}
27 H u0 p0 c0 {12,S}


>  <multiplicity>  (3) 
2

>  <reaction>  (3) 
rmg_rxn_198

>  <type>  (3) 
ts

>  <role_mapnums>  (3) 
{"*2": 24, "*1": 17, "*3": 1, "*0": 16, "*4": 2}

>  <role_mapidx>  (3) 
{"*2": 23, "*1": 16, "*3": 0, "*0": 15, "*4": 1}

>  <ordered_mapped_smiles>  (3) 
[C:1]1([H:7])[C:2]([H:8])([H:9])[O:3][C:4]([H:10])([H:11])[O:5][C:6]1([H:12])[H:13].[C:14]1([H:20])([H:21])[C:15]([H:22])([H:23])[O:16][C:17]([H:24])([H:25])[O:18][C:19]1([H:26])[H:27]

>  <mol_properties>  (3) 
{"0": {"label": "*3", "atom_type": "Cs"}, "1": {"label": "*4", "atom_type": "Cs"}, "15": {"label": "*0", "atom_type": "O2s"}, "16": {"label": "*1", "atom_type": "Cs"}, "23": {"label": "*2", "atom_type": "H0"}}

>  <level_of_theory>  (3) 
wb97xd/def2tzvp

>  <lot_method>  (3) 
wb97xd

>  <lot_basis>  (3) 
def2tzvp

>  <spin_multiplicity>  (3) 
2.0

>  <optical_isomers>  (3) 
2.0

>  <modes>  (3) 
IdealGasTranslation(mass=(175.097, 'amu')),         NonlinearRotor(             inertia = ([293.993, 1038.27, 1095.63

>  <frequency_value>  (3) 
-1650.65

>  <frequency_units>  (3) 
cm^-1

>  <frequency_list>  (3) 
unknown

>  <arkane_path>  (3) 
/home/calvin/Dropbox/PersonalFolders/Calvin/ATLAS_Converged/rmg_rxn_198/output/rxns/TS0/arkane/output.py

>  <path_exists>  (3) 
True

>  <E0_value>  (3) 
-1613300.0

>  <E0_units>  (3) 
kJ/mol

>  <thermo_class>  (3) 
unknown

>  <Cp0_value>  (3) 
unknown

>  <Cp0_units>  (3) 
unknown

>  <CpInf_value>  (3) 
unknown

>  <CpInf_units>  (3) 
unknown

>  <Tmin_value>  (3) 
unknown

>  <Tmin_units>  (3) 
unknown

>  <Tmax_value>  (3) 
unknown

>  <Tmax_units>  (3) 
unknown

>  <polynomials>  (3) 
unknown

>  <H298_value>  (3) 
unknown

>  <H298_units>  (3) 
unknown

>  <S298_value>  (3) 
unknown

>  <S298_units>  (3) 
unknown

>  <Cp_T_value_list>  (3) 
unknown

>  <Cp_T_units>  (3) 
unknown

>  <T_list>  (3) 
unknown

>  <T_units>  (3) 
unknown

>  <yaml_path>  (3) 
unknown

>  <frequencies_cm1>  (3) 
unknown

>  <ZPE_kJmol>  (3) 
unknown

>  <E_elec_kJmol>  (3) 
unknown

>  <E0_minus_Eelec_plus_ZPE_kJmol>  (3) 
unknown

>  <rxn>  (3) 
unknown

>  <species_type>  (3) 
unknown

>  <species_folder>  (3) 
unknown

>  <frequencies_cm1_list>  (3) 
[]

>  <ts_imag_freq_cm1>  (3) 
-1670.6963

>  <ts_freq_out_path>  (3) 
/home/calvin/Dropbox/PersonalFolders/Calvin/ATLAS_Converged/rmg_rxn_198/output/rxns/TS0/geometry/freq.out

>  <E0_kJmol>  (3) 
-1.6133e+06

>  <H298_kJmol>  (3) 
unknown

$$$$

     RDKit          3D

 13 13  0  0  0  0  0  0  0  0999 V2000
    0.5794    1.5990    0.2108 C   0  0  0  0  0  3  0  0  0  1  0  0
    1.4528    0.6621   -0.2496 O   0  0  0  0  0  0  0  0  0  2  0  0
    1.0751   -0.6763    0.0423 C   0  0  0  0  0  0  0  0  0  3  0  0
   -0.3579   -0.9282   -0.3924 C   0  0  0  0  0  0  0  0  0  4  0  0
   -1.2426    0.1393    0.2269 C   0  0  0  0  0  0  0  0  0  5  0  0
   -0.7410    1.4341   -0.0749 O   0  0  0  0  0  0  0  0  0  6  0  0
    0.9183    2.6078    0.0084 H   0  0  0  0  0  0  0  0  0  7  0  0
    1.1839   -0.8508    1.1199 H   0  0  0  0  0  0  0  0  0  8  0  0
    1.7816   -1.3130   -0.4874 H   0  0  0  0  0  0  0  0  0  9  0  0
   -0.6818   -1.9210   -0.0736 H   0  0  0  0  0  0  0  0  0 10  0  0
   -0.4271   -0.8785   -1.4810 H   0  0  0  0  0  0  0  0  0 11  0  0
   -1.2832    0.0173    1.3164 H   0  0  0  0  0  0  0  0  0 12  0  0
   -2.2575    0.1083   -0.1657 H   0  0  0  0  0  0  0  0  0 13  0  0
  1  6  1  0
  1  7  1  0
  1  2  1  0
  2  3  1  0
  3  4  1  0
  3  9  1  0
  3  8  1  0
  4  5  1  0
  4 10  1  0
  4 11  1  0
  5  6  1  0
  5 12  1  0
  5 13  1  0
M  RAD  1   1   2
M  END
>  <rmg_smiles>  (4) 
[CH]1OCCCO1

>  <rmg_adjacency_list>  (4) 
multiplicity 2
1  O u0 p2 c0 {4,S} {6,S}
2  O u0 p2 c0 {5,S} {6,S}
3  C u0 p0 c0 {4,S} {5,S} {7,S} {8,S}
4  C u0 p0 c0 {1,S} {3,S} {9,S} {10,S}
5  C u0 p0 c0 {2,S} {3,S} {11,S} {12,S}
6  C u1 p0 c0 {1,S} {2,S} {13,S}
7  H u0 p0 c0 {3,S}
8  H u0 p0 c0 {3,S}
9  H u0 p0 c0 {4,S}
10 H u0 p0 c0 {4,S}
11 H u0 p0 c0 {5,S}
12 H u0 p0 c0 {5,S}
13 H u0 p0 c0 {6,S}


>  <multiplicity>  (4) 
2

>  <reaction>  (4) 
rmg_rxn_198

>  <type>  (4) 
r1

>  <role_mapnums>  (4) 
{}

>  <role_mapidx>  (4) 
{}

>  <ordered_mapped_smiles>  (4) 
[C:1]1([H:7])[O:2][C:3]([H:8])([H:9])[C:4]([H:10])([H:11])[C:5]([H:12])([H:13])[O:6]1

>  <level_of_theory>  (4) 
wb97xd/def2tzvp

>  <lot_method>  (4) 
wb97xd

>  <lot_basis>  (4) 
def2tzvp

>  <spin_multiplicity>  (4) 
2.0

>  <optical_isomers>  (4) 
1.0

>  <modes>  (4) 
IdealGasTranslation(mass=(87.0446, 'amu')),         NonlinearRotor(             inertia = ([96.7564, 101.33, 180.793

>  <frequency_value>  (4) 
unknown

>  <frequency_units>  (4) 
unknown

>  <frequency_list>  (4) 
unknown

>  <arkane_path>  (4) 
/home/calvin/Dropbox/PersonalFolders/Calvin/ATLAS_Converged/rmg_rxn_198/output/Species/rmg_rxn_198_p1_sbr-CH-sbr1OCCCO1/arkane/output.py

>  <path_exists>  (4) 
True

>  <E0_value>  (4) 
-805829.6077087377

>  <E0_units>  (4) 
kJ/mol

>  <thermo_class>  (4) 
NASA

>  <Cp0_value>  (4) 
33.257888

>  <Cp0_units>  (4) 
J/(mol*K)

>  <CpInf_value>  (4) 
307.635464

>  <CpInf_units>  (4) 
J/(mol*K)

>  <Tmin_value>  (4) 
10.0

>  <Tmin_units>  (4) 
K

>  <Tmax_value>  (4) 
3000.0

>  <Tmax_units>  (4) 
K

>  <polynomials>  (4) 
[{"name": "polynomial1", "class": "NASAPolynomial", "Tmin_value": 10.0, "Tmin_units": "K", "Tmax_value": 608.112492343142, "Tmax_units": "K", "coeffs": [4.052680972350976, -0.0047882923899246685, 0.00015490339112890275, -2.438945344349935e-07, 1.2271144192742085e-10, -96918914.0547554, 10.641162980593737]}, {"name": "polynomial2", "class": "NASAPolynomial", "Tmin_value": 608.112492343142, "Tmin_units": "K", "Tmax_value": 3000.0, "Tmax_units": "K", "coeffs": [-2.1801652399204463, 0.053800847786724684, -3.3006657387032914e-05, 9.678351907920253e-09, -1.0905566594576255e-12, -96918481.26165283, 34.93650323250774]}]

>  <H298_value>  (4) 
-192594.04417056424

>  <H298_units>  (4) 
kcal/mol

>  <S298_value>  (4) 
74.06569612686815

>  <S298_units>  (4) 
cal/(mol*K)

>  <Cp_T_value_list>  (4) 
[21.79231995372727, 28.72322049116149, 34.90931795869405, 40.07621166157428, 48.17957605835906, 54.05563435308073, 62.397532807122666, 66.31866398847424, 68.42946986859195]

>  <Cp_T_units>  (4) 
cal/(mol*K)

>  <T_list>  (4) 
[300.0, 400.0, 500.0, 600.0, 800.0, 1000.0, 1500.0, 2000.0, 2400.0]

>  <T_units>  (4) 
K

>  <yaml_path>  (4) 
/home/calvin/Dropbox/PersonalFolders/Calvin/ATLAS_Converged/rmg_rxn_198/output/Species/rmg_rxn_198_p1_sbr-CH-sbr1OCCCO1/rmg_rxn_198_p1_sbr-CH-sbr1OCCCO1.yml

>  <frequencies_cm1>  (4) 
[221.38473973147995, 259.92912833264, 404.37616453883993, 465.21765447404, 498.2203859219599, 675.711355488, 843.04605376576, 891.5750390221999, 897.2334349258798, 928.91083820704, 951.5993577043199, 1041.5293974550398, 1054.4736647832399, 1157.30676995024, 1159.53167319392, 1231.5732161860399, 1233.0290170738797, 1266.9931264665997, 1307.989028827, 1348.11969103708, 1377.30437864708, 1407.0796269946, 1418.3758178459998, 1462.8532817636399, 1490.6165034123997, 1500.0792091833598, 2984.3712191160403, 2988.60128207316, 3033.3465584182795, 3083.9562402266797, 3096.46788747972, 3099.4824940352, 3160.91454470792]

>  <ZPE_kJmol>  (4) 
286.7521305046946

>  <E_elec_kJmol>  (4) 
-806116.3598392424

>  <E0_minus_Eelec_plus_ZPE_kJmol>  (4) 
0.0

>  <rxn>  (4) 
rmg_rxn_198

>  <species_type>  (4) 
p0

>  <species_folder>  (4) 
rmg_rxn_198_p1_sbr-CH-sbr1OCCCO1

>  <frequencies_cm1_list>  (4) 
[221.38473973147995, 259.92912833264, 404.37616453883993, 465.21765447404, 498.2203859219599, 675.711355488, 843.04605376576, 891.5750390221999, 897.2334349258798, 928.91083820704, 951.5993577043199, 1041.5293974550398, 1054.4736647832399, 1157.30676995024, 1159.53167319392, 1231.5732161860399, 1233.0290170738797, 1266.9931264665997, 1307.989028827, 1348.11969103708, 1377.30437864708, 1407.0796269946, 1418.3758178459998, 1462.8532817636399, 1490.6165034123997, 1500.0792091833598, 2984.3712191160403, 2988.60128207316, 3033.3465584182795, 3083.9562402266797, 3096.46788747972, 3099.4824940352, 3160.91454470792]

>  <E0_kJmol>  (4) 
-805830

>  <H298_kJmol>  (4) 
-805813

$$$$

     RDKit          3D

 13 13  0  0  0  0  0  0  0  0999 V2000
   -1.1371    0.3608    0.3110 C   0  0  0  0  0  3  0  0  0  1  0  0
   -0.0045    1.3224    0.2943 C   0  0  0  0  0  0  0  0  0  2  0  0
    1.2245    0.6965    0.6137 O   0  0  0  0  0  0  0  0  0  3  0  0
    1.3926   -0.4921   -0.0955 C   0  0  0  0  0  0  0  0  0  4  0  0
    0.4387   -1.4537    0.2351 O   0  0  0  0  0  0  0  0  0  5  0  0
   -0.8659   -1.0349   -0.1206 C   0  0  0  0  0  0  0  0  0  6  0  0
   -2.1544    0.7285    0.3341 H   0  0  0  0  0  0  0  0  0  7  0  0
   -0.1488    2.1272    1.0165 H   0  0  0  0  0  0  0  0  0  8  0  0
    0.0825    1.7949   -0.7036 H   0  0  0  0  0  0  0  0  0  9  0  0
    1.3549   -0.2872   -1.1815 H   0  0  0  0  0  0  0  0  0 10  0  0
    2.3646   -0.8956    0.1787 H   0  0  0  0  0  0  0  0  0 11  0  0
   -1.5620   -1.7401    0.3358 H   0  0  0  0  0  0  0  0  0 12  0  0
   -0.9852   -1.1268   -1.2179 H   0  0  0  0  0  0  0  0  0 13  0  0
  1  7  1  0
  1  6  1  0
  1  2  1  0
  2  9  1  0
  2  8  1  0
  2  3  1  0
  3  4  1  0
  4 10  1  0
  4 11  1  0
  4  5  1  0
  5  6  1  0
  6 13  1  0
  6 12  1  0
M  RAD  1   1   2
M  END
>  <rmg_smiles>  (5) 
[CH]1COCOC1

>  <rmg_adjacency_list>  (5) 
multiplicity 2
1  O u0 p2 c0 {3,S} {5,S}
2  O u0 p2 c0 {4,S} {5,S}
3  C u0 p0 c0 {1,S} {6,S} {7,S} {8,S}
4  C u0 p0 c0 {2,S} {6,S} {9,S} {10,S}
5  C u0 p0 c0 {1,S} {2,S} {11,S} {12,S}
6  C u1 p0 c0 {3,S} {4,S} {13,S}
7  H u0 p0 c0 {3,S}
8  H u0 p0 c0 {3,S}
9  H u0 p0 c0 {4,S}
10 H u0 p0 c0 {4,S}
11 H u0 p0 c0 {5,S}
12 H u0 p0 c0 {5,S}
13 H u0 p0 c0 {6,S}


>  <multiplicity>  (5) 
2

>  <reaction>  (5) 
rmg_rxn_198

>  <type>  (5) 
r2

>  <role_mapnums>  (5) 
{}

>  <role_mapidx>  (5) 
{}

>  <ordered_mapped_smiles>  (5) 
[C:1]1([H:7])[C:2]([H:8])([H:9])[O:3][C:4]([H:10])([H:11])[O:5][C:6]1([H:12])[H:13]

>  <level_of_theory>  (5) 
wb97xd/def2tzvp

>  <lot_method>  (5) 
wb97xd

>  <lot_basis>  (5) 
def2tzvp

>  <spin_multiplicity>  (5) 
2.0

>  <optical_isomers>  (5) 
1.0

>  <modes>  (5) 
IdealGasTranslation(mass=(87.0446, 'amu')),         NonlinearRotor(             inertia = ([94.1512, 104.116, 181.381

>  <frequency_value>  (5) 
unknown

>  <frequency_units>  (5) 
unknown

>  <frequency_list>  (5) 
unknown

>  <arkane_path>  (5) 
/home/calvin/Dropbox/PersonalFolders/Calvin/ATLAS_Converged/rmg_rxn_198/output/Species/rmg_rxn_198_r1_sbr-CH-sbr1COCOC1/arkane/output.py

>  <path_exists>  (5) 
True

>  <E0_value>  (5) 
-805805.5046036663

>  <E0_units>  (5) 
kJ/mol

>  <thermo_class>  (5) 
NASA

>  <Cp0_value>  (5) 
33.257888

>  <Cp0_units>  (5) 
J/(mol*K)

>  <CpInf_value>  (5) 
307.635464

>  <CpInf_units>  (5) 
J/(mol*K)

>  <Tmin_value>  (5) 
10.0

>  <Tmin_units>  (5) 
K

>  <Tmax_value>  (5) 
3000.0

>  <Tmax_units>  (5) 
K

>  <polynomials>  (5) 
[{"name": "polynomial1", "class": "NASAPolynomial", "Tmin_value": 10.0, "Tmin_units": "K", "Tmax_value": 532.6234384632435, "Tmax_units": "K", "coeffs": [3.9895632441253777, 0.00012573120731859374, 0.00014225277626324882, -2.393647807532974e-07, 1.2960002972211777e-10, -96916014.70318198, 10.80599494197436]}, {"name": "polynomial2", "class": "NASAPolynomial", "Tmin_value": 532.6234384632435, "Tmin_units": "K", "Tmax_value": 3000.0, "Tmax_units": "K", "coeffs": [-2.109707799159142, 0.05423092565181814, -3.349489651614801e-05, 9.869048606025939e-09, -1.1162728713998813e-12, -96915482.70627798, 35.284120928889635]}]

>  <H298_value>  (5) 
-192588.08392280544

>  <H298_units>  (5) 
kcal/mol

>  <S298_value>  (5) 
75.57885402958044

>  <S298_units>  (5) 
cal/(mol*K)

>  <Cp_T_value_list>  (5) 
[22.687824603425984, 29.40810210104957, 35.36239369095678, 40.45501415760785, 48.55545624595507, 54.40791969006955, 62.656762367093116, 66.5010316147293, 68.57528292327558]

>  <Cp_T_units>  (5) 
cal/(mol*K)

>  <T_list>  (5) 
[300.0, 400.0, 500.0, 600.0, 800.0, 1000.0, 1500.0, 2000.0, 2400.0]

>  <T_units>  (5) 
K

>  <yaml_path>  (5) 
/home/calvin/Dropbox/PersonalFolders/Calvin/ATLAS_Converged/rmg_rxn_198/output/Species/rmg_rxn_198_r1_sbr-CH-sbr1COCOC1/rmg_rxn_198_r1_sbr-CH-sbr1COCOC1.yml

>  <frequencies_cm1>  (5) 
[160.7904612678, 218.47313795579996, 380.63699628759997, 397.61905098395994, 478.6700787159199, 564.4249913920801, 779.7187151447199, 882.67542604748, 889.45314055832, 925.19579914892, 971.94623520748, 1029.1550899084, 1052.7912533798399, 1117.945210096, 1165.49221645168, 1207.6761072724398, 1217.9628512817999, 1281.02237747536, 1319.57363306184, 1356.37380739172, 1370.56099906284, 1398.8323776252798, 1427.65311501332, 1465.7648835393202, 1466.5751878070798, 1501.09552301072, 2858.88392937836, 2864.07537028028, 2892.532157446359, 3063.8291062537596, 3064.5570066976798, 3113.5117450439598, 3176.61934013476]

>  <ZPE_kJmol>  (5) 
281.49387475166685

>  <E_elec_kJmol>  (5) 
-806086.9984784179

>  <E0_minus_Eelec_plus_ZPE_kJmol>  (5) 
0.0

>  <rxn>  (5) 
rmg_rxn_198

>  <species_type>  (5) 
r0

>  <species_folder>  (5) 
rmg_rxn_198_r1_sbr-CH-sbr1COCOC1

>  <frequencies_cm1_list>  (5) 
[160.7904612678, 218.47313795579996, 380.63699628759997, 397.61905098395994, 478.6700787159199, 564.4249913920801, 779.7187151447199, 882.67542604748, 889.45314055832, 925.19579914892, 971.94623520748, 1029.1550899084, 1052.7912533798399, 1117.945210096, 1165.49221645168, 1207.6761072724398, 1217.9628512817999, 1281.02237747536, 1319.57363306184, 1356.37380739172, 1370.56099906284, 1398.8323776252798, 1427.65311501332, 1465.7648835393202, 1466.5751878070798, 1501.09552301072, 2858.88392937836, 2864.07537028028, 2892.532157446359, 3063.8291062537596, 3064.5570066976798, 3113.5117450439598, 3176.61934013476]

>  <E0_kJmol>  (5) 
-805806

>  <H298_kJmol>  (5) 
-805789

$$$$
