
     RDKit          3D

  9  8  0  0  0  0  0  0  0  0999 V2000
    0.1495    1.0718    1.2886 C   0  0  0  0  0  0  0  0  0  1  0  0
    0.1502    0.6271   -0.0285 O   0  0  0  0  0  0  0  0  0  2  0  0
   -0.2101   -0.7007   -0.0911 N   0  0  0  0  0  0  0  0  0  3  0  0
   -0.1482   -1.1481   -1.2716 C   0  0  0  0  0  0  0  0  0  4  0  0
    0.9948    0.6117    1.7966 H   0  0  0  0  0  0  0  0  0  5  0  0
   -0.7376    0.7658    1.8431 H   0  0  0  0  0  0  0  0  0  6  0  0
    0.3254    2.1439    1.2810 H   0  0  0  0  0  0  0  0  0  7  0  0
   -0.4240   -2.1849   -1.4102 H   0  0  0  0  0  0  0  0  0  8  0  0
    0.1623   -0.5362   -2.1153 H   0  0  0  0  0  0  0  0  0  9  0  0
  1  5  1  0
  1  7  1  0
  1  2  1  0
  1  6  1  0
  2  3  1  0
  3  4  1  0
  4  8  1  0
  4  9  1  0
M  END
>  <rmg_smiles>  (1) 
CO[N][CH2]

>  <rmg_adjacency_list>  (1) 
1 O u0 p2 c0 {2,S} {3,S}
2 N u0 p1 c0 {1,S} {4,S}
3 C u0 p0 c0 {1,S} {5,S} {6,S} {7,S}
4 C u0 p0 c0 {2,S} {8,S} {9,S}
5 H u0 p0 c0 {3,S}
6 H u0 p0 c0 {3,S}
7 H u0 p0 c0 {3,S}
8 H u0 p0 c0 {4,S}
9 H u0 p0 c0 {4,S}


>  <multiplicity>  (1) 
1

>  <reaction>  (1) 
rmg_rxn_15719

>  <type>  (1) 
r1h

>  <role_mapnums>  (1) 
{"r1h_a": 1, "r1h_h": 5}

>  <role_mapidx>  (1) 
{"r1h_a": 0, "r1h_h": 4}

>  <ordered_mapped_smiles>  (1) 
[C:1]([O:2][NH:3][CH:4]([H:8])[H:9])([H:5])([H:6])[H:7]

>  <mol_properties>  (1) 
{"0": {"label": "donator", "atom_type": "Cs"}, "4": {"label": "d_hydrogen", "atom_type": "H0"}}

>  <level_of_theory>  (1) 
wb97xd/def2tzvp

>  <lot_method>  (1) 
wb97xd

>  <lot_basis>  (1) 
def2tzvp

>  <spin_multiplicity>  (1) 
1.0

>  <optical_isomers>  (1) 
1.0

>  <modes>  (1) 
IdealGasTranslation(mass=(59.0371, 'amu')),         NonlinearRotor(             inertia = ([11.9742, 101.538, 110.304

>  <frequency_value>  (1) 
unknown

>  <frequency_units>  (1) 
unknown

>  <frequency_list>  (1) 
unknown

>  <arkane_path>  (1) 
/home/calvin/Dropbox/PersonalFolders/Calvin/ZEUS_Converged/rmg_rxn_15719/output/Species/rmg_rxn_15719_r1_CON=C/arkane/output.py

>  <path_exists>  (1) 
True

>  <E0_value>  (1) 
-548882.9200394232

>  <E0_units>  (1) 
kJ/mol

>  <thermo_class>  (1) 
NASA

>  <Cp0_value>  (1) 
33.257888

>  <Cp0_units>  (1) 
J/(mol*K)

>  <CpInf_value>  (1) 
207.8618

>  <CpInf_units>  (1) 
J/(mol*K)

>  <Tmin_value>  (1) 
10.0

>  <Tmin_units>  (1) 
K

>  <Tmax_value>  (1) 
3000.0

>  <Tmax_units>  (1) 
K

>  <polynomials>  (1) 
[{"name": "polynomial1", "class": "NASAPolynomial", "Tmin_value": 10.0, "Tmin_units": "K", "Tmax_value": 1066.0445442103917, "Tmax_units": "K", "coeffs": [3.9488472240731216, 0.012909444164008412, 1.8432835387873368e-05, -2.5565901414715004e-08, 8.632634293818456e-12, -66015370.98001154, 7.906058800048573]}, {"name": "polynomial2", "class": "NASAPolynomial", "Tmin_value": 1066.0445442103917, "Tmin_units": "K", "Tmax_value": 3000.0, "Tmax_units": "K", "coeffs": [4.051174026649639, 0.02340322367340144, -1.163838712217072e-05, 2.8112466199843713e-09, -2.6680947262736413e-13, -66016010.897278614, 4.506810904924114]}]

>  <H298_value>  (1) 
-131182.46582067996

>  <H298_units>  (1) 
kcal/mol

>  <S298_value>  (1) 
69.27397375028742

>  <S298_units>  (1) 
cal/(mol*K)

>  <Cp_T_value_list>  (1) 
[17.607207323409234, 21.157104611048137, 24.5530891366924, 27.67560467885903, 32.827861850696166, 36.480858050170255, 41.94371504002133, 44.76201379304356, 46.08804102499818]

>  <Cp_T_units>  (1) 
cal/(mol*K)

>  <T_list>  (1) 
[300.0, 400.0, 500.0, 600.0, 800.0, 1000.0, 1500.0, 2000.0, 2400.0]

>  <T_units>  (1) 
K

>  <yaml_path>  (1) 
/home/calvin/Dropbox/PersonalFolders/Calvin/ZEUS_Converged/rmg_rxn_15719/output/Species/rmg_rxn_15719_r1_CON=C/rmg_rxn_15719_r1_CON=C.yml

>  <frequencies_cm1>  (1) 
[119.61601728907998, 180.59484693068, 346.29520270228, 574.9726808436, 796.6046320465999, 891.08061607916, 982.9746136314, 1126.32979917172, 1169.7222794088, 1171.7686410341598, 1237.71230106212, 1418.12173938916, 1456.2266409298397, 1467.4060930307999, 1493.1160860688801, 1708.0183916582798, 3005.45973103376, 3077.28153049564, 3083.54422110748, 3121.53925088304, 3213.405780494]

>  <ZPE_kJmol>  (1) 
189.2599943319938

>  <E_elec_kJmol>  (1) 
-549072.1800337551

>  <E0_minus_Eelec_plus_ZPE_kJmol>  (1) 
0.0

>  <rxn>  (1) 
rmg_rxn_15719

>  <species_type>  (1) 
r0

>  <species_folder>  (1) 
rmg_rxn_15719_r1_CON=C

>  <frequencies_cm1_list>  (1) 
[119.61601728907998, 180.59484693068, 346.29520270228, 574.9726808436, 796.6046320465999, 891.08061607916, 982.9746136314, 1126.32979917172, 1169.7222794088, 1171.7686410341598, 1237.71230106212, 1418.12173938916, 1456.2266409298397, 1467.4060930307999, 1493.1160860688801, 1708.0183916582798, 3005.45973103376, 3077.28153049564, 3083.54422110748, 3121.53925088304, 3213.405780494]

>  <E0_kJmol>  (1) 
-548883

>  <H298_kJmol>  (1) 
-548867

$$$$

     RDKit          3D

 15 14  0  0  0  0  0  0  0  0999 V2000
   -0.9996    1.9283   -0.8114 H   0  0  0  0  0  0  0  0  0  1  0  0
    0.8045    1.2369   -1.5950 C   0  0  0  0  0  0  0  0  0  2  0  0
   -0.1367    1.3814   -0.4298 C   0  0  0  0  0  0  0  0  0  3  0  0
   -0.7285    0.1109    0.1046 C   0  0  0  0  0  0  0  0  0  4  0  0
    0.2870   -0.6792    0.6896 O   0  0  0  0  0  0  0  0  0  5  0  0
   -0.1965   -1.8976    1.1808 C   0  0  0  0  0  0  0  0  0  6  0  0
    1.7115    0.7017   -1.2995 H   0  0  0  0  0  0  0  0  0  7  0  0
    1.1017    2.2102   -1.9896 H   0  0  0  0  0  0  0  0  0  8  0  0
    0.3352    0.6724   -2.4045 H   0  0  0  0  0  0  0  0  0  9  0  0
    0.2373    2.0340    0.3599 H   0  0  0  0  0  0  0  0  0 10  0  0
   -1.5014    0.3343    0.8553 H   0  0  0  0  0  0  0  0  0 11  0  0
   -1.2149   -0.4457   -0.7101 H   0  0  0  0  0  0  0  0  0 12  0  0
   -0.6420   -2.5060    0.3819 H   0  0  0  0  0  0  0  0  0 13  0  0
    0.6460   -2.4390    1.6096 H   0  0  0  0  0  0  0  0  0 14  0  0
   -0.9556   -1.7458    1.9605 H   0  0  0  0  0  0  0  0  0 15  0  0
  1  3  1  0
  2  9  1  0
  2  8  1  0
  2  7  1  0
  2  3  1  0
  3  4  1  0
  3 10  1  0
  4 11  1  0
  4 12  1  0
  4  5  1  0
  5  6  1  0
  6 15  1  0
  6 14  1  0
  6 13  1  0
M  END
>  <rmg_smiles>  (2) 
CCCOC

>  <rmg_adjacency_list>  (2) 
1  O u0 p2 c0 {3,S} {5,S}
2  C u0 p0 c0 {3,S} {4,S} {6,S} {7,S}
3  C u0 p0 c0 {1,S} {2,S} {8,S} {9,S}
4  C u0 p0 c0 {2,S} {10,S} {11,S} {12,S}
5  C u0 p0 c0 {1,S} {13,S} {14,S} {15,S}
6  H u0 p0 c0 {2,S}
7  H u0 p0 c0 {2,S}
8  H u0 p0 c0 {3,S}
9  H u0 p0 c0 {3,S}
10 H u0 p0 c0 {4,S}
11 H u0 p0 c0 {4,S}
12 H u0 p0 c0 {4,S}
13 H u0 p0 c0 {5,S}
14 H u0 p0 c0 {5,S}
15 H u0 p0 c0 {5,S}


>  <multiplicity>  (2) 
1

>  <reaction>  (2) 
rmg_rxn_15719

>  <type>  (2) 
r2h

>  <role_mapnums>  (2) 
{"r2h_a": 3, "r2h_h": 1}

>  <role_mapidx>  (2) 
{"r2h_a": 2, "r2h_h": 0}

>  <ordered_mapped_smiles>  (2) 
[H:1][C:3]([C:2]([H:7])([H:8])[H:9])([C:4]([O:5][C:6]([H:13])([H:14])[H:15])([H:11])[H:12])[H:10]

>  <mol_properties>  (2) 
{"0": {"label": "a_hydrogen", "atom_type": "H0"}, "2": {"label": "acceptor", "atom_type": "Cs"}}

>  <level_of_theory>  (2) 
wb97xd/def2tzvp

>  <lot_method>  (2) 
wb97xd

>  <lot_basis>  (2) 
def2tzvp

>  <spin_multiplicity>  (2) 
1.0

>  <optical_isomers>  (2) 
2.0

>  <modes>  (2) 
IdealGasTranslation(mass=(74.0732, 'amu')),         NonlinearRotor(             inertia = ([40.784, 192.218, 211.735

>  <frequency_value>  (2) 
unknown

>  <frequency_units>  (2) 
unknown

>  <frequency_list>  (2) 
unknown

>  <arkane_path>  (2) 
/home/calvin/Dropbox/PersonalFolders/Calvin/ZEUS_Converged/rmg_rxn_15719/output/Species/rmg_rxn_15719_p2_CCCOC/arkane/output.py

>  <path_exists>  (2) 
True

>  <E0_value>  (2) 
-613163.1274359095

>  <E0_units>  (2) 
kJ/mol

>  <thermo_class>  (2) 
NASA

>  <Cp0_value>  (2) 
33.257888

>  <Cp0_units>  (2) 
J/(mol*K)

>  <CpInf_value>  (2) 
357.522296

>  <CpInf_units>  (2) 
J/(mol*K)

>  <Tmin_value>  (2) 
10.0

>  <Tmin_units>  (2) 
K

>  <Tmax_value>  (2) 
3000.0

>  <Tmax_units>  (2) 
K

>  <polynomials>  (2) 
[{"name": "polynomial1", "class": "NASAPolynomial", "Tmin_value": 10.0, "Tmin_units": "K", "Tmax_value": 456.12560324554056, "Tmax_units": "K", "coeffs": [3.62223196701835, 0.03879795217402279, -8.359648491421e-05, 2.4522721819815076e-07, -2.187140949836333e-10, -73746489.62884024, 10.515609438787227]}, {"name": "polynomial2", "class": "NASAPolynomial", "Tmin_value": 456.12560324554056, "Tmin_units": "K", "Tmax_value": 3000.0, "Tmax_units": "K", "coeffs": [-2.20935170520275, 0.056485006605310945, -3.174876766111153e-05, 8.65420390010314e-09, -9.198389746305381e-13, -73745609.6450763, 37.88661603232218]}]

>  <H298_value>  (2) 
-146544.64412500645

>  <H298_units>  (2) 
kcal/mol

>  <S298_value>  (2) 
80.94634663649457

>  <S298_units>  (2) 
cal/(mol*K)

>  <Cp_T_value_list>  (2) 
[25.013931424396034, 31.51994949570118, 37.99587562842776, 43.72290058989096, 53.08549647523409, 60.13535702830284, 70.81347633831932, 76.07383878332065, 78.6922399009724]

>  <Cp_T_units>  (2) 
cal/(mol*K)

>  <T_list>  (2) 
[300.0, 400.0, 500.0, 600.0, 800.0, 1000.0, 1500.0, 2000.0, 2400.0]

>  <T_units>  (2) 
K

>  <yaml_path>  (2) 
/home/calvin/Dropbox/PersonalFolders/Calvin/ZEUS_Converged/rmg_rxn_15719/output/Species/rmg_rxn_15719_p2_CCCOC/rmg_rxn_15719_p2_CCCOC.yml

>  <frequencies_cm1>  (2) 
[91.63991909539999, 126.96369158147998, 202.90568223536002, 229.57705321824, 300.01172164547995, 354.24717170284, 509.22129640459997, 764.38473692516, 888.9449836446399, 924.72884414716, 957.6835066978399, 1072.9458552940398, 1116.4482072962398, 1154.8689901616399, 1177.001283848, 1188.20133690492, 1229.14230338276, 1271.07211574668, 1307.65941353164, 1369.5858871474, 1403.3027850685999, 1415.972372984, 1467.6807724436, 1468.93743075716, 1475.31686011944, 1481.9915698504797, 1490.39675988216, 1494.07059702836, 1510.75737135596, 2928.3984217727198, 2950.9908034755194, 2962.18398954712, 2998.10518975604, 3014.75762915704, 3020.7181724148, 3057.78615917216, 3085.0343569219203, 3099.33828734348, 3104.91427942332]

>  <ZPE_kJmol>  (2) 
356.89332738911673

>  <E_elec_kJmol>  (2) 
-613520.0207632986

>  <E0_minus_Eelec_plus_ZPE_kJmol>  (2) 
0.0

>  <rxn>  (2) 
rmg_rxn_15719

>  <species_type>  (2) 
p1

>  <species_folder>  (2) 
rmg_rxn_15719_p2_CCCOC

>  <frequencies_cm1_list>  (2) 
[91.63991909539999, 126.96369158147998, 202.90568223536002, 229.57705321824, 300.01172164547995, 354.24717170284, 509.22129640459997, 764.38473692516, 888.9449836446399, 924.72884414716, 957.6835066978399, 1072.9458552940398, 1116.4482072962398, 1154.8689901616399, 1177.001283848, 1188.20133690492, 1229.14230338276, 1271.07211574668, 1307.65941353164, 1369.5858871474, 1403.3027850685999, 1415.972372984, 1467.6807724436, 1468.93743075716, 1475.31686011944, 1481.9915698504797, 1490.39675988216, 1494.07059702836, 1510.75737135596, 2928.3984217727198, 2950.9908034755194, 2962.18398954712, 2998.10518975604, 3014.75762915704, 3020.7181724148, 3057.78615917216, 3085.0343569219203, 3099.33828734348, 3104.91427942332]

>  <E0_kJmol>  (2) 
-613163

>  <H298_kJmol>  (2) 
-613143

$$$$

     RDKit          3D

 23 21  0  0  0  0  0  0  0  0999 V2000
   -1.1966    1.8877   -0.2354 C   0  0  0  0  0  0  0  0  0  1  0  0
   -1.1959    1.4430   -1.5525 O   0  0  0  0  0  0  0  0  0  2  0  0
   -1.5562    0.1153   -1.6151 N   0  0  0  0  0  0  0  0  0  3  0  0
   -1.4943   -0.3322   -2.7956 C   0  0  0  0  0  0  0  0  0  4  0  0
   -0.1518    1.3190    0.3924 H   0  0  0  0  0  0  0  0  0  5  0  0
   -2.0837    1.5817    0.3191 H   0  0  0  0  0  0  0  0  0  6  0  0
   -1.0207    2.9599   -0.2430 H   0  0  0  0  0  0  0  0  0  7  0  0
   -1.7701   -1.3689   -2.9342 H   0  0  0  0  0  0  0  0  0  8  0  0
   -1.1838    0.2797   -3.6393 H   0  0  0  0  0  0  0  0  0  9  0  0
    1.8618    0.4948   -0.2984 C   0  0  0  0  0  0  0  0  0 10  0  0
    0.9206    0.6393    0.8667 C   0  0  0  0  0  3  0  0  0 11  0  0
    0.3288   -0.6311    1.4011 C   0  0  0  0  0  0  0  0  0 12  0  0
    1.3443   -1.4212    1.9861 O   0  0  0  0  0  0  0  0  0 13  0  0
    0.8608   -2.6396    2.4773 C   0  0  0  0  0  0  0  0  0 14  0  0
    2.7688   -0.0404   -0.0030 H   0  0  0  0  0  0  0  0  0 15  0  0
    2.1590    1.4681   -0.6931 H   0  0  0  0  0  0  0  0  0 16  0  0
    1.3925   -0.0696   -1.1080 H   0  0  0  0  0  0  0  0  0 17  0  0
    1.2946    1.2919    1.6565 H   0  0  0  0  0  0  0  0  0 18  0  0
   -0.4441   -0.4078    2.1518 H   0  0  0  0  0  0  0  0  0 19  0  0
   -0.1576   -1.1877    0.5864 H   0  0  0  0  0  0  0  0  0 20  0  0
    0.4153   -3.2481    1.6785 H   0  0  0  0  0  0  0  0  0 21  0  0
    1.7033   -3.1811    2.9061 H   0  0  0  0  0  0  0  0  0 22  0  0
    0.1017   -2.4878    3.2570 H   0  0  0  0  0  0  0  0  0 23  0  0
  1  7  1  0
  1  2  1  0
  1  5  1  0
  1  6  1  0
  2  3  1  0
  3  4  1  0
  4  9  1  0
  4  8  1  0
 10 16  1  0
 10 15  1  0
 10 11  1  0
 10 17  1  0
 11 12  1  0
 11 18  1  0
 12 19  1  0
 12 13  1  0
 12 20  1  0
 13 14  1  0
 14 23  1  0
 14 22  1  0
 14 21  1  0
M  RAD  1  11   2
M  END
>  <rmg_smiles>  (3) 
C[CH]COC.CO[N][CH2]

>  <rmg_adjacency_list>  (3) 
multiplicity 2
1  O u0 p2 c0 {4,S} {6,S}
2  O u0 p2 c0 {3,S} {7,S}
3  N u0 p1 c0 {2,S} {9,S}
4  C u0 p0 c0 {1,S} {8,S} {10,S} {11,S}
5  C u0 p0 c0 {8,S} {12,S} {13,S} {14,S}
6  C u0 p0 c0 {1,S} {18,S} {19,S} {20,S}
7  C u0 p0 c0 {2,S} {15,S} {16,S} {17,S}
8  C u1 p0 c0 {4,S} {5,S} {21,S}
9  C u0 p0 c0 {3,S} {22,S} {23,S}
10 H u0 p0 c0 {4,S}
11 H u0 p0 c0 {4,S}
12 H u0 p0 c0 {5,S}
13 H u0 p0 c0 {5,S}
14 H u0 p0 c0 {5,S}
15 H u0 p0 c0 {7,S}
16 H u0 p0 c0 {7,S}
17 H u0 p0 c0 {7,S}
18 H u0 p0 c0 {6,S}
19 H u0 p0 c0 {6,S}
20 H u0 p0 c0 {6,S}
21 H u0 p0 c0 {8,S}
22 H u0 p0 c0 {9,S}
23 H u0 p0 c0 {9,S}


>  <multiplicity>  (3) 
2

>  <reaction>  (3) 
rmg_rxn_15719

>  <type>  (3) 
ts

>  <role_mapnums>  (3) 
{"*2": 5, "*1": 1, "*3": 11, "*0": 2, "*4": 12}

>  <role_mapidx>  (3) 
{"*2": 4, "*1": 0, "*3": 10, "*0": 1, "*4": 11}

>  <ordered_mapped_smiles>  (3) 
[C:1]([O:2][NH:3][CH:4]([H:8])[H:9])([H:5])([H:6])[H:7].[C:10]([C:11]([C:12]([O:13][C:14]([H:21])([H:22])[H:23])([H:19])[H:20])[H:18])([H:15])([H:16])[H:17]

>  <mol_properties>  (3) 
{"0": {"label": "*1", "atom_type": "Cs"}, "1": {"label": "*0", "atom_type": "O2s"}, "4": {"label": "*2", "atom_type": "H0"}, "10": {"label": "*3", "atom_type": "Cs"}, "11": {"label": "*4", "atom_type": "Cs"}}

>  <level_of_theory>  (3) 
wb97xd/def2tzvp

>  <lot_method>  (3) 
wb97xd

>  <lot_basis>  (3) 
def2tzvp

>  <spin_multiplicity>  (3) 
2.0

>  <optical_isomers>  (3) 
2.0

>  <modes>  (3) 
IdealGasTranslation(mass=(132.102, 'amu')),         NonlinearRotor(             inertia = ([225.23, 720.498, 789.865

>  <frequency_value>  (3) 
-1754.49

>  <frequency_units>  (3) 
cm^-1

>  <frequency_list>  (3) 
unknown

>  <arkane_path>  (3) 
/home/calvin/Dropbox/PersonalFolders/Calvin/ZEUS_Converged/rmg_rxn_15719/output/rxns/TS0/arkane/output.py

>  <path_exists>  (3) 
True

>  <E0_value>  (3) 
-1160270.0

>  <E0_units>  (3) 
kJ/mol

>  <thermo_class>  (3) 
unknown

>  <Cp0_value>  (3) 
unknown

>  <Cp0_units>  (3) 
unknown

>  <CpInf_value>  (3) 
unknown

>  <CpInf_units>  (3) 
unknown

>  <Tmin_value>  (3) 
unknown

>  <Tmin_units>  (3) 
unknown

>  <Tmax_value>  (3) 
unknown

>  <Tmax_units>  (3) 
unknown

>  <polynomials>  (3) 
unknown

>  <H298_value>  (3) 
unknown

>  <H298_units>  (3) 
unknown

>  <S298_value>  (3) 
unknown

>  <S298_units>  (3) 
unknown

>  <Cp_T_value_list>  (3) 
unknown

>  <Cp_T_units>  (3) 
unknown

>  <T_list>  (3) 
unknown

>  <T_units>  (3) 
unknown

>  <yaml_path>  (3) 
unknown

>  <frequencies_cm1>  (3) 
unknown

>  <ZPE_kJmol>  (3) 
unknown

>  <E_elec_kJmol>  (3) 
unknown

>  <E0_minus_Eelec_plus_ZPE_kJmol>  (3) 
unknown

>  <rxn>  (3) 
unknown

>  <species_type>  (3) 
unknown

>  <species_folder>  (3) 
unknown

>  <frequencies_cm1_list>  (3) 
[]

>  <ts_imag_freq_cm1>  (3) 
-1775.8041

>  <ts_freq_out_path>  (3) 
/home/calvin/Dropbox/PersonalFolders/Calvin/ZEUS_Converged/rmg_rxn_15719/output/rxns/TS0/geometry/freq.out

>  <E0_kJmol>  (3) 
-1.16027e+06

>  <H298_kJmol>  (3) 
unknown

$$$$

     RDKit          3D

  8  7  0  0  0  0  0  0  0  0999 V2000
    1.7077   -0.1964   -0.0607 C   0  0  0  0  0  3  0  0  0  1  0  0
    0.4209   -0.4565    0.2808 O   0  0  0  0  0  0  0  0  0  2  0  0
   -0.4607    0.4385   -0.2968 N   0  0  0  0  0  0  0  0  0  3  0  0
   -1.6584    0.1416   -0.0244 C   0  0  0  0  0  0  0  0  0  4  0  0
    2.4163   -0.7685    0.5170 H   0  0  0  0  0  0  0  0  0  5  0  0
    1.9214    0.7645   -0.5045 H   0  0  0  0  0  0  0  0  0  6  0  0
   -2.4185    0.7953   -0.4307 H   0  0  0  0  0  0  0  0  0  7  0  0
   -1.9286   -0.7185    0.5831 H   0  0  0  0  0  0  0  0  0  8  0  0
  1  6  1  0
  1  5  1  0
  1  2  1  0
  2  3  1  0
  3  4  1  0
  4  8  1  0
  4  7  1  0
M  RAD  1   1   2
M  END
>  <rmg_smiles>  (4) 
[CH2]O[N][CH2]

>  <rmg_adjacency_list>  (4) 
multiplicity 2
1 O u0 p2 c0 {2,S} {3,S}
2 N u0 p1 c0 {1,S} {4,S}
3 C u1 p0 c0 {1,S} {5,S} {6,S}
4 C u0 p0 c0 {2,S} {7,S} {8,S}
5 H u0 p0 c0 {3,S}
6 H u0 p0 c0 {3,S}
7 H u0 p0 c0 {4,S}
8 H u0 p0 c0 {4,S}


>  <multiplicity>  (4) 
2

>  <reaction>  (4) 
rmg_rxn_15719

>  <type>  (4) 
r1

>  <role_mapnums>  (4) 
{}

>  <role_mapidx>  (4) 
{}

>  <ordered_mapped_smiles>  (4) 
[C:1]([O:2][NH:3][CH:4]([H:7])[H:8])([H:5])[H:6]

>  <level_of_theory>  (4) 
wb97xd/def2tzvp

>  <lot_method>  (4) 
wb97xd

>  <lot_basis>  (4) 
def2tzvp

>  <spin_multiplicity>  (4) 
2.0

>  <optical_isomers>  (4) 
2.0

>  <modes>  (4) 
IdealGasTranslation(mass=(58.0293, 'amu')),         NonlinearRotor(             inertia = ([10.2741, 95.4529, 105.582

>  <frequency_value>  (4) 
unknown

>  <frequency_units>  (4) 
unknown

>  <frequency_list>  (4) 
unknown

>  <arkane_path>  (4) 
/home/calvin/Dropbox/PersonalFolders/Calvin/ZEUS_Converged/rmg_rxn_15719/output/Species/rmg_rxn_15719_p1_sbr-CH2-sbrON=C/arkane/output.py

>  <path_exists>  (4) 
True

>  <E0_value>  (4) 
-547168.2732446302

>  <E0_units>  (4) 
kJ/mol

>  <thermo_class>  (4) 
NASA

>  <Cp0_value>  (4) 
33.257888

>  <Cp0_units>  (4) 
J/(mol*K)

>  <CpInf_value>  (4) 
182.918384

>  <CpInf_units>  (4) 
J/(mol*K)

>  <Tmin_value>  (4) 
10.0

>  <Tmin_units>  (4) 
K

>  <Tmax_value>  (4) 
3000.0

>  <Tmax_units>  (4) 
K

>  <polynomials>  (4) 
[{"name": "polynomial1", "class": "NASAPolynomial", "Tmin_value": 10.0, "Tmin_units": "K", "Tmax_value": 253.2842427910515, "Tmax_units": "K", "coeffs": [3.956862909385456, 0.0038362890131335746, 0.00011727738047703725, -3.4736244039427427e-07, 3.472729073035136e-10, -65809144.38694886, 9.350338763280796]}, {"name": "polynomial2", "class": "NASAPolynomial", "Tmin_value": 253.2842427910515, "Tmin_units": "K", "Tmax_value": 3000.0, "Tmax_units": "K", "coeffs": [2.5252197328965313, 0.026445761179553072, -1.662161754135038e-05, 5.074735532607581e-09, -5.97403912324656e-13, -65809071.86505469, 14.291183066674913]}]

>  <H298_value>  (4) 
-130772.65860702786

>  <H298_units>  (4) 
kcal/mol

>  <S298_value>  (4) 
71.26914844977757

>  <S298_units>  (4) 
cal/(mol*K)

>  <Cp_T_value_list>  (4) 
[18.0740035969719, 21.369534269323825, 24.223451351766553, 26.683440747612977, 30.598134113509214, 33.438117676478754, 37.554421513360474, 39.68390492467901, 40.91110806828642]

>  <Cp_T_units>  (4) 
cal/(mol*K)

>  <T_list>  (4) 
[300.0, 400.0, 500.0, 600.0, 800.0, 1000.0, 1500.0, 2000.0, 2400.0]

>  <T_units>  (4) 
K

>  <yaml_path>  (4) 
/home/calvin/Dropbox/PersonalFolders/Calvin/ZEUS_Converged/rmg_rxn_15719/output/Species/rmg_rxn_15719_p1_sbr-CH2-sbrON=C/rmg_rxn_15719_p1_sbr-CH2-sbrON=C.yml

>  <frequencies_cm1>  (4) 
[132.13453152744, 273.14807507364, 360.4549264321199, 498.69420790903996, 595.9169860696, 789.3942974605999, 873.74834513148, 993.5360370535599, 1152.01232426852, 1206.54305469464, 1257.0497317232398, 1417.2771001948001, 1437.260027476, 1705.2166616477198, 3090.5210781926, 3134.7719315946797, 3218.94057066192, 3282.16490450316]

>  <ZPE_kJmol>  (4) 
152.0381400376291

>  <E_elec_kJmol>  (4) 
-547320.3113846679

>  <E0_minus_Eelec_plus_ZPE_kJmol>  (4) 
0.0

>  <rxn>  (4) 
rmg_rxn_15719

>  <species_type>  (4) 
p0

>  <species_folder>  (4) 
rmg_rxn_15719_p1_sbr-CH2-sbrON=C

>  <frequencies_cm1_list>  (4) 
[132.13453152744, 273.14807507364, 360.4549264321199, 498.69420790903996, 595.9169860696, 789.3942974605999, 873.74834513148, 993.5360370535599, 1152.01232426852, 1206.54305469464, 1257.0497317232398, 1417.2771001948001, 1437.260027476, 1705.2166616477198, 3090.5210781926, 3134.7719315946797, 3218.94057066192, 3282.16490450316]

>  <E0_kJmol>  (4) 
-547168

>  <H298_kJmol>  (4) 
-547153

$$$$

     RDKit          3D

 14 13  0  0  0  0  0  0  0  0999 V2000
   -2.2399   -0.0166   -0.1883 C   0  0  0  0  0  0  0  0  0  1  0  0
   -1.3469   -1.1905   -0.0279 C   0  0  0  0  0  3  0  0  0  2  0  0
   -1.6654   -2.2692    0.9493 C   0  0  0  0  0  0  0  0  0  3  0  0
   -2.0490   -1.7958    2.2240 O   0  0  0  0  0  0  0  0  0  4  0  0
   -0.9990   -1.1771    2.9198 C   0  0  0  0  0  0  0  0  0  5  0  0
   -2.6700    0.2862    0.7685 H   0  0  0  0  0  0  0  0  0  6  0  0
   -3.0850   -0.2450   -0.8547 H   0  0  0  0  0  0  0  0  0  7  0  0
   -1.7143    0.8346   -0.6240 H   0  0  0  0  0  0  0  0  0  8  0  0
   -0.5797   -1.3809   -0.7686 H   0  0  0  0  0  0  0  0  0  9  0  0
   -2.5244   -2.8609    0.6038 H   0  0  0  0  0  0  0  0  0 10  0  0
   -0.8142   -2.9586    1.0411 H   0  0  0  0  0  0  0  0  0 11  0  0
   -0.6226   -0.2923    2.3915 H   0  0  0  0  0  0  0  0  0 12  0  0
   -1.3883   -0.8732    3.8905 H   0  0  0  0  0  0  0  0  0 13  0  0
   -0.1599   -1.8693    3.0725 H   0  0  0  0  0  0  0  0  0 14  0  0
  1  8  1  0
  1  7  1  0
  1  6  1  0
  1  2  1  0
  2  9  1  0
  2  3  1  0
  3 11  1  0
  3  4  1  0
  3 10  1  0
  4  5  1  0
  5 13  1  0
  5 12  1  0
  5 14  1  0
M  RAD  1   2   2
M  END
>  <rmg_smiles>  (5) 
C[CH]COC

>  <rmg_adjacency_list>  (5) 
multiplicity 2
1  O u0 p2 c0 {2,S} {4,S}
2  C u0 p0 c0 {1,S} {5,S} {6,S} {7,S}
3  C u0 p0 c0 {5,S} {8,S} {9,S} {10,S}
4  C u0 p0 c0 {1,S} {11,S} {12,S} {13,S}
5  C u1 p0 c0 {2,S} {3,S} {14,S}
6  H u0 p0 c0 {2,S}
7  H u0 p0 c0 {2,S}
8  H u0 p0 c0 {3,S}
9  H u0 p0 c0 {3,S}
10 H u0 p0 c0 {3,S}
11 H u0 p0 c0 {4,S}
12 H u0 p0 c0 {4,S}
13 H u0 p0 c0 {4,S}
14 H u0 p0 c0 {5,S}


>  <multiplicity>  (5) 
2

>  <reaction>  (5) 
rmg_rxn_15719

>  <type>  (5) 
r2

>  <role_mapnums>  (5) 
{}

>  <role_mapidx>  (5) 
{}

>  <ordered_mapped_smiles>  (5) 
[C:1]([C:2]([C:3]([O:4][C:5]([H:12])([H:13])[H:14])([H:10])[H:11])[H:9])([H:6])([H:7])[H:8]

>  <level_of_theory>  (5) 
wb97xd/def2tzvp

>  <lot_method>  (5) 
wb97xd

>  <lot_basis>  (5) 
def2tzvp

>  <spin_multiplicity>  (5) 
2.0

>  <optical_isomers>  (5) 
2.0

>  <modes>  (5) 
IdealGasTranslation(mass=(73.0653, 'amu')),         NonlinearRotor(             inertia = ([57.4355, 151.779, 172.567

>  <frequency_value>  (5) 
unknown

>  <frequency_units>  (5) 
unknown

>  <frequency_list>  (5) 
unknown

>  <arkane_path>  (5) 
/home/calvin/Dropbox/PersonalFolders/Calvin/ZEUS_Converged/rmg_rxn_15719/output/Species/rmg_rxn_15719_r2_Csbr-CH-sbrCOC/arkane/output.py

>  <path_exists>  (5) 
True

>  <E0_value>  (5) 
-611442.2731419932

>  <E0_units>  (5) 
kJ/mol

>  <thermo_class>  (5) 
NASA

>  <Cp0_value>  (5) 
33.257888

>  <Cp0_units>  (5) 
J/(mol*K)

>  <CpInf_value>  (5) 
332.57888

>  <CpInf_units>  (5) 
J/(mol*K)

>  <Tmin_value>  (5) 
10.0

>  <Tmin_units>  (5) 
K

>  <Tmax_value>  (5) 
3000.0

>  <Tmax_units>  (5) 
K

>  <polynomials>  (5) 
[{"name": "polynomial1", "class": "NASAPolynomial", "Tmin_value": 10.0, "Tmin_units": "K", "Tmax_value": 425.78067206825415, "Tmax_units": "K", "coeffs": [3.526686835114462, 0.05047286897839576, -0.00015053585357273269, 3.8978281699684034e-07, -3.37280885950768e-10, -73539517.65492678, 11.298647037059743]}, {"name": "polynomial2", "class": "NASAPolynomial", "Tmin_value": 425.78067206825415, "Tmin_units": "K", "Tmax_value": 3000.0, "Tmax_units": "K", "coeffs": [-0.1683064371298676, 0.05053846921183428, -2.8707481835917995e-05, 7.91508524946746e-09, -8.50323069602984e-13, -73538888.94686991, 29.657964609533963]}]

>  <H298_value>  (5) 
-146133.09231844658

>  <H298_units>  (5) 
kcal/mol

>  <S298_value>  (5) 
84.49745680464746

>  <S298_units>  (5) 
cal/(mol*K)

>  <Cp_T_value_list>  (5) 
[25.65976735872694, 31.679663426059193, 37.47930714162204, 42.56504550506925, 50.86038806442172, 57.08736172122742, 66.48440879370821, 71.13050176223182, 73.47772368065162]

>  <Cp_T_units>  (5) 
cal/(mol*K)

>  <T_list>  (5) 
[300.0, 400.0, 500.0, 600.0, 800.0, 1000.0, 1500.0, 2000.0, 2400.0]

>  <T_units>  (5) 
K

>  <yaml_path>  (5) 
/home/calvin/Dropbox/PersonalFolders/Calvin/ZEUS_Converged/rmg_rxn_15719/output/Species/rmg_rxn_15719_r2_Csbr-CH-sbrCOC/rmg_rxn_15719_r2_Csbr-CH-sbrCOC.yml

>  <frequencies_cm1>  (5) 
[87.039038931, 91.68112100731999, 144.76978451623998, 196.47818397583998, 264.26219606955993, 388.8567777156399, 394.92719273852003, 605.0706775011599, 864.6907914944, 914.0369480039199, 946.41478378772, 986.9780660729599, 1093.6360820631999, 1124.8808652692, 1159.38059951688, 1172.75748692024, 1216.486449438, 1302.0628204958398, 1364.57985484912, 1374.92153474104, 1402.0049248431199, 1457.1536839480398, 1459.9622809439197, 1468.6558843590399, 1469.9056756872799, 1474.6370285727598, 1494.57188695672, 2946.78820845968, 2949.2740571455197, 2957.55564144144, 2983.6433186721197, 3008.74901700204, 3043.70883926616, 3091.60606187316, 3101.79666808804, 3157.0827668993597]

>  <ZPE_kJmol>  (5) 
317.97352719118686

>  <E_elec_kJmol>  (5) 
-611760.2466691844

>  <E0_minus_Eelec_plus_ZPE_kJmol>  (5) 
0.0

>  <rxn>  (5) 
rmg_rxn_15719

>  <species_type>  (5) 
r1

>  <species_folder>  (5) 
rmg_rxn_15719_r2_Csbr-CH-sbrCOC

>  <frequencies_cm1_list>  (5) 
[87.039038931, 91.68112100731999, 144.76978451623998, 196.47818397583998, 264.26219606955993, 388.8567777156399, 394.92719273852003, 605.0706775011599, 864.6907914944, 914.0369480039199, 946.41478378772, 986.9780660729599, 1093.6360820631999, 1124.8808652692, 1159.38059951688, 1172.75748692024, 1216.486449438, 1302.0628204958398, 1364.57985484912, 1374.92153474104, 1402.0049248431199, 1457.1536839480398, 1459.9622809439197, 1468.6558843590399, 1469.9056756872799, 1474.6370285727598, 1494.57188695672, 2946.78820845968, 2949.2740571455197, 2957.55564144144, 2983.6433186721197, 3008.74901700204, 3043.70883926616, 3091.60606187316, 3101.79666808804, 3157.0827668993597]

>  <E0_kJmol>  (5) 
-611442

>  <H298_kJmol>  (5) 
-611421

$$$$
