
     RDKit          3D

 10  9  0  0  0  0  0  0  0  0999 V2000
   -0.1427    1.5443    0.3149 C   0  0  0  0  0  0  0  0  0  1  0  0
   -0.3442    0.1772    0.9033 C   0  0  0  0  0  0  0  0  0  2  0  0
    0.0087   -0.9517   -0.0262 C   0  0  0  0  0  0  0  0  0  3  0  0
    0.4800   -0.8162   -1.1208 O   0  0  0  0  0  0  0  0  0  4  0  0
   -0.9018    1.6396   -0.4578 H   0  0  0  0  0  0  0  0  0  5  0  0
   -0.3543    2.3603    1.0018 H   0  0  0  0  0  0  0  0  0  6  0  0
    0.7971    1.6746   -0.2161 H   0  0  0  0  0  0  0  0  0  7  0  0
   -1.3852    0.0290    1.2126 H   0  0  0  0  0  0  0  0  0  8  0  0
    0.2511    0.0316    1.8152 H   0  0  0  0  0  0  0  0  0  9  0  0
   -0.1923   -1.9655    0.3779 H   0  0  0  0  0  0  0  0  0 10  0  0
  1  5  1  0
  1  7  1  0
  1  6  1  0
  1  2  1  0
  2  9  1  0
  2  8  1  0
  2  3  1  0
  3  4  1  0
  3 10  1  0
M  END
>  <rmg_smiles>  (1) 
CC[CH]O

>  <rmg_adjacency_list>  (1) 
1  O u0 p2 c0 {4,S}
2  C u0 p0 c0 {3,S} {4,S} {5,S} {6,S}
3  C u0 p0 c0 {2,S} {7,S} {8,S} {9,S}
4  C u0 p0 c0 {1,S} {2,S} {10,S}
5  H u0 p0 c0 {2,S}
6  H u0 p0 c0 {2,S}
7  H u0 p0 c0 {3,S}
8  H u0 p0 c0 {3,S}
9  H u0 p0 c0 {3,S}
10 H u0 p0 c0 {4,S}


>  <multiplicity>  (1) 
1

>  <reaction>  (1) 
rmg_rxn_15494

>  <type>  (1) 
r1h

>  <role_mapnums>  (1) 
{"r1h_a": 1, "r1h_h": 5}

>  <role_mapidx>  (1) 
{"r1h_a": 0, "r1h_h": 4}

>  <ordered_mapped_smiles>  (1) 
[C:1]([C:2]([CH:3]([OH:4])[H:10])([H:8])[H:9])([H:5])([H:6])[H:7]

>  <mol_properties>  (1) 
{"0": {"label": "donator", "atom_type": "Cs"}, "4": {"label": "d_hydrogen", "atom_type": "H0"}}

>  <level_of_theory>  (1) 
wb97xd/def2tzvp

>  <lot_method>  (1) 
wb97xd

>  <lot_basis>  (1) 
def2tzvp

>  <spin_multiplicity>  (1) 
1.0

>  <optical_isomers>  (1) 
1.0

>  <modes>  (1) 
IdealGasTranslation(mass=(58.0419, 'amu')),         NonlinearRotor(             inertia = ([29.7984, 86.0094, 109.654

>  <frequency_value>  (1) 
unknown

>  <frequency_units>  (1) 
unknown

>  <frequency_list>  (1) 
unknown

>  <arkane_path>  (1) 
/home/calvin/Dropbox/PersonalFolders/Calvin/ZEUS_Converged/rmg_rxn_15494/output/Species/rmg_rxn_15494_r2_CCC=O/arkane/output.py

>  <path_exists>  (1) 
True

>  <E0_value>  (1) 
-506922.5977502898

>  <E0_units>  (1) 
kJ/mol

>  <thermo_class>  (1) 
NASA

>  <Cp0_value>  (1) 
33.257888

>  <Cp0_units>  (1) 
J/(mol*K)

>  <CpInf_value>  (1) 
232.805216

>  <CpInf_units>  (1) 
J/(mol*K)

>  <Tmin_value>  (1) 
10.0

>  <Tmin_units>  (1) 
K

>  <Tmax_value>  (1) 
3000.0

>  <Tmax_units>  (1) 
K

>  <polynomials>  (1) 
[{"name": "polynomial1", "class": "NASAPolynomial", "Tmin_value": 10.0, "Tmin_units": "K", "Tmax_value": 995.1898195947089, "Tmax_units": "K", "coeffs": [3.919274922073676, 0.01190286655933794, 2.8741377441363064e-05, -3.719967863021152e-08, 1.2820649460513628e-11, -60968708.5460655, 8.2981947734565]}, {"name": "polynomial2", "class": "NASAPolynomial", "Tmin_value": 995.1898195947089, "Tmin_units": "K", "Tmax_value": 3000.0, "Tmax_units": "K", "coeffs": [2.274351872072026, 0.029876855889912467, -1.547604229307482e-05, 3.893682143296549e-09, -3.8435914306663724e-13, -60968943.81624351, 13.399106417117805]}]

>  <H298_value>  (1) 
-121153.67271622556

>  <H298_units>  (1) 
kcal/mol

>  <S298_value>  (1) 
69.84440643822009

>  <S298_units>  (1) 
cal/(mol*K)

>  <Cp_T_value_list>  (1) 
[18.235232419838997, 22.3093164128926, 26.245798003241582, 29.876291133548982, 35.851495120144214, 40.11074670434607, 46.62761386139834, 49.92579185294882, 51.490409167619944]

>  <Cp_T_units>  (1) 
cal/(mol*K)

>  <T_list>  (1) 
[300.0, 400.0, 500.0, 600.0, 800.0, 1000.0, 1500.0, 2000.0, 2400.0]

>  <T_units>  (1) 
K

>  <yaml_path>  (1) 
/home/calvin/Dropbox/PersonalFolders/Calvin/ZEUS_Converged/rmg_rxn_15494/output/Species/rmg_rxn_15494_r2_CCC=O/rmg_rxn_15494_r2_CCC=O.yml

>  <frequencies_cm1>  (1) 
[140.17577133716, 231.1427258712, 255.91194192044003, 664.53877037236, 671.2684159859599, 853.7722848356, 903.24204708088, 1002.8064672355599, 1110.1649157284398, 1142.5152835709598, 1274.43007156816, 1362.5060252824799, 1401.2701574138798, 1414.07021805036, 1440.4257077085201, 1481.0027239643998, 1486.2284997929198, 1826.3777506338001, 2861.6925263742396, 3000.3781618969597, 3029.63151936016, 3031.0529853214, 3106.8301683276, 3108.0730926705196]

>  <ZPE_kJmol>  (1) 
220.11000257512663

>  <E_elec_kJmol>  (1) 
-507142.7077528649

>  <E0_minus_Eelec_plus_ZPE_kJmol>  (1) 
0.0

>  <rxn>  (1) 
rmg_rxn_15494

>  <species_type>  (1) 
r1

>  <species_folder>  (1) 
rmg_rxn_15494_r2_CCC=O

>  <frequencies_cm1_list>  (1) 
[140.17577133716, 231.1427258712, 255.91194192044003, 664.53877037236, 671.2684159859599, 853.7722848356, 903.24204708088, 1002.8064672355599, 1110.1649157284398, 1142.5152835709598, 1274.43007156816, 1362.5060252824799, 1401.2701574138798, 1414.07021805036, 1440.4257077085201, 1481.0027239643998, 1486.2284997929198, 1826.3777506338001, 2861.6925263742396, 3000.3781618969597, 3029.63151936016, 3031.0529853214, 3106.8301683276, 3108.0730926705196]

>  <E0_kJmol>  (1) 
-506923

>  <H298_kJmol>  (1) 
-506907

$$$$

     RDKit          3D

  6  5  0  0  0  0  0  0  0  0999 V2000
   -0.9942   -0.2802   -0.3851 O   0  0  0  0  0  0  0  0  0  1  0  0
    0.1082   -0.1464    0.4670 N   0  0  0  0  0  0  0  0  0  2  0  0
    1.0593    0.4852   -0.0277 C   0  0  0  0  0  0  0  0  0  3  0  0
   -1.6155   -0.7837    0.1457 H   0  0  0  0  0  0  0  0  0  4  0  0
    1.1286    0.9214   -1.0233 H   0  0  0  0  0  0  0  0  0  5  0  0
    1.9138    0.5490    0.6446 H   0  0  0  0  0  0  0  0  0  6  0  0
  1  4  1  0
  1  2  1  0
  2  3  1  0
  3  6  1  0
  3  5  1  0
M  END
>  <rmg_smiles>  (2) 
[CH2][N]O

>  <rmg_adjacency_list>  (2) 
1 O u0 p2 c0 {2,S} {6,S}
2 N u0 p1 c0 {1,S} {3,S}
3 C u0 p0 c0 {2,S} {4,S} {5,S}
4 H u0 p0 c0 {3,S}
5 H u0 p0 c0 {3,S}
6 H u0 p0 c0 {1,S}


>  <multiplicity>  (2) 
1

>  <reaction>  (2) 
rmg_rxn_15494

>  <type>  (2) 
r2h

>  <role_mapnums>  (2) 
{"r2h_a": 3, "r2h_h": 6}

>  <role_mapidx>  (2) 
{"r2h_a": 2, "r2h_h": 5}

>  <ordered_mapped_smiles>  (2) 
[O:1]([NH:2][CH:3]([H:5])[H:6])[H:4]

>  <mol_properties>  (2) 
{"2": {"label": "acceptor", "atom_type": "Cs"}, "5": {"label": "a_hydrogen", "atom_type": "H0"}}

>  <level_of_theory>  (2) 
wb97xd/def2tzvp

>  <lot_method>  (2) 
wb97xd

>  <lot_basis>  (2) 
def2tzvp

>  <spin_multiplicity>  (2) 
1.0

>  <optical_isomers>  (2) 
1.0

>  <modes>  (2) 
IdealGasTranslation(mass=(45.0215, 'amu')),         NonlinearRotor(             inertia = ([7.10552, 42.1368, 49.2423

>  <frequency_value>  (2) 
unknown

>  <frequency_units>  (2) 
unknown

>  <frequency_list>  (2) 
unknown

>  <arkane_path>  (2) 
/home/calvin/Dropbox/PersonalFolders/Calvin/ZEUS_Converged/rmg_rxn_15494/output/Species/rmg_rxn_15494_p1_ON=C/arkane/output.py

>  <path_exists>  (2) 
True

>  <E0_value>  (2) 
-445765.04652910994

>  <E0_units>  (2) 
kJ/mol

>  <thermo_class>  (2) 
NASA

>  <Cp0_value>  (2) 
33.257888

>  <Cp0_units>  (2) 
J/(mol*K)

>  <CpInf_value>  (2) 
133.031552

>  <CpInf_units>  (2) 
J/(mol*K)

>  <Tmin_value>  (2) 
10.0

>  <Tmin_units>  (2) 
K

>  <Tmax_value>  (2) 
3000.0

>  <Tmax_units>  (2) 
K

>  <polynomials>  (2) 
[{"name": "polynomial1", "class": "NASAPolynomial", "Tmin_value": 10.0, "Tmin_units": "K", "Tmax_value": 555.0008285415723, "Tmax_units": "K", "coeffs": [4.0729558966761115, -0.006525504673073184, 8.044401869233928e-05, -1.3643340673050255e-07, 7.605604608176978e-11, -53613151.050707266, 6.598063650688069]}, {"name": "polynomial2", "class": "NASAPolynomial", "Tmin_value": 555.0008285415723, "Tmin_units": "K", "Tmax_value": 3000.0, "Tmax_units": "K", "coeffs": [1.9629419554542669, 0.01794293278685335, -1.0716899102514014e-05, 3.1351804200574135e-09, -3.5588210478784073e-13, -53613059.472560614, 14.250328412630774]}]

>  <H298_value>  (2) 
-106537.6194767193

>  <H298_units>  (2) 
kcal/mol

>  <S298_value>  (2) 
60.36296822828259

>  <S298_units>  (2) 
cal/(mol*K)

>  <Cp_T_value_list>  (2) 
[12.494795700177992, 15.001608210431446, 17.130783734283074, 18.881829280437152, 21.69615330289245, 23.7834318087242, 26.9145239767162, 28.553257692891545, 29.47039525924992]

>  <Cp_T_units>  (2) 
cal/(mol*K)

>  <T_list>  (2) 
[300.0, 400.0, 500.0, 600.0, 800.0, 1000.0, 1500.0, 2000.0, 2400.0]

>  <T_units>  (2) 
K

>  <yaml_path>  (2) 
/home/calvin/Dropbox/PersonalFolders/Calvin/ZEUS_Converged/rmg_rxn_15494/output/Species/rmg_rxn_15494_p1_ON=C/rmg_rxn_15494_p1_ON=C.yml

>  <frequencies_cm1>  (2) 
[438.20980121048, 539.7244451960399, 801.7205361099999, 965.59427378648, 986.4836431299199, 1183.2914424011199, 1353.5034075279598, 1444.4016922088, 1728.97643085492, 3083.6403589019596, 3214.03754314344, 3841.1169085952]

>  <ZPE_kJmol>  (2) 
117.11863122037906

>  <E_elec_kJmol>  (2) 
-445882.1651603303

>  <E0_minus_Eelec_plus_ZPE_kJmol>  (2) 
0.0

>  <rxn>  (2) 
rmg_rxn_15494

>  <species_type>  (2) 
p0

>  <species_folder>  (2) 
rmg_rxn_15494_p1_ON=C

>  <frequencies_cm1_list>  (2) 
[438.20980121048, 539.7244451960399, 801.7205361099999, 965.59427378648, 986.4836431299199, 1183.2914424011199, 1353.5034075279598, 1444.4016922088, 1728.97643085492, 3083.6403589019596, 3214.03754314344, 3841.1169085952]

>  <E0_kJmol>  (2) 
-445765

>  <H298_kJmol>  (2) 
-445753

$$$$

     RDKit          3D

 15 13  0  0  0  0  0  0  0  0999 V2000
   -2.6953    0.3920   -1.1505 O   0  0  0  0  0  0  0  0  0  1  0  0
   -1.5929    0.5257   -0.2984 N   0  0  0  0  0  0  0  0  0  2  0  0
   -0.6418    1.1573   -0.7931 C   0  0  0  0  0  3  0  0  0  3  0  0
   -3.3166   -0.1115   -0.6197 H   0  0  0  0  0  0  0  0  0  4  0  0
   -0.5725    1.5936   -1.7886 H   0  0  0  0  0  0  0  0  0  5  0  0
    1.3454    1.1263    0.9776 C   0  0  0  0  0  0  0  0  0  6  0  0
    1.1440   -0.2408    1.5660 C   0  0  0  0  0  0  0  0  0  7  0  0
    1.4968   -1.3697    0.6365 C   0  0  0  0  0  0  0  0  0  8  0  0
    1.9682   -1.2342   -0.4581 O   0  0  0  0  0  0  0  0  0  9  0  0
    0.4491    1.2389    0.0652 H   0  0  0  0  0  0  0  0  0 10  0  0
    1.1339    1.9423    1.6645 H   0  0  0  0  0  0  0  0  0 11  0  0
    2.2853    1.2566    0.4466 H   0  0  0  0  0  0  0  0  0 12  0  0
    0.1030   -0.3890    1.8752 H   0  0  0  0  0  0  0  0  0 13  0  0
    1.7392   -0.3864    2.4779 H   0  0  0  0  0  0  0  0  0 14  0  0
    1.2958   -2.3835    1.0406 H   0  0  0  0  0  0  0  0  0 15  0  0
  1  4  1  0
  1  2  1  0
  2  3  1  0
  3  5  1  0
  6  7  1  0
  6 11  1  0
  6 12  1  0
  6 10  1  0
  7 13  1  0
  7 14  1  0
  7  8  1  0
  8  9  1  0
  8 15  1  0
M  RAD  1   3   2
M  END
>  <rmg_smiles>  (3) 
CC[CH][O].[CH][N]O

>  <rmg_adjacency_list>  (3) 
multiplicity 2
1  O u0 p2 c0 {3,S} {14,S}
2  O u0 p2 c0 {6,S}
3  N u0 p1 c0 {1,S} {7,S}
4  C u0 p0 c0 {5,S} {6,S} {8,S} {9,S}
5  C u0 p0 c0 {4,S} {10,S} {11,S} {12,S}
6  C u0 p0 c0 {2,S} {4,S} {13,S}
7  C u1 p1 c0 {3,S} {15,S}
8  H u0 p0 c0 {4,S}
9  H u0 p0 c0 {4,S}
10 H u0 p0 c0 {5,S}
11 H u0 p0 c0 {5,S}
12 H u0 p0 c0 {5,S}
13 H u0 p0 c0 {6,S}
14 H u0 p0 c0 {1,S}
15 H u0 p0 c0 {7,S}


>  <multiplicity>  (3) 
2

>  <reaction>  (3) 
rmg_rxn_15494

>  <type>  (3) 
ts

>  <role_mapnums>  (3) 
{"*2": 10, "*1": 6, "*3": 3, "*0": 7, "*4": 2}

>  <role_mapidx>  (3) 
{"*2": 9, "*1": 5, "*3": 2, "*0": 6, "*4": 1}

>  <ordered_mapped_smiles>  (3) 
[O:1]([NH:2][CH:3][H:5])[H:4].[C:6]([C:7]([CH:8]([OH:9])[H:15])([H:13])[H:14])([H:10])([H:11])[H:12]

>  <mol_properties>  (3) 
{"1": {"label": "*4", "atom_type": "N3s"}, "2": {"label": "*3", "atom_type": "C2s"}, "5": {"label": "*1", "atom_type": "Cs"}, "6": {"label": "*0", "atom_type": "Cs"}, "9": {"label": "*2", "atom_type": "H0"}}

>  <level_of_theory>  (3) 
wb97xd/def2tzvp

>  <lot_method>  (3) 
wb97xd

>  <lot_basis>  (3) 
def2tzvp

>  <spin_multiplicity>  (3) 
2.0

>  <optical_isomers>  (3) 
2.0

>  <modes>  (3) 
IdealGasTranslation(mass=(102.055, 'amu')),         NonlinearRotor(             inertia = ([124.715, 418.322, 460.746

>  <frequency_value>  (3) 
-1597.93

>  <frequency_units>  (3) 
cm^-1

>  <frequency_list>  (3) 
unknown

>  <arkane_path>  (3) 
/home/calvin/Dropbox/PersonalFolders/Calvin/ZEUS_Converged/rmg_rxn_15494/output/rxns/TS0/arkane/output.py

>  <path_exists>  (3) 
True

>  <E0_value>  (3) 
-950892.0

>  <E0_units>  (3) 
kJ/mol

>  <thermo_class>  (3) 
unknown

>  <Cp0_value>  (3) 
unknown

>  <Cp0_units>  (3) 
unknown

>  <CpInf_value>  (3) 
unknown

>  <CpInf_units>  (3) 
unknown

>  <Tmin_value>  (3) 
unknown

>  <Tmin_units>  (3) 
unknown

>  <Tmax_value>  (3) 
unknown

>  <Tmax_units>  (3) 
unknown

>  <polynomials>  (3) 
unknown

>  <H298_value>  (3) 
unknown

>  <H298_units>  (3) 
unknown

>  <S298_value>  (3) 
unknown

>  <S298_units>  (3) 
unknown

>  <Cp_T_value_list>  (3) 
unknown

>  <Cp_T_units>  (3) 
unknown

>  <T_list>  (3) 
unknown

>  <T_units>  (3) 
unknown

>  <yaml_path>  (3) 
unknown

>  <frequencies_cm1>  (3) 
unknown

>  <ZPE_kJmol>  (3) 
unknown

>  <E_elec_kJmol>  (3) 
unknown

>  <E0_minus_Eelec_plus_ZPE_kJmol>  (3) 
unknown

>  <rxn>  (3) 
unknown

>  <species_type>  (3) 
unknown

>  <species_folder>  (3) 
unknown

>  <frequencies_cm1_list>  (3) 
[]

>  <ts_imag_freq_cm1>  (3) 
-1617.3403

>  <ts_freq_out_path>  (3) 
/home/calvin/Dropbox/PersonalFolders/Calvin/ZEUS_Converged/rmg_rxn_15494/output/rxns/TS0/geometry/freq.out

>  <E0_kJmol>  (3) 
-950892

>  <H298_kJmol>  (3) 
unknown

$$$$

     RDKit          3D

  9  8  0  0  0  0  0  0  0  0999 V2000
    1.2172    0.4579   -0.1964 C   0  0  0  0  0  3  0  0  0  1  0  0
    0.1414   -0.5234    0.0523 C   0  0  0  0  0  0  0  0  0  2  0  0
    0.5861   -1.9610    0.1321 C   0  0  0  0  0  0  0  0  0  3  0  0
    1.7162   -2.3406    0.0105 O   0  0  0  0  0  0  0  0  0  4  0  0
    0.9857    1.5106   -0.2681 H   0  0  0  0  0  0  0  0  0  5  0  0
    2.2392    0.1268   -0.3076 H   0  0  0  0  0  0  0  0  0  6  0  0
   -0.6447   -0.4809   -0.7179 H   0  0  0  0  0  0  0  0  0  7  0  0
   -0.4048   -0.3122    0.9851 H   0  0  0  0  0  0  0  0  0  8  0  0
   -0.2343   -2.6846    0.3193 H   0  0  0  0  0  0  0  0  0  9  0  0
  1  5  1  0
  1  6  1  0
  1  2  1  0
  2  7  1  0
  2  8  1  0
  2  3  1  0
  3  4  1  0
  3  9  1  0
M  RAD  1   1   2
M  END
>  <rmg_smiles>  (4) 
[CH2]C[CH]O

>  <rmg_adjacency_list>  (4) 
multiplicity 2
1 O u0 p2 c0 {4,S}
2 C u0 p0 c0 {3,S} {4,S} {5,S} {6,S}
3 C u1 p0 c0 {2,S} {7,S} {8,S}
4 C u0 p0 c0 {1,S} {2,S} {9,S}
5 H u0 p0 c0 {2,S}
6 H u0 p0 c0 {2,S}
7 H u0 p0 c0 {3,S}
8 H u0 p0 c0 {3,S}
9 H u0 p0 c0 {4,S}


>  <multiplicity>  (4) 
2

>  <reaction>  (4) 
rmg_rxn_15494

>  <type>  (4) 
r1

>  <role_mapnums>  (4) 
{}

>  <role_mapidx>  (4) 
{}

>  <ordered_mapped_smiles>  (4) 
[C:1]([C:2]([CH:3]([OH:4])[H:9])([H:7])[H:8])([H:5])[H:6]

>  <level_of_theory>  (4) 
wb97xd/def2tzvp

>  <lot_method>  (4) 
wb97xd

>  <lot_basis>  (4) 
def2tzvp

>  <spin_multiplicity>  (4) 
2.0

>  <optical_isomers>  (4) 
1.0

>  <modes>  (4) 
IdealGasTranslation(mass=(57.034, 'amu')),         NonlinearRotor(             inertia = ([27.1484, 82.5197, 106.659

>  <frequency_value>  (4) 
unknown

>  <frequency_units>  (4) 
unknown

>  <frequency_list>  (4) 
unknown

>  <arkane_path>  (4) 
/home/calvin/Dropbox/PersonalFolders/Calvin/ZEUS_Converged/rmg_rxn_15494/output/Species/rmg_rxn_15494_p2_sbr-CH2-sbrCC=O/arkane/output.py

>  <path_exists>  (4) 
True

>  <E0_value>  (4) 
-505189.5183846401

>  <E0_units>  (4) 
kJ/mol

>  <thermo_class>  (4) 
NASA

>  <Cp0_value>  (4) 
33.257888

>  <Cp0_units>  (4) 
J/(mol*K)

>  <CpInf_value>  (4) 
207.8618

>  <CpInf_units>  (4) 
J/(mol*K)

>  <Tmin_value>  (4) 
10.0

>  <Tmin_units>  (4) 
K

>  <Tmax_value>  (4) 
3000.0

>  <Tmax_units>  (4) 
K

>  <polynomials>  (4) 
[{"name": "polynomial1", "class": "NASAPolynomial", "Tmin_value": 10.0, "Tmin_units": "K", "Tmax_value": 641.6801753299989, "Tmax_units": "K", "coeffs": [3.81791422289992, 0.015508087947089794, 2.4329614993612195e-05, -4.8104519515951394e-08, 2.402001343591523e-11, -60760262.01292775, 9.120558704198908]}, {"name": "polynomial2", "class": "NASAPolynomial", "Tmin_value": 641.6801753299989, "Tmin_units": "K", "Tmax_value": 3000.0, "Tmax_units": "K", "coeffs": [2.3456271861353977, 0.0288735887207961, -1.67032130862983e-05, 4.696744084320347e-09, -5.139823954594837e-13, -60760159.28251719, 14.898482787711716]}]

>  <H298_value>  (4) 
-120739.29792424684

>  <H298_units>  (4) 
kcal/mol

>  <S298_value>  (4) 
71.92949013831407

>  <S298_units>  (4) 
cal/(mol*K)

>  <Cp_T_value_list>  (4) 
[18.989240648898214, 22.7537348085077, 26.116956516905596, 29.020857540658454, 33.68046263258883, 37.158306393112355, 42.37371340324954, 44.97085398847819, 46.31546548649367]

>  <Cp_T_units>  (4) 
cal/(mol*K)

>  <T_list>  (4) 
[300.0, 400.0, 500.0, 600.0, 800.0, 1000.0, 1500.0, 2000.0, 2400.0]

>  <T_units>  (4) 
K

>  <yaml_path>  (4) 
/home/calvin/Dropbox/PersonalFolders/Calvin/ZEUS_Converged/rmg_rxn_15494/output/Species/rmg_rxn_15494_p2_sbr-CH2-sbrCC=O/rmg_rxn_15494_p2_sbr-CH2-sbrCC=O.yml

>  <frequencies_cm1>  (4) 
[147.83245996896, 174.92958404168002, 274.93349125684, 463.32236652572, 662.39627095252, 679.46072947272, 861.1817619958799, 992.4785213142799, 1002.89573804472, 1115.13661310012, 1197.03228002644, 1358.31716423728, 1401.0092119717199, 1407.8212614091601, 1442.84288654116, 1829.2275495416, 2872.4942942826, 2948.03799978792, 2960.00028821536, 3143.3007273621197, 3254.73129814976]

>  <ZPE_kJmol>  (4) 
180.57265921795

>  <E_elec_kJmol>  (4) 
-505370.091043858

>  <E0_minus_Eelec_plus_ZPE_kJmol>  (4) 
0.0

>  <rxn>  (4) 
rmg_rxn_15494

>  <species_type>  (4) 
p1

>  <species_folder>  (4) 
rmg_rxn_15494_p2_sbr-CH2-sbrCC=O

>  <frequencies_cm1_list>  (4) 
[147.83245996896, 174.92958404168002, 274.93349125684, 463.32236652572, 662.39627095252, 679.46072947272, 861.1817619958799, 992.4785213142799, 1002.89573804472, 1115.13661310012, 1197.03228002644, 1358.31716423728, 1401.0092119717199, 1407.8212614091601, 1442.84288654116, 1829.2275495416, 2872.4942942826, 2948.03799978792, 2960.00028821536, 3143.3007273621197, 3254.73129814976]

>  <E0_kJmol>  (4) 
-505190

>  <H298_kJmol>  (4) 
-505173

$$$$

     RDKit          3D

  5  4  0  0  0  0  0  0  0  0999 V2000
    0.8934    0.3742    0.4948 O   0  0  0  0  0  0  0  0  0  1  0  0
    0.1582   -0.1610   -0.5904 N   0  0  0  0  0  0  0  0  0  2  0  0
   -1.0297   -0.3739   -0.4689 C   0  0  0  0  0  3  0  0  0  3  0  0
    1.7804    0.4382    0.1306 H   0  0  0  0  0  0  0  0  0  4  0  0
   -1.8023   -0.2775    0.2859 H   0  0  0  0  0  0  0  0  0  5  0  0
  1  4  1  0
  1  2  1  0
  2  3  1  0
  3  5  1  0
M  RAD  1   3   2
M  END
>  <rmg_smiles>  (5) 
[CH][N]O

>  <rmg_adjacency_list>  (5) 
multiplicity 2
1 O u0 p2 c0 {2,S} {4,S}
2 N u0 p1 c0 {1,S} {3,S}
3 C u1 p1 c0 {2,S} {5,S}
4 H u0 p0 c0 {1,S}
5 H u0 p0 c0 {3,S}


>  <multiplicity>  (5) 
2

>  <reaction>  (5) 
rmg_rxn_15494

>  <type>  (5) 
r2

>  <role_mapnums>  (5) 
{}

>  <role_mapidx>  (5) 
{}

>  <ordered_mapped_smiles>  (5) 
[O:1]([NH:2][CH:3][H:5])[H:4]

>  <level_of_theory>  (5) 
wb97xd/def2tzvp

>  <lot_method>  (5) 
wb97xd

>  <lot_basis>  (5) 
def2tzvp

>  <spin_multiplicity>  (5) 
2.0

>  <optical_isomers>  (5) 
1.0

>  <modes>  (5) 
IdealGasTranslation(mass=(44.0136, 'amu')),         NonlinearRotor(inertia=([5.8161, 41.482, 47.298

>  <frequency_value>  (5) 
unknown

>  <frequency_units>  (5) 
unknown

>  <frequency_list>  (5) 
unknown

>  <arkane_path>  (5) 
/home/calvin/Dropbox/PersonalFolders/Calvin/ZEUS_Converged/rmg_rxn_15494/output/Species/rmg_rxn_15494_r1_ON=sbr-CH-sbr/arkane/output.py

>  <path_exists>  (5) 
True

>  <E0_value>  (5) 
-444005.3444875403

>  <E0_units>  (5) 
kJ/mol

>  <thermo_class>  (5) 
NASA

>  <Cp0_value>  (5) 
33.257888

>  <Cp0_units>  (5) 
J/(mol*K)

>  <CpInf_value>  (5) 
108.088136

>  <CpInf_units>  (5) 
J/(mol*K)

>  <Tmin_value>  (5) 
10.0

>  <Tmin_units>  (5) 
K

>  <Tmax_value>  (5) 
3000.0

>  <Tmax_units>  (5) 
K

>  <polynomials>  (5) 
[{"name": "polynomial1", "class": "NASAPolynomial", "Tmin_value": 10.0, "Tmin_units": "K", "Tmax_value": 582.3897944984312, "Tmax_units": "K", "coeffs": [3.9652725251487997, 0.0020023225588121428, 4.0599056262928875e-05, -7.75899274364692e-08, 4.4513181050887496e-11, -53401506.385814846, 6.827044892789236]}, {"name": "polynomial2", "class": "NASAPolynomial", "Tmin_value": 582.3897944984312, "Tmin_units": "K", "Tmax_value": 3000.0, "Tmax_units": "K", "coeffs": [3.5772944330084147, 0.012861032030441071, -8.472942585347425e-06, 2.741567682664952e-09, -3.4073253039207466e-13, -53401600.15572128, 7.296045717872725]}]

>  <H298_value>  (5) 
-106116.8465159924

>  <H298_units>  (5) 
kcal/mol

>  <S298_value>  (5) 
62.04111940413777

>  <S298_units>  (5) 
cal/(mol*K)

>  <Cp_T_value_list>  (5) 
[12.888053758950505, 14.776534941782554, 16.29416082392464, 17.47087173516364, 19.290917222749155, 20.599817847495114, 22.5201252902908, 23.62472390428687, 24.312211768096834]

>  <Cp_T_units>  (5) 
cal/(mol*K)

>  <T_list>  (5) 
[300.0, 400.0, 500.0, 600.0, 800.0, 1000.0, 1500.0, 2000.0, 2400.0]

>  <T_units>  (5) 
K

>  <yaml_path>  (5) 
/home/calvin/Dropbox/PersonalFolders/Calvin/ZEUS_Converged/rmg_rxn_15494/output/Species/rmg_rxn_15494_r1_ON=sbr-CH-sbr/rmg_rxn_15494_r1_ON=sbr-CH-sbr.yml

>  <frequencies_cm1>  (5) 
[408.41395190699996, 412.06718809724, 739.15543285948, 761.7272136063199, 904.39570061464, 1348.7789216278, 1755.3113195571198, 3153.319658944, 3818.4558570392]

>  <ZPE_kJmol>  (5) 
79.5614101222066

>  <E_elec_kJmol>  (5) 
-444084.9058976625

>  <E0_minus_Eelec_plus_ZPE_kJmol>  (5) 
0.0

>  <rxn>  (5) 
rmg_rxn_15494

>  <species_type>  (5) 
r0

>  <species_folder>  (5) 
rmg_rxn_15494_r1_ON=sbr-CH-sbr

>  <frequencies_cm1_list>  (5) 
[408.41395190699996, 412.06718809724, 739.15543285948, 761.7272136063199, 904.39570061464, 1348.7789216278, 1755.3113195571198, 3153.319658944, 3818.4558570392]

>  <E0_kJmol>  (5) 
-444005

>  <H298_kJmol>  (5) 
-443993

$$$$
