
     RDKit          3D

 13 12  0  0  0  0  0  0  0  0999 V2000
    0.2796   -1.2995   -1.1027 N   0  0  0  0  0  1  0  0  0  1  0  0
    0.3999   -1.2795    0.0963 N   0  0  0  0  0  0  0  0  0  2  0  0
    0.4607   -0.0621    0.9272 C   0  0  0  0  0  0  0  0  0  3  0  0
    0.1791    1.2420    0.2342 C   0  0  0  0  0  0  0  0  0  4  0  0
   -1.2579    1.3925   -0.2546 C   0  0  0  0  0  0  0  0  0  5  0  0
    0.4914   -2.1442    0.6636 H   0  0  0  0  0  0  0  0  0  6  0  0
   -0.2941   -0.2470    1.6964 H   0  0  0  0  0  0  0  0  0  7  0  0
    1.3914   -0.0825    1.5008 H   0  0  0  0  0  0  0  0  0  8  0  0
    0.4117    2.0300    0.9537 H   0  0  0  0  0  0  0  0  0  9  0  0
    0.8763    1.3617   -0.5988 H   0  0  0  0  0  0  0  0  0 10  0  0
   -1.9592    1.2807    0.5744 H   0  0  0  0  0  0  0  0  0 11  0  0
   -1.4937    0.6498   -1.0153 H   0  0  0  0  0  0  0  0  0 12  0  0
   -1.4052    2.3811   -0.6897 H   0  0  0  0  0  0  0  0  0 13  0  0
  1  2  1  0
  2  6  1  0
  2  3  1  0
  3  4  1  0
  3  7  1  0
  3  8  1  0
  4  5  1  0
  4  9  1  0
  4 10  1  0
  5 11  1  0
  5 12  1  0
  5 13  1  0
M  RAD  1   1   3
M  END
>  <rmg_smiles>  (1) 
CCCN[N]

>  <rmg_adjacency_list>  (1) 
multiplicity 3
1  N u0 p1 c0 {2,S} {4,S} {13,S}
2  N u2 p2 c0 {1,S}
3  C u0 p0 c0 {4,S} {5,S} {6,S} {7,S}
4  C u0 p0 c0 {1,S} {3,S} {8,S} {9,S}
5  C u0 p0 c0 {3,S} {10,S} {11,S} {12,S}
6  H u0 p0 c0 {3,S}
7  H u0 p0 c0 {3,S}
8  H u0 p0 c0 {4,S}
9  H u0 p0 c0 {4,S}
10 H u0 p0 c0 {5,S}
11 H u0 p0 c0 {5,S}
12 H u0 p0 c0 {5,S}
13 H u0 p0 c0 {1,S}


>  <multiplicity>  (1) 
3

>  <reaction>  (1) 
rmg_rxn_3280

>  <type>  (1) 
r1h

>  <role_mapnums>  (1) 
{"r1h_a": 3, "r1h_h": 7}

>  <role_mapidx>  (1) 
{"r1h_a": 2, "r1h_h": 6}

>  <ordered_mapped_smiles>  (1) 
[N:1][N:2]([C:3]([C:4]([C:5]([H:11])([H:12])[H:13])([H:9])[H:10])([H:7])[H:8])[H:6]

>  <mol_properties>  (1) 
{"2": {"label": "donator", "atom_type": "Cs"}, "6": {"label": "d_hydrogen", "atom_type": "H0"}}

>  <level_of_theory>  (1) 
wb97xd/def2tzvp

>  <lot_method>  (1) 
wb97xd

>  <lot_basis>  (1) 
def2tzvp

>  <spin_multiplicity>  (1) 
1.0

>  <optical_isomers>  (1) 
2.0

>  <modes>  (1) 
IdealGasTranslation(mass=(72.0687, 'amu')),         NonlinearRotor(             inertia = ([57.2768, 139.247, 168.498

>  <frequency_value>  (1) 
unknown

>  <frequency_units>  (1) 
unknown

>  <frequency_list>  (1) 
unknown

>  <arkane_path>  (1) 
/home/calvin/Dropbox/PersonalFolders/Calvin/ATLAS_Converged/rmg_rxn_3280/output/Species/rmg_rxn_3280_r2_sbr-N--sbr=sbr-NHp-sbrCCC/arkane/output.py

>  <path_exists>  (1) 
True

>  <E0_value>  (1) 
-599806.8849416116

>  <E0_units>  (1) 
kJ/mol

>  <thermo_class>  (1) 
NASA

>  <Cp0_value>  (1) 
33.257888

>  <Cp0_units>  (1) 
J/(mol*K)

>  <CpInf_value>  (1) 
307.635464

>  <CpInf_units>  (1) 
J/(mol*K)

>  <Tmin_value>  (1) 
10.0

>  <Tmin_units>  (1) 
K

>  <Tmax_value>  (1) 
3000.0

>  <Tmax_units>  (1) 
K

>  <polynomials>  (1) 
[{"name": "polynomial1", "class": "NASAPolynomial", "Tmin_value": 10.0, "Tmin_units": "K", "Tmax_value": 1042.7830820145011, "Tmax_units": "K", "coeffs": [3.8866419127451737, 0.020354694123289125, 2.951287947567611e-05, -4.134957183839792e-08, 1.4165399329228802e-11, -72140110.2204055, 10.00056713580011]}, {"name": "polynomial2", "class": "NASAPolynomial", "Tmin_value": 1042.7830820145011, "Tmin_units": "K", "Tmax_value": 3000.0, "Tmax_units": "K", "coeffs": [3.507129376748168, 0.03802645061485507, -1.9233229367121952e-05, 4.727209791510294e-09, -4.563985927512985e-13, -72140912.7310622, 7.619955091117497]}]

>  <H298_value>  (1) 
-143352.82979672542

>  <H298_units>  (1) 
kcal/mol

>  <S298_value>  (1) 
77.86358770542921

>  <S298_units>  (1) 
cal/(mol*K)

>  <Cp_T_value_list>  (1) 
[23.146008779252057, 28.74860227861984, 34.09817791438343, 39.005730253994166, 47.07653819819026, 52.800162185331146, 61.43618683347274, 65.86082053041876, 67.95043556967221]

>  <Cp_T_units>  (1) 
cal/(mol*K)

>  <T_list>  (1) 
[300.0, 400.0, 500.0, 600.0, 800.0, 1000.0, 1500.0, 2000.0, 2400.0]

>  <T_units>  (1) 
K

>  <yaml_path>  (1) 
/home/calvin/Dropbox/PersonalFolders/Calvin/ATLAS_Converged/rmg_rxn_3280/output/Species/rmg_rxn_3280_r2_sbr-N--sbr=sbr-NHp-sbrCCC/rmg_rxn_3280_r2_sbr-N--sbr=sbr-NHp-sbrCCC.yml

>  <frequencies_cm1>  (1) 
[118.41429485808, 137.53884897428, 209.01729917016, 302.19542297723996, 382.5803531331599, 639.8313571909999, 738.4275324155599, 773.1950790907199, 828.3644391515999, 914.4627010937601, 943.64052171844, 1061.8900089288397, 1111.5863816896801, 1141.6775113619199, 1249.5715847097601, 1293.14260656516, 1348.87505942228, 1379.0279919624, 1404.985196472, 1458.4378102028802, 1464.06187117996, 1484.49801949228, 1495.6637376226001, 1540.4708168355999, 1688.3170107751998, 2994.3214808447196, 3015.47866261564, 3018.8091504958397, 3033.86158231728, 3065.0102277287992, 3074.73387894192, 3091.29704753376, 3107.1323156816798]

>  <ZPE_kJmol>  (1) 
296.1387454515404

>  <E_elec_kJmol>  (1) 
-600103.0236870631

>  <E0_minus_Eelec_plus_ZPE_kJmol>  (1) 
0.0

>  <rxn>  (1) 
rmg_rxn_3280

>  <species_type>  (1) 
r1

>  <species_folder>  (1) 
rmg_rxn_3280_r2_sbr-N--sbr=sbr-NHp-sbrCCC

>  <frequencies_cm1_list>  (1) 
[118.41429485808, 137.53884897428, 209.01729917016, 302.19542297723996, 382.5803531331599, 639.8313571909999, 738.4275324155599, 773.1950790907199, 828.3644391515999, 914.4627010937601, 943.64052171844, 1061.8900089288397, 1111.5863816896801, 1141.6775113619199, 1249.5715847097601, 1293.14260656516, 1348.87505942228, 1379.0279919624, 1404.985196472, 1458.4378102028802, 1464.06187117996, 1484.49801949228, 1495.6637376226001, 1540.4708168355999, 1688.3170107751998, 2994.3214808447196, 3015.47866261564, 3018.8091504958397, 3033.86158231728, 3065.0102277287992, 3074.73387894192, 3091.29704753376, 3107.1323156816798]

>  <E0_kJmol>  (1) 
-599807

>  <H298_kJmol>  (1) 
-599788

$$$$

     RDKit          3D

  2  1  0  0  0  0  0  0  0  0999 V2000
   -0.0503   -0.0166    0.0560 O   0  0  0  0  0  1  0  0  0  1  0  0
    0.5762    0.1899   -0.6414 H   0  0  0  0  0  0  0  0  0  2  0  0
  1  2  1  0
M  RAD  1   1   2
M  END
>  <rmg_smiles>  (2) 
[OH]

>  <rmg_adjacency_list>  (2) 
multiplicity 2
1 O u1 p2 c0 {2,S}
2 H u0 p0 c0 {1,S}


>  <multiplicity>  (2) 
2

>  <reaction>  (2) 
rmg_rxn_3280

>  <type>  (2) 
r2h

>  <role_mapnums>  (2) 
{"r2h_a": 1, "r2h_h": 2}

>  <role_mapidx>  (2) 
{"r2h_a": 0, "r2h_h": 1}

>  <ordered_mapped_smiles>  (2) 
[O:1][H:2]

>  <mol_properties>  (2) 
{"0": {"label": "acceptor", "atom_type": "O2s"}, "1": {"label": "a_hydrogen", "atom_type": "H0"}}

>  <level_of_theory>  (2) 
wb97xd/def2tzvp

>  <lot_method>  (2) 
wb97xd

>  <lot_basis>  (2) 
def2tzvp

>  <spin_multiplicity>  (2) 
2.0

>  <optical_isomers>  (2) 
1.0

>  <modes>  (2) 
IdealGasTranslation(mass=(17.0027, 'amu')),         LinearRotor(inertia=(0.893825, 'amu*angstrom^2'), symmetry=1),         HarmonicOscillator(frequencies=([3725.56

>  <frequency_value>  (2) 
unknown

>  <frequency_units>  (2) 
unknown

>  <frequency_list>  (2) 
unknown

>  <arkane_path>  (2) 
/home/calvin/Dropbox/PersonalFolders/Calvin/ATLAS_Converged/rmg_rxn_3280/output/Species/rmg_rxn_3280_p1_sbr-OH-sbr/arkane/output.py

>  <path_exists>  (2) 
True

>  <E0_value>  (2) 
-198836.1093764492

>  <E0_units>  (2) 
kJ/mol

>  <thermo_class>  (2) 
NASA

>  <Cp0_value>  (2) 
29.100652

>  <Cp0_units>  (2) 
J/(mol*K)

>  <CpInf_value>  (2) 
37.415124

>  <CpInf_units>  (2) 
J/(mol*K)

>  <Tmin_value>  (2) 
10.0

>  <Tmin_units>  (2) 
K

>  <Tmax_value>  (2) 
3000.0

>  <Tmax_units>  (2) 
K

>  <polynomials>  (2) 
[{"name": "polynomial1", "class": "NASAPolynomial", "Tmin_value": 10.0, "Tmin_units": "K", "Tmax_value": 985.6219051098949, "Tmax_units": "K", "coeffs": [3.496867604314472, 0.0001833472557371578, -9.927740947192295e-07, 1.5593900231123363e-09, -6.051459039423422e-13, -23914460.03620676, 1.4722274406577402]}, {"name": "polynomial2", "class": "NASAPolynomial", "Tmin_value": 985.6219051098949, "Tmin_units": "K", "Tmax_value": 3000.0, "Tmax_units": "K", "coeffs": [3.453933156167455, -0.00029916362157125824, 7.410522713245767e-07, -2.8941103306339544e-10, 3.5276148505692374e-14, -23914419.672581118, 1.8405673087181547]}]

>  <H298_value>  (2) 
-47520.89533020024

>  <H298_units>  (2) 
kcal/mol

>  <S298_value>  (2) 
42.56065351108258

>  <S298_units>  (2) 
cal/(mol*K)

>  <Cp_T_value_list>  (2) 
[6.954674207472737, 6.946621880758451, 6.950155063576729, 6.970879197233411, 7.071891483793281, 7.2367839245792185, 7.699190340115086, 8.085834174440727, 8.294523170832974]

>  <Cp_T_units>  (2) 
cal/(mol*K)

>  <T_list>  (2) 
[300.0, 400.0, 500.0, 600.0, 800.0, 1000.0, 1500.0, 2000.0, 2400.0]

>  <T_units>  (2) 
K

>  <yaml_path>  (2) 
/home/calvin/Dropbox/PersonalFolders/Calvin/ATLAS_Converged/rmg_rxn_3280/output/Species/rmg_rxn_3280_p1_sbr-OH-sbr/rmg_rxn_3280_p1_sbr-OH-sbr.yml

>  <frequencies_cm1>  (2) 
[3725.55927963024]

>  <ZPE_kJmol>  (2) 
22.28379948603074

>  <E_elec_kJmol>  (2) 
-198858.39317593523

>  <E0_minus_Eelec_plus_ZPE_kJmol>  (2) 
0.0

>  <rxn>  (2) 
rmg_rxn_3280

>  <species_type>  (2) 
p0

>  <species_folder>  (2) 
rmg_rxn_3280_p1_sbr-OH-sbr

>  <frequencies_cm1_list>  (2) 
[3725.55927963024]

>  <E0_kJmol>  (2) 
-198836

>  <H298_kJmol>  (2) 
-198827

$$$$

     RDKit          3D

 14 12  0  0  0  0  0  0  0  0999 V2000
   -1.0348   -0.4642    2.2541 O   0  0  0  0  0 15  0  0  0  1  0  0
    0.4876   -1.2123   -1.5918 N   0  0  0  0  0  1  0  0  0  2  0  0
    0.6079   -1.1923   -0.3928 N   0  0  0  0  0  0  0  0  0  3  0  0
    0.6687    0.0251    0.4380 C   0  0  0  0  0  0  0  0  0  4  0  0
    0.3871    1.3292   -0.2550 C   0  0  0  0  0  0  0  0  0  5  0  0
   -1.0499    1.4797   -0.7437 C   0  0  0  0  0  0  0  0  0  6  0  0
    0.6994   -2.0570    0.1745 H   0  0  0  0  0  0  0  0  0  7  0  0
   -0.1858   -0.1843    1.3090 H   0  0  0  0  0  0  0  0  0  8  0  0
    1.5994    0.0047    1.0117 H   0  0  0  0  0  0  0  0  0  9  0  0
    0.6197    2.1172    0.4646 H   0  0  0  0  0  0  0  0  0 10  0  0
    1.0844    1.4489   -1.0879 H   0  0  0  0  0  0  0  0  0 11  0  0
   -1.7511    1.3679    0.0853 H   0  0  0  0  0  0  0  0  0 12  0  0
   -1.2857    0.7370   -1.5044 H   0  0  0  0  0  0  0  0  0 13  0  0
   -1.1972    2.4683   -1.1788 H   0  0  0  0  0  0  0  0  0 14  0  0
  2  3  1  0
  3  4  1  0
  3  7  1  0
  4  8  1  0
  4  5  1  0
  4  9  1  0
  5 11  1  0
  5  6  1  0
  5 10  1  0
  6 14  1  0
  6 13  1  0
  6 12  1  0
M  RAD  1   2   3
M  END
>  <rmg_smiles>  (3) 
CCCN[N].[O]

>  <rmg_adjacency_list>  (3) 
multiplicity 5
1  O u2 p3 c0
2  N u0 p1 c0 {3,S} {5,S} {14,S}
3  N u2 p2 c0 {2,S}
4  C u0 p0 c0 {5,S} {6,S} {7,S} {8,S}
5  C u0 p0 c0 {2,S} {4,S} {9,S} {10,S}
6  C u0 p0 c0 {4,S} {11,S} {12,S} {13,S}
7  H u0 p0 c0 {4,S}
8  H u0 p0 c0 {4,S}
9  H u0 p0 c0 {5,S}
10 H u0 p0 c0 {5,S}
11 H u0 p0 c0 {6,S}
12 H u0 p0 c0 {6,S}
13 H u0 p0 c0 {6,S}
14 H u0 p0 c0 {2,S}


>  <multiplicity>  (3) 
5

>  <reaction>  (3) 
rmg_rxn_3280

>  <type>  (3) 
ts

>  <role_mapnums>  (3) 
{"*2": 8, "*1": 4, "*3": 1, "*0": 3, "*4": null}

>  <role_mapidx>  (3) 
{"*2": 7, "*1": 3, "*3": 0, "*0": 2}

>  <ordered_mapped_smiles>  (3) 
[O:1].[N:2][N:3]([C:4]([C:5]([C:6]([H:12])([H:13])[H:14])([H:10])[H:11])([H:8])[H:9])[H:7]

>  <mol_properties>  (3) 
{"0": {"label": "*3", "atom_type": "Oa"}, "2": {"label": "*0", "atom_type": "N3s"}, "3": {"label": "*1", "atom_type": "Cs"}, "7": {"label": "*2", "atom_type": "H0"}}

>  <level_of_theory>  (3) 
wb97xd/def2tzvp

>  <lot_method>  (3) 
wb97xd

>  <lot_basis>  (3) 
def2tzvp

>  <spin_multiplicity>  (3) 
3.0

>  <optical_isomers>  (3) 
2.0

>  <modes>  (3) 
IdealGasTranslation(mass=(88.0637, 'amu')),         NonlinearRotor(             inertia = ([153.188, 184.077, 271.328

>  <frequency_value>  (3) 
-1260.7

>  <frequency_units>  (3) 
cm^-1

>  <frequency_list>  (3) 
unknown

>  <arkane_path>  (3) 
/home/calvin/Dropbox/PersonalFolders/Calvin/ATLAS_Converged/rmg_rxn_3280/output/rxns/TS0/arkane/output.py

>  <path_exists>  (3) 
True

>  <E0_value>  (3) 
-796901.0

>  <E0_units>  (3) 
kJ/mol

>  <thermo_class>  (3) 
unknown

>  <Cp0_value>  (3) 
unknown

>  <Cp0_units>  (3) 
unknown

>  <CpInf_value>  (3) 
unknown

>  <CpInf_units>  (3) 
unknown

>  <Tmin_value>  (3) 
unknown

>  <Tmin_units>  (3) 
unknown

>  <Tmax_value>  (3) 
unknown

>  <Tmax_units>  (3) 
unknown

>  <polynomials>  (3) 
unknown

>  <H298_value>  (3) 
unknown

>  <H298_units>  (3) 
unknown

>  <S298_value>  (3) 
unknown

>  <S298_units>  (3) 
unknown

>  <Cp_T_value_list>  (3) 
unknown

>  <Cp_T_units>  (3) 
unknown

>  <T_list>  (3) 
unknown

>  <T_units>  (3) 
unknown

>  <yaml_path>  (3) 
unknown

>  <frequencies_cm1>  (3) 
unknown

>  <ZPE_kJmol>  (3) 
unknown

>  <E_elec_kJmol>  (3) 
unknown

>  <E0_minus_Eelec_plus_ZPE_kJmol>  (3) 
unknown

>  <rxn>  (3) 
unknown

>  <species_type>  (3) 
unknown

>  <species_folder>  (3) 
unknown

>  <frequencies_cm1_list>  (3) 
[]

>  <ts_imag_freq_cm1>  (3) 
-1276.0129

>  <ts_freq_out_path>  (3) 
/home/calvin/Dropbox/PersonalFolders/Calvin/ATLAS_Converged/rmg_rxn_3280/output/rxns/TS0/geometry/freq.out

>  <E0_kJmol>  (3) 
-796901

>  <H298_kJmol>  (3) 
unknown

$$$$

     RDKit          3D

 12 11  0  0  0  0  0  0  0  0999 V2000
    1.5035    1.1817    1.1766 N   0  0  0  0  0  2  0  0  0  1  0  0
    1.5580   -0.0511    0.8125 N   0  0  0  0  0  0  0  0  0  2  0  0
    0.8483   -0.7137   -0.0804 C   0  0  0  0  0  0  0  0  0  3  0  0
   -0.2212   -0.0125   -0.8376 C   0  0  0  0  0  0  0  0  0  4  0  0
   -1.4527    0.3302    0.0094 C   0  0  0  0  0  0  0  0  0  5  0  0
    2.2746   -0.5859    1.3051 H   0  0  0  0  0  0  0  0  0  6  0  0
    1.0804   -1.7613   -0.1832 H   0  0  0  0  0  0  0  0  0  7  0  0
    0.1929    0.9174   -1.2475 H   0  0  0  0  0  0  0  0  0  8  0  0
   -0.5138   -0.6336   -1.6852 H   0  0  0  0  0  0  0  0  0  9  0  0
   -1.1741    0.9508    0.8624 H   0  0  0  0  0  0  0  0  0 10  0  0
   -2.1844    0.8814   -0.5832 H   0  0  0  0  0  0  0  0  0 11  0  0
   -1.9295   -0.5758    0.3866 H   0  0  0  0  0  0  0  0  0 12  0  0
  1  2  1  0
  2  6  1  0
  2  3  1  0
  3  4  1  0
  3  7  1  0
  4  8  1  0
  4  5  1  0
  4  9  1  0
  5 11  1  0
  5 12  1  0
  5 10  1  0
M  RAD  1   1   2
M  END
>  <rmg_smiles>  (4) 
CC[CH]N[N]

>  <rmg_adjacency_list>  (4) 
multiplicity 2
1  N u0 p1 c0 {2,S} {5,S} {12,S}
2  N u1 p2 c0 {1,S}
3  C u0 p0 c0 {4,S} {5,S} {6,S} {7,S}
4  C u0 p0 c0 {3,S} {8,S} {9,S} {10,S}
5  C u0 p0 c0 {1,S} {3,S} {11,S}
6  H u0 p0 c0 {3,S}
7  H u0 p0 c0 {3,S}
8  H u0 p0 c0 {4,S}
9  H u0 p0 c0 {4,S}
10 H u0 p0 c0 {4,S}
11 H u0 p0 c0 {5,S}
12 H u0 p0 c0 {1,S}


>  <multiplicity>  (4) 
2

>  <reaction>  (4) 
rmg_rxn_3280

>  <type>  (4) 
r1

>  <role_mapnums>  (4) 
{}

>  <role_mapidx>  (4) 
{}

>  <ordered_mapped_smiles>  (4) 
[NH:1][N:2]([CH:3]([C:4]([C:5]([H:10])([H:11])[H:12])([H:8])[H:9])[H:7])[H:6]

>  <level_of_theory>  (4) 
wb97xd/def2tzvp

>  <lot_method>  (4) 
wb97xd

>  <lot_basis>  (4) 
def2tzvp

>  <spin_multiplicity>  (4) 
2.0

>  <optical_isomers>  (4) 
2.0

>  <modes>  (4) 
IdealGasTranslation(mass=(71.0609, 'amu')),         NonlinearRotor(             inertia = ([53.0503, 135.065, 165.702

>  <frequency_value>  (4) 
unknown

>  <frequency_units>  (4) 
unknown

>  <frequency_list>  (4) 
unknown

>  <arkane_path>  (4) 
/home/calvin/Dropbox/PersonalFolders/Calvin/ATLAS_Converged/rmg_rxn_3280/output/Species/rmg_rxn_3280_p2_sbr-N--sbrsbr-NHp-sbr=CCC/arkane/output.py

>  <path_exists>  (4) 
True

>  <E0_value>  (4) 
-598127.5170683548

>  <E0_units>  (4) 
kJ/mol

>  <thermo_class>  (4) 
NASA

>  <Cp0_value>  (4) 
33.257888

>  <Cp0_units>  (4) 
J/(mol*K)

>  <CpInf_value>  (4) 
282.692048

>  <CpInf_units>  (4) 
J/(mol*K)

>  <Tmin_value>  (4) 
10.0

>  <Tmin_units>  (4) 
K

>  <Tmax_value>  (4) 
3000.0

>  <Tmax_units>  (4) 
K

>  <polynomials>  (4) 
[{"name": "polynomial1", "class": "NASAPolynomial", "Tmin_value": 10.0, "Tmin_units": "K", "Tmax_value": 739.5019906140477, "Tmax_units": "K", "coeffs": [3.821237200528951, 0.016802363537443275, 4.7629888774408766e-05, -7.711714640810201e-08, 3.416632376172231e-11, -71938122.51591697, 10.943750324445618]}, {"name": "polynomial2", "class": "NASAPolynomial", "Tmin_value": 739.5019906140477, "Tmin_units": "K", "Tmax_value": 3000.0, "Tmax_units": "K", "coeffs": [1.2982346076344873, 0.04113558924064776, -2.3403216757098682e-05, 6.460621075217384e-09, -6.945189416916906e-13, -71938041.55701764, 20.378777338046802]}]

>  <H298_value>  (4) 
-142951.59456038818

>  <H298_units>  (4) 
kcal/mol

>  <S298_value>  (4) 
77.94371803628226

>  <S298_units>  (4) 
cal/(mol*K)

>  <Cp_T_value_list>  (4) 
[22.541321560929955, 28.023835148161908, 33.038586044829046, 37.39935992235229, 44.219339542610946, 49.27618177365842, 56.89963356824533, 60.66784775105793, 62.57767794144656]

>  <Cp_T_units>  (4) 
cal/(mol*K)

>  <T_list>  (4) 
[300.0, 400.0, 500.0, 600.0, 800.0, 1000.0, 1500.0, 2000.0, 2400.0]

>  <T_units>  (4) 
K

>  <yaml_path>  (4) 
/home/calvin/Dropbox/PersonalFolders/Calvin/ATLAS_Converged/rmg_rxn_3280/output/Species/rmg_rxn_3280_p2_sbr-N--sbrsbr-NHp-sbr=CCC/rmg_rxn_3280_p2_sbr-N--sbrsbr-NHp-sbr=CCC.yml

>  <frequencies_cm1>  (4) 
[108.841717322, 198.85416089656, 256.05614861216003, 294.31212382987997, 511.21958913272005, 575.24049327108, 667.51904200124, 801.3153839761201, 827.2863224563599, 887.88060092004, 1013.14128014216, 1072.9046533821202, 1121.7838548898799, 1135.2019442051599, 1287.1133934542, 1337.173716437, 1345.67504426316, 1400.50792204336, 1452.9854238588, 1475.6464754148, 1488.28859538892, 1496.5701796848398, 1535.3961146841198, 2981.79609962104, 3018.4795352004803, 3067.0977912660796, 3094.0507086470793, 3099.5786318296796, 3217.4298338915196, 3404.9603359954]

>  <ZPE_kJmol>  (4) 
264.22110838643863

>  <E_elec_kJmol>  (4) 
-598391.7381767412

>  <E0_minus_Eelec_plus_ZPE_kJmol>  (4) 
0.0

>  <rxn>  (4) 
rmg_rxn_3280

>  <species_type>  (4) 
p1

>  <species_folder>  (4) 
rmg_rxn_3280_p2_sbr-N--sbrsbr-NHp-sbr=CCC

>  <frequencies_cm1_list>  (4) 
[108.841717322, 198.85416089656, 256.05614861216003, 294.31212382987997, 511.21958913272005, 575.24049327108, 667.51904200124, 801.3153839761201, 827.2863224563599, 887.88060092004, 1013.14128014216, 1072.9046533821202, 1121.7838548898799, 1135.2019442051599, 1287.1133934542, 1337.173716437, 1345.67504426316, 1400.50792204336, 1452.9854238588, 1475.6464754148, 1488.28859538892, 1496.5701796848398, 1535.3961146841198, 2981.79609962104, 3018.4795352004803, 3067.0977912660796, 3094.0507086470793, 3099.5786318296796, 3217.4298338915196, 3404.9603359954]

>  <E0_kJmol>  (4) 
-598128

>  <H298_kJmol>  (4) 
-598109

$$$$

     RDKit          3D

  1  0  0  0  0  0  0  0  0  0999 V2000
    0.0000    0.0000    0.0000 O   0  0  0  0  0 15  0  0  0  1  0  0
M  END
>  <rmg_smiles>  (5) 
[O]

>  <rmg_adjacency_list>  (5) 
multiplicity 3
1 O u2 p3 c0


>  <multiplicity>  (5) 
3

>  <reaction>  (5) 
rmg_rxn_3280

>  <type>  (5) 
r2

>  <role_mapnums>  (5) 
{}

>  <role_mapidx>  (5) 
{}

>  <ordered_mapped_smiles>  (5) 
[O:1]

>  <level_of_theory>  (5) 
wb97xd/def2tzvp

>  <lot_method>  (5) 
wb97xd

>  <lot_basis>  (5) 
def2tzvp

>  <spin_multiplicity>  (5) 
3.0

>  <optical_isomers>  (5) 
1.0

>  <modes>  (5) 
IdealGasTranslation(mass=(15.9994, 'amu')),

>  <frequency_value>  (5) 
unknown

>  <frequency_units>  (5) 
unknown

>  <frequency_list>  (5) 
unknown

>  <arkane_path>  (5) 
/home/calvin/Dropbox/PersonalFolders/Calvin/ATLAS_Converged/rmg_rxn_3280/output/Species/rmg_rxn_3280_r1_sbr-O-sbr/arkane/output.py

>  <path_exists>  (5) 
True

>  <E0_value>  (5) 
-197098.59938458708

>  <E0_units>  (5) 
kJ/mol

>  <thermo_class>  (5) 
NASA

>  <Cp0_value>  (5) 
20.78618

>  <Cp0_units>  (5) 
J/(mol*K)

>  <CpInf_value>  (5) 
20.78618

>  <CpInf_units>  (5) 
J/(mol*K)

>  <Tmin_value>  (5) 
10.0

>  <Tmin_units>  (5) 
K

>  <Tmax_value>  (5) 
3000.0

>  <Tmax_units>  (5) 
K

>  <polynomials>  (5) 
[{"name": "polynomial1", "class": "NASAPolynomial", "Tmin_value": 10.0, "Tmin_units": "K", "Tmax_value": 1853.5663026740365, "Tmax_units": "K", "coeffs": [2.500000000000126, -2.814048095438137e-15, 9.047587538332909e-18, -8.591944598242694e-21, 2.4182720553650057e-24, -23705485.977386568, 4.091313385047355]}, {"name": "polynomial2", "class": "NASAPolynomial", "Tmin_value": 1853.5663026740365, "Tmin_units": "K", "Tmax_value": 3000.0, "Tmax_units": "K", "coeffs": [2.500000000696122, -1.3129776766613561e-12, 9.140875080033424e-16, -2.782806647322001e-19, 3.1263265306749967e-23, -23705485.97738686, 4.091313381171202]}]

>  <H298_value>  (5) 
-47106.215373741215

>  <H298_units>  (5) 
kcal/mol

>  <S298_value>  (5) 
36.4335375885593

>  <S298_units>  (5) 
cal/(mol*K)

>  <Cp_T_value_list>  (5) 
[4.968016252389826, 4.968016252389978, 4.968016252390173, 4.96801625239036, 4.968016252390567, 4.968016252390427, 4.968016252389077, 4.968016252391019, 4.968016252390868]

>  <Cp_T_units>  (5) 
cal/(mol*K)

>  <T_list>  (5) 
[300.0, 400.0, 500.0, 600.0, 800.0, 1000.0, 1500.0, 2000.0, 2400.0]

>  <T_units>  (5) 
K

>  <yaml_path>  (5) 
/home/calvin/Dropbox/PersonalFolders/Calvin/ATLAS_Converged/rmg_rxn_3280/output/Species/rmg_rxn_3280_r1_sbr-O-sbr/rmg_rxn_3280_r1_sbr-O-sbr.yml

>  <frequencies_cm1>  (5) 
[]

>  <ZPE_kJmol>  (5) 
unknown

>  <E_elec_kJmol>  (5) 
unknown

>  <E0_minus_Eelec_plus_ZPE_kJmol>  (5) 
unknown

>  <rxn>  (5) 
rmg_rxn_3280

>  <species_type>  (5) 
r0

>  <species_folder>  (5) 
rmg_rxn_3280_r1_sbr-O-sbr

>  <frequencies_cm1_list>  (5) 
[]

>  <E0_kJmol>  (5) 
-197099

>  <H298_kJmol>  (5) 
-197092

$$$$
