
     RDKit          3D

  5  4  0  0  0  0  0  0  0  0999 V2000
    0.5674    0.0370    0.4265 N   0  0  0  0  0  2  0  0  0  1  0  0
   -0.4935   -0.1119   -0.3700 N   0  0  0  0  0  0  0  0  0  2  0  0
    0.3873    0.9561    0.8787 H   0  0  0  0  0  0  0  0  0  3  0  0
   -0.3811   -0.8045   -1.0954 H   0  0  0  0  0  0  0  0  0  4  0  0
   -1.0017    0.7293   -0.6457 H   0  0  0  0  0  0  0  0  0  5  0  0
  1  3  1  0
  1  2  1  0
  2  5  1  0
  2  4  1  0
M  RAD  1   1   2
M  END
>  <rmg_smiles>  (1) 
[NH]N

>  <rmg_adjacency_list>  (1) 
multiplicity 2
1 N u0 p1 c0 {2,S} {3,S} {4,S}
2 N u1 p1 c0 {1,S} {5,S}
3 H u0 p0 c0 {1,S}
4 H u0 p0 c0 {1,S}
5 H u0 p0 c0 {2,S}


>  <multiplicity>  (1) 
2

>  <reaction>  (1) 
rmg_rxn_539

>  <type>  (1) 
r1h

>  <role_mapnums>  (1) 
{"r1h_a": 1, "r1h_h": 3}

>  <role_mapidx>  (1) 
{"r1h_a": 0, "r1h_h": 2}

>  <ordered_mapped_smiles>  (1) 
[N:1]([N:2]([H:4])[H:5])[H:3]

>  <mol_properties>  (1) 
{"0": {"label": "donator", "atom_type": "N3s"}, "2": {"label": "d_hydrogen", "atom_type": "H0"}}

>  <level_of_theory>  (1) 
wb97xd/def2tzvp

>  <lot_method>  (1) 
wb97xd

>  <lot_basis>  (1) 
def2tzvp

>  <spin_multiplicity>  (1) 
2.0

>  <optical_isomers>  (1) 
2.0

>  <modes>  (1) 
IdealGasTranslation(mass=(31.0296, 'amu')),         NonlinearRotor(             inertia = ([2.44556, 16.2707, 18.4662

>  <frequency_value>  (1) 
unknown

>  <frequency_units>  (1) 
unknown

>  <frequency_list>  (1) 
unknown

>  <arkane_path>  (1) 
/home/calvin/Dropbox/PersonalFolders/Calvin/ATLAS_Converged/rmg_rxn_539/output/Species/rmg_rxn_539_r1_sbr-NH-sbrN/arkane/output.py

>  <path_exists>  (1) 
True

>  <E0_value>  (1) 
-291956.40137108794

>  <E0_units>  (1) 
kJ/mol

>  <thermo_class>  (1) 
NASA

>  <Cp0_value>  (1) 
33.257888

>  <Cp0_units>  (1) 
J/(mol*K)

>  <CpInf_value>  (1) 
108.088136

>  <CpInf_units>  (1) 
J/(mol*K)

>  <Tmin_value>  (1) 
10.0

>  <Tmin_units>  (1) 
K

>  <Tmax_value>  (1) 
3000.0

>  <Tmax_units>  (1) 
K

>  <polynomials>  (1) 
[{"name": "polynomial1", "class": "NASAPolynomial", "Tmin_value": 10.0, "Tmin_units": "K", "Tmax_value": 509.83859825219446, "Tmax_units": "K", "coeffs": [4.052136584602748, -0.004531084504054963, 4.937184092156198e-05, -8.152448525744323e-08, 4.584783864816205e-11, -35114244.424322896, 5.945417615125596]}, {"name": "polynomial2", "class": "NASAPolynomial", "Tmin_value": 509.83859825219446, "Tmin_units": "K", "Tmax_value": 3000.0, "Tmax_units": "K", "coeffs": [2.3652619552133953, 0.011493157855311688, -5.980697508799935e-06, 1.5868265846776409e-09, -1.6841948466854505e-13, -35114108.67419368, 12.591661130242505]}]

>  <H298_value>  (1) 
-69776.66608848934

>  <H298_units>  (1) 
kcal/mol

>  <S298_value>  (1) 
58.113888817126096

>  <S298_units>  (1) 
cal/(mol*K)

>  <Cp_T_value_list>  (1) 
[10.545078125731532, 12.11268922492409, 13.52191448532847, 14.763022558774402, 16.842792109084044, 18.473328780854715, 21.16642287354857, 22.71116419064153, 23.545534603114234]

>  <Cp_T_units>  (1) 
cal/(mol*K)

>  <T_list>  (1) 
[300.0, 400.0, 500.0, 600.0, 800.0, 1000.0, 1500.0, 2000.0, 2400.0]

>  <T_units>  (1) 
K

>  <yaml_path>  (1) 
/home/calvin/Dropbox/PersonalFolders/Calvin/ATLAS_Converged/rmg_rxn_539/output/Species/rmg_rxn_539_r1_sbr-NH-sbrN/rmg_rxn_539_r1_sbr-NH-sbrN.yml

>  <frequencies_cm1>  (1) 
[540.35620784548, 695.94149424072, 1137.64659097908, 1263.87551513132, 1471.0593292210397, 1653.85847843944, 3424.7853226142397, 3492.4045270602796, 3632.23008214612]

>  <ZPE_kJmol>  (1) 
103.5497273046512

>  <E_elec_kJmol>  (1) 
-292059.9510983926

>  <E0_minus_Eelec_plus_ZPE_kJmol>  (1) 
0.0

>  <rxn>  (1) 
rmg_rxn_539

>  <species_type>  (1) 
r0

>  <species_folder>  (1) 
rmg_rxn_539_r1_sbr-NH-sbrN

>  <frequencies_cm1_list>  (1) 
[540.35620784548, 695.94149424072, 1137.64659097908, 1263.87551513132, 1471.0593292210397, 1653.85847843944, 3424.7853226142397, 3492.4045270602796, 3632.23008214612]

>  <E0_kJmol>  (1) 
-291956

>  <H298_kJmol>  (1) 
-291946

$$$$

     RDKit          3D

 12 11  0  0  0  0  0  0  0  0999 V2000
    0.2126   -1.9116    1.1162 H   0  0  0  0  0  0  0  0  0  1  0  0
   -0.1407   -0.9311    1.4258 C   0  0  0  0  0  0  0  0  0  2  0  0
   -0.9030   -0.1415    0.0593 S   0  0  0  0  0  0  0  0  0  3  0  0
    0.5212    0.1026   -1.0359 C   0  0  0  0  0  0  0  0  0  4  0  0
    1.4787    1.1940   -0.5868 C   0  0  0  0  0  0  0  0  0  5  0  0
   -0.8664   -1.1258    2.2108 H   0  0  0  0  0  0  0  0  0  6  0  0
    0.7630   -0.4514    1.7950 H   0  0  0  0  0  0  0  0  0  7  0  0
    0.0871    0.3470   -2.0063 H   0  0  0  0  0  0  0  0  0  8  0  0
    1.0321   -0.8571   -1.1336 H   0  0  0  0  0  0  0  0  0  9  0  0
    1.9276    0.9599    0.3789 H   0  0  0  0  0  0  0  0  0 10  0  0
    2.2898    1.2996   -1.3101 H   0  0  0  0  0  0  0  0  0 11  0  0
    0.9663    2.1525   -0.5008 H   0  0  0  0  0  0  0  0  0 12  0  0
  1  2  1  0
  2  7  1  0
  2  3  1  0
  2  6  1  0
  3  4  1  0
  4  8  1  0
  4  5  1  0
  4  9  1  0
  5 11  1  0
  5 12  1  0
  5 10  1  0
M  END
>  <rmg_smiles>  (2) 
CSCC

>  <rmg_adjacency_list>  (2) 
1  S u0 p2 c0 {2,S} {4,S}
2  C u0 p0 c0 {1,S} {3,S} {5,S} {6,S}
3  C u0 p0 c0 {2,S} {7,S} {8,S} {9,S}
4  C u0 p0 c0 {1,S} {10,S} {11,S} {12,S}
5  H u0 p0 c0 {2,S}
6  H u0 p0 c0 {2,S}
7  H u0 p0 c0 {3,S}
8  H u0 p0 c0 {3,S}
9  H u0 p0 c0 {3,S}
10 H u0 p0 c0 {4,S}
11 H u0 p0 c0 {4,S}
12 H u0 p0 c0 {4,S}


>  <multiplicity>  (2) 
1

>  <reaction>  (2) 
rmg_rxn_539

>  <type>  (2) 
r2h

>  <role_mapnums>  (2) 
{"r2h_a": 2, "r2h_h": 1}

>  <role_mapidx>  (2) 
{"r2h_a": 1, "r2h_h": 0}

>  <ordered_mapped_smiles>  (2) 
[H:1][C:2]([S:3][C:4]([C:5]([H:10])([H:11])[H:12])([H:8])[H:9])([H:6])[H:7]

>  <mol_properties>  (2) 
{"0": {"label": "a_hydrogen", "atom_type": "H0"}, "1": {"label": "acceptor", "atom_type": "Cs"}}

>  <level_of_theory>  (2) 
wb97xd/def2tzvp

>  <lot_method>  (2) 
wb97xd

>  <lot_basis>  (2) 
def2tzvp

>  <spin_multiplicity>  (2) 
1.0

>  <optical_isomers>  (2) 
2.0

>  <modes>  (2) 
IdealGasTranslation(mass=(76.0347, 'amu')),         NonlinearRotor(             inertia = ([52.0964, 128.386, 157.856

>  <frequency_value>  (2) 
unknown

>  <frequency_units>  (2) 
unknown

>  <frequency_list>  (2) 
unknown

>  <arkane_path>  (2) 
/home/calvin/Dropbox/PersonalFolders/Calvin/ATLAS_Converged/rmg_rxn_539/output/Species/rmg_rxn_539_p2_CSCC/arkane/output.py

>  <path_exists>  (2) 
True

>  <E0_value>  (2) 
-1358024.3823847063

>  <E0_units>  (2) 
kJ/mol

>  <thermo_class>  (2) 
NASA

>  <Cp0_value>  (2) 
33.257888

>  <Cp0_units>  (2) 
J/(mol*K)

>  <CpInf_value>  (2) 
282.692048

>  <CpInf_units>  (2) 
J/(mol*K)

>  <Tmin_value>  (2) 
10.0

>  <Tmin_units>  (2) 
K

>  <Tmax_value>  (2) 
3000.0

>  <Tmax_units>  (2) 
K

>  <polynomials>  (2) 
[{"name": "polynomial1", "class": "NASAPolynomial", "Tmin_value": 10.0, "Tmin_units": "K", "Tmax_value": 1066.2668684701744, "Tmax_units": "K", "coeffs": [3.7938912313276787, 0.023010100947195324, 1.342493384076101e-05, -2.4396686231991315e-08, 8.539069834136729e-12, -163332607.1869712, 10.299389825114616]}, {"name": "polynomial2", "class": "NASAPolynomial", "Tmin_value": 1066.2668684701744, "Tmin_units": "K", "Tmax_value": 3000.0, "Tmax_units": "K", "coeffs": [3.879217425430389, 0.03360306179863777, -1.6829239210706833e-05, 4.118007320046649e-09, -3.971168214124496e-13, -163333245.74928793, 6.973208429713539]}]

>  <H298_value>  (2) 
-324571.19408104627

>  <H298_units>  (2) 
kcal/mol

>  <S298_value>  (2) 
77.83544863665438

>  <S298_units>  (2) 
cal/(mol*K)

>  <Cp_T_value_list>  (2) 
[22.486476604271342, 27.42967621467206, 32.072084622248504, 36.30607837304303, 43.32195482949402, 48.43082491651662, 56.2496539809613, 60.32875481300712, 62.28322095230064]

>  <Cp_T_units>  (2) 
cal/(mol*K)

>  <T_list>  (2) 
[300.0, 400.0, 500.0, 600.0, 800.0, 1000.0, 1500.0, 2000.0, 2400.0]

>  <T_units>  (2) 
K

>  <yaml_path>  (2) 
/home/calvin/Dropbox/PersonalFolders/Calvin/ATLAS_Converged/rmg_rxn_539/output/Species/rmg_rxn_539_p2_CSCC/rmg_rxn_539_p2_CSCC.yml

>  <frequencies_cm1>  (2) 
[86.86049731268, 173.63172381619998, 227.43455379839997, 277.98929972423997, 356.053188842, 666.01517221616, 740.88591316012, 758.5958683004, 952.29292322164, 966.1504995974, 986.7445885720799, 1060.0221889218, 1079.9089784085197, 1272.4729807519598, 1296.60356716644, 1348.6278479507598, 1400.27444454248, 1452.28499135616, 1457.8541164506798, 1470.393231645, 1480.8997191846001, 1487.8971772256798, 3015.3687908505194, 3018.78854953988, 3025.31218559388, 3073.71756511456, 3086.881575973, 3099.52369594712, 3104.7151368490404, 3118.41477256244]

>  <ZPE_kJmol>  (2) 
272.4054138316235

>  <E_elec_kJmol>  (2) 
-1358296.787798538

>  <E0_minus_Eelec_plus_ZPE_kJmol>  (2) 
0.0

>  <rxn>  (2) 
rmg_rxn_539

>  <species_type>  (2) 
p1

>  <species_folder>  (2) 
rmg_rxn_539_p2_CSCC

>  <frequencies_cm1_list>  (2) 
[86.86049731268, 173.63172381619998, 227.43455379839997, 277.98929972423997, 356.053188842, 666.01517221616, 740.88591316012, 758.5958683004, 952.29292322164, 966.1504995974, 986.7445885720799, 1060.0221889218, 1079.9089784085197, 1272.4729807519598, 1296.60356716644, 1348.6278479507598, 1400.27444454248, 1452.28499135616, 1457.8541164506798, 1470.393231645, 1480.8997191846001, 1487.8971772256798, 3015.3687908505194, 3018.78854953988, 3025.31218559388, 3073.71756511456, 3086.881575973, 3099.52369594712, 3104.7151368490404, 3118.41477256244]

>  <E0_kJmol>  (2) 
-1.35802e+06

>  <H298_kJmol>  (2) 
-1.35801e+06

$$$$

     RDKit          3D

 16 14  0  0  0  0  0  0  0  0999 V2000
    0.6285   -2.4117    0.4038 N   0  0  0  0  0  2  0  0  0  1  0  0
   -0.4324   -2.5606   -0.3927 N   0  0  0  0  0  0  0  0  0  2  0  0
    0.4173   -1.3339    0.9342 H   0  0  0  0  0  0  0  0  0  3  0  0
   -0.3200   -3.2533   -1.1181 H   0  0  0  0  0  0  0  0  0  4  0  0
   -0.9406   -1.7195   -0.6684 H   0  0  0  0  0  0  0  0  0  5  0  0
   -0.0348   -0.0795    1.3304 C   0  0  0  0  0  3  0  0  0  6  0  0
   -0.7971    0.7101   -0.0362 S   0  0  0  0  0  0  0  0  0  7  0  0
    0.6271    0.9542   -1.1313 C   0  0  0  0  0  0  0  0  0  8  0  0
    1.5846    2.0456   -0.6823 C   0  0  0  0  0  0  0  0  0  9  0  0
   -0.7605   -0.2741    2.1153 H   0  0  0  0  0  0  0  0  0 10  0  0
    0.8690    0.4003    1.6995 H   0  0  0  0  0  0  0  0  0 11  0  0
    0.1930    1.1987   -2.1017 H   0  0  0  0  0  0  0  0  0 12  0  0
    1.1380   -0.0055   -1.2290 H   0  0  0  0  0  0  0  0  0 13  0  0
    2.0335    1.8116    0.2835 H   0  0  0  0  0  0  0  0  0 14  0  0
    2.3957    2.1513   -1.4056 H   0  0  0  0  0  0  0  0  0 15  0  0
    1.0723    3.0042   -0.5963 H   0  0  0  0  0  0  0  0  0 16  0  0
  1  2  1  0
  1  3  1  0
  2  5  1  0
  2  4  1  0
  6 11  1  0
  6  7  1  0
  6 10  1  0
  7  8  1  0
  8  9  1  0
  8 12  1  0
  8 13  1  0
  9 16  1  0
  9 15  1  0
  9 14  1  0
M  RAD  2   1   2   6   2
M  END
>  <rmg_smiles>  (3) 
[CH2]SCC.[NH]N

>  <rmg_adjacency_list>  (3) 
multiplicity 3
1  S u0 p2 c0 {4,S} {6,S}
2  N u0 p1 c0 {3,S} {12,S} {13,S}
3  N u1 p1 c0 {2,S} {16,S}
4  C u0 p0 c0 {1,S} {5,S} {7,S} {8,S}
5  C u0 p0 c0 {4,S} {9,S} {10,S} {11,S}
6  C u1 p0 c0 {1,S} {14,S} {15,S}
7  H u0 p0 c0 {4,S}
8  H u0 p0 c0 {4,S}
9  H u0 p0 c0 {5,S}
10 H u0 p0 c0 {5,S}
11 H u0 p0 c0 {5,S}
12 H u0 p0 c0 {2,S}
13 H u0 p0 c0 {2,S}
14 H u0 p0 c0 {6,S}
15 H u0 p0 c0 {6,S}
16 H u0 p0 c0 {3,S}


>  <multiplicity>  (3) 
3

>  <reaction>  (3) 
rmg_rxn_539

>  <type>  (3) 
ts

>  <role_mapnums>  (3) 
{"*2": 3, "*1": 1, "*3": 6, "*0": 2, "*4": 7}

>  <role_mapidx>  (3) 
{"*2": 2, "*1": 0, "*3": 5, "*0": 1, "*4": 6}

>  <ordered_mapped_smiles>  (3) 
[N:1]([N:2]([H:4])[H:5])[H:3].[C:6]([S:7][C:8]([C:9]([H:14])([H:15])[H:16])([H:12])[H:13])([H:10])[H:11]

>  <mol_properties>  (3) 
{"0": {"label": "*1", "atom_type": "N3s"}, "1": {"label": "*0", "atom_type": "N3s"}, "2": {"label": "*2", "atom_type": "H0"}, "5": {"label": "*3", "atom_type": "Cs"}, "6": {"label": "*4", "atom_type": "S2s"}}

>  <level_of_theory>  (3) 
wb97xd/def2tzvp

>  <lot_method>  (3) 
wb97xd

>  <lot_basis>  (3) 
def2tzvp

>  <spin_multiplicity>  (3) 
3.0

>  <optical_isomers>  (3) 
2.0

>  <modes>  (3) 
IdealGasTranslation(mass=(106.056, 'amu')),         NonlinearRotor(             inertia = ([128.674, 348.038, 374.588

>  <frequency_value>  (3) 
-1745.9

>  <frequency_units>  (3) 
cm^-1

>  <frequency_list>  (3) 
unknown

>  <arkane_path>  (3) 
/home/calvin/Dropbox/PersonalFolders/Calvin/ATLAS_Converged/rmg_rxn_539/output/rxns/TS0/arkane/output.py

>  <path_exists>  (3) 
True

>  <E0_value>  (3) 
-1648260.0

>  <E0_units>  (3) 
kJ/mol

>  <thermo_class>  (3) 
unknown

>  <Cp0_value>  (3) 
unknown

>  <Cp0_units>  (3) 
unknown

>  <CpInf_value>  (3) 
unknown

>  <CpInf_units>  (3) 
unknown

>  <Tmin_value>  (3) 
unknown

>  <Tmin_units>  (3) 
unknown

>  <Tmax_value>  (3) 
unknown

>  <Tmax_units>  (3) 
unknown

>  <polynomials>  (3) 
unknown

>  <H298_value>  (3) 
unknown

>  <H298_units>  (3) 
unknown

>  <S298_value>  (3) 
unknown

>  <S298_units>  (3) 
unknown

>  <Cp_T_value_list>  (3) 
unknown

>  <Cp_T_units>  (3) 
unknown

>  <T_list>  (3) 
unknown

>  <T_units>  (3) 
unknown

>  <yaml_path>  (3) 
unknown

>  <frequencies_cm1>  (3) 
unknown

>  <ZPE_kJmol>  (3) 
unknown

>  <E_elec_kJmol>  (3) 
unknown

>  <E0_minus_Eelec_plus_ZPE_kJmol>  (3) 
unknown

>  <rxn>  (3) 
unknown

>  <species_type>  (3) 
unknown

>  <species_folder>  (3) 
unknown

>  <frequencies_cm1_list>  (3) 
[]

>  <ts_imag_freq_cm1>  (3) 
-1767.1012

>  <ts_freq_out_path>  (3) 
/home/calvin/Dropbox/PersonalFolders/Calvin/ATLAS_Converged/rmg_rxn_539/output/rxns/TS0/geometry/freq.out

>  <E0_kJmol>  (3) 
-1.64826e+06

>  <H298_kJmol>  (3) 
unknown

$$$$

     RDKit          3D

  4  3  0  0  0  0  0  0  0  0999 V2000
    1.2191   -0.0447   -0.0369 N   0  0  0  0  0  1  0  0  0  1  0  0
   -0.0876   -0.0060    0.2202 N   0  0  0  0  0  0  0  0  0  2  0  0
   -0.5966   -0.8143   -0.1273 H   0  0  0  0  0  0  0  0  0  3  0  0
   -0.5329    0.8649   -0.0563 H   0  0  0  0  0  0  0  0  0  4  0  0
  1  2  1  0
  2  4  1  0
  2  3  1  0
M  RAD  1   1   3
M  END
>  <rmg_smiles>  (4) 
[N]N

>  <rmg_adjacency_list>  (4) 
multiplicity 3
1 N u0 p1 c0 {2,S} {3,S} {4,S}
2 N u2 p2 c0 {1,S}
3 H u0 p0 c0 {1,S}
4 H u0 p0 c0 {1,S}


>  <multiplicity>  (4) 
3

>  <reaction>  (4) 
rmg_rxn_539

>  <type>  (4) 
r1

>  <role_mapnums>  (4) 
{}

>  <role_mapidx>  (4) 
{}

>  <ordered_mapped_smiles>  (4) 
[N:1][N:2]([H:3])[H:4]

>  <level_of_theory>  (4) 
wb97xd/def2tzvp

>  <lot_method>  (4) 
wb97xd

>  <lot_basis>  (4) 
def2tzvp

>  <spin_multiplicity>  (4) 
3.0

>  <optical_isomers>  (4) 
1.0

>  <modes>  (4) 
IdealGasTranslation(mass=(30.0218, 'amu')),         NonlinearRotor(             inertia = ([1.67933, 14.8983, 16.0702

>  <frequency_value>  (4) 
unknown

>  <frequency_units>  (4) 
unknown

>  <frequency_list>  (4) 
unknown

>  <arkane_path>  (4) 
/home/calvin/Dropbox/PersonalFolders/Calvin/ATLAS_Converged/rmg_rxn_539/output/Species/rmg_rxn_539_p1_sbr-N-sbrN/arkane/output.py

>  <path_exists>  (4) 
True

>  <E0_value>  (4) 
-290291.658875472

>  <E0_units>  (4) 
kJ/mol

>  <thermo_class>  (4) 
NASA

>  <Cp0_value>  (4) 
33.257888

>  <Cp0_units>  (4) 
J/(mol*K)

>  <CpInf_value>  (4) 
83.14472

>  <CpInf_units>  (4) 
J/(mol*K)

>  <Tmin_value>  (4) 
10.0

>  <Tmin_units>  (4) 
K

>  <Tmax_value>  (4) 
3000.0

>  <Tmax_units>  (4) 
K

>  <polynomials>  (4) 
[{"name": "polynomial1", "class": "NASAPolynomial", "Tmin_value": 10.0, "Tmin_units": "K", "Tmax_value": 665.6119573607981, "Tmax_units": "K", "coeffs": [4.047267123950612, -0.0035112205795783526, 2.9209038912273934e-05, -3.950927572732792e-08, 1.778588065042579e-11, -34914022.810182706, 5.313683473131262]}, {"name": "polynomial2", "class": "NASAPolynomial", "Tmin_value": 665.6119573607981, "Tmin_units": "K", "Tmax_value": 3000.0, "Tmax_units": "K", "coeffs": [2.5909426252403573, 0.008335164579484087, -4.461429138664964e-06, 1.1994618608209155e-09, -1.2757979590043561e-13, -34913897.49207891, 11.231863346789027]}]

>  <H298_value>  (4) 
-69378.91233580558

>  <H298_units>  (4) 
kcal/mol

>  <S298_value>  (4) 
56.254805565389056

>  <S298_units>  (4) 
cal/(mol*K)

>  <Cp_T_value_list>  (4) 
[9.339929456908315, 10.418824356350346, 11.459970768776328, 12.374007707406347, 13.842140108996867, 14.976701287129353, 16.807365327729478, 17.825189417534663, 18.373860556614055]

>  <Cp_T_units>  (4) 
cal/(mol*K)

>  <T_list>  (4) 
[300.0, 400.0, 500.0, 600.0, 800.0, 1000.0, 1500.0, 2000.0, 2400.0]

>  <T_units>  (4) 
K

>  <yaml_path>  (4) 
/home/calvin/Dropbox/PersonalFolders/Calvin/ATLAS_Converged/rmg_rxn_539/output/Species/rmg_rxn_539_p1_sbr-N-sbrN/rmg_rxn_539_p1_sbr-N-sbrN.yml

>  <frequencies_cm1>  (4) 
[723.4575044179599, 1085.5811082828398, 1237.95951253364, 1573.04092820836, 3402.19980789676, 3509.68872911072]

>  <ZPE_kJmol>  (4) 
68.97626445458796

>  <E_elec_kJmol>  (4) 
-290360.63513992657

>  <E0_minus_Eelec_plus_ZPE_kJmol>  (4) 
0.0

>  <rxn>  (4) 
rmg_rxn_539

>  <species_type>  (4) 
p0

>  <species_folder>  (4) 
rmg_rxn_539_p1_sbr-N-sbrN

>  <frequencies_cm1_list>  (4) 
[723.4575044179599, 1085.5811082828398, 1237.95951253364, 1573.04092820836, 3402.19980789676, 3509.68872911072]

>  <E0_kJmol>  (4) 
-290292

>  <H298_kJmol>  (4) 
-290281

$$$$

     RDKit          3D

 11 10  0  0  0  0  0  0  0  0999 V2000
    2.2312    0.7411   -0.3115 C   0  0  0  0  0  3  0  0  0  1  0  0
    0.6426    1.1039   -0.7896 S   0  0  0  0  0  0  0  0  0  2  0  0
    0.9085    2.4168   -2.0061 C   0  0  0  0  0  0  0  0  0  3  0  0
    1.5570    1.9429   -3.2967 C   0  0  0  0  0  0  0  0  0  4  0  0
    2.3707   -0.0938    0.3575 H   0  0  0  0  0  0  0  0  0  5  0  0
    3.0432    1.4267   -0.5066 H   0  0  0  0  0  0  0  0  0  6  0  0
    1.4997    3.2005   -1.5289 H   0  0  0  0  0  0  0  0  0  7  0  0
   -0.0844    2.8269   -2.1951 H   0  0  0  0  0  0  0  0  0  8  0  0
    0.9451    1.1830   -3.7838 H   0  0  0  0  0  0  0  0  0  9  0  0
    1.6803    2.7812   -3.9857 H   0  0  0  0  0  0  0  0  0 10  0  0
    2.5399    1.5119   -3.1043 H   0  0  0  0  0  0  0  0  0 11  0  0
  1  5  1  0
  1  2  1  0
  1  6  1  0
  2  3  1  0
  3  4  1  0
  3  7  1  0
  3  8  1  0
  4  9  1  0
  4 10  1  0
  4 11  1  0
M  RAD  1   1   2
M  END
>  <rmg_smiles>  (5) 
[CH2]SCC

>  <rmg_adjacency_list>  (5) 
multiplicity 2
1  S u0 p2 c0 {2,S} {4,S}
2  C u0 p0 c0 {1,S} {3,S} {5,S} {6,S}
3  C u0 p0 c0 {2,S} {7,S} {8,S} {9,S}
4  C u1 p0 c0 {1,S} {10,S} {11,S}
5  H u0 p0 c0 {2,S}
6  H u0 p0 c0 {2,S}
7  H u0 p0 c0 {3,S}
8  H u0 p0 c0 {3,S}
9  H u0 p0 c0 {3,S}
10 H u0 p0 c0 {4,S}
11 H u0 p0 c0 {4,S}


>  <multiplicity>  (5) 
2

>  <reaction>  (5) 
rmg_rxn_539

>  <type>  (5) 
r2

>  <role_mapnums>  (5) 
{}

>  <role_mapidx>  (5) 
{}

>  <ordered_mapped_smiles>  (5) 
[C:1]([S:2][C:3]([C:4]([H:9])([H:10])[H:11])([H:7])[H:8])([H:5])[H:6]

>  <level_of_theory>  (5) 
wb97xd/def2tzvp

>  <lot_method>  (5) 
wb97xd

>  <lot_basis>  (5) 
def2tzvp

>  <spin_multiplicity>  (5) 
2.0

>  <optical_isomers>  (5) 
2.0

>  <modes>  (5) 
IdealGasTranslation(mass=(75.0268, 'amu')),         NonlinearRotor(             inertia = ([46.1764, 125.175, 150.124

>  <frequency_value>  (5) 
unknown

>  <frequency_units>  (5) 
unknown

>  <frequency_list>  (5) 
unknown

>  <arkane_path>  (5) 
/home/calvin/Dropbox/PersonalFolders/Calvin/ATLAS_Converged/rmg_rxn_539/output/Species/rmg_rxn_539_r2_sbr-CH2-sbrSCC/arkane/output.py

>  <path_exists>  (5) 
True

>  <E0_value>  (5) 
-1356326.828812391

>  <E0_units>  (5) 
kJ/mol

>  <thermo_class>  (5) 
NASA

>  <Cp0_value>  (5) 
33.257888

>  <Cp0_units>  (5) 
J/(mol*K)

>  <CpInf_value>  (5) 
257.748632

>  <CpInf_units>  (5) 
J/(mol*K)

>  <Tmin_value>  (5) 
10.0

>  <Tmin_units>  (5) 
K

>  <Tmax_value>  (5) 
3000.0

>  <Tmax_units>  (5) 
K

>  <polynomials>  (5) 
[{"name": "polynomial1", "class": "NASAPolynomial", "Tmin_value": 10.0, "Tmin_units": "K", "Tmax_value": 163.4983384736605, "Tmax_units": "K", "coeffs": [3.8835361135606306, 0.01179835617528283, 0.0001860962387176214, -8.310788830243038e-07, 1.2781022117046402e-09, -163128450.95392784, 10.667754233192833]}, {"name": "polynomial2", "class": "NASAPolynomial", "Tmin_value": 163.4983384736605, "Tmin_units": "K", "Tmax_value": 3000.0, "Tmax_units": "K", "coeffs": [2.9698107402056713, 0.03415257681811664, -1.8989116425627386e-05, 5.154010868808518e-09, -5.461082436872671e-13, -163128421.07521912, 13.421243662452813]}]

>  <H298_value>  (5) 
-324165.39986954443

>  <H298_units>  (5) 
kcal/mol

>  <S298_value>  (5) 
78.93032022623957

>  <S298_units>  (5) 
cal/(mol*K)

>  <Cp_T_value_list>  (5) 
[23.133663311616047, 27.638980468817827, 31.614348268428742, 35.109498731473295, 40.84505297373627, 45.19140833090281, 51.87260315815638, 55.269883733256364, 57.01130488605395]

>  <Cp_T_units>  (5) 
cal/(mol*K)

>  <T_list>  (5) 
[300.0, 400.0, 500.0, 600.0, 800.0, 1000.0, 1500.0, 2000.0, 2400.0]

>  <T_units>  (5) 
K

>  <yaml_path>  (5) 
/home/calvin/Dropbox/PersonalFolders/Calvin/ATLAS_Converged/rmg_rxn_539/output/Species/rmg_rxn_539_r2_sbr-CH2-sbrSCC/rmg_rxn_539_r2_sbr-CH2-sbrSCC.yml

>  <frequencies_cm1>  (5) 
[110.60653254923999, 205.67307731931996, 220.086879506, 285.94813571012, 367.82320168047994, 369.88329727648, 670.6023184099199, 763.8628460408399, 854.34224461716, 913.1854418242399, 983.7231150312799, 1058.73119568164, 1076.4068158953198, 1269.6918516973599, 1295.3263078969198, 1396.0581155559998, 1402.33454013848, 1458.69188865972, 1476.6353213008802, 1485.0748462591598, 3018.4589342445192, 3035.15257555744, 3083.1459359589203, 3092.3408293024, 3109.00013568872, 3136.8045592493995, 3260.19741846448]

>  <ZPE_kJmol>  (5) 
235.6631361203891

>  <E_elec_kJmol>  (5) 
-1356562.4919485117

>  <E0_minus_Eelec_plus_ZPE_kJmol>  (5) 
0.0

>  <rxn>  (5) 
rmg_rxn_539

>  <species_type>  (5) 
r1

>  <species_folder>  (5) 
rmg_rxn_539_r2_sbr-CH2-sbrSCC

>  <frequencies_cm1_list>  (5) 
[110.60653254923999, 205.67307731931996, 220.086879506, 285.94813571012, 367.82320168047994, 369.88329727648, 670.6023184099199, 763.8628460408399, 854.34224461716, 913.1854418242399, 983.7231150312799, 1058.73119568164, 1076.4068158953198, 1269.6918516973599, 1295.3263078969198, 1396.0581155559998, 1402.33454013848, 1458.69188865972, 1476.6353213008802, 1485.0748462591598, 3018.4589342445192, 3035.15257555744, 3083.1459359589203, 3092.3408293024, 3109.00013568872, 3136.8045592493995, 3260.19741846448]

>  <E0_kJmol>  (5) 
-1.35633e+06

>  <H298_kJmol>  (5) 
-1.35631e+06

$$$$
