
     RDKit          3D

  9  8  0  0  0  0  0  0  0  0999 V2000
   -1.6530    0.9474   -0.0149 C   0  0  0  0  0  0  0  0  0  1  0  0
   -0.6251   -0.1300    0.0032 C   0  0  0  0  0  0  0  0  0  2  0  0
    0.6082    0.1627   -0.0038 N   0  0  0  0  0  0  0  0  0  3  0  0
    1.4427   -0.8858    0.0141 O   0  0  0  0  0  0  0  0  0  4  0  0
   -1.1779    1.9269   -0.0333 H   0  0  0  0  0  0  0  0  0  5  0  0
   -2.2973    0.8483   -0.8917 H   0  0  0  0  0  0  0  0  0  6  0  0
   -2.2949    0.8802    0.8667 H   0  0  0  0  0  0  0  0  0  7  0  0
   -0.9415   -1.1730    0.0226 H   0  0  0  0  0  0  0  0  0  8  0  0
    2.3192   -0.4942    0.0057 H   0  0  0  0  0  0  0  0  0  9  0  0
  1  5  1  0
  1  7  1  0
  1  6  1  0
  1  2  1  0
  2  3  1  0
  2  8  1  0
  3  4  1  0
  4  9  1  0
M  END
>  <rmg_smiles>  (1) 
C[CH][N]O

>  <rmg_adjacency_list>  (1) 
1 O u0 p2 c0 {2,S} {9,S}
2 N u0 p1 c0 {1,S} {4,S}
3 C u0 p0 c0 {4,S} {5,S} {6,S} {7,S}
4 C u0 p0 c0 {2,S} {3,S} {8,S}
5 H u0 p0 c0 {3,S}
6 H u0 p0 c0 {3,S}
7 H u0 p0 c0 {3,S}
8 H u0 p0 c0 {4,S}
9 H u0 p0 c0 {1,S}


>  <multiplicity>  (1) 
1

>  <reaction>  (1) 
rmg_rxn_15402

>  <type>  (1) 
r1h

>  <role_mapnums>  (1) 
{"r1h_a": 4, "r1h_h": 9}

>  <role_mapidx>  (1) 
{"r1h_a": 3, "r1h_h": 8}

>  <ordered_mapped_smiles>  (1) 
[C:1]([CH:2]([NH:3][O:4][H:9])[H:8])([H:5])([H:6])[H:7]

>  <mol_properties>  (1) 
{"3": {"label": "donator", "atom_type": "O2s"}, "8": {"label": "d_hydrogen", "atom_type": "H0"}}

>  <level_of_theory>  (1) 
wb97xd/def2tzvp

>  <lot_method>  (1) 
wb97xd

>  <lot_basis>  (1) 
def2tzvp

>  <spin_multiplicity>  (1) 
1.0

>  <optical_isomers>  (1) 
1.0

>  <modes>  (1) 
IdealGasTranslation(mass=(59.0371, 'amu')),         NonlinearRotor(             inertia = ([10.7603, 118.091, 125.733

>  <frequency_value>  (1) 
unknown

>  <frequency_units>  (1) 
unknown

>  <frequency_list>  (1) 
unknown

>  <arkane_path>  (1) 
/home/calvin/Dropbox/PersonalFolders/Calvin/ZEUS_Converged/rmg_rxn_15402/output/Species/rmg_rxn_15402_r2_CC=NO/arkane/output.py

>  <path_exists>  (1) 
True

>  <E0_value>  (1) 
-548937.8541984439

>  <E0_units>  (1) 
kJ/mol

>  <thermo_class>  (1) 
NASA

>  <Cp0_value>  (1) 
33.257888

>  <Cp0_units>  (1) 
J/(mol*K)

>  <CpInf_value>  (1) 
207.8618

>  <CpInf_units>  (1) 
J/(mol*K)

>  <Tmin_value>  (1) 
10.0

>  <Tmin_units>  (1) 
K

>  <Tmax_value>  (1) 
3000.0

>  <Tmax_units>  (1) 
K

>  <polynomials>  (1) 
[{"name": "polynomial1", "class": "NASAPolynomial", "Tmin_value": 10.0, "Tmin_units": "K", "Tmax_value": 335.1939329104224, "Tmax_units": "K", "coeffs": [3.936343844815635, 0.004744371785792542, 9.160775245987526e-05, -2.106185998964965e-07, 1.600643179309797e-10, -66021973.16951801, 8.12049453136593]}, {"name": "polynomial2", "class": "NASAPolynomial", "Tmin_value": 335.1939329104224, "Tmin_units": "K", "Tmax_value": 3000.0, "Tmax_units": "K", "coeffs": [1.9092585005537301, 0.028934363387901348, -1.664293652192266e-05, 4.6809404676970584e-09, -5.139628530616031e-13, -66021837.27612672, 15.684312742261218]}]

>  <H298_value>  (1) 
-131195.61443864164

>  <H298_units>  (1) 
kcal/mol

>  <S298_value>  (1) 
68.52934918863554

>  <S298_units>  (1) 
cal/(mol*K)

>  <Cp_T_value_list>  (1) 
[18.310462260817864, 22.07102178299908, 25.374045525016978, 28.2638253140973, 32.97052238349556, 36.50033928354608, 41.851430449468694, 44.57375180807939, 45.99525239625641]

>  <Cp_T_units>  (1) 
cal/(mol*K)

>  <T_list>  (1) 
[300.0, 400.0, 500.0, 600.0, 800.0, 1000.0, 1500.0, 2000.0, 2400.0]

>  <T_units>  (1) 
K

>  <yaml_path>  (1) 
/home/calvin/Dropbox/PersonalFolders/Calvin/ZEUS_Converged/rmg_rxn_15402/output/Species/rmg_rxn_15402_r2_CC=NO/rmg_rxn_15402_r2_CC=NO.yml

>  <frequencies_cm1>  (1) 
[197.06187772804, 291.09837470012, 328.62644947392, 407.23283043195994, 570.83188869564, 914.3734302846, 916.92108183832, 1038.1439736922798, 1079.0094033316, 1148.38655601956, 1286.64643845244, 1390.76366987428, 1438.44801593636, 1464.57689507896, 1470.4000986303201, 1752.33104792824, 3016.9275965181596, 3076.79397453792, 3080.3236049924, 3121.5941867655997, 3848.4577159022797]

>  <ZPE_kJmol>  (1) 
190.43926148497908

>  <E_elec_kJmol>  (1) 
-549128.293459929

>  <E0_minus_Eelec_plus_ZPE_kJmol>  (1) 
0.0

>  <rxn>  (1) 
rmg_rxn_15402

>  <species_type>  (1) 
r1

>  <species_folder>  (1) 
rmg_rxn_15402_r2_CC=NO

>  <frequencies_cm1_list>  (1) 
[197.06187772804, 291.09837470012, 328.62644947392, 407.23283043195994, 570.83188869564, 914.3734302846, 916.92108183832, 1038.1439736922798, 1079.0094033316, 1148.38655601956, 1286.64643845244, 1390.76366987428, 1438.44801593636, 1464.57689507896, 1470.4000986303201, 1752.33104792824, 3016.9275965181596, 3076.79397453792, 3080.3236049924, 3121.5941867655997, 3848.4577159022797]

>  <E0_kJmol>  (1) 
-548938

>  <H298_kJmol>  (1) 
-548922

$$$$

     RDKit          3D

  6  5  0  0  0  0  0  0  0  0999 V2000
    1.0543    0.3491   -0.0078 O   0  0  0  0  0  0  0  0  0  1  0  0
   -0.0658   -0.4745    0.0087 N   0  0  0  0  0  0  0  0  0  2  0  0
   -1.1653    0.0772    0.0002 C   0  0  0  0  0  0  0  0  0  3  0  0
    1.7827   -0.2770    0.0025 H   0  0  0  0  0  0  0  0  0  4  0  0
   -1.4601    1.1273   -0.0184 H   0  0  0  0  0  0  0  0  0  5  0  0
   -2.0497   -0.5612    0.0130 H   0  0  0  0  0  0  0  0  0  6  0  0
  1  4  1  0
  1  2  1  0
  2  3  1  0
  3  6  1  0
  3  5  1  0
M  END
>  <rmg_smiles>  (2) 
[CH2][N]O

>  <rmg_adjacency_list>  (2) 
1 O u0 p2 c0 {2,S} {6,S}
2 N u0 p1 c0 {1,S} {3,S}
3 C u0 p0 c0 {2,S} {4,S} {5,S}
4 H u0 p0 c0 {3,S}
5 H u0 p0 c0 {3,S}
6 H u0 p0 c0 {1,S}


>  <multiplicity>  (2) 
1

>  <reaction>  (2) 
rmg_rxn_15402

>  <type>  (2) 
r2h

>  <role_mapnums>  (2) 
{"r2h_a": 3, "r2h_h": 6}

>  <role_mapidx>  (2) 
{"r2h_a": 2, "r2h_h": 5}

>  <ordered_mapped_smiles>  (2) 
[O:1]([NH:2][CH:3]([H:5])[H:6])[H:4]

>  <mol_properties>  (2) 
{"2": {"label": "acceptor", "atom_type": "Cs"}, "5": {"label": "a_hydrogen", "atom_type": "H0"}}

>  <level_of_theory>  (2) 
wb97xd/def2tzvp

>  <lot_method>  (2) 
wb97xd

>  <lot_basis>  (2) 
def2tzvp

>  <spin_multiplicity>  (2) 
1.0

>  <optical_isomers>  (2) 
1.0

>  <modes>  (2) 
IdealGasTranslation(mass=(45.0215, 'amu')),         NonlinearRotor(             inertia = ([7.10552, 42.1368, 49.2423

>  <frequency_value>  (2) 
unknown

>  <frequency_units>  (2) 
unknown

>  <frequency_list>  (2) 
unknown

>  <arkane_path>  (2) 
/home/calvin/Dropbox/PersonalFolders/Calvin/ZEUS_Converged/rmg_rxn_15402/output/Species/rmg_rxn_15402_p1_ON=C/arkane/output.py

>  <path_exists>  (2) 
True

>  <E0_value>  (2) 
-445765.04652910994

>  <E0_units>  (2) 
kJ/mol

>  <thermo_class>  (2) 
NASA

>  <Cp0_value>  (2) 
33.257888

>  <Cp0_units>  (2) 
J/(mol*K)

>  <CpInf_value>  (2) 
133.031552

>  <CpInf_units>  (2) 
J/(mol*K)

>  <Tmin_value>  (2) 
10.0

>  <Tmin_units>  (2) 
K

>  <Tmax_value>  (2) 
3000.0

>  <Tmax_units>  (2) 
K

>  <polynomials>  (2) 
[{"name": "polynomial1", "class": "NASAPolynomial", "Tmin_value": 10.0, "Tmin_units": "K", "Tmax_value": 555.0008285415723, "Tmax_units": "K", "coeffs": [4.0729558966761115, -0.006525504673073184, 8.044401869233928e-05, -1.3643340673050255e-07, 7.605604608176978e-11, -53613151.050707266, 6.598063650688069]}, {"name": "polynomial2", "class": "NASAPolynomial", "Tmin_value": 555.0008285415723, "Tmin_units": "K", "Tmax_value": 3000.0, "Tmax_units": "K", "coeffs": [1.9629419554542669, 0.01794293278685335, -1.0716899102514014e-05, 3.1351804200574135e-09, -3.5588210478784073e-13, -53613059.472560614, 14.250328412630774]}]

>  <H298_value>  (2) 
-106537.6194767193

>  <H298_units>  (2) 
kcal/mol

>  <S298_value>  (2) 
60.36296822828259

>  <S298_units>  (2) 
cal/(mol*K)

>  <Cp_T_value_list>  (2) 
[12.494795700177992, 15.001608210431446, 17.130783734283074, 18.881829280437152, 21.69615330289245, 23.7834318087242, 26.9145239767162, 28.553257692891545, 29.47039525924992]

>  <Cp_T_units>  (2) 
cal/(mol*K)

>  <T_list>  (2) 
[300.0, 400.0, 500.0, 600.0, 800.0, 1000.0, 1500.0, 2000.0, 2400.0]

>  <T_units>  (2) 
K

>  <yaml_path>  (2) 
/home/calvin/Dropbox/PersonalFolders/Calvin/ZEUS_Converged/rmg_rxn_15402/output/Species/rmg_rxn_15402_p1_ON=C/rmg_rxn_15402_p1_ON=C.yml

>  <frequencies_cm1>  (2) 
[438.20980121048, 539.7244451960399, 801.7205361099999, 965.59427378648, 986.4836431299199, 1183.2914424011199, 1353.5034075279598, 1444.4016922088, 1728.97643085492, 3083.6403589019596, 3214.03754314344, 3841.1169085952]

>  <ZPE_kJmol>  (2) 
117.11863122037906

>  <E_elec_kJmol>  (2) 
-445882.1651603303

>  <E0_minus_Eelec_plus_ZPE_kJmol>  (2) 
0.0

>  <rxn>  (2) 
rmg_rxn_15402

>  <species_type>  (2) 
p0

>  <species_folder>  (2) 
rmg_rxn_15402_p1_ON=C

>  <frequencies_cm1_list>  (2) 
[438.20980121048, 539.7244451960399, 801.7205361099999, 965.59427378648, 986.4836431299199, 1183.2914424011199, 1353.5034075279598, 1444.4016922088, 1728.97643085492, 3083.6403589019596, 3214.03754314344, 3841.1169085952]

>  <E0_kJmol>  (2) 
-445765

>  <H298_kJmol>  (2) 
-445753

$$$$

     RDKit          3D

 14 12  0  0  0  0  0  0  0  0999 V2000
    3.7563    0.5228   -0.0121 O   0  0  0  0  0  0  0  0  0  1  0  0
    2.6362   -0.3008    0.0044 N   0  0  0  0  0  0  0  0  0  2  0  0
    1.5367    0.2509   -0.0040 C   0  0  0  0  0  3  0  0  0  3  0  0
    4.4847   -0.1033   -0.0017 H   0  0  0  0  0  0  0  0  0  4  0  0
    1.2419    1.3010   -0.0227 H   0  0  0  0  0  0  0  0  0  5  0  0
   -3.7054    0.8226   -0.0071 C   0  0  0  0  0  0  0  0  0  6  0  0
   -2.6775   -0.2548    0.0110 C   0  0  0  0  0  0  0  0  0  7  0  0
   -1.4442    0.0379    0.0040 N   0  0  0  0  0  0  0  0  0  8  0  0
   -0.6097   -1.0106    0.0218 O   0  0  0  0  0  0  0  0  0  9  0  0
   -3.2303    1.8020   -0.0256 H   0  0  0  0  0  0  0  0  0 10  0  0
   -4.3497    0.7234   -0.8839 H   0  0  0  0  0  0  0  0  0 11  0  0
   -4.3473    0.7553    0.8745 H   0  0  0  0  0  0  0  0  0 12  0  0
   -2.9939   -1.2978    0.0304 H   0  0  0  0  0  0  0  0  0 13  0  0
    0.4365   -0.5433    0.0119 H   0  0  0  0  0  0  0  0  0 14  0  0
  1  4  1  0
  1  2  1  0
  2  3  1  0
  3  5  1  0
  6  7  1  0
  6 11  1  0
  6 12  1  0
  6 10  1  0
  7 13  1  0
  7  8  1  0
  8  9  1  0
  9 14  1  0
M  RAD  1   3   2
M  END
>  <rmg_smiles>  (3) 
C[CH][N]O.[CH][N]O

>  <rmg_adjacency_list>  (3) 
multiplicity 2
1  O u0 p2 c0 {3,S} {14,S}
2  O u0 p2 c0 {4,S} {12,S}
3  N u0 p1 c0 {1,S} {6,S}
4  N u0 p1 c0 {2,S} {7,S}
5  C u0 p0 c0 {6,S} {8,S} {9,S} {10,S}
6  C u0 p0 c0 {3,S} {5,S} {11,S}
7  C u1 p1 c0 {4,S} {13,S}
8  H u0 p0 c0 {5,S}
9  H u0 p0 c0 {5,S}
10 H u0 p0 c0 {5,S}
11 H u0 p0 c0 {6,S}
12 H u0 p0 c0 {2,S}
13 H u0 p0 c0 {7,S}
14 H u0 p0 c0 {1,S}


>  <multiplicity>  (3) 
2

>  <reaction>  (3) 
rmg_rxn_15402

>  <type>  (3) 
ts

>  <role_mapnums>  (3) 
{"*2": 14, "*1": 9, "*3": 3, "*0": 8, "*4": 2}

>  <role_mapidx>  (3) 
{"*2": 13, "*1": 8, "*3": 2, "*0": 7, "*4": 1}

>  <ordered_mapped_smiles>  (3) 
[O:1]([NH:2][CH:3][H:5])[H:4].[C:6]([CH:7]([NH:8][O:9][H:14])[H:13])([H:10])([H:11])[H:12]

>  <mol_properties>  (3) 
{"1": {"label": "*4", "atom_type": "N3s"}, "2": {"label": "*3", "atom_type": "C2s"}, "7": {"label": "*0", "atom_type": "N3s"}, "8": {"label": "*1", "atom_type": "O2s"}, "13": {"label": "*2", "atom_type": "H0"}}

>  <level_of_theory>  (3) 
wb97xd/def2tzvp

>  <lot_method>  (3) 
wb97xd

>  <lot_basis>  (3) 
def2tzvp

>  <spin_multiplicity>  (3) 
2.0

>  <optical_isomers>  (3) 
1.0

>  <modes>  (3) 
IdealGasTranslation(mass=(103.051, 'amu')),         NonlinearRotor(             inertia = ([41.2918, 718.521, 756.691

>  <frequency_value>  (3) 
-2003.94

>  <frequency_units>  (3) 
cm^-1

>  <frequency_list>  (3) 
unknown

>  <arkane_path>  (3) 
/home/calvin/Dropbox/PersonalFolders/Calvin/ZEUS_Converged/rmg_rxn_15402/output/rxns/TS0/arkane/output.py

>  <path_exists>  (3) 
True

>  <E0_value>  (3) 
-992928.0

>  <E0_units>  (3) 
kJ/mol

>  <thermo_class>  (3) 
unknown

>  <Cp0_value>  (3) 
unknown

>  <Cp0_units>  (3) 
unknown

>  <CpInf_value>  (3) 
unknown

>  <CpInf_units>  (3) 
unknown

>  <Tmin_value>  (3) 
unknown

>  <Tmin_units>  (3) 
unknown

>  <Tmax_value>  (3) 
unknown

>  <Tmax_units>  (3) 
unknown

>  <polynomials>  (3) 
unknown

>  <H298_value>  (3) 
unknown

>  <H298_units>  (3) 
unknown

>  <S298_value>  (3) 
unknown

>  <S298_units>  (3) 
unknown

>  <Cp_T_value_list>  (3) 
unknown

>  <Cp_T_units>  (3) 
unknown

>  <T_list>  (3) 
unknown

>  <T_units>  (3) 
unknown

>  <yaml_path>  (3) 
unknown

>  <frequencies_cm1>  (3) 
unknown

>  <ZPE_kJmol>  (3) 
unknown

>  <E_elec_kJmol>  (3) 
unknown

>  <E0_minus_Eelec_plus_ZPE_kJmol>  (3) 
unknown

>  <rxn>  (3) 
unknown

>  <species_type>  (3) 
unknown

>  <species_folder>  (3) 
unknown

>  <frequencies_cm1_list>  (3) 
[]

>  <ts_imag_freq_cm1>  (3) 
-2028.2805

>  <ts_freq_out_path>  (3) 
/home/calvin/Dropbox/PersonalFolders/Calvin/ZEUS_Converged/rmg_rxn_15402/output/rxns/TS0/geometry/freq.out

>  <E0_kJmol>  (3) 
-992928

>  <H298_kJmol>  (3) 
unknown

$$$$

     RDKit          3D

  8  7  0  0  0  0  0  0  0  0999 V2000
   -0.9728    0.1768    0.1542 C   0  0  0  0  0  0  0  0  0  1  0  0
    0.4518   -0.2348    0.0047 C   0  0  0  0  0  0  0  0  0  2  0  0
    1.3116    0.0208    0.9062 N   0  0  0  0  0  0  0  0  0  3  0  0
    2.5018   -0.1901    1.0428 O   0  0  0  0  0  1  0  0  0  4  0  0
   -1.2701    0.8423   -0.6593 H   0  0  0  0  0  0  0  0  0  5  0  0
   -1.6318   -0.6936    0.1212 H   0  0  0  0  0  0  0  0  0  6  0  0
   -1.1258    0.6936    1.1003 H   0  0  0  0  0  0  0  0  0  7  0  0
    0.7882   -0.7655   -0.8838 H   0  0  0  0  0  0  0  0  0  8  0  0
  1  5  1  0
  1  7  1  0
  1  6  1  0
  1  2  1  0
  2  3  1  0
  2  8  1  0
  3  4  1  0
M  RAD  1   4   2
M  END
>  <rmg_smiles>  (4) 
C[CH][N][O]

>  <rmg_adjacency_list>  (4) 
multiplicity 2
1 O u1 p2 c0 {2,S}
2 N u0 p1 c0 {1,S} {4,S}
3 C u0 p0 c0 {4,S} {5,S} {6,S} {7,S}
4 C u0 p0 c0 {2,S} {3,S} {8,S}
5 H u0 p0 c0 {3,S}
6 H u0 p0 c0 {3,S}
7 H u0 p0 c0 {3,S}
8 H u0 p0 c0 {4,S}


>  <multiplicity>  (4) 
2

>  <reaction>  (4) 
rmg_rxn_15402

>  <type>  (4) 
r1

>  <role_mapnums>  (4) 
{}

>  <role_mapidx>  (4) 
{}

>  <ordered_mapped_smiles>  (4) 
[C:1]([CH:2]([NH:3][O:4])[H:8])([H:5])([H:6])[H:7]

>  <level_of_theory>  (4) 
wb97xd/def2tzvp

>  <lot_method>  (4) 
wb97xd

>  <lot_basis>  (4) 
def2tzvp

>  <spin_multiplicity>  (4) 
2.0

>  <optical_isomers>  (4) 
1.0

>  <modes>  (4) 
IdealGasTranslation(mass=(58.0293, 'amu')),         NonlinearRotor(             inertia = ([9.31113, 114.15, 120.338

>  <frequency_value>  (4) 
unknown

>  <frequency_units>  (4) 
unknown

>  <frequency_list>  (4) 
unknown

>  <arkane_path>  (4) 
/home/calvin/Dropbox/PersonalFolders/Calvin/ZEUS_Converged/rmg_rxn_15402/output/Species/rmg_rxn_15402_p2_CC=Nsbr-O-sbr/arkane/output.py

>  <path_exists>  (4) 
True

>  <E0_value>  (4) 
-547291.9822369831

>  <E0_units>  (4) 
kJ/mol

>  <thermo_class>  (4) 
NASA

>  <Cp0_value>  (4) 
33.257888

>  <Cp0_units>  (4) 
J/(mol*K)

>  <CpInf_value>  (4) 
182.918384

>  <CpInf_units>  (4) 
J/(mol*K)

>  <Tmin_value>  (4) 
10.0

>  <Tmin_units>  (4) 
K

>  <Tmax_value>  (4) 
3000.0

>  <Tmax_units>  (4) 
K

>  <polynomials>  (4) 
[{"name": "polynomial1", "class": "NASAPolynomial", "Tmin_value": 10.0, "Tmin_units": "K", "Tmax_value": 448.4732957312613, "Tmax_units": "K", "coeffs": [3.888771944514964, 0.008399181882535616, 4.2342226712376874e-05, -8.042507087222311e-08, 4.661997992386095e-11, -65824018.562715515, 8.78767455784352]}, {"name": "polynomial2", "class": "NASAPolynomial", "Tmin_value": 448.4732957312613, "Tmin_units": "K", "Tmax_value": 3000.0, "Tmax_units": "K", "coeffs": [1.985749113664853, 0.025372622041391936, -1.4428834992695876e-05, 3.9669993753793015e-09, -4.2437665417429117e-13, -65823847.87270285, 16.442603141274148]}]

>  <H298_value>  (4) 
-130802.40292482237

>  <H298_units>  (4) 
kcal/mol

>  <S298_value>  (4) 
68.97171532665902

>  <S298_units>  (4) 
cal/(mol*K)

>  <Cp_T_value_list>  (4) 
[16.743152408551065, 20.01011211524603, 22.920842722371233, 25.46965688099217, 29.622634222477387, 32.73358121820271, 37.39926514290303, 39.667864534894704, 40.797255944280224]

>  <Cp_T_units>  (4) 
cal/(mol*K)

>  <T_list>  (4) 
[300.0, 400.0, 500.0, 600.0, 800.0, 1000.0, 1500.0, 2000.0, 2400.0]

>  <T_units>  (4) 
K

>  <yaml_path>  (4) 
/home/calvin/Dropbox/PersonalFolders/Calvin/ZEUS_Converged/rmg_rxn_15402/output/Species/rmg_rxn_15402_p2_CC=Nsbr-O-sbr/rmg_rxn_15402_p2_CC=Nsbr-O-sbr.yml

>  <frequencies_cm1>  (4) 
[167.29349636583999, 305.41603909232, 336.48228068, 536.4488931984, 789.99859216876, 920.0661611148798, 1055.0848264767199, 1131.0542850718798, 1256.94672694344, 1389.69928714968, 1433.0368315041999, 1463.78719176716, 1488.27486141828, 1754.1988679352798, 3017.2297438722394, 3076.07294107932, 3099.7159715360795, 3119.71263278792]

>  <ZPE_kJmol>  (4) 
157.55134027947926

>  <E_elec_kJmol>  (4) 
-547449.5335772627

>  <E0_minus_Eelec_plus_ZPE_kJmol>  (4) 
0.0

>  <rxn>  (4) 
rmg_rxn_15402

>  <species_type>  (4) 
p1

>  <species_folder>  (4) 
rmg_rxn_15402_p2_CC=Nsbr-O-sbr

>  <frequencies_cm1_list>  (4) 
[167.29349636583999, 305.41603909232, 336.48228068, 536.4488931984, 789.99859216876, 920.0661611148798, 1055.0848264767199, 1131.0542850718798, 1256.94672694344, 1389.69928714968, 1433.0368315041999, 1463.78719176716, 1488.27486141828, 1754.1988679352798, 3017.2297438722394, 3076.07294107932, 3099.7159715360795, 3119.71263278792]

>  <E0_kJmol>  (4) 
-547292

>  <H298_kJmol>  (4) 
-547277

$$$$

     RDKit          3D

  5  4  0  0  0  0  0  0  0  0999 V2000
    0.8934    0.3742    0.4948 O   0  0  0  0  0  0  0  0  0  1  0  0
    0.1582   -0.1610   -0.5904 N   0  0  0  0  0  0  0  0  0  2  0  0
   -1.0297   -0.3739   -0.4689 C   0  0  0  0  0  3  0  0  0  3  0  0
    1.7805    0.4382    0.1306 H   0  0  0  0  0  0  0  0  0  4  0  0
   -1.8023   -0.2775    0.2859 H   0  0  0  0  0  0  0  0  0  5  0  0
  1  4  1  0
  1  2  1  0
  2  3  1  0
  3  5  1  0
M  RAD  1   3   2
M  END
>  <rmg_smiles>  (5) 
[CH][N]O

>  <rmg_adjacency_list>  (5) 
multiplicity 2
1 O u0 p2 c0 {2,S} {4,S}
2 N u0 p1 c0 {1,S} {3,S}
3 C u1 p1 c0 {2,S} {5,S}
4 H u0 p0 c0 {1,S}
5 H u0 p0 c0 {3,S}


>  <multiplicity>  (5) 
2

>  <reaction>  (5) 
rmg_rxn_15402

>  <type>  (5) 
r2

>  <role_mapnums>  (5) 
{}

>  <role_mapidx>  (5) 
{}

>  <ordered_mapped_smiles>  (5) 
[O:1]([NH:2][CH:3][H:5])[H:4]

>  <level_of_theory>  (5) 
wb97xd/def2tzvp

>  <lot_method>  (5) 
wb97xd

>  <lot_basis>  (5) 
def2tzvp

>  <spin_multiplicity>  (5) 
2.0

>  <optical_isomers>  (5) 
1.0

>  <modes>  (5) 
IdealGasTranslation(mass=(44.0136, 'amu')),         NonlinearRotor(             inertia = ([5.81591, 41.4826, 47.2985

>  <frequency_value>  (5) 
unknown

>  <frequency_units>  (5) 
unknown

>  <frequency_list>  (5) 
unknown

>  <arkane_path>  (5) 
/home/calvin/Dropbox/PersonalFolders/Calvin/ZEUS_Converged/rmg_rxn_15402/output/Species/rmg_rxn_15402_r1_ON=sbr-CH-sbr/arkane/output.py

>  <path_exists>  (5) 
True

>  <E0_value>  (5) 
-444005.359324532

>  <E0_units>  (5) 
kJ/mol

>  <thermo_class>  (5) 
NASA

>  <Cp0_value>  (5) 
33.257888

>  <Cp0_units>  (5) 
J/(mol*K)

>  <CpInf_value>  (5) 
108.088136

>  <CpInf_units>  (5) 
J/(mol*K)

>  <Tmin_value>  (5) 
10.0

>  <Tmin_units>  (5) 
K

>  <Tmax_value>  (5) 
3000.0

>  <Tmax_units>  (5) 
K

>  <polynomials>  (5) 
[{"name": "polynomial1", "class": "NASAPolynomial", "Tmin_value": 10.0, "Tmin_units": "K", "Tmax_value": 581.5521855773558, "Tmax_units": "K", "coeffs": [3.9651854378376354, 0.0020096300724220997, 4.068547950040168e-05, -7.790242028845132e-08, 4.4772375189871534e-11, -53401508.17068676, 6.828671301777145]}, {"name": "polynomial2", "class": "NASAPolynomial", "Tmin_value": 581.5521855773558, "Tmin_units": "K", "Tmax_value": 3000.0, "Tmax_units": "K", "coeffs": [3.5849357627708427, 0.012844035212889389, -8.4590302800557e-06, 2.7367089532336234e-09, -3.401217371194876e-13, -53401602.928060964, 7.262096783490094]}]

>  <H298_value>  (5) 
-106116.84893693788

>  <H298_units>  (5) 
kcal/mol

>  <S298_value>  (5) 
62.05085615552054

>  <S298_units>  (5) 
cal/(mol*K)

>  <Cp_T_value_list>  (5) 
[12.895099247909474, 14.783091657217865, 16.298752276569193, 17.47381546838603, 19.292328661132526, 20.6004316585094, 22.520408903315662, 23.62512089396801, 24.312373577063074]

>  <Cp_T_units>  (5) 
cal/(mol*K)

>  <T_list>  (5) 
[300.0, 400.0, 500.0, 600.0, 800.0, 1000.0, 1500.0, 2000.0, 2400.0]

>  <T_units>  (5) 
K

>  <yaml_path>  (5) 
/home/calvin/Dropbox/PersonalFolders/Calvin/ZEUS_Converged/rmg_rxn_15402/output/Species/rmg_rxn_15402_r1_ON=sbr-CH-sbr/rmg_rxn_15402_r1_ON=sbr-CH-sbr.yml

>  <frequencies_cm1>  (5) 
[407.41137205027997, 410.42597860575995, 739.51938308144, 761.67227772376, 903.0703724478799, 1348.68965081864, 1755.81260948548, 3154.3291057860397, 3817.47387813844]

>  <ZPE_kJmol>  (5) 
79.54214655441899

>  <E_elec_kJmol>  (5) 
-444084.9014710864

>  <E0_minus_Eelec_plus_ZPE_kJmol>  (5) 
0.0

>  <rxn>  (5) 
rmg_rxn_15402

>  <species_type>  (5) 
r0

>  <species_folder>  (5) 
rmg_rxn_15402_r1_ON=sbr-CH-sbr

>  <frequencies_cm1_list>  (5) 
[407.41137205027997, 410.42597860575995, 739.51938308144, 761.67227772376, 903.0703724478799, 1348.68965081864, 1755.81260948548, 3154.3291057860397, 3817.47387813844]

>  <E0_kJmol>  (5) 
-444005

>  <H298_kJmol>  (5) 
-443993

$$$$
