
     RDKit          3D

 14 14  0  0  0  0  0  0  0  0999 V2000
    0.1651   -1.4442    0.0635 C   0  0  0  0  0  0  0  0  0  1  0  0
   -0.1565   -0.5951    1.2832 C   0  0  0  0  0  0  0  0  0  2  0  0
   -0.8510    0.5793    0.8958 O   0  0  0  0  0  0  0  0  0  3  0  0
   -0.1684    1.2999   -0.0660 C   0  0  0  0  0  0  0  0  0  4  0  0
    0.1198    0.5982   -1.2207 O   0  0  0  0  0  0  0  0  0  5  0  0
    0.8734   -0.5751   -0.9638 C   0  0  0  0  0  0  0  0  0  6  0  0
    0.7959   -2.2900    0.3452 H   0  0  0  0  0  0  0  0  0  7  0  0
   -0.7607   -1.8342   -0.3644 H   0  0  0  0  0  0  0  0  0  8  0  0
   -0.8038   -1.1186    1.9851 H   0  0  0  0  0  0  0  0  0  9  0  0
    0.7668   -0.3128    1.8064 H   0  0  0  0  0  0  0  0  0 10  0  0
    0.7769    1.6326    0.3562 H   0  0  0  0  0  0  0  0  0 11  0  0
   -0.7472    2.1840   -0.3232 H   0  0  0  0  0  0  0  0  0 12  0  0
    1.8706   -0.2935   -0.5998 H   0  0  0  0  0  0  0  0  0 13  0  0
    0.9866   -1.0844   -1.9196 H   0  0  0  0  0  0  0  0  0 14  0  0
  1  8  1  0
  1  7  1  0
  1  6  1  0
  1  2  1  0
  2 10  1  0
  2  9  1  0
  2  3  1  0
  3  4  1  0
  4 11  1  0
  4 12  1  0
  4  5  1  0
  5  6  1  0
  6 14  1  0
  6 13  1  0
M  END
>  <rmg_smiles>  (1) 
C1COCOC1

>  <rmg_adjacency_list>  (1) 
1  O u0 p2 c0 {4,S} {6,S}
2  O u0 p2 c0 {5,S} {6,S}
3  C u0 p0 c0 {4,S} {5,S} {7,S} {8,S}
4  C u0 p0 c0 {1,S} {3,S} {9,S} {10,S}
5  C u0 p0 c0 {2,S} {3,S} {11,S} {12,S}
6  C u0 p0 c0 {1,S} {2,S} {13,S} {14,S}
7  H u0 p0 c0 {3,S}
8  H u0 p0 c0 {3,S}
9  H u0 p0 c0 {4,S}
10 H u0 p0 c0 {4,S}
11 H u0 p0 c0 {5,S}
12 H u0 p0 c0 {5,S}
13 H u0 p0 c0 {6,S}
14 H u0 p0 c0 {6,S}


>  <multiplicity>  (1) 
1

>  <reaction>  (1) 
rmg_rxn_43

>  <type>  (1) 
r1h

>  <role_mapnums>  (1) 
{"r1h_a": 4, "r1h_h": 11}

>  <role_mapidx>  (1) 
{"r1h_a": 3, "r1h_h": 10}

>  <ordered_mapped_smiles>  (1) 
[C:1]1([H:7])([H:8])[C:2]([H:9])([H:10])[O:3][C:4]([H:11])([H:12])[O:5][C:6]1([H:13])[H:14]

>  <mol_properties>  (1) 
{"3": {"label": "donator", "atom_type": "Cs"}, "10": {"label": "d_hydrogen", "atom_type": "H0"}}

>  <level_of_theory>  (1) 
wb97xd/def2tzvp

>  <lot_method>  (1) 
wb97xd

>  <lot_basis>  (1) 
def2tzvp

>  <spin_multiplicity>  (1) 
1.0

>  <optical_isomers>  (1) 
1.0

>  <modes>  (1) 
IdealGasTranslation(mass=(88.0524, 'amu')),         NonlinearRotor(             inertia = ([100.123, 103.988, 181.806

>  <frequency_value>  (1) 
unknown

>  <frequency_units>  (1) 
unknown

>  <frequency_list>  (1) 
unknown

>  <arkane_path>  (1) 
/home/calvin/Dropbox/PersonalFolders/Calvin/ATLAS_Converged/rmg_rxn_43/output/Species/rmg_rxn_43_r1_C1COCOC1/arkane/output.py

>  <path_exists>  (1) 
True

>  <E0_value>  (1) 
-807534.4862541369

>  <E0_units>  (1) 
kJ/mol

>  <thermo_class>  (1) 
NASA

>  <Cp0_value>  (1) 
33.257888

>  <Cp0_units>  (1) 
J/(mol*K)

>  <CpInf_value>  (1) 
332.57888

>  <CpInf_units>  (1) 
J/(mol*K)

>  <Tmin_value>  (1) 
10.0

>  <Tmin_units>  (1) 
K

>  <Tmax_value>  (1) 
3000.0

>  <Tmax_units>  (1) 
K

>  <polynomials>  (1) 
[{"name": "polynomial1", "class": "NASAPolynomial", "Tmin_value": 10.0, "Tmin_units": "K", "Tmax_value": 635.616554573151, "Tmax_units": "K", "coeffs": [4.089858497697602, -0.00720848048360332, 0.00016188875003168496, -2.401508213073996e-07, 1.1440937882219611e-10, -97123964.81365098, 9.940070949440356]}, {"name": "polynomial2", "class": "NASAPolynomial", "Tmin_value": 635.616554573151, "Tmin_units": "K", "Tmax_value": 3000.0, "Tmax_units": "K", "coeffs": [-3.6233751272420895, 0.05886750722676344, -3.5427870905530145e-05, 1.0209382893823142e-08, -1.1338653155444558e-12, -97123338.5127768, 40.87012283464024]}]

>  <H298_value>  (1) 
-193001.58453999052

>  <H298_units>  (1) 
kcal/mol

>  <S298_value>  (1) 
72.30963326519604

>  <S298_units>  (1) 
cal/(mol*K)

>  <Cp_T_value_list>  (1) 
[21.739931113059615, 29.14813400113705, 35.94765005011551, 41.73053828287379, 50.792135881792035, 57.413930600437965, 66.93239440365458, 71.40703402864166, 73.74460734469625]

>  <Cp_T_units>  (1) 
cal/(mol*K)

>  <T_list>  (1) 
[300.0, 400.0, 500.0, 600.0, 800.0, 1000.0, 1500.0, 2000.0, 2400.0]

>  <T_units>  (1) 
K

>  <yaml_path>  (1) 
/home/calvin/Dropbox/PersonalFolders/Calvin/ATLAS_Converged/rmg_rxn_43/output/Species/rmg_rxn_43_r1_C1COCOC1/rmg_rxn_43_r1_C1COCOC1.yml

>  <frequencies_cm1>  (1) 
[264.26219606955993, 269.44676998615995, 439.22611503784, 466.70779028847994, 494.62208561427997, 656.81341188736, 851.50617968, 900.41284912904, 919.12538412604, 926.80954069912, 1013.8966485273598, 1037.6289497932798, 1094.57685905204, 1112.95291176836, 1188.75069573052, 1216.28730686372, 1226.8487302858798, 1252.366447735, 1315.55644664964, 1328.3633742714399, 1363.72148168412, 1380.93701388136, 1404.8272558096398, 1432.53554157584, 1460.95799381532, 1489.42164796672, 1490.0946125280798, 1506.58911126672, 2894.63345495428, 2944.5289702893997, 2950.530715459079, 3031.06671929204, 3080.8454958767197, 3088.2893079635996, 3091.87387430064, 3110.9160245929997]

>  <ZPE_kJmol>  (1) 
321.1850391352071

>  <E_elec_kJmol>  (1) 
-807855.671293272

>  <E0_minus_Eelec_plus_ZPE_kJmol>  (1) 
0.0

>  <rxn>  (1) 
rmg_rxn_43

>  <species_type>  (1) 
r0

>  <species_folder>  (1) 
rmg_rxn_43_r1_C1COCOC1

>  <frequencies_cm1_list>  (1) 
[264.26219606955993, 269.44676998615995, 439.22611503784, 466.70779028847994, 494.62208561427997, 656.81341188736, 851.50617968, 900.41284912904, 919.12538412604, 926.80954069912, 1013.8966485273598, 1037.6289497932798, 1094.57685905204, 1112.95291176836, 1188.75069573052, 1216.28730686372, 1226.8487302858798, 1252.366447735, 1315.55644664964, 1328.3633742714399, 1363.72148168412, 1380.93701388136, 1404.8272558096398, 1432.53554157584, 1460.95799381532, 1489.42164796672, 1490.0946125280798, 1506.58911126672, 2894.63345495428, 2944.5289702893997, 2950.530715459079, 3031.06671929204, 3080.8454958767197, 3088.2893079635996, 3091.87387430064, 3110.9160245929997]

>  <E0_kJmol>  (1) 
-807534

>  <H298_kJmol>  (1) 
-807519

$$$$

     RDKit          3D

 14 13  0  0  0  0  0  0  0  0999 V2000
   -0.7548   -0.8542   -0.8829 H   0  0  0  0  0  0  0  0  0  1  0  0
    0.8284    0.1267   -1.7695 C   0  0  0  0  0  0  0  0  0  2  0  0
    0.2025   -0.4607   -0.5328 C   0  0  0  0  0  0  0  0  0  3  0  0
   -0.1640    0.5081    0.5622 C   0  0  0  0  0  0  0  0  0  4  0  0
   -0.8331   -0.1627    1.7558 C   0  0  0  0  0  0  0  0  0  5  0  0
    1.7993    0.5862   -1.5513 H   0  0  0  0  0  0  0  0  0  6  0  0
    0.1903    0.9043   -2.1978 H   0  0  0  0  0  0  0  0  0  7  0  0
    0.9857   -0.6318   -2.5388 H   0  0  0  0  0  0  0  0  0  8  0  0
    0.7328   -1.3389   -0.1567 H   0  0  0  0  0  0  0  0  0  9  0  0
   -0.8279    1.2772    0.1517 H   0  0  0  0  0  0  0  0  0 10  0  0
    0.7361    1.0413    0.8971 H   0  0  0  0  0  0  0  0  0 11  0  0
   -0.1775   -0.9209    2.1918 H   0  0  0  0  0  0  0  0  0 12  0  0
   -1.0710    0.5601    2.5377 H   0  0  0  0  0  0  0  0  0 13  0  0
   -1.7609   -0.6539    1.4559 H   0  0  0  0  0  0  0  0  0 14  0  0
  1  3  1  0
  2  8  1  0
  2  7  1  0
  2  6  1  0
  2  3  1  0
  3  4  1  0
  3  9  1  0
  4  5  1  0
  4 10  1  0
  4 11  1  0
  5 12  1  0
  5 14  1  0
  5 13  1  0
M  END
>  <rmg_smiles>  (2) 
CCCC

>  <rmg_adjacency_list>  (2) 
1  C u0 p0 c0 {2,S} {3,S} {5,S} {6,S}
2  C u0 p0 c0 {1,S} {4,S} {7,S} {8,S}
3  C u0 p0 c0 {1,S} {9,S} {10,S} {11,S}
4  C u0 p0 c0 {2,S} {12,S} {13,S} {14,S}
5  H u0 p0 c0 {1,S}
6  H u0 p0 c0 {1,S}
7  H u0 p0 c0 {2,S}
8  H u0 p0 c0 {2,S}
9  H u0 p0 c0 {3,S}
10 H u0 p0 c0 {3,S}
11 H u0 p0 c0 {3,S}
12 H u0 p0 c0 {4,S}
13 H u0 p0 c0 {4,S}
14 H u0 p0 c0 {4,S}


>  <multiplicity>  (2) 
1

>  <reaction>  (2) 
rmg_rxn_43

>  <type>  (2) 
r2h

>  <role_mapnums>  (2) 
{"r2h_a": 3, "r2h_h": 1}

>  <role_mapidx>  (2) 
{"r2h_a": 2, "r2h_h": 0}

>  <ordered_mapped_smiles>  (2) 
[H:1][C:3]([C:2]([H:6])([H:7])[H:8])([C:4]([C:5]([H:12])([H:13])[H:14])([H:10])[H:11])[H:9]

>  <mol_properties>  (2) 
{"0": {"label": "a_hydrogen", "atom_type": "H0"}, "2": {"label": "acceptor", "atom_type": "Cs"}}

>  <level_of_theory>  (2) 
wb97xd/def2tzvp

>  <lot_method>  (2) 
wb97xd

>  <lot_basis>  (2) 
def2tzvp

>  <spin_multiplicity>  (2) 
1.0

>  <optical_isomers>  (2) 
1.0

>  <modes>  (2) 
IdealGasTranslation(mass=(58.0782, 'amu')),         NonlinearRotor(             inertia = ([21.4183, 138.436, 147.416

>  <frequency_value>  (2) 
unknown

>  <frequency_units>  (2) 
unknown

>  <frequency_list>  (2) 
unknown

>  <arkane_path>  (2) 
/home/calvin/Dropbox/PersonalFolders/Calvin/ATLAS_Converged/rmg_rxn_43/output/Species/rmg_rxn_43_p2_CCCC/arkane/output.py

>  <path_exists>  (2) 
True

>  <E0_value>  (2) 
-415711.4770347972

>  <E0_units>  (2) 
kJ/mol

>  <thermo_class>  (2) 
NASA

>  <Cp0_value>  (2) 
33.257888

>  <Cp0_units>  (2) 
J/(mol*K)

>  <CpInf_value>  (2) 
332.57888

>  <CpInf_units>  (2) 
J/(mol*K)

>  <Tmin_value>  (2) 
10.0

>  <Tmin_units>  (2) 
K

>  <Tmax_value>  (2) 
3000.0

>  <Tmax_units>  (2) 
K

>  <polynomials>  (2) 
[{"name": "polynomial1", "class": "NASAPolynomial", "Tmin_value": 10.0, "Tmin_units": "K", "Tmax_value": 1025.0239672813746, "Tmax_units": "K", "coeffs": [3.915013592071844, 0.015190476507378274, 4.499566831623061e-05, -5.4452087887537436e-08, 1.803189229500368e-11, -49998546.31449076, 7.728184054699678]}, {"name": "polynomial2", "class": "NASAPolynomial", "Tmin_value": 1025.0239672813746, "Tmin_units": "K", "Tmax_value": 3000.0, "Tmax_units": "K", "coeffs": [0.8557434606866323, 0.04413202068529884, -2.2238982520549216e-05, 5.4598853249734095e-09, -5.274578153178241e-13, -49998812.39100051, 18.205832942846666]}]

>  <H298_value>  (2) 
-99353.185245995

>  <H298_units>  (2) 
kcal/mol

>  <S298_value>  (2) 
71.76251802442486

>  <S298_units>  (2) 
cal/(mol*K)

>  <Cp_T_value_list>  (2) 
[22.251980571284225, 28.1531399049666, 33.94079391323614, 39.35269474865459, 48.430242634303475, 55.007789274879656, 65.12656285712895, 70.35428852741721, 72.83851882766015]

>  <Cp_T_units>  (2) 
cal/(mol*K)

>  <T_list>  (2) 
[300.0, 400.0, 500.0, 600.0, 800.0, 1000.0, 1500.0, 2000.0, 2400.0]

>  <T_units>  (2) 
K

>  <yaml_path>  (2) 
/home/calvin/Dropbox/PersonalFolders/Calvin/ATLAS_Converged/rmg_rxn_43/output/Species/rmg_rxn_43_p2_CCCC/rmg_rxn_43_p2_CCCC.yml

>  <frequencies_cm1>  (2) 
[117.85806904715999, 224.50921805207997, 259.37290252171994, 260.8081024536, 427.68957970024, 733.9639919575599, 810.5171443049198, 844.8383369342799, 959.6886664112799, 978.69648177704, 1024.40313606696, 1072.73297874912, 1166.6664709414, 1201.7086970293599, 1282.4438434365998, 1315.46030885516, 1324.99168447932, 1392.23320473276, 1403.41265683372, 1404.42210367576, 1477.30828586224, 1478.9082934418, 1485.02677736192, 1486.84652847172, 1491.0285225316, 1497.33241505536, 2994.3077468740794, 3001.82022881416, 3007.36875295272, 3008.254594059, 3019.68125763148, 3041.7654824206, 3075.78452769588, 3079.10128160544, 3084.83521434764, 3085.5356468502796]

>  <ZPE_kJmol>  (2) 
344.05401570070524

>  <E_elec_kJmol>  (2) 
-416055.5310504979

>  <E0_minus_Eelec_plus_ZPE_kJmol>  (2) 
0.0

>  <rxn>  (2) 
rmg_rxn_43

>  <species_type>  (2) 
p1

>  <species_folder>  (2) 
rmg_rxn_43_p2_CCCC

>  <frequencies_cm1_list>  (2) 
[117.85806904715999, 224.50921805207997, 259.37290252171994, 260.8081024536, 427.68957970024, 733.9639919575599, 810.5171443049198, 844.8383369342799, 959.6886664112799, 978.69648177704, 1024.40313606696, 1072.73297874912, 1166.6664709414, 1201.7086970293599, 1282.4438434365998, 1315.46030885516, 1324.99168447932, 1392.23320473276, 1403.41265683372, 1404.42210367576, 1477.30828586224, 1478.9082934418, 1485.02677736192, 1486.84652847172, 1491.0285225316, 1497.33241505536, 2994.3077468740794, 3001.82022881416, 3007.36875295272, 3008.254594059, 3019.68125763148, 3041.7654824206, 3075.78452769588, 3079.10128160544, 3084.83521434764, 3085.5356468502796]

>  <E0_kJmol>  (2) 
-415711

>  <H298_kJmol>  (2) 
-415694

$$$$

     RDKit          3D

 27 26  0  0  0  0  0  0  0  0999 V2000
   -0.6090   -2.4243   -0.6214 C   0  0  0  0  0  0  0  0  0  1  0  0
   -0.9306   -1.5752    0.5983 C   0  0  0  0  0  0  0  0  0  2  0  0
   -1.6251   -0.4007    0.2110 O   0  0  0  0  0  0  0  0  0  3  0  0
   -0.9425    0.3199   -0.7509 C   0  0  0  0  0  0  0  0  0  4  0  0
   -0.6543   -0.3818   -1.9056 O   0  0  0  0  0  0  0  0  0  5  0  0
    0.0993   -1.5551   -1.6487 C   0  0  0  0  0  0  0  0  0  6  0  0
    0.0218   -3.2701   -0.3397 H   0  0  0  0  0  0  0  0  0  7  0  0
   -1.5348   -2.8142   -1.0493 H   0  0  0  0  0  0  0  0  0  8  0  0
   -1.5779   -2.0986    1.3003 H   0  0  0  0  0  0  0  0  0  9  0  0
   -0.0073   -1.2928    1.1216 H   0  0  0  0  0  0  0  0  0 10  0  0
    0.2254    0.7308   -0.2292 H   0  0  0  0  0  0  0  0  0 11  0  0
   -1.5213    1.2039   -1.0081 H   0  0  0  0  0  0  0  0  0 12  0  0
    1.0965   -1.2735   -1.2847 H   0  0  0  0  0  0  0  0  0 13  0  0
    0.2125   -2.0645   -2.6044 H   0  0  0  0  0  0  0  0  0 14  0  0
    2.0634    1.8164   -1.0226 C   0  0  0  0  0  0  0  0  0 15  0  0
    1.4375    1.2291    0.2142 C   0  0  0  0  0  3  0  0  0 16  0  0
    1.0710    2.1979    1.3091 C   0  0  0  0  0  0  0  0  0 17  0  0
    0.4019    1.5271    2.5027 C   0  0  0  0  0  0  0  0  0 18  0  0
    3.0343    2.2760   -0.8044 H   0  0  0  0  0  0  0  0  0 19  0  0
    1.4253    2.5940   -1.4509 H   0  0  0  0  0  0  0  0  0 20  0  0
    2.2207    1.0580   -1.7919 H   0  0  0  0  0  0  0  0  0 21  0  0
    1.9678    0.3509    0.5902 H   0  0  0  0  0  0  0  0  0 22  0  0
    0.4071    2.9669    0.8986 H   0  0  0  0  0  0  0  0  0 23  0  0
    1.9711    2.7311    1.6440 H   0  0  0  0  0  0  0  0  0 24  0  0
    1.0575    0.7689    2.9388 H   0  0  0  0  0  0  0  0  0 25  0  0
    0.1640    2.2498    3.2846 H   0  0  0  0  0  0  0  0  0 26  0  0
   -0.5259    1.0358    2.2028 H   0  0  0  0  0  0  0  0  0 27  0  0
  1  7  1  0
  1  8  1  0
  1  6  1  0
  1  2  1  0
  2  3  1  0
  2 10  1  0
  2  9  1  0
  3  4  1  0
  4 11  1  0
  4  5  1  0
  4 12  1  0
  5  6  1  0
  6 13  1  0
  6 14  1  0
 15 20  1  0
 15 16  1  0
 15 19  1  0
 15 21  1  0
 16 22  1  0
 16 17  1  0
 17 18  1  0
 17 23  1  0
 17 24  1  0
 18 25  1  0
 18 27  1  0
 18 26  1  0
M  RAD  1  16   2
M  END
>  <rmg_smiles>  (3) 
C1COCOC1.C[CH]CC

>  <rmg_adjacency_list>  (3) 
multiplicity 2
1  O u0 p2 c0 {5,S} {8,S}
2  O u0 p2 c0 {6,S} {8,S}
3  C u0 p0 c0 {5,S} {6,S} {11,S} {12,S}
4  C u0 p0 c0 {7,S} {10,S} {13,S} {14,S}
5  C u0 p0 c0 {1,S} {3,S} {15,S} {16,S}
6  C u0 p0 c0 {2,S} {3,S} {17,S} {18,S}
7  C u0 p0 c0 {4,S} {19,S} {20,S} {21,S}
8  C u0 p0 c0 {1,S} {2,S} {22,S} {23,S}
9  C u0 p0 c0 {10,S} {24,S} {25,S} {26,S}
10 C u1 p0 c0 {4,S} {9,S} {27,S}
11 H u0 p0 c0 {3,S}
12 H u0 p0 c0 {3,S}
13 H u0 p0 c0 {4,S}
14 H u0 p0 c0 {4,S}
15 H u0 p0 c0 {5,S}
16 H u0 p0 c0 {5,S}
17 H u0 p0 c0 {6,S}
18 H u0 p0 c0 {6,S}
19 H u0 p0 c0 {7,S}
20 H u0 p0 c0 {7,S}
21 H u0 p0 c0 {7,S}
22 H u0 p0 c0 {8,S}
23 H u0 p0 c0 {8,S}
24 H u0 p0 c0 {9,S}
25 H u0 p0 c0 {9,S}
26 H u0 p0 c0 {9,S}
27 H u0 p0 c0 {10,S}


>  <multiplicity>  (3) 
2

>  <reaction>  (3) 
rmg_rxn_43

>  <type>  (3) 
ts

>  <role_mapnums>  (3) 
{"*2": 11, "*1": 4, "*3": 16, "*0": 3, "*4": 17}

>  <role_mapidx>  (3) 
{"*2": 10, "*1": 3, "*3": 15, "*0": 2, "*4": 16}

>  <ordered_mapped_smiles>  (3) 
[C:1]1([H:7])([H:8])[C:2]([H:9])([H:10])[O:3][C:4]([H:11])([H:12])[O:5][C:6]1([H:13])[H:14].[C:15]([C:16]([C:17]([C:18]([H:25])([H:26])[H:27])([H:23])[H:24])[H:22])([H:19])([H:20])[H:21]

>  <mol_properties>  (3) 
{"2": {"label": "*0", "atom_type": "O2s"}, "3": {"label": "*1", "atom_type": "Cs"}, "10": {"label": "*2", "atom_type": "H0"}, "15": {"label": "*3", "atom_type": "Cs"}, "16": {"label": "*4", "atom_type": "Cs"}}

>  <level_of_theory>  (3) 
wb97xd/def2tzvp

>  <lot_method>  (3) 
wb97xd

>  <lot_basis>  (3) 
def2tzvp

>  <spin_multiplicity>  (3) 
2.0

>  <optical_isomers>  (3) 
2.0

>  <modes>  (3) 
IdealGasTranslation(mass=(145.123, 'amu')),         NonlinearRotor(             inertia = ([294.258, 588.547, 737.435

>  <frequency_value>  (3) 
-1755.49

>  <frequency_units>  (3) 
cm^-1

>  <frequency_list>  (3) 
unknown

>  <arkane_path>  (3) 
/home/calvin/Dropbox/PersonalFolders/Calvin/ATLAS_Converged/rmg_rxn_43/output/rxns/TS0/arkane/output.py

>  <path_exists>  (3) 
True

>  <E0_value>  (3) 
-1221490.0

>  <E0_units>  (3) 
kJ/mol

>  <thermo_class>  (3) 
unknown

>  <Cp0_value>  (3) 
unknown

>  <Cp0_units>  (3) 
unknown

>  <CpInf_value>  (3) 
unknown

>  <CpInf_units>  (3) 
unknown

>  <Tmin_value>  (3) 
unknown

>  <Tmin_units>  (3) 
unknown

>  <Tmax_value>  (3) 
unknown

>  <Tmax_units>  (3) 
unknown

>  <polynomials>  (3) 
unknown

>  <H298_value>  (3) 
unknown

>  <H298_units>  (3) 
unknown

>  <S298_value>  (3) 
unknown

>  <S298_units>  (3) 
unknown

>  <Cp_T_value_list>  (3) 
unknown

>  <Cp_T_units>  (3) 
unknown

>  <T_list>  (3) 
unknown

>  <T_units>  (3) 
unknown

>  <yaml_path>  (3) 
unknown

>  <frequencies_cm1>  (3) 
unknown

>  <ZPE_kJmol>  (3) 
unknown

>  <E_elec_kJmol>  (3) 
unknown

>  <E0_minus_Eelec_plus_ZPE_kJmol>  (3) 
unknown

>  <rxn>  (3) 
unknown

>  <species_type>  (3) 
unknown

>  <species_folder>  (3) 
unknown

>  <frequencies_cm1_list>  (3) 
[]

>  <ts_imag_freq_cm1>  (3) 
-1776.8135

>  <ts_freq_out_path>  (3) 
/home/calvin/Dropbox/PersonalFolders/Calvin/ATLAS_Converged/rmg_rxn_43/output/rxns/TS0/geometry/freq.out

>  <E0_kJmol>  (3) 
-1.22149e+06

>  <H298_kJmol>  (3) 
unknown

$$$$

     RDKit          3D

 13 13  0  0  0  0  0  0  0  0999 V2000
    0.5794    1.5990    0.2108 C   0  0  0  0  0  3  0  0  0  1  0  0
    1.4528    0.6621   -0.2496 O   0  0  0  0  0  0  0  0  0  2  0  0
    1.0751   -0.6763    0.0423 C   0  0  0  0  0  0  0  0  0  3  0  0
   -0.3579   -0.9282   -0.3924 C   0  0  0  0  0  0  0  0  0  4  0  0
   -1.2426    0.1393    0.2269 C   0  0  0  0  0  0  0  0  0  5  0  0
   -0.7410    1.4341   -0.0749 O   0  0  0  0  0  0  0  0  0  6  0  0
    0.9183    2.6078    0.0084 H   0  0  0  0  0  0  0  0  0  7  0  0
    1.1839   -0.8508    1.1199 H   0  0  0  0  0  0  0  0  0  8  0  0
    1.7816   -1.3130   -0.4874 H   0  0  0  0  0  0  0  0  0  9  0  0
   -0.6818   -1.9210   -0.0736 H   0  0  0  0  0  0  0  0  0 10  0  0
   -0.4271   -0.8785   -1.4810 H   0  0  0  0  0  0  0  0  0 11  0  0
   -1.2832    0.0173    1.3164 H   0  0  0  0  0  0  0  0  0 12  0  0
   -2.2575    0.1083   -0.1657 H   0  0  0  0  0  0  0  0  0 13  0  0
  1  6  1  0
  1  7  1  0
  1  2  1  0
  2  3  1  0
  3  4  1  0
  3  9  1  0
  3  8  1  0
  4  5  1  0
  4 10  1  0
  4 11  1  0
  5  6  1  0
  5 12  1  0
  5 13  1  0
M  RAD  1   1   2
M  END
>  <rmg_smiles>  (4) 
[CH]1OCCCO1

>  <rmg_adjacency_list>  (4) 
multiplicity 2
1  O u0 p2 c0 {4,S} {6,S}
2  O u0 p2 c0 {5,S} {6,S}
3  C u0 p0 c0 {4,S} {5,S} {7,S} {8,S}
4  C u0 p0 c0 {1,S} {3,S} {9,S} {10,S}
5  C u0 p0 c0 {2,S} {3,S} {11,S} {12,S}
6  C u1 p0 c0 {1,S} {2,S} {13,S}
7  H u0 p0 c0 {3,S}
8  H u0 p0 c0 {3,S}
9  H u0 p0 c0 {4,S}
10 H u0 p0 c0 {4,S}
11 H u0 p0 c0 {5,S}
12 H u0 p0 c0 {5,S}
13 H u0 p0 c0 {6,S}


>  <multiplicity>  (4) 
2

>  <reaction>  (4) 
rmg_rxn_43

>  <type>  (4) 
r1

>  <role_mapnums>  (4) 
{}

>  <role_mapidx>  (4) 
{}

>  <ordered_mapped_smiles>  (4) 
[C:1]1([H:7])[O:2][C:3]([H:8])([H:9])[C:4]([H:10])([H:11])[C:5]([H:12])([H:13])[O:6]1

>  <level_of_theory>  (4) 
wb97xd/def2tzvp

>  <lot_method>  (4) 
wb97xd

>  <lot_basis>  (4) 
def2tzvp

>  <spin_multiplicity>  (4) 
2.0

>  <optical_isomers>  (4) 
1.0

>  <modes>  (4) 
IdealGasTranslation(mass=(87.0446, 'amu')),         NonlinearRotor(             inertia = ([96.7564, 101.33, 180.793

>  <frequency_value>  (4) 
unknown

>  <frequency_units>  (4) 
unknown

>  <frequency_list>  (4) 
unknown

>  <arkane_path>  (4) 
/home/calvin/Dropbox/PersonalFolders/Calvin/ATLAS_Converged/rmg_rxn_43/output/Species/rmg_rxn_43_p1_sbr-CH-sbr1OCCCO1/arkane/output.py

>  <path_exists>  (4) 
True

>  <E0_value>  (4) 
-805829.6077087377

>  <E0_units>  (4) 
kJ/mol

>  <thermo_class>  (4) 
NASA

>  <Cp0_value>  (4) 
33.257888

>  <Cp0_units>  (4) 
J/(mol*K)

>  <CpInf_value>  (4) 
307.635464

>  <CpInf_units>  (4) 
J/(mol*K)

>  <Tmin_value>  (4) 
10.0

>  <Tmin_units>  (4) 
K

>  <Tmax_value>  (4) 
3000.0

>  <Tmax_units>  (4) 
K

>  <polynomials>  (4) 
[{"name": "polynomial1", "class": "NASAPolynomial", "Tmin_value": 10.0, "Tmin_units": "K", "Tmax_value": 608.112492343142, "Tmax_units": "K", "coeffs": [4.052680972350976, -0.0047882923899246685, 0.00015490339112890275, -2.438945344349935e-07, 1.2271144192742085e-10, -96918914.0547554, 10.641162980593737]}, {"name": "polynomial2", "class": "NASAPolynomial", "Tmin_value": 608.112492343142, "Tmin_units": "K", "Tmax_value": 3000.0, "Tmax_units": "K", "coeffs": [-2.1801652399204463, 0.053800847786724684, -3.3006657387032914e-05, 9.678351907920253e-09, -1.0905566594576255e-12, -96918481.26165283, 34.93650323250774]}]

>  <H298_value>  (4) 
-192594.04417056424

>  <H298_units>  (4) 
kcal/mol

>  <S298_value>  (4) 
74.06569612686815

>  <S298_units>  (4) 
cal/(mol*K)

>  <Cp_T_value_list>  (4) 
[21.79231995372727, 28.72322049116149, 34.90931795869405, 40.07621166157428, 48.17957605835906, 54.05563435308073, 62.397532807122666, 66.31866398847424, 68.42946986859195]

>  <Cp_T_units>  (4) 
cal/(mol*K)

>  <T_list>  (4) 
[300.0, 400.0, 500.0, 600.0, 800.0, 1000.0, 1500.0, 2000.0, 2400.0]

>  <T_units>  (4) 
K

>  <yaml_path>  (4) 
/home/calvin/Dropbox/PersonalFolders/Calvin/ATLAS_Converged/rmg_rxn_43/output/Species/rmg_rxn_43_p1_sbr-CH-sbr1OCCCO1/rmg_rxn_43_p1_sbr-CH-sbr1OCCCO1.yml

>  <frequencies_cm1>  (4) 
[221.38473973147995, 259.92912833264, 404.37616453883993, 465.21765447404, 498.2203859219599, 675.711355488, 843.04605376576, 891.5750390221999, 897.2334349258798, 928.91083820704, 951.5993577043199, 1041.5293974550398, 1054.4736647832399, 1157.30676995024, 1159.53167319392, 1231.5732161860399, 1233.0290170738797, 1266.9931264665997, 1307.989028827, 1348.11969103708, 1377.30437864708, 1407.0796269946, 1418.3758178459998, 1462.8532817636399, 1490.6165034123997, 1500.0792091833598, 2984.3712191160403, 2988.60128207316, 3033.3465584182795, 3083.9562402266797, 3096.46788747972, 3099.4824940352, 3160.91454470792]

>  <ZPE_kJmol>  (4) 
286.7521305046946

>  <E_elec_kJmol>  (4) 
-806116.3598392424

>  <E0_minus_Eelec_plus_ZPE_kJmol>  (4) 
0.0

>  <rxn>  (4) 
rmg_rxn_43

>  <species_type>  (4) 
p0

>  <species_folder>  (4) 
rmg_rxn_43_p1_sbr-CH-sbr1OCCCO1

>  <frequencies_cm1_list>  (4) 
[221.38473973147995, 259.92912833264, 404.37616453883993, 465.21765447404, 498.2203859219599, 675.711355488, 843.04605376576, 891.5750390221999, 897.2334349258798, 928.91083820704, 951.5993577043199, 1041.5293974550398, 1054.4736647832399, 1157.30676995024, 1159.53167319392, 1231.5732161860399, 1233.0290170738797, 1266.9931264665997, 1307.989028827, 1348.11969103708, 1377.30437864708, 1407.0796269946, 1418.3758178459998, 1462.8532817636399, 1490.6165034123997, 1500.0792091833598, 2984.3712191160403, 2988.60128207316, 3033.3465584182795, 3083.9562402266797, 3096.46788747972, 3099.4824940352, 3160.91454470792]

>  <E0_kJmol>  (4) 
-805830

>  <H298_kJmol>  (4) 
-805813

$$$$

     RDKit          3D

 13 12  0  0  0  0  0  0  0  0999 V2000
    1.9060    0.2628    0.3980 C   0  0  0  0  0  0  0  0  0  1  0  0
    0.6330   -0.4250    0.0685 C   0  0  0  0  0  3  0  0  0  2  0  0
   -0.2610   -0.9325    1.1416 C   0  0  0  0  0  0  0  0  0  3  0  0
   -1.4364   -1.7546    0.6268 C   0  0  0  0  0  0  0  0  0  4  0  0
    2.4899   -0.3070    1.1292 H   0  0  0  0  0  0  0  0  0  5  0  0
    1.7297    1.2496    0.8515 H   0  0  0  0  0  0  0  0  0  6  0  0
    2.5269    0.4197   -0.4845 H   0  0  0  0  0  0  0  0  0  7  0  0
    0.2597   -0.3936   -0.9489 H   0  0  0  0  0  0  0  0  0  8  0  0
   -0.6439   -0.0868    1.7356 H   0  0  0  0  0  0  0  0  0  9  0  0
    0.3260   -1.5277    1.8536 H   0  0  0  0  0  0  0  0  0 10  0  0
   -1.0872   -2.6320    0.0792 H   0  0  0  0  0  0  0  0  0 11  0  0
   -2.0701   -2.0976    1.4459 H   0  0  0  0  0  0  0  0  0 12  0  0
   -2.0561   -1.1637   -0.0512 H   0  0  0  0  0  0  0  0  0 13  0  0
  1  5  1  0
  1  7  1  0
  1  6  1  0
  1  2  1  0
  2  8  1  0
  2  3  1  0
  3  4  1  0
  3  9  1  0
  3 10  1  0
  4 13  1  0
  4 12  1  0
  4 11  1  0
M  RAD  1   2   2
M  END
>  <rmg_smiles>  (5) 
C[CH]CC

>  <rmg_adjacency_list>  (5) 
multiplicity 2
1  C u0 p0 c0 {2,S} {4,S} {5,S} {6,S}
2  C u0 p0 c0 {1,S} {7,S} {8,S} {9,S}
3  C u0 p0 c0 {4,S} {10,S} {11,S} {12,S}
4  C u1 p0 c0 {1,S} {3,S} {13,S}
5  H u0 p0 c0 {1,S}
6  H u0 p0 c0 {1,S}
7  H u0 p0 c0 {2,S}
8  H u0 p0 c0 {2,S}
9  H u0 p0 c0 {2,S}
10 H u0 p0 c0 {3,S}
11 H u0 p0 c0 {3,S}
12 H u0 p0 c0 {3,S}
13 H u0 p0 c0 {4,S}


>  <multiplicity>  (5) 
2

>  <reaction>  (5) 
rmg_rxn_43

>  <type>  (5) 
r2

>  <role_mapnums>  (5) 
{}

>  <role_mapidx>  (5) 
{}

>  <ordered_mapped_smiles>  (5) 
[C:1]([C:2]([C:3]([C:4]([H:11])([H:12])[H:13])([H:9])[H:10])[H:8])([H:5])([H:6])[H:7]

>  <level_of_theory>  (5) 
wb97xd/def2tzvp

>  <lot_method>  (5) 
wb97xd

>  <lot_basis>  (5) 
def2tzvp

>  <spin_multiplicity>  (5) 
2.0

>  <optical_isomers>  (5) 
2.0

>  <modes>  (5) 
IdealGasTranslation(mass=(57.0704, 'amu')),         NonlinearRotor(             inertia = ([18.7542, 137.737, 146.856

>  <frequency_value>  (5) 
unknown

>  <frequency_units>  (5) 
unknown

>  <frequency_list>  (5) 
unknown

>  <arkane_path>  (5) 
/home/calvin/Dropbox/PersonalFolders/Calvin/ATLAS_Converged/rmg_rxn_43/output/Species/rmg_rxn_43_r2_Csbr-CH-sbrCC/arkane/output.py

>  <path_exists>  (5) 
True

>  <E0_value>  (5) 
-413995.2264405356

>  <E0_units>  (5) 
kJ/mol

>  <thermo_class>  (5) 
NASA

>  <Cp0_value>  (5) 
33.257888

>  <Cp0_units>  (5) 
J/(mol*K)

>  <CpInf_value>  (5) 
307.635464

>  <CpInf_units>  (5) 
J/(mol*K)

>  <Tmin_value>  (5) 
10.0

>  <Tmin_units>  (5) 
K

>  <Tmax_value>  (5) 
3000.0

>  <Tmax_units>  (5) 
K

>  <polynomials>  (5) 
[{"name": "polynomial1", "class": "NASAPolynomial", "Tmin_value": 10.0, "Tmin_units": "K", "Tmax_value": 437.64132334566835, "Tmax_units": "K", "coeffs": [3.6274282376646756, 0.03980524048628293, -0.00011211913315348379, 3.0275669442783334e-07, -2.6334100357152647e-10, -49792123.767797455, 10.477759673967103]}, {"name": "polynomial2", "class": "NASAPolynomial", "Tmin_value": 437.64132334566835, "Tmin_units": "K", "Tmax_value": 3000.0, "Tmax_units": "K", "coeffs": [-0.4712203043918067, 0.04588815729464738, -2.541997261504284e-05, 6.85639015424627e-09, -7.228277482308085e-13, -49791464.52563959, 30.297543071931177]}]

>  <H298_value>  (5) 
-98942.59688263848

>  <H298_units>  (5) 
kcal/mol

>  <S298_value>  (5) 
79.84336435797195

>  <S298_units>  (5) 
cal/(mol*K)

>  <Cp_T_value_list>  (5) 
[22.891917447574397, 28.308475735554, 33.64288387138264, 38.34868525299168, 46.07323283166112, 51.92675269306213, 60.90207372767515, 65.40111428959476, 67.64920413290923]

>  <Cp_T_units>  (5) 
cal/(mol*K)

>  <T_list>  (5) 
[300.0, 400.0, 500.0, 600.0, 800.0, 1000.0, 1500.0, 2000.0, 2400.0]

>  <T_units>  (5) 
K

>  <yaml_path>  (5) 
/home/calvin/Dropbox/PersonalFolders/Calvin/ATLAS_Converged/rmg_rxn_43/output/Species/rmg_rxn_43_r2_Csbr-CH-sbrCC/rmg_rxn_43_r2_Csbr-CH-sbrCC.yml

>  <frequencies_cm1>  (5) 
[56.84490447896, 98.78845081352, 231.15645984184, 255.98747875895998, 343.02651768996, 433.15570001495996, 765.0302335452399, 850.6821414415999, 969.8792726261601, 986.4561751886399, 1035.713060889, 1061.1277735583199, 1129.08346028504, 1177.0836876718397, 1262.3853793168798, 1303.7933007964798, 1389.89842972396, 1402.2452693293199, 1414.45476922828, 1456.0687002674797, 1460.55284168144, 1471.1898019421196, 1484.2096061088398, 1489.95040583636, 2924.0516200651596, 2943.40278469692, 2976.8244022493595, 3009.05803134144, 3013.50097084348, 3083.1390689736, 3085.4944449383597, 3091.2352446658797, 3146.1642602405595]

>  <ZPE_kJmol>  (5) 
303.861341375402

>  <E_elec_kJmol>  (5) 
-414299.087781911

>  <E0_minus_Eelec_plus_ZPE_kJmol>  (5) 
0.0

>  <rxn>  (5) 
rmg_rxn_43

>  <species_type>  (5) 
r1

>  <species_folder>  (5) 
rmg_rxn_43_r2_Csbr-CH-sbrCC

>  <frequencies_cm1_list>  (5) 
[56.84490447896, 98.78845081352, 231.15645984184, 255.98747875895998, 343.02651768996, 433.15570001495996, 765.0302335452399, 850.6821414415999, 969.8792726261601, 986.4561751886399, 1035.713060889, 1061.1277735583199, 1129.08346028504, 1177.0836876718397, 1262.3853793168798, 1303.7933007964798, 1389.89842972396, 1402.2452693293199, 1414.45476922828, 1456.0687002674797, 1460.55284168144, 1471.1898019421196, 1484.2096061088398, 1489.95040583636, 2924.0516200651596, 2943.40278469692, 2976.8244022493595, 3009.05803134144, 3013.50097084348, 3083.1390689736, 3085.4944449383597, 3091.2352446658797, 3146.1642602405595]

>  <E0_kJmol>  (5) 
-413995

>  <H298_kJmol>  (5) 
-413976

$$$$
