
     RDKit          3D

  4  3  0  0  0  0  0  0  0  0999 V2000
   -0.3505    0.7201    0.7115 O   0  0  0  0  0  0  0  0  0  1  0  0
    0.0414   -0.7489   -0.7751 O   0  0  0  0  0  0  0  0  0  2  0  0
    0.4622   -0.0048    0.0510 N   0  0  0  0  0  0  0  0  0  3  0  0
   -1.2447    0.5707    0.3959 H   0  0  0  0  0  0  0  0  0  4  0  0
  1  3  1  0
  1  4  1  0
  2  3  1  0
M  END
>  <rmg_smiles>  (1) 
[O][N]O

>  <rmg_adjacency_list>  (1) 
1 O u0 p2 c0 {3,S} {4,S}
2 O u0 p2 c0 {3,S}
3 N u0 p1 c0 {1,S} {2,S}
4 H u0 p0 c0 {1,S}


>  <multiplicity>  (1) 
1

>  <reaction>  (1) 
rmg_rxn_13866

>  <type>  (1) 
r1h

>  <role_mapnums>  (1) 
{"r1h_a": 1, "r1h_h": 4}

>  <role_mapidx>  (1) 
{"r1h_a": 0, "r1h_h": 3}

>  <ordered_mapped_smiles>  (1) 
[O:1]([NH:3][OH:2])[H:4]

>  <mol_properties>  (1) 
{"0": {"label": "donator", "atom_type": "O2s"}, "3": {"label": "d_hydrogen", "atom_type": "H0"}}

>  <level_of_theory>  (1) 
wb97xd/def2tzvp

>  <lot_method>  (1) 
wb97xd

>  <lot_basis>  (1) 
def2tzvp

>  <spin_multiplicity>  (1) 
1.0

>  <optical_isomers>  (1) 
1.0

>  <modes>  (1) 
IdealGasTranslation(mass=(47.0007, 'amu')),         NonlinearRotor(             inertia = ([5.85585, 37.1292, 42.985

>  <frequency_value>  (1) 
unknown

>  <frequency_units>  (1) 
unknown

>  <frequency_list>  (1) 
unknown

>  <arkane_path>  (1) 
/home/calvin/Dropbox/PersonalFolders/Calvin/ZEUS_Converged/rmg_rxn_13866/output/Species/rmg_rxn_13866_r1_ON=O/arkane/output.py

>  <path_exists>  (1) 
True

>  <E0_value>  (1) 
-540078.5942529333

>  <E0_units>  (1) 
kJ/mol

>  <thermo_class>  (1) 
NASA

>  <Cp0_value>  (1) 
33.257888

>  <Cp0_units>  (1) 
J/(mol*K)

>  <CpInf_value>  (1) 
83.14472

>  <CpInf_units>  (1) 
J/(mol*K)

>  <Tmin_value>  (1) 
10.0

>  <Tmin_units>  (1) 
K

>  <Tmax_value>  (1) 
3000.0

>  <Tmax_units>  (1) 
K

>  <polynomials>  (1) 
[{"name": "polynomial1", "class": "NASAPolynomial", "Tmin_value": 10.0, "Tmin_units": "K", "Tmax_value": 612.0643897395777, "Tmax_units": "K", "coeffs": [4.0600857452062735, -0.005003345064429928, 4.853845019464716e-05, -7.775324969230841e-08, 4.0459407904253375e-11, -64956451.21114784, 6.457820799308927]}, {"name": "polynomial2", "class": "NASAPolynomial", "Tmin_value": 612.0643897395777, "Tmin_units": "K", "Tmax_value": 3000.0, "Tmax_units": "K", "coeffs": [2.9193437592381053, 0.009916245223045126, -6.318854045102609e-06, 1.923369739597041e-09, -2.2344958697478614e-13, -64956451.389076084, 10.259035440863206]}]

>  <H298_value>  (1) 
-129079.33524779696

>  <H298_units>  (1) 
kcal/mol

>  <S298_value>  (1) 
58.91392971376136

>  <S298_units>  (1) 
cal/(mol*K)

>  <Cp_T_value_list>  (1) 
[10.245890074471536, 11.693622486364122, 12.921974304699056, 13.872207892773629, 15.304498101096991, 16.328190410569672, 17.758570202857868, 18.457536745620374, 18.872252251724756]

>  <Cp_T_units>  (1) 
cal/(mol*K)

>  <T_list>  (1) 
[300.0, 400.0, 500.0, 600.0, 800.0, 1000.0, 1500.0, 2000.0, 2400.0]

>  <T_units>  (1) 
K

>  <yaml_path>  (1) 
/home/calvin/Dropbox/PersonalFolders/Calvin/ZEUS_Converged/rmg_rxn_13866/output/Species/rmg_rxn_13866_r1_ON=O/rmg_rxn_13866_r1_ON=O.yml

>  <frequencies_cm1>  (1) 
[677.3800329207598, 710.56817297232, 946.5109215821999, 1350.5025349431198, 1733.8176555055202, 3605.3046327064]

>  <ZPE_kJmol>  (1) 
53.97602405642365

>  <E_elec_kJmol>  (1) 
-540132.5702769897

>  <E0_minus_Eelec_plus_ZPE_kJmol>  (1) 
0.0

>  <rxn>  (1) 
rmg_rxn_13866

>  <species_type>  (1) 
r0

>  <species_folder>  (1) 
rmg_rxn_13866_r1_ON=O

>  <frequencies_cm1_list>  (1) 
[677.3800329207598, 710.56817297232, 946.5109215821999, 1350.5025349431198, 1733.8176555055202, 3605.3046327064]

>  <E0_kJmol>  (1) 
-540079

>  <H298_kJmol>  (1) 
-540068

$$$$

     RDKit          3D

 10  9  0  0  0  0  0  0  0  0999 V2000
    0.0082   -1.7710    0.7078 C   0  0  0  0  0  0  0  0  0  1  0  0
   -0.4275    1.7306   -0.8533 C   0  0  0  0  0  0  0  0  0  2  0  0
    0.4360   -0.4019    0.3275 C   0  0  0  0  0  0  0  0  0  3  0  0
   -0.0311    0.6203   -0.2599 C   0  0  0  0  0  2  0  0  0  4  0  0
    0.6135   -2.5095    0.1815 H   0  0  0  0  0  0  0  0  0  5  0  0
    0.1371   -1.9319    1.7789 H   0  0  0  0  0  0  0  0  0  6  0  0
   -1.0417   -1.9232    0.4534 H   0  0  0  0  0  0  0  0  0  7  0  0
   -0.3345    1.8521   -1.9258 H   0  0  0  0  0  0  0  0  0  8  0  0
   -0.8708    2.5401   -0.2860 H   0  0  0  0  0  0  0  0  0  9  0  0
    1.4535   -0.1913    0.6568 H   0  0  0  0  0  0  0  0  0 10  0  0
  1  5  1  0
  1  3  1  0
  1  7  1  0
  1  6  1  0
  2  9  1  0
  2  8  1  0
  2  4  1  0
  3  4  1  0
  3 10  1  0
M  RAD  1   4   3
M  END
>  <rmg_smiles>  (2) 
[CH2][C][CH]C

>  <rmg_adjacency_list>  (2) 
1  C u0 p0 c0 {2,S} {5,S} {6,S} {7,S}
2  C u0 p0 c0 {1,S} {4,S} {8,S}
3  C u0 p0 c0 {4,S} {9,S} {10,S}
4  C u0 p1 c0 {2,S} {3,S}
5  H u0 p0 c0 {1,S}
6  H u0 p0 c0 {1,S}
7  H u0 p0 c0 {1,S}
8  H u0 p0 c0 {2,S}
9  H u0 p0 c0 {3,S}
10 H u0 p0 c0 {3,S}


>  <multiplicity>  (2) 
1

>  <reaction>  (2) 
rmg_rxn_13866

>  <type>  (2) 
r2h

>  <role_mapnums>  (2) 
{"r2h_a": 3, "r2h_h": 10}

>  <role_mapidx>  (2) 
{"r2h_a": 2, "r2h_h": 9}

>  <ordered_mapped_smiles>  (2) 
[C:1]([CH:3]([C:4][CH:2]([H:8])[H:9])[H:10])([H:5])([H:6])[H:7]

>  <mol_properties>  (2) 
{"2": {"label": "acceptor", "atom_type": "Cs"}, "9": {"label": "a_hydrogen", "atom_type": "H0"}}

>  <level_of_theory>  (2) 
wb97xd/def2tzvp

>  <lot_method>  (2) 
wb97xd

>  <lot_basis>  (2) 
def2tzvp

>  <spin_multiplicity>  (2) 
1.0

>  <optical_isomers>  (2) 
1.0

>  <modes>  (2) 
IdealGasTranslation(mass=(54.047, 'amu')),         NonlinearRotor(             inertia = ([14.6121, 119.467, 127.49

>  <frequency_value>  (2) 
unknown

>  <frequency_units>  (2) 
unknown

>  <frequency_list>  (2) 
unknown

>  <arkane_path>  (2) 
/home/calvin/Dropbox/PersonalFolders/Calvin/ZEUS_Converged/rmg_rxn_13866/output/Species/rmg_rxn_13866_p2_C=C=CC/arkane/output.py

>  <path_exists>  (2) 
True

>  <E0_value>  (2) 
-409296.6502421279

>  <E0_units>  (2) 
kJ/mol

>  <thermo_class>  (2) 
NASA

>  <Cp0_value>  (2) 
33.257888

>  <Cp0_units>  (2) 
J/(mol*K)

>  <CpInf_value>  (2) 
232.805216

>  <CpInf_units>  (2) 
J/(mol*K)

>  <Tmin_value>  (2) 
10.0

>  <Tmin_units>  (2) 
K

>  <Tmax_value>  (2) 
3000.0

>  <Tmax_units>  (2) 
K

>  <polynomials>  (2) 
[{"name": "polynomial1", "class": "NASAPolynomial", "Tmin_value": 10.0, "Tmin_units": "K", "Tmax_value": 452.8802664009696, "Tmax_units": "K", "coeffs": [3.9021943352433452, 0.007937521032632688, 6.664442489196733e-05, -1.2131953588307993e-07, 6.938885885775227e-11, -49227014.555544384, 8.255511443201872]}, {"name": "polynomial2", "class": "NASAPolynomial", "Tmin_value": 452.8802664009696, "Tmin_units": "K", "Tmax_value": 3000.0, "Tmax_units": "K", "coeffs": [0.958037882717614, 0.033941191741253485, -1.948265019694705e-05, 5.463813645242153e-09, -5.979209978345261e-13, -49226747.88374059, 20.12723627389473]}]

>  <H298_value>  (2) 
-97820.47439749332

>  <H298_units>  (2) 
kcal/mol

>  <S298_value>  (2) 
69.30943774444917

>  <S298_units>  (2) 
cal/(mol*K)

>  <Cp_T_value_list>  (2) 
[19.013335795722274, 23.35407848830737, 27.231838984706652, 30.626214617830076, 36.15654523435027, 40.30546036176962, 46.594544625367064, 49.786664420046236, 51.450781523093035]

>  <Cp_T_units>  (2) 
cal/(mol*K)

>  <T_list>  (2) 
[300.0, 400.0, 500.0, 600.0, 800.0, 1000.0, 1500.0, 2000.0, 2400.0]

>  <T_units>  (2) 
K

>  <yaml_path>  (2) 
/home/calvin/Dropbox/PersonalFolders/Calvin/ZEUS_Converged/rmg_rxn_13866/output/Species/rmg_rxn_13866_p2_C=C=CC/rmg_rxn_13866_p2_C=C=CC.yml

>  <frequencies_cm1>  (2) 
[164.84884959192, 210.28769145436, 340.98015606459995, 540.2944049775999, 574.7186023867599, 878.6239047086799, 884.0282221555199, 895.09093550604, 1017.79709618912, 1055.91573170044, 1088.91159616304, 1146.5530709391198, 1353.77808694076, 1399.01778622892, 1463.354571692, 1470.3726306890399, 1494.8053644576, 2061.4346581373993, 3012.63573069316, 3072.0282867258397, 3106.42501619372, 3110.62074422424, 3124.134971334, 3189.66661224276]

>  <ZPE_kJmol>  (2) 
219.25357474583132

>  <E_elec_kJmol>  (2) 
-409515.9038168737

>  <E0_minus_Eelec_plus_ZPE_kJmol>  (2) 
0.0

>  <rxn>  (2) 
rmg_rxn_13866

>  <species_type>  (2) 
p1

>  <species_folder>  (2) 
rmg_rxn_13866_p2_C=C=CC

>  <frequencies_cm1_list>  (2) 
[164.84884959192, 210.28769145436, 340.98015606459995, 540.2944049775999, 574.7186023867599, 878.6239047086799, 884.0282221555199, 895.09093550604, 1017.79709618912, 1055.91573170044, 1088.91159616304, 1146.5530709391198, 1353.77808694076, 1399.01778622892, 1463.354571692, 1470.3726306890399, 1494.8053644576, 2061.4346581373993, 3012.63573069316, 3072.0282867258397, 3106.42501619372, 3110.62074422424, 3124.134971334, 3189.66661224276]

>  <E0_kJmol>  (2) 
-409297

>  <H298_kJmol>  (2) 
-409281

$$$$

     RDKit          3D

 13 11  0  0  0  0  0  0  0  0999 V2000
    2.0752    0.3550    0.9749 O   0  0  0  0  0  0  0  0  0  1  0  0
    2.4671   -1.1141   -0.5117 O   0  0  0  0  0  0  0  0  0  2  0  0
    2.8878   -0.3699    0.3144 N   0  0  0  0  0  0  0  0  0  3  0  0
   -0.7505   -1.4640    0.5450 C   0  0  0  0  0  0  0  0  0  4  0  0
   -1.1861    2.0377   -1.0161 C   0  0  0  0  0  0  0  0  0  5  0  0
   -0.3227   -0.0949    0.1647 C   0  0  0  0  0  3  0  0  0  6  0  0
   -0.7898    0.9273   -0.4227 C   0  0  0  0  0  0  0  0  0  7  0  0
   -0.1452   -2.2024    0.0187 H   0  0  0  0  0  0  0  0  0  8  0  0
   -0.6216   -1.6248    1.6161 H   0  0  0  0  0  0  0  0  0  9  0  0
   -1.8004   -1.6161    0.2907 H   0  0  0  0  0  0  0  0  0 10  0  0
   -1.0931    2.1592   -2.0886 H   0  0  0  0  0  0  0  0  0 11  0  0
   -1.6295    2.8471   -0.4488 H   0  0  0  0  0  0  0  0  0 12  0  0
    0.9089    0.1601    0.5633 H   0  0  0  0  0  0  0  0  0 13  0  0
  1  3  1  0
  1 13  1  0
  2  3  1  0
  4  8  1  0
  4  9  1  0
  4 10  1  0
  4  6  1  0
  5 11  1  0
  5  7  1  0
  5 12  1  0
  6  7  1  0
M  RAD  1   6   2
M  END
>  <rmg_smiles>  (3) 
[CH2][C][C]C.[O][N]O

>  <rmg_adjacency_list>  (3) 
multiplicity 2
1  O u0 p2 c0 {3,S} {13,S}
2  O u0 p2 c0 {3,S}
3  N u0 p1 c0 {1,S} {2,S}
4  C u0 p0 c0 {6,S} {8,S} {9,S} {10,S}
5  C u0 p0 c0 {7,S} {11,S} {12,S}
6  C u1 p1 c0 {4,S} {7,S}
7  C u0 p1 c0 {5,S} {6,S}
8  H u0 p0 c0 {4,S}
9  H u0 p0 c0 {4,S}
10 H u0 p0 c0 {4,S}
11 H u0 p0 c0 {5,S}
12 H u0 p0 c0 {5,S}
13 H u0 p0 c0 {1,S}


>  <multiplicity>  (3) 
2

>  <reaction>  (3) 
rmg_rxn_13866

>  <type>  (3) 
ts

>  <role_mapnums>  (3) 
{"*2": 13, "*1": 1, "*3": 6, "*0": 3, "*4": 7}

>  <role_mapidx>  (3) 
{"*2": 12, "*1": 0, "*3": 5, "*0": 2, "*4": 6}

>  <ordered_mapped_smiles>  (3) 
[O:1]([NH:3][OH:2])[H:13].[C:4]([CH:6][CH2:7][CH:5]([H:11])[H:12])([H:8])([H:9])[H:10]

>  <mol_properties>  (3) 
{"0": {"label": "*1", "atom_type": "O2s"}, "2": {"label": "*0", "atom_type": "N3s"}, "5": {"label": "*3", "atom_type": "C2s"}, "6": {"label": "*4", "atom_type": "C2s"}, "12": {"label": "*2", "atom_type": "H0"}}

>  <level_of_theory>  (3) 
wb97xd/def2tzvp

>  <lot_method>  (3) 
wb97xd

>  <lot_basis>  (3) 
def2tzvp

>  <spin_multiplicity>  (3) 
2.0

>  <optical_isomers>  (3) 
2.0

>  <modes>  (3) 
IdealGasTranslation(mass=(100.04, 'amu')),         NonlinearRotor(             inertia = ([139.024, 345.93, 417.852

>  <frequency_value>  (3) 
-1883.63

>  <frequency_units>  (3) 
cm^-1

>  <frequency_list>  (3) 
unknown

>  <arkane_path>  (3) 
/home/calvin/Dropbox/PersonalFolders/Calvin/ZEUS_Converged/rmg_rxn_13866/output/rxns/TS0/arkane/output.py

>  <path_exists>  (3) 
True

>  <E0_value>  (3) 
-947653.0

>  <E0_units>  (3) 
kJ/mol

>  <thermo_class>  (3) 
unknown

>  <Cp0_value>  (3) 
unknown

>  <Cp0_units>  (3) 
unknown

>  <CpInf_value>  (3) 
unknown

>  <CpInf_units>  (3) 
unknown

>  <Tmin_value>  (3) 
unknown

>  <Tmin_units>  (3) 
unknown

>  <Tmax_value>  (3) 
unknown

>  <Tmax_units>  (3) 
unknown

>  <polynomials>  (3) 
unknown

>  <H298_value>  (3) 
unknown

>  <H298_units>  (3) 
unknown

>  <S298_value>  (3) 
unknown

>  <S298_units>  (3) 
unknown

>  <Cp_T_value_list>  (3) 
unknown

>  <Cp_T_units>  (3) 
unknown

>  <T_list>  (3) 
unknown

>  <T_units>  (3) 
unknown

>  <yaml_path>  (3) 
unknown

>  <frequencies_cm1>  (3) 
unknown

>  <ZPE_kJmol>  (3) 
unknown

>  <E_elec_kJmol>  (3) 
unknown

>  <E0_minus_Eelec_plus_ZPE_kJmol>  (3) 
unknown

>  <rxn>  (3) 
unknown

>  <species_type>  (3) 
unknown

>  <species_folder>  (3) 
unknown

>  <frequencies_cm1_list>  (3) 
[]

>  <ts_imag_freq_cm1>  (3) 
-1906.5075

>  <ts_freq_out_path>  (3) 
/home/calvin/Dropbox/PersonalFolders/Calvin/ZEUS_Converged/rmg_rxn_13866/output/rxns/TS0/geometry/freq.out

>  <E0_kJmol>  (3) 
-947653

>  <H298_kJmol>  (3) 
unknown

$$$$

     RDKit          3D

  3  2  0  0  0  0  0  0  0  0999 V2000
    1.0961   -0.1123    0.0000 O   0  0  0  0  0  0  0  0  0  1  0  0
   -0.0112    0.3049    0.0000 N   0  0  0  0  0  0  0  0  0  2  0  0
   -1.0848   -0.1926    0.0000 O   0  0  0  0  0  1  0  0  0  3  0  0
  1  2  1  0
  2  3  1  0
M  RAD  1   3   2
M  END
>  <rmg_smiles>  (4) 
[O][N][O]

>  <rmg_adjacency_list>  (4) 
multiplicity 2
1 O u1 p2 c0 {3,S}
2 O u0 p2 c0 {3,S}
3 N u0 p1 c0 {1,S} {2,S}


>  <multiplicity>  (4) 
2

>  <reaction>  (4) 
rmg_rxn_13866

>  <type>  (4) 
r1

>  <role_mapnums>  (4) 
{}

>  <role_mapidx>  (4) 
{}

>  <ordered_mapped_smiles>  (4) 
[OH:1][NH:2][O:3]

>  <level_of_theory>  (4) 
wb97xd/def2tzvp

>  <lot_method>  (4) 
wb97xd

>  <lot_basis>  (4) 
def2tzvp

>  <spin_multiplicity>  (4) 
2.0

>  <optical_isomers>  (4) 
1.0

>  <modes>  (4) 
IdealGasTranslation(mass=(45.9929, 'amu')),         NonlinearRotor(             inertia = ([2.03949, 38.09, 40.1295

>  <frequency_value>  (4) 
unknown

>  <frequency_units>  (4) 
unknown

>  <frequency_list>  (4) 
unknown

>  <arkane_path>  (4) 
/home/calvin/Dropbox/PersonalFolders/Calvin/ZEUS_Converged/rmg_rxn_13866/output/Species/rmg_rxn_13866_p1_sbr-O--sbrsbr-Np-sbr=O/arkane/output.py

>  <path_exists>  (4) 
True

>  <E0_value>  (4) 
-538456.0889257833

>  <E0_units>  (4) 
kJ/mol

>  <thermo_class>  (4) 
NASA

>  <Cp0_value>  (4) 
33.257888

>  <Cp0_units>  (4) 
J/(mol*K)

>  <CpInf_value>  (4) 
58.201304

>  <CpInf_units>  (4) 
J/(mol*K)

>  <Tmin_value>  (4) 
10.0

>  <Tmin_units>  (4) 
K

>  <Tmax_value>  (4) 
3000.0

>  <Tmax_units>  (4) 
K

>  <polynomials>  (4) 
[{"name": "polynomial1", "class": "NASAPolynomial", "Tmin_value": 10.0, "Tmin_units": "K", "Tmax_value": 829.6642369079798, "Tmax_units": "K", "coeffs": [4.0308960454276175, -0.001974991953825363, 1.609876784052445e-05, -1.920724110169219e-08, 7.297814790735689e-12, -64761309.78244463, 5.868078151384596]}, {"name": "polynomial2", "class": "NASAPolynomial", "Tmin_value": 829.6642369079798, "Tmin_units": "K", "Tmax_value": 3000.0, "Tmax_units": "K", "coeffs": [2.9738220327243696, 0.0060846607858577135, -3.830218007662542e-06, 1.111371667342878e-09, -1.2191261586384878e-13, -64761236.366017915, 10.155829955508297]}]

>  <H298_value>  (4) 
-128691.66925982916

>  <H298_units>  (4) 
kcal/mol

>  <S298_value>  (4) 
57.23889332642445

>  <S298_units>  (4) 
cal/(mol*K)

>  <Cp_T_value_list>  (4) 
[8.798961599190521, 9.487445967148588, 10.181055693024502, 10.807402712467155, 11.74278355458733, 12.355901280507831, 13.148390472177498, 13.438768249915762, 13.58014420362849]

>  <Cp_T_units>  (4) 
cal/(mol*K)

>  <T_list>  (4) 
[300.0, 400.0, 500.0, 600.0, 800.0, 1000.0, 1500.0, 2000.0, 2400.0]

>  <T_units>  (4) 
K

>  <yaml_path>  (4) 
/home/calvin/Dropbox/PersonalFolders/Calvin/ZEUS_Converged/rmg_rxn_13866/output/Species/rmg_rxn_13866_p1_sbr-O--sbrsbr-Np-sbr=O/rmg_rxn_13866_p1_sbr-O--sbrsbr-Np-sbr=O.yml

>  <frequencies_cm1>  (4) 
[773.57963026864, 1428.1132030297597, 1743.1018196581601]

>  <ZPE_kJmol>  (4) 
23.59511860156866

>  <E_elec_kJmol>  (4) 
-538479.6840443849

>  <E0_minus_Eelec_plus_ZPE_kJmol>  (4) 
0.0

>  <rxn>  (4) 
rmg_rxn_13866

>  <species_type>  (4) 
p0

>  <species_folder>  (4) 
rmg_rxn_13866_p1_sbr-O--sbrsbr-Np-sbr=O

>  <frequencies_cm1_list>  (4) 
[773.57963026864, 1428.1132030297597, 1743.1018196581601]

>  <E0_kJmol>  (4) 
-538456

>  <H298_kJmol>  (4) 
-538446

$$$$

     RDKit          3D

  9  8  0  0  0  0  0  0  0  0999 V2000
    2.2285    0.1429   -0.1875 C   0  0  0  0  0  0  0  0  0  1  0  0
    0.8689    0.0588   -0.0734 C   0  0  0  0  0  0  0  0  0  2  0  0
   -0.3436   -0.0148    0.0282 C   0  0  0  0  0  3  0  0  0  3  0  0
   -1.7876   -0.1130    0.1500 C   0  0  0  0  0  0  0  0  0  4  0  0
    2.8646    0.0330    0.6803 H   0  0  0  0  0  0  0  0  0  5  0  0
    2.6934    0.3211   -1.1477 H   0  0  0  0  0  0  0  0  0  6  0  0
   -2.1322    0.3380    1.0826 H   0  0  0  0  0  0  0  0  0  7  0  0
   -2.1068   -1.1583    0.1470 H   0  0  0  0  0  0  0  0  0  8  0  0
   -2.2854    0.3923   -0.6795 H   0  0  0  0  0  0  0  0  0  9  0  0
  1  5  1  0
  1  6  1  0
  1  2  1  0
  2  3  1  0
  3  4  1  0
  4  8  1  0
  4  9  1  0
  4  7  1  0
M  RAD  1   3   2
M  END
>  <rmg_smiles>  (5) 
[CH2]C[C]C

>  <rmg_adjacency_list>  (5) 
multiplicity 2
1 C u0 p0 c0 {3,S} {5,S} {6,S} {7,S}
2 C u0 p0 c0 {4,S} {8,S} {9,S}
3 C u1 p1 c0 {1,S} {4,S}
4 C u0 p1 c0 {2,S} {3,S}
5 H u0 p0 c0 {1,S}
6 H u0 p0 c0 {1,S}
7 H u0 p0 c0 {1,S}
8 H u0 p0 c0 {2,S}
9 H u0 p0 c0 {2,S}


>  <multiplicity>  (5) 
2

>  <reaction>  (5) 
rmg_rxn_13866

>  <type>  (5) 
r2

>  <role_mapnums>  (5) 
{}

>  <role_mapidx>  (5) 
{}

>  <ordered_mapped_smiles>  (5) 
[CH:1]([CH2:2][CH:3][C:4]([H:7])([H:8])[H:9])([H:5])[H:6]

>  <level_of_theory>  (5) 
wb97xd/def2tzvp

>  <lot_method>  (5) 
wb97xd

>  <lot_basis>  (5) 
def2tzvp

>  <spin_multiplicity>  (5) 
2.0

>  <optical_isomers>  (5) 
2.0

>  <modes>  (5) 
IdealGasTranslation(mass=(53.0391, 'amu')),         NonlinearRotor(             inertia = ([4.88746, 139.242, 140.992

>  <frequency_value>  (5) 
unknown

>  <frequency_units>  (5) 
unknown

>  <frequency_list>  (5) 
unknown

>  <arkane_path>  (5) 
/home/calvin/Dropbox/PersonalFolders/Calvin/ZEUS_Converged/rmg_rxn_13866/output/Species/rmg_rxn_13866_r2_sbr-CH2-sbrCtCC/arkane/output.py

>  <path_exists>  (5) 
True

>  <E0_value>  (5) 
-407625.4064849041

>  <E0_units>  (5) 
kJ/mol

>  <thermo_class>  (5) 
NASA

>  <Cp0_value>  (5) 
33.257888

>  <Cp0_units>  (5) 
J/(mol*K)

>  <CpInf_value>  (5) 
207.8618

>  <CpInf_units>  (5) 
J/(mol*K)

>  <Tmin_value>  (5) 
10.0

>  <Tmin_units>  (5) 
K

>  <Tmax_value>  (5) 
3000.0

>  <Tmax_units>  (5) 
K

>  <polynomials>  (5) 
[{"name": "polynomial1", "class": "NASAPolynomial", "Tmin_value": 10.0, "Tmin_units": "K", "Tmax_value": 502.0268159976515, "Tmax_units": "K", "coeffs": [3.687270830426517, 0.029053628934412008, -4.470123428186127e-05, 7.503439468745092e-08, -5.158529094876398e-11, -49026010.75493378, 10.46372665339021]}, {"name": "polynomial2", "class": "NASAPolynomial", "Tmin_value": 502.0268159976515, "Tmin_units": "K", "Tmax_value": 3000.0, "Tmax_units": "K", "coeffs": [2.898462070883104, 0.02729908073702909, -1.54375900595206e-05, 4.274702323061024e-09, -4.631616133105543e-13, -49025830.24365362, 14.734719774038638]}]

>  <H298_value>  (5) 
-97420.5979578768

>  <H298_units>  (5) 
kcal/mol

>  <S298_value>  (5) 
76.91244568160063

>  <S298_units>  (5) 
cal/(mol*K)

>  <Cp_T_value_list>  (5) 
[19.848886680568814, 23.127392893703846, 26.219193390336713, 28.980799697634083, 33.49755626219656, 36.90539253248215, 42.11858387906473, 44.77831245492002, 46.14816382733488]

>  <Cp_T_units>  (5) 
cal/(mol*K)

>  <T_list>  (5) 
[300.0, 400.0, 500.0, 600.0, 800.0, 1000.0, 1500.0, 2000.0, 2400.0]

>  <T_units>  (5) 
K

>  <yaml_path>  (5) 
/home/calvin/Dropbox/PersonalFolders/Calvin/ZEUS_Converged/rmg_rxn_13866/output/Species/rmg_rxn_13866_r2_sbr-CH2-sbrCtCC/rmg_rxn_13866_r2_sbr-CH2-sbrCtCC.yml

>  <frequencies_cm1>  (5) 
[24.18552229704, 186.74766577739996, 206.32544092471997, 398.28514856, 428.84323323399997, 670.45124473288, 768.8002084859199, 1023.53102893132, 1025.11730254024, 1044.32426048028, 1244.297739984, 1401.51050190008, 1455.78715386936, 1460.16829050352, 1460.7931861676398, 2137.33544687936, 3007.2588811876003, 3071.0325738544398, 3085.0961597897995, 3128.557309880079, 3222.30539346872]

>  <ZPE_kJmol>  (5) 
182.1360065892337

>  <E_elec_kJmol>  (5) 
-407807.5424914933

>  <E0_minus_Eelec_plus_ZPE_kJmol>  (5) 
0.0

>  <rxn>  (5) 
rmg_rxn_13866

>  <species_type>  (5) 
r1

>  <species_folder>  (5) 
rmg_rxn_13866_r2_sbr-CH2-sbrCtCC

>  <frequencies_cm1_list>  (5) 
[24.18552229704, 186.74766577739996, 206.32544092471997, 398.28514856, 428.84323323399997, 670.45124473288, 768.8002084859199, 1023.53102893132, 1025.11730254024, 1044.32426048028, 1244.297739984, 1401.51050190008, 1455.78715386936, 1460.16829050352, 1460.7931861676398, 2137.33544687936, 3007.2588811876003, 3071.0325738544398, 3085.0961597897995, 3128.557309880079, 3222.30539346872]

>  <E0_kJmol>  (5) 
-407625

>  <H298_kJmol>  (5) 
-407608

$$$$
