
     RDKit          3D

  5  4  0  0  0  0  0  0  0  0999 V2000
   -0.8748   -0.1601   -0.6223 N   0  0  0  0  0  0  0  0  0  1  0  0
    0.1083   -0.4086    0.1675 N   0  0  0  0  0  0  0  0  0  2  0  0
    0.8055    0.5006    0.5372 O   0  0  0  0  0  0  0  0  0  3  0  0
   -0.8495    0.7447   -1.0757 H   0  0  0  0  0  0  0  0  0  4  0  0
   -1.2895   -0.9886   -1.0305 H   0  0  0  0  0  0  0  0  0  5  0  0
  1  5  1  0
  1  2  1  0
  1  4  1  0
  2  3  1  0
M  END
>  <rmg_smiles>  (1) 
N[N][O]

>  <rmg_adjacency_list>  (1) 
1 O u0 p2 c0 {3,S}
2 N u0 p1 c0 {3,S} {4,S} {5,S}
3 N u0 p1 c0 {1,S} {2,S}
4 H u0 p0 c0 {2,S}
5 H u0 p0 c0 {2,S}


>  <multiplicity>  (1) 
1

>  <reaction>  (1) 
rmg_rxn_1487

>  <type>  (1) 
r1h

>  <role_mapnums>  (1) 
{"r1h_a": 1, "r1h_h": 4}

>  <role_mapidx>  (1) 
{"r1h_a": 0, "r1h_h": 3}

>  <ordered_mapped_smiles>  (1) 
[N:1]([NH:2][OH:3])([H:4])[H:5]

>  <mol_properties>  (1) 
{"0": {"label": "donator", "atom_type": "N3s"}, "3": {"label": "d_hydrogen", "atom_type": "H0"}}

>  <level_of_theory>  (1) 
wb97xd/def2tzvp

>  <lot_method>  (1) 
wb97xd

>  <lot_basis>  (1) 
def2tzvp

>  <spin_multiplicity>  (1) 
1.0

>  <optical_isomers>  (1) 
1.0

>  <modes>  (1) 
IdealGasTranslation(mass=(46.0167, 'amu')),         NonlinearRotor(             inertia = ([6.03621, 38.6456, 44.6818

>  <frequency_value>  (1) 
unknown

>  <frequency_units>  (1) 
unknown

>  <frequency_list>  (1) 
unknown

>  <arkane_path>  (1) 
/home/calvin/Dropbox/PersonalFolders/Calvin/ATLAS_Converged/rmg_rxn_1487/output/Species/rmg_rxn_1487_r1_NN=O/arkane/output.py

>  <path_exists>  (1) 
True

>  <E0_value>  (1) 
-487909.5710036975

>  <E0_units>  (1) 
kJ/mol

>  <thermo_class>  (1) 
NASA

>  <Cp0_value>  (1) 
33.257888

>  <Cp0_units>  (1) 
J/(mol*K)

>  <CpInf_value>  (1) 
108.088136

>  <CpInf_units>  (1) 
J/(mol*K)

>  <Tmin_value>  (1) 
10.0

>  <Tmin_units>  (1) 
K

>  <Tmax_value>  (1) 
3000.0

>  <Tmax_units>  (1) 
K

>  <polynomials>  (1) 
[{"name": "polynomial1", "class": "NASAPolynomial", "Tmin_value": 10.0, "Tmin_units": "K", "Tmax_value": 491.3889412835894, "Tmax_units": "K", "coeffs": [3.982254985154104, 0.001109066907410209, 3.807622400219672e-05, -7.34801373598144e-08, 4.5205197130692525e-11, -58681966.3266894, 6.4941530339393]}, {"name": "polynomial2", "class": "NASAPolynomial", "Tmin_value": 491.3889412835894, "Tmin_units": "K", "Tmax_value": 3000.0, "Tmax_units": "K", "coeffs": [2.9404368052929843, 0.012865713030583807, -7.812149749761828e-06, 2.344037732853415e-09, -2.738787635374175e-13, -58681903.491322435, 10.377638282690032]}]

>  <H298_value>  (1) 
-116610.30707517578

>  <H298_units>  (1) 
kcal/mol

>  <S298_value>  (1) 
60.89503268429048

>  <S298_units>  (1) 
cal/(mol*K)

>  <Cp_T_value_list>  (1) 
[12.16971939315822, 13.855999712949458, 15.293825753682395, 16.530196084841165, 18.5231451978899, 19.99956230160783, 22.22945931121974, 23.436130825769936, 24.119725013813046]

>  <Cp_T_units>  (1) 
cal/(mol*K)

>  <T_list>  (1) 
[300.0, 400.0, 500.0, 600.0, 800.0, 1000.0, 1500.0, 2000.0, 2400.0]

>  <T_units>  (1) 
K

>  <yaml_path>  (1) 
/home/calvin/Dropbox/PersonalFolders/Calvin/ATLAS_Converged/rmg_rxn_1487/output/Species/rmg_rxn_1487_r1_NN=O/rmg_rxn_1487_r1_NN=O.yml

>  <frequencies_cm1>  (1) 
[224.96930606852, 638.8425113049199, 713.1638934232799, 1118.09628377304, 1228.5792105865198, 1578.89846668632, 1626.84375819056, 3477.7435134020793, 3702.4793419697194]

>  <ZPE_kJmol>  (1) 
85.59053717638125

>  <E_elec_kJmol>  (1) 
-487995.1615408739

>  <E0_minus_Eelec_plus_ZPE_kJmol>  (1) 
0.0

>  <rxn>  (1) 
rmg_rxn_1487

>  <species_type>  (1) 
r0

>  <species_folder>  (1) 
rmg_rxn_1487_r1_NN=O

>  <frequencies_cm1_list>  (1) 
[224.96930606852, 638.8425113049199, 713.1638934232799, 1118.09628377304, 1228.5792105865198, 1578.89846668632, 1626.84375819056, 3477.7435134020793, 3702.4793419697194]

>  <E0_kJmol>  (1) 
-487910

>  <H298_kJmol>  (1) 
-487898

$$$$

     RDKit          3D

  9  8  0  0  0  0  0  0  0  0999 V2000
   -0.0101   -2.4775    0.1820 H   0  0  0  0  0  0  0  0  0  1  0  0
    0.1229   -1.5075   -0.2906 C   0  0  0  0  0  0  0  0  0  2  0  0
   -0.0992   -0.5046    0.7884 C   0  0  0  0  0  0  0  0  0  3  0  0
   -0.1081    0.9365    0.3712 N   0  0  0  0  0  0  0  0  0  4  0  0
    0.0732    1.1316   -0.7878 O   0  0  0  0  0  0  0  0  0  5  0  0
   -0.6343   -1.5355   -1.0716 H   0  0  0  0  0  0  0  0  0  6  0  0
    1.1334   -1.5570   -0.6861 H   0  0  0  0  0  0  0  0  0  7  0  0
   -1.0599   -0.6260    1.2982 H   0  0  0  0  0  0  0  0  0  8  0  0
    0.6653   -0.5526    1.5680 H   0  0  0  0  0  0  0  0  0  9  0  0
  1  2  1  0
  2  7  1  0
  2  6  1  0
  2  3  1  0
  3  4  1  0
  3  8  1  0
  3  9  1  0
  4  5  1  0
M  END
>  <rmg_smiles>  (2) 
CC[N][O]

>  <rmg_adjacency_list>  (2) 
1 O u0 p2 c0 {2,S}
2 N u0 p1 c0 {1,S} {3,S}
3 C u0 p0 c0 {2,S} {4,S} {5,S} {6,S}
4 C u0 p0 c0 {3,S} {7,S} {8,S} {9,S}
5 H u0 p0 c0 {3,S}
6 H u0 p0 c0 {3,S}
7 H u0 p0 c0 {4,S}
8 H u0 p0 c0 {4,S}
9 H u0 p0 c0 {4,S}


>  <multiplicity>  (2) 
1

>  <reaction>  (2) 
rmg_rxn_1487

>  <type>  (2) 
r2h

>  <role_mapnums>  (2) 
{"r2h_a": 2, "r2h_h": 1}

>  <role_mapidx>  (2) 
{"r2h_a": 1, "r2h_h": 0}

>  <ordered_mapped_smiles>  (2) 
[H:1][C:2]([C:3]([NH:4][OH:5])([H:8])[H:9])([H:6])[H:7]

>  <mol_properties>  (2) 
{"0": {"label": "a_hydrogen", "atom_type": "H0"}, "1": {"label": "acceptor", "atom_type": "Cs"}}

>  <level_of_theory>  (2) 
wb97xd/def2tzvp

>  <lot_method>  (2) 
wb97xd

>  <lot_basis>  (2) 
def2tzvp

>  <spin_multiplicity>  (2) 
1.0

>  <optical_isomers>  (2) 
1.0

>  <modes>  (2) 
IdealGasTranslation(mass=(59.0371, 'amu')),         NonlinearRotor(             inertia = ([29.0143, 77.6306, 100.462

>  <frequency_value>  (2) 
unknown

>  <frequency_units>  (2) 
unknown

>  <frequency_list>  (2) 
unknown

>  <arkane_path>  (2) 
/home/calvin/Dropbox/PersonalFolders/Calvin/ATLAS_Converged/rmg_rxn_1487/output/Species/rmg_rxn_1487_p2_CCN=O/arkane/output.py

>  <path_exists>  (2) 
True

>  <E0_value>  (2) 
-548877.558747515

>  <E0_units>  (2) 
kJ/mol

>  <thermo_class>  (2) 
NASA

>  <Cp0_value>  (2) 
33.257888

>  <Cp0_units>  (2) 
J/(mol*K)

>  <CpInf_value>  (2) 
207.8618

>  <CpInf_units>  (2) 
J/(mol*K)

>  <Tmin_value>  (2) 
10.0

>  <Tmin_units>  (2) 
K

>  <Tmax_value>  (2) 
3000.0

>  <Tmax_units>  (2) 
K

>  <polynomials>  (2) 
[{"name": "polynomial1", "class": "NASAPolynomial", "Tmin_value": 10.0, "Tmin_units": "K", "Tmax_value": 852.4467273079296, "Tmax_units": "K", "coeffs": [3.8936881543548516, 0.010863357132079992, 2.9518886027981582e-05, -4.241660668924857e-08, 1.6548322072430634e-11, -66014722.52296326, 8.31212640355373]}, {"name": "polynomial2", "class": "NASAPolynomial", "Tmin_value": 852.4467273079296, "Tmin_units": "K", "Tmax_value": 3000.0, "Tmax_units": "K", "coeffs": [1.958278249526995, 0.028191398788375954, -1.5482894354402147e-05, 4.125838418636631e-09, -4.294786972329381e-13, -66014692.17386343, 15.58298456087749]}]

>  <H298_value>  (2) 
-131181.2546973709

>  <H298_units>  (2) 
kcal/mol

>  <S298_value>  (2) 
68.95858975357608

>  <S298_units>  (2) 
cal/(mol*K)

>  <Cp_T_value_list>  (2) 
[17.483816518754196, 21.205534203635445, 24.715448679483146, 27.862973885513348, 32.86313144341251, 36.49135596500743, 42.04796388055017, 44.80066956867266, 46.148264111815415]

>  <Cp_T_units>  (2) 
cal/(mol*K)

>  <T_list>  (2) 
[300.0, 400.0, 500.0, 600.0, 800.0, 1000.0, 1500.0, 2000.0, 2400.0]

>  <T_units>  (2) 
K

>  <yaml_path>  (2) 
/home/calvin/Dropbox/PersonalFolders/Calvin/ATLAS_Converged/rmg_rxn_1487/output/Species/rmg_rxn_1487_p2_CCN=O/rmg_rxn_1487_p2_CCN=O.yml

>  <frequencies_cm1>  (2) 
[158.20847478748, 231.91869521236, 304.63320276584, 688.52515009512, 725.82661435336, 817.79614874412, 992.8287375655999, 1036.4272273622798, 1118.5151698775599, 1253.84971656412, 1336.8441011416398, 1399.8555584379599, 1435.5776160726, 1473.98466496736, 1481.49027992212, 1699.7642753036398, 3019.11129784992, 3032.8315345192796, 3052.86253069772, 3109.68683422072, 3112.3100226129595]

>  <ZPE_kJmol>  (2) 
188.30930234902567

>  <E_elec_kJmol>  (2) 
-549065.868049864

>  <E0_minus_Eelec_plus_ZPE_kJmol>  (2) 
0.0

>  <rxn>  (2) 
rmg_rxn_1487

>  <species_type>  (2) 
p1

>  <species_folder>  (2) 
rmg_rxn_1487_p2_CCN=O

>  <frequencies_cm1_list>  (2) 
[158.20847478748, 231.91869521236, 304.63320276584, 688.52515009512, 725.82661435336, 817.79614874412, 992.8287375655999, 1036.4272273622798, 1118.5151698775599, 1253.84971656412, 1336.8441011416398, 1399.8555584379599, 1435.5776160726, 1473.98466496736, 1481.49027992212, 1699.7642753036398, 3019.11129784992, 3032.8315345192796, 3052.86253069772, 3109.68683422072, 3112.3100226129595]

>  <E0_kJmol>  (2) 
-548878

>  <H298_kJmol>  (2) 
-548862

$$$$

     RDKit          3D

 13 11  0  0  0  0  0  0  0  0999 V2000
   -0.2953   -2.0033    0.4717 N   0  0  0  0  0  0  0  0  0  1  0  0
    0.6877   -2.2518    1.2615 N   0  0  0  0  0  0  0  0  0  2  0  0
    1.3850   -1.3425    1.6312 O   0  0  0  0  0  0  0  0  0  3  0  0
   -0.2644   -0.8975   -0.0823 H   0  0  0  0  0  0  0  0  0  4  0  0
   -0.7101   -2.8317    0.0635 H   0  0  0  0  0  0  0  0  0  5  0  0
   -0.0952    0.3363   -0.6835 C   0  0  0  0  0  3  0  0  0  6  0  0
   -0.3173    1.3393    0.3955 C   0  0  0  0  0  0  0  0  0  7  0  0
   -0.3262    2.7803   -0.0217 N   0  0  0  0  0  0  0  0  0  8  0  0
   -0.1449    2.9754   -1.1807 O   0  0  0  0  0  0  0  0  0  9  0  0
   -0.8524    0.3084   -1.4645 H   0  0  0  0  0  0  0  0  0 10  0  0
    0.9153    0.2869   -1.0790 H   0  0  0  0  0  0  0  0  0 11  0  0
   -1.2780    1.2178    0.9053 H   0  0  0  0  0  0  0  0  0 12  0  0
    0.4472    1.2912    1.1752 H   0  0  0  0  0  0  0  0  0 13  0  0
  1  5  1  0
  1  2  1  0
  1  4  1  0
  2  3  1  0
  6  7  1  0
  6 11  1  0
  6 10  1  0
  7 13  1  0
  7 12  1  0
  7  8  1  0
  8  9  1  0
M  RAD  1   6   2
M  END
>  <rmg_smiles>  (3) 
[CH2]C[N][O].N[N][O]

>  <rmg_adjacency_list>  (3) 
multiplicity 2
1  O u0 p2 c0 {4,S}
2  O u0 p2 c0 {5,S}
3  N u0 p1 c0 {5,S} {12,S} {13,S}
4  N u0 p1 c0 {1,S} {6,S}
5  N u0 p1 c0 {2,S} {3,S}
6  C u0 p0 c0 {4,S} {7,S} {8,S} {9,S}
7  C u1 p0 c0 {6,S} {10,S} {11,S}
8  H u0 p0 c0 {6,S}
9  H u0 p0 c0 {6,S}
10 H u0 p0 c0 {7,S}
11 H u0 p0 c0 {7,S}
12 H u0 p0 c0 {3,S}
13 H u0 p0 c0 {3,S}


>  <multiplicity>  (3) 
2

>  <reaction>  (3) 
rmg_rxn_1487

>  <type>  (3) 
ts

>  <role_mapnums>  (3) 
{"*2": 4, "*1": 1, "*3": 6, "*0": 2, "*4": 7}

>  <role_mapidx>  (3) 
{"*2": 3, "*1": 0, "*3": 5, "*0": 1, "*4": 6}

>  <ordered_mapped_smiles>  (3) 
[N:1]([NH:2][OH:3])([H:4])[H:5].[C:6]([C:7]([NH:8][OH:9])([H:12])[H:13])([H:10])[H:11]

>  <mol_properties>  (3) 
{"0": {"label": "*1", "atom_type": "N3s"}, "1": {"label": "*0", "atom_type": "N3s"}, "3": {"label": "*2", "atom_type": "H0"}, "5": {"label": "*3", "atom_type": "Cs"}, "6": {"label": "*4", "atom_type": "Cs"}}

>  <level_of_theory>  (3) 
wb97xd/def2tzvp

>  <lot_method>  (3) 
wb97xd

>  <lot_basis>  (3) 
def2tzvp

>  <spin_multiplicity>  (3) 
2.0

>  <optical_isomers>  (3) 
2.0

>  <modes>  (3) 
IdealGasTranslation(mass=(104.046, 'amu')),         NonlinearRotor(             inertia = ([71.1617, 521.477, 557.321

>  <frequency_value>  (3) 
-2030.55

>  <frequency_units>  (3) 
cm^-1

>  <frequency_list>  (3) 
unknown

>  <arkane_path>  (3) 
/home/calvin/Dropbox/PersonalFolders/Calvin/ATLAS_Converged/rmg_rxn_1487/output/rxns/TS0/arkane/output.py

>  <path_exists>  (3) 
True

>  <E0_value>  (3) 
-1035020.0

>  <E0_units>  (3) 
kJ/mol

>  <thermo_class>  (3) 
unknown

>  <Cp0_value>  (3) 
unknown

>  <Cp0_units>  (3) 
unknown

>  <CpInf_value>  (3) 
unknown

>  <CpInf_units>  (3) 
unknown

>  <Tmin_value>  (3) 
unknown

>  <Tmin_units>  (3) 
unknown

>  <Tmax_value>  (3) 
unknown

>  <Tmax_units>  (3) 
unknown

>  <polynomials>  (3) 
unknown

>  <H298_value>  (3) 
unknown

>  <H298_units>  (3) 
unknown

>  <S298_value>  (3) 
unknown

>  <S298_units>  (3) 
unknown

>  <Cp_T_value_list>  (3) 
unknown

>  <Cp_T_units>  (3) 
unknown

>  <T_list>  (3) 
unknown

>  <T_units>  (3) 
unknown

>  <yaml_path>  (3) 
unknown

>  <frequencies_cm1>  (3) 
unknown

>  <ZPE_kJmol>  (3) 
unknown

>  <E_elec_kJmol>  (3) 
unknown

>  <E0_minus_Eelec_plus_ZPE_kJmol>  (3) 
unknown

>  <rxn>  (3) 
unknown

>  <species_type>  (3) 
unknown

>  <species_folder>  (3) 
unknown

>  <frequencies_cm1_list>  (3) 
[]

>  <ts_imag_freq_cm1>  (3) 
-2055.2137

>  <ts_freq_out_path>  (3) 
/home/calvin/Dropbox/PersonalFolders/Calvin/ATLAS_Converged/rmg_rxn_1487/output/rxns/TS0/geometry/freq.out

>  <E0_kJmol>  (3) 
-1.03502e+06

>  <H298_kJmol>  (3) 
unknown

$$$$

     RDKit          3D

  4  3  0  0  0  0  0  0  0  0999 V2000
   -0.8019    0.4189    0.0192 N   0  0  0  0  0  0  0  0  0  1  0  0
    0.3609    0.8266    0.0061 N   0  0  0  0  0  0  0  0  0  2  0  0
    0.8339    1.9183    0.0142 O   0  0  0  0  0  1  0  0  0  3  0  0
   -0.7779   -0.6002    0.0040 H   0  0  0  0  0  0  0  0  0  4  0  0
  1  2  1  0
  1  4  1  0
  2  3  1  0
M  RAD  1   3   2
M  END
>  <rmg_smiles>  (4) 
[NH][N][O]

>  <rmg_adjacency_list>  (4) 
multiplicity 2
1 O u1 p2 c0 {3,S}
2 N u0 p1 c0 {3,S} {4,S}
3 N u0 p1 c0 {1,S} {2,S}
4 H u0 p0 c0 {2,S}


>  <multiplicity>  (4) 
2

>  <reaction>  (4) 
rmg_rxn_1487

>  <type>  (4) 
r1

>  <role_mapnums>  (4) 
{}

>  <role_mapidx>  (4) 
{}

>  <ordered_mapped_smiles>  (4) 
[NH:1]([NH:2][O:3])[H:4]

>  <level_of_theory>  (4) 
wb97xd/def2tzvp

>  <lot_method>  (4) 
wb97xd

>  <lot_basis>  (4) 
def2tzvp

>  <spin_multiplicity>  (4) 
2.0

>  <optical_isomers>  (4) 
1.0

>  <modes>  (4) 
IdealGasTranslation(mass=(45.0089, 'amu')),         NonlinearRotor(             inertia = ([2.57086, 40.1656, 42.7365

>  <frequency_value>  (4) 
unknown

>  <frequency_units>  (4) 
unknown

>  <frequency_list>  (4) 
unknown

>  <arkane_path>  (4) 
/home/calvin/Dropbox/PersonalFolders/Calvin/ATLAS_Converged/rmg_rxn_1487/output/Species/rmg_rxn_1487_p1_sbr-NH-sbrN=O/arkane/output.py

>  <path_exists>  (4) 
True

>  <E0_value>  (4) 
-486262.5359899363

>  <E0_units>  (4) 
kJ/mol

>  <thermo_class>  (4) 
NASA

>  <Cp0_value>  (4) 
33.257888

>  <Cp0_units>  (4) 
J/(mol*K)

>  <CpInf_value>  (4) 
83.14472

>  <CpInf_units>  (4) 
J/(mol*K)

>  <Tmin_value>  (4) 
10.0

>  <Tmin_units>  (4) 
K

>  <Tmax_value>  (4) 
3000.0

>  <Tmax_units>  (4) 
K

>  <polynomials>  (4) 
[{"name": "polynomial1", "class": "NASAPolynomial", "Tmin_value": 10.0, "Tmin_units": "K", "Tmax_value": 676.9921071589606, "Tmax_units": "K", "coeffs": [4.052620261454503, -0.003954731767705262, 3.6687508557980155e-05, -5.192217441285821e-08, 2.3892499392073696e-11, -58483875.09093844, 6.697601255809246]}, {"name": "polynomial2", "class": "NASAPolynomial", "Tmin_value": 676.9921071589606, "Tmin_units": "K", "Tmax_value": 3000.0, "Tmax_units": "K", "coeffs": [2.568708180565944, 0.010096638421347922, -6.1528648012201994e-06, 1.7932353366274705e-09, -2.0078179070337678e-13, -58483795.25224596, 12.38349699742211]}]

>  <H298_value>  (4) 
-116217.0238123498

>  <H298_units>  (4) 
kcal/mol

>  <S298_value>  (4) 
59.269100903572784

>  <S298_units>  (4) 
cal/(mol*K)

>  <Cp_T_value_list>  (4) 
[9.855962067339554, 11.186696308389417, 12.420320683007862, 13.450531461225838, 14.991648229270968, 16.10618021062707, 17.69693128223604, 18.449026156308282, 18.8553435745084]

>  <Cp_T_units>  (4) 
cal/(mol*K)

>  <T_list>  (4) 
[300.0, 400.0, 500.0, 600.0, 800.0, 1000.0, 1500.0, 2000.0, 2400.0]

>  <T_units>  (4) 
K

>  <yaml_path>  (4) 
/home/calvin/Dropbox/PersonalFolders/Calvin/ATLAS_Converged/rmg_rxn_1487/output/Species/rmg_rxn_1487_p1_sbr-NH-sbrN=O/rmg_rxn_1487_p1_sbr-NH-sbrN=O.yml

>  <frequencies_cm1>  (4) 
[669.5654036266, 780.2955419115999, 1274.34766774432, 1377.4211173975198, 1744.5026846634398, 3450.4884486669994]

>  <ZPE_kJmol>  (4) 
55.6061572725318

>  <E_elec_kJmol>  (4) 
-486318.14214720886

>  <E0_minus_Eelec_plus_ZPE_kJmol>  (4) 
0.0

>  <rxn>  (4) 
rmg_rxn_1487

>  <species_type>  (4) 
p0

>  <species_folder>  (4) 
rmg_rxn_1487_p1_sbr-NH-sbrN=O

>  <frequencies_cm1_list>  (4) 
[669.5654036266, 780.2955419115999, 1274.34766774432, 1377.4211173975198, 1744.5026846634398, 3450.4884486669994]

>  <E0_kJmol>  (4) 
-486263

>  <H298_kJmol>  (4) 
-486252

$$$$

     RDKit          3D

  8  7  0  0  0  0  0  0  0  0999 V2000
   -1.0336    0.3440   -0.0356 C   0  0  0  0  0  3  0  0  0  1  0  0
    0.1991   -0.4326   -0.0698 C   0  0  0  0  0  0  0  0  0  2  0  0
    0.9631   -0.0368    1.2269 N   0  0  0  0  0  0  0  0  0  3  0  0
    0.8138   -0.8074    2.1160 O   0  0  0  0  0  0  0  0  0  4  0  0
   -1.0668    1.3490   -0.4321 H   0  0  0  0  0  0  0  0  0  5  0  0
   -1.8598    0.0102    0.5774 H   0  0  0  0  0  0  0  0  0  6  0  0
    0.0447   -1.5108   -0.0264 H   0  0  0  0  0  0  0  0  0  7  0  0
    0.8639   -0.1518   -0.8851 H   0  0  0  0  0  0  0  0  0  8  0  0
  1  5  1  0
  1  6  1  0
  1  2  1  0
  2  3  1  0
  2  8  1  0
  2  7  1  0
  3  4  1  0
M  RAD  1   1   2
M  END
>  <rmg_smiles>  (5) 
[CH2]C[N][O]

>  <rmg_adjacency_list>  (5) 
multiplicity 2
1 O u0 p2 c0 {2,S}
2 N u0 p1 c0 {1,S} {3,S}
3 C u0 p0 c0 {2,S} {4,S} {5,S} {6,S}
4 C u1 p0 c0 {3,S} {7,S} {8,S}
5 H u0 p0 c0 {3,S}
6 H u0 p0 c0 {3,S}
7 H u0 p0 c0 {4,S}
8 H u0 p0 c0 {4,S}


>  <multiplicity>  (5) 
2

>  <reaction>  (5) 
rmg_rxn_1487

>  <type>  (5) 
r2

>  <role_mapnums>  (5) 
{}

>  <role_mapidx>  (5) 
{}

>  <ordered_mapped_smiles>  (5) 
[C:1]([C:2]([NH:3][OH:4])([H:7])[H:8])([H:5])[H:6]

>  <level_of_theory>  (5) 
wb97xd/def2tzvp

>  <lot_method>  (5) 
wb97xd

>  <lot_basis>  (5) 
def2tzvp

>  <spin_multiplicity>  (5) 
2.0

>  <optical_isomers>  (5) 
2.0

>  <modes>  (5) 
IdealGasTranslation(mass=(58.0293, 'amu')),         NonlinearRotor(             inertia = ([22.1608, 91.4743, 98.1404

>  <frequency_value>  (5) 
unknown

>  <frequency_units>  (5) 
unknown

>  <frequency_list>  (5) 
unknown

>  <arkane_path>  (5) 
/home/calvin/Dropbox/PersonalFolders/Calvin/ATLAS_Converged/rmg_rxn_1487/output/Species/rmg_rxn_1487_r2_sbr-CH2-sbrCN=O/arkane/output.py

>  <path_exists>  (5) 
True

>  <E0_value>  (5) 
-547146.7023069542

>  <E0_units>  (5) 
kJ/mol

>  <thermo_class>  (5) 
NASA

>  <Cp0_value>  (5) 
33.257888

>  <Cp0_units>  (5) 
J/(mol*K)

>  <CpInf_value>  (5) 
182.918384

>  <CpInf_units>  (5) 
J/(mol*K)

>  <Tmin_value>  (5) 
10.0

>  <Tmin_units>  (5) 
K

>  <Tmax_value>  (5) 
3000.0

>  <Tmax_units>  (5) 
K

>  <polynomials>  (5) 
[{"name": "polynomial1", "class": "NASAPolynomial", "Tmin_value": 10.0, "Tmin_units": "K", "Tmax_value": 326.276374951593, "Tmax_units": "K", "coeffs": [3.940819341091196, 0.004854009289033578, 0.00011129338709514705, -3.1833863495678465e-07, 2.953593453648331e-10, -65806549.8293943, 9.702528517413192]}, {"name": "polynomial2", "class": "NASAPolynomial", "Tmin_value": 326.276374951593, "Tmin_units": "K", "Tmax_value": 3000.0, "Tmax_units": "K", "coeffs": [2.776819309550134, 0.02583522144291814, -1.601730093384169e-05, 4.83080636877528e-09, -5.633659676887055e-13, -65806509.594192296, 13.46704514990697]}]

>  <H298_value>  (5) 
-130767.46203572692

>  <H298_units>  (5) 
kcal/mol

>  <S298_value>  (5) 
72.16753555448764

>  <S298_units>  (5) 
cal/(mol*K)

>  <Cp_T_value_list>  (5) 
[18.30355202843712, 21.547059859954224, 24.360658196069355, 26.791847495636276, 30.675596667686673, 33.50863415290605, 37.64296846492696, 39.765301572518176, 40.959572893301356]

>  <Cp_T_units>  (5) 
cal/(mol*K)

>  <T_list>  (5) 
[300.0, 400.0, 500.0, 600.0, 800.0, 1000.0, 1500.0, 2000.0, 2400.0]

>  <T_units>  (5) 
K

>  <yaml_path>  (5) 
/home/calvin/Dropbox/PersonalFolders/Calvin/ATLAS_Converged/rmg_rxn_1487/output/Species/rmg_rxn_1487_r2_sbr-CH2-sbrCN=O/rmg_rxn_1487_r2_sbr-CH2-sbrCN=O.yml

>  <frequencies_cm1>  (5) 
[131.04954784688, 262.09222870843996, 346.66601990955996, 500.3972202684, 632.2502053977199, 654.47176989324, 811.1695079103199, 1087.0025742440798, 1125.80104130208, 1214.38515193008, 1243.73464718776, 1448.1373322228799, 1472.8996812868, 1680.95560251216, 3043.1663474258803, 3120.3924643346, 3133.0826532059596, 3239.93981177048]

>  <ZPE_kJmol>  (5) 
150.41605726776052

>  <E_elec_kJmol>  (5) 
-547297.118364222

>  <E0_minus_Eelec_plus_ZPE_kJmol>  (5) 
0.0

>  <rxn>  (5) 
rmg_rxn_1487

>  <species_type>  (5) 
r1

>  <species_folder>  (5) 
rmg_rxn_1487_r2_sbr-CH2-sbrCN=O

>  <frequencies_cm1_list>  (5) 
[131.04954784688, 262.09222870843996, 346.66601990955996, 500.3972202684, 632.2502053977199, 654.47176989324, 811.1695079103199, 1087.0025742440798, 1125.80104130208, 1214.38515193008, 1243.73464718776, 1448.1373322228799, 1472.8996812868, 1680.95560251216, 3043.1663474258803, 3120.3924643346, 3133.0826532059596, 3239.93981177048]

>  <E0_kJmol>  (5) 
-547147

>  <H298_kJmol>  (5) 
-547131

$$$$
