
     RDKit          3D

  9  9  0  0  0  0  0  0  0  0999 V2000
   -1.2102   -0.6192   -0.7735 C   0  0  0  0  0  0  0  0  0  1  0  0
    0.1493   -0.0707   -0.4806 C   0  0  0  0  0  0  0  0  0  2  0  0
    0.2824    1.0047    0.4440 N   0  0  0  0  0  0  0  0  0  3  0  0
    0.7028   -0.3111    0.7849 O   0  0  0  0  0  0  0  0  0  4  0  0
   -1.6526   -0.0826   -1.6147 H   0  0  0  0  0  0  0  0  0  5  0  0
   -1.8546   -0.5114    0.0977 H   0  0  0  0  0  0  0  0  0  6  0  0
   -1.1409   -1.6749   -1.0414 H   0  0  0  0  0  0  0  0  0  7  0  0
    0.8792   -0.1090   -1.2887 H   0  0  0  0  0  0  0  0  0  8  0  0
    1.1695    1.4870    0.1950 H   0  0  0  0  0  0  0  0  0  9  0  0
  1  5  1  0
  1  7  1  0
  1  6  1  0
  1  2  1  0
  2  4  1  0
  2  3  1  0
  2  8  1  0
  3  9  1  0
  3  4  1  0
M  END
>  <rmg_smiles>  (1) 
CC1NO1

>  <rmg_adjacency_list>  (1) 
1 O u0 p2 c0 {2,S} {3,S}
2 N u0 p1 c0 {1,S} {3,S} {9,S}
3 C u0 p0 c0 {1,S} {2,S} {4,S} {5,S}
4 C u0 p0 c0 {3,S} {6,S} {7,S} {8,S}
5 H u0 p0 c0 {3,S}
6 H u0 p0 c0 {4,S}
7 H u0 p0 c0 {4,S}
8 H u0 p0 c0 {4,S}
9 H u0 p0 c0 {2,S}


>  <multiplicity>  (1) 
1

>  <reaction>  (1) 
rmg_rxn_14068

>  <type>  (1) 
r1h

>  <role_mapnums>  (1) 
{"r1h_a": 3, "r1h_h": 9}

>  <role_mapidx>  (1) 
{"r1h_a": 2, "r1h_h": 8}

>  <ordered_mapped_smiles>  (1) 
[C:1]([C:2]1([H:8])[N:3]([H:9])[O:4]1)([H:5])([H:6])[H:7]

>  <mol_properties>  (1) 
{"2": {"label": "donator", "atom_type": "N3s"}, "8": {"label": "d_hydrogen", "atom_type": "H0"}}

>  <level_of_theory>  (1) 
wb97xd/def2tzvp

>  <lot_method>  (1) 
wb97xd

>  <lot_basis>  (1) 
def2tzvp

>  <spin_multiplicity>  (1) 
1.0

>  <optical_isomers>  (1) 
2.0

>  <modes>  (1) 
IdealGasTranslation(mass=(59.0371, 'amu')),         NonlinearRotor(             inertia = ([26.7838, 71.4813, 82.1467

>  <frequency_value>  (1) 
unknown

>  <frequency_units>  (1) 
unknown

>  <frequency_list>  (1) 
unknown

>  <arkane_path>  (1) 
/home/calvin/Dropbox/PersonalFolders/Calvin/ZEUS_Converged/rmg_rxn_14068/output/Species/rmg_rxn_14068_r1_CC1NO1/arkane/output.py

>  <path_exists>  (1) 
True

>  <E0_value>  (1) 
-548864.5742260589

>  <E0_units>  (1) 
kJ/mol

>  <thermo_class>  (1) 
NASA

>  <Cp0_value>  (1) 
33.257888

>  <Cp0_units>  (1) 
J/(mol*K)

>  <CpInf_value>  (1) 
207.8618

>  <CpInf_units>  (1) 
J/(mol*K)

>  <Tmin_value>  (1) 
10.0

>  <Tmin_units>  (1) 
K

>  <Tmax_value>  (1) 
3000.0

>  <Tmax_units>  (1) 
K

>  <polynomials>  (1) 
[{"name": "polynomial1", "class": "NASAPolynomial", "Tmin_value": 10.0, "Tmin_units": "K", "Tmax_value": 579.1032023564536, "Tmax_units": "K", "coeffs": [4.0166088171788665, -0.0016044037342157643, 8.660571354843975e-05, -1.359185288654033e-07, 6.880557229770487e-11, -66013159.76365993, 8.912935475829386]}, {"name": "polynomial2", "class": "NASAPolynomial", "Tmin_value": 579.1032023564536, "Tmin_units": "K", "Tmax_value": 3000.0, "Tmax_units": "K", "coeffs": [-0.04858164856923329, 0.03293942863289486, -1.9614867068158536e-05, 5.639792606053445e-09, -6.271939988533442e-13, -66012797.329610676, 25.36849885792513]}]

>  <H298_value>  (1) 
-131178.49329622858

>  <H298_units>  (1) 
kcal/mol

>  <S298_value>  (1) 
67.76369119756436

>  <S298_units>  (1) 
cal/(mol*K)

>  <Cp_T_value_list>  (1) 
[16.3295251828302, 20.457095214615418, 24.196956649284317, 27.404838028515023, 32.55068390441077, 36.34318213487999, 41.902714845484894, 44.62082262956933, 46.063673487093155]

>  <Cp_T_units>  (1) 
cal/(mol*K)

>  <T_list>  (1) 
[300.0, 400.0, 500.0, 600.0, 800.0, 1000.0, 1500.0, 2000.0, 2400.0]

>  <T_units>  (1) 
K

>  <yaml_path>  (1) 
/home/calvin/Dropbox/PersonalFolders/Calvin/ZEUS_Converged/rmg_rxn_14068/output/Species/rmg_rxn_14068_r1_CC1NO1/rmg_rxn_14068_r1_CC1NO1.yml

>  <frequencies_cm1>  (1) 
[205.92715577616, 388.21814808088, 439.6999370249199, 779.72558213004, 878.1844176481999, 942.2121887718798, 1011.1979232965999, 1063.70289305332, 1176.10170877108, 1226.8555972712, 1303.6284931488, 1344.02010080104, 1392.4186133364, 1456.2472418858, 1469.23957811124, 1494.1942027641198, 3024.87956551872, 3064.99649375816, 3098.0678950592796, 3125.2405559705194, 3405.2281484228797]

>  <ZPE_kJmol>  (1) 
193.1370645967614

>  <E_elec_kJmol>  (1) 
-549057.7112906557

>  <E0_minus_Eelec_plus_ZPE_kJmol>  (1) 
0.0

>  <rxn>  (1) 
rmg_rxn_14068

>  <species_type>  (1) 
r0

>  <species_folder>  (1) 
rmg_rxn_14068_r1_CC1NO1

>  <frequencies_cm1_list>  (1) 
[205.92715577616, 388.21814808088, 439.6999370249199, 779.72558213004, 878.1844176481999, 942.2121887718798, 1011.1979232965999, 1063.70289305332, 1176.10170877108, 1226.8555972712, 1303.6284931488, 1344.02010080104, 1392.4186133364, 1456.2472418858, 1469.23957811124, 1494.1942027641198, 3024.87956551872, 3064.99649375816, 3098.0678950592796, 3125.2405559705194, 3405.2281484228797]

>  <E0_kJmol>  (1) 
-548865

>  <H298_kJmol>  (1) 
-548851

$$$$

     RDKit          3D

 10  9  0  0  0  0  0  0  0  0999 V2000
   -2.0799    1.2581    0.1731 H   0  0  0  0  0  0  0  0  0  1  0  0
   -1.0886    1.5291   -0.1530 C   0  0  0  0  0  0  0  0  0  2  0  0
   -0.3375    0.5203   -0.3044 C   0  0  0  0  0  2  0  0  0  3  0  0
    0.3285   -0.6188   -0.4107 C   0  0  0  0  0  0  0  0  0  4  0  0
    1.0368   -1.2860    0.7261 C   0  0  0  0  0  0  0  0  0  5  0  0
   -0.9502    2.5953   -0.2342 H   0  0  0  0  0  0  0  0  0  6  0  0
    0.3774   -1.0940   -1.3860 H   0  0  0  0  0  0  0  0  0  7  0  0
    2.1046   -1.3860    0.5142 H   0  0  0  0  0  0  0  0  0  8  0  0
    0.6419   -2.2935    0.8797 H   0  0  0  0  0  0  0  0  0  9  0  0
    0.9145   -0.7242    1.6503 H   0  0  0  0  0  0  0  0  0 10  0  0
  1  2  1  0
  2  6  1  0
  2  3  1  0
  3  4  1  0
  4  5  1  0
  4  7  1  0
  5  8  1  0
  5  9  1  0
  5 10  1  0
M  RAD  1   3   3
M  END
>  <rmg_smiles>  (2) 
[CH2][C][CH]C

>  <rmg_adjacency_list>  (2) 
1  C u0 p0 c0 {2,S} {5,S} {6,S} {7,S}
2  C u0 p0 c0 {1,S} {4,S} {8,S}
3  C u0 p0 c0 {4,S} {9,S} {10,S}
4  C u0 p1 c0 {2,S} {3,S}
5  H u0 p0 c0 {1,S}
6  H u0 p0 c0 {1,S}
7  H u0 p0 c0 {1,S}
8  H u0 p0 c0 {2,S}
9  H u0 p0 c0 {3,S}
10 H u0 p0 c0 {3,S}


>  <multiplicity>  (2) 
1

>  <reaction>  (2) 
rmg_rxn_14068

>  <type>  (2) 
r2h

>  <role_mapnums>  (2) 
{"r2h_a": 2, "r2h_h": 1}

>  <role_mapidx>  (2) 
{"r2h_a": 1, "r2h_h": 0}

>  <ordered_mapped_smiles>  (2) 
[H:1][CH:2]([C:3][CH:4]([C:5]([H:8])([H:9])[H:10])[H:7])[H:6]

>  <mol_properties>  (2) 
{"0": {"label": "a_hydrogen", "atom_type": "H0"}, "1": {"label": "acceptor", "atom_type": "Cs"}}

>  <level_of_theory>  (2) 
wb97xd/def2tzvp

>  <lot_method>  (2) 
wb97xd

>  <lot_basis>  (2) 
def2tzvp

>  <spin_multiplicity>  (2) 
1.0

>  <optical_isomers>  (2) 
1.0

>  <modes>  (2) 
IdealGasTranslation(mass=(54.047, 'amu')),         NonlinearRotor(             inertia = ([14.6121, 119.467, 127.49

>  <frequency_value>  (2) 
unknown

>  <frequency_units>  (2) 
unknown

>  <frequency_list>  (2) 
unknown

>  <arkane_path>  (2) 
/home/calvin/Dropbox/PersonalFolders/Calvin/ZEUS_Converged/rmg_rxn_14068/output/Species/rmg_rxn_14068_p2_C=C=CC/arkane/output.py

>  <path_exists>  (2) 
True

>  <E0_value>  (2) 
-409296.6502421279

>  <E0_units>  (2) 
kJ/mol

>  <thermo_class>  (2) 
NASA

>  <Cp0_value>  (2) 
33.257888

>  <Cp0_units>  (2) 
J/(mol*K)

>  <CpInf_value>  (2) 
232.805216

>  <CpInf_units>  (2) 
J/(mol*K)

>  <Tmin_value>  (2) 
10.0

>  <Tmin_units>  (2) 
K

>  <Tmax_value>  (2) 
3000.0

>  <Tmax_units>  (2) 
K

>  <polynomials>  (2) 
[{"name": "polynomial1", "class": "NASAPolynomial", "Tmin_value": 10.0, "Tmin_units": "K", "Tmax_value": 452.8802664009696, "Tmax_units": "K", "coeffs": [3.9021943352433452, 0.007937521032632688, 6.664442489196733e-05, -1.2131953588307993e-07, 6.938885885775227e-11, -49227014.555544384, 8.255511443201872]}, {"name": "polynomial2", "class": "NASAPolynomial", "Tmin_value": 452.8802664009696, "Tmin_units": "K", "Tmax_value": 3000.0, "Tmax_units": "K", "coeffs": [0.958037882717614, 0.033941191741253485, -1.948265019694705e-05, 5.463813645242153e-09, -5.979209978345261e-13, -49226747.88374059, 20.12723627389473]}]

>  <H298_value>  (2) 
-97820.47439749332

>  <H298_units>  (2) 
kcal/mol

>  <S298_value>  (2) 
69.30943774444917

>  <S298_units>  (2) 
cal/(mol*K)

>  <Cp_T_value_list>  (2) 
[19.013335795722274, 23.35407848830737, 27.231838984706652, 30.626214617830076, 36.15654523435027, 40.30546036176962, 46.594544625367064, 49.786664420046236, 51.450781523093035]

>  <Cp_T_units>  (2) 
cal/(mol*K)

>  <T_list>  (2) 
[300.0, 400.0, 500.0, 600.0, 800.0, 1000.0, 1500.0, 2000.0, 2400.0]

>  <T_units>  (2) 
K

>  <yaml_path>  (2) 
/home/calvin/Dropbox/PersonalFolders/Calvin/ZEUS_Converged/rmg_rxn_14068/output/Species/rmg_rxn_14068_p2_C=C=CC/rmg_rxn_14068_p2_C=C=CC.yml

>  <frequencies_cm1>  (2) 
[164.84884959192, 210.28769145436, 340.98015606459995, 540.2944049775999, 574.7186023867599, 878.6239047086799, 884.0282221555199, 895.09093550604, 1017.79709618912, 1055.91573170044, 1088.91159616304, 1146.5530709391198, 1353.77808694076, 1399.01778622892, 1463.354571692, 1470.3726306890399, 1494.8053644576, 2061.4346581373993, 3012.63573069316, 3072.0282867258397, 3106.42501619372, 3110.62074422424, 3124.134971334, 3189.66661224276]

>  <ZPE_kJmol>  (2) 
219.25357474583132

>  <E_elec_kJmol>  (2) 
-409515.9038168737

>  <E0_minus_Eelec_plus_ZPE_kJmol>  (2) 
0.0

>  <rxn>  (2) 
rmg_rxn_14068

>  <species_type>  (2) 
p1

>  <species_folder>  (2) 
rmg_rxn_14068_p2_C=C=CC

>  <frequencies_cm1_list>  (2) 
[164.84884959192, 210.28769145436, 340.98015606459995, 540.2944049775999, 574.7186023867599, 878.6239047086799, 884.0282221555199, 895.09093550604, 1017.79709618912, 1055.91573170044, 1088.91159616304, 1146.5530709391198, 1353.77808694076, 1399.01778622892, 1463.354571692, 1470.3726306890399, 1494.8053644576, 2061.4346581373993, 3012.63573069316, 3072.0282867258397, 3106.42501619372, 3110.62074422424, 3124.134971334, 3189.66661224276]

>  <E0_kJmol>  (2) 
-409297

>  <H298_kJmol>  (2) 
-409281

$$$$

     RDKit          3D

 18 17  0  0  0  0  0  0  0  0999 V2000
   -2.9313   -0.8648   -0.7317 C   0  0  0  0  0  0  0  0  0  1  0  0
   -1.5718   -0.3163   -0.4388 C   0  0  0  0  0  0  0  0  0  2  0  0
   -1.4387    0.7591    0.4858 N   0  0  0  0  0  0  0  0  0  3  0  0
   -1.0183   -0.5567    0.8267 O   0  0  0  0  0  0  0  0  0  4  0  0
   -3.3737   -0.3282   -1.5730 H   0  0  0  0  0  0  0  0  0  5  0  0
   -3.5757   -0.7570    0.1394 H   0  0  0  0  0  0  0  0  0  6  0  0
   -2.8620   -1.9205   -0.9997 H   0  0  0  0  0  0  0  0  0  7  0  0
   -0.8419   -0.3546   -1.2469 H   0  0  0  0  0  0  0  0  0  8  0  0
   -0.3993    1.3243    0.1941 H   0  0  0  0  0  0  0  0  0  9  0  0
    0.8769    1.6731   -0.2258 C   0  0  0  0  0  0  0  0  0 10  0  0
    1.6280    0.6644   -0.3772 C   0  0  0  0  0  0  0  0  0 11  0  0
    2.2940   -0.4747   -0.4834 C   0  0  0  0  0  3  0  0  0 12  0  0
    3.0023   -1.1419    0.6533 C   0  0  0  0  0  0  0  0  0 13  0  0
    1.0153    2.7393   -0.3069 H   0  0  0  0  0  0  0  0  0 14  0  0
    2.3429   -0.9500   -1.4588 H   0  0  0  0  0  0  0  0  0 15  0  0
    4.0701   -1.2420    0.4414 H   0  0  0  0  0  0  0  0  0 16  0  0
    2.6074   -2.1494    0.8069 H   0  0  0  0  0  0  0  0  0 17  0  0
    2.8799   -0.5801    1.5776 H   0  0  0  0  0  0  0  0  0 18  0  0
  1  5  1  0
  1  7  1  0
  1  6  1  0
  1  2  1  0
  2  4  1  0
  2  3  1  0
  2  8  1  0
  3  9  1  0
  3  4  1  0
 10 14  1  0
 10 11  1  0
 11 12  1  0
 12 15  1  0
 12 13  1  0
 13 17  1  0
 13 16  1  0
 13 18  1  0
M  RAD  1  12   2
M  END
>  <rmg_smiles>  (3) 
CC1NO1.[CH][C][CH]C

>  <rmg_adjacency_list>  (3) 
multiplicity 2
1  O u0 p2 c0 {2,S} {3,S}
2  N u0 p1 c0 {1,S} {3,S} {16,S}
3  C u0 p0 c0 {1,S} {2,S} {4,S} {9,S}
4  C u0 p0 c0 {3,S} {10,S} {11,S} {12,S}
5  C u0 p0 c0 {6,S} {13,S} {14,S} {15,S}
6  C u1 p0 c0 {5,S} {7,S} {17,S}
7  C u0 p1 c0 {6,S} {8,S}
8  C u0 p1 c0 {7,S} {18,S}
9  H u0 p0 c0 {3,S}
10 H u0 p0 c0 {4,S}
11 H u0 p0 c0 {4,S}
12 H u0 p0 c0 {4,S}
13 H u0 p0 c0 {5,S}
14 H u0 p0 c0 {5,S}
15 H u0 p0 c0 {5,S}
16 H u0 p0 c0 {2,S}
17 H u0 p0 c0 {6,S}
18 H u0 p0 c0 {8,S}


>  <multiplicity>  (3) 
2

>  <reaction>  (3) 
rmg_rxn_14068

>  <type>  (3) 
ts

>  <role_mapnums>  (3) 
{"*2": 9, "*1": 3, "*3": 10, "*0": 4, "*4": 11}

>  <role_mapidx>  (3) 
{"*2": 8, "*1": 2, "*3": 9, "*0": 3, "*4": 10}

>  <ordered_mapped_smiles>  (3) 
[C:1]([C:2]1([H:8])[N:3]([H:9])[O:4]1)([H:5])([H:6])[H:7].[CH2:10]([CH2:11][C:12]([C:13]([H:16])([H:17])[H:18])[H:15])[H:14]

>  <mol_properties>  (3) 
{"2": {"label": "*1", "atom_type": "N3s"}, "3": {"label": "*0", "atom_type": "O2s"}, "8": {"label": "*2", "atom_type": "H0"}, "9": {"label": "*3", "atom_type": "C2s"}, "10": {"label": "*4", "atom_type": "C2s"}}

>  <level_of_theory>  (3) 
wb97xd/def2tzvp

>  <lot_method>  (3) 
wb97xd

>  <lot_basis>  (3) 
def2tzvp

>  <spin_multiplicity>  (3) 
2.0

>  <optical_isomers>  (3) 
2.0

>  <modes>  (3) 
IdealGasTranslation(mass=(112.076, 'amu')),         NonlinearRotor(             inertia = ([143.598, 505.627, 565.801

>  <frequency_value>  (3) 
-1882.47

>  <frequency_units>  (3) 
cm^-1

>  <frequency_list>  (3) 
unknown

>  <arkane_path>  (3) 
/home/calvin/Dropbox/PersonalFolders/Calvin/ZEUS_Converged/rmg_rxn_14068/output/rxns/TS0/arkane/output.py

>  <path_exists>  (3) 
True

>  <E0_value>  (3) 
-956440.0

>  <E0_units>  (3) 
kJ/mol

>  <thermo_class>  (3) 
unknown

>  <Cp0_value>  (3) 
unknown

>  <Cp0_units>  (3) 
unknown

>  <CpInf_value>  (3) 
unknown

>  <CpInf_units>  (3) 
unknown

>  <Tmin_value>  (3) 
unknown

>  <Tmin_units>  (3) 
unknown

>  <Tmax_value>  (3) 
unknown

>  <Tmax_units>  (3) 
unknown

>  <polynomials>  (3) 
unknown

>  <H298_value>  (3) 
unknown

>  <H298_units>  (3) 
unknown

>  <S298_value>  (3) 
unknown

>  <S298_units>  (3) 
unknown

>  <Cp_T_value_list>  (3) 
unknown

>  <Cp_T_units>  (3) 
unknown

>  <T_list>  (3) 
unknown

>  <T_units>  (3) 
unknown

>  <yaml_path>  (3) 
unknown

>  <frequencies_cm1>  (3) 
unknown

>  <ZPE_kJmol>  (3) 
unknown

>  <E_elec_kJmol>  (3) 
unknown

>  <E0_minus_Eelec_plus_ZPE_kJmol>  (3) 
unknown

>  <rxn>  (3) 
unknown

>  <species_type>  (3) 
unknown

>  <species_folder>  (3) 
unknown

>  <frequencies_cm1_list>  (3) 
[]

>  <ts_imag_freq_cm1>  (3) 
-1905.3322

>  <ts_freq_out_path>  (3) 
/home/calvin/Dropbox/PersonalFolders/Calvin/ZEUS_Converged/rmg_rxn_14068/output/rxns/TS0/geometry/freq.out

>  <E0_kJmol>  (3) 
-956440

>  <H298_kJmol>  (3) 
unknown

$$$$

     RDKit          3D

  8  8  0  0  0  0  0  0  0  0999 V2000
    0.8505    0.0495    0.0350 C   0  0  0  0  0  0  0  0  0  1  0  0
   -0.6272   -0.1047    0.2018 C   0  0  0  0  0  0  0  0  0  2  0  0
   -1.5230    0.8104   -0.4133 N   0  0  0  0  0  2  0  0  0  3  0  0
   -1.3933   -0.4445   -0.9420 O   0  0  0  0  0  0  0  0  0  4  0  0
    1.2510    0.6524    0.8519 H   0  0  0  0  0  0  0  0  0  5  0  0
    1.0765    0.5398   -0.9109 H   0  0  0  0  0  0  0  0  0  6  0  0
    1.3406   -0.9252    0.0594 H   0  0  0  0  0  0  0  0  0  7  0  0
   -0.9751   -0.5778    1.1183 H   0  0  0  0  0  0  0  0  0  8  0  0
  1  5  1  0
  1  7  1  0
  1  6  1  0
  1  2  1  0
  2  4  1  0
  2  3  1  0
  2  8  1  0
  3  4  1  0
M  RAD  1   3   2
M  END
>  <rmg_smiles>  (4) 
CC1[N]O1

>  <rmg_adjacency_list>  (4) 
multiplicity 2
1 O u0 p2 c0 {2,S} {3,S}
2 N u1 p1 c0 {1,S} {3,S}
3 C u0 p0 c0 {1,S} {2,S} {4,S} {5,S}
4 C u0 p0 c0 {3,S} {6,S} {7,S} {8,S}
5 H u0 p0 c0 {3,S}
6 H u0 p0 c0 {4,S}
7 H u0 p0 c0 {4,S}
8 H u0 p0 c0 {4,S}


>  <multiplicity>  (4) 
2

>  <reaction>  (4) 
rmg_rxn_14068

>  <type>  (4) 
r1

>  <role_mapnums>  (4) 
{}

>  <role_mapidx>  (4) 
{}

>  <ordered_mapped_smiles>  (4) 
[C:1]([C:2]1([H:8])[N:3][O:4]1)([H:5])([H:6])[H:7]

>  <level_of_theory>  (4) 
wb97xd/def2tzvp

>  <lot_method>  (4) 
wb97xd

>  <lot_basis>  (4) 
def2tzvp

>  <spin_multiplicity>  (4) 
2.0

>  <optical_isomers>  (4) 
2.0

>  <modes>  (4) 
IdealGasTranslation(mass=(58.0293, 'amu')),         NonlinearRotor(             inertia = ([23.4146, 70.9581, 78.7064

>  <frequency_value>  (4) 
unknown

>  <frequency_units>  (4) 
unknown

>  <frequency_list>  (4) 
unknown

>  <arkane_path>  (4) 
/home/calvin/Dropbox/PersonalFolders/Calvin/ZEUS_Converged/rmg_rxn_14068/output/Species/rmg_rxn_14068_p1_CC1sbr-N-sbrO1/arkane/output.py

>  <path_exists>  (4) 
True

>  <E0_value>  (4) 
-547227.3621526395

>  <E0_units>  (4) 
kJ/mol

>  <thermo_class>  (4) 
NASA

>  <Cp0_value>  (4) 
33.257888

>  <Cp0_units>  (4) 
J/(mol*K)

>  <CpInf_value>  (4) 
182.918384

>  <CpInf_units>  (4) 
J/(mol*K)

>  <Tmin_value>  (4) 
10.0

>  <Tmin_units>  (4) 
K

>  <Tmax_value>  (4) 
3000.0

>  <Tmax_units>  (4) 
K

>  <polynomials>  (4) 
[{"name": "polynomial1", "class": "NASAPolynomial", "Tmin_value": 10.0, "Tmin_units": "K", "Tmax_value": 452.90313759142083, "Tmax_units": "K", "coeffs": [3.993903921577576, 0.0001955042069371399, 7.708643812387396e-05, -1.3413115389579475e-07, 7.629046883715244e-11, -65816248.71742715, 9.533991906529156]}, {"name": "polynomial2", "class": "NASAPolynomial", "Tmin_value": 452.90313759142083, "Tmin_units": "K", "Tmax_value": 3000.0, "Tmax_units": "K", "coeffs": [0.7597120819655714, 0.028759613302334033, -1.751698626413621e-05, 5.12375475034405e-09, -5.77505449262592e-13, -65815955.76246551, 22.575367203758603]}]

>  <H298_value>  (4) 
-130787.19788886789

>  <H298_units>  (4) 
kcal/mol

>  <S298_value>  (4) 
69.0274070004217

>  <S298_units>  (4) 
cal/(mol*K)

>  <Cp_T_value_list>  (4) 
[15.871314083797705, 19.424104661675273, 22.58390123471835, 25.319497469568212, 29.69551772518269, 32.885462492343336, 37.46870681090042, 39.666518565610055, 40.84799143796752]

>  <Cp_T_units>  (4) 
cal/(mol*K)

>  <T_list>  (4) 
[300.0, 400.0, 500.0, 600.0, 800.0, 1000.0, 1500.0, 2000.0, 2400.0]

>  <T_units>  (4) 
K

>  <yaml_path>  (4) 
/home/calvin/Dropbox/PersonalFolders/Calvin/ZEUS_Converged/rmg_rxn_14068/output/Species/rmg_rxn_14068_p1_CC1sbr-N-sbrO1/rmg_rxn_14068_p1_CC1sbr-N-sbrO1.yml

>  <frequencies_cm1>  (4) 
[180.01802016379997, 387.26363712140005, 441.6844957824, 820.21332757676, 862.3560164855999, 1008.71894159608, 1015.5103900775598, 1116.79155656224, 1170.3265741169598, 1313.1667357582799, 1395.7353672459599, 1444.9167161078, 1469.4593216414798, 1489.84053407124, 3025.02377221044, 3091.09790495948, 3098.1777668243994, 3123.06372162408]

>  <ZPE_kJmol>  (4) 
158.22630447874113

>  <E_elec_kJmol>  (4) 
-547385.5884571183

>  <E0_minus_Eelec_plus_ZPE_kJmol>  (4) 
0.0

>  <rxn>  (4) 
rmg_rxn_14068

>  <species_type>  (4) 
p0

>  <species_folder>  (4) 
rmg_rxn_14068_p1_CC1sbr-N-sbrO1

>  <frequencies_cm1_list>  (4) 
[180.01802016379997, 387.26363712140005, 441.6844957824, 820.21332757676, 862.3560164855999, 1008.71894159608, 1015.5103900775598, 1116.79155656224, 1170.3265741169598, 1313.1667357582799, 1395.7353672459599, 1444.9167161078, 1469.4593216414798, 1489.84053407124, 3025.02377221044, 3091.09790495948, 3098.1777668243994, 3123.06372162408]

>  <E0_kJmol>  (4) 
-547227

>  <H298_kJmol>  (4) 
-547214

$$$$

     RDKit          3D

  9  8  0  0  0  0  0  0  0  0999 V2000
    2.3032   -0.0159    0.1474 C   0  0  0  0  0  0  0  0  0  1  0  0
    1.1288    0.2882    0.0537 C   0  0  0  0  0  0  0  0  0  2  0  0
   -0.1975    0.6198   -0.0514 C   0  0  0  0  0  3  0  0  0  3  0  0
   -1.2977   -0.3866   -0.0637 C   0  0  0  0  0  0  0  0  0  4  0  0
    3.3305   -0.2768    0.2290 H   0  0  0  0  0  0  0  0  0  5  0  0
   -0.4545    1.6699   -0.1294 H   0  0  0  0  0  0  0  0  0  6  0  0
   -1.9941   -0.2122    0.7624 H   0  0  0  0  0  0  0  0  0  7  0  0
   -0.9106   -1.4008    0.0205 H   0  0  0  0  0  0  0  0  0  8  0  0
   -1.8810   -0.3144   -0.9870 H   0  0  0  0  0  0  0  0  0  9  0  0
  1  5  1  0
  1  2  1  0
  2  3  1  0
  3  4  1  0
  3  6  1  0
  4  8  1  0
  4  9  1  0
  4  7  1  0
M  RAD  1   3   2
M  END
>  <rmg_smiles>  (5) 
[CH]C[CH]C

>  <rmg_adjacency_list>  (5) 
multiplicity 2
1 C u0 p0 c0 {2,S} {5,S} {6,S} {7,S}
2 C u1 p0 c0 {1,S} {3,S} {8,S}
3 C u0 p1 c0 {2,S} {4,S}
4 C u0 p1 c0 {3,S} {9,S}
5 H u0 p0 c0 {1,S}
6 H u0 p0 c0 {1,S}
7 H u0 p0 c0 {1,S}
8 H u0 p0 c0 {2,S}
9 H u0 p0 c0 {4,S}


>  <multiplicity>  (5) 
2

>  <reaction>  (5) 
rmg_rxn_14068

>  <type>  (5) 
r2

>  <role_mapnums>  (5) 
{}

>  <role_mapidx>  (5) 
{}

>  <ordered_mapped_smiles>  (5) 
[CH2:1]([CH2:2][C:3]([C:4]([H:7])([H:8])[H:9])[H:6])[H:5]

>  <level_of_theory>  (5) 
wb97xd/def2tzvp

>  <lot_method>  (5) 
wb97xd

>  <lot_basis>  (5) 
def2tzvp

>  <spin_multiplicity>  (5) 
2.0

>  <optical_isomers>  (5) 
1.0

>  <modes>  (5) 
IdealGasTranslation(mass=(53.0391, 'amu')),         NonlinearRotor(             inertia = ([13.0163, 113.224, 123.133

>  <frequency_value>  (5) 
unknown

>  <frequency_units>  (5) 
unknown

>  <frequency_list>  (5) 
unknown

>  <arkane_path>  (5) 
/home/calvin/Dropbox/PersonalFolders/Calvin/ZEUS_Converged/rmg_rxn_14068/output/Species/rmg_rxn_14068_r2_CtCsbr-CH-sbrC/arkane/output.py

>  <path_exists>  (5) 
True

>  <E0_value>  (5) 
-407611.0178676695

>  <E0_units>  (5) 
kJ/mol

>  <thermo_class>  (5) 
NASA

>  <Cp0_value>  (5) 
33.257888

>  <Cp0_units>  (5) 
J/(mol*K)

>  <CpInf_value>  (5) 
207.8618

>  <CpInf_units>  (5) 
J/(mol*K)

>  <Tmin_value>  (5) 
10.0

>  <Tmin_units>  (5) 
K

>  <Tmax_value>  (5) 
3000.0

>  <Tmax_units>  (5) 
K

>  <polynomials>  (5) 
[{"name": "polynomial1", "class": "NASAPolynomial", "Tmin_value": 10.0, "Tmin_units": "K", "Tmax_value": 225.11887521318957, "Tmax_units": "K", "coeffs": [3.926630915296947, 0.006749895207816258, 0.00012836532533525932, -4.255246557274593e-07, 4.774973939090027e-10, -49024283.36301313, 9.039132667777825]}, {"name": "polynomial2", "class": "NASAPolynomial", "Tmin_value": 225.11887521318957, "Tmin_units": "K", "Tmax_value": 3000.0, "Tmax_units": "K", "coeffs": [2.6986748332678068, 0.028568074177661083, -1.700823692128483e-05, 4.972064259878094e-09, -5.660420030452739e-13, -49024228.07421419, 13.132307964760544]}]

>  <H298_value>  (5) 
-97417.4250763192

>  <H298_units>  (5) 
kcal/mol

>  <S298_value>  (5) 
72.15097842486317

>  <S298_units>  (5) 
cal/(mol*K)

>  <Cp_T_value_list>  (5) 
[19.60978665647869, 23.26682584091865, 26.463197946296326, 29.246037785772845, 33.74616181148779, 37.09028399063582, 42.12357583735745, 44.755303495765276, 46.19958894045869]

>  <Cp_T_units>  (5) 
cal/(mol*K)

>  <T_list>  (5) 
[300.0, 400.0, 500.0, 600.0, 800.0, 1000.0, 1500.0, 2000.0, 2400.0]

>  <T_units>  (5) 
K

>  <yaml_path>  (5) 
/home/calvin/Dropbox/PersonalFolders/Calvin/ZEUS_Converged/rmg_rxn_14068/output/Species/rmg_rxn_14068_r2_CtCsbr-CH-sbrC/rmg_rxn_14068_r2_CtCsbr-CH-sbrC.yml

>  <frequencies_cm1>  (5) 
[83.48880752056, 211.55808373855996, 392.1460636839199, 478.7318815838, 554.46786267808, 595.8689171723599, 660.0408949877599, 865.1234115695598, 998.98842339764, 1092.3794237496397, 1143.5041294570399, 1380.42198998236, 1394.47184194708, 1461.2464071987597, 1480.32289241772, 2005.2901861610799, 2994.3489487859997, 3043.5921005157197, 3109.5494945143196, 3150.5453968747197, 3427.4428459330793]

>  <ZPE_kJmol>  (5) 
182.57130571804632

>  <E_elec_kJmol>  (5) 
-407793.5891733875

>  <E0_minus_Eelec_plus_ZPE_kJmol>  (5) 
0.0

>  <rxn>  (5) 
rmg_rxn_14068

>  <species_type>  (5) 
r1

>  <species_folder>  (5) 
rmg_rxn_14068_r2_CtCsbr-CH-sbrC

>  <frequencies_cm1_list>  (5) 
[83.48880752056, 211.55808373855996, 392.1460636839199, 478.7318815838, 554.46786267808, 595.8689171723599, 660.0408949877599, 865.1234115695598, 998.98842339764, 1092.3794237496397, 1143.5041294570399, 1380.42198998236, 1394.47184194708, 1461.2464071987597, 1480.32289241772, 2005.2901861610799, 2994.3489487859997, 3043.5921005157197, 3109.5494945143196, 3150.5453968747197, 3427.4428459330793]

>  <E0_kJmol>  (5) 
-407611

>  <H298_kJmol>  (5) 
-407595

$$$$
