
     RDKit          3D

  7  6  0  0  0  0  0  0  0  0999 V2000
    0.3850   -0.0967   -1.1297 C   0  0  0  0  0  0  0  0  0  1  0  0
    0.3028   -0.2059    0.3277 N   0  0  0  0  0  0  0  0  0  2  0  0
   -0.6828    0.2980    0.8187 N   0  0  0  0  0  0  0  0  0  3  0  0
    1.3143    0.4214   -1.3695 H   0  0  0  0  0  0  0  0  0  4  0  0
    0.4542   -1.1075   -1.5337 H   0  0  0  0  0  0  0  0  0  5  0  0
   -0.4735    0.4316   -1.5495 H   0  0  0  0  0  0  0  0  0  6  0  0
   -0.6080    0.1456    1.8447 H   0  0  0  0  0  0  0  0  0  7  0  0
  1  5  1  0
  1  2  1  0
  1  4  1  0
  1  6  1  0
  2  3  1  0
  3  7  1  0
M  END
>  <rmg_smiles>  (1) 
C[N][NH]

>  <rmg_adjacency_list>  (1) 
1 N u0 p1 c0 {2,S} {3,S}
2 N u0 p1 c0 {1,S} {7,S}
3 C u0 p0 c0 {1,S} {4,S} {5,S} {6,S}
4 H u0 p0 c0 {3,S}
5 H u0 p0 c0 {3,S}
6 H u0 p0 c0 {3,S}
7 H u0 p0 c0 {2,S}


>  <multiplicity>  (1) 
1

>  <reaction>  (1) 
rmg_rxn_15664

>  <type>  (1) 
r1h

>  <role_mapnums>  (1) 
{"r1h_a": 3, "r1h_h": 7}

>  <role_mapidx>  (1) 
{"r1h_a": 2, "r1h_h": 6}

>  <ordered_mapped_smiles>  (1) 
[C:1]([NH:2][NH:3][H:7])([H:4])([H:5])[H:6]

>  <mol_properties>  (1) 
{"2": {"label": "donator", "atom_type": "N3s"}, "6": {"label": "d_hydrogen", "atom_type": "H0"}}

>  <level_of_theory>  (1) 
wb97xd/def2tzvp

>  <lot_method>  (1) 
wb97xd

>  <lot_basis>  (1) 
def2tzvp

>  <spin_multiplicity>  (1) 
1.0

>  <optical_isomers>  (1) 
1.0

>  <modes>  (1) 
IdealGasTranslation(mass=(44.0374, 'amu')),         NonlinearRotor(             inertia = ([8.23677, 45.0992, 50.2205

>  <frequency_value>  (1) 
unknown

>  <frequency_units>  (1) 
unknown

>  <frequency_list>  (1) 
unknown

>  <arkane_path>  (1) 
/home/calvin/Dropbox/PersonalFolders/Calvin/ZEUS_Converged/rmg_rxn_15664/output/Species/rmg_rxn_15664_r1_CN=N/arkane/output.py

>  <path_exists>  (1) 
True

>  <E0_value>  (1) 
-393587.49053709424

>  <E0_units>  (1) 
kJ/mol

>  <thermo_class>  (1) 
NASA

>  <Cp0_value>  (1) 
33.257888

>  <Cp0_units>  (1) 
J/(mol*K)

>  <CpInf_value>  (1) 
157.97496800000002

>  <CpInf_units>  (1) 
J/(mol*K)

>  <Tmin_value>  (1) 
10.0

>  <Tmin_units>  (1) 
K

>  <Tmax_value>  (1) 
3000.0

>  <Tmax_units>  (1) 
K

>  <polynomials>  (1) 
[{"name": "polynomial1", "class": "NASAPolynomial", "Tmin_value": 10.0, "Tmin_units": "K", "Tmax_value": 594.9639657079314, "Tmax_units": "K", "coeffs": [3.994177372758275, 0.00013386692778393056, 4.319937731174126e-05, -5.858249507934435e-08, 2.55997421131548e-11, -47337640.31429258, 6.866771830101672]}, {"name": "polynomial2", "class": "NASAPolynomial", "Tmin_value": 594.9639657079314, "Tmin_units": "K", "Tmax_value": 3000.0, "Tmax_units": "K", "coeffs": [0.7475738341828827, 0.021961835024589815, -1.183431232262963e-05, 3.0857275495096352e-09, -3.1372359596535523e-13, -47337254.00496767, 20.843833820516924]}]

>  <H298_value>  (1) 
-94066.73780029836

>  <H298_units>  (1) 
kcal/mol

>  <S298_value>  (1) 
61.82936265764643

>  <S298_units>  (1) 
cal/(mol*K)

>  <Cp_T_value_list>  (1) 
[13.012053200936506, 15.630766650793966, 18.159345702371915, 20.44871455029448, 24.232936593277145, 27.119606812306824, 31.575178011739702, 33.782982385342365, 34.85329802333024]

>  <Cp_T_units>  (1) 
cal/(mol*K)

>  <T_list>  (1) 
[300.0, 400.0, 500.0, 600.0, 800.0, 1000.0, 1500.0, 2000.0, 2400.0]

>  <T_units>  (1) 
K

>  <yaml_path>  (1) 
/home/calvin/Dropbox/PersonalFolders/Calvin/ZEUS_Converged/rmg_rxn_15664/output/Species/rmg_rxn_15664_r1_CN=N/rmg_rxn_15664_r1_CN=N.yml

>  <frequencies_cm1>  (1) 
[189.67986850904, 560.31853417072, 862.0401351608799, 951.2148065263999, 1139.87836120808, 1167.6141149155599, 1401.2770243992, 1457.2086198306001, 1457.84724946536, 1489.29117524564, 1682.1504579578398, 3004.62882581004, 3096.20694203756, 3100.6842164662, 3290.18554335692]

>  <ZPE_kJmol>  (1) 
148.63740153327285

>  <E_elec_kJmol>  (1) 
-393736.1279386275

>  <E0_minus_Eelec_plus_ZPE_kJmol>  (1) 
0.0

>  <rxn>  (1) 
rmg_rxn_15664

>  <species_type>  (1) 
r0

>  <species_folder>  (1) 
rmg_rxn_15664_r1_CN=N

>  <frequencies_cm1_list>  (1) 
[189.67986850904, 560.31853417072, 862.0401351608799, 951.2148065263999, 1139.87836120808, 1167.6141149155599, 1401.2770243992, 1457.2086198306001, 1457.84724946536, 1489.29117524564, 1682.1504579578398, 3004.62882581004, 3096.20694203756, 3100.6842164662, 3290.18554335692]

>  <E0_kJmol>  (1) 
-393587

>  <H298_kJmol>  (1) 
-393575

$$$$

     RDKit          3D

  9  8  0  0  0  0  0  0  0  0999 V2000
   -0.2120   -1.2913   -1.7560 H   0  0  0  0  0  0  0  0  0  1  0  0
    0.0241   -1.5125   -0.7185 C   0  0  0  0  0  0  0  0  0  2  0  0
   -0.4148   -0.4840    0.0805 O   0  0  0  0  0  0  0  0  0  3  0  0
    0.4531    0.5904    0.0362 N   0  0  0  0  0  0  0  0  0  4  0  0
    0.0051    1.5715    0.6941 C   0  0  0  0  0  0  0  0  0  5  0  0
    1.1061   -1.6073   -0.7816 H   0  0  0  0  0  0  0  0  0  6  0  0
   -0.5389   -2.4118   -0.4893 H   0  0  0  0  0  0  0  0  0  7  0  0
    0.6279    2.4555    0.7231 H   0  0  0  0  0  0  0  0  0  8  0  0
   -0.9520    1.5462    1.2096 H   0  0  0  0  0  0  0  0  0  9  0  0
  1  2  1  0
  2  7  1  0
  2  3  1  0
  2  6  1  0
  3  4  1  0
  4  5  1  0
  5  8  1  0
  5  9  1  0
M  END
>  <rmg_smiles>  (2) 
CO[N][CH2]

>  <rmg_adjacency_list>  (2) 
1 O u0 p2 c0 {2,S} {3,S}
2 N u0 p1 c0 {1,S} {4,S}
3 C u0 p0 c0 {1,S} {5,S} {6,S} {7,S}
4 C u0 p0 c0 {2,S} {8,S} {9,S}
5 H u0 p0 c0 {3,S}
6 H u0 p0 c0 {3,S}
7 H u0 p0 c0 {3,S}
8 H u0 p0 c0 {4,S}
9 H u0 p0 c0 {4,S}


>  <multiplicity>  (2) 
1

>  <reaction>  (2) 
rmg_rxn_15664

>  <type>  (2) 
r2h

>  <role_mapnums>  (2) 
{"r2h_a": 2, "r2h_h": 1}

>  <role_mapidx>  (2) 
{"r2h_a": 1, "r2h_h": 0}

>  <ordered_mapped_smiles>  (2) 
[H:1][C:2]([O:3][NH:4][CH:5]([H:8])[H:9])([H:6])[H:7]

>  <mol_properties>  (2) 
{"0": {"label": "a_hydrogen", "atom_type": "H0"}, "1": {"label": "acceptor", "atom_type": "Cs"}}

>  <level_of_theory>  (2) 
wb97xd/def2tzvp

>  <lot_method>  (2) 
wb97xd

>  <lot_basis>  (2) 
def2tzvp

>  <spin_multiplicity>  (2) 
1.0

>  <optical_isomers>  (2) 
1.0

>  <modes>  (2) 
IdealGasTranslation(mass=(59.0371, 'amu')),         NonlinearRotor(             inertia = ([11.9742, 101.538, 110.304

>  <frequency_value>  (2) 
unknown

>  <frequency_units>  (2) 
unknown

>  <frequency_list>  (2) 
unknown

>  <arkane_path>  (2) 
/home/calvin/Dropbox/PersonalFolders/Calvin/ZEUS_Converged/rmg_rxn_15664/output/Species/rmg_rxn_15664_p2_CON=C/arkane/output.py

>  <path_exists>  (2) 
True

>  <E0_value>  (2) 
-548882.9200394232

>  <E0_units>  (2) 
kJ/mol

>  <thermo_class>  (2) 
NASA

>  <Cp0_value>  (2) 
33.257888

>  <Cp0_units>  (2) 
J/(mol*K)

>  <CpInf_value>  (2) 
207.8618

>  <CpInf_units>  (2) 
J/(mol*K)

>  <Tmin_value>  (2) 
10.0

>  <Tmin_units>  (2) 
K

>  <Tmax_value>  (2) 
3000.0

>  <Tmax_units>  (2) 
K

>  <polynomials>  (2) 
[{"name": "polynomial1", "class": "NASAPolynomial", "Tmin_value": 10.0, "Tmin_units": "K", "Tmax_value": 1066.0445442103917, "Tmax_units": "K", "coeffs": [3.9488472240731216, 0.012909444164008412, 1.8432835387873368e-05, -2.5565901414715004e-08, 8.632634293818456e-12, -66015370.98001154, 7.906058800048573]}, {"name": "polynomial2", "class": "NASAPolynomial", "Tmin_value": 1066.0445442103917, "Tmin_units": "K", "Tmax_value": 3000.0, "Tmax_units": "K", "coeffs": [4.051174026649639, 0.02340322367340144, -1.163838712217072e-05, 2.8112466199843713e-09, -2.6680947262736413e-13, -66016010.897278614, 4.506810904924114]}]

>  <H298_value>  (2) 
-131182.46582067996

>  <H298_units>  (2) 
kcal/mol

>  <S298_value>  (2) 
69.27397375028742

>  <S298_units>  (2) 
cal/(mol*K)

>  <Cp_T_value_list>  (2) 
[17.607207323409234, 21.157104611048137, 24.5530891366924, 27.67560467885903, 32.827861850696166, 36.480858050170255, 41.94371504002133, 44.76201379304356, 46.08804102499818]

>  <Cp_T_units>  (2) 
cal/(mol*K)

>  <T_list>  (2) 
[300.0, 400.0, 500.0, 600.0, 800.0, 1000.0, 1500.0, 2000.0, 2400.0]

>  <T_units>  (2) 
K

>  <yaml_path>  (2) 
/home/calvin/Dropbox/PersonalFolders/Calvin/ZEUS_Converged/rmg_rxn_15664/output/Species/rmg_rxn_15664_p2_CON=C/rmg_rxn_15664_p2_CON=C.yml

>  <frequencies_cm1>  (2) 
[119.61601728907998, 180.59484693068, 346.29520270228, 574.9726808436, 796.6046320465999, 891.08061607916, 982.9746136314, 1126.32979917172, 1169.7222794088, 1171.7686410341598, 1237.71230106212, 1418.12173938916, 1456.2266409298397, 1467.4060930307999, 1493.1160860688801, 1708.0183916582798, 3005.45973103376, 3077.28153049564, 3083.54422110748, 3121.53925088304, 3213.405780494]

>  <ZPE_kJmol>  (2) 
189.2599943319938

>  <E_elec_kJmol>  (2) 
-549072.1800337551

>  <E0_minus_Eelec_plus_ZPE_kJmol>  (2) 
0.0

>  <rxn>  (2) 
rmg_rxn_15664

>  <species_type>  (2) 
p1

>  <species_folder>  (2) 
rmg_rxn_15664_p2_CON=C

>  <frequencies_cm1_list>  (2) 
[119.61601728907998, 180.59484693068, 346.29520270228, 574.9726808436, 796.6046320465999, 891.08061607916, 982.9746136314, 1126.32979917172, 1169.7222794088, 1171.7686410341598, 1237.71230106212, 1418.12173938916, 1456.2266409298397, 1467.4060930307999, 1493.1160860688801, 1708.0183916582798, 3005.45973103376, 3077.28153049564, 3083.54422110748, 3121.53925088304, 3213.405780494]

>  <E0_kJmol>  (2) 
-548883

>  <H298_kJmol>  (2) 
-548867

$$$$

     RDKit          3D

 15 13  0  0  0  0  0  0  0  0999 V2000
    0.5255   -0.9095   -3.4642 C   0  0  0  0  0  0  0  0  0  1  0  0
    0.4433   -1.0187   -2.0068 N   0  0  0  0  0  0  0  0  0  2  0  0
   -0.5423   -0.5148   -1.5158 N   0  0  0  0  0  0  0  0  0  3  0  0
    1.4549   -0.3914   -3.7041 H   0  0  0  0  0  0  0  0  0  4  0  0
    0.5947   -1.9203   -3.8683 H   0  0  0  0  0  0  0  0  0  5  0  0
   -0.3330   -0.3812   -3.8841 H   0  0  0  0  0  0  0  0  0  6  0  0
   -0.4580   -0.6865   -0.3598 H   0  0  0  0  0  0  0  0  0  7  0  0
   -0.1319   -0.9920    1.0734 C   0  0  0  0  0  3  0  0  0  8  0  0
   -0.5707    0.0365    1.8724 O   0  0  0  0  0  0  0  0  0  9  0  0
    0.2971    1.1109    1.8280 N   0  0  0  0  0  0  0  0  0 10  0  0
   -0.1509    2.0920    2.4860 C   0  0  0  0  0  0  0  0  0 11  0  0
    0.9502   -1.0868    1.0103 H   0  0  0  0  0  0  0  0  0 12  0  0
   -0.6949   -1.8913    1.3026 H   0  0  0  0  0  0  0  0  0 13  0  0
    0.4720    2.9760    2.5149 H   0  0  0  0  0  0  0  0  0 14  0  0
   -1.1079    2.0667    3.0015 H   0  0  0  0  0  0  0  0  0 15  0  0
  1  5  1  0
  1  2  1  0
  1  4  1  0
  1  6  1  0
  2  3  1  0
  3  7  1  0
  8 13  1  0
  8 12  1  0
  8  9  1  0
  9 10  1  0
 10 11  1  0
 11 14  1  0
 11 15  1  0
M  RAD  1   8   2
M  END
>  <rmg_smiles>  (3) 
[CH2]O[N][CH2].C[N][NH]

>  <rmg_adjacency_list>  (3) 
multiplicity 2
1  O u0 p2 c0 {3,S} {6,S}
2  N u0 p1 c0 {4,S} {5,S}
3  N u0 p1 c0 {1,S} {7,S}
4  N u0 p1 c0 {2,S} {15,S}
5  C u0 p0 c0 {2,S} {8,S} {9,S} {10,S}
6  C u1 p0 c0 {1,S} {11,S} {12,S}
7  C u0 p0 c0 {3,S} {13,S} {14,S}
8  H u0 p0 c0 {5,S}
9  H u0 p0 c0 {5,S}
10 H u0 p0 c0 {5,S}
11 H u0 p0 c0 {6,S}
12 H u0 p0 c0 {6,S}
13 H u0 p0 c0 {7,S}
14 H u0 p0 c0 {7,S}
15 H u0 p0 c0 {4,S}


>  <multiplicity>  (3) 
2

>  <reaction>  (3) 
rmg_rxn_15664

>  <type>  (3) 
ts

>  <role_mapnums>  (3) 
{"*2": 7, "*1": 3, "*3": 8, "*0": 2, "*4": 9}

>  <role_mapidx>  (3) 
{"*2": 6, "*1": 2, "*3": 7, "*0": 1, "*4": 8}

>  <ordered_mapped_smiles>  (3) 
[C:1]([NH:2][NH:3][H:7])([H:4])([H:5])[H:6].[C:8]([O:9][NH:10][CH:11]([H:14])[H:15])([H:12])[H:13]

>  <mol_properties>  (3) 
{"1": {"label": "*0", "atom_type": "N3s"}, "2": {"label": "*1", "atom_type": "N3s"}, "6": {"label": "*2", "atom_type": "H0"}, "7": {"label": "*3", "atom_type": "Cs"}, "8": {"label": "*4", "atom_type": "O2s"}}

>  <level_of_theory>  (3) 
wb97xd/def2tzvp

>  <lot_method>  (3) 
wb97xd

>  <lot_basis>  (3) 
def2tzvp

>  <spin_multiplicity>  (3) 
2.0

>  <optical_isomers>  (3) 
2.0

>  <modes>  (3) 
IdealGasTranslation(mass=(102.067, 'amu')),         NonlinearRotor(             inertia = ([77.114, 579.663, 624.441

>  <frequency_value>  (3) 
-1663.69

>  <frequency_units>  (3) 
cm^-1

>  <frequency_list>  (3) 
unknown

>  <arkane_path>  (3) 
/home/calvin/Dropbox/PersonalFolders/Calvin/ZEUS_Converged/rmg_rxn_15664/output/rxns/TS0/arkane/output.py

>  <path_exists>  (3) 
True

>  <E0_value>  (3) 
-940748.0

>  <E0_units>  (3) 
kJ/mol

>  <thermo_class>  (3) 
unknown

>  <Cp0_value>  (3) 
unknown

>  <Cp0_units>  (3) 
unknown

>  <CpInf_value>  (3) 
unknown

>  <CpInf_units>  (3) 
unknown

>  <Tmin_value>  (3) 
unknown

>  <Tmin_units>  (3) 
unknown

>  <Tmax_value>  (3) 
unknown

>  <Tmax_units>  (3) 
unknown

>  <polynomials>  (3) 
unknown

>  <H298_value>  (3) 
unknown

>  <H298_units>  (3) 
unknown

>  <S298_value>  (3) 
unknown

>  <S298_units>  (3) 
unknown

>  <Cp_T_value_list>  (3) 
unknown

>  <Cp_T_units>  (3) 
unknown

>  <T_list>  (3) 
unknown

>  <T_units>  (3) 
unknown

>  <yaml_path>  (3) 
unknown

>  <frequencies_cm1>  (3) 
unknown

>  <ZPE_kJmol>  (3) 
unknown

>  <E_elec_kJmol>  (3) 
unknown

>  <E0_minus_Eelec_plus_ZPE_kJmol>  (3) 
unknown

>  <rxn>  (3) 
unknown

>  <species_type>  (3) 
unknown

>  <species_folder>  (3) 
unknown

>  <frequencies_cm1_list>  (3) 
[]

>  <ts_imag_freq_cm1>  (3) 
-1683.8941

>  <ts_freq_out_path>  (3) 
/home/calvin/Dropbox/PersonalFolders/Calvin/ZEUS_Converged/rmg_rxn_15664/output/rxns/TS0/geometry/freq.out

>  <E0_kJmol>  (3) 
-940748

>  <H298_kJmol>  (3) 
unknown

$$$$

     RDKit          3D

  6  5  0  0  0  0  0  0  0  0999 V2000
   -0.4548   -0.0448   -0.0247 C   0  0  0  0  0  0  0  0  0  1  0  0
    0.9431    0.3695   -0.3569 N   0  0  0  0  0  0  0  0  0  2  0  0
    1.8630    0.0599    0.2831 N   0  0  0  0  0  2  0  0  0  3  0  0
   -0.4747   -0.6581    0.8759 H   0  0  0  0  0  0  0  0  0  4  0  0
   -0.8397   -0.5920   -0.8828 H   0  0  0  0  0  0  0  0  0  5  0  0
   -1.0368    0.8654    0.1054 H   0  0  0  0  0  0  0  0  0  6  0  0
  1  5  1  0
  1  2  1  0
  1  4  1  0
  1  6  1  0
  2  3  1  0
M  RAD  1   3   2
M  END
>  <rmg_smiles>  (4) 
C[N][N]

>  <rmg_adjacency_list>  (4) 
multiplicity 2
1 N u0 p1 c0 {2,S} {3,S}
2 N u1 p2 c0 {1,S}
3 C u0 p0 c0 {1,S} {4,S} {5,S} {6,S}
4 H u0 p0 c0 {3,S}
5 H u0 p0 c0 {3,S}
6 H u0 p0 c0 {3,S}


>  <multiplicity>  (4) 
2

>  <reaction>  (4) 
rmg_rxn_15664

>  <type>  (4) 
r1

>  <role_mapnums>  (4) 
{}

>  <role_mapidx>  (4) 
{}

>  <ordered_mapped_smiles>  (4) 
[C:1]([NH:2][NH:3])([H:4])([H:5])[H:6]

>  <level_of_theory>  (4) 
wb97xd/def2tzvp

>  <lot_method>  (4) 
wb97xd

>  <lot_basis>  (4) 
def2tzvp

>  <spin_multiplicity>  (4) 
2.0

>  <optical_isomers>  (4) 
1.0

>  <modes>  (4) 
IdealGasTranslation(mass=(43.0296, 'amu')),         NonlinearRotor(             inertia = ([6.79305, 44.7133, 48.3424

>  <frequency_value>  (4) 
unknown

>  <frequency_units>  (4) 
unknown

>  <frequency_list>  (4) 
unknown

>  <arkane_path>  (4) 
/home/calvin/Dropbox/PersonalFolders/Calvin/ZEUS_Converged/rmg_rxn_15664/output/Species/rmg_rxn_15664_p1_CN=sbr-N-sbr/arkane/output.py

>  <path_exists>  (4) 
True

>  <E0_value>  (4) 
-392010.26960686914

>  <E0_units>  (4) 
kJ/mol

>  <thermo_class>  (4) 
NASA

>  <Cp0_value>  (4) 
33.257888

>  <Cp0_units>  (4) 
J/(mol*K)

>  <CpInf_value>  (4) 
133.031552

>  <CpInf_units>  (4) 
J/(mol*K)

>  <Tmin_value>  (4) 
10.0

>  <Tmin_units>  (4) 
K

>  <Tmax_value>  (4) 
3000.0

>  <Tmax_units>  (4) 
K

>  <polynomials>  (4) 
[{"name": "polynomial1", "class": "NASAPolynomial", "Tmin_value": 10.0, "Tmin_units": "K", "Tmax_value": 1064.988005872067, "Tmax_units": "K", "coeffs": [3.9604202168906943, 0.006174220345202119, 1.1789324481513305e-05, -1.4841691493572632e-08, 4.842760134130866e-12, -47147946.33920622, 7.188152202305032]}, {"name": "polynomial2", "class": "NASAPolynomial", "Tmin_value": 1064.988005872067, "Tmin_units": "K", "Tmax_value": 3000.0, "Tmax_units": "K", "coeffs": [3.3185494511687854, 0.014023137512663568, -6.9250059507043e-06, 1.6678674907402546e-09, -1.5828801923357806e-13, -47148118.01721725, 8.877342169549275]}]

>  <H298_value>  (4) 
-93689.66233524386

>  <H298_units>  (4) 
kcal/mol

>  <S298_value>  (4) 
63.57679668024232

>  <S298_units>  (4) 
cal/(mol*K)

>  <Cp_T_value_list>  (4) 
[12.941138261296251, 14.88518356172104, 16.77663831723727, 18.54247598866571, 21.520676695595757, 23.697504461290954, 27.02543612725394, 28.765076992589616, 29.59154925829588]

>  <Cp_T_units>  (4) 
cal/(mol*K)

>  <T_list>  (4) 
[300.0, 400.0, 500.0, 600.0, 800.0, 1000.0, 1500.0, 2000.0, 2400.0]

>  <T_units>  (4) 
K

>  <yaml_path>  (4) 
/home/calvin/Dropbox/PersonalFolders/Calvin/ZEUS_Converged/rmg_rxn_15664/output/Species/rmg_rxn_15664_p1_CN=sbr-N-sbr/rmg_rxn_15664_p1_CN=sbr-N-sbr.yml

>  <frequencies_cm1>  (4) 
[148.49169055968, 460.10175041063997, 785.48698281352, 1041.9070816476399, 1085.1896901196, 1379.6734885824799, 1459.4060551329999, 1462.8326808076797, 1914.9618612617999, 3028.7868801657996, 3133.2337268829997, 3138.8303199187994]

>  <ZPE_kJmol>  (4) 
113.8779569455928

>  <E_elec_kJmol>  (4) 
-392124.1475638147

>  <E0_minus_Eelec_plus_ZPE_kJmol>  (4) 
0.0

>  <rxn>  (4) 
rmg_rxn_15664

>  <species_type>  (4) 
p0

>  <species_folder>  (4) 
rmg_rxn_15664_p1_CN=sbr-N-sbr

>  <frequencies_cm1_list>  (4) 
[148.49169055968, 460.10175041063997, 785.48698281352, 1041.9070816476399, 1085.1896901196, 1379.6734885824799, 1459.4060551329999, 1462.8326808076797, 1914.9618612617999, 3028.7868801657996, 3133.2337268829997, 3138.8303199187994]

>  <E0_kJmol>  (4) 
-392010

>  <H298_kJmol>  (4) 
-391998

$$$$

     RDKit          3D

  8  7  0  0  0  0  0  0  0  0999 V2000
    1.7077   -0.1964   -0.0607 C   0  0  0  0  0  3  0  0  0  1  0  0
    0.4209   -0.4565    0.2808 O   0  0  0  0  0  0  0  0  0  2  0  0
   -0.4607    0.4385   -0.2968 N   0  0  0  0  0  0  0  0  0  3  0  0
   -1.6584    0.1416   -0.0244 C   0  0  0  0  0  0  0  0  0  4  0  0
    2.4163   -0.7685    0.5170 H   0  0  0  0  0  0  0  0  0  5  0  0
    1.9214    0.7645   -0.5045 H   0  0  0  0  0  0  0  0  0  6  0  0
   -2.4185    0.7953   -0.4307 H   0  0  0  0  0  0  0  0  0  7  0  0
   -1.9286   -0.7185    0.5831 H   0  0  0  0  0  0  0  0  0  8  0  0
  1  6  1  0
  1  5  1  0
  1  2  1  0
  2  3  1  0
  3  4  1  0
  4  8  1  0
  4  7  1  0
M  RAD  1   1   2
M  END
>  <rmg_smiles>  (5) 
[CH2]O[N][CH2]

>  <rmg_adjacency_list>  (5) 
multiplicity 2
1 O u0 p2 c0 {2,S} {3,S}
2 N u0 p1 c0 {1,S} {4,S}
3 C u1 p0 c0 {1,S} {5,S} {6,S}
4 C u0 p0 c0 {2,S} {7,S} {8,S}
5 H u0 p0 c0 {3,S}
6 H u0 p0 c0 {3,S}
7 H u0 p0 c0 {4,S}
8 H u0 p0 c0 {4,S}


>  <multiplicity>  (5) 
2

>  <reaction>  (5) 
rmg_rxn_15664

>  <type>  (5) 
r2

>  <role_mapnums>  (5) 
{}

>  <role_mapidx>  (5) 
{}

>  <ordered_mapped_smiles>  (5) 
[C:1]([O:2][NH:3][CH:4]([H:7])[H:8])([H:5])[H:6]

>  <level_of_theory>  (5) 
wb97xd/def2tzvp

>  <lot_method>  (5) 
wb97xd

>  <lot_basis>  (5) 
def2tzvp

>  <spin_multiplicity>  (5) 
2.0

>  <optical_isomers>  (5) 
2.0

>  <modes>  (5) 
IdealGasTranslation(mass=(58.0293, 'amu')),         NonlinearRotor(             inertia = ([10.2741, 95.4529, 105.582

>  <frequency_value>  (5) 
unknown

>  <frequency_units>  (5) 
unknown

>  <frequency_list>  (5) 
unknown

>  <arkane_path>  (5) 
/home/calvin/Dropbox/PersonalFolders/Calvin/ZEUS_Converged/rmg_rxn_15664/output/Species/rmg_rxn_15664_r2_sbr-CH2-sbrON=C/arkane/output.py

>  <path_exists>  (5) 
True

>  <E0_value>  (5) 
-547168.2732446302

>  <E0_units>  (5) 
kJ/mol

>  <thermo_class>  (5) 
NASA

>  <Cp0_value>  (5) 
33.257888

>  <Cp0_units>  (5) 
J/(mol*K)

>  <CpInf_value>  (5) 
182.918384

>  <CpInf_units>  (5) 
J/(mol*K)

>  <Tmin_value>  (5) 
10.0

>  <Tmin_units>  (5) 
K

>  <Tmax_value>  (5) 
3000.0

>  <Tmax_units>  (5) 
K

>  <polynomials>  (5) 
[{"name": "polynomial1", "class": "NASAPolynomial", "Tmin_value": 10.0, "Tmin_units": "K", "Tmax_value": 253.2842427910515, "Tmax_units": "K", "coeffs": [3.956862909385456, 0.0038362890131335746, 0.00011727738047703725, -3.4736244039427427e-07, 3.472729073035136e-10, -65809144.38694886, 9.350338763280796]}, {"name": "polynomial2", "class": "NASAPolynomial", "Tmin_value": 253.2842427910515, "Tmin_units": "K", "Tmax_value": 3000.0, "Tmax_units": "K", "coeffs": [2.5252197328965313, 0.026445761179553072, -1.662161754135038e-05, 5.074735532607581e-09, -5.97403912324656e-13, -65809071.86505469, 14.291183066674913]}]

>  <H298_value>  (5) 
-130772.65860702786

>  <H298_units>  (5) 
kcal/mol

>  <S298_value>  (5) 
71.26914844977757

>  <S298_units>  (5) 
cal/(mol*K)

>  <Cp_T_value_list>  (5) 
[18.0740035969719, 21.369534269323825, 24.223451351766553, 26.683440747612977, 30.598134113509214, 33.438117676478754, 37.554421513360474, 39.68390492467901, 40.91110806828642]

>  <Cp_T_units>  (5) 
cal/(mol*K)

>  <T_list>  (5) 
[300.0, 400.0, 500.0, 600.0, 800.0, 1000.0, 1500.0, 2000.0, 2400.0]

>  <T_units>  (5) 
K

>  <yaml_path>  (5) 
/home/calvin/Dropbox/PersonalFolders/Calvin/ZEUS_Converged/rmg_rxn_15664/output/Species/rmg_rxn_15664_r2_sbr-CH2-sbrON=C/rmg_rxn_15664_r2_sbr-CH2-sbrON=C.yml

>  <frequencies_cm1>  (5) 
[132.13453152744, 273.14807507364, 360.4549264321199, 498.69420790903996, 595.9169860696, 789.3942974605999, 873.74834513148, 993.5360370535599, 1152.01232426852, 1206.54305469464, 1257.0497317232398, 1417.2771001948001, 1437.260027476, 1705.2166616477198, 3090.5210781926, 3134.7719315946797, 3218.94057066192, 3282.16490450316]

>  <ZPE_kJmol>  (5) 
152.0381400376291

>  <E_elec_kJmol>  (5) 
-547320.3113846679

>  <E0_minus_Eelec_plus_ZPE_kJmol>  (5) 
0.0

>  <rxn>  (5) 
rmg_rxn_15664

>  <species_type>  (5) 
r1

>  <species_folder>  (5) 
rmg_rxn_15664_r2_sbr-CH2-sbrON=C

>  <frequencies_cm1_list>  (5) 
[132.13453152744, 273.14807507364, 360.4549264321199, 498.69420790903996, 595.9169860696, 789.3942974605999, 873.74834513148, 993.5360370535599, 1152.01232426852, 1206.54305469464, 1257.0497317232398, 1417.2771001948001, 1437.260027476, 1705.2166616477198, 3090.5210781926, 3134.7719315946797, 3218.94057066192, 3282.16490450316]

>  <E0_kJmol>  (5) 
-547168

>  <H298_kJmol>  (5) 
-547153

$$$$
