
     RDKit          3D

 18 17  0  0  0  0  0  0  0  0999 V2000
    2.0505    0.6893   -1.4087 C   0  0  0  0  0  0  0  0  0  1  0  0
    1.4975   -0.6791   -1.1105 C   0  0  0  0  0  0  0  0  0  2  0  0
    0.6943   -0.8053    0.1513 C   0  0  0  0  0  0  0  0  0  3  0  0
   -0.4570    0.0054    0.0683 O   0  0  0  0  0  0  0  0  0  4  0  0
   -1.2684   -0.0747    1.2128 C   0  0  0  0  0  0  0  0  0  5  0  0
   -2.4686    0.8246    1.0274 C   0  0  0  0  0  0  0  0  0  6  0  0
    2.6415    1.0631   -0.5681 H   0  0  0  0  0  0  0  0  0  7  0  0
    1.2439    1.4051   -1.5874 H   0  0  0  0  0  0  0  0  0  8  0  0
    2.6901    0.6748   -2.2930 H   0  0  0  0  0  0  0  0  0  9  0  0
    2.3591   -1.3224   -0.9317 H   0  0  0  0  0  0  0  0  0 10  0  0
    1.0061   -1.1518   -1.9609 H   0  0  0  0  0  0  0  0  0 11  0  0
    1.3030   -0.4935    1.0163 H   0  0  0  0  0  0  0  0  0 12  0  0
    0.4077   -1.8547    0.3047 H   0  0  0  0  0  0  0  0  0 13  0  0
   -1.5880   -1.1148    1.3737 H   0  0  0  0  0  0  0  0  0 14  0  0
   -0.6944    0.2289    2.1012 H   0  0  0  0  0  0  0  0  0 15  0  0
   -3.0455    0.5158    0.1550 H   0  0  0  0  0  0  0  0  0 16  0  0
   -2.1529    1.8585    0.8829 H   0  0  0  0  0  0  0  0  0 17  0  0
   -3.1152    0.7786    1.9052 H   0  0  0  0  0  0  0  0  0 18  0  0
  1  8  1  0
  1  7  1  0
  1  9  1  0
  1  2  1  0
  2 10  1  0
  2 11  1  0
  2  3  1  0
  3  4  1  0
  3 13  1  0
  3 12  1  0
  4  5  1  0
  5  6  1  0
  5 14  1  0
  5 15  1  0
  6 17  1  0
  6 18  1  0
  6 16  1  0
M  END
>  <rmg_smiles>  (1) 
CCCOCC

>  <rmg_adjacency_list>  (1) 
1  O u0 p2 c0 {3,S} {4,S}
2  C u0 p0 c0 {3,S} {5,S} {7,S} {8,S}
3  C u0 p0 c0 {1,S} {2,S} {9,S} {10,S}
4  C u0 p0 c0 {1,S} {6,S} {11,S} {12,S}
5  C u0 p0 c0 {2,S} {13,S} {14,S} {15,S}
6  C u0 p0 c0 {4,S} {16,S} {17,S} {18,S}
7  H u0 p0 c0 {2,S}
8  H u0 p0 c0 {2,S}
9  H u0 p0 c0 {3,S}
10 H u0 p0 c0 {3,S}
11 H u0 p0 c0 {4,S}
12 H u0 p0 c0 {4,S}
13 H u0 p0 c0 {5,S}
14 H u0 p0 c0 {5,S}
15 H u0 p0 c0 {5,S}
16 H u0 p0 c0 {6,S}
17 H u0 p0 c0 {6,S}
18 H u0 p0 c0 {6,S}


>  <multiplicity>  (1) 
1

>  <reaction>  (1) 
rmg_rxn_214

>  <type>  (1) 
r1h

>  <role_mapnums>  (1) 
{"r1h_a": 2, "r1h_h": 10}

>  <role_mapidx>  (1) 
{"r1h_a": 1, "r1h_h": 9}

>  <ordered_mapped_smiles>  (1) 
[C:1]([C:2]([C:3]([O:4][C:5]([C:6]([H:16])([H:17])[H:18])([H:14])[H:15])([H:12])[H:13])([H:10])[H:11])([H:7])([H:8])[H:9]

>  <mol_properties>  (1) 
{"1": {"label": "donator", "atom_type": "Cs"}, "9": {"label": "d_hydrogen", "atom_type": "H0"}}

>  <level_of_theory>  (1) 
wb97xd/def2tzvp

>  <lot_method>  (1) 
wb97xd

>  <lot_basis>  (1) 
def2tzvp

>  <spin_multiplicity>  (1) 
1.0

>  <optical_isomers>  (1) 
2.0

>  <modes>  (1) 
IdealGasTranslation(mass=(88.0888, 'amu')),         NonlinearRotor(             inertia = ([59.5652, 317.445, 349.634

>  <frequency_value>  (1) 
unknown

>  <frequency_units>  (1) 
unknown

>  <frequency_list>  (1) 
unknown

>  <arkane_path>  (1) 
/home/calvin/Dropbox/PersonalFolders/Calvin/ATLAS_Converged/rmg_rxn_214/output/Species/rmg_rxn_214_r2_CCCOCC/arkane/output.py

>  <path_exists>  (1) 
True

>  <E0_value>  (1) 
-716327.3605709573

>  <E0_units>  (1) 
kJ/mol

>  <thermo_class>  (1) 
NASA

>  <Cp0_value>  (1) 
33.257888

>  <Cp0_units>  (1) 
J/(mol*K)

>  <CpInf_value>  (1) 
432.352544

>  <CpInf_units>  (1) 
J/(mol*K)

>  <Tmin_value>  (1) 
10.0

>  <Tmin_units>  (1) 
K

>  <Tmax_value>  (1) 
3000.0

>  <Tmax_units>  (1) 
K

>  <polynomials>  (1) 
[{"name": "polynomial1", "class": "NASAPolynomial", "Tmin_value": 10.0, "Tmin_units": "K", "Tmax_value": 424.14701041358796, "Tmax_units": "K", "coeffs": [3.4707042336928127, 0.05746545203879795, -0.00016719847115372115, 4.780470157694204e-07, -4.3347206706639054e-10, -86154279.58985142, 11.635447004604476]}, {"name": "polynomial2", "class": "NASAPolynomial", "Tmin_value": 424.14701041358796, "Tmin_units": "K", "Tmax_value": 3000.0, "Tmax_units": "K", "coeffs": [-2.8535624465972114, 0.06921008708460846, -3.934323609424939e-05, 1.0841890934368647e-08, -1.163418506360095e-12, -86153312.26572455, 41.80111524234505]}]

>  <H298_value>  (1) 
-171200.6815246165

>  <H298_units>  (1) 
kcal/mol

>  <S298_value>  (1) 
88.37399878129293

>  <S298_units>  (1) 
cal/(mol*K)

>  <Cp_T_value_list>  (1) 
[29.924593767526826, 38.16083070533892, 46.09960348181722, 53.05840207682852, 64.40406715451496, 72.91410593462665, 85.72980278110597, 92.03567805993791, 95.21197800865355]

>  <Cp_T_units>  (1) 
cal/(mol*K)

>  <T_list>  (1) 
[300.0, 400.0, 500.0, 600.0, 800.0, 1000.0, 1500.0, 2000.0, 2400.0]

>  <T_units>  (1) 
K

>  <yaml_path>  (1) 
/home/calvin/Dropbox/PersonalFolders/Calvin/ATLAS_Converged/rmg_rxn_214/output/Species/rmg_rxn_214_r2_CCCOCC/rmg_rxn_214_r2_CCCOCC.yml

>  <frequencies_cm1>  (1) 
[76.60808822992, 85.88538539723999, 152.39213822143998, 171.44115549912, 250.05440344247998, 256.05614861216003, 329.51915756551995, 440.0707542322, 493.7774464199199, 767.98990421816, 823.02879155796, 891.3896304185598, 900.4815189822399, 929.41899512072, 1002.9850088538799, 1082.00340893112, 1102.9065122452, 1152.52734816752, 1174.9617892079598, 1182.44680320676, 1190.2339645596398, 1270.1176047871998, 1295.23017010244, 1305.6473868328799, 1368.30176089256, 1380.4425909383199, 1399.7456866728398, 1405.4521514737598, 1443.92787022172, 1468.7794900948002, 1470.37949767436, 1482.5752636026798, 1487.2448136202797, 1494.6336898246, 1500.58049911172, 1519.49904366832, 2928.8997117010795, 2942.5512785172396, 2962.4655359452395, 2968.54281795344, 3015.14904732028, 3021.7276192568397, 3024.0692612509597, 3058.7338031463196, 3085.2403664815197, 3101.8035350733594, 3104.27564978856, 3105.2988306012394]

>  <ZPE_kJmol>  (1) 
431.0594598774012

>  <E_elec_kJmol>  (1) 
-716758.4200308347

>  <E0_minus_Eelec_plus_ZPE_kJmol>  (1) 
0.0

>  <rxn>  (1) 
rmg_rxn_214

>  <species_type>  (1) 
r1

>  <species_folder>  (1) 
rmg_rxn_214_r2_CCCOCC

>  <frequencies_cm1_list>  (1) 
[76.60808822992, 85.88538539723999, 152.39213822143998, 171.44115549912, 250.05440344247998, 256.05614861216003, 329.51915756551995, 440.0707542322, 493.7774464199199, 767.98990421816, 823.02879155796, 891.3896304185598, 900.4815189822399, 929.41899512072, 1002.9850088538799, 1082.00340893112, 1102.9065122452, 1152.52734816752, 1174.9617892079598, 1182.44680320676, 1190.2339645596398, 1270.1176047871998, 1295.23017010244, 1305.6473868328799, 1368.30176089256, 1380.4425909383199, 1399.7456866728398, 1405.4521514737598, 1443.92787022172, 1468.7794900948002, 1470.37949767436, 1482.5752636026798, 1487.2448136202797, 1494.6336898246, 1500.58049911172, 1519.49904366832, 2928.8997117010795, 2942.5512785172396, 2962.4655359452395, 2968.54281795344, 3015.14904732028, 3021.7276192568397, 3024.0692612509597, 3058.7338031463196, 3085.2403664815197, 3101.8035350733594, 3104.27564978856, 3105.2988306012394]

>  <E0_kJmol>  (1) 
-716327

>  <H298_kJmol>  (1) 
-716304

$$$$

     RDKit          3D

 15 14  0  0  0  0  0  0  0  0999 V2000
    0.9660    1.7879   -0.6060 C   0  0  0  0  0  0  0  0  0  1  0  0
    0.7099    0.4136   -1.1549 C   0  0  0  0  0  0  0  0  0  2  0  0
   -0.8129   -0.3892   -0.5782 S   0  0  0  0  0  0  0  0  0  3  0  0
   -0.6028   -0.3469    1.2188 C   0  0  0  0  0  0  0  0  0  4  0  0
    0.6273   -1.0718    1.7391 C   0  0  0  0  0  0  0  0  0  5  0  0
    1.0782    1.8425    0.4753 H   0  0  0  0  0  0  0  0  0  6  0  0
    1.7647    2.3247   -1.1156 H   0  0  0  0  0  0  0  0  0  7  0  0
    1.5546   -0.2533   -0.9569 H   0  0  0  0  0  0  0  0  0  8  0  0
    0.5911    0.4509   -2.2394 H   0  0  0  0  0  0  0  0  0  9  0  0
   -0.6180    0.6901    1.5602 H   0  0  0  0  0  0  0  0  0 10  0  0
   -1.5123   -0.8157    1.5983 H   0  0  0  0  0  0  0  0  0 11  0  0
    1.5460   -0.5922    1.3972 H   0  0  0  0  0  0  0  0  0 12  0  0
    0.6385   -1.0623    2.8312 H   0  0  0  0  0  0  0  0  0 13  0  0
    0.6404   -2.1087    1.4017 H   0  0  0  0  0  0  0  0  0 14  0  0
    0.0854    2.3950   -0.8090 H   0  0  0  0  0  0  0  0  0 15  0  0
  1 15  1  0
  1  7  1  0
  1  6  1  0
  1  2  1  0
  2  9  1  0
  2  8  1  0
  2  3  1  0
  3  4  1  0
  4  5  1  0
  4 10  1  0
  4 11  1  0
  5 12  1  0
  5 14  1  0
  5 13  1  0
M  END
>  <rmg_smiles>  (2) 
CCSCC

>  <rmg_adjacency_list>  (2) 
1  S u0 p2 c0 {2,S} {3,S}
2  C u0 p0 c0 {1,S} {4,S} {6,S} {7,S}
3  C u0 p0 c0 {1,S} {5,S} {8,S} {9,S}
4  C u0 p0 c0 {2,S} {10,S} {11,S} {15,S}
5  C u0 p0 c0 {3,S} {12,S} {13,S} {14,S}
6  H u0 p0 c0 {2,S}
7  H u0 p0 c0 {2,S}
8  H u0 p0 c0 {3,S}
9  H u0 p0 c0 {3,S}
10 H u0 p0 c0 {4,S}
11 H u0 p0 c0 {4,S}
12 H u0 p0 c0 {5,S}
13 H u0 p0 c0 {5,S}
14 H u0 p0 c0 {5,S}
15 H u0 p0 c0 {4,S}


>  <multiplicity>  (2) 
1

>  <reaction>  (2) 
rmg_rxn_214

>  <type>  (2) 
r2h

>  <role_mapnums>  (2) 
{"r2h_a": 1, "r2h_h": 15}

>  <role_mapidx>  (2) 
{"r2h_a": 0, "r2h_h": 14}

>  <ordered_mapped_smiles>  (2) 
[C:1]([C:2]([S:3][C:4]([C:5]([H:12])([H:13])[H:14])([H:10])[H:11])([H:8])[H:9])([H:6])([H:7])[H:15]

>  <mol_properties>  (2) 
{"0": {"label": "acceptor", "atom_type": "Cs"}, "14": {"label": "a_hydrogen", "atom_type": "H0"}}

>  <level_of_theory>  (2) 
wb97xd/def2tzvp

>  <lot_method>  (2) 
wb97xd

>  <lot_basis>  (2) 
def2tzvp

>  <spin_multiplicity>  (2) 
1.0

>  <optical_isomers>  (2) 
2.0

>  <modes>  (2) 
IdealGasTranslation(mass=(90.0503, 'amu')),         NonlinearRotor(             inertia = ([97.9259, 182.785, 231.685

>  <frequency_value>  (2) 
unknown

>  <frequency_units>  (2) 
unknown

>  <frequency_list>  (2) 
unknown

>  <arkane_path>  (2) 
/home/calvin/Dropbox/PersonalFolders/Calvin/ATLAS_Converged/rmg_rxn_214/output/Species/rmg_rxn_214_p1_CCSCC/arkane/output.py

>  <path_exists>  (2) 
True

>  <E0_value>  (2) 
-1461176.7123028408

>  <E0_units>  (2) 
kJ/mol

>  <thermo_class>  (2) 
NASA

>  <Cp0_value>  (2) 
33.257888

>  <Cp0_units>  (2) 
J/(mol*K)

>  <CpInf_value>  (2) 
357.522296

>  <CpInf_units>  (2) 
J/(mol*K)

>  <Tmin_value>  (2) 
10.0

>  <Tmin_units>  (2) 
K

>  <Tmax_value>  (2) 
3000.0

>  <Tmax_units>  (2) 
K

>  <polynomials>  (2) 
[{"name": "polynomial1", "class": "NASAPolynomial", "Tmin_value": 10.0, "Tmin_units": "K", "Tmax_value": 1062.740332266501, "Tmax_units": "K", "coeffs": [3.7240768769611408, 0.031177750271788266, 1.590200165997747e-05, -3.1138888238628924e-08, 1.1081299545578661e-11, -175738967.30653694, 10.691637972640313]}, {"name": "polynomial2", "class": "NASAPolynomial", "Tmin_value": 1062.740332266501, "Tmin_units": "K", "Tmax_value": 3000.0, "Tmax_units": "K", "coeffs": [4.272256190616837, 0.04355880957526612, -2.1960566897444118e-05, 5.4018330156847166e-09, -5.231130586129144e-13, -175739899.50439465, 4.175990433518907]}]

>  <H298_value>  (2) 
-349224.4948454063

>  <H298_units>  (2) 
kcal/mol

>  <S298_value>  (2) 
82.77165630085062

>  <S298_units>  (2) 
cal/(mol*K)

>  <Cp_T_value_list>  (2) 
[27.339173580692723, 33.84270235009273, 39.920340825285514, 45.438637568785964, 54.52765007672161, 61.099128237827436, 71.10646466743047, 76.29375194018085, 78.77254304981717]

>  <Cp_T_units>  (2) 
cal/(mol*K)

>  <T_list>  (2) 
[300.0, 400.0, 500.0, 600.0, 800.0, 1000.0, 1500.0, 2000.0, 2400.0]

>  <T_units>  (2) 
K

>  <yaml_path>  (2) 
/home/calvin/Dropbox/PersonalFolders/Calvin/ATLAS_Converged/rmg_rxn_214/output/Species/rmg_rxn_214_p1_CCSCC/rmg_rxn_214_p1_CCSCC.yml

>  <frequencies_cm1>  (2) 
[66.48615186823999, 121.63491097315999, 224.63969077315997, 254.99863287287997, 273.62876404604003, 341.45397805167994, 381.0490154068, 647.6597204558, 701.8333676452798, 742.1151035324, 786.8329119362398, 985.17891591912, 988.88708799192, 1023.0091380469999, 1055.1809642711999, 1060.18699656948, 1093.14852610548, 1263.72444145428, 1273.9013136985197, 1289.2490258887199, 1308.3598460342798, 1399.5396771132398, 1399.8967603498797, 1460.7725852116798, 1462.4000607325202, 1478.53747623452, 1481.2362014652797, 1489.1538355392402, 1493.6723118798, 3015.6091353367196, 3016.10355827976, 3035.3242501904397, 3036.18262335544, 3073.69009717328, 3077.2334615983996, 3086.3528181033594, 3086.8953099436403, 3101.4052499247996, 3104.1520440527997]

>  <ZPE_kJmol>  (2) 
348.0016505911852

>  <E_elec_kJmol>  (2) 
-1461524.713953432

>  <E0_minus_Eelec_plus_ZPE_kJmol>  (2) 
0.0

>  <rxn>  (2) 
rmg_rxn_214

>  <species_type>  (2) 
p0

>  <species_folder>  (2) 
rmg_rxn_214_p1_CCSCC

>  <frequencies_cm1_list>  (2) 
[66.48615186823999, 121.63491097315999, 224.63969077315997, 254.99863287287997, 273.62876404604003, 341.45397805167994, 381.0490154068, 647.6597204558, 701.8333676452798, 742.1151035324, 786.8329119362398, 985.17891591912, 988.88708799192, 1023.0091380469999, 1055.1809642711999, 1060.18699656948, 1093.14852610548, 1263.72444145428, 1273.9013136985197, 1289.2490258887199, 1308.3598460342798, 1399.5396771132398, 1399.8967603498797, 1460.7725852116798, 1462.4000607325202, 1478.53747623452, 1481.2362014652797, 1489.1538355392402, 1493.6723118798, 3015.6091353367196, 3016.10355827976, 3035.3242501904397, 3036.18262335544, 3073.69009717328, 3077.2334615983996, 3086.3528181033594, 3086.8953099436403, 3101.4052499247996, 3104.1520440527997]

>  <E0_kJmol>  (2) 
-1.46118e+06

>  <H298_kJmol>  (2) 
-1.46116e+06

$$$$

     RDKit          3D

 32 30  0  0  0  0  0  0  0  0999 V2000
    2.0567   -0.3501   -0.5637 C   0  0  0  0  0  3  0  0  0  1  0  0
    1.8005   -1.7244   -1.1125 C   0  0  0  0  0  0  0  0  0  2  0  0
    0.2777   -2.5272   -0.5359 S   0  0  0  0  0  0  0  0  0  3  0  0
    0.4879   -2.4849    1.2611 C   0  0  0  0  0  0  0  0  0  4  0  0
    1.7179   -3.2098    1.7815 C   0  0  0  0  0  0  0  0  0  5  0  0
    2.1688   -0.2956    0.5177 H   0  0  0  0  0  0  0  0  0  6  0  0
    2.8553    0.1867   -1.0733 H   0  0  0  0  0  0  0  0  0  7  0  0
    2.6452   -2.3913   -0.9146 H   0  0  0  0  0  0  0  0  0  8  0  0
    1.6817   -1.6871   -2.1970 H   0  0  0  0  0  0  0  0  0  9  0  0
    0.4726   -1.4479    1.6025 H   0  0  0  0  0  0  0  0  0 10  0  0
   -0.4217   -2.9537    1.6406 H   0  0  0  0  0  0  0  0  0 11  0  0
    2.6366   -2.7302    1.4395 H   0  0  0  0  0  0  0  0  0 12  0  0
    1.7291   -3.2003    2.8735 H   0  0  0  0  0  0  0  0  0 13  0  0
    1.7310   -4.2467    1.4441 H   0  0  0  0  0  0  0  0  0 14  0  0
    0.4603    2.5598   -1.3333 C   0  0  0  0  0  0  0  0  0 15  0  0
   -0.0927    1.1914   -1.0351 C   0  0  0  0  0  0  0  0  0 16  0  0
   -0.8959    1.0652    0.2267 C   0  0  0  0  0  0  0  0  0 17  0  0
   -2.0472    1.8758    0.1437 O   0  0  0  0  0  0  0  0  0 18  0  0
   -2.8585    1.7958    1.2882 C   0  0  0  0  0  0  0  0  0 19  0  0
   -4.0588    2.6950    1.1028 C   0  0  0  0  0  0  0  0  0 20  0  0
    1.0513    2.9336   -0.4927 H   0  0  0  0  0  0  0  0  0 21  0  0
   -0.3462    3.2755   -1.5120 H   0  0  0  0  0  0  0  0  0 22  0  0
    1.0999    2.5452   -2.2176 H   0  0  0  0  0  0  0  0  0 23  0  0
    0.9495    0.4133   -0.8189 H   0  0  0  0  0  0  0  0  0 24  0  0
   -0.5841    0.7187   -1.8855 H   0  0  0  0  0  0  0  0  0 25  0  0
   -0.2871    1.3769    1.0917 H   0  0  0  0  0  0  0  0  0 26  0  0
   -1.1825    0.0158    0.3801 H   0  0  0  0  0  0  0  0  0 27  0  0
   -3.1782    0.7556    1.4491 H   0  0  0  0  0  0  0  0  0 28  0  0
   -2.2845    2.0993    2.1766 H   0  0  0  0  0  0  0  0  0 29  0  0
   -4.6356    2.3862    0.2303 H   0  0  0  0  0  0  0  0  0 30  0  0
   -3.7431    3.7289    0.9583 H   0  0  0  0  0  0  0  0  0 31  0  0
   -4.7053    2.6490    1.9806 H   0  0  0  0  0  0  0  0  0 32  0  0
  1  7  1  0
  1  6  1  0
  1  2  1  0
  2  8  1  0
  2  3  1  0
  2  9  1  0
  3  4  1  0
  4 10  1  0
  4 11  1  0
  4  5  1  0
  5 12  1  0
  5 14  1  0
  5 13  1  0
 15 23  1  0
 15 16  1  0
 15 22  1  0
 15 21  1  0
 16 17  1  0
 16 24  1  0
 16 25  1  0
 17 18  1  0
 17 27  1  0
 17 26  1  0
 18 19  1  0
 19 28  1  0
 19 29  1  0
 19 20  1  0
 20 31  1  0
 20 30  1  0
 20 32  1  0
M  RAD  1   1   2
M  END
>  <rmg_smiles>  (3) 
CCOCCC.[CH2]CSCC

>  <rmg_adjacency_list>  (3) 
multiplicity 2
1  S u0 p2 c0 {5,S} {7,S}
2  O u0 p2 c0 {4,S} {6,S}
3  C u0 p0 c0 {4,S} {8,S} {12,S} {13,S}
4  C u0 p0 c0 {2,S} {3,S} {16,S} {17,S}
5  C u0 p0 c0 {1,S} {9,S} {14,S} {15,S}
6  C u0 p0 c0 {2,S} {10,S} {18,S} {19,S}
7  C u0 p0 c0 {1,S} {11,S} {20,S} {21,S}
8  C u0 p0 c0 {3,S} {25,S} {26,S} {27,S}
9  C u0 p0 c0 {5,S} {22,S} {23,S} {24,S}
10 C u0 p0 c0 {6,S} {28,S} {29,S} {30,S}
11 C u1 p0 c0 {7,S} {31,S} {32,S}
12 H u0 p0 c0 {3,S}
13 H u0 p0 c0 {3,S}
14 H u0 p0 c0 {5,S}
15 H u0 p0 c0 {5,S}
16 H u0 p0 c0 {4,S}
17 H u0 p0 c0 {4,S}
18 H u0 p0 c0 {6,S}
19 H u0 p0 c0 {6,S}
20 H u0 p0 c0 {7,S}
21 H u0 p0 c0 {7,S}
22 H u0 p0 c0 {9,S}
23 H u0 p0 c0 {9,S}
24 H u0 p0 c0 {9,S}
25 H u0 p0 c0 {8,S}
26 H u0 p0 c0 {8,S}
27 H u0 p0 c0 {8,S}
28 H u0 p0 c0 {10,S}
29 H u0 p0 c0 {10,S}
30 H u0 p0 c0 {10,S}
31 H u0 p0 c0 {11,S}
32 H u0 p0 c0 {11,S}


>  <multiplicity>  (3) 
2

>  <reaction>  (3) 
rmg_rxn_214

>  <type>  (3) 
ts

>  <role_mapnums>  (3) 
{"*2": 24, "*1": 16, "*3": 1, "*0": 17, "*4": 2}

>  <role_mapidx>  (3) 
{"*2": 23, "*1": 15, "*3": 0, "*0": 16, "*4": 1}

>  <ordered_mapped_smiles>  (3) 
[C:1]([C:2]([S:3][C:4]([C:5]([H:12])([H:13])[H:14])([H:10])[H:11])([H:8])[H:9])([H:6])[H:7].[C:15]([C:16]([C:17]([O:18][C:19]([C:20]([H:30])([H:31])[H:32])([H:28])[H:29])([H:26])[H:27])([H:24])[H:25])([H:21])([H:22])[H:23]

>  <mol_properties>  (3) 
{"0": {"label": "*3", "atom_type": "Cs"}, "1": {"label": "*4", "atom_type": "Cs"}, "15": {"label": "*1", "atom_type": "Cs"}, "16": {"label": "*0", "atom_type": "Cs"}, "23": {"label": "*2", "atom_type": "H0"}}

>  <level_of_theory>  (3) 
wb97xd/def2tzvp

>  <lot_method>  (3) 
wb97xd

>  <lot_basis>  (3) 
def2tzvp

>  <spin_multiplicity>  (3) 
2.0

>  <optical_isomers>  (3) 
2.0

>  <modes>  (3) 
IdealGasTranslation(mass=(177.131, 'amu')),         NonlinearRotor(             inertia = ([435.113, 1310.97, 1566.1

>  <frequency_value>  (3) 
-1686.71

>  <frequency_units>  (3) 
cm^-1

>  <frequency_list>  (3) 
unknown

>  <arkane_path>  (3) 
/home/calvin/Dropbox/PersonalFolders/Calvin/ATLAS_Converged/rmg_rxn_214/output/rxns/TS0/arkane/output.py

>  <path_exists>  (3) 
True

>  <E0_value>  (3) 
-2175720.0

>  <E0_units>  (3) 
kJ/mol

>  <thermo_class>  (3) 
unknown

>  <Cp0_value>  (3) 
unknown

>  <Cp0_units>  (3) 
unknown

>  <CpInf_value>  (3) 
unknown

>  <CpInf_units>  (3) 
unknown

>  <Tmin_value>  (3) 
unknown

>  <Tmin_units>  (3) 
unknown

>  <Tmax_value>  (3) 
unknown

>  <Tmax_units>  (3) 
unknown

>  <polynomials>  (3) 
unknown

>  <H298_value>  (3) 
unknown

>  <H298_units>  (3) 
unknown

>  <S298_value>  (3) 
unknown

>  <S298_units>  (3) 
unknown

>  <Cp_T_value_list>  (3) 
unknown

>  <Cp_T_units>  (3) 
unknown

>  <T_list>  (3) 
unknown

>  <T_units>  (3) 
unknown

>  <yaml_path>  (3) 
unknown

>  <frequencies_cm1>  (3) 
unknown

>  <ZPE_kJmol>  (3) 
unknown

>  <E_elec_kJmol>  (3) 
unknown

>  <E0_minus_Eelec_plus_ZPE_kJmol>  (3) 
unknown

>  <rxn>  (3) 
unknown

>  <species_type>  (3) 
unknown

>  <species_folder>  (3) 
unknown

>  <frequencies_cm1_list>  (3) 
[]

>  <ts_imag_freq_cm1>  (3) 
-1707.1961

>  <ts_freq_out_path>  (3) 
/home/calvin/Dropbox/PersonalFolders/Calvin/ATLAS_Converged/rmg_rxn_214/output/rxns/TS0/geometry/freq.out

>  <E0_kJmol>  (3) 
-2.17572e+06

>  <H298_kJmol>  (3) 
unknown

$$$$

     RDKit          3D

 17 16  0  0  0  0  0  0  0  0999 V2000
    2.3993   -0.7259   -0.8796 C   0  0  0  0  0  0  0  0  0  1  0  0
    1.8173   -0.7170    0.4851 C   0  0  0  0  0  3  0  0  0  2  0  0
    2.6779   -0.5182    1.6852 C   0  0  0  0  0  0  0  0  0  3  0  0
    3.8710   -1.2723    1.6674 O   0  0  0  0  0  0  0  0  0  4  0  0
    3.6589   -2.6587    1.8015 C   0  0  0  0  0  0  0  0  0  5  0  0
    4.9969   -3.3586    1.7556 C   0  0  0  0  0  0  0  0  0  6  0  0
    3.3755   -1.2152   -0.8894 H   0  0  0  0  0  0  0  0  0  7  0  0
    1.7457   -1.2284   -1.5943 H   0  0  0  0  0  0  0  0  0  8  0  0
    2.5578    0.2962   -1.2545 H   0  0  0  0  0  0  0  0  0  9  0  0
    0.7445   -0.6275    0.6059 H   0  0  0  0  0  0  0  0  0 10  0  0
    2.1057   -0.7316    2.5992 H   0  0  0  0  0  0  0  0  0 11  0  0
    3.0103    0.5272    1.7516 H   0  0  0  0  0  0  0  0  0 12  0  0
    3.0050   -3.0235    0.9977 H   0  0  0  0  0  0  0  0  0 13  0  0
    3.1469   -2.8645    2.7531 H   0  0  0  0  0  0  0  0  0 14  0  0
    5.6430   -3.0039    2.5594 H   0  0  0  0  0  0  0  0  0 15  0  0
    4.8641   -4.4360    1.8660 H   0  0  0  0  0  0  0  0  0 16  0  0
    5.4957   -3.1672    0.8046 H   0  0  0  0  0  0  0  0  0 17  0  0
  1  8  1  0
  1  7  1  0
  1  9  1  0
  1  2  1  0
  2 10  1  0
  2  3  1  0
  3 11  1  0
  3  4  1  0
  3 12  1  0
  4  5  1  0
  5 13  1  0
  5  6  1  0
  5 14  1  0
  6 17  1  0
  6 15  1  0
  6 16  1  0
M  RAD  1   2   2
M  END
>  <rmg_smiles>  (4) 
C[CH]COCC

>  <rmg_adjacency_list>  (4) 
multiplicity 2
1  O u0 p2 c0 {2,S} {3,S}
2  C u0 p0 c0 {1,S} {4,S} {7,S} {8,S}
3  C u0 p0 c0 {1,S} {6,S} {9,S} {10,S}
4  C u0 p0 c0 {2,S} {11,S} {12,S} {13,S}
5  C u0 p0 c0 {6,S} {14,S} {15,S} {16,S}
6  C u1 p0 c0 {3,S} {5,S} {17,S}
7  H u0 p0 c0 {2,S}
8  H u0 p0 c0 {2,S}
9  H u0 p0 c0 {3,S}
10 H u0 p0 c0 {3,S}
11 H u0 p0 c0 {4,S}
12 H u0 p0 c0 {4,S}
13 H u0 p0 c0 {4,S}
14 H u0 p0 c0 {5,S}
15 H u0 p0 c0 {5,S}
16 H u0 p0 c0 {5,S}
17 H u0 p0 c0 {6,S}


>  <multiplicity>  (4) 
2

>  <reaction>  (4) 
rmg_rxn_214

>  <type>  (4) 
r1

>  <role_mapnums>  (4) 
{}

>  <role_mapidx>  (4) 
{}

>  <ordered_mapped_smiles>  (4) 
[C:1]([C:2]([C:3]([O:4][C:5]([C:6]([H:15])([H:16])[H:17])([H:13])[H:14])([H:11])[H:12])[H:10])([H:7])([H:8])[H:9]

>  <level_of_theory>  (4) 
wb97xd/def2tzvp

>  <lot_method>  (4) 
wb97xd

>  <lot_basis>  (4) 
def2tzvp

>  <spin_multiplicity>  (4) 
2.0

>  <optical_isomers>  (4) 
2.0

>  <modes>  (4) 
IdealGasTranslation(mass=(87.081, 'amu')),         NonlinearRotor(             inertia = ([77.2255, 257.211, 294.472

>  <frequency_value>  (4) 
unknown

>  <frequency_units>  (4) 
unknown

>  <frequency_list>  (4) 
unknown

>  <arkane_path>  (4) 
/home/calvin/Dropbox/PersonalFolders/Calvin/ATLAS_Converged/rmg_rxn_214/output/Species/rmg_rxn_214_p2_Csbr-CH-sbrCOCC/arkane/output.py

>  <path_exists>  (4) 
True

>  <E0_value>  (4) 
-714606.8253684428

>  <E0_units>  (4) 
kJ/mol

>  <thermo_class>  (4) 
NASA

>  <Cp0_value>  (4) 
33.257888

>  <Cp0_units>  (4) 
J/(mol*K)

>  <CpInf_value>  (4) 
407.409128

>  <CpInf_units>  (4) 
J/(mol*K)

>  <Tmin_value>  (4) 
10.0

>  <Tmin_units>  (4) 
K

>  <Tmax_value>  (4) 
3000.0

>  <Tmax_units>  (4) 
K

>  <polynomials>  (4) 
[{"name": "polynomial1", "class": "NASAPolynomial", "Tmin_value": 10.0, "Tmin_units": "K", "Tmax_value": 417.48366752766907, "Tmax_units": "K", "coeffs": [3.371710260367717, 0.06751515529081918, -0.00021419326134089478, 5.55321486035094e-07, -4.841487901490717e-10, -85947346.52177061, 12.699399549539766]}, {"name": "polynomial2", "class": "NASAPolynomial", "Tmin_value": 417.48366752766907, "Tmin_units": "K", "Tmax_value": 3000.0, "Tmax_units": "K", "coeffs": [-0.983429943910518, 0.06366224875335745, -3.6581500232475296e-05, 1.0182072217773507e-08, -1.102266081168474e-12, -85946585.66515122, 34.66344723069078]}]

>  <H298_value>  (4) 
-170789.2030444093

>  <H298_units>  (4) 
kcal/mol

>  <S298_value>  (4) 
92.32827304571522

>  <S298_units>  (4) 
cal/(mol*K)

>  <Cp_T_value_list>  (4) 
[30.644588740591573, 38.260117272479235, 45.51932326502992, 51.86818248028013, 62.191498797087384, 69.90421091576034, 81.44732642755689, 87.10996617013711, 89.98657049419913]

>  <Cp_T_units>  (4) 
cal/(mol*K)

>  <T_list>  (4) 
[300.0, 400.0, 500.0, 600.0, 800.0, 1000.0, 1500.0, 2000.0, 2400.0]

>  <T_units>  (4) 
K

>  <yaml_path>  (4) 
/home/calvin/Dropbox/PersonalFolders/Calvin/ATLAS_Converged/rmg_rxn_214/output/Species/rmg_rxn_214_p2_Csbr-CH-sbrCOCC/rmg_rxn_214_p2_Csbr-CH-sbrCOCC.yml

>  <frequencies_cm1>  (4) 
[58.486113970439995, 80.89995405491999, 91.01502343127999, 148.7045671046, 233.68351043959998, 268.54032792391996, 295.53444721683996, 386.91342087008, 426.66639888756004, 628.1780831029599, 820.4468050776399, 853.1130542448799, 876.6050110245999, 927.82585452648, 984.0183954000399, 1025.0280317310799, 1086.20600394696, 1127.14010343948, 1146.72474557212, 1165.95917145344, 1177.46823884976, 1286.9897877184399, 1294.8456189245198, 1363.7489496253997, 1371.8863272295998, 1388.0786786141598, 1403.05557359708, 1423.88314007264, 1459.15197667616, 1465.5382730237598, 1469.9674785551601, 1470.4687684835199, 1486.8533954570398, 1514.4861443847199, 2944.5564382306798, 2947.06288787248, 2949.60367244088, 2978.74029115364, 2981.5557551348397, 3022.6203273484402, 3042.07449676, 3090.13652701468, 3099.94258205164, 3102.6756422089998, 3156.8286884425197]

>  <ZPE_kJmol>  (4) 
391.920120724621

>  <E_elec_kJmol>  (4) 
-714998.7454891674

>  <E0_minus_Eelec_plus_ZPE_kJmol>  (4) 
0.0

>  <rxn>  (4) 
rmg_rxn_214

>  <species_type>  (4) 
p1

>  <species_folder>  (4) 
rmg_rxn_214_p2_Csbr-CH-sbrCOCC

>  <frequencies_cm1_list>  (4) 
[58.486113970439995, 80.89995405491999, 91.01502343127999, 148.7045671046, 233.68351043959998, 268.54032792391996, 295.53444721683996, 386.91342087008, 426.66639888756004, 628.1780831029599, 820.4468050776399, 853.1130542448799, 876.6050110245999, 927.82585452648, 984.0183954000399, 1025.0280317310799, 1086.20600394696, 1127.14010343948, 1146.72474557212, 1165.95917145344, 1177.46823884976, 1286.9897877184399, 1294.8456189245198, 1363.7489496253997, 1371.8863272295998, 1388.0786786141598, 1403.05557359708, 1423.88314007264, 1459.15197667616, 1465.5382730237598, 1469.9674785551601, 1470.4687684835199, 1486.8533954570398, 1514.4861443847199, 2944.5564382306798, 2947.06288787248, 2949.60367244088, 2978.74029115364, 2981.5557551348397, 3022.6203273484402, 3042.07449676, 3090.13652701468, 3099.94258205164, 3102.6756422089998, 3156.8286884425197]

>  <E0_kJmol>  (4) 
-714607

>  <H298_kJmol>  (4) 
-714582

$$$$

     RDKit          3D

 14 13  0  0  0  0  0  0  0  0999 V2000
    2.5796   -0.5432    0.2329 C   0  0  0  0  0  3  0  0  0  1  0  0
    1.2594    0.0982    0.3029 C   0  0  0  0  0  0  0  0  0  2  0  0
   -0.0483   -1.0244    0.9576 S   0  0  0  0  0  0  0  0  0  3  0  0
   -0.0049   -2.3732   -0.2491 C   0  0  0  0  0  0  0  0  0  4  0  0
   -0.3891   -1.9781   -1.6653 C   0  0  0  0  0  0  0  0  0  5  0  0
    2.9359   -0.9798   -0.6903 H   0  0  0  0  0  0  0  0  0  6  0  0
    3.1327   -0.7454    1.1400 H   0  0  0  0  0  0  0  0  0  7  0  0
    0.9347    0.4858   -0.6621 H   0  0  0  0  0  0  0  0  0  8  0  0
    1.2442    0.9220    1.0193 H   0  0  0  0  0  0  0  0  0  9  0  0
    0.9819   -2.8380   -0.2257 H   0  0  0  0  0  0  0  0  0 10  0  0
   -0.7110   -3.1037    0.1493 H   0  0  0  0  0  0  0  0  0 11  0  0
    0.3274   -1.2737   -2.0913 H   0  0  0  0  0  0  0  0  0 12  0  0
   -0.4075   -2.8581   -2.3121 H   0  0  0  0  0  0  0  0  0 13  0  0
   -1.3749   -1.5123   -1.6865 H   0  0  0  0  0  0  0  0  0 14  0  0
  1  7  1  0
  1  6  1  0
  1  2  1  0
  2  9  1  0
  2  8  1  0
  2  3  1  0
  3  4  1  0
  4  5  1  0
  4 10  1  0
  4 11  1  0
  5 12  1  0
  5 14  1  0
  5 13  1  0
M  RAD  1   1   2
M  END
>  <rmg_smiles>  (5) 
[CH2]CSCC

>  <rmg_adjacency_list>  (5) 
multiplicity 2
1  S u0 p2 c0 {2,S} {3,S}
2  C u0 p0 c0 {1,S} {4,S} {6,S} {7,S}
3  C u0 p0 c0 {1,S} {5,S} {8,S} {9,S}
4  C u0 p0 c0 {2,S} {10,S} {11,S} {12,S}
5  C u1 p0 c0 {3,S} {13,S} {14,S}
6  H u0 p0 c0 {2,S}
7  H u0 p0 c0 {2,S}
8  H u0 p0 c0 {3,S}
9  H u0 p0 c0 {3,S}
10 H u0 p0 c0 {4,S}
11 H u0 p0 c0 {4,S}
12 H u0 p0 c0 {4,S}
13 H u0 p0 c0 {5,S}
14 H u0 p0 c0 {5,S}


>  <multiplicity>  (5) 
2

>  <reaction>  (5) 
rmg_rxn_214

>  <type>  (5) 
r2

>  <role_mapnums>  (5) 
{}

>  <role_mapidx>  (5) 
{}

>  <ordered_mapped_smiles>  (5) 
[C:1]([C:2]([S:3][C:4]([C:5]([H:12])([H:13])[H:14])([H:10])[H:11])([H:8])[H:9])([H:6])[H:7]

>  <level_of_theory>  (5) 
wb97xd/def2tzvp

>  <lot_method>  (5) 
wb97xd

>  <lot_basis>  (5) 
def2tzvp

>  <spin_multiplicity>  (5) 
2.0

>  <optical_isomers>  (5) 
2.0

>  <modes>  (5) 
IdealGasTranslation(mass=(89.0425, 'amu')),         NonlinearRotor(             inertia = ([94.593, 177.437, 223.626

>  <frequency_value>  (5) 
unknown

>  <frequency_units>  (5) 
unknown

>  <frequency_list>  (5) 
unknown

>  <arkane_path>  (5) 
/home/calvin/Dropbox/PersonalFolders/Calvin/ATLAS_Converged/rmg_rxn_214/output/Species/rmg_rxn_214_r1_sbr-CH2-sbrCSCC/arkane/output.py

>  <path_exists>  (5) 
True

>  <E0_value>  (5) 
-1459449.5066336358

>  <E0_units>  (5) 
kJ/mol

>  <thermo_class>  (5) 
NASA

>  <Cp0_value>  (5) 
33.257888

>  <Cp0_units>  (5) 
J/(mol*K)

>  <CpInf_value>  (5) 
332.57888

>  <CpInf_units>  (5) 
J/(mol*K)

>  <Tmin_value>  (5) 
10.0

>  <Tmin_units>  (5) 
K

>  <Tmax_value>  (5) 
3000.0

>  <Tmax_units>  (5) 
K

>  <polynomials>  (5) 
[{"name": "polynomial1", "class": "NASAPolynomial", "Tmin_value": 10.0, "Tmin_units": "K", "Tmax_value": 1031.5071007618787, "Tmax_units": "K", "coeffs": [3.5714943853963943, 0.03773739256401581, -4.950950990783628e-06, -1.3018660382700517e-08, 5.857037102171146e-12, -175531227.33815667, 12.507822262108592]}, {"name": "polynomial2", "class": "NASAPolynomial", "Tmin_value": 1031.5071007618787, "Tmin_units": "K", "Tmax_value": 3000.0, "Tmax_units": "K", "coeffs": [5.15471759391017, 0.04014233483809902, -2.0873295447536622e-05, 5.302404611852929e-09, -5.296040450423311e-13, -175532008.5243079, 2.617170435341213]}]

>  <H298_value>  (5) 
-348811.48362080817

>  <H298_units>  (5) 
kcal/mol

>  <S298_value>  (5) 
86.99508703546594

>  <S298_units>  (5) 
cal/(mol*K)

>  <Cp_T_value_list>  (5) 
[28.10519018607643, 34.16215665606476, 39.62725284783934, 44.470956897945086, 52.31577082579914, 58.01910235786348, 66.80551106767905, 71.32437388511126, 73.51787619359425]

>  <Cp_T_units>  (5) 
cal/(mol*K)

>  <T_list>  (5) 
[300.0, 400.0, 500.0, 600.0, 800.0, 1000.0, 1500.0, 2000.0, 2400.0]

>  <T_units>  (5) 
K

>  <yaml_path>  (5) 
/home/calvin/Dropbox/PersonalFolders/Calvin/ATLAS_Converged/rmg_rxn_214/output/Species/rmg_rxn_214_r1_sbr-CH2-sbrCSCC/rmg_rxn_214_r1_sbr-CH2-sbrCSCC.yml

>  <frequencies_cm1>  (5) 
[55.01828638384, 115.49582609707998, 192.74254396176, 233.70411139555998, 259.89479340604, 323.54488033712, 364.23176835811995, 563.4155445500401, 638.47169409764, 687.12428508984, 740.0206730098, 780.7556299280399, 985.7694766566399, 1009.68031954088, 1055.6959881701998, 1069.5123626340398, 1077.49179957588, 1214.7147672254398, 1255.0102370831999, 1271.8892869997599, 1297.5512111406, 1400.98174403044, 1442.24545881832, 1457.86785042132, 1467.7288413408398, 1480.70744359564, 1491.3787387829198, 3015.89754872016, 3034.4590100401197, 3035.7156683536796, 3075.4068435032796, 3086.44895589784, 3092.5949077592395, 3102.88851875392, 3127.8568773774396, 3233.1826982156]

>  <ZPE_kJmol>  (5) 
309.45664795415496

>  <E_elec_kJmol>  (5) 
-1459758.96328159

>  <E0_minus_Eelec_plus_ZPE_kJmol>  (5) 
0.0

>  <rxn>  (5) 
rmg_rxn_214

>  <species_type>  (5) 
r0

>  <species_folder>  (5) 
rmg_rxn_214_r1_sbr-CH2-sbrCSCC

>  <frequencies_cm1_list>  (5) 
[55.01828638384, 115.49582609707998, 192.74254396176, 233.70411139555998, 259.89479340604, 323.54488033712, 364.23176835811995, 563.4155445500401, 638.47169409764, 687.12428508984, 740.0206730098, 780.7556299280399, 985.7694766566399, 1009.68031954088, 1055.6959881701998, 1069.5123626340398, 1077.49179957588, 1214.7147672254398, 1255.0102370831999, 1271.8892869997599, 1297.5512111406, 1400.98174403044, 1442.24545881832, 1457.86785042132, 1467.7288413408398, 1480.70744359564, 1491.3787387829198, 3015.89754872016, 3034.4590100401197, 3035.7156683536796, 3075.4068435032796, 3086.44895589784, 3092.5949077592395, 3102.88851875392, 3127.8568773774396, 3233.1826982156]

>  <E0_kJmol>  (5) 
-1.45945e+06

>  <H298_kJmol>  (5) 
-1.45943e+06

$$$$
