
     RDKit          3D

  7  6  0  0  0  0  0  0  0  0999 V2000
   -0.5881   -1.0401   -0.0366 C   0  0  0  0  0  0  0  0  0  1  0  0
   -0.3002    0.3982    0.0176 N   0  0  0  0  0  0  0  0  0  2  0  0
    0.8372    0.7939    0.0253 N   0  0  0  0  0  0  0  0  0  3  0  0
   -1.2014   -1.2152   -0.9206 H   0  0  0  0  0  0  0  0  0  4  0  0
    0.3207   -1.6452   -0.0665 H   0  0  0  0  0  0  0  0  0  5  0  0
   -1.1894   -1.2839    0.8394 H   0  0  0  0  0  0  0  0  0  6  0  0
    1.5468    0.0344   -0.0092 H   0  0  0  0  0  0  0  0  0  7  0  0
  1  5  1  0
  1  2  1  0
  1  4  1  0
  1  6  1  0
  2  3  1  0
  3  7  1  0
M  END
>  <rmg_smiles>  (1) 
C[N][NH]

>  <rmg_adjacency_list>  (1) 
1 N u0 p1 c0 {2,S} {3,S}
2 N u0 p1 c0 {1,S} {7,S}
3 C u0 p0 c0 {1,S} {4,S} {5,S} {6,S}
4 H u0 p0 c0 {3,S}
5 H u0 p0 c0 {3,S}
6 H u0 p0 c0 {3,S}
7 H u0 p0 c0 {2,S}


>  <multiplicity>  (1) 
1

>  <reaction>  (1) 
rmg_rxn_16713

>  <type>  (1) 
r1h

>  <role_mapnums>  (1) 
{"r1h_a": 3, "r1h_h": 7}

>  <role_mapidx>  (1) 
{"r1h_a": 2, "r1h_h": 6}

>  <ordered_mapped_smiles>  (1) 
[C:1]([NH:2][NH:3][H:7])([H:4])([H:5])[H:6]

>  <mol_properties>  (1) 
{"2": {"label": "donator", "atom_type": "N3s"}, "6": {"label": "d_hydrogen", "atom_type": "H0"}}

>  <level_of_theory>  (1) 
wb97xd/def2tzvp

>  <lot_method>  (1) 
wb97xd

>  <lot_basis>  (1) 
def2tzvp

>  <spin_multiplicity>  (1) 
1.0

>  <optical_isomers>  (1) 
1.0

>  <modes>  (1) 
IdealGasTranslation(mass=(44.0374, 'amu')),         NonlinearRotor(             inertia = ([8.23677, 45.0992, 50.2205

>  <frequency_value>  (1) 
unknown

>  <frequency_units>  (1) 
unknown

>  <frequency_list>  (1) 
unknown

>  <arkane_path>  (1) 
/home/calvin/Dropbox/PersonalFolders/Calvin/ZEUS_Converged/rmg_rxn_16713/output/Species/rmg_rxn_16713_r1_CN=N/arkane/output.py

>  <path_exists>  (1) 
True

>  <E0_value>  (1) 
-393587.49053709424

>  <E0_units>  (1) 
kJ/mol

>  <thermo_class>  (1) 
NASA

>  <Cp0_value>  (1) 
33.257888

>  <Cp0_units>  (1) 
J/(mol*K)

>  <CpInf_value>  (1) 
157.97496800000002

>  <CpInf_units>  (1) 
J/(mol*K)

>  <Tmin_value>  (1) 
10.0

>  <Tmin_units>  (1) 
K

>  <Tmax_value>  (1) 
3000.0

>  <Tmax_units>  (1) 
K

>  <polynomials>  (1) 
[{"name": "polynomial1", "class": "NASAPolynomial", "Tmin_value": 10.0, "Tmin_units": "K", "Tmax_value": 594.9639657079314, "Tmax_units": "K", "coeffs": [3.994177372758275, 0.00013386692778393056, 4.319937731174126e-05, -5.858249507934435e-08, 2.55997421131548e-11, -47337640.31429258, 6.866771830101672]}, {"name": "polynomial2", "class": "NASAPolynomial", "Tmin_value": 594.9639657079314, "Tmin_units": "K", "Tmax_value": 3000.0, "Tmax_units": "K", "coeffs": [0.7475738341828827, 0.021961835024589815, -1.183431232262963e-05, 3.0857275495096352e-09, -3.1372359596535523e-13, -47337254.00496767, 20.843833820516924]}]

>  <H298_value>  (1) 
-94066.73780029836

>  <H298_units>  (1) 
kcal/mol

>  <S298_value>  (1) 
61.82936265764643

>  <S298_units>  (1) 
cal/(mol*K)

>  <Cp_T_value_list>  (1) 
[13.012053200936506, 15.630766650793966, 18.159345702371915, 20.44871455029448, 24.232936593277145, 27.119606812306824, 31.575178011739702, 33.782982385342365, 34.85329802333024]

>  <Cp_T_units>  (1) 
cal/(mol*K)

>  <T_list>  (1) 
[300.0, 400.0, 500.0, 600.0, 800.0, 1000.0, 1500.0, 2000.0, 2400.0]

>  <T_units>  (1) 
K

>  <yaml_path>  (1) 
/home/calvin/Dropbox/PersonalFolders/Calvin/ZEUS_Converged/rmg_rxn_16713/output/Species/rmg_rxn_16713_r1_CN=N/rmg_rxn_16713_r1_CN=N.yml

>  <frequencies_cm1>  (1) 
[189.67986850904, 560.31853417072, 862.0401351608799, 951.2148065263999, 1139.87836120808, 1167.6141149155599, 1401.2770243992, 1457.2086198306001, 1457.84724946536, 1489.29117524564, 1682.1504579578398, 3004.62882581004, 3096.20694203756, 3100.6842164662, 3290.18554335692]

>  <ZPE_kJmol>  (1) 
148.63740153327285

>  <E_elec_kJmol>  (1) 
-393736.1279386275

>  <E0_minus_Eelec_plus_ZPE_kJmol>  (1) 
0.0

>  <rxn>  (1) 
rmg_rxn_16713

>  <species_type>  (1) 
r0

>  <species_folder>  (1) 
rmg_rxn_16713_r1_CN=N

>  <frequencies_cm1_list>  (1) 
[189.67986850904, 560.31853417072, 862.0401351608799, 951.2148065263999, 1139.87836120808, 1167.6141149155599, 1401.2770243992, 1457.2086198306001, 1457.84724946536, 1489.29117524564, 1682.1504579578398, 3004.62882581004, 3096.20694203756, 3100.6842164662, 3290.18554335692]

>  <E0_kJmol>  (1) 
-393587

>  <H298_kJmol>  (1) 
-393575

$$$$

     RDKit          3D

  8  7  0  0  0  0  0  0  0  0999 V2000
   -1.9518    0.1173    0.0178 H   0  0  0  0  0  0  0  0  0  1  0  0
    1.2787    0.0302   -0.0075 C   0  0  0  0  0  0  0  0  0  2  0  0
   -0.1836    0.3788    0.0161 C   0  0  0  0  0  0  0  0  0  3  0  0
   -1.0959   -0.4728   -0.0111 N   0  0  0  0  0  0  0  0  0  4  0  0
    1.7528    0.4956   -0.8740 H   0  0  0  0  0  0  0  0  0  5  0  0
    1.4189   -1.0479   -0.0506 H   0  0  0  0  0  0  0  0  0  6  0  0
    1.7647    0.4267    0.8863 H   0  0  0  0  0  0  0  0  0  7  0  0
   -0.4261    1.4530    0.0597 H   0  0  0  0  0  0  0  0  0  8  0  0
  1  4  1  0
  2  7  1  0
  2  5  1  0
  2  6  1  0
  2  3  1  0
  3  4  1  0
  3  8  1  0
M  END
>  <rmg_smiles>  (2) 
C[CH][NH]

>  <rmg_adjacency_list>  (2) 
1 N u0 p1 c0 {3,S} {8,S}
2 C u0 p0 c0 {3,S} {4,S} {5,S} {6,S}
3 C u0 p0 c0 {1,S} {2,S} {7,S}
4 H u0 p0 c0 {2,S}
5 H u0 p0 c0 {2,S}
6 H u0 p0 c0 {2,S}
7 H u0 p0 c0 {3,S}
8 H u0 p0 c0 {1,S}


>  <multiplicity>  (2) 
1

>  <reaction>  (2) 
rmg_rxn_16713

>  <type>  (2) 
r2h

>  <role_mapnums>  (2) 
{"r2h_a": 4, "r2h_h": 1}

>  <role_mapidx>  (2) 
{"r2h_a": 3, "r2h_h": 0}

>  <ordered_mapped_smiles>  (2) 
[H:1][NH:4][CH:3]([C:2]([H:5])([H:6])[H:7])[H:8]

>  <mol_properties>  (2) 
{"0": {"label": "a_hydrogen", "atom_type": "H0"}, "3": {"label": "acceptor", "atom_type": "N3s"}}

>  <level_of_theory>  (2) 
wb97xd/def2tzvp

>  <lot_method>  (2) 
wb97xd

>  <lot_basis>  (2) 
def2tzvp

>  <spin_multiplicity>  (2) 
1.0

>  <optical_isomers>  (2) 
1.0

>  <modes>  (2) 
IdealGasTranslation(mass=(43.0422, 'amu')),         NonlinearRotor(             inertia = ([9.32783, 51.3348, 57.5532

>  <frequency_value>  (2) 
unknown

>  <frequency_units>  (2) 
unknown

>  <frequency_list>  (2) 
unknown

>  <arkane_path>  (2) 
/home/calvin/Dropbox/PersonalFolders/Calvin/ZEUS_Converged/rmg_rxn_16713/output/Species/rmg_rxn_16713_p2_CC=N/arkane/output.py

>  <path_exists>  (2) 
True

>  <E0_value>  (2) 
-351535.20335661684

>  <E0_units>  (2) 
kJ/mol

>  <thermo_class>  (2) 
NASA

>  <Cp0_value>  (2) 
33.257888

>  <Cp0_units>  (2) 
J/(mol*K)

>  <CpInf_value>  (2) 
182.918384

>  <CpInf_units>  (2) 
J/(mol*K)

>  <Tmin_value>  (2) 
10.0

>  <Tmin_units>  (2) 
K

>  <Tmax_value>  (2) 
3000.0

>  <Tmax_units>  (2) 
K

>  <polynomials>  (2) 
[{"name": "polynomial1", "class": "NASAPolynomial", "Tmin_value": 10.0, "Tmin_units": "K", "Tmax_value": 834.0183041901832, "Tmax_units": "K", "coeffs": [4.020859284868709, 0.0012406595733239277, 4.4482903010182226e-05, -5.482114439751344e-08, 2.0739201558559772e-11, -42279921.71645892, 6.726586383468645]}, {"name": "polynomial2", "class": "NASAPolynomial", "Tmin_value": 834.0183041901832, "Tmin_units": "K", "Tmax_value": 3000.0, "Tmax_units": "K", "coeffs": [0.8146767610859666, 0.025012560508124084, -1.3369721411120483e-05, 3.4917002293006827e-09, -3.579375529269218e-13, -42279678.881200545, 19.862274208798944]}]

>  <H298_value>  (2) 
-84015.86036687854

>  <H298_units>  (2) 
kcal/mol

>  <S298_value>  (2) 
62.66843297179497

>  <S298_units>  (2) 
cal/(mol*K)

>  <Cp_T_value_list>  (2) 
[14.078036689508782, 17.202765604471058, 20.2803800489589, 23.1023356383003, 27.639649626797436, 30.983090061901617, 36.21499785066487, 38.88468928045463, 40.19916387517873]

>  <Cp_T_units>  (2) 
cal/(mol*K)

>  <T_list>  (2) 
[300.0, 400.0, 500.0, 600.0, 800.0, 1000.0, 1500.0, 2000.0, 2400.0]

>  <T_units>  (2) 
K

>  <yaml_path>  (2) 
/home/calvin/Dropbox/PersonalFolders/Calvin/ZEUS_Converged/rmg_rxn_16713/output/Species/rmg_rxn_16713_p2_CC=N/rmg_rxn_16713_p2_CC=N.yml

>  <frequencies_cm1>  (2) 
[185.42920459596, 489.9250676554, 680.6761858743599, 921.32968641376, 1055.89513074448, 1069.62910138448, 1130.4431233784, 1267.5150173509198, 1378.7876474762, 1425.071128533, 1456.56312321052, 1463.3683056626398, 1737.36788691596, 2989.2124437666403, 3014.6889593038395, 3075.43431144456, 3123.3452680222, 3455.8927661138396]

>  <ZPE_kJmol>  (2) 
178.96482902382195

>  <E_elec_kJmol>  (2) 
-351714.16818564065

>  <E0_minus_Eelec_plus_ZPE_kJmol>  (2) 
0.0

>  <rxn>  (2) 
rmg_rxn_16713

>  <species_type>  (2) 
p1

>  <species_folder>  (2) 
rmg_rxn_16713_p2_CC=N

>  <frequencies_cm1_list>  (2) 
[185.42920459596, 489.9250676554, 680.6761858743599, 921.32968641376, 1055.89513074448, 1069.62910138448, 1130.4431233784, 1267.5150173509198, 1378.7876474762, 1425.071128533, 1456.56312321052, 1463.3683056626398, 1737.36788691596, 2989.2124437666403, 3014.6889593038395, 3075.43431144456, 3123.3452680222, 3455.8927661138396]

>  <E0_kJmol>  (2) 
-351535

>  <H298_kJmol>  (2) 
-351522

$$$$

     RDKit          3D

 14 12  0  0  0  0  0  0  0  0999 V2000
   -2.4823   -0.8909   -0.0058 C   0  0  0  0  0  0  0  0  0  1  0  0
   -2.1944    0.5475    0.0485 N   0  0  0  0  0  0  0  0  0  2  0  0
   -1.0570    0.9432    0.0561 N   0  0  0  0  0  0  0  0  0  3  0  0
   -3.0956   -1.0659   -0.8898 H   0  0  0  0  0  0  0  0  0  4  0  0
   -1.5735   -1.4959   -0.0356 H   0  0  0  0  0  0  0  0  0  5  0  0
   -3.0835   -1.1347    0.8702 H   0  0  0  0  0  0  0  0  0  6  0  0
   -0.2821    0.1138    0.0184 H   0  0  0  0  0  0  0  0  0  7  0  0
    3.3178   -0.2281   -0.0193 C   0  0  0  0  0  0  0  0  0  8  0  0
    1.8555    0.1206    0.0042 C   0  0  0  0  0  0  0  0  0  9  0  0
    0.9432   -0.7311   -0.0229 N   0  0  0  0  0  2  0  0  0 10  0  0
    3.7919    0.2373   -0.8858 H   0  0  0  0  0  0  0  0  0 11  0  0
    3.4580   -1.3062   -0.0625 H   0  0  0  0  0  0  0  0  0 12  0  0
    3.8038    0.1684    0.8744 H   0  0  0  0  0  0  0  0  0 13  0  0
    1.6131    1.1948    0.0479 H   0  0  0  0  0  0  0  0  0 14  0  0
  1  5  1  0
  1  2  1  0
  1  4  1  0
  1  6  1  0
  2  3  1  0
  3  7  1  0
  8  9  1  0
  8 13  1  0
  8 11  1  0
  8 12  1  0
  9 10  1  0
  9 14  1  0
M  RAD  1  10   2
M  END
>  <rmg_smiles>  (3) 
C[N][NH].C[CH][N]

>  <rmg_adjacency_list>  (3) 
multiplicity 2
1  N u0 p1 c0 {2,S} {5,S}
2  N u0 p1 c0 {1,S} {14,S}
3  N u1 p2 c0 {6,S}
4  C u0 p0 c0 {6,S} {7,S} {8,S} {9,S}
5  C u0 p0 c0 {1,S} {10,S} {11,S} {12,S}
6  C u0 p0 c0 {3,S} {4,S} {13,S}
7  H u0 p0 c0 {4,S}
8  H u0 p0 c0 {4,S}
9  H u0 p0 c0 {4,S}
10 H u0 p0 c0 {5,S}
11 H u0 p0 c0 {5,S}
12 H u0 p0 c0 {5,S}
13 H u0 p0 c0 {6,S}
14 H u0 p0 c0 {2,S}


>  <multiplicity>  (3) 
2

>  <reaction>  (3) 
rmg_rxn_16713

>  <type>  (3) 
ts

>  <role_mapnums>  (3) 
{"*2": 7, "*1": 3, "*3": 10, "*0": 2, "*4": 9}

>  <role_mapidx>  (3) 
{"*2": 6, "*1": 2, "*3": 9, "*0": 1, "*4": 8}

>  <ordered_mapped_smiles>  (3) 
[C:1]([NH:2][NH:3][H:7])([H:4])([H:5])[H:6].[C:8]([CH:9]([NH:10])[H:14])([H:11])([H:12])[H:13]

>  <mol_properties>  (3) 
{"1": {"label": "*0", "atom_type": "N3s"}, "2": {"label": "*1", "atom_type": "N3s"}, "6": {"label": "*2", "atom_type": "H0"}, "8": {"label": "*4", "atom_type": "Cs"}, "9": {"label": "*3", "atom_type": "N1s"}}

>  <level_of_theory>  (3) 
wb97xd/def2tzvp

>  <lot_method>  (3) 
wb97xd

>  <lot_basis>  (3) 
def2tzvp

>  <spin_multiplicity>  (3) 
2.0

>  <optical_isomers>  (3) 
1.0

>  <modes>  (3) 
IdealGasTranslation(mass=(86.0718, 'amu')),         NonlinearRotor(             inertia = ([44.9613, 411.734, 450.439

>  <frequency_value>  (3) 
-1134.98

>  <frequency_units>  (3) 
cm^-1

>  <frequency_list>  (3) 
unknown

>  <arkane_path>  (3) 
/home/calvin/Dropbox/PersonalFolders/Calvin/ZEUS_Converged/rmg_rxn_16713/output/rxns/TS0/arkane/output.py

>  <path_exists>  (3) 
True

>  <E0_value>  (3) 
-743430.0

>  <E0_units>  (3) 
kJ/mol

>  <thermo_class>  (3) 
unknown

>  <Cp0_value>  (3) 
unknown

>  <Cp0_units>  (3) 
unknown

>  <CpInf_value>  (3) 
unknown

>  <CpInf_units>  (3) 
unknown

>  <Tmin_value>  (3) 
unknown

>  <Tmin_units>  (3) 
unknown

>  <Tmax_value>  (3) 
unknown

>  <Tmax_units>  (3) 
unknown

>  <polynomials>  (3) 
unknown

>  <H298_value>  (3) 
unknown

>  <H298_units>  (3) 
unknown

>  <S298_value>  (3) 
unknown

>  <S298_units>  (3) 
unknown

>  <Cp_T_value_list>  (3) 
unknown

>  <Cp_T_units>  (3) 
unknown

>  <T_list>  (3) 
unknown

>  <T_units>  (3) 
unknown

>  <yaml_path>  (3) 
unknown

>  <frequencies_cm1>  (3) 
unknown

>  <ZPE_kJmol>  (3) 
unknown

>  <E_elec_kJmol>  (3) 
unknown

>  <E0_minus_Eelec_plus_ZPE_kJmol>  (3) 
unknown

>  <rxn>  (3) 
unknown

>  <species_type>  (3) 
unknown

>  <species_folder>  (3) 
unknown

>  <frequencies_cm1_list>  (3) 
[]

>  <ts_imag_freq_cm1>  (3) 
-1148.7699

>  <ts_freq_out_path>  (3) 
/home/calvin/Dropbox/PersonalFolders/Calvin/ZEUS_Converged/rmg_rxn_16713/output/rxns/TS0/geometry/freq.out

>  <E0_kJmol>  (3) 
-743430

>  <H298_kJmol>  (3) 
unknown

$$$$

     RDKit          3D

  6  5  0  0  0  0  0  0  0  0999 V2000
   -0.4548   -0.0448   -0.0247 C   0  0  0  0  0  0  0  0  0  1  0  0
    0.9431    0.3695   -0.3569 N   0  0  0  0  0  0  0  0  0  2  0  0
    1.8630    0.0599    0.2831 N   0  0  0  0  0  2  0  0  0  3  0  0
   -0.4747   -0.6581    0.8759 H   0  0  0  0  0  0  0  0  0  4  0  0
   -0.8397   -0.5920   -0.8828 H   0  0  0  0  0  0  0  0  0  5  0  0
   -1.0368    0.8654    0.1054 H   0  0  0  0  0  0  0  0  0  6  0  0
  1  5  1  0
  1  2  1  0
  1  4  1  0
  1  6  1  0
  2  3  1  0
M  RAD  1   3   2
M  END
>  <rmg_smiles>  (4) 
C[N][N]

>  <rmg_adjacency_list>  (4) 
multiplicity 2
1 N u0 p1 c0 {2,S} {3,S}
2 N u1 p2 c0 {1,S}
3 C u0 p0 c0 {1,S} {4,S} {5,S} {6,S}
4 H u0 p0 c0 {3,S}
5 H u0 p0 c0 {3,S}
6 H u0 p0 c0 {3,S}


>  <multiplicity>  (4) 
2

>  <reaction>  (4) 
rmg_rxn_16713

>  <type>  (4) 
r1

>  <role_mapnums>  (4) 
{}

>  <role_mapidx>  (4) 
{}

>  <ordered_mapped_smiles>  (4) 
[C:1]([NH:2][NH:3])([H:4])([H:5])[H:6]

>  <level_of_theory>  (4) 
wb97xd/def2tzvp

>  <lot_method>  (4) 
wb97xd

>  <lot_basis>  (4) 
def2tzvp

>  <spin_multiplicity>  (4) 
2.0

>  <optical_isomers>  (4) 
1.0

>  <modes>  (4) 
IdealGasTranslation(mass=(43.0296, 'amu')),         NonlinearRotor(             inertia = ([6.79306, 44.7133, 48.3424

>  <frequency_value>  (4) 
unknown

>  <frequency_units>  (4) 
unknown

>  <frequency_list>  (4) 
unknown

>  <arkane_path>  (4) 
/home/calvin/Dropbox/PersonalFolders/Calvin/ZEUS_Converged/rmg_rxn_16713/output/Species/rmg_rxn_16713_p1_CN=sbr-N-sbr/arkane/output.py

>  <path_exists>  (4) 
True

>  <E0_value>  (4) 
-392010.2696064324

>  <E0_units>  (4) 
kJ/mol

>  <thermo_class>  (4) 
NASA

>  <Cp0_value>  (4) 
33.257888

>  <Cp0_units>  (4) 
J/(mol*K)

>  <CpInf_value>  (4) 
133.031552

>  <CpInf_units>  (4) 
J/(mol*K)

>  <Tmin_value>  (4) 
10.0

>  <Tmin_units>  (4) 
K

>  <Tmax_value>  (4) 
3000.0

>  <Tmax_units>  (4) 
K

>  <polynomials>  (4) 
[{"name": "polynomial1", "class": "NASAPolynomial", "Tmin_value": 10.0, "Tmin_units": "K", "Tmax_value": 1064.950591123782, "Tmax_units": "K", "coeffs": [3.96041091026509, 0.006174097075407143, 1.1789935078849839e-05, -1.4842558906531353e-08, 4.843139440842607e-12, -47147946.3387162, 7.188177288552908]}, {"name": "polynomial2", "class": "NASAPolynomial", "Tmin_value": 1064.950591123782, "Tmin_units": "K", "Tmax_value": 3000.0, "Tmax_units": "K", "coeffs": [3.3182127819781786, 0.01402384740388994, -6.92554868895597e-06, 1.668046330107559e-09, -1.58309525159026e-13, -47148117.90285421, 8.879123601040874]}]

>  <H298_value>  (4) 
-93689.6623429988

>  <H298_units>  (4) 
kcal/mol

>  <S298_value>  (4) 
63.576708327197885

>  <S298_units>  (4) 
cal/(mol*K)

>  <Cp_T_value_list>  (4) 
[12.941115047605736, 14.885170201439047, 16.776632331494437, 18.54247269683692, 21.520664987825697, 23.697484419655577, 27.025439536703665, 28.76507456896619, 29.591548578362335]

>  <Cp_T_units>  (4) 
cal/(mol*K)

>  <T_list>  (4) 
[300.0, 400.0, 500.0, 600.0, 800.0, 1000.0, 1500.0, 2000.0, 2400.0]

>  <T_units>  (4) 
K

>  <yaml_path>  (4) 
/home/calvin/Dropbox/PersonalFolders/Calvin/ZEUS_Converged/rmg_rxn_16713/output/Species/rmg_rxn_16713_p1_CN=sbr-N-sbr/rmg_rxn_16713_p1_CN=sbr-N-sbr.yml

>  <frequencies_cm1>  (4) 
[148.49855754499998, 460.10175041063997, 785.48698281352, 1041.9070816476399, 1085.1896901196, 1379.6803555678, 1459.4060551329999, 1462.8395477929998, 1914.9618612617999, 3028.7868801657996, 3133.2337268829997, 3138.82345293348]

>  <ZPE_kJmol>  (4) 
113.8780390930034

>  <E_elec_kJmol>  (4) 
-392124.1476455254

>  <E0_minus_Eelec_plus_ZPE_kJmol>  (4) 
0.0

>  <rxn>  (4) 
rmg_rxn_16713

>  <species_type>  (4) 
p0

>  <species_folder>  (4) 
rmg_rxn_16713_p1_CN=sbr-N-sbr

>  <frequencies_cm1_list>  (4) 
[148.49855754499998, 460.10175041063997, 785.48698281352, 1041.9070816476399, 1085.1896901196, 1379.6803555678, 1459.4060551329999, 1462.8395477929998, 1914.9618612617999, 3028.7868801657996, 3133.2337268829997, 3138.82345293348]

>  <E0_kJmol>  (4) 
-392010

>  <H298_kJmol>  (4) 
-391998

$$$$

     RDKit          3D

  7  6  0  0  0  0  0  0  0  0999 V2000
   -0.6441   -0.1356    0.0624 C   0  0  0  0  0  0  0  0  0  1  0  0
    0.8523    0.0148   -0.0333 C   0  0  0  0  0  0  0  0  0  2  0  0
    1.6700   -0.6077    0.6603 N   0  0  0  0  0  2  0  0  0  3  0  0
   -1.0940    0.8275    0.3091 H   0  0  0  0  0  0  0  0  0  4  0  0
   -0.9104   -0.8656    0.8237 H   0  0  0  0  0  0  0  0  0  5  0  0
   -1.0427   -0.4545   -0.9022 H   0  0  0  0  0  0  0  0  0  6  0  0
    1.2362    0.7308   -0.7748 H   0  0  0  0  0  0  0  0  0  7  0  0
  1  5  1  0
  1  4  1  0
  1  6  1  0
  1  2  1  0
  2  3  1  0
  2  7  1  0
M  RAD  1   3   2
M  END
>  <rmg_smiles>  (5) 
C[CH][N]

>  <rmg_adjacency_list>  (5) 
multiplicity 2
1 N u1 p2 c0 {3,S}
2 C u0 p0 c0 {3,S} {4,S} {5,S} {6,S}
3 C u0 p0 c0 {1,S} {2,S} {7,S}
4 H u0 p0 c0 {2,S}
5 H u0 p0 c0 {2,S}
6 H u0 p0 c0 {2,S}
7 H u0 p0 c0 {3,S}


>  <multiplicity>  (5) 
2

>  <reaction>  (5) 
rmg_rxn_16713

>  <type>  (5) 
r2

>  <role_mapnums>  (5) 
{}

>  <role_mapidx>  (5) 
{}

>  <ordered_mapped_smiles>  (5) 
[C:1]([CH:2]([NH:3])[H:7])([H:4])([H:5])[H:6]

>  <level_of_theory>  (5) 
wb97xd/def2tzvp

>  <lot_method>  (5) 
wb97xd

>  <lot_basis>  (5) 
def2tzvp

>  <spin_multiplicity>  (5) 
2.0

>  <optical_isomers>  (5) 
1.0

>  <modes>  (5) 
IdealGasTranslation(mass=(42.0344, 'amu')),         NonlinearRotor(             inertia = ([8.81492, 48.174, 53.8511

>  <frequency_value>  (5) 
unknown

>  <frequency_units>  (5) 
unknown

>  <frequency_list>  (5) 
unknown

>  <arkane_path>  (5) 
/home/calvin/Dropbox/PersonalFolders/Calvin/ZEUS_Converged/rmg_rxn_16713/output/Species/rmg_rxn_16713_r2_CC=sbr-N-sbr/arkane/output.py

>  <path_exists>  (5) 
True

>  <E0_value>  (5) 
-349854.82234455534

>  <E0_units>  (5) 
kJ/mol

>  <thermo_class>  (5) 
NASA

>  <Cp0_value>  (5) 
33.257888

>  <Cp0_units>  (5) 
J/(mol*K)

>  <CpInf_value>  (5) 
157.97496800000002

>  <CpInf_units>  (5) 
J/(mol*K)

>  <Tmin_value>  (5) 
10.0

>  <Tmin_units>  (5) 
K

>  <Tmax_value>  (5) 
3000.0

>  <Tmax_units>  (5) 
K

>  <polynomials>  (5) 
[{"name": "polynomial1", "class": "NASAPolynomial", "Tmin_value": 10.0, "Tmin_units": "K", "Tmax_value": 503.5856077016928, "Tmax_units": "K", "coeffs": [3.976811592049577, 0.0012685228752087534, 4.786155959427562e-05, -7.554553197268183e-08, 3.869280929218241e-11, -42077814.38325793, 7.559402827950991]}, {"name": "polynomial2", "class": "NASAPolynomial", "Tmin_value": 503.5856077016928, "Tmin_units": "K", "Tmax_value": 3000.0, "Tmax_units": "K", "coeffs": [1.4688672877735052, 0.02118998940112054, -1.1479594923736429e-05, 3.0156770231218235e-09, -3.096140671693614e-13, -42077561.800061174, 17.93823402033286]}]

>  <H298_value>  (5) 
-83614.2601862362

>  <H298_units>  (5) 
kcal/mol

>  <S298_value>  (5) 
63.84640386523673

>  <S298_units>  (5) 
cal/(mol*K)

>  <Cp_T_value_list>  (5) 
[13.788413560189577, 16.48922778111735, 18.980945997388957, 21.186536551582613, 24.822448324400693, 27.593007553675324, 31.86535612271467, 33.985319854322825, 35.01227851918305]

>  <Cp_T_units>  (5) 
cal/(mol*K)

>  <T_list>  (5) 
[300.0, 400.0, 500.0, 600.0, 800.0, 1000.0, 1500.0, 2000.0, 2400.0]

>  <T_units>  (5) 
K

>  <yaml_path>  (5) 
/home/calvin/Dropbox/PersonalFolders/Calvin/ZEUS_Converged/rmg_rxn_16713/output/Species/rmg_rxn_16713_r2_CC=sbr-N-sbr/rmg_rxn_16713_r2_CC=sbr-N-sbr.yml

>  <frequencies_cm1>  (5) 
[183.94593576684, 430.87586088872, 744.9511684695599, 909.3948659275999, 1050.2642027820798, 1063.7578289358798, 1237.9320445923597, 1377.0846351168398, 1461.72709617116, 1465.6893467008, 1739.36617964408, 2963.10416558, 3026.2186276561197, 3097.525403219, 3131.35217290532]

>  <ZPE_kJmol>  (5) 
142.8532380575317

>  <E_elec_kJmol>  (5) 
-349997.67558261286

>  <E0_minus_Eelec_plus_ZPE_kJmol>  (5) 
0.0

>  <rxn>  (5) 
rmg_rxn_16713

>  <species_type>  (5) 
r1

>  <species_folder>  (5) 
rmg_rxn_16713_r2_CC=sbr-N-sbr

>  <frequencies_cm1_list>  (5) 
[183.94593576684, 430.87586088872, 744.9511684695599, 909.3948659275999, 1050.2642027820798, 1063.7578289358798, 1237.9320445923597, 1377.0846351168398, 1461.72709617116, 1465.6893467008, 1739.36617964408, 2963.10416558, 3026.2186276561197, 3097.525403219, 3131.35217290532]

>  <E0_kJmol>  (5) 
-349855

>  <H298_kJmol>  (5) 
-349842

$$$$
