
     RDKit          3D

 13 12  0  0  0  0  0  0  0  0999 V2000
   -0.1925   -1.3188   -1.6456 C   0  0  0  0  0  0  0  0  0  1  0  0
   -0.1020   -1.4762   -0.1457 C   0  0  0  0  0  0  0  0  0  2  0  0
    0.1314   -0.2566    0.6446 C   0  0  0  0  0  0  0  0  0  3  0  0
   -0.0047    0.9044    0.1427 N   0  0  0  0  0  0  0  0  0  4  0  0
    0.1265    1.9830    0.9678 N   0  0  0  0  0  0  0  0  0  5  0  0
    0.7593   -0.9784   -2.0590 H   0  0  0  0  0  0  0  0  0  6  0  0
   -0.9470   -0.5802   -1.9149 H   0  0  0  0  0  0  0  0  0  7  0  0
   -0.4511   -2.2706   -2.1106 H   0  0  0  0  0  0  0  0  0  8  0  0
   -1.0656   -1.8736    0.1790 H   0  0  0  0  0  0  0  0  0  9  0  0
    0.5680   -2.2818    0.1610 H   0  0  0  0  0  0  0  0  0 10  0  0
    0.3844   -0.3844    1.7040 H   0  0  0  0  0  0  0  0  0 11  0  0
    0.4028    2.7965    0.4436 H   0  0  0  0  0  0  0  0  0 12  0  0
    0.7110    1.8344    1.7840 H   0  0  0  0  0  0  0  0  0 13  0  0
  1  8  1  0
  1  7  1  0
  1  6  1  0
  1  2  1  0
  2 10  1  0
  2  9  1  0
  2  3  1  0
  3 11  1  0
  3  4  1  0
  4  5  1  0
  5 12  1  0
  5 13  1  0
M  END
>  <rmg_smiles>  (1) 
CC[CH][N]N

>  <rmg_adjacency_list>  (1) 
1  N u0 p1 c0 {2,S} {12,S} {13,S}
2  N u0 p1 c0 {1,S} {5,S}
3  C u0 p0 c0 {4,S} {5,S} {6,S} {7,S}
4  C u0 p0 c0 {3,S} {8,S} {9,S} {10,S}
5  C u0 p0 c0 {2,S} {3,S} {11,S}
6  H u0 p0 c0 {3,S}
7  H u0 p0 c0 {3,S}
8  H u0 p0 c0 {4,S}
9  H u0 p0 c0 {4,S}
10 H u0 p0 c0 {4,S}
11 H u0 p0 c0 {5,S}
12 H u0 p0 c0 {1,S}
13 H u0 p0 c0 {1,S}


>  <multiplicity>  (1) 
1

>  <reaction>  (1) 
rmg_rxn_15509

>  <type>  (1) 
r1h

>  <role_mapnums>  (1) 
{"r1h_a": 2, "r1h_h": 9}

>  <role_mapidx>  (1) 
{"r1h_a": 1, "r1h_h": 8}

>  <ordered_mapped_smiles>  (1) 
[C:1]([C:2]([CH:3]([NH:4][N:5]([H:12])[H:13])[H:11])([H:9])[H:10])([H:6])([H:7])[H:8]

>  <mol_properties>  (1) 
{"1": {"label": "donator", "atom_type": "Cs"}, "8": {"label": "d_hydrogen", "atom_type": "H0"}}

>  <level_of_theory>  (1) 
wb97xd/def2tzvp

>  <lot_method>  (1) 
wb97xd

>  <lot_basis>  (1) 
def2tzvp

>  <spin_multiplicity>  (1) 
1.0

>  <optical_isomers>  (1) 
2.0

>  <modes>  (1) 
IdealGasTranslation(mass=(72.0687, 'amu')),         NonlinearRotor(             inertia = ([34.684, 184.298, 212.234

>  <frequency_value>  (1) 
unknown

>  <frequency_units>  (1) 
unknown

>  <frequency_list>  (1) 
unknown

>  <arkane_path>  (1) 
/home/calvin/Dropbox/PersonalFolders/Calvin/ZEUS_Converged/rmg_rxn_15509/output/Species/rmg_rxn_15509_r2_CCC=NN/arkane/output.py

>  <path_exists>  (1) 
True

>  <E0_value>  (1) 
-599920.9873317869

>  <E0_units>  (1) 
kJ/mol

>  <thermo_class>  (1) 
NASA

>  <Cp0_value>  (1) 
33.257888

>  <Cp0_units>  (1) 
J/(mol*K)

>  <CpInf_value>  (1) 
307.635464

>  <CpInf_units>  (1) 
J/(mol*K)

>  <Tmin_value>  (1) 
10.0

>  <Tmin_units>  (1) 
K

>  <Tmax_value>  (1) 
3000.0

>  <Tmax_units>  (1) 
K

>  <polynomials>  (1) 
[{"name": "polynomial1", "class": "NASAPolynomial", "Tmin_value": 10.0, "Tmin_units": "K", "Tmax_value": 499.3147300725661, "Tmax_units": "K", "coeffs": [3.772737889467939, 0.01901670993956432, 5.4211482346469644e-05, -1.0002807179596149e-07, 5.2945469938438315e-11, -72153825.17368056, 10.319749085738847]}, {"name": "polynomial2", "class": "NASAPolynomial", "Tmin_value": 499.3147300725661, "Tmin_units": "K", "Tmax_value": 3000.0, "Tmax_units": "K", "coeffs": [0.4321564708677366, 0.045777830025256636, -2.6181433413240182e-05, 7.308755881392629e-09, -7.961803655511034e-13, -72153491.5707767, 24.116053316438002]}]

>  <H298_value>  (1) 
-143380.03046920145

>  <H298_units>  (1) 
kcal/mol

>  <S298_value>  (1) 
77.71862079027869

>  <S298_units>  (1) 
cal/(mol*K)

>  <Cp_T_value_list>  (1) 
[24.015161340836656, 29.82174262050609, 35.05342116575715, 39.64287141955497, 47.12515278152197, 52.74270329409755, 61.259742638110225, 65.56438910501056, 67.79311195775227]

>  <Cp_T_units>  (1) 
cal/(mol*K)

>  <T_list>  (1) 
[300.0, 400.0, 500.0, 600.0, 800.0, 1000.0, 1500.0, 2000.0, 2400.0]

>  <T_units>  (1) 
K

>  <yaml_path>  (1) 
/home/calvin/Dropbox/PersonalFolders/Calvin/ZEUS_Converged/rmg_rxn_15509/output/Species/rmg_rxn_15509_r2_CCC=NN/rmg_rxn_15509_r2_CCC=NN.yml

>  <frequencies_cm1>  (1) 
[131.53023681928, 204.72543334515998, 211.99757079904, 294.46319750692, 385.55375777672003, 420.17023077484, 638.286285494, 720.7931141138, 773.8749106374, 906.79227849132, 928.7185626180799, 1015.77820250504, 1104.88420401736, 1109.64989182944, 1147.56251778116, 1260.9570463703199, 1278.52279481888, 1369.2425378813998, 1404.13369029232, 1415.2307385694398, 1466.4378481006797, 1477.5005614511997, 1488.6731465668397, 1650.7546010748, 1744.5507535606796, 2983.5815158042396, 3001.1197963115196, 3021.061521680799, 3026.87099126152, 3100.27906433232, 3105.4911061902, 3444.6789790862795, 3612.59050413092]

>  <ZPE_kJmol>  (1) 
298.14811218872103

>  <E_elec_kJmol>  (1) 
-600219.1354439756

>  <E0_minus_Eelec_plus_ZPE_kJmol>  (1) 
0.0

>  <rxn>  (1) 
rmg_rxn_15509

>  <species_type>  (1) 
r1

>  <species_folder>  (1) 
rmg_rxn_15509_r2_CCC=NN

>  <frequencies_cm1_list>  (1) 
[131.53023681928, 204.72543334515998, 211.99757079904, 294.46319750692, 385.55375777672003, 420.17023077484, 638.286285494, 720.7931141138, 773.8749106374, 906.79227849132, 928.7185626180799, 1015.77820250504, 1104.88420401736, 1109.64989182944, 1147.56251778116, 1260.9570463703199, 1278.52279481888, 1369.2425378813998, 1404.13369029232, 1415.2307385694398, 1466.4378481006797, 1477.5005614511997, 1488.6731465668397, 1650.7546010748, 1744.5507535606796, 2983.5815158042396, 3001.1197963115196, 3021.061521680799, 3026.87099126152, 3100.27906433232, 3105.4911061902, 3444.6789790862795, 3612.59050413092]

>  <E0_kJmol>  (1) 
-599921

>  <H298_kJmol>  (1) 
-599902

$$$$

     RDKit          3D

  6  5  0  0  0  0  0  0  0  0999 V2000
   -0.7694   -0.7810    0.1860 O   0  0  0  0  0  0  0  0  0  1  0  0
    0.4613   -0.1582   -0.0847 N   0  0  0  0  0  0  0  0  0  2  0  0
    0.4191    1.0780   -0.1285 C   0  0  0  0  0  0  0  0  0  3  0  0
   -0.5386   -1.7129    0.1773 H   0  0  0  0  0  0  0  0  0  4  0  0
   -0.4232    1.7551    0.0078 H   0  0  0  0  0  0  0  0  0  5  0  0
    1.3850    1.5332   -0.3441 H   0  0  0  0  0  0  0  0  0  6  0  0
  1  4  1  0
  1  2  1  0
  2  3  1  0
  3  6  1  0
  3  5  1  0
M  END
>  <rmg_smiles>  (2) 
[CH2][N]O

>  <rmg_adjacency_list>  (2) 
1 O u0 p2 c0 {2,S} {6,S}
2 N u0 p1 c0 {1,S} {3,S}
3 C u0 p0 c0 {2,S} {4,S} {5,S}
4 H u0 p0 c0 {3,S}
5 H u0 p0 c0 {3,S}
6 H u0 p0 c0 {1,S}


>  <multiplicity>  (2) 
1

>  <reaction>  (2) 
rmg_rxn_15509

>  <type>  (2) 
r2h

>  <role_mapnums>  (2) 
{"r2h_a": 3, "r2h_h": 6}

>  <role_mapidx>  (2) 
{"r2h_a": 2, "r2h_h": 5}

>  <ordered_mapped_smiles>  (2) 
[O:1]([NH:2][CH:3]([H:5])[H:6])[H:4]

>  <mol_properties>  (2) 
{"2": {"label": "acceptor", "atom_type": "Cs"}, "5": {"label": "a_hydrogen", "atom_type": "H0"}}

>  <level_of_theory>  (2) 
wb97xd/def2tzvp

>  <lot_method>  (2) 
wb97xd

>  <lot_basis>  (2) 
def2tzvp

>  <spin_multiplicity>  (2) 
1.0

>  <optical_isomers>  (2) 
1.0

>  <modes>  (2) 
IdealGasTranslation(mass=(45.0215, 'amu')),         NonlinearRotor(             inertia = ([7.10552, 42.1368, 49.2423

>  <frequency_value>  (2) 
unknown

>  <frequency_units>  (2) 
unknown

>  <frequency_list>  (2) 
unknown

>  <arkane_path>  (2) 
/home/calvin/Dropbox/PersonalFolders/Calvin/ZEUS_Converged/rmg_rxn_15509/output/Species/rmg_rxn_15509_p1_ON=C/arkane/output.py

>  <path_exists>  (2) 
True

>  <E0_value>  (2) 
-445765.04652910994

>  <E0_units>  (2) 
kJ/mol

>  <thermo_class>  (2) 
NASA

>  <Cp0_value>  (2) 
33.257888

>  <Cp0_units>  (2) 
J/(mol*K)

>  <CpInf_value>  (2) 
133.031552

>  <CpInf_units>  (2) 
J/(mol*K)

>  <Tmin_value>  (2) 
10.0

>  <Tmin_units>  (2) 
K

>  <Tmax_value>  (2) 
3000.0

>  <Tmax_units>  (2) 
K

>  <polynomials>  (2) 
[{"name": "polynomial1", "class": "NASAPolynomial", "Tmin_value": 10.0, "Tmin_units": "K", "Tmax_value": 555.0008285415723, "Tmax_units": "K", "coeffs": [4.0729558966761115, -0.006525504673073184, 8.044401869233928e-05, -1.3643340673050255e-07, 7.605604608176978e-11, -53613151.050707266, 6.598063650688069]}, {"name": "polynomial2", "class": "NASAPolynomial", "Tmin_value": 555.0008285415723, "Tmin_units": "K", "Tmax_value": 3000.0, "Tmax_units": "K", "coeffs": [1.9629419554542669, 0.01794293278685335, -1.0716899102514014e-05, 3.1351804200574135e-09, -3.5588210478784073e-13, -53613059.472560614, 14.250328412630774]}]

>  <H298_value>  (2) 
-106537.6194767193

>  <H298_units>  (2) 
kcal/mol

>  <S298_value>  (2) 
60.36296822828259

>  <S298_units>  (2) 
cal/(mol*K)

>  <Cp_T_value_list>  (2) 
[12.494795700177992, 15.001608210431446, 17.130783734283074, 18.881829280437152, 21.69615330289245, 23.7834318087242, 26.9145239767162, 28.553257692891545, 29.47039525924992]

>  <Cp_T_units>  (2) 
cal/(mol*K)

>  <T_list>  (2) 
[300.0, 400.0, 500.0, 600.0, 800.0, 1000.0, 1500.0, 2000.0, 2400.0]

>  <T_units>  (2) 
K

>  <yaml_path>  (2) 
/home/calvin/Dropbox/PersonalFolders/Calvin/ZEUS_Converged/rmg_rxn_15509/output/Species/rmg_rxn_15509_p1_ON=C/rmg_rxn_15509_p1_ON=C.yml

>  <frequencies_cm1>  (2) 
[438.20980121048, 539.7244451960399, 801.7205361099999, 965.59427378648, 986.4836431299199, 1183.2914424011199, 1353.5034075279598, 1444.4016922088, 1728.97643085492, 3083.6403589019596, 3214.03754314344, 3841.1169085952]

>  <ZPE_kJmol>  (2) 
117.11863122037906

>  <E_elec_kJmol>  (2) 
-445882.1651603303

>  <E0_minus_Eelec_plus_ZPE_kJmol>  (2) 
0.0

>  <rxn>  (2) 
rmg_rxn_15509

>  <species_type>  (2) 
p0

>  <species_folder>  (2) 
rmg_rxn_15509_p1_ON=C

>  <frequencies_cm1_list>  (2) 
[438.20980121048, 539.7244451960399, 801.7205361099999, 965.59427378648, 986.4836431299199, 1183.2914424011199, 1353.5034075279598, 1444.4016922088, 1728.97643085492, 3083.6403589019596, 3214.03754314344, 3841.1169085952]

>  <E0_kJmol>  (2) 
-445765

>  <H298_kJmol>  (2) 
-445753

$$$$

     RDKit          3D

 18 16  0  0  0  0  0  0  0  0999 V2000
   -2.5409   -3.0878    0.6678 O   0  0  0  0  0  0  0  0  0  1  0  0
   -1.3102   -2.4650    0.3972 N   0  0  0  0  0  0  0  0  0  2  0  0
   -1.3523   -1.2288    0.3534 C   0  0  0  0  0  3  0  0  0  3  0  0
   -2.3100   -4.0197    0.6592 H   0  0  0  0  0  0  0  0  0  4  0  0
   -2.1947   -0.5517    0.4896 H   0  0  0  0  0  0  0  0  0  5  0  0
    0.9859    0.0099   -1.8111 C   0  0  0  0  0  0  0  0  0  6  0  0
    1.0765   -0.1475   -0.3112 C   0  0  0  0  0  0  0  0  0  7  0  0
    1.3099    1.0721    0.4791 C   0  0  0  0  0  0  0  0  0  8  0  0
    1.1738    2.2331   -0.0227 N   0  0  0  0  0  0  0  0  0  9  0  0
    1.3050    3.3117    0.8023 N   0  0  0  0  0  0  0  0  0 10  0  0
    1.9378    0.3503   -2.2244 H   0  0  0  0  0  0  0  0  0 11  0  0
    0.2314    0.7485   -2.0804 H   0  0  0  0  0  0  0  0  0 12  0  0
    0.7273   -0.9419   -2.2760 H   0  0  0  0  0  0  0  0  0 13  0  0
    0.0007   -0.5912    0.0513 H   0  0  0  0  0  0  0  0  0 14  0  0
    1.7465   -0.9531   -0.0045 H   0  0  0  0  0  0  0  0  0 15  0  0
    1.5628    0.9443    1.5386 H   0  0  0  0  0  0  0  0  0 16  0  0
    1.5813    4.1252    0.2781 H   0  0  0  0  0  0  0  0  0 17  0  0
    1.8895    3.1631    1.6186 H   0  0  0  0  0  0  0  0  0 18  0  0
  1  4  1  0
  1  2  1  0
  2  3  1  0
  3  5  1  0
  6 13  1  0
  6  7  1  0
  6 11  1  0
  6 12  1  0
  7 14  1  0
  7 15  1  0
  7  8  1  0
  8 16  1  0
  8  9  1  0
  9 10  1  0
 10 17  1  0
 10 18  1  0
M  RAD  1   3   2
M  END
>  <rmg_smiles>  (3) 
CC[CH][N]N.[CH][N]O

>  <rmg_adjacency_list>  (3) 
multiplicity 2
1  O u0 p2 c0 {4,S} {17,S}
2  N u0 p1 c0 {3,S} {15,S} {16,S}
3  N u0 p1 c0 {2,S} {7,S}
4  N u0 p1 c0 {1,S} {8,S}
5  C u0 p0 c0 {6,S} {7,S} {9,S} {10,S}
6  C u0 p0 c0 {5,S} {11,S} {12,S} {13,S}
7  C u0 p0 c0 {3,S} {5,S} {14,S}
8  C u1 p1 c0 {4,S} {18,S}
9  H u0 p0 c0 {5,S}
10 H u0 p0 c0 {5,S}
11 H u0 p0 c0 {6,S}
12 H u0 p0 c0 {6,S}
13 H u0 p0 c0 {6,S}
14 H u0 p0 c0 {7,S}
15 H u0 p0 c0 {2,S}
16 H u0 p0 c0 {2,S}
17 H u0 p0 c0 {1,S}
18 H u0 p0 c0 {8,S}


>  <multiplicity>  (3) 
2

>  <reaction>  (3) 
rmg_rxn_15509

>  <type>  (3) 
ts

>  <role_mapnums>  (3) 
{"*2": 14, "*1": 7, "*3": 3, "*0": 8, "*4": 2}

>  <role_mapidx>  (3) 
{"*2": 13, "*1": 6, "*3": 2, "*0": 7, "*4": 1}

>  <ordered_mapped_smiles>  (3) 
[O:1]([NH:2][CH:3][H:5])[H:4].[C:6]([C:7]([CH:8]([NH:9][N:10]([H:17])[H:18])[H:16])([H:14])[H:15])([H:11])([H:12])[H:13]

>  <mol_properties>  (3) 
{"1": {"label": "*4", "atom_type": "N3s"}, "2": {"label": "*3", "atom_type": "C2s"}, "6": {"label": "*1", "atom_type": "Cs"}, "7": {"label": "*0", "atom_type": "Cs"}, "13": {"label": "*2", "atom_type": "H0"}}

>  <level_of_theory>  (3) 
wb97xd/def2tzvp

>  <lot_method>  (3) 
wb97xd

>  <lot_basis>  (3) 
def2tzvp

>  <spin_multiplicity>  (3) 
2.0

>  <optical_isomers>  (3) 
2.0

>  <modes>  (3) 
IdealGasTranslation(mass=(116.082, 'amu')),         NonlinearRotor(             inertia = ([129.489, 781.8, 863.763

>  <frequency_value>  (3) 
-1174.12

>  <frequency_units>  (3) 
cm^-1

>  <frequency_list>  (3) 
unknown

>  <arkane_path>  (3) 
/home/calvin/Dropbox/PersonalFolders/Calvin/ZEUS_Converged/rmg_rxn_15509/output/rxns/TS0/arkane/output.py

>  <path_exists>  (3) 
True

>  <E0_value>  (3) 
-1043910.0

>  <E0_units>  (3) 
kJ/mol

>  <thermo_class>  (3) 
unknown

>  <Cp0_value>  (3) 
unknown

>  <Cp0_units>  (3) 
unknown

>  <CpInf_value>  (3) 
unknown

>  <CpInf_units>  (3) 
unknown

>  <Tmin_value>  (3) 
unknown

>  <Tmin_units>  (3) 
unknown

>  <Tmax_value>  (3) 
unknown

>  <Tmax_units>  (3) 
unknown

>  <polynomials>  (3) 
unknown

>  <H298_value>  (3) 
unknown

>  <H298_units>  (3) 
unknown

>  <S298_value>  (3) 
unknown

>  <S298_units>  (3) 
unknown

>  <Cp_T_value_list>  (3) 
unknown

>  <Cp_T_units>  (3) 
unknown

>  <T_list>  (3) 
unknown

>  <T_units>  (3) 
unknown

>  <yaml_path>  (3) 
unknown

>  <frequencies_cm1>  (3) 
unknown

>  <ZPE_kJmol>  (3) 
unknown

>  <E_elec_kJmol>  (3) 
unknown

>  <E0_minus_Eelec_plus_ZPE_kJmol>  (3) 
unknown

>  <rxn>  (3) 
unknown

>  <species_type>  (3) 
unknown

>  <species_folder>  (3) 
unknown

>  <frequencies_cm1_list>  (3) 
[]

>  <ts_imag_freq_cm1>  (3) 
-1188.3855

>  <ts_freq_out_path>  (3) 
/home/calvin/Dropbox/PersonalFolders/Calvin/ZEUS_Converged/rmg_rxn_15509/output/rxns/TS0/geometry/freq.out

>  <E0_kJmol>  (3) 
-1.04391e+06

>  <H298_kJmol>  (3) 
unknown

$$$$

     RDKit          3D

 12 11  0  0  0  0  0  0  0  0999 V2000
   -1.6799    0.1163   -0.1840 C   0  0  0  0  0  0  0  0  0  1  0  0
   -0.3995    0.5010    0.4722 C   0  0  0  0  0  3  0  0  0  2  0  0
    0.5137    1.3724   -0.0474 C   0  0  0  0  0  0  0  0  0  3  0  0
    0.3502    1.9710   -1.2320 N   0  0  0  0  0  0  0  0  0  4  0  0
    1.3174    2.8431   -1.5696 N   0  0  0  0  0  0  0  0  0  5  0  0
   -1.7177   -0.9628   -0.3601 H   0  0  0  0  0  0  0  0  0  6  0  0
   -2.5324    0.3598    0.4569 H   0  0  0  0  0  0  0  0  0  7  0  0
   -1.8040    0.6283   -1.1363 H   0  0  0  0  0  0  0  0  0  8  0  0
   -0.1711    0.0588    1.4348 H   0  0  0  0  0  0  0  0  0  9  0  0
    1.4168    1.5865    0.5319 H   0  0  0  0  0  0  0  0  0 10  0  0
    2.2323    2.7152   -1.1508 H   0  0  0  0  0  0  0  0  0 11  0  0
    1.3361    3.0383   -2.5559 H   0  0  0  0  0  0  0  0  0 12  0  0
  1  8  1  0
  1  7  1  0
  1  6  1  0
  1  2  1  0
  2  9  1  0
  2  3  1  0
  3 10  1  0
  3  4  1  0
  4  5  1  0
  5 12  1  0
  5 11  1  0
M  RAD  1   2   2
M  END
>  <rmg_smiles>  (4) 
C[CH][CH][N]N

>  <rmg_adjacency_list>  (4) 
multiplicity 2
1  N u0 p1 c0 {2,S} {11,S} {12,S}
2  N u0 p1 c0 {1,S} {5,S}
3  C u0 p0 c0 {4,S} {6,S} {7,S} {8,S}
4  C u1 p0 c0 {3,S} {5,S} {9,S}
5  C u0 p0 c0 {2,S} {4,S} {10,S}
6  H u0 p0 c0 {3,S}
7  H u0 p0 c0 {3,S}
8  H u0 p0 c0 {3,S}
9  H u0 p0 c0 {4,S}
10 H u0 p0 c0 {5,S}
11 H u0 p0 c0 {1,S}
12 H u0 p0 c0 {1,S}


>  <multiplicity>  (4) 
2

>  <reaction>  (4) 
rmg_rxn_15509

>  <type>  (4) 
r1

>  <role_mapnums>  (4) 
{}

>  <role_mapidx>  (4) 
{}

>  <ordered_mapped_smiles>  (4) 
[C:1]([C:2]([CH:3]([NH:4][N:5]([H:11])[H:12])[H:10])[H:9])([H:6])([H:7])[H:8]

>  <level_of_theory>  (4) 
wb97xd/def2tzvp

>  <lot_method>  (4) 
wb97xd

>  <lot_basis>  (4) 
def2tzvp

>  <spin_multiplicity>  (4) 
2.0

>  <optical_isomers>  (4) 
2.0

>  <modes>  (4) 
IdealGasTranslation(mass=(71.0609, 'amu')),         NonlinearRotor(             inertia = ([29.5336, 184.64, 210.701

>  <frequency_value>  (4) 
unknown

>  <frequency_units>  (4) 
unknown

>  <frequency_list>  (4) 
unknown

>  <arkane_path>  (4) 
/home/calvin/Dropbox/PersonalFolders/Calvin/ZEUS_Converged/rmg_rxn_15509/output/Species/rmg_rxn_15509_p2_Csbr-CH-sbrC=NN/arkane/output.py

>  <path_exists>  (4) 
True

>  <E0_value>  (4) 
-598275.2800468821

>  <E0_units>  (4) 
kJ/mol

>  <thermo_class>  (4) 
NASA

>  <Cp0_value>  (4) 
33.257888

>  <Cp0_units>  (4) 
J/(mol*K)

>  <CpInf_value>  (4) 
282.692048

>  <CpInf_units>  (4) 
J/(mol*K)

>  <Tmin_value>  (4) 
10.0

>  <Tmin_units>  (4) 
K

>  <Tmax_value>  (4) 
3000.0

>  <Tmax_units>  (4) 
K

>  <polynomials>  (4) 
[{"name": "polynomial1", "class": "NASAPolynomial", "Tmin_value": 10.0, "Tmin_units": "K", "Tmax_value": 366.7174735517215, "Tmax_units": "K", "coeffs": [3.7971464582164076, 0.01712840359899359, 7.532734518680577e-05, -1.7422019347854378e-07, 1.2273335988277786e-10, -71955893.35815866, 11.070679841005424]}, {"name": "polynomial2", "class": "NASAPolynomial", "Tmin_value": 366.7174735517215, "Tmin_units": "K", "Tmax_value": 3000.0, "Tmax_units": "K", "coeffs": [1.5634281556089815, 0.04149259727204526, -2.4329457873497574e-05, 6.946910059379756e-09, -7.712017446099328e-13, -71955729.52766144, 19.606319064288527]}]

>  <H298_value>  (4) 
-142986.70658008612

>  <H298_units>  (4) 
kcal/mol

>  <S298_value>  (4) 
79.20502345005374

>  <S298_units>  (4) 
cal/(mol*K)

>  <Cp_T_value_list>  (4) 
[23.857057095767413, 29.197256633611634, 33.87695443606276, 37.95756482540437, 44.56824599166819, 49.485964495331025, 56.83938487509146, 60.5439099973707, 62.508466614878564]

>  <Cp_T_units>  (4) 
cal/(mol*K)

>  <T_list>  (4) 
[300.0, 400.0, 500.0, 600.0, 800.0, 1000.0, 1500.0, 2000.0, 2400.0]

>  <T_units>  (4) 
K

>  <yaml_path>  (4) 
/home/calvin/Dropbox/PersonalFolders/Calvin/ZEUS_Converged/rmg_rxn_15509/output/Species/rmg_rxn_15509_p2_Csbr-CH-sbrC=NN/rmg_rxn_15509_p2_Csbr-CH-sbrC=NN.yml

>  <frequencies_cm1>  (4) 
[102.20820950288, 176.13817345799998, 210.80958233868, 366.32619888072, 419.83374849416, 450.85878816991993, 605.60630235612, 675.42980908988, 714.09093644148, 933.4361815329199, 945.3160661365198, 1018.3876569266398, 1029.10702101116, 1134.1306944952398, 1222.9688835800798, 1246.50890925704, 1330.9728286930401, 1386.72588250612, 1446.1390394947598, 1461.01292969788, 1471.12799907424, 1556.1275433651997, 1644.9863334059999, 3000.3781618969597, 3032.3783134881596, 3048.60499979932, 3116.86970086544, 3157.53598793048, 3449.68501138456, 3630.6575425078395]

>  <ZPE_kJmol>  (4) 
263.0849686240226

>  <E_elec_kJmol>  (4) 
-598538.3650155062

>  <E0_minus_Eelec_plus_ZPE_kJmol>  (4) 
0.0

>  <rxn>  (4) 
rmg_rxn_15509

>  <species_type>  (4) 
p1

>  <species_folder>  (4) 
rmg_rxn_15509_p2_Csbr-CH-sbrC=NN

>  <frequencies_cm1_list>  (4) 
[102.20820950288, 176.13817345799998, 210.80958233868, 366.32619888072, 419.83374849416, 450.85878816991993, 605.60630235612, 675.42980908988, 714.09093644148, 933.4361815329199, 945.3160661365198, 1018.3876569266398, 1029.10702101116, 1134.1306944952398, 1222.9688835800798, 1246.50890925704, 1330.9728286930401, 1386.72588250612, 1446.1390394947598, 1461.01292969788, 1471.12799907424, 1556.1275433651997, 1644.9863334059999, 3000.3781618969597, 3032.3783134881596, 3048.60499979932, 3116.86970086544, 3157.53598793048, 3449.68501138456, 3630.6575425078395]

>  <E0_kJmol>  (4) 
-598275

>  <H298_kJmol>  (4) 
-598256

$$$$

     RDKit          3D

  5  4  0  0  0  0  0  0  0  0999 V2000
    0.8934    0.3742    0.4948 O   0  0  0  0  0  0  0  0  0  1  0  0
    0.1582   -0.1610   -0.5904 N   0  0  0  0  0  0  0  0  0  2  0  0
   -1.0297   -0.3739   -0.4689 C   0  0  0  0  0  3  0  0  0  3  0  0
    1.7804    0.4382    0.1306 H   0  0  0  0  0  0  0  0  0  4  0  0
   -1.8023   -0.2775    0.2859 H   0  0  0  0  0  0  0  0  0  5  0  0
  1  4  1  0
  1  2  1  0
  2  3  1  0
  3  5  1  0
M  RAD  1   3   2
M  END
>  <rmg_smiles>  (5) 
[CH][N]O

>  <rmg_adjacency_list>  (5) 
multiplicity 2
1 O u0 p2 c0 {2,S} {4,S}
2 N u0 p1 c0 {1,S} {3,S}
3 C u1 p1 c0 {2,S} {5,S}
4 H u0 p0 c0 {1,S}
5 H u0 p0 c0 {3,S}


>  <multiplicity>  (5) 
2

>  <reaction>  (5) 
rmg_rxn_15509

>  <type>  (5) 
r2

>  <role_mapnums>  (5) 
{}

>  <role_mapidx>  (5) 
{}

>  <ordered_mapped_smiles>  (5) 
[O:1]([NH:2][CH:3][H:5])[H:4]

>  <level_of_theory>  (5) 
wb97xd/def2tzvp

>  <lot_method>  (5) 
wb97xd

>  <lot_basis>  (5) 
def2tzvp

>  <spin_multiplicity>  (5) 
2.0

>  <optical_isomers>  (5) 
1.0

>  <modes>  (5) 
IdealGasTranslation(mass=(44.0136, 'amu')),         NonlinearRotor(inertia=([5.8161, 41.482, 47.298

>  <frequency_value>  (5) 
unknown

>  <frequency_units>  (5) 
unknown

>  <frequency_list>  (5) 
unknown

>  <arkane_path>  (5) 
/home/calvin/Dropbox/PersonalFolders/Calvin/ZEUS_Converged/rmg_rxn_15509/output/Species/rmg_rxn_15509_r1_ON=sbr-CH-sbr/arkane/output.py

>  <path_exists>  (5) 
True

>  <E0_value>  (5) 
-444005.3444875403

>  <E0_units>  (5) 
kJ/mol

>  <thermo_class>  (5) 
NASA

>  <Cp0_value>  (5) 
33.257888

>  <Cp0_units>  (5) 
J/(mol*K)

>  <CpInf_value>  (5) 
108.088136

>  <CpInf_units>  (5) 
J/(mol*K)

>  <Tmin_value>  (5) 
10.0

>  <Tmin_units>  (5) 
K

>  <Tmax_value>  (5) 
3000.0

>  <Tmax_units>  (5) 
K

>  <polynomials>  (5) 
[{"name": "polynomial1", "class": "NASAPolynomial", "Tmin_value": 10.0, "Tmin_units": "K", "Tmax_value": 582.3897944984312, "Tmax_units": "K", "coeffs": [3.9652725251487997, 0.0020023225588121428, 4.0599056262928875e-05, -7.75899274364692e-08, 4.4513181050887496e-11, -53401506.385814846, 6.827044892789236]}, {"name": "polynomial2", "class": "NASAPolynomial", "Tmin_value": 582.3897944984312, "Tmin_units": "K", "Tmax_value": 3000.0, "Tmax_units": "K", "coeffs": [3.5772944330084147, 0.012861032030441071, -8.472942585347425e-06, 2.741567682664952e-09, -3.4073253039207466e-13, -53401600.15572128, 7.296045717872725]}]

>  <H298_value>  (5) 
-106116.8465159924

>  <H298_units>  (5) 
kcal/mol

>  <S298_value>  (5) 
62.04111940413777

>  <S298_units>  (5) 
cal/(mol*K)

>  <Cp_T_value_list>  (5) 
[12.888053758950505, 14.776534941782554, 16.29416082392464, 17.47087173516364, 19.290917222749155, 20.599817847495114, 22.5201252902908, 23.62472390428687, 24.312211768096834]

>  <Cp_T_units>  (5) 
cal/(mol*K)

>  <T_list>  (5) 
[300.0, 400.0, 500.0, 600.0, 800.0, 1000.0, 1500.0, 2000.0, 2400.0]

>  <T_units>  (5) 
K

>  <yaml_path>  (5) 
/home/calvin/Dropbox/PersonalFolders/Calvin/ZEUS_Converged/rmg_rxn_15509/output/Species/rmg_rxn_15509_r1_ON=sbr-CH-sbr/rmg_rxn_15509_r1_ON=sbr-CH-sbr.yml

>  <frequencies_cm1>  (5) 
[408.41395190699996, 412.06718809724, 739.15543285948, 761.7272136063199, 904.39570061464, 1348.7789216278, 1755.3113195571198, 3153.319658944, 3818.4558570392]

>  <ZPE_kJmol>  (5) 
79.5614101222066

>  <E_elec_kJmol>  (5) 
-444084.9058976625

>  <E0_minus_Eelec_plus_ZPE_kJmol>  (5) 
0.0

>  <rxn>  (5) 
rmg_rxn_15509

>  <species_type>  (5) 
r0

>  <species_folder>  (5) 
rmg_rxn_15509_r1_ON=sbr-CH-sbr

>  <frequencies_cm1_list>  (5) 
[408.41395190699996, 412.06718809724, 739.15543285948, 761.7272136063199, 904.39570061464, 1348.7789216278, 1755.3113195571198, 3153.319658944, 3818.4558570392]

>  <E0_kJmol>  (5) 
-444005

>  <H298_kJmol>  (5) 
-443993

$$$$
