
     RDKit          3D

 10  9  0  0  0  0  0  0  0  0999 V2000
   -1.3603   -1.4241    0.1515 C   0  0  0  0  0  0  0  0  0  1  0  0
   -0.3744   -0.5621    0.0100 C   0  0  0  0  0  2  0  0  0  2  0  0
    0.6352    0.1937   -0.1478 C   0  0  0  0  0  0  0  0  0  3  0  0
    0.9820    1.6288   -0.0124 C   0  0  0  0  0  0  0  0  0  4  0  0
   -2.0247   -1.6548   -0.6724 H   0  0  0  0  0  0  0  0  0  5  0  0
   -1.5453   -1.9080    1.1029 H   0  0  0  0  0  0  0  0  0  6  0  0
    1.5273   -0.3591   -0.4422 H   0  0  0  0  0  0  0  0  0  7  0  0
    1.3149    2.0372   -0.9688 H   0  0  0  0  0  0  0  0  0  8  0  0
    1.7967    1.7575    0.7031 H   0  0  0  0  0  0  0  0  0  9  0  0
    0.1223    2.2057    0.3304 H   0  0  0  0  0  0  0  0  0 10  0  0
  1  5  1  0
  1  6  1  0
  1  2  1  0
  2  3  1  0
  3  4  1  0
  3  7  1  0
  4  8  1  0
  4  9  1  0
  4 10  1  0
M  RAD  1   2   3
M  END
>  <rmg_smiles>  (1) 
[CH2][C][CH]C

>  <rmg_adjacency_list>  (1) 
1  C u0 p0 c0 {2,S} {5,S} {6,S} {7,S}
2  C u0 p0 c0 {1,S} {4,S} {8,S}
3  C u0 p0 c0 {4,S} {9,S} {10,S}
4  C u0 p1 c0 {2,S} {3,S}
5  H u0 p0 c0 {1,S}
6  H u0 p0 c0 {1,S}
7  H u0 p0 c0 {1,S}
8  H u0 p0 c0 {2,S}
9  H u0 p0 c0 {3,S}
10 H u0 p0 c0 {3,S}


>  <multiplicity>  (1) 
1

>  <reaction>  (1) 
rmg_rxn_13933

>  <type>  (1) 
r1h

>  <role_mapnums>  (1) 
{"r1h_a": 3, "r1h_h": 7}

>  <role_mapidx>  (1) 
{"r1h_a": 2, "r1h_h": 6}

>  <ordered_mapped_smiles>  (1) 
[CH:1]([C:2][CH:3]([C:4]([H:8])([H:9])[H:10])[H:7])([H:5])[H:6]

>  <mol_properties>  (1) 
{"2": {"label": "donator", "atom_type": "Cs"}, "6": {"label": "d_hydrogen", "atom_type": "H0"}}

>  <level_of_theory>  (1) 
wb97xd/def2tzvp

>  <lot_method>  (1) 
wb97xd

>  <lot_basis>  (1) 
def2tzvp

>  <spin_multiplicity>  (1) 
1.0

>  <optical_isomers>  (1) 
1.0

>  <modes>  (1) 
IdealGasTranslation(mass=(54.047, 'amu')),         NonlinearRotor(             inertia = ([14.6121, 119.467, 127.49

>  <frequency_value>  (1) 
unknown

>  <frequency_units>  (1) 
unknown

>  <frequency_list>  (1) 
unknown

>  <arkane_path>  (1) 
/home/calvin/Dropbox/PersonalFolders/Calvin/ZEUS_Converged/rmg_rxn_13933/output/Species/rmg_rxn_13933_r2_C=C=CC/arkane/output.py

>  <path_exists>  (1) 
True

>  <E0_value>  (1) 
-409296.6502421279

>  <E0_units>  (1) 
kJ/mol

>  <thermo_class>  (1) 
NASA

>  <Cp0_value>  (1) 
33.257888

>  <Cp0_units>  (1) 
J/(mol*K)

>  <CpInf_value>  (1) 
232.805216

>  <CpInf_units>  (1) 
J/(mol*K)

>  <Tmin_value>  (1) 
10.0

>  <Tmin_units>  (1) 
K

>  <Tmax_value>  (1) 
3000.0

>  <Tmax_units>  (1) 
K

>  <polynomials>  (1) 
[{"name": "polynomial1", "class": "NASAPolynomial", "Tmin_value": 10.0, "Tmin_units": "K", "Tmax_value": 452.8802664009696, "Tmax_units": "K", "coeffs": [3.9021943352433452, 0.007937521032632688, 6.664442489196733e-05, -1.2131953588307993e-07, 6.938885885775227e-11, -49227014.555544384, 8.255511443201872]}, {"name": "polynomial2", "class": "NASAPolynomial", "Tmin_value": 452.8802664009696, "Tmin_units": "K", "Tmax_value": 3000.0, "Tmax_units": "K", "coeffs": [0.958037882717614, 0.033941191741253485, -1.948265019694705e-05, 5.463813645242153e-09, -5.979209978345261e-13, -49226747.88374059, 20.12723627389473]}]

>  <H298_value>  (1) 
-97820.47439749332

>  <H298_units>  (1) 
kcal/mol

>  <S298_value>  (1) 
69.30943774444917

>  <S298_units>  (1) 
cal/(mol*K)

>  <Cp_T_value_list>  (1) 
[19.013335795722274, 23.35407848830737, 27.231838984706652, 30.626214617830076, 36.15654523435027, 40.30546036176962, 46.594544625367064, 49.786664420046236, 51.450781523093035]

>  <Cp_T_units>  (1) 
cal/(mol*K)

>  <T_list>  (1) 
[300.0, 400.0, 500.0, 600.0, 800.0, 1000.0, 1500.0, 2000.0, 2400.0]

>  <T_units>  (1) 
K

>  <yaml_path>  (1) 
/home/calvin/Dropbox/PersonalFolders/Calvin/ZEUS_Converged/rmg_rxn_13933/output/Species/rmg_rxn_13933_r2_C=C=CC/rmg_rxn_13933_r2_C=C=CC.yml

>  <frequencies_cm1>  (1) 
[164.84884959192, 210.28769145436, 340.98015606459995, 540.2944049775999, 574.7186023867599, 878.6239047086799, 884.0282221555199, 895.09093550604, 1017.79709618912, 1055.91573170044, 1088.91159616304, 1146.5530709391198, 1353.77808694076, 1399.01778622892, 1463.354571692, 1470.3726306890399, 1494.8053644576, 2061.4346581373993, 3012.63573069316, 3072.0282867258397, 3106.42501619372, 3110.62074422424, 3124.134971334, 3189.66661224276]

>  <ZPE_kJmol>  (1) 
219.25357474583132

>  <E_elec_kJmol>  (1) 
-409515.9038168737

>  <E0_minus_Eelec_plus_ZPE_kJmol>  (1) 
0.0

>  <rxn>  (1) 
rmg_rxn_13933

>  <species_type>  (1) 
r1

>  <species_folder>  (1) 
rmg_rxn_13933_r2_C=C=CC

>  <frequencies_cm1_list>  (1) 
[164.84884959192, 210.28769145436, 340.98015606459995, 540.2944049775999, 574.7186023867599, 878.6239047086799, 884.0282221555199, 895.09093550604, 1017.79709618912, 1055.91573170044, 1088.91159616304, 1146.5530709391198, 1353.77808694076, 1399.01778622892, 1463.354571692, 1470.3726306890399, 1494.8053644576, 2061.4346581373993, 3012.63573069316, 3072.0282867258397, 3106.42501619372, 3110.62074422424, 3124.134971334, 3189.66661224276]

>  <E0_kJmol>  (1) 
-409297

>  <H298_kJmol>  (1) 
-409281

$$$$

     RDKit          3D

 10  9  0  0  0  0  0  0  0  0999 V2000
   -0.8066   -1.3853    0.2508 C   0  0  0  0  0  0  0  0  0  1  0  0
   -0.6329   -0.1992   -0.6533 C   0  0  0  0  0  0  0  0  0  2  0  0
    0.4427    0.7558   -0.3649 C   0  0  0  0  0  0  0  0  0  3  0  0
    1.0225    0.8395    0.6935 O   0  0  0  0  0  0  0  0  0  4  0  0
   -1.8022   -1.8164    0.1325 H   0  0  0  0  0  0  0  0  0  5  0  0
   -0.6684   -1.0944    1.2913 H   0  0  0  0  0  0  0  0  0  6  0  0
   -0.0726   -2.1610    0.0188 H   0  0  0  0  0  0  0  0  0  7  0  0
   -0.7747   -0.3816   -1.7177 H   0  0  0  0  0  0  0  0  0  8  0  0
    0.6787    1.4622   -1.1869 H   0  0  0  0  0  0  0  0  0  9  0  0
   -1.5203    0.3995   -0.4517 H   0  0  0  0  0  0  0  0  0 10  0  0
  1  5  1  0
  1  7  1  0
  1  6  1  0
  1  2  1  0
  2 10  1  0
  2  8  1  0
  2  3  1  0
  3  4  1  0
  3  9  1  0
M  END
>  <rmg_smiles>  (2) 
CC[CH]O

>  <rmg_adjacency_list>  (2) 
1  O u0 p2 c0 {4,S}
2  C u0 p0 c0 {3,S} {4,S} {5,S} {6,S}
3  C u0 p0 c0 {2,S} {7,S} {8,S} {9,S}
4  C u0 p0 c0 {1,S} {2,S} {10,S}
5  H u0 p0 c0 {2,S}
6  H u0 p0 c0 {2,S}
7  H u0 p0 c0 {3,S}
8  H u0 p0 c0 {3,S}
9  H u0 p0 c0 {3,S}
10 H u0 p0 c0 {4,S}


>  <multiplicity>  (2) 
1

>  <reaction>  (2) 
rmg_rxn_13933

>  <type>  (2) 
r2h

>  <role_mapnums>  (2) 
{"r2h_a": 2, "r2h_h": 10}

>  <role_mapidx>  (2) 
{"r2h_a": 1, "r2h_h": 9}

>  <ordered_mapped_smiles>  (2) 
[C:1]([C:2]([CH:3]([OH:4])[H:9])([H:8])[H:10])([H:5])([H:6])[H:7]

>  <mol_properties>  (2) 
{"1": {"label": "acceptor", "atom_type": "Cs"}, "9": {"label": "a_hydrogen", "atom_type": "H0"}}

>  <level_of_theory>  (2) 
wb97xd/def2tzvp

>  <lot_method>  (2) 
wb97xd

>  <lot_basis>  (2) 
def2tzvp

>  <spin_multiplicity>  (2) 
1.0

>  <optical_isomers>  (2) 
1.0

>  <modes>  (2) 
IdealGasTranslation(mass=(58.0419, 'amu')),         NonlinearRotor(             inertia = ([29.7984, 86.0094, 109.654

>  <frequency_value>  (2) 
unknown

>  <frequency_units>  (2) 
unknown

>  <frequency_list>  (2) 
unknown

>  <arkane_path>  (2) 
/home/calvin/Dropbox/PersonalFolders/Calvin/ZEUS_Converged/rmg_rxn_13933/output/Species/rmg_rxn_13933_p1_CCC=O/arkane/output.py

>  <path_exists>  (2) 
True

>  <E0_value>  (2) 
-506922.5977502898

>  <E0_units>  (2) 
kJ/mol

>  <thermo_class>  (2) 
NASA

>  <Cp0_value>  (2) 
33.257888

>  <Cp0_units>  (2) 
J/(mol*K)

>  <CpInf_value>  (2) 
232.805216

>  <CpInf_units>  (2) 
J/(mol*K)

>  <Tmin_value>  (2) 
10.0

>  <Tmin_units>  (2) 
K

>  <Tmax_value>  (2) 
3000.0

>  <Tmax_units>  (2) 
K

>  <polynomials>  (2) 
[{"name": "polynomial1", "class": "NASAPolynomial", "Tmin_value": 10.0, "Tmin_units": "K", "Tmax_value": 995.1898195947089, "Tmax_units": "K", "coeffs": [3.919274922073676, 0.01190286655933794, 2.8741377441363064e-05, -3.719967863021152e-08, 1.2820649460513628e-11, -60968708.5460655, 8.2981947734565]}, {"name": "polynomial2", "class": "NASAPolynomial", "Tmin_value": 995.1898195947089, "Tmin_units": "K", "Tmax_value": 3000.0, "Tmax_units": "K", "coeffs": [2.274351872072026, 0.029876855889912467, -1.547604229307482e-05, 3.893682143296549e-09, -3.8435914306663724e-13, -60968943.81624351, 13.399106417117805]}]

>  <H298_value>  (2) 
-121153.67271622556

>  <H298_units>  (2) 
kcal/mol

>  <S298_value>  (2) 
69.84440643822009

>  <S298_units>  (2) 
cal/(mol*K)

>  <Cp_T_value_list>  (2) 
[18.235232419838997, 22.3093164128926, 26.245798003241582, 29.876291133548982, 35.851495120144214, 40.11074670434607, 46.62761386139834, 49.92579185294882, 51.490409167619944]

>  <Cp_T_units>  (2) 
cal/(mol*K)

>  <T_list>  (2) 
[300.0, 400.0, 500.0, 600.0, 800.0, 1000.0, 1500.0, 2000.0, 2400.0]

>  <T_units>  (2) 
K

>  <yaml_path>  (2) 
/home/calvin/Dropbox/PersonalFolders/Calvin/ZEUS_Converged/rmg_rxn_13933/output/Species/rmg_rxn_13933_p1_CCC=O/rmg_rxn_13933_p1_CCC=O.yml

>  <frequencies_cm1>  (2) 
[140.17577133716, 231.1427258712, 255.91194192044003, 664.53877037236, 671.2684159859599, 853.7722848356, 903.24204708088, 1002.8064672355599, 1110.1649157284398, 1142.5152835709598, 1274.43007156816, 1362.5060252824799, 1401.2701574138798, 1414.07021805036, 1440.4257077085201, 1481.0027239643998, 1486.2284997929198, 1826.3777506338001, 2861.6925263742396, 3000.3781618969597, 3029.63151936016, 3031.0529853214, 3106.8301683276, 3108.0730926705196]

>  <ZPE_kJmol>  (2) 
220.11000257512663

>  <E_elec_kJmol>  (2) 
-507142.7077528649

>  <E0_minus_Eelec_plus_ZPE_kJmol>  (2) 
0.0

>  <rxn>  (2) 
rmg_rxn_13933

>  <species_type>  (2) 
p0

>  <species_folder>  (2) 
rmg_rxn_13933_p1_CCC=O

>  <frequencies_cm1_list>  (2) 
[140.17577133716, 231.1427258712, 255.91194192044003, 664.53877037236, 671.2684159859599, 853.7722848356, 903.24204708088, 1002.8064672355599, 1110.1649157284398, 1142.5152835709598, 1274.43007156816, 1362.5060252824799, 1401.2701574138798, 1414.07021805036, 1440.4257077085201, 1481.0027239643998, 1486.2284997929198, 1826.3777506338001, 2861.6925263742396, 3000.3781618969597, 3029.63151936016, 3031.0529853214, 3106.8301683276, 3108.0730926705196]

>  <E0_kJmol>  (2) 
-506923

>  <H298_kJmol>  (2) 
-506907

$$$$

     RDKit          3D

 19 17  0  0  0  0  0  0  0  0999 V2000
    0.8700   -1.8881    0.2000 C   0  0  0  0  0  0  0  0  0  1  0  0
    1.0437   -0.7020   -0.7041 C   0  0  0  0  0  0  0  0  0  2  0  0
    2.1193    0.2530   -0.4157 C   0  0  0  0  0  0  0  0  0  3  0  0
    2.6992    0.3367    0.6427 O   0  0  0  0  0  0  0  0  0  4  0  0
   -0.1255   -2.3192    0.0817 H   0  0  0  0  0  0  0  0  0  5  0  0
    1.0082   -1.5972    1.2405 H   0  0  0  0  0  0  0  0  0  6  0  0
    1.6041   -2.6639   -0.0320 H   0  0  0  0  0  0  0  0  0  7  0  0
    0.9019   -0.8845   -1.7685 H   0  0  0  0  0  0  0  0  0  8  0  0
    2.3554    0.9594   -1.2377 H   0  0  0  0  0  0  0  0  0  9  0  0
   -3.1382   -0.9051    0.2052 C   0  0  0  0  0  0  0  0  0 10  0  0
   -2.1523   -0.0431    0.0637 C   0  0  0  0  0  0  0  0  0 11  0  0
   -1.1427    0.7127   -0.0942 C   0  0  0  0  0  3  0  0  0 12  0  0
   -0.7959    2.1477    0.0413 C   0  0  0  0  0  0  0  0  0 13  0  0
   -3.8026   -1.1359   -0.6187 H   0  0  0  0  0  0  0  0  0 14  0  0
   -3.3232   -1.3891    1.1566 H   0  0  0  0  0  0  0  0  0 15  0  0
   -0.0426    0.0309   -0.4572 H   0  0  0  0  0  0  0  0  0 16  0  0
   -0.4630    2.5562   -0.9151 H   0  0  0  0  0  0  0  0  0 17  0  0
    0.0188    2.2764    0.7568 H   0  0  0  0  0  0  0  0  0 18  0  0
   -1.6556    2.7246    0.3840 H   0  0  0  0  0  0  0  0  0 19  0  0
  1  5  1  0
  1  7  1  0
  1  6  1  0
  1  2  1  0
  2  8  1  0
  2 16  1  0
  2  3  1  0
  3  4  1  0
  3  9  1  0
 10 14  1  0
 10 11  1  0
 10 15  1  0
 11 12  1  0
 12 13  1  0
 13 17  1  0
 13 19  1  0
 13 18  1  0
M  RAD  1  12   2
M  END
>  <rmg_smiles>  (3) 
CC[CH]O.[CH2]C[C]C

>  <rmg_adjacency_list>  (3) 
multiplicity 2
1  O u0 p2 c0 {5,S}
2  C u0 p0 c0 {3,S} {5,S} {9,S} {10,S}
3  C u0 p0 c0 {2,S} {11,S} {12,S} {13,S}
4  C u0 p0 c0 {7,S} {14,S} {15,S} {16,S}
5  C u0 p0 c0 {1,S} {2,S} {17,S}
6  C u0 p0 c0 {8,S} {18,S} {19,S}
7  C u1 p1 c0 {4,S} {8,S}
8  C u0 p1 c0 {6,S} {7,S}
9  H u0 p0 c0 {2,S}
10 H u0 p0 c0 {2,S}
11 H u0 p0 c0 {3,S}
12 H u0 p0 c0 {3,S}
13 H u0 p0 c0 {3,S}
14 H u0 p0 c0 {4,S}
15 H u0 p0 c0 {4,S}
16 H u0 p0 c0 {4,S}
17 H u0 p0 c0 {5,S}
18 H u0 p0 c0 {6,S}
19 H u0 p0 c0 {6,S}


>  <multiplicity>  (3) 
2

>  <reaction>  (3) 
rmg_rxn_13933

>  <type>  (3) 
ts

>  <role_mapnums>  (3) 
{"*2": 16, "*1": 12, "*3": 2, "*0": 3, "*4": 11}

>  <role_mapidx>  (3) 
{"*2": 15, "*1": 11, "*3": 1, "*0": 2, "*4": 10}

>  <ordered_mapped_smiles>  (3) 
[C:1]([C:2]([CH:3]([OH:4])[H:9])([H:8])[H:16])([H:5])([H:6])[H:7].[CH:10]([CH2:11][CH:12][C:13]([H:17])([H:18])[H:19])([H:14])[H:15]

>  <mol_properties>  (3) 
{"1": {"label": "*3", "atom_type": "Cs"}, "2": {"label": "*0", "atom_type": "Cs"}, "10": {"label": "*4", "atom_type": "C2s"}, "11": {"label": "*1", "atom_type": "C2s"}, "15": {"label": "*2", "atom_type": "H0"}}

>  <level_of_theory>  (3) 
wb97xd/def2tzvp

>  <lot_method>  (3) 
wb97xd

>  <lot_basis>  (3) 
def2tzvp

>  <spin_multiplicity>  (3) 
2.0

>  <optical_isomers>  (3) 
2.0

>  <modes>  (3) 
IdealGasTranslation(mass=(111.081, 'amu')),         NonlinearRotor(             inertia = ([187.45, 453.935, 590.32

>  <frequency_value>  (3) 
-1684.55

>  <frequency_units>  (3) 
cm^-1

>  <frequency_list>  (3) 
unknown

>  <arkane_path>  (3) 
/home/calvin/Dropbox/PersonalFolders/Calvin/ZEUS_Converged/rmg_rxn_13933/output/rxns/TS0/arkane/output.py

>  <path_exists>  (3) 
True

>  <E0_value>  (3) 
-914474.0

>  <E0_units>  (3) 
kJ/mol

>  <thermo_class>  (3) 
unknown

>  <Cp0_value>  (3) 
unknown

>  <Cp0_units>  (3) 
unknown

>  <CpInf_value>  (3) 
unknown

>  <CpInf_units>  (3) 
unknown

>  <Tmin_value>  (3) 
unknown

>  <Tmin_units>  (3) 
unknown

>  <Tmax_value>  (3) 
unknown

>  <Tmax_units>  (3) 
unknown

>  <polynomials>  (3) 
unknown

>  <H298_value>  (3) 
unknown

>  <H298_units>  (3) 
unknown

>  <S298_value>  (3) 
unknown

>  <S298_units>  (3) 
unknown

>  <Cp_T_value_list>  (3) 
unknown

>  <Cp_T_units>  (3) 
unknown

>  <T_list>  (3) 
unknown

>  <T_units>  (3) 
unknown

>  <yaml_path>  (3) 
unknown

>  <frequencies_cm1>  (3) 
unknown

>  <ZPE_kJmol>  (3) 
unknown

>  <E_elec_kJmol>  (3) 
unknown

>  <E0_minus_Eelec_plus_ZPE_kJmol>  (3) 
unknown

>  <rxn>  (3) 
unknown

>  <species_type>  (3) 
unknown

>  <species_folder>  (3) 
unknown

>  <frequencies_cm1_list>  (3) 
[]

>  <ts_imag_freq_cm1>  (3) 
-1705.0113

>  <ts_freq_out_path>  (3) 
/home/calvin/Dropbox/PersonalFolders/Calvin/ZEUS_Converged/rmg_rxn_13933/output/rxns/TS0/geometry/freq.out

>  <E0_kJmol>  (3) 
-914474

>  <H298_kJmol>  (3) 
unknown

$$$$

     RDKit          3D

  9  8  0  0  0  0  0  0  0  0999 V2000
    2.2285    0.1429   -0.1875 C   0  0  0  0  0  0  0  0  0  1  0  0
    0.8689    0.0588   -0.0734 C   0  0  0  0  0  0  0  0  0  2  0  0
   -0.3436   -0.0148    0.0282 C   0  0  0  0  0  3  0  0  0  3  0  0
   -1.7876   -0.1130    0.1500 C   0  0  0  0  0  0  0  0  0  4  0  0
    2.8646    0.0330    0.6803 H   0  0  0  0  0  0  0  0  0  5  0  0
    2.6934    0.3211   -1.1477 H   0  0  0  0  0  0  0  0  0  6  0  0
   -2.1322    0.3380    1.0826 H   0  0  0  0  0  0  0  0  0  7  0  0
   -2.1068   -1.1583    0.1470 H   0  0  0  0  0  0  0  0  0  8  0  0
   -2.2854    0.3923   -0.6795 H   0  0  0  0  0  0  0  0  0  9  0  0
  1  5  1  0
  1  6  1  0
  1  2  1  0
  2  3  1  0
  3  4  1  0
  4  8  1  0
  4  9  1  0
  4  7  1  0
M  RAD  1   3   2
M  END
>  <rmg_smiles>  (4) 
[CH2]C[C]C

>  <rmg_adjacency_list>  (4) 
multiplicity 2
1 C u0 p0 c0 {3,S} {5,S} {6,S} {7,S}
2 C u0 p0 c0 {4,S} {8,S} {9,S}
3 C u1 p1 c0 {1,S} {4,S}
4 C u0 p1 c0 {2,S} {3,S}
5 H u0 p0 c0 {1,S}
6 H u0 p0 c0 {1,S}
7 H u0 p0 c0 {1,S}
8 H u0 p0 c0 {2,S}
9 H u0 p0 c0 {2,S}


>  <multiplicity>  (4) 
2

>  <reaction>  (4) 
rmg_rxn_13933

>  <type>  (4) 
r1

>  <role_mapnums>  (4) 
{}

>  <role_mapidx>  (4) 
{}

>  <ordered_mapped_smiles>  (4) 
[CH:1]([CH2:2][CH:3][C:4]([H:7])([H:8])[H:9])([H:5])[H:6]

>  <level_of_theory>  (4) 
wb97xd/def2tzvp

>  <lot_method>  (4) 
wb97xd

>  <lot_basis>  (4) 
def2tzvp

>  <spin_multiplicity>  (4) 
2.0

>  <optical_isomers>  (4) 
2.0

>  <modes>  (4) 
IdealGasTranslation(mass=(53.0391, 'amu')),         NonlinearRotor(             inertia = ([4.88746, 139.242, 140.992

>  <frequency_value>  (4) 
unknown

>  <frequency_units>  (4) 
unknown

>  <frequency_list>  (4) 
unknown

>  <arkane_path>  (4) 
/home/calvin/Dropbox/PersonalFolders/Calvin/ZEUS_Converged/rmg_rxn_13933/output/Species/rmg_rxn_13933_p2_sbr-CH2-sbrCtCC/arkane/output.py

>  <path_exists>  (4) 
True

>  <E0_value>  (4) 
-407625.4064849041

>  <E0_units>  (4) 
kJ/mol

>  <thermo_class>  (4) 
NASA

>  <Cp0_value>  (4) 
33.257888

>  <Cp0_units>  (4) 
J/(mol*K)

>  <CpInf_value>  (4) 
207.8618

>  <CpInf_units>  (4) 
J/(mol*K)

>  <Tmin_value>  (4) 
10.0

>  <Tmin_units>  (4) 
K

>  <Tmax_value>  (4) 
3000.0

>  <Tmax_units>  (4) 
K

>  <polynomials>  (4) 
[{"name": "polynomial1", "class": "NASAPolynomial", "Tmin_value": 10.0, "Tmin_units": "K", "Tmax_value": 502.0268159976515, "Tmax_units": "K", "coeffs": [3.687270830426517, 0.029053628934412008, -4.470123428186127e-05, 7.503439468745092e-08, -5.158529094876398e-11, -49026010.75493378, 10.46372665339021]}, {"name": "polynomial2", "class": "NASAPolynomial", "Tmin_value": 502.0268159976515, "Tmin_units": "K", "Tmax_value": 3000.0, "Tmax_units": "K", "coeffs": [2.898462070883104, 0.02729908073702909, -1.54375900595206e-05, 4.274702323061024e-09, -4.631616133105543e-13, -49025830.24365362, 14.734719774038638]}]

>  <H298_value>  (4) 
-97420.5979578768

>  <H298_units>  (4) 
kcal/mol

>  <S298_value>  (4) 
76.91244568160063

>  <S298_units>  (4) 
cal/(mol*K)

>  <Cp_T_value_list>  (4) 
[19.848886680568814, 23.127392893703846, 26.219193390336713, 28.980799697634083, 33.49755626219656, 36.90539253248215, 42.11858387906473, 44.77831245492002, 46.14816382733488]

>  <Cp_T_units>  (4) 
cal/(mol*K)

>  <T_list>  (4) 
[300.0, 400.0, 500.0, 600.0, 800.0, 1000.0, 1500.0, 2000.0, 2400.0]

>  <T_units>  (4) 
K

>  <yaml_path>  (4) 
/home/calvin/Dropbox/PersonalFolders/Calvin/ZEUS_Converged/rmg_rxn_13933/output/Species/rmg_rxn_13933_p2_sbr-CH2-sbrCtCC/rmg_rxn_13933_p2_sbr-CH2-sbrCtCC.yml

>  <frequencies_cm1>  (4) 
[24.18552229704, 186.74766577739996, 206.32544092471997, 398.28514856, 428.84323323399997, 670.45124473288, 768.8002084859199, 1023.53102893132, 1025.11730254024, 1044.32426048028, 1244.297739984, 1401.51050190008, 1455.78715386936, 1460.16829050352, 1460.7931861676398, 2137.33544687936, 3007.2588811876003, 3071.0325738544398, 3085.0961597897995, 3128.557309880079, 3222.30539346872]

>  <ZPE_kJmol>  (4) 
182.1360065892337

>  <E_elec_kJmol>  (4) 
-407807.5424914933

>  <E0_minus_Eelec_plus_ZPE_kJmol>  (4) 
0.0

>  <rxn>  (4) 
rmg_rxn_13933

>  <species_type>  (4) 
p1

>  <species_folder>  (4) 
rmg_rxn_13933_p2_sbr-CH2-sbrCtCC

>  <frequencies_cm1_list>  (4) 
[24.18552229704, 186.74766577739996, 206.32544092471997, 398.28514856, 428.84323323399997, 670.45124473288, 768.8002084859199, 1023.53102893132, 1025.11730254024, 1044.32426048028, 1244.297739984, 1401.51050190008, 1455.78715386936, 1460.16829050352, 1460.7931861676398, 2137.33544687936, 3007.2588811876003, 3071.0325738544398, 3085.0961597897995, 3128.557309880079, 3222.30539346872]

>  <E0_kJmol>  (4) 
-407625

>  <H298_kJmol>  (4) 
-407608

$$$$

     RDKit          3D

  9  8  0  0  0  0  0  0  0  0999 V2000
   -1.1429   -0.0056    0.0357 C   0  0  0  0  0  0  0  0  0  1  0  0
    0.2348   -0.4846   -0.1988 C   0  0  0  0  0  0  0  0  0  2  0  0
    1.3889    0.3067    0.0768 C   0  0  0  0  0  0  0  0  0  3  0  0
    1.3416    1.4450    0.5289 O   0  0  0  0  0  1  0  0  0  4  0  0
   -1.7198   -0.0230   -0.8945 H   0  0  0  0  0  0  0  0  0  5  0  0
   -1.1399    1.0063    0.4362 H   0  0  0  0  0  0  0  0  0  6  0  0
   -1.6667   -0.6673    0.7330 H   0  0  0  0  0  0  0  0  0  7  0  0
    0.3900   -1.4812   -0.5984 H   0  0  0  0  0  0  0  0  0  8  0  0
    2.3646   -0.1624   -0.1407 H   0  0  0  0  0  0  0  0  0  9  0  0
  1  5  1  0
  1  7  1  0
  1  6  1  0
  1  2  1  0
  2  8  1  0
  2  3  1  0
  3  4  1  0
  3  9  1  0
M  RAD  1   4   2
M  END
>  <rmg_smiles>  (5) 
C[CH][CH][O]

>  <rmg_adjacency_list>  (5) 
multiplicity 2
1 O u1 p2 c0 {4,S}
2 C u0 p0 c0 {3,S} {5,S} {6,S} {7,S}
3 C u0 p0 c0 {2,S} {4,S} {8,S}
4 C u0 p0 c0 {1,S} {3,S} {9,S}
5 H u0 p0 c0 {2,S}
6 H u0 p0 c0 {2,S}
7 H u0 p0 c0 {2,S}
8 H u0 p0 c0 {3,S}
9 H u0 p0 c0 {4,S}


>  <multiplicity>  (5) 
2

>  <reaction>  (5) 
rmg_rxn_13933

>  <type>  (5) 
r2

>  <role_mapnums>  (5) 
{}

>  <role_mapidx>  (5) 
{}

>  <ordered_mapped_smiles>  (5) 
[C:1]([CH:2]([CH:3]([O:4])[H:9])[H:8])([H:5])([H:6])[H:7]

>  <level_of_theory>  (5) 
wb97xd/def2tzvp

>  <lot_method>  (5) 
wb97xd

>  <lot_basis>  (5) 
def2tzvp

>  <spin_multiplicity>  (5) 
2.0

>  <optical_isomers>  (5) 
1.0

>  <modes>  (5) 
IdealGasTranslation(mass=(57.034, 'amu')),         NonlinearRotor(             inertia = ([25.424, 86.3649, 108.698

>  <frequency_value>  (5) 
unknown

>  <frequency_units>  (5) 
unknown

>  <frequency_list>  (5) 
unknown

>  <arkane_path>  (5) 
/home/calvin/Dropbox/PersonalFolders/Calvin/ZEUS_Converged/rmg_rxn_13933/output/Species/rmg_rxn_13933_r1_Csbr-CH-sbrC=O/arkane/output.py

>  <path_exists>  (5) 
True

>  <E0_value>  (5) 
-505242.8208271292

>  <E0_units>  (5) 
kJ/mol

>  <thermo_class>  (5) 
NASA

>  <Cp0_value>  (5) 
33.257888

>  <Cp0_units>  (5) 
J/(mol*K)

>  <CpInf_value>  (5) 
207.8618

>  <CpInf_units>  (5) 
J/(mol*K)

>  <Tmin_value>  (5) 
10.0

>  <Tmin_units>  (5) 
K

>  <Tmax_value>  (5) 
3000.0

>  <Tmax_units>  (5) 
K

>  <polynomials>  (5) 
[{"name": "polynomial1", "class": "NASAPolynomial", "Tmin_value": 10.0, "Tmin_units": "K", "Tmax_value": 938.2669973342622, "Tmax_units": "K", "coeffs": [3.9259093685858493, 0.01196019072883362, 2.5341501396672662e-05, -3.6076915984479596e-08, 1.3343593079569793e-11, -60766678.2978354, 9.013077614198304]}, {"name": "polynomial2", "class": "NASAPolynomial", "Tmin_value": 938.2669973342622, "Tmin_units": "K", "Tmax_value": 3000.0, "Tmax_units": "K", "coeffs": [3.018256313827642, 0.026185969735707432, -1.3957659922254684e-05, 3.6102113348048374e-09, -3.6546557740365153e-13, -60766963.82911419, 10.904900936167808]}]

>  <H298_value>  (5) 
-120752.24261767376

>  <H298_units>  (5) 
kcal/mol

>  <S298_value>  (5) 
71.0958225531589

>  <S298_units>  (5) 
cal/(mol*K)

>  <Cp_T_value_list>  (5) 
[17.743186752246846, 21.456463249286237, 24.97072051855182, 28.14218279724017, 33.19981703063751, 36.74605518844461, 42.18197506342012, 44.89854134522886, 46.20404806778213]

>  <Cp_T_units>  (5) 
cal/(mol*K)

>  <T_list>  (5) 
[300.0, 400.0, 500.0, 600.0, 800.0, 1000.0, 1500.0, 2000.0, 2400.0]

>  <T_units>  (5) 
K

>  <yaml_path>  (5) 
/home/calvin/Dropbox/PersonalFolders/Calvin/ZEUS_Converged/rmg_rxn_13933/output/Species/rmg_rxn_13933_r1_Csbr-CH-sbrC=O/rmg_rxn_13933_r1_Csbr-CH-sbrC=O.yml

>  <frequencies_cm1>  (5) 
[96.35753801023998, 270.0098627823999, 301.66666510759995, 649.52067347752, 695.1929928408399, 884.1930298031999, 940.261964941, 1007.2562737229199, 1061.03850274916, 1168.4793550658799, 1375.1962141538397, 1396.95769063292, 1416.5285987949198, 1458.63008579184, 1479.0112982216, 1603.31746648424, 2929.05078537812, 2997.5970328423596, 3046.4006975116, 3120.79074948316, 3151.94626188]

>  <ZPE_kJmol>  (5) 
185.7167300702324

>  <E_elec_kJmol>  (5) 
-505428.5375571994

>  <E0_minus_Eelec_plus_ZPE_kJmol>  (5) 
0.0

>  <rxn>  (5) 
rmg_rxn_13933

>  <species_type>  (5) 
r0

>  <species_folder>  (5) 
rmg_rxn_13933_r1_Csbr-CH-sbrC=O

>  <frequencies_cm1_list>  (5) 
[96.35753801023998, 270.0098627823999, 301.66666510759995, 649.52067347752, 695.1929928408399, 884.1930298031999, 940.261964941, 1007.2562737229199, 1061.03850274916, 1168.4793550658799, 1375.1962141538397, 1396.95769063292, 1416.5285987949198, 1458.63008579184, 1479.0112982216, 1603.31746648424, 2929.05078537812, 2997.5970328423596, 3046.4006975116, 3120.79074948316, 3151.94626188]

>  <E0_kJmol>  (5) 
-505243

>  <H298_kJmol>  (5) 
-505227

$$$$
