
     RDKit          3D

  3  2  0  0  0  0  0  0  0  0999 V2000
   -0.4545   -0.3300   -0.1893 N   0  0  0  0  0  0  0  0  0  1  0  0
    0.4853    0.2687    0.1699 O   0  0  0  0  0  0  0  0  0  2  0  0
   -1.3026    0.2612   -0.0763 H   0  0  0  0  0  0  0  0  0  3  0  0
  1  3  1  0
  1  2  1  0
M  END
>  <rmg_smiles>  (1) 
[NH][O]

>  <rmg_adjacency_list>  (1) 
1 O u0 p2 c0 {2,S}
2 N u0 p1 c0 {1,S} {3,S}
3 H u0 p0 c0 {2,S}


>  <multiplicity>  (1) 
1

>  <reaction>  (1) 
rmg_rxn_2895

>  <type>  (1) 
r1h

>  <role_mapnums>  (1) 
{"r1h_a": 1, "r1h_h": 3}

>  <role_mapidx>  (1) 
{"r1h_a": 0, "r1h_h": 2}

>  <ordered_mapped_smiles>  (1) 
[NH:1]([OH:2])[H:3]

>  <mol_properties>  (1) 
{"0": {"label": "donator", "atom_type": "N3s"}, "2": {"label": "d_hydrogen", "atom_type": "H0"}}

>  <level_of_theory>  (1) 
wb97xd/def2tzvp

>  <lot_method>  (1) 
wb97xd

>  <lot_basis>  (1) 
def2tzvp

>  <spin_multiplicity>  (1) 
1.0

>  <optical_isomers>  (1) 
1.0

>  <modes>  (1) 
IdealGasTranslation(mass=(31.0058, 'amu')),         NonlinearRotor(             inertia = ([0.894997, 11.6018, 12.4968

>  <frequency_value>  (1) 
unknown

>  <frequency_units>  (1) 
unknown

>  <frequency_list>  (1) 
unknown

>  <arkane_path>  (1) 
/home/calvin/Dropbox/PersonalFolders/Calvin/ATLAS_Converged/rmg_rxn_2895/output/Species/rmg_rxn_2895_r1_N=O/arkane/output.py

>  <path_exists>  (1) 
True

>  <E0_value>  (1) 
-342549.8942768721

>  <E0_units>  (1) 
kJ/mol

>  <thermo_class>  (1) 
NASA

>  <Cp0_value>  (1) 
33.257888

>  <Cp0_units>  (1) 
J/(mol*K)

>  <CpInf_value>  (1) 
58.201304

>  <CpInf_units>  (1) 
J/(mol*K)

>  <Tmin_value>  (1) 
10.0

>  <Tmin_units>  (1) 
K

>  <Tmax_value>  (1) 
3000.0

>  <Tmax_units>  (1) 
K

>  <polynomials>  (1) 
[{"name": "polynomial1", "class": "NASAPolynomial", "Tmin_value": 10.0, "Tmin_units": "K", "Tmax_value": 671.7035683460227, "Tmax_units": "K", "coeffs": [4.015397317465916, -0.0008611623196567181, 2.7881895948404837e-06, 3.1572614316441516e-09, -3.856509378623432e-12, -41199236.778277814, 3.7404406180568657]}, {"name": "polynomial2", "class": "NASAPolynomial", "Tmin_value": 671.7035683460227, "Tmin_units": "K", "Tmax_value": 3000.0, "Tmax_units": "K", "coeffs": [2.5318336423252847, 0.004599422101218795, -1.8713112431566604e-06, 3.036396350118557e-10, -1.1135938546781076e-14, -41198961.3591478, 10.874001344432743]}]

>  <H298_value>  (1) 
-81869.03163411531

>  <H298_units>  (1) 
kcal/mol

>  <S298_value>  (1) 
52.668835486753125

>  <S298_units>  (1) 
cal/(mol*K)

>  <Cp_T_value_list>  (1) 
[8.07202091900091, 8.38676819468166, 8.814233368891006, 9.30929347479349, 10.263194936258623, 11.033861153006823, 12.298671151995416, 12.90963850443875, 13.15479935344093]

>  <Cp_T_units>  (1) 
cal/(mol*K)

>  <T_list>  (1) 
[300.0, 400.0, 500.0, 600.0, 800.0, 1000.0, 1500.0, 2000.0, 2400.0]

>  <T_units>  (1) 
K

>  <yaml_path>  (1) 
/home/calvin/Dropbox/PersonalFolders/Calvin/ATLAS_Converged/rmg_rxn_2895/output/Species/rmg_rxn_2895_r1_N=O/rmg_rxn_2895_r1_N=O.yml

>  <frequencies_cm1>  (1) 
[1568.4194470879997, 1706.1986405484797, 2886.20079698132]

>  <ZPE_kJmol>  (1) 
36.84989081913098

>  <E_elec_kJmol>  (1) 
-342586.7441676912

>  <E0_minus_Eelec_plus_ZPE_kJmol>  (1) 
0.0

>  <rxn>  (1) 
rmg_rxn_2895

>  <species_type>  (1) 
r0

>  <species_folder>  (1) 
rmg_rxn_2895_r1_N=O

>  <frequencies_cm1_list>  (1) 
[1568.4194470879997, 1706.1986405484797, 2886.20079698132]

>  <E0_kJmol>  (1) 
-342550

>  <H298_kJmol>  (1) 
-342540

$$$$

     RDKit          3D

  9  8  0  0  0  0  0  0  0  0999 V2000
    2.0961    0.2973   -0.1673 H   0  0  0  0  0  0  0  0  0  1  0  0
   -1.6708   -0.9216   -0.0316 C   0  0  0  0  0  0  0  0  0  2  0  0
   -0.2144   -0.6174   -0.0993 C   0  0  0  0  0  0  0  0  0  3  0  0
    0.2186    0.5603    0.0899 N   0  0  0  0  0  0  0  0  0  4  0  0
    1.4251    0.9451    0.0599 O   0  0  0  0  0  0  0  0  0  5  0  0
   -2.2371   -0.0197    0.1941 H   0  0  0  0  0  0  0  0  0  6  0  0
   -2.0229   -1.3316   -0.9808 H   0  0  0  0  0  0  0  0  0  7  0  0
   -1.8724   -1.6679    0.7401 H   0  0  0  0  0  0  0  0  0  8  0  0
    0.4953   -1.4182   -0.3149 H   0  0  0  0  0  0  0  0  0  9  0  0
  1  5  1  0
  2  7  1  0
  2  8  1  0
  2  6  1  0
  2  3  1  0
  3  4  1  0
  3  9  1  0
  4  5  1  0
M  END
>  <rmg_smiles>  (2) 
C[CH][N]O

>  <rmg_adjacency_list>  (2) 
1 O u0 p2 c0 {2,S} {9,S}
2 N u0 p1 c0 {1,S} {4,S}
3 C u0 p0 c0 {4,S} {5,S} {6,S} {7,S}
4 C u0 p0 c0 {2,S} {3,S} {8,S}
5 H u0 p0 c0 {3,S}
6 H u0 p0 c0 {3,S}
7 H u0 p0 c0 {3,S}
8 H u0 p0 c0 {4,S}
9 H u0 p0 c0 {1,S}


>  <multiplicity>  (2) 
1

>  <reaction>  (2) 
rmg_rxn_2895

>  <type>  (2) 
r2h

>  <role_mapnums>  (2) 
{"r2h_a": 5, "r2h_h": 1}

>  <role_mapidx>  (2) 
{"r2h_a": 4, "r2h_h": 0}

>  <ordered_mapped_smiles>  (2) 
[H:1][O:5][NH:4][CH:3]([C:2]([H:6])([H:7])[H:8])[H:9]

>  <mol_properties>  (2) 
{"0": {"label": "a_hydrogen", "atom_type": "H0"}, "4": {"label": "acceptor", "atom_type": "O2s"}}

>  <level_of_theory>  (2) 
wb97xd/def2tzvp

>  <lot_method>  (2) 
wb97xd

>  <lot_basis>  (2) 
def2tzvp

>  <spin_multiplicity>  (2) 
1.0

>  <optical_isomers>  (2) 
1.0

>  <modes>  (2) 
IdealGasTranslation(mass=(59.0371, 'amu')),         NonlinearRotor(             inertia = ([10.7603, 118.091, 125.733

>  <frequency_value>  (2) 
unknown

>  <frequency_units>  (2) 
unknown

>  <frequency_list>  (2) 
unknown

>  <arkane_path>  (2) 
/home/calvin/Dropbox/PersonalFolders/Calvin/ATLAS_Converged/rmg_rxn_2895/output/Species/rmg_rxn_2895_p2_CC=NO/arkane/output.py

>  <path_exists>  (2) 
True

>  <E0_value>  (2) 
-548937.8541984448

>  <E0_units>  (2) 
kJ/mol

>  <thermo_class>  (2) 
NASA

>  <Cp0_value>  (2) 
33.257888

>  <Cp0_units>  (2) 
J/(mol*K)

>  <CpInf_value>  (2) 
207.8618

>  <CpInf_units>  (2) 
J/(mol*K)

>  <Tmin_value>  (2) 
10.0

>  <Tmin_units>  (2) 
K

>  <Tmax_value>  (2) 
3000.0

>  <Tmax_units>  (2) 
K

>  <polynomials>  (2) 
[{"name": "polynomial1", "class": "NASAPolynomial", "Tmin_value": 10.0, "Tmin_units": "K", "Tmax_value": 335.1910179037978, "Tmax_units": "K", "coeffs": [3.936344167606981, 0.004744355844830638, 9.160790844518127e-05, -2.1061910314248552e-07, 1.6006484261890122e-10, -66021973.16953679, 8.120493921530757]}, {"name": "polynomial2", "class": "NASAPolynomial", "Tmin_value": 335.1910179037978, "Tmin_units": "K", "Tmax_value": 3000.0, "Tmax_units": "K", "coeffs": [1.9092598311329627, 0.02893435817357441, -1.6642930351421066e-05, 4.680937669481693e-09, -5.139624250773394e-13, -66021837.27634088, 15.684306465260459]}]

>  <H298_value>  (2) 
-131195.6144386416

>  <H298_units>  (2) 
kcal/mol

>  <S298_value>  (2) 
68.52934918863554

>  <S298_units>  (2) 
cal/(mol*K)

>  <Cp_T_value_list>  (2) 
[18.310462740749653, 22.071021910178956, 25.374045411772553, 28.263825064535727, 32.970522087113224, 36.50033911765962, 41.85143067881395, 44.573751899405494, 45.995252148342956]

>  <Cp_T_units>  (2) 
cal/(mol*K)

>  <T_list>  (2) 
[300.0, 400.0, 500.0, 600.0, 800.0, 1000.0, 1500.0, 2000.0, 2400.0]

>  <T_units>  (2) 
K

>  <yaml_path>  (2) 
/home/calvin/Dropbox/PersonalFolders/Calvin/ATLAS_Converged/rmg_rxn_2895/output/Species/rmg_rxn_2895_p2_CC=NO/rmg_rxn_2895_p2_CC=NO.yml

>  <frequencies_cm1>  (2) 
[197.06187772804, 291.09837470012, 328.62644947392, 407.23283043195994, 570.83188869564, 914.3734302846, 916.92108183832, 1038.1439736922798, 1079.0094033316, 1148.38655601956, 1286.64643845244, 1390.76366987428, 1438.44801593636, 1464.57689507896, 1470.4000986303201, 1752.33104792824, 3016.9275965181596, 3076.79397453792, 3080.3236049924, 3121.5941867655997, 3848.4577159022797]

>  <ZPE_kJmol>  (2) 
190.43926148497908

>  <E_elec_kJmol>  (2) 
-549128.2934599298

>  <E0_minus_Eelec_plus_ZPE_kJmol>  (2) 
0.0

>  <rxn>  (2) 
rmg_rxn_2895

>  <species_type>  (2) 
p1

>  <species_folder>  (2) 
rmg_rxn_2895_p2_CC=NO

>  <frequencies_cm1_list>  (2) 
[197.06187772804, 291.09837470012, 328.62644947392, 407.23283043195994, 570.83188869564, 914.3734302846, 916.92108183832, 1038.1439736922798, 1079.0094033316, 1148.38655601956, 1286.64643845244, 1390.76366987428, 1438.44801593636, 1464.57689507896, 1470.4000986303201, 1752.33104792824, 3016.9275965181596, 3076.79397453792, 3080.3236049924, 3121.5941867655997, 3848.4577159022797]

>  <E0_kJmol>  (2) 
-548938

>  <H298_kJmol>  (2) 
-548922

$$$$

     RDKit          3D

 11  9  0  0  0  0  0  0  0  0999 V2000
    2.1396   -0.5015   -0.3468 N   0  0  0  0  0  0  0  0  0  1  0  0
    3.0793    0.0972    0.0124 O   0  0  0  0  0  0  0  0  0  2  0  0
    1.2064    0.1489   -0.2224 H   0  0  0  0  0  0  0  0  0  3  0  0
   -2.8926   -0.7494    0.0259 C   0  0  0  0  0  0  0  0  0  4  0  0
   -1.4362   -0.4452   -0.0418 C   0  0  0  0  0  0  0  0  0  5  0  0
   -1.0032    0.7325    0.1473 N   0  0  0  0  0  0  0  0  0  6  0  0
    0.2033    1.1173    0.1173 O   0  0  0  0  0  1  0  0  0  7  0  0
   -3.4589    0.1524    0.2516 H   0  0  0  0  0  0  0  0  0  8  0  0
   -3.2448   -1.1594   -0.9233 H   0  0  0  0  0  0  0  0  0  9  0  0
   -3.0943   -1.4958    0.7975 H   0  0  0  0  0  0  0  0  0 10  0  0
   -0.7265   -1.2460   -0.2575 H   0  0  0  0  0  0  0  0  0 11  0  0
  1  2  1  0
  1  3  1  0
  4  8  1  0
  4  5  1  0
  4  9  1  0
  4 10  1  0
  5 11  1  0
  5  6  1  0
  6  7  1  0
M  RAD  1   7   2
M  END
>  <rmg_smiles>  (3) 
C[CH][N][O].[NH][O]

>  <rmg_adjacency_list>  (3) 
multiplicity 2
1  O u1 p2 c0 {3,S}
2  O u0 p2 c0 {4,S}
3  N u0 p1 c0 {1,S} {6,S}
4  N u0 p1 c0 {2,S} {11,S}
5  C u0 p0 c0 {6,S} {7,S} {8,S} {9,S}
6  C u0 p0 c0 {3,S} {5,S} {10,S}
7  H u0 p0 c0 {5,S}
8  H u0 p0 c0 {5,S}
9  H u0 p0 c0 {5,S}
10 H u0 p0 c0 {6,S}
11 H u0 p0 c0 {4,S}


>  <multiplicity>  (3) 
2

>  <reaction>  (3) 
rmg_rxn_2895

>  <type>  (3) 
ts

>  <role_mapnums>  (3) 
{"*2": 3, "*1": 1, "*3": 7, "*0": 2, "*4": 6}

>  <role_mapidx>  (3) 
{"*2": 2, "*1": 0, "*3": 6, "*0": 1, "*4": 5}

>  <ordered_mapped_smiles>  (3) 
[NH:1]([OH:2])[H:3].[C:4]([CH:5]([NH:6][O:7])[H:11])([H:8])([H:9])[H:10]

>  <mol_properties>  (3) 
{"0": {"label": "*1", "atom_type": "N3s"}, "1": {"label": "*0", "atom_type": "O2s"}, "2": {"label": "*2", "atom_type": "H0"}, "5": {"label": "*4", "atom_type": "N3s"}, "6": {"label": "*3", "atom_type": "O2s"}}

>  <level_of_theory>  (3) 
wb97xd/def2tzvp

>  <lot_method>  (3) 
wb97xd

>  <lot_basis>  (3) 
def2tzvp

>  <spin_multiplicity>  (3) 
2.0

>  <optical_isomers>  (3) 
2.0

>  <modes>  (3) 
IdealGasTranslation(mass=(89.0351, 'amu')),         NonlinearRotor(             inertia = ([46.9393, 393.953, 436.281

>  <frequency_value>  (3) 
-1224.99

>  <frequency_units>  (3) 
cm^-1

>  <frequency_list>  (3) 
unknown

>  <arkane_path>  (3) 
/home/calvin/Dropbox/PersonalFolders/Calvin/ATLAS_Converged/rmg_rxn_2895/output/rxns/TS0/arkane/output.py

>  <path_exists>  (3) 
True

>  <E0_value>  (3) 
-889835.0

>  <E0_units>  (3) 
kJ/mol

>  <thermo_class>  (3) 
unknown

>  <Cp0_value>  (3) 
unknown

>  <Cp0_units>  (3) 
unknown

>  <CpInf_value>  (3) 
unknown

>  <CpInf_units>  (3) 
unknown

>  <Tmin_value>  (3) 
unknown

>  <Tmin_units>  (3) 
unknown

>  <Tmax_value>  (3) 
unknown

>  <Tmax_units>  (3) 
unknown

>  <polynomials>  (3) 
unknown

>  <H298_value>  (3) 
unknown

>  <H298_units>  (3) 
unknown

>  <S298_value>  (3) 
unknown

>  <S298_units>  (3) 
unknown

>  <Cp_T_value_list>  (3) 
unknown

>  <Cp_T_units>  (3) 
unknown

>  <T_list>  (3) 
unknown

>  <T_units>  (3) 
unknown

>  <yaml_path>  (3) 
unknown

>  <frequencies_cm1>  (3) 
unknown

>  <ZPE_kJmol>  (3) 
unknown

>  <E_elec_kJmol>  (3) 
unknown

>  <E0_minus_Eelec_plus_ZPE_kJmol>  (3) 
unknown

>  <rxn>  (3) 
unknown

>  <species_type>  (3) 
unknown

>  <species_folder>  (3) 
unknown

>  <frequencies_cm1_list>  (3) 
[]

>  <ts_imag_freq_cm1>  (3) 
-1239.8698

>  <ts_freq_out_path>  (3) 
/home/calvin/Dropbox/PersonalFolders/Calvin/ATLAS_Converged/rmg_rxn_2895/output/rxns/TS0/geometry/freq.out

>  <E0_kJmol>  (3) 
-889835

>  <H298_kJmol>  (3) 
unknown

$$$$

     RDKit          3D

  2  1  0  0  0  0  0  0  0  0999 V2000
    0.0000    0.0000    0.5699 N   0  0  0  0  0  2  0  0  0  1  0  0
    0.0000    0.0000   -0.5699 O   0  0  0  0  0  0  0  0  0  2  0  0
  1  2  1  0
M  RAD  1   1   2
M  END
>  <rmg_smiles>  (4) 
[N]=O

>  <rmg_adjacency_list>  (4) 
multiplicity 2
1 N u1 p2 c0 {2,S}
2 O u0 p2 c0 {1,S}


>  <multiplicity>  (4) 
2

>  <reaction>  (4) 
rmg_rxn_2895

>  <type>  (4) 
r1

>  <role_mapnums>  (4) 
{}

>  <role_mapidx>  (4) 
{}

>  <ordered_mapped_smiles>  (4) 
[NH:1][OH:2]

>  <level_of_theory>  (4) 
wb97xd/def2tzvp

>  <lot_method>  (4) 
wb97xd

>  <lot_basis>  (4) 
def2tzvp

>  <spin_multiplicity>  (4) 
2.0

>  <optical_isomers>  (4) 
1.0

>  <modes>  (4) 
IdealGasTranslation(mass=(29.998, 'amu')),         LinearRotor(inertia=(9.70079, 'amu*angstrom^2'), symmetry=1),         HarmonicOscillator(frequencies=([2034.32

>  <frequency_value>  (4) 
unknown

>  <frequency_units>  (4) 
unknown

>  <frequency_list>  (4) 
unknown

>  <arkane_path>  (4) 
/home/calvin/Dropbox/PersonalFolders/Calvin/ATLAS_Converged/rmg_rxn_2895/output/Species/rmg_rxn_2895_p1_sbr-N-sbr=O/arkane/output.py

>  <path_exists>  (4) 
True

>  <E0_value>  (4) 
-341044.6317811924

>  <E0_units>  (4) 
kJ/mol

>  <thermo_class>  (4) 
NASA

>  <Cp0_value>  (4) 
29.100652

>  <Cp0_units>  (4) 
J/(mol*K)

>  <CpInf_value>  (4) 
37.415124

>  <CpInf_units>  (4) 
J/(mol*K)

>  <Tmin_value>  (4) 
10.0

>  <Tmin_units>  (4) 
K

>  <Tmax_value>  (4) 
3000.0

>  <Tmax_units>  (4) 
K

>  <polynomials>  (4) 
[{"name": "polynomial1", "class": "NASAPolynomial", "Tmin_value": 10.0, "Tmin_units": "K", "Tmax_value": 720.3138643760603, "Tmax_units": "K", "coeffs": [3.505451677336064, -0.00028953210299893214, 6.077025119860231e-07, 1.5112348759071728e-09, -1.3872630628454572e-12, -41018195.02857665, 4.731882697322634]}, {"name": "polynomial2", "class": "NASAPolynomial", "Tmin_value": 720.3138643760603, "Tmin_units": "K", "Tmax_value": 3000.0, "Tmax_units": "K", "coeffs": [2.922952781623477, 0.001616659587859859, -5.952907480043382e-07, 6.416589639706871e-11, 3.635908475569635e-15, -41018076.64733901, 7.590238585995561]}]

>  <H298_value>  (4) 
-81509.5582027967

>  <H298_units>  (4) 
kcal/mol

>  <S298_value>  (4) 
48.9927224470057

>  <S298_units>  (4) 
cal/(mol*K)

>  <Cp_T_value_list>  (4) 
[6.96088983576959, 7.0507603601981605, 7.18337725411879, 7.34698612783888, 7.689766968620922, 7.972917755483923, 8.432720061896857, 8.637612984744813, 8.707384760249072]

>  <Cp_T_units>  (4) 
cal/(mol*K)

>  <T_list>  (4) 
[300.0, 400.0, 500.0, 600.0, 800.0, 1000.0, 1500.0, 2000.0, 2400.0]

>  <T_units>  (4) 
K

>  <yaml_path>  (4) 
/home/calvin/Dropbox/PersonalFolders/Calvin/ATLAS_Converged/rmg_rxn_2895/output/Species/rmg_rxn_2895_p1_sbr-N-sbr=O/rmg_rxn_2895_p1_sbr-N-sbr=O.yml

>  <frequencies_cm1>  (4) 
[2009.90480029612]

>  <ZPE_kJmol>  (4) 
12.021903879155191

>  <E_elec_kJmol>  (4) 
-341056.6536850716

>  <E0_minus_Eelec_plus_ZPE_kJmol>  (4) 
0.0

>  <rxn>  (4) 
rmg_rxn_2895

>  <species_type>  (4) 
p0

>  <species_folder>  (4) 
rmg_rxn_2895_p1_sbr-N-sbr=O

>  <frequencies_cm1_list>  (4) 
[2009.90480029612]

>  <E0_kJmol>  (4) 
-341045

>  <H298_kJmol>  (4) 
-341036

$$$$

     RDKit          3D

  8  7  0  0  0  0  0  0  0  0999 V2000
   -0.9728    0.1768    0.1542 C   0  0  0  0  0  0  0  0  0  1  0  0
    0.4518   -0.2348    0.0047 C   0  0  0  0  0  0  0  0  0  2  0  0
    1.3116    0.0208    0.9062 N   0  0  0  0  0  0  0  0  0  3  0  0
    2.5018   -0.1901    1.0428 O   0  0  0  0  0  1  0  0  0  4  0  0
   -1.2701    0.8423   -0.6593 H   0  0  0  0  0  0  0  0  0  5  0  0
   -1.6318   -0.6936    0.1212 H   0  0  0  0  0  0  0  0  0  6  0  0
   -1.1258    0.6936    1.1003 H   0  0  0  0  0  0  0  0  0  7  0  0
    0.7882   -0.7655   -0.8838 H   0  0  0  0  0  0  0  0  0  8  0  0
  1  5  1  0
  1  7  1  0
  1  6  1  0
  1  2  1  0
  2  3  1  0
  2  8  1  0
  3  4  1  0
M  RAD  1   4   2
M  END
>  <rmg_smiles>  (5) 
C[CH][N][O]

>  <rmg_adjacency_list>  (5) 
multiplicity 2
1 O u1 p2 c0 {2,S}
2 N u0 p1 c0 {1,S} {4,S}
3 C u0 p0 c0 {4,S} {5,S} {6,S} {7,S}
4 C u0 p0 c0 {2,S} {3,S} {8,S}
5 H u0 p0 c0 {3,S}
6 H u0 p0 c0 {3,S}
7 H u0 p0 c0 {3,S}
8 H u0 p0 c0 {4,S}


>  <multiplicity>  (5) 
2

>  <reaction>  (5) 
rmg_rxn_2895

>  <type>  (5) 
r2

>  <role_mapnums>  (5) 
{}

>  <role_mapidx>  (5) 
{}

>  <ordered_mapped_smiles>  (5) 
[C:1]([CH:2]([NH:3][O:4])[H:8])([H:5])([H:6])[H:7]

>  <level_of_theory>  (5) 
wb97xd/def2tzvp

>  <lot_method>  (5) 
wb97xd

>  <lot_basis>  (5) 
def2tzvp

>  <spin_multiplicity>  (5) 
2.0

>  <optical_isomers>  (5) 
1.0

>  <modes>  (5) 
IdealGasTranslation(mass=(58.0293, 'amu')),         NonlinearRotor(             inertia = ([9.31113, 114.15, 120.338

>  <frequency_value>  (5) 
unknown

>  <frequency_units>  (5) 
unknown

>  <frequency_list>  (5) 
unknown

>  <arkane_path>  (5) 
/home/calvin/Dropbox/PersonalFolders/Calvin/ATLAS_Converged/rmg_rxn_2895/output/Species/rmg_rxn_2895_r2_CC=Nsbr-O-sbr/arkane/output.py

>  <path_exists>  (5) 
True

>  <E0_value>  (5) 
-547291.9822369756

>  <E0_units>  (5) 
kJ/mol

>  <thermo_class>  (5) 
NASA

>  <Cp0_value>  (5) 
33.257888

>  <Cp0_units>  (5) 
J/(mol*K)

>  <CpInf_value>  (5) 
182.918384

>  <CpInf_units>  (5) 
J/(mol*K)

>  <Tmin_value>  (5) 
10.0

>  <Tmin_units>  (5) 
K

>  <Tmax_value>  (5) 
3000.0

>  <Tmax_units>  (5) 
K

>  <polynomials>  (5) 
[{"name": "polynomial1", "class": "NASAPolynomial", "Tmin_value": 10.0, "Tmin_units": "K", "Tmax_value": 448.469821583942, "Tmax_units": "K", "coeffs": [3.8887722230996813, 0.008399169692485739, 4.23423230637367e-05, -8.042531461118158e-08, 4.6620175661053446e-11, -65824018.56271867, 8.787674089328345]}, {"name": "polynomial2", "class": "NASAPolynomial", "Tmin_value": 448.469821583942, "Tmin_units": "K", "Tmax_value": 3000.0, "Tmax_units": "K", "coeffs": [1.9857514593635577, 0.025372613622198854, -1.4428825534244759e-05, 3.966995228918133e-09, -4.24376034853994e-13, -65823847.87311471, 16.442591867910245]}]

>  <H298_value>  (5) 
-130802.40292482237

>  <H298_units>  (5) 
kcal/mol

>  <S298_value>  (5) 
68.97171532665904

>  <S298_units>  (5) 
cal/(mol*K)

>  <Cp_T_value_list>  (5) 
[16.743153000165332, 20.010112573021154, 22.92084276433073, 25.469656650185197, 29.622633813984088, 32.733580935653485, 37.39926541997259, 39.66786469099458, 40.797255640626396]

>  <Cp_T_units>  (5) 
cal/(mol*K)

>  <T_list>  (5) 
[300.0, 400.0, 500.0, 600.0, 800.0, 1000.0, 1500.0, 2000.0, 2400.0]

>  <T_units>  (5) 
K

>  <yaml_path>  (5) 
/home/calvin/Dropbox/PersonalFolders/Calvin/ATLAS_Converged/rmg_rxn_2895/output/Species/rmg_rxn_2895_r2_CC=Nsbr-O-sbr/rmg_rxn_2895_r2_CC=Nsbr-O-sbr.yml

>  <frequencies_cm1>  (5) 
[167.29349636583999, 305.41603909232, 336.48228068, 536.4488931984, 789.99859216876, 920.0661611148798, 1055.0848264767199, 1131.0542850718798, 1256.94672694344, 1389.69928714968, 1433.0368315041999, 1463.78719176716, 1488.27486141828, 1754.1988679352798, 3017.2297438722394, 3076.07294107932, 3099.7159715360795, 3119.71263278792]

>  <ZPE_kJmol>  (5) 
157.55134027947926

>  <E_elec_kJmol>  (5) 
-547449.5335772551

>  <E0_minus_Eelec_plus_ZPE_kJmol>  (5) 
0.0

>  <rxn>  (5) 
rmg_rxn_2895

>  <species_type>  (5) 
r1

>  <species_folder>  (5) 
rmg_rxn_2895_r2_CC=Nsbr-O-sbr

>  <frequencies_cm1_list>  (5) 
[167.29349636583999, 305.41603909232, 336.48228068, 536.4488931984, 789.99859216876, 920.0661611148798, 1055.0848264767199, 1131.0542850718798, 1256.94672694344, 1389.69928714968, 1433.0368315041999, 1463.78719176716, 1488.27486141828, 1754.1988679352798, 3017.2297438722394, 3076.07294107932, 3099.7159715360795, 3119.71263278792]

>  <E0_kJmol>  (5) 
-547292

>  <H298_kJmol>  (5) 
-547277

$$$$
