
     RDKit          3D

 14 14  0  0  0  0  0  0  0  0999 V2000
    0.8951   -0.8431   -0.7793 C   0  0  0  0  0  0  0  0  0  1  0  0
    0.7170   -0.9777    0.7107 C   0  0  0  0  0  0  0  0  0  2  0  0
   -0.5356   -0.5250    1.1365 O   0  0  0  0  0  0  0  0  0  3  0  0
   -0.7872    0.7892    0.7098 C   0  0  0  0  0  0  0  0  0  4  0  0
   -0.7483    0.9206   -0.6731 O   0  0  0  0  0  0  0  0  0  5  0  0
    0.5263    0.5814   -1.1879 C   0  0  0  0  0  0  0  0  0  6  0  0
    1.9252   -1.0673   -1.0635 H   0  0  0  0  0  0  0  0  0  7  0  0
    0.2331   -1.5488   -1.2849 H   0  0  0  0  0  0  0  0  0  8  0  0
    0.7073   -2.0343    1.0089 H   0  0  0  0  0  0  0  0  0  9  0  0
    1.5268   -0.5350    1.3055 H   0  0  0  0  0  0  0  0  0 10  0  0
   -0.0463    1.4650    1.1719 H   0  0  0  0  0  0  0  0  0 11  0  0
   -1.7932    1.0440    1.0360 H   0  0  0  0  0  0  0  0  0 12  0  0
    1.2749    1.2943   -0.8115 H   0  0  0  0  0  0  0  0  0 13  0  0
    0.4638    0.6868   -2.2703 H   0  0  0  0  0  0  0  0  0 14  0  0
  1  8  1  0
  1  7  1  0
  1  6  1  0
  1  2  1  0
  2 10  1  0
  2  9  1  0
  2  3  1  0
  3  4  1  0
  4 11  1  0
  4 12  1  0
  4  5  1  0
  5  6  1  0
  6 14  1  0
  6 13  1  0
M  END
>  <rmg_smiles>  (1) 
C1COCOC1

>  <rmg_adjacency_list>  (1) 
1  O u0 p2 c0 {4,S} {6,S}
2  O u0 p2 c0 {5,S} {6,S}
3  C u0 p0 c0 {4,S} {5,S} {7,S} {8,S}
4  C u0 p0 c0 {1,S} {3,S} {9,S} {10,S}
5  C u0 p0 c0 {2,S} {3,S} {11,S} {12,S}
6  C u0 p0 c0 {1,S} {2,S} {13,S} {14,S}
7  H u0 p0 c0 {3,S}
8  H u0 p0 c0 {3,S}
9  H u0 p0 c0 {4,S}
10 H u0 p0 c0 {4,S}
11 H u0 p0 c0 {5,S}
12 H u0 p0 c0 {5,S}
13 H u0 p0 c0 {6,S}
14 H u0 p0 c0 {6,S}


>  <multiplicity>  (1) 
1

>  <reaction>  (1) 
rmg_rxn_255

>  <type>  (1) 
r1h

>  <role_mapnums>  (1) 
{"r1h_a": 2, "r1h_h": 9}

>  <role_mapidx>  (1) 
{"r1h_a": 1, "r1h_h": 8}

>  <ordered_mapped_smiles>  (1) 
[C:1]1([H:7])([H:8])[C:2]([H:9])([H:10])[O:3][C:4]([H:11])([H:12])[O:5][C:6]1([H:13])[H:14]

>  <mol_properties>  (1) 
{"1": {"label": "donator", "atom_type": "Cs"}, "8": {"label": "d_hydrogen", "atom_type": "H0"}}

>  <level_of_theory>  (1) 
wb97xd/def2tzvp

>  <lot_method>  (1) 
wb97xd

>  <lot_basis>  (1) 
def2tzvp

>  <spin_multiplicity>  (1) 
1.0

>  <optical_isomers>  (1) 
1.0

>  <modes>  (1) 
IdealGasTranslation(mass=(88.0524, 'amu')),         NonlinearRotor(             inertia = ([100.123, 103.988, 181.806

>  <frequency_value>  (1) 
unknown

>  <frequency_units>  (1) 
unknown

>  <frequency_list>  (1) 
unknown

>  <arkane_path>  (1) 
/home/calvin/Dropbox/PersonalFolders/Calvin/ATLAS_Converged/rmg_rxn_255/output/Species/rmg_rxn_255_r1_C1COCOC1/arkane/output.py

>  <path_exists>  (1) 
True

>  <E0_value>  (1) 
-807534.4862541369

>  <E0_units>  (1) 
kJ/mol

>  <thermo_class>  (1) 
NASA

>  <Cp0_value>  (1) 
33.257888

>  <Cp0_units>  (1) 
J/(mol*K)

>  <CpInf_value>  (1) 
332.57888

>  <CpInf_units>  (1) 
J/(mol*K)

>  <Tmin_value>  (1) 
10.0

>  <Tmin_units>  (1) 
K

>  <Tmax_value>  (1) 
3000.0

>  <Tmax_units>  (1) 
K

>  <polynomials>  (1) 
[{"name": "polynomial1", "class": "NASAPolynomial", "Tmin_value": 10.0, "Tmin_units": "K", "Tmax_value": 635.616554573151, "Tmax_units": "K", "coeffs": [4.089858497697602, -0.00720848048360332, 0.00016188875003168496, -2.401508213073996e-07, 1.1440937882219611e-10, -97123964.81365098, 9.940070949440356]}, {"name": "polynomial2", "class": "NASAPolynomial", "Tmin_value": 635.616554573151, "Tmin_units": "K", "Tmax_value": 3000.0, "Tmax_units": "K", "coeffs": [-3.6233751272420895, 0.05886750722676344, -3.5427870905530145e-05, 1.0209382893823142e-08, -1.1338653155444558e-12, -97123338.5127768, 40.87012283464024]}]

>  <H298_value>  (1) 
-193001.58453999052

>  <H298_units>  (1) 
kcal/mol

>  <S298_value>  (1) 
72.30963326519604

>  <S298_units>  (1) 
cal/(mol*K)

>  <Cp_T_value_list>  (1) 
[21.739931113059615, 29.14813400113705, 35.94765005011551, 41.73053828287379, 50.792135881792035, 57.413930600437965, 66.93239440365458, 71.40703402864166, 73.74460734469625]

>  <Cp_T_units>  (1) 
cal/(mol*K)

>  <T_list>  (1) 
[300.0, 400.0, 500.0, 600.0, 800.0, 1000.0, 1500.0, 2000.0, 2400.0]

>  <T_units>  (1) 
K

>  <yaml_path>  (1) 
/home/calvin/Dropbox/PersonalFolders/Calvin/ATLAS_Converged/rmg_rxn_255/output/Species/rmg_rxn_255_r1_C1COCOC1/rmg_rxn_255_r1_C1COCOC1.yml

>  <frequencies_cm1>  (1) 
[264.26219606955993, 269.44676998615995, 439.22611503784, 466.70779028847994, 494.62208561427997, 656.81341188736, 851.50617968, 900.41284912904, 919.12538412604, 926.80954069912, 1013.8966485273598, 1037.6289497932798, 1094.57685905204, 1112.95291176836, 1188.75069573052, 1216.28730686372, 1226.8487302858798, 1252.366447735, 1315.55644664964, 1328.3633742714399, 1363.72148168412, 1380.93701388136, 1404.8272558096398, 1432.53554157584, 1460.95799381532, 1489.42164796672, 1490.0946125280798, 1506.58911126672, 2894.63345495428, 2944.5289702893997, 2950.530715459079, 3031.06671929204, 3080.8454958767197, 3088.2893079635996, 3091.87387430064, 3110.9160245929997]

>  <ZPE_kJmol>  (1) 
321.1850391352071

>  <E_elec_kJmol>  (1) 
-807855.671293272

>  <E0_minus_Eelec_plus_ZPE_kJmol>  (1) 
0.0

>  <rxn>  (1) 
rmg_rxn_255

>  <species_type>  (1) 
r0

>  <species_folder>  (1) 
rmg_rxn_255_r1_C1COCOC1

>  <frequencies_cm1_list>  (1) 
[264.26219606955993, 269.44676998615995, 439.22611503784, 466.70779028847994, 494.62208561427997, 656.81341188736, 851.50617968, 900.41284912904, 919.12538412604, 926.80954069912, 1013.8966485273598, 1037.6289497932798, 1094.57685905204, 1112.95291176836, 1188.75069573052, 1216.28730686372, 1226.8487302858798, 1252.366447735, 1315.55644664964, 1328.3633742714399, 1363.72148168412, 1380.93701388136, 1404.8272558096398, 1432.53554157584, 1460.95799381532, 1489.42164796672, 1490.0946125280798, 1506.58911126672, 2894.63345495428, 2944.5289702893997, 2950.530715459079, 3031.06671929204, 3080.8454958767197, 3088.2893079635996, 3091.87387430064, 3110.9160245929997]

>  <E0_kJmol>  (1) 
-807534

>  <H298_kJmol>  (1) 
-807519

$$$$

     RDKit          3D

 15 14  0  0  0  0  0  0  0  0999 V2000
    1.7956    1.5079    0.7449 H   0  0  0  0  0  0  0  0  0  1  0  0
    1.6512    0.5237    1.1872 C   0  0  0  0  0  0  0  0  0  2  0  0
    1.3357   -0.5090    0.1416 C   0  0  0  0  0  0  0  0  0  3  0  0
    0.0660   -0.0596   -1.0786 S   0  0  0  0  0  0  0  0  0  4  0  0
   -1.2750    0.5534   -0.0298 C   0  0  0  0  0  0  0  0  0  5  0  0
   -1.8507   -0.4740    0.9304 C   0  0  0  0  0  0  0  0  0  6  0  0
    0.8437    0.7298    1.8869 H   0  0  0  0  0  0  0  0  0  7  0  0
    2.5897    0.3415    1.7090 H   0  0  0  0  0  0  0  0  0  8  0  0
    1.0442   -1.4503    0.6184 H   0  0  0  0  0  0  0  0  0  9  0  0
    2.2163   -0.7264   -0.4652 H   0  0  0  0  0  0  0  0  0 10  0  0
   -0.9322    1.4476    0.4928 H   0  0  0  0  0  0  0  0  0 11  0  0
   -2.0338    0.8776   -0.7440 H   0  0  0  0  0  0  0  0  0 12  0  0
   -1.1053   -0.8026    1.6570 H   0  0  0  0  0  0  0  0  0 13  0  0
   -2.6857   -0.0440    1.4882 H   0  0  0  0  0  0  0  0  0 14  0  0
   -2.2091   -1.3538    0.3945 H   0  0  0  0  0  0  0  0  0 15  0  0
  1  2  1  0
  2  8  1  0
  2  7  1  0
  2  3  1  0
  3  9  1  0
  3 10  1  0
  3  4  1  0
  4  5  1  0
  5 11  1  0
  5 12  1  0
  5  6  1  0
  6 15  1  0
  6 14  1  0
  6 13  1  0
M  END
>  <rmg_smiles>  (2) 
CCSCC

>  <rmg_adjacency_list>  (2) 
1  S u0 p2 c0 {2,S} {3,S}
2  C u0 p0 c0 {1,S} {4,S} {6,S} {7,S}
3  C u0 p0 c0 {1,S} {5,S} {8,S} {9,S}
4  C u0 p0 c0 {2,S} {10,S} {11,S} {12,S}
5  C u0 p0 c0 {3,S} {13,S} {14,S} {15,S}
6  H u0 p0 c0 {2,S}
7  H u0 p0 c0 {2,S}
8  H u0 p0 c0 {3,S}
9  H u0 p0 c0 {3,S}
10 H u0 p0 c0 {4,S}
11 H u0 p0 c0 {4,S}
12 H u0 p0 c0 {4,S}
13 H u0 p0 c0 {5,S}
14 H u0 p0 c0 {5,S}
15 H u0 p0 c0 {5,S}


>  <multiplicity>  (2) 
1

>  <reaction>  (2) 
rmg_rxn_255

>  <type>  (2) 
r2h

>  <role_mapnums>  (2) 
{"r2h_a": 2, "r2h_h": 1}

>  <role_mapidx>  (2) 
{"r2h_a": 1, "r2h_h": 0}

>  <ordered_mapped_smiles>  (2) 
[H:1][C:2]([C:3]([S:4][C:5]([C:6]([H:13])([H:14])[H:15])([H:11])[H:12])([H:9])[H:10])([H:7])[H:8]

>  <mol_properties>  (2) 
{"0": {"label": "a_hydrogen", "atom_type": "H0"}, "1": {"label": "acceptor", "atom_type": "Cs"}}

>  <level_of_theory>  (2) 
wb97xd/def2tzvp

>  <lot_method>  (2) 
wb97xd

>  <lot_basis>  (2) 
def2tzvp

>  <spin_multiplicity>  (2) 
1.0

>  <optical_isomers>  (2) 
2.0

>  <modes>  (2) 
IdealGasTranslation(mass=(90.0503, 'amu')),         NonlinearRotor(             inertia = ([97.9259, 182.785, 231.685

>  <frequency_value>  (2) 
unknown

>  <frequency_units>  (2) 
unknown

>  <frequency_list>  (2) 
unknown

>  <arkane_path>  (2) 
/home/calvin/Dropbox/PersonalFolders/Calvin/ATLAS_Converged/rmg_rxn_255/output/Species/rmg_rxn_255_p2_CCSCC/arkane/output.py

>  <path_exists>  (2) 
True

>  <E0_value>  (2) 
-1461176.7123028408

>  <E0_units>  (2) 
kJ/mol

>  <thermo_class>  (2) 
NASA

>  <Cp0_value>  (2) 
33.257888

>  <Cp0_units>  (2) 
J/(mol*K)

>  <CpInf_value>  (2) 
357.522296

>  <CpInf_units>  (2) 
J/(mol*K)

>  <Tmin_value>  (2) 
10.0

>  <Tmin_units>  (2) 
K

>  <Tmax_value>  (2) 
3000.0

>  <Tmax_units>  (2) 
K

>  <polynomials>  (2) 
[{"name": "polynomial1", "class": "NASAPolynomial", "Tmin_value": 10.0, "Tmin_units": "K", "Tmax_value": 1062.740332266501, "Tmax_units": "K", "coeffs": [3.7240768769611408, 0.031177750271788266, 1.590200165997747e-05, -3.1138888238628924e-08, 1.1081299545578661e-11, -175738967.30653694, 10.691637972640313]}, {"name": "polynomial2", "class": "NASAPolynomial", "Tmin_value": 1062.740332266501, "Tmin_units": "K", "Tmax_value": 3000.0, "Tmax_units": "K", "coeffs": [4.272256190616837, 0.04355880957526612, -2.1960566897444118e-05, 5.4018330156847166e-09, -5.231130586129144e-13, -175739899.50439465, 4.175990433518907]}]

>  <H298_value>  (2) 
-349224.4948454063

>  <H298_units>  (2) 
kcal/mol

>  <S298_value>  (2) 
82.77165630085062

>  <S298_units>  (2) 
cal/(mol*K)

>  <Cp_T_value_list>  (2) 
[27.339173580692723, 33.84270235009273, 39.920340825285514, 45.438637568785964, 54.52765007672161, 61.099128237827436, 71.10646466743047, 76.29375194018085, 78.77254304981717]

>  <Cp_T_units>  (2) 
cal/(mol*K)

>  <T_list>  (2) 
[300.0, 400.0, 500.0, 600.0, 800.0, 1000.0, 1500.0, 2000.0, 2400.0]

>  <T_units>  (2) 
K

>  <yaml_path>  (2) 
/home/calvin/Dropbox/PersonalFolders/Calvin/ATLAS_Converged/rmg_rxn_255/output/Species/rmg_rxn_255_p2_CCSCC/rmg_rxn_255_p2_CCSCC.yml

>  <frequencies_cm1>  (2) 
[66.48615186823999, 121.63491097315999, 224.63969077315997, 254.99863287287997, 273.62876404604003, 341.45397805167994, 381.0490154068, 647.6597204558, 701.8333676452798, 742.1151035324, 786.8329119362398, 985.17891591912, 988.88708799192, 1023.0091380469999, 1055.1809642711999, 1060.18699656948, 1093.14852610548, 1263.72444145428, 1273.9013136985197, 1289.2490258887199, 1308.3598460342798, 1399.5396771132398, 1399.8967603498797, 1460.7725852116798, 1462.4000607325202, 1478.53747623452, 1481.2362014652797, 1489.1538355392402, 1493.6723118798, 3015.6091353367196, 3016.10355827976, 3035.3242501904397, 3036.18262335544, 3073.69009717328, 3077.2334615983996, 3086.3528181033594, 3086.8953099436403, 3101.4052499247996, 3104.1520440527997]

>  <ZPE_kJmol>  (2) 
348.0016505911852

>  <E_elec_kJmol>  (2) 
-1461524.713953432

>  <E0_minus_Eelec_plus_ZPE_kJmol>  (2) 
0.0

>  <rxn>  (2) 
rmg_rxn_255

>  <species_type>  (2) 
p1

>  <species_folder>  (2) 
rmg_rxn_255_p2_CCSCC

>  <frequencies_cm1_list>  (2) 
[66.48615186823999, 121.63491097315999, 224.63969077315997, 254.99863287287997, 273.62876404604003, 341.45397805167994, 381.0490154068, 647.6597204558, 701.8333676452798, 742.1151035324, 786.8329119362398, 985.17891591912, 988.88708799192, 1023.0091380469999, 1055.1809642711999, 1060.18699656948, 1093.14852610548, 1263.72444145428, 1273.9013136985197, 1289.2490258887199, 1308.3598460342798, 1399.5396771132398, 1399.8967603498797, 1460.7725852116798, 1462.4000607325202, 1478.53747623452, 1481.2362014652797, 1489.1538355392402, 1493.6723118798, 3015.6091353367196, 3016.10355827976, 3035.3242501904397, 3036.18262335544, 3073.69009717328, 3077.2334615983996, 3086.3528181033594, 3086.8953099436403, 3101.4052499247996, 3104.1520440527997]

>  <E0_kJmol>  (2) 
-1.46118e+06

>  <H298_kJmol>  (2) 
-1.46116e+06

$$$$

     RDKit          3D

 28 27  0  0  0  0  0  0  0  0999 V2000
    1.4540    1.0654   -1.0234 C   0  0  0  0  0  0  0  0  0  1  0  0
    1.2759    0.9308    0.4667 C   0  0  0  0  0  0  0  0  0  2  0  0
    0.0233    1.3835    0.8924 O   0  0  0  0  0  0  0  0  0  3  0  0
   -0.2283    2.6977    0.4657 C   0  0  0  0  0  0  0  0  0  4  0  0
   -0.1894    2.8291   -0.9171 O   0  0  0  0  0  0  0  0  0  5  0  0
    1.0853    2.4899   -1.4319 C   0  0  0  0  0  0  0  0  0  6  0  0
    2.4841    0.8412   -1.3075 H   0  0  0  0  0  0  0  0  0  7  0  0
    0.7921    0.3597   -1.5290 H   0  0  0  0  0  0  0  0  0  8  0  0
    1.2642   -0.3483    0.8277 H   0  0  0  0  0  0  0  0  0  9  0  0
    2.0858    1.3735    1.0614 H   0  0  0  0  0  0  0  0  0 10  0  0
    0.5126    3.3735    0.9278 H   0  0  0  0  0  0  0  0  0 11  0  0
   -1.2343    2.9525    0.7920 H   0  0  0  0  0  0  0  0  0 12  0  0
    1.8338    3.2028   -1.0555 H   0  0  0  0  0  0  0  0  0 13  0  0
    1.0228    2.5953   -2.5143 H   0  0  0  0  0  0  0  0  0 14  0  0
    1.0839   -1.5771    1.3799 C   0  0  0  0  0  3  0  0  0 15  0  0
    0.7684   -2.6099    0.3343 C   0  0  0  0  0  0  0  0  0 16  0  0
   -0.5013   -2.1605   -0.8859 S   0  0  0  0  0  0  0  0  0 17  0  0
   -1.8422   -1.5474    0.1629 C   0  0  0  0  0  0  0  0  0 18  0  0
   -2.4180   -2.5748    1.1231 C   0  0  0  0  0  0  0  0  0 19  0  0
    0.2765   -1.3710    2.0796 H   0  0  0  0  0  0  0  0  0 20  0  0
    2.0225   -1.7593    1.9017 H   0  0  0  0  0  0  0  0  0 21  0  0
    0.4770   -3.5511    0.8111 H   0  0  0  0  0  0  0  0  0 22  0  0
    1.6491   -2.8272   -0.2725 H   0  0  0  0  0  0  0  0  0 23  0  0
   -1.4995   -0.6533    0.6854 H   0  0  0  0  0  0  0  0  0 24  0  0
   -2.6011   -1.2232   -0.5513 H   0  0  0  0  0  0  0  0  0 25  0  0
   -1.6726   -2.9034    1.8497 H   0  0  0  0  0  0  0  0  0 26  0  0
   -3.2529   -2.1448    1.6809 H   0  0  0  0  0  0  0  0  0 27  0  0
   -2.7764   -3.4546    0.5872 H   0  0  0  0  0  0  0  0  0 28  0  0
  1  7  1  0
  1  8  1  0
  1  6  1  0
  1  2  1  0
  2  3  1  0
  2 10  1  0
  2  9  1  0
  3  4  1  0
  4 11  1  0
  4  5  1  0
  4 12  1  0
  5  6  1  0
  6 13  1  0
  6 14  1  0
 15 20  1  0
 15 16  1  0
 15 21  1  0
 16 22  1  0
 16 23  1  0
 16 17  1  0
 17 18  1  0
 18 19  1  0
 18 24  1  0
 18 25  1  0
 19 27  1  0
 19 28  1  0
 19 26  1  0
M  RAD  1  15   2
M  END
>  <rmg_smiles>  (3) 
C1CCOCO1.[CH2]CSCC

>  <rmg_adjacency_list>  (3) 
multiplicity 2
1  S u0 p2 c0 {7,S} {8,S}
2  O u0 p2 c0 {5,S} {10,S}
3  O u0 p2 c0 {6,S} {10,S}
4  C u0 p0 c0 {5,S} {6,S} {12,S} {13,S}
5  C u0 p0 c0 {2,S} {4,S} {14,S} {15,S}
6  C u0 p0 c0 {3,S} {4,S} {16,S} {17,S}
7  C u0 p0 c0 {1,S} {9,S} {18,S} {19,S}
8  C u0 p0 c0 {1,S} {11,S} {20,S} {21,S}
9  C u0 p0 c0 {7,S} {22,S} {23,S} {24,S}
10 C u0 p0 c0 {2,S} {3,S} {25,S} {26,S}
11 C u1 p0 c0 {8,S} {27,S} {28,S}
12 H u0 p0 c0 {4,S}
13 H u0 p0 c0 {4,S}
14 H u0 p0 c0 {5,S}
15 H u0 p0 c0 {5,S}
16 H u0 p0 c0 {6,S}
17 H u0 p0 c0 {6,S}
18 H u0 p0 c0 {7,S}
19 H u0 p0 c0 {7,S}
20 H u0 p0 c0 {8,S}
21 H u0 p0 c0 {8,S}
22 H u0 p0 c0 {9,S}
23 H u0 p0 c0 {9,S}
24 H u0 p0 c0 {9,S}
25 H u0 p0 c0 {10,S}
26 H u0 p0 c0 {10,S}
27 H u0 p0 c0 {11,S}
28 H u0 p0 c0 {11,S}


>  <multiplicity>  (3) 
2

>  <reaction>  (3) 
rmg_rxn_255

>  <type>  (3) 
ts

>  <role_mapnums>  (3) 
{"*2": 9, "*1": 2, "*3": 15, "*0": 3, "*4": 16}

>  <role_mapidx>  (3) 
{"*2": 8, "*1": 1, "*3": 14, "*0": 2, "*4": 15}

>  <ordered_mapped_smiles>  (3) 
[C:1]1([H:7])([H:8])[C:2]([H:9])([H:10])[O:3][C:4]([H:11])([H:12])[O:5][C:6]1([H:13])[H:14].[C:15]([C:16]([S:17][C:18]([C:19]([H:26])([H:27])[H:28])([H:24])[H:25])([H:22])[H:23])([H:20])[H:21]

>  <mol_properties>  (3) 
{"1": {"label": "*1", "atom_type": "Cs"}, "2": {"label": "*0", "atom_type": "O2s"}, "8": {"label": "*2", "atom_type": "H0"}, "14": {"label": "*3", "atom_type": "Cs"}, "15": {"label": "*4", "atom_type": "Cs"}}

>  <level_of_theory>  (3) 
wb97xd/def2tzvp

>  <lot_method>  (3) 
wb97xd

>  <lot_basis>  (3) 
def2tzvp

>  <spin_multiplicity>  (3) 
2.0

>  <optical_isomers>  (3) 
2.0

>  <modes>  (3) 
IdealGasTranslation(mass=(177.095, 'amu')),         NonlinearRotor(             inertia = ([354.836, 1017.39, 1078.37

>  <frequency_value>  (3) 
-1766.4

>  <frequency_units>  (3) 
cm^-1

>  <frequency_list>  (3) 
unknown

>  <arkane_path>  (3) 
/home/calvin/Dropbox/PersonalFolders/Calvin/ATLAS_Converged/rmg_rxn_255/output/rxns/TS0/arkane/output.py

>  <path_exists>  (3) 
True

>  <E0_value>  (3) 
-2266930.0

>  <E0_units>  (3) 
kJ/mol

>  <thermo_class>  (3) 
unknown

>  <Cp0_value>  (3) 
unknown

>  <Cp0_units>  (3) 
unknown

>  <CpInf_value>  (3) 
unknown

>  <CpInf_units>  (3) 
unknown

>  <Tmin_value>  (3) 
unknown

>  <Tmin_units>  (3) 
unknown

>  <Tmax_value>  (3) 
unknown

>  <Tmax_units>  (3) 
unknown

>  <polynomials>  (3) 
unknown

>  <H298_value>  (3) 
unknown

>  <H298_units>  (3) 
unknown

>  <S298_value>  (3) 
unknown

>  <S298_units>  (3) 
unknown

>  <Cp_T_value_list>  (3) 
unknown

>  <Cp_T_units>  (3) 
unknown

>  <T_list>  (3) 
unknown

>  <T_units>  (3) 
unknown

>  <yaml_path>  (3) 
unknown

>  <frequencies_cm1>  (3) 
unknown

>  <ZPE_kJmol>  (3) 
unknown

>  <E_elec_kJmol>  (3) 
unknown

>  <E0_minus_Eelec_plus_ZPE_kJmol>  (3) 
unknown

>  <rxn>  (3) 
unknown

>  <species_type>  (3) 
unknown

>  <species_folder>  (3) 
unknown

>  <frequencies_cm1_list>  (3) 
[]

>  <ts_imag_freq_cm1>  (3) 
-1787.8575

>  <ts_freq_out_path>  (3) 
/home/calvin/Dropbox/PersonalFolders/Calvin/ATLAS_Converged/rmg_rxn_255/output/rxns/TS0/geometry/freq.out

>  <E0_kJmol>  (3) 
-2.26693e+06

>  <H298_kJmol>  (3) 
unknown

$$$$

     RDKit          3D

 13 13  0  0  0  0  0  0  0  0999 V2000
   -0.9087    1.0135    0.2744 C   0  0  0  0  0  3  0  0  0  1  0  0
   -1.1528   -0.4306   -0.0132 C   0  0  0  0  0  0  0  0  0  2  0  0
    0.1597   -1.1985    0.0580 C   0  0  0  0  0  0  0  0  0  3  0  0
    1.1497   -0.5125   -0.6902 O   0  0  0  0  0  0  0  0  0  4  0  0
    1.3593    0.7608   -0.1866 C   0  0  0  0  0  0  0  0  0  5  0  0
    0.2092    1.5798   -0.2538 O   0  0  0  0  0  0  0  0  0  6  0  0
   -1.7260    1.7182    0.3534 H   0  0  0  0  0  0  0  0  0  7  0  0
   -1.8796   -0.8393    0.6913 H   0  0  0  0  0  0  0  0  0  8  0  0
   -1.5725   -0.5507   -1.0227 H   0  0  0  0  0  0  0  0  0  9  0  0
    0.4914   -1.2968    1.1007 H   0  0  0  0  0  0  0  0  0 10  0  0
    0.0732   -2.1931   -0.3758 H   0  0  0  0  0  0  0  0  0 11  0  0
    1.6805    0.7077    0.8652 H   0  0  0  0  0  0  0  0  0 12  0  0
    2.1167    1.2415   -0.8007 H   0  0  0  0  0  0  0  0  0 13  0  0
  1  6  1  0
  1  7  1  0
  1  2  1  0
  2  9  1  0
  2  8  1  0
  2  3  1  0
  3 11  1  0
  3  4  1  0
  3 10  1  0
  4  5  1  0
  5 13  1  0
  5  6  1  0
  5 12  1  0
M  RAD  1   1   2
M  END
>  <rmg_smiles>  (4) 
[CH]1CCOCO1

>  <rmg_adjacency_list>  (4) 
multiplicity 2
1  O u0 p2 c0 {4,S} {5,S}
2  O u0 p2 c0 {5,S} {6,S}
3  C u0 p0 c0 {4,S} {6,S} {7,S} {8,S}
4  C u0 p0 c0 {1,S} {3,S} {9,S} {10,S}
5  C u0 p0 c0 {1,S} {2,S} {11,S} {12,S}
6  C u1 p0 c0 {2,S} {3,S} {13,S}
7  H u0 p0 c0 {3,S}
8  H u0 p0 c0 {3,S}
9  H u0 p0 c0 {4,S}
10 H u0 p0 c0 {4,S}
11 H u0 p0 c0 {5,S}
12 H u0 p0 c0 {5,S}
13 H u0 p0 c0 {6,S}


>  <multiplicity>  (4) 
2

>  <reaction>  (4) 
rmg_rxn_255

>  <type>  (4) 
r1

>  <role_mapnums>  (4) 
{}

>  <role_mapidx>  (4) 
{}

>  <ordered_mapped_smiles>  (4) 
[C:1]1([H:7])[C:2]([H:8])([H:9])[C:3]([H:10])([H:11])[O:4][C:5]([H:12])([H:13])[O:6]1

>  <level_of_theory>  (4) 
wb97xd/def2tzvp

>  <lot_method>  (4) 
wb97xd

>  <lot_basis>  (4) 
def2tzvp

>  <spin_multiplicity>  (4) 
2.0

>  <optical_isomers>  (4) 
2.0

>  <modes>  (4) 
IdealGasTranslation(mass=(87.0446, 'amu')),         NonlinearRotor(             inertia = ([96.9848, 100.571, 180.326

>  <frequency_value>  (4) 
unknown

>  <frequency_units>  (4) 
unknown

>  <frequency_list>  (4) 
unknown

>  <arkane_path>  (4) 
/home/calvin/Dropbox/PersonalFolders/Calvin/ATLAS_Converged/rmg_rxn_255/output/Species/rmg_rxn_255_p1_sbr-CH-sbr1CCOCO1/arkane/output.py

>  <path_exists>  (4) 
True

>  <E0_value>  (4) 
-805827.3421493819

>  <E0_units>  (4) 
kJ/mol

>  <thermo_class>  (4) 
NASA

>  <Cp0_value>  (4) 
33.257888

>  <Cp0_units>  (4) 
J/(mol*K)

>  <CpInf_value>  (4) 
307.635464

>  <CpInf_units>  (4) 
J/(mol*K)

>  <Tmin_value>  (4) 
10.0

>  <Tmin_units>  (4) 
K

>  <Tmax_value>  (4) 
3000.0

>  <Tmax_units>  (4) 
K

>  <polynomials>  (4) 
[{"name": "polynomial1", "class": "NASAPolynomial", "Tmin_value": 10.0, "Tmin_units": "K", "Tmax_value": 594.5881445366083, "Tmax_units": "K", "coeffs": [4.0448110838926565, -0.004287247298286005, 0.0001561678296055211, -2.5056792670345e-07, 1.28608989510542e-10, -96918641.31425966, 11.310846190181683]}, {"name": "polynomial2", "class": "NASAPolynomial", "Tmin_value": 594.5881445366083, "Tmin_units": "K", "Tmax_value": 3000.0, "Tmax_units": "K", "coeffs": [-2.0223142792396813, 0.05358769196829288, -3.287284368824778e-05, 9.64252563065185e-09, -1.0874709432735165e-12, -96918221.37894577, 34.89119071361758]}]

>  <H298_value>  (4) 
-192593.46110107773

>  <H298_units>  (4) 
kcal/mol

>  <S298_value>  (4) 
75.62180337642914

>  <S298_units>  (4) 
cal/(mol*K)

>  <Cp_T_value_list>  (4) 
[22.038399005889005, 28.959178246137498, 35.09449573071628, 40.21693905885679, 48.29063691328946, 54.14658537653456, 62.464910648605866, 66.37739659151993, 68.47747700545682]

>  <Cp_T_units>  (4) 
cal/(mol*K)

>  <T_list>  (4) 
[300.0, 400.0, 500.0, 600.0, 800.0, 1000.0, 1500.0, 2000.0, 2400.0]

>  <T_units>  (4) 
K

>  <yaml_path>  (4) 
/home/calvin/Dropbox/PersonalFolders/Calvin/ATLAS_Converged/rmg_rxn_255/output/Species/rmg_rxn_255_p1_sbr-CH-sbr1CCOCO1/rmg_rxn_255_p1_sbr-CH-sbr1CCOCO1.yml

>  <frequencies_cm1>  (4) 
[225.5461328354, 251.49647035968, 410.99593838732, 475.95761951452, 495.8306750306, 591.7830609069599, 728.8686888501201, 860.14484721256, 919.0292463315599, 933.8413336668, 1002.5523887787199, 1034.68988007632, 1061.81447209032, 1129.37187366848, 1164.5789074041202, 1229.20410625064, 1259.04115746604, 1263.30555534976, 1323.45347976764, 1354.19010605996, 1364.1609687445998, 1410.3689129628801, 1445.48667588936, 1452.1064497378397, 1489.32551017224, 1505.45605868892, 2941.13667954132, 2947.4199711091196, 2972.12051730516, 3065.6282564076, 3096.83183770168, 3120.1177849217997, 3169.457074446]

>  <ZPE_kJmol>  (4) 
285.28140433887154

>  <E_elec_kJmol>  (4) 
-806112.6235537208

>  <E0_minus_Eelec_plus_ZPE_kJmol>  (4) 
0.0

>  <rxn>  (4) 
rmg_rxn_255

>  <species_type>  (4) 
p0

>  <species_folder>  (4) 
rmg_rxn_255_p1_sbr-CH-sbr1CCOCO1

>  <frequencies_cm1_list>  (4) 
[225.5461328354, 251.49647035968, 410.99593838732, 475.95761951452, 495.8306750306, 591.7830609069599, 728.8686888501201, 860.14484721256, 919.0292463315599, 933.8413336668, 1002.5523887787199, 1034.68988007632, 1061.81447209032, 1129.37187366848, 1164.5789074041202, 1229.20410625064, 1259.04115746604, 1263.30555534976, 1323.45347976764, 1354.19010605996, 1364.1609687445998, 1410.3689129628801, 1445.48667588936, 1452.1064497378397, 1489.32551017224, 1505.45605868892, 2941.13667954132, 2947.4199711091196, 2972.12051730516, 3065.6282564076, 3096.83183770168, 3120.1177849217997, 3169.457074446]

>  <E0_kJmol>  (4) 
-805827

>  <H298_kJmol>  (4) 
-805811

$$$$

     RDKit          3D

 14 13  0  0  0  0  0  0  0  0999 V2000
    2.5796   -0.5432    0.2329 C   0  0  0  0  0  3  0  0  0  1  0  0
    1.2594    0.0982    0.3029 C   0  0  0  0  0  0  0  0  0  2  0  0
   -0.0483   -1.0244    0.9576 S   0  0  0  0  0  0  0  0  0  3  0  0
   -0.0049   -2.3732   -0.2491 C   0  0  0  0  0  0  0  0  0  4  0  0
   -0.3891   -1.9781   -1.6653 C   0  0  0  0  0  0  0  0  0  5  0  0
    2.9359   -0.9798   -0.6903 H   0  0  0  0  0  0  0  0  0  6  0  0
    3.1327   -0.7454    1.1400 H   0  0  0  0  0  0  0  0  0  7  0  0
    0.9347    0.4858   -0.6621 H   0  0  0  0  0  0  0  0  0  8  0  0
    1.2442    0.9220    1.0193 H   0  0  0  0  0  0  0  0  0  9  0  0
    0.9819   -2.8380   -0.2257 H   0  0  0  0  0  0  0  0  0 10  0  0
   -0.7110   -3.1037    0.1493 H   0  0  0  0  0  0  0  0  0 11  0  0
    0.3274   -1.2737   -2.0913 H   0  0  0  0  0  0  0  0  0 12  0  0
   -0.4075   -2.8581   -2.3121 H   0  0  0  0  0  0  0  0  0 13  0  0
   -1.3749   -1.5123   -1.6865 H   0  0  0  0  0  0  0  0  0 14  0  0
  1  7  1  0
  1  6  1  0
  1  2  1  0
  2  9  1  0
  2  8  1  0
  2  3  1  0
  3  4  1  0
  4  5  1  0
  4 10  1  0
  4 11  1  0
  5 12  1  0
  5 14  1  0
  5 13  1  0
M  RAD  1   1   2
M  END
>  <rmg_smiles>  (5) 
[CH2]CSCC

>  <rmg_adjacency_list>  (5) 
multiplicity 2
1  S u0 p2 c0 {2,S} {3,S}
2  C u0 p0 c0 {1,S} {4,S} {6,S} {7,S}
3  C u0 p0 c0 {1,S} {5,S} {8,S} {9,S}
4  C u0 p0 c0 {2,S} {10,S} {11,S} {12,S}
5  C u1 p0 c0 {3,S} {13,S} {14,S}
6  H u0 p0 c0 {2,S}
7  H u0 p0 c0 {2,S}
8  H u0 p0 c0 {3,S}
9  H u0 p0 c0 {3,S}
10 H u0 p0 c0 {4,S}
11 H u0 p0 c0 {4,S}
12 H u0 p0 c0 {4,S}
13 H u0 p0 c0 {5,S}
14 H u0 p0 c0 {5,S}


>  <multiplicity>  (5) 
2

>  <reaction>  (5) 
rmg_rxn_255

>  <type>  (5) 
r2

>  <role_mapnums>  (5) 
{}

>  <role_mapidx>  (5) 
{}

>  <ordered_mapped_smiles>  (5) 
[C:1]([C:2]([S:3][C:4]([C:5]([H:12])([H:13])[H:14])([H:10])[H:11])([H:8])[H:9])([H:6])[H:7]

>  <level_of_theory>  (5) 
wb97xd/def2tzvp

>  <lot_method>  (5) 
wb97xd

>  <lot_basis>  (5) 
def2tzvp

>  <spin_multiplicity>  (5) 
2.0

>  <optical_isomers>  (5) 
2.0

>  <modes>  (5) 
IdealGasTranslation(mass=(89.0425, 'amu')),         NonlinearRotor(             inertia = ([94.593, 177.437, 223.626

>  <frequency_value>  (5) 
unknown

>  <frequency_units>  (5) 
unknown

>  <frequency_list>  (5) 
unknown

>  <arkane_path>  (5) 
/home/calvin/Dropbox/PersonalFolders/Calvin/ATLAS_Converged/rmg_rxn_255/output/Species/rmg_rxn_255_r2_sbr-CH2-sbrCSCC/arkane/output.py

>  <path_exists>  (5) 
True

>  <E0_value>  (5) 
-1459449.5066336358

>  <E0_units>  (5) 
kJ/mol

>  <thermo_class>  (5) 
NASA

>  <Cp0_value>  (5) 
33.257888

>  <Cp0_units>  (5) 
J/(mol*K)

>  <CpInf_value>  (5) 
332.57888

>  <CpInf_units>  (5) 
J/(mol*K)

>  <Tmin_value>  (5) 
10.0

>  <Tmin_units>  (5) 
K

>  <Tmax_value>  (5) 
3000.0

>  <Tmax_units>  (5) 
K

>  <polynomials>  (5) 
[{"name": "polynomial1", "class": "NASAPolynomial", "Tmin_value": 10.0, "Tmin_units": "K", "Tmax_value": 1031.5071007618787, "Tmax_units": "K", "coeffs": [3.5714943853963943, 0.03773739256401581, -4.950950990783628e-06, -1.3018660382700517e-08, 5.857037102171146e-12, -175531227.33815667, 12.507822262108592]}, {"name": "polynomial2", "class": "NASAPolynomial", "Tmin_value": 1031.5071007618787, "Tmin_units": "K", "Tmax_value": 3000.0, "Tmax_units": "K", "coeffs": [5.15471759391017, 0.04014233483809902, -2.0873295447536622e-05, 5.302404611852929e-09, -5.296040450423311e-13, -175532008.5243079, 2.617170435341213]}]

>  <H298_value>  (5) 
-348811.48362080817

>  <H298_units>  (5) 
kcal/mol

>  <S298_value>  (5) 
86.99508703546594

>  <S298_units>  (5) 
cal/(mol*K)

>  <Cp_T_value_list>  (5) 
[28.10519018607643, 34.16215665606476, 39.62725284783934, 44.470956897945086, 52.31577082579914, 58.01910235786348, 66.80551106767905, 71.32437388511126, 73.51787619359425]

>  <Cp_T_units>  (5) 
cal/(mol*K)

>  <T_list>  (5) 
[300.0, 400.0, 500.0, 600.0, 800.0, 1000.0, 1500.0, 2000.0, 2400.0]

>  <T_units>  (5) 
K

>  <yaml_path>  (5) 
/home/calvin/Dropbox/PersonalFolders/Calvin/ATLAS_Converged/rmg_rxn_255/output/Species/rmg_rxn_255_r2_sbr-CH2-sbrCSCC/rmg_rxn_255_r2_sbr-CH2-sbrCSCC.yml

>  <frequencies_cm1>  (5) 
[55.01828638384, 115.49582609707998, 192.74254396176, 233.70411139555998, 259.89479340604, 323.54488033712, 364.23176835811995, 563.4155445500401, 638.47169409764, 687.12428508984, 740.0206730098, 780.7556299280399, 985.7694766566399, 1009.68031954088, 1055.6959881701998, 1069.5123626340398, 1077.49179957588, 1214.7147672254398, 1255.0102370831999, 1271.8892869997599, 1297.5512111406, 1400.98174403044, 1442.24545881832, 1457.86785042132, 1467.7288413408398, 1480.70744359564, 1491.3787387829198, 3015.89754872016, 3034.4590100401197, 3035.7156683536796, 3075.4068435032796, 3086.44895589784, 3092.5949077592395, 3102.88851875392, 3127.8568773774396, 3233.1826982156]

>  <ZPE_kJmol>  (5) 
309.45664795415496

>  <E_elec_kJmol>  (5) 
-1459758.96328159

>  <E0_minus_Eelec_plus_ZPE_kJmol>  (5) 
0.0

>  <rxn>  (5) 
rmg_rxn_255

>  <species_type>  (5) 
r1

>  <species_folder>  (5) 
rmg_rxn_255_r2_sbr-CH2-sbrCSCC

>  <frequencies_cm1_list>  (5) 
[55.01828638384, 115.49582609707998, 192.74254396176, 233.70411139555998, 259.89479340604, 323.54488033712, 364.23176835811995, 563.4155445500401, 638.47169409764, 687.12428508984, 740.0206730098, 780.7556299280399, 985.7694766566399, 1009.68031954088, 1055.6959881701998, 1069.5123626340398, 1077.49179957588, 1214.7147672254398, 1255.0102370831999, 1271.8892869997599, 1297.5512111406, 1400.98174403044, 1442.24545881832, 1457.86785042132, 1467.7288413408398, 1480.70744359564, 1491.3787387829198, 3015.89754872016, 3034.4590100401197, 3035.7156683536796, 3075.4068435032796, 3086.44895589784, 3092.5949077592395, 3102.88851875392, 3127.8568773774396, 3233.1826982156]

>  <E0_kJmol>  (5) 
-1.45945e+06

>  <H298_kJmol>  (5) 
-1.45943e+06

$$$$
