
     RDKit          3D

 17 16  0  0  0  0  0  0  0  0999 V2000
   -0.0382   -1.9415   -2.0216 C   0  0  0  0  0  0  0  0  0  1  0  0
    0.0456   -2.1107   -0.5395 C   0  0  0  0  0  0  0  0  0  2  0  0
    0.2762   -1.1458    0.3387 C   0  0  0  0  0  0  0  0  0  3  0  0
    0.5250    0.1407   -0.0466 O   0  0  0  0  0  0  0  0  0  4  0  0
   -0.0587    1.0660    0.8982 N   0  0  0  0  0  0  0  0  0  5  0  0
   -1.3725    1.3043    0.6339 N   0  0  0  0  0  0  0  0  0  6  0  0
    0.7312    2.2744    0.7843 C   0  0  0  0  0  0  0  0  0  7  0  0
    0.8212   -2.4016   -2.5168 H   0  0  0  0  0  0  0  0  0  8  0  0
   -0.0700   -0.8896   -2.2997 H   0  0  0  0  0  0  0  0  0  9  0  0
   -0.9338   -2.4285   -2.4131 H   0  0  0  0  0  0  0  0  0 10  0  0
   -0.0590   -3.1105   -0.1343 H   0  0  0  0  0  0  0  0  0 11  0  0
    0.3187   -1.3099    1.4101 H   0  0  0  0  0  0  0  0  0 12  0  0
   -1.4998    1.6026   -0.3305 H   0  0  0  0  0  0  0  0  0 13  0  0
   -1.8713    0.4190    0.6851 H   0  0  0  0  0  0  0  0  0 14  0  0
    0.6796    2.6891   -0.2300 H   0  0  0  0  0  0  0  0  0 15  0  0
    1.7647    2.0405    1.0265 H   0  0  0  0  0  0  0  0  0 16  0  0
    0.3349    2.9960    1.4943 H   0  0  0  0  0  0  0  0  0 17  0  0
  1 10  1  0
  1  8  1  0
  1  9  1  0
  1  2  1  0
  2 11  1  0
  2  3  1  0
  3  4  1  0
  3 12  1  0
  4  5  1  0
  5  6  1  0
  5  7  1  0
  6 14  1  0
  6 13  1  0
  7 17  1  0
  7 15  1  0
  7 16  1  0
M  END
>  <rmg_smiles>  (1) 
C[CH][CH]ON(N)C

>  <rmg_adjacency_list>  (1) 
1  O u0 p2 c0 {2,S} {7,S}
2  N u0 p1 c0 {1,S} {3,S} {4,S}
3  N u0 p1 c0 {2,S} {16,S} {17,S}
4  C u0 p0 c0 {2,S} {11,S} {12,S} {13,S}
5  C u0 p0 c0 {6,S} {8,S} {9,S} {10,S}
6  C u0 p0 c0 {5,S} {7,S} {14,S}
7  C u0 p0 c0 {1,S} {6,S} {15,S}
8  H u0 p0 c0 {5,S}
9  H u0 p0 c0 {5,S}
10 H u0 p0 c0 {5,S}
11 H u0 p0 c0 {4,S}
12 H u0 p0 c0 {4,S}
13 H u0 p0 c0 {4,S}
14 H u0 p0 c0 {6,S}
15 H u0 p0 c0 {7,S}
16 H u0 p0 c0 {3,S}
17 H u0 p0 c0 {3,S}


>  <multiplicity>  (1) 
1

>  <reaction>  (1) 
rmg_rxn_15517

>  <type>  (1) 
r1h

>  <role_mapnums>  (1) 
{"r1h_a": 6, "r1h_h": 13}

>  <role_mapidx>  (1) 
{"r1h_a": 5, "r1h_h": 12}

>  <ordered_mapped_smiles>  (1) 
[C:1]([CH:2]([CH:3]([O:4][N:5]([N:6]([H:13])[H:14])[C:7]([H:15])([H:16])[H:17])[H:12])[H:11])([H:8])([H:9])[H:10]

>  <mol_properties>  (1) 
{"5": {"label": "donator", "atom_type": "N3s"}, "12": {"label": "d_hydrogen", "atom_type": "H0"}}

>  <level_of_theory>  (1) 
wb97xd/def2tzvp

>  <lot_method>  (1) 
wb97xd

>  <lot_basis>  (1) 
def2tzvp

>  <spin_multiplicity>  (1) 
1.0

>  <optical_isomers>  (1) 
2.0

>  <modes>  (1) 
IdealGasTranslation(mass=(102.079, 'amu')),         NonlinearRotor(             inertia = ([85.6795, 376.18, 388.876

>  <frequency_value>  (1) 
unknown

>  <frequency_units>  (1) 
unknown

>  <frequency_list>  (1) 
unknown

>  <arkane_path>  (1) 
/home/calvin/Dropbox/PersonalFolders/Calvin/ZEUS_Converged/rmg_rxn_15517/output/Species/rmg_rxn_15517_r2_CC=CONrbr-N-rbrC/arkane/output.py

>  <path_exists>  (1) 
True

>  <E0_value>  (1) 
-900405.0494296006

>  <E0_units>  (1) 
kJ/mol

>  <thermo_class>  (1) 
NASA

>  <Cp0_value>  (1) 
33.257888

>  <Cp0_units>  (1) 
J/(mol*K)

>  <CpInf_value>  (1) 
407.409128

>  <CpInf_units>  (1) 
J/(mol*K)

>  <Tmin_value>  (1) 
10.0

>  <Tmin_units>  (1) 
K

>  <Tmax_value>  (1) 
3000.0

>  <Tmax_units>  (1) 
K

>  <polynomials>  (1) 
[{"name": "polynomial1", "class": "NASAPolynomial", "Tmin_value": 10.0, "Tmin_units": "K", "Tmax_value": 1108.736796573486, "Tmax_units": "K", "coeffs": [3.593482067657345, 0.04527343613148581, -7.853115807860651e-07, -2.043658609457127e-08, 8.18045447415304e-12, -108293714.18687978, 12.85162704751556]}, {"name": "polynomial2", "class": "NASAPolynomial", "Tmin_value": 1108.736796573486, "Tmin_units": "K", "Tmax_value": 3000.0, "Tmax_units": "K", "coeffs": [7.506038002578287, 0.046589931565087575, -2.3444009976697085e-05, 5.741145862751885e-09, -5.527118171710488e-13, -108295530.30298632, -10.705520626468415]}]

>  <H298_value>  (1) 
-215195.9362782153

>  <H298_units>  (1) 
kcal/mol

>  <S298_value>  (1) 
92.63660749241524

>  <S298_units>  (1) 
cal/(mol*K)

>  <Cp_T_value_list>  (1) 
[33.0259983327988, 40.69537554931736, 47.67423133324528, 53.89446290908325, 63.981717362233816, 71.19261681574156, 81.91300293988421, 87.42841994031997, 90.0449470406118]

>  <Cp_T_units>  (1) 
cal/(mol*K)

>  <T_list>  (1) 
[300.0, 400.0, 500.0, 600.0, 800.0, 1000.0, 1500.0, 2000.0, 2400.0]

>  <T_units>  (1) 
K

>  <yaml_path>  (1) 
/home/calvin/Dropbox/PersonalFolders/Calvin/ZEUS_Converged/rmg_rxn_15517/output/Species/rmg_rxn_15517_r2_CC=CONrbr-N-rbrC/rmg_rxn_15517_r2_CC=CONrbr-N-rbrC.yml

>  <frequencies_cm1>  (1) 
[42.90492427935999, 70.94969232623998, 121.85465450339998, 166.71666959895998, 253.87244728039994, 301.92074356444, 373.40606074563993, 419.64833989052, 445.81842094504, 504.72342102, 549.00174236336, 631.06908392268, 758.13578028396, 848.92419319968, 869.8822323963199, 938.1057315505199, 966.4663809221199, 985.6939398181199, 1045.86246519196, 1060.8324931895597, 1129.8319616849199, 1145.91444130436, 1177.50257377636, 1255.0720399510801, 1275.68672988172, 1357.8776771768, 1378.40309629828, 1417.9431977708398, 1431.4368239246398, 1469.8713407606797, 1474.3760831306, 1478.2284618951198, 1482.71260330908, 1665.8688357641197, 1738.5215404497199, 2975.03898606616, 3009.26404090104, 3062.7647235291597, 3097.66960991072, 3105.09968802696, 3145.0998775159596, 3146.5076095065597, 3168.9763854735997, 3405.2006804816, 3560.0443324622797]

>  <ZPE_kJmol>  (1) 
382.271003727177

>  <E_elec_kJmol>  (1) 
-900787.3204333278

>  <E0_minus_Eelec_plus_ZPE_kJmol>  (1) 
0.0

>  <rxn>  (1) 
rmg_rxn_15517

>  <species_type>  (1) 
r1

>  <species_folder>  (1) 
rmg_rxn_15517_r2_CC=CONrbr-N-rbrC

>  <frequencies_cm1_list>  (1) 
[42.90492427935999, 70.94969232623998, 121.85465450339998, 166.71666959895998, 253.87244728039994, 301.92074356444, 373.40606074563993, 419.64833989052, 445.81842094504, 504.72342102, 549.00174236336, 631.06908392268, 758.13578028396, 848.92419319968, 869.8822323963199, 938.1057315505199, 966.4663809221199, 985.6939398181199, 1045.86246519196, 1060.8324931895597, 1129.8319616849199, 1145.91444130436, 1177.50257377636, 1255.0720399510801, 1275.68672988172, 1357.8776771768, 1378.40309629828, 1417.9431977708398, 1431.4368239246398, 1469.8713407606797, 1474.3760831306, 1478.2284618951198, 1482.71260330908, 1665.8688357641197, 1738.5215404497199, 2975.03898606616, 3009.26404090104, 3062.7647235291597, 3097.66960991072, 3105.09968802696, 3145.0998775159596, 3146.5076095065597, 3168.9763854735997, 3405.2006804816, 3560.0443324622797]

>  <E0_kJmol>  (1) 
-900405

>  <H298_kJmol>  (1) 
-900380

$$$$

     RDKit          3D

  6  5  0  0  0  0  0  0  0  0999 V2000
   -0.3970   -0.2720   -1.0008 O   0  0  0  0  0  0  0  0  0  1  0  0
   -0.1636   -0.2640    0.3824 N   0  0  0  0  0  0  0  0  0  2  0  0
    0.6371    0.5961    0.7735 C   0  0  0  0  0  0  0  0  0  3  0  0
   -1.0291   -0.9873   -1.1038 H   0  0  0  0  0  0  0  0  0  4  0  0
    1.1898    1.3313    0.1883 H   0  0  0  0  0  0  0  0  0  5  0  0
    0.7738    0.5582    1.8543 H   0  0  0  0  0  0  0  0  0  6  0  0
  1  4  1  0
  1  2  1  0
  2  3  1  0
  3  6  1  0
  3  5  1  0
M  END
>  <rmg_smiles>  (2) 
[CH2][N]O

>  <rmg_adjacency_list>  (2) 
1 O u0 p2 c0 {2,S} {6,S}
2 N u0 p1 c0 {1,S} {3,S}
3 C u0 p0 c0 {2,S} {4,S} {5,S}
4 H u0 p0 c0 {3,S}
5 H u0 p0 c0 {3,S}
6 H u0 p0 c0 {1,S}


>  <multiplicity>  (2) 
1

>  <reaction>  (2) 
rmg_rxn_15517

>  <type>  (2) 
r2h

>  <role_mapnums>  (2) 
{"r2h_a": 3, "r2h_h": 6}

>  <role_mapidx>  (2) 
{"r2h_a": 2, "r2h_h": 5}

>  <ordered_mapped_smiles>  (2) 
[O:1]([NH:2][CH:3]([H:5])[H:6])[H:4]

>  <mol_properties>  (2) 
{"2": {"label": "acceptor", "atom_type": "Cs"}, "5": {"label": "a_hydrogen", "atom_type": "H0"}}

>  <level_of_theory>  (2) 
wb97xd/def2tzvp

>  <lot_method>  (2) 
wb97xd

>  <lot_basis>  (2) 
def2tzvp

>  <spin_multiplicity>  (2) 
1.0

>  <optical_isomers>  (2) 
1.0

>  <modes>  (2) 
IdealGasTranslation(mass=(45.0215, 'amu')),         NonlinearRotor(             inertia = ([7.10552, 42.1368, 49.2423

>  <frequency_value>  (2) 
unknown

>  <frequency_units>  (2) 
unknown

>  <frequency_list>  (2) 
unknown

>  <arkane_path>  (2) 
/home/calvin/Dropbox/PersonalFolders/Calvin/ZEUS_Converged/rmg_rxn_15517/output/Species/rmg_rxn_15517_p1_ON=C/arkane/output.py

>  <path_exists>  (2) 
True

>  <E0_value>  (2) 
-445765.04652910994

>  <E0_units>  (2) 
kJ/mol

>  <thermo_class>  (2) 
NASA

>  <Cp0_value>  (2) 
33.257888

>  <Cp0_units>  (2) 
J/(mol*K)

>  <CpInf_value>  (2) 
133.031552

>  <CpInf_units>  (2) 
J/(mol*K)

>  <Tmin_value>  (2) 
10.0

>  <Tmin_units>  (2) 
K

>  <Tmax_value>  (2) 
3000.0

>  <Tmax_units>  (2) 
K

>  <polynomials>  (2) 
[{"name": "polynomial1", "class": "NASAPolynomial", "Tmin_value": 10.0, "Tmin_units": "K", "Tmax_value": 555.0008285415723, "Tmax_units": "K", "coeffs": [4.0729558966761115, -0.006525504673073184, 8.044401869233928e-05, -1.3643340673050255e-07, 7.605604608176978e-11, -53613151.050707266, 6.598063650688069]}, {"name": "polynomial2", "class": "NASAPolynomial", "Tmin_value": 555.0008285415723, "Tmin_units": "K", "Tmax_value": 3000.0, "Tmax_units": "K", "coeffs": [1.9629419554542669, 0.01794293278685335, -1.0716899102514014e-05, 3.1351804200574135e-09, -3.5588210478784073e-13, -53613059.472560614, 14.250328412630774]}]

>  <H298_value>  (2) 
-106537.6194767193

>  <H298_units>  (2) 
kcal/mol

>  <S298_value>  (2) 
60.36296822828259

>  <S298_units>  (2) 
cal/(mol*K)

>  <Cp_T_value_list>  (2) 
[12.494795700177992, 15.001608210431446, 17.130783734283074, 18.881829280437152, 21.69615330289245, 23.7834318087242, 26.9145239767162, 28.553257692891545, 29.47039525924992]

>  <Cp_T_units>  (2) 
cal/(mol*K)

>  <T_list>  (2) 
[300.0, 400.0, 500.0, 600.0, 800.0, 1000.0, 1500.0, 2000.0, 2400.0]

>  <T_units>  (2) 
K

>  <yaml_path>  (2) 
/home/calvin/Dropbox/PersonalFolders/Calvin/ZEUS_Converged/rmg_rxn_15517/output/Species/rmg_rxn_15517_p1_ON=C/rmg_rxn_15517_p1_ON=C.yml

>  <frequencies_cm1>  (2) 
[438.20980121048, 539.7244451960399, 801.7205361099999, 965.59427378648, 986.4836431299199, 1183.2914424011199, 1353.5034075279598, 1444.4016922088, 1728.97643085492, 3083.6403589019596, 3214.03754314344, 3841.1169085952]

>  <ZPE_kJmol>  (2) 
117.11863122037906

>  <E_elec_kJmol>  (2) 
-445882.1651603303

>  <E0_minus_Eelec_plus_ZPE_kJmol>  (2) 
0.0

>  <rxn>  (2) 
rmg_rxn_15517

>  <species_type>  (2) 
p0

>  <species_folder>  (2) 
rmg_rxn_15517_p1_ON=C

>  <frequencies_cm1_list>  (2) 
[438.20980121048, 539.7244451960399, 801.7205361099999, 965.59427378648, 986.4836431299199, 1183.2914424011199, 1353.5034075279598, 1444.4016922088, 1728.97643085492, 3083.6403589019596, 3214.03754314344, 3841.1169085952]

>  <E0_kJmol>  (2) 
-445765

>  <H298_kJmol>  (2) 
-445753

$$$$

     RDKit          3D

 22 20  0  0  0  0  0  0  0  0999 V2000
   -1.9606    0.4065   -2.8885 O   0  0  0  0  0  0  0  0  0  1  0  0
   -1.7273    0.4145   -1.5053 N   0  0  0  0  0  0  0  0  0  2  0  0
   -0.9265    1.2746   -1.1142 C   0  0  0  0  0  3  0  0  0  3  0  0
   -2.5927   -0.3088   -2.9915 H   0  0  0  0  0  0  0  0  0  4  0  0
   -0.3739    2.0097   -1.6994 H   0  0  0  0  0  0  0  0  0  5  0  0
    0.7406   -2.3583   -1.1856 C   0  0  0  0  0  0  0  0  0  6  0  0
    0.8245   -2.5274    0.2965 C   0  0  0  0  0  0  0  0  0  7  0  0
    1.0550   -1.5625    1.1747 C   0  0  0  0  0  0  0  0  0  8  0  0
    1.3038   -0.2761    0.7894 O   0  0  0  0  0  0  0  0  0  9  0  0
    0.7201    0.6492    1.7342 N   0  0  0  0  0  0  0  0  0 10  0  0
   -0.5936    0.8876    1.4699 N   0  0  0  0  0  0  0  0  0 11  0  0
    1.5101    1.8577    1.6203 C   0  0  0  0  0  0  0  0  0 12  0  0
    1.6000   -2.8183   -1.6809 H   0  0  0  0  0  0  0  0  0 13  0  0
    0.7088   -1.3064   -1.4637 H   0  0  0  0  0  0  0  0  0 14  0  0
   -0.1550   -2.8453   -1.5771 H   0  0  0  0  0  0  0  0  0 15  0  0
    0.7198   -3.5272    0.7017 H   0  0  0  0  0  0  0  0  0 16  0  0
    1.0975   -1.7266    2.2461 H   0  0  0  0  0  0  0  0  0 17  0  0
   -0.7364    1.2219    0.3891 H   0  0  0  0  0  0  0  0  0 18  0  0
   -1.0925    0.0023    1.5211 H   0  0  0  0  0  0  0  0  0 19  0  0
    1.4584    2.2724    0.6060 H   0  0  0  0  0  0  0  0  0 20  0  0
    2.5435    1.6238    1.8625 H   0  0  0  0  0  0  0  0  0 21  0  0
    1.1137    2.5792    2.3302 H   0  0  0  0  0  0  0  0  0 22  0  0
  1  2  1  0
  1  4  1  0
  2  3  1  0
  3  5  1  0
  6  7  1  0
  6 15  1  0
  6 13  1  0
  6 14  1  0
  7  8  1  0
  7 16  1  0
  8 17  1  0
  8  9  1  0
  9 10  1  0
 10 11  1  0
 10 12  1  0
 11 18  1  0
 11 19  1  0
 12 22  1  0
 12 20  1  0
 12 21  1  0
M  RAD  1   3   2
M  END
>  <rmg_smiles>  (3) 
C[CH][CH]ON(N)C.[CH][N]O

>  <rmg_adjacency_list>  (3) 
multiplicity 2
1  O u0 p2 c0 {3,S} {9,S}
2  O u0 p2 c0 {5,S} {21,S}
3  N u0 p1 c0 {1,S} {4,S} {6,S}
4  N u0 p1 c0 {3,S} {19,S} {20,S}
5  N u0 p1 c0 {2,S} {10,S}
6  C u0 p0 c0 {3,S} {14,S} {15,S} {16,S}
7  C u0 p0 c0 {8,S} {11,S} {12,S} {13,S}
8  C u0 p0 c0 {7,S} {9,S} {17,S}
9  C u0 p0 c0 {1,S} {8,S} {18,S}
10 C u1 p1 c0 {5,S} {22,S}
11 H u0 p0 c0 {7,S}
12 H u0 p0 c0 {7,S}
13 H u0 p0 c0 {7,S}
14 H u0 p0 c0 {6,S}
15 H u0 p0 c0 {6,S}
16 H u0 p0 c0 {6,S}
17 H u0 p0 c0 {8,S}
18 H u0 p0 c0 {9,S}
19 H u0 p0 c0 {4,S}
20 H u0 p0 c0 {4,S}
21 H u0 p0 c0 {2,S}
22 H u0 p0 c0 {10,S}


>  <multiplicity>  (3) 
2

>  <reaction>  (3) 
rmg_rxn_15517

>  <type>  (3) 
ts

>  <role_mapnums>  (3) 
{"*2": 18, "*1": 11, "*3": 3, "*0": 10, "*4": 2}

>  <role_mapidx>  (3) 
{"*2": 17, "*1": 10, "*3": 2, "*0": 9, "*4": 1}

>  <ordered_mapped_smiles>  (3) 
[O:1]([NH:2][CH:3][H:5])[H:4].[C:6]([CH:7]([CH:8]([O:9][N:10]([N:11]([H:18])[H:19])[C:12]([H:20])([H:21])[H:22])[H:17])[H:16])([H:13])([H:14])[H:15]

>  <mol_properties>  (3) 
{"1": {"label": "*4", "atom_type": "N3s"}, "2": {"label": "*3", "atom_type": "C2s"}, "9": {"label": "*0", "atom_type": "N3s"}, "10": {"label": "*1", "atom_type": "N3s"}, "17": {"label": "*2", "atom_type": "H0"}}

>  <level_of_theory>  (3) 
wb97xd/def2tzvp

>  <lot_method>  (3) 
wb97xd

>  <lot_basis>  (3) 
def2tzvp

>  <spin_multiplicity>  (3) 
2.0

>  <optical_isomers>  (3) 
2.0

>  <modes>  (3) 
IdealGasTranslation(mass=(146.093, 'amu')),         NonlinearRotor(             inertia = ([384.196, 570.998, 856.168

>  <frequency_value>  (3) 
-1216.85

>  <frequency_units>  (3) 
cm^-1

>  <frequency_list>  (3) 
unknown

>  <arkane_path>  (3) 
/home/calvin/Dropbox/PersonalFolders/Calvin/ZEUS_Converged/rmg_rxn_15517/output/rxns/TS0/arkane/output.py

>  <path_exists>  (3) 
True

>  <E0_value>  (3) 
-1344400.0

>  <E0_units>  (3) 
kJ/mol

>  <thermo_class>  (3) 
unknown

>  <Cp0_value>  (3) 
unknown

>  <Cp0_units>  (3) 
unknown

>  <CpInf_value>  (3) 
unknown

>  <CpInf_units>  (3) 
unknown

>  <Tmin_value>  (3) 
unknown

>  <Tmin_units>  (3) 
unknown

>  <Tmax_value>  (3) 
unknown

>  <Tmax_units>  (3) 
unknown

>  <polynomials>  (3) 
unknown

>  <H298_value>  (3) 
unknown

>  <H298_units>  (3) 
unknown

>  <S298_value>  (3) 
unknown

>  <S298_units>  (3) 
unknown

>  <Cp_T_value_list>  (3) 
unknown

>  <Cp_T_units>  (3) 
unknown

>  <T_list>  (3) 
unknown

>  <T_units>  (3) 
unknown

>  <yaml_path>  (3) 
unknown

>  <frequencies_cm1>  (3) 
unknown

>  <ZPE_kJmol>  (3) 
unknown

>  <E_elec_kJmol>  (3) 
unknown

>  <E0_minus_Eelec_plus_ZPE_kJmol>  (3) 
unknown

>  <rxn>  (3) 
unknown

>  <species_type>  (3) 
unknown

>  <species_folder>  (3) 
unknown

>  <frequencies_cm1_list>  (3) 
[]

>  <ts_imag_freq_cm1>  (3) 
-1231.6304

>  <ts_freq_out_path>  (3) 
/home/calvin/Dropbox/PersonalFolders/Calvin/ZEUS_Converged/rmg_rxn_15517/output/rxns/TS0/geometry/freq.out

>  <E0_kJmol>  (3) 
-1.3444e+06

>  <H298_kJmol>  (3) 
unknown

$$$$

     RDKit          3D

 16 15  0  0  0  0  0  0  0  0999 V2000
   -2.7163    0.6711   -0.2082 C   0  0  0  0  0  0  0  0  0  1  0  0
   -2.0604   -0.6699   -0.1371 C   0  0  0  0  0  0  0  0  0  2  0  0
   -1.8776   -1.4967   -1.1546 C   0  0  0  0  0  0  0  0  0  3  0  0
   -2.2450   -1.1612   -2.4322 O   0  0  0  0  0  0  0  0  0  4  0  0
   -2.5108   -2.3329   -3.2086 N   0  0  0  0  0  0  0  0  0  5  0  0
   -2.0229   -2.3050   -4.4233 N   0  0  0  0  0  2  0  0  0  6  0  0
   -3.9082   -2.7128   -3.0828 C   0  0  0  0  0  0  0  0  0  7  0  0
   -3.4812    0.7676    0.5653 H   0  0  0  0  0  0  0  0  0  8  0  0
   -3.1809    0.8365   -1.1792 H   0  0  0  0  0  0  0  0  0  9  0  0
   -1.9897    1.4706   -0.0417 H   0  0  0  0  0  0  0  0  0 10  0  0
   -1.6717   -0.9974    0.8197 H   0  0  0  0  0  0  0  0  0 11  0  0
   -1.3990   -2.4648   -1.0638 H   0  0  0  0  0  0  0  0  0 12  0  0
   -1.1779   -1.7364   -4.3793 H   0  0  0  0  0  0  0  0  0 13  0  0
   -4.5563   -1.9305   -3.4853 H   0  0  0  0  0  0  0  0  0 14  0  0
   -4.1357   -2.8800   -2.0315 H   0  0  0  0  0  0  0  0  0 15  0  0
   -4.0457   -3.6333   -3.6440 H   0  0  0  0  0  0  0  0  0 16  0  0
  1 10  1  0
  1  8  1  0
  1  9  1  0
  1  2  1  0
  2 11  1  0
  2  3  1  0
  3  4  1  0
  3 12  1  0
  4  5  1  0
  5  6  1  0
  5  7  1  0
  6 13  1  0
  7 14  1  0
  7 15  1  0
  7 16  1  0
M  RAD  1   6   2
M  END
>  <rmg_smiles>  (4) 
C[CH][CH]ON([NH])C

>  <rmg_adjacency_list>  (4) 
multiplicity 2
1  O u0 p2 c0 {2,S} {7,S}
2  N u0 p1 c0 {1,S} {3,S} {5,S}
3  N u1 p1 c0 {2,S} {16,S}
4  C u0 p0 c0 {6,S} {8,S} {9,S} {10,S}
5  C u0 p0 c0 {2,S} {11,S} {12,S} {13,S}
6  C u0 p0 c0 {4,S} {7,S} {14,S}
7  C u0 p0 c0 {1,S} {6,S} {15,S}
8  H u0 p0 c0 {4,S}
9  H u0 p0 c0 {4,S}
10 H u0 p0 c0 {4,S}
11 H u0 p0 c0 {5,S}
12 H u0 p0 c0 {5,S}
13 H u0 p0 c0 {5,S}
14 H u0 p0 c0 {6,S}
15 H u0 p0 c0 {7,S}
16 H u0 p0 c0 {3,S}


>  <multiplicity>  (4) 
2

>  <reaction>  (4) 
rmg_rxn_15517

>  <type>  (4) 
r1

>  <role_mapnums>  (4) 
{}

>  <role_mapidx>  (4) 
{}

>  <ordered_mapped_smiles>  (4) 
[C:1]([CH:2]([CH:3]([O:4][N:5]([N:6][H:13])[C:7]([H:14])([H:15])[H:16])[H:12])[H:11])([H:8])([H:9])[H:10]

>  <level_of_theory>  (4) 
wb97xd/def2tzvp

>  <lot_method>  (4) 
wb97xd

>  <lot_basis>  (4) 
def2tzvp

>  <spin_multiplicity>  (4) 
2.0

>  <optical_isomers>  (4) 
2.0

>  <modes>  (4) 
IdealGasTranslation(mass=(101.071, 'amu')),         NonlinearRotor(             inertia = ([82.2482, 367.276, 386.349

>  <frequency_value>  (4) 
unknown

>  <frequency_units>  (4) 
unknown

>  <frequency_list>  (4) 
unknown

>  <arkane_path>  (4) 
/home/calvin/Dropbox/PersonalFolders/Calvin/ZEUS_Converged/rmg_rxn_15517/output/Species/rmg_rxn_15517_p2_CC=CONrbr-sbr-NH-sbr-rbrC/arkane/output.py

>  <path_exists>  (4) 
True

>  <E0_value>  (4) 
-898742.9185377804

>  <E0_units>  (4) 
kJ/mol

>  <thermo_class>  (4) 
NASA

>  <Cp0_value>  (4) 
33.257888

>  <Cp0_units>  (4) 
J/(mol*K)

>  <CpInf_value>  (4) 
382.465712

>  <CpInf_units>  (4) 
J/(mol*K)

>  <Tmin_value>  (4) 
10.0

>  <Tmin_units>  (4) 
K

>  <Tmax_value>  (4) 
3000.0

>  <Tmax_units>  (4) 
K

>  <polynomials>  (4) 
[{"name": "polynomial1", "class": "NASAPolynomial", "Tmin_value": 10.0, "Tmin_units": "K", "Tmax_value": 1230.351550791476, "Tmax_units": "K", "coeffs": [3.636448192617725, 0.046012269057782156, -1.0447598723861432e-05, -9.397618320350448e-09, 4.2997715161361366e-12, -108093806.20736969, 13.356245971953898]}, {"name": "polynomial2", "class": "NASAPolynomial", "Tmin_value": 1230.351550791476, "Tmin_units": "K", "Tmax_value": 3000.0, "Tmax_units": "K", "coeffs": [10.637798077256372, 0.03762876756034826, -1.7756617991574368e-05, 4.0613531266158274e-09, -3.6506325325576807e-13, -108096617.32351352, -26.295285854594052]}]

>  <H298_value>  (4) 
-214798.71695714595

>  <H298_units>  (4) 
kcal/mol

>  <S298_value>  (4) 
93.88909266705956

>  <S298_units>  (4) 
cal/(mol*K)

>  <Cp_T_value_list>  (4) 
[32.353584800793946, 39.50241933237663, 45.9535869024618, 51.687318427953755, 61.025931419689, 67.77024327047224, 77.47619958424356, 82.5061792663907, 84.85559276208323]

>  <Cp_T_units>  (4) 
cal/(mol*K)

>  <T_list>  (4) 
[300.0, 400.0, 500.0, 600.0, 800.0, 1000.0, 1500.0, 2000.0, 2400.0]

>  <T_units>  (4) 
K

>  <yaml_path>  (4) 
/home/calvin/Dropbox/PersonalFolders/Calvin/ZEUS_Converged/rmg_rxn_15517/output/Species/rmg_rxn_15517_p2_CC=CONrbr-sbr-NH-sbr-rbrC/rmg_rxn_15517_p2_CC=CONrbr-sbr-NH-sbr-rbrC.yml

>  <frequencies_cm1>  (4) 
[39.766711988119994, 75.63297631448, 123.26238649399998, 170.50724549560002, 210.75464645612, 275.49658405307997, 409.25172411604, 436.20464149704003, 468.50694044231994, 500.21867865008005, 576.8748357772399, 635.10687129084, 759.24136492048, 839.57822617916, 939.32118795216, 961.2680730348799, 1009.44684204, 1040.7534281138799, 1058.9372052412398, 1116.31086758984, 1136.6302771517198, 1158.60463017572, 1269.5201770643598, 1302.9417946168, 1381.1704913822398, 1418.63676328816, 1428.2162078095598, 1447.1828212633998, 1467.8867820031996, 1473.94346305544, 1477.12974424392, 1484.2920099326798, 1743.06061774624, 3013.6108426086, 3018.15678689044, 3068.4780553153996, 3106.953774063359, 3110.6619461361597, 3147.0088994349203, 3149.9479691518795, 3171.6476427630796, 3452.55541124832]

>  <ZPE_kJmol>  (4) 
347.3638170215182

>  <E_elec_kJmol>  (4) 
-899090.2823548019

>  <E0_minus_Eelec_plus_ZPE_kJmol>  (4) 
0.0

>  <rxn>  (4) 
rmg_rxn_15517

>  <species_type>  (4) 
p1

>  <species_folder>  (4) 
rmg_rxn_15517_p2_CC=CONrbr-sbr-NH-sbr-rbrC

>  <frequencies_cm1_list>  (4) 
[39.766711988119994, 75.63297631448, 123.26238649399998, 170.50724549560002, 210.75464645612, 275.49658405307997, 409.25172411604, 436.20464149704003, 468.50694044231994, 500.21867865008005, 576.8748357772399, 635.10687129084, 759.24136492048, 839.57822617916, 939.32118795216, 961.2680730348799, 1009.44684204, 1040.7534281138799, 1058.9372052412398, 1116.31086758984, 1136.6302771517198, 1158.60463017572, 1269.5201770643598, 1302.9417946168, 1381.1704913822398, 1418.63676328816, 1428.2162078095598, 1447.1828212633998, 1467.8867820031996, 1473.94346305544, 1477.12974424392, 1484.2920099326798, 1743.06061774624, 3013.6108426086, 3018.15678689044, 3068.4780553153996, 3106.953774063359, 3110.6619461361597, 3147.0088994349203, 3149.9479691518795, 3171.6476427630796, 3452.55541124832]

>  <E0_kJmol>  (4) 
-898743

>  <H298_kJmol>  (4) 
-898718

$$$$

     RDKit          3D

  5  4  0  0  0  0  0  0  0  0999 V2000
    0.8934    0.3742    0.4948 O   0  0  0  0  0  0  0  0  0  1  0  0
    0.1582   -0.1610   -0.5904 N   0  0  0  0  0  0  0  0  0  2  0  0
   -1.0297   -0.3739   -0.4689 C   0  0  0  0  0  3  0  0  0  3  0  0
    1.7804    0.4382    0.1306 H   0  0  0  0  0  0  0  0  0  4  0  0
   -1.8023   -0.2775    0.2859 H   0  0  0  0  0  0  0  0  0  5  0  0
  1  4  1  0
  1  2  1  0
  2  3  1  0
  3  5  1  0
M  RAD  1   3   2
M  END
>  <rmg_smiles>  (5) 
[CH][N]O

>  <rmg_adjacency_list>  (5) 
multiplicity 2
1 O u0 p2 c0 {2,S} {4,S}
2 N u0 p1 c0 {1,S} {3,S}
3 C u1 p1 c0 {2,S} {5,S}
4 H u0 p0 c0 {1,S}
5 H u0 p0 c0 {3,S}


>  <multiplicity>  (5) 
2

>  <reaction>  (5) 
rmg_rxn_15517

>  <type>  (5) 
r2

>  <role_mapnums>  (5) 
{}

>  <role_mapidx>  (5) 
{}

>  <ordered_mapped_smiles>  (5) 
[O:1]([NH:2][CH:3][H:5])[H:4]

>  <level_of_theory>  (5) 
wb97xd/def2tzvp

>  <lot_method>  (5) 
wb97xd

>  <lot_basis>  (5) 
def2tzvp

>  <spin_multiplicity>  (5) 
2.0

>  <optical_isomers>  (5) 
1.0

>  <modes>  (5) 
IdealGasTranslation(mass=(44.0136, 'amu')),         NonlinearRotor(inertia=([5.8161, 41.482, 47.298

>  <frequency_value>  (5) 
unknown

>  <frequency_units>  (5) 
unknown

>  <frequency_list>  (5) 
unknown

>  <arkane_path>  (5) 
/home/calvin/Dropbox/PersonalFolders/Calvin/ZEUS_Converged/rmg_rxn_15517/output/Species/rmg_rxn_15517_r1_ON=sbr-CH-sbr/arkane/output.py

>  <path_exists>  (5) 
True

>  <E0_value>  (5) 
-444005.3444875403

>  <E0_units>  (5) 
kJ/mol

>  <thermo_class>  (5) 
NASA

>  <Cp0_value>  (5) 
33.257888

>  <Cp0_units>  (5) 
J/(mol*K)

>  <CpInf_value>  (5) 
108.088136

>  <CpInf_units>  (5) 
J/(mol*K)

>  <Tmin_value>  (5) 
10.0

>  <Tmin_units>  (5) 
K

>  <Tmax_value>  (5) 
3000.0

>  <Tmax_units>  (5) 
K

>  <polynomials>  (5) 
[{"name": "polynomial1", "class": "NASAPolynomial", "Tmin_value": 10.0, "Tmin_units": "K", "Tmax_value": 582.3897944984312, "Tmax_units": "K", "coeffs": [3.9652725251487997, 0.0020023225588121428, 4.0599056262928875e-05, -7.75899274364692e-08, 4.4513181050887496e-11, -53401506.385814846, 6.827044892789236]}, {"name": "polynomial2", "class": "NASAPolynomial", "Tmin_value": 582.3897944984312, "Tmin_units": "K", "Tmax_value": 3000.0, "Tmax_units": "K", "coeffs": [3.5772944330084147, 0.012861032030441071, -8.472942585347425e-06, 2.741567682664952e-09, -3.4073253039207466e-13, -53401600.15572128, 7.296045717872725]}]

>  <H298_value>  (5) 
-106116.8465159924

>  <H298_units>  (5) 
kcal/mol

>  <S298_value>  (5) 
62.04111940413777

>  <S298_units>  (5) 
cal/(mol*K)

>  <Cp_T_value_list>  (5) 
[12.888053758950505, 14.776534941782554, 16.29416082392464, 17.47087173516364, 19.290917222749155, 20.599817847495114, 22.5201252902908, 23.62472390428687, 24.312211768096834]

>  <Cp_T_units>  (5) 
cal/(mol*K)

>  <T_list>  (5) 
[300.0, 400.0, 500.0, 600.0, 800.0, 1000.0, 1500.0, 2000.0, 2400.0]

>  <T_units>  (5) 
K

>  <yaml_path>  (5) 
/home/calvin/Dropbox/PersonalFolders/Calvin/ZEUS_Converged/rmg_rxn_15517/output/Species/rmg_rxn_15517_r1_ON=sbr-CH-sbr/rmg_rxn_15517_r1_ON=sbr-CH-sbr.yml

>  <frequencies_cm1>  (5) 
[408.41395190699996, 412.06718809724, 739.15543285948, 761.7272136063199, 904.39570061464, 1348.7789216278, 1755.3113195571198, 3153.319658944, 3818.4558570392]

>  <ZPE_kJmol>  (5) 
79.5614101222066

>  <E_elec_kJmol>  (5) 
-444084.9058976625

>  <E0_minus_Eelec_plus_ZPE_kJmol>  (5) 
0.0

>  <rxn>  (5) 
rmg_rxn_15517

>  <species_type>  (5) 
r0

>  <species_folder>  (5) 
rmg_rxn_15517_r1_ON=sbr-CH-sbr

>  <frequencies_cm1_list>  (5) 
[408.41395190699996, 412.06718809724, 739.15543285948, 761.7272136063199, 904.39570061464, 1348.7789216278, 1755.3113195571198, 3153.319658944, 3818.4558570392]

>  <E0_kJmol>  (5) 
-444005

>  <H298_kJmol>  (5) 
-443993

$$$$
