
     RDKit          3D

  8  7  0  0  0  0  0  0  0  0999 V2000
   -0.4036   -0.3214   -1.1599 C   0  0  0  0  0  0  0  0  0  1  0  0
   -0.2318   -0.1779    0.3215 C   0  0  0  0  0  0  0  0  0  2  0  0
    0.6696    0.5314    0.8327 N   0  0  0  0  0  0  0  0  0  3  0  0
   -0.3112   -1.3742   -1.4370 H   0  0  0  0  0  0  0  0  0  4  0  0
   -1.4035    0.0059   -1.4542 H   0  0  0  0  0  0  0  0  0  5  0  0
    0.3424    0.2638   -1.6945 H   0  0  0  0  0  0  0  0  0  6  0  0
   -0.9348   -0.7481    0.9426 H   0  0  0  0  0  0  0  0  0  7  0  0
    0.5847    0.4323    1.8645 H   0  0  0  0  0  0  0  0  0  8  0  0
  1  5  1  0
  1  4  1  0
  1  6  1  0
  1  2  1  0
  2  3  1  0
  2  7  1  0
  3  8  1  0
M  END
>  <rmg_smiles>  (1) 
C[CH][NH]

>  <rmg_adjacency_list>  (1) 
1 N u0 p1 c0 {3,S} {8,S}
2 C u0 p0 c0 {3,S} {4,S} {5,S} {6,S}
3 C u0 p0 c0 {1,S} {2,S} {7,S}
4 H u0 p0 c0 {2,S}
5 H u0 p0 c0 {2,S}
6 H u0 p0 c0 {2,S}
7 H u0 p0 c0 {3,S}
8 H u0 p0 c0 {1,S}


>  <multiplicity>  (1) 
1

>  <reaction>  (1) 
rmg_rxn_16731

>  <type>  (1) 
r1h

>  <role_mapnums>  (1) 
{"r1h_a": 3, "r1h_h": 8}

>  <role_mapidx>  (1) 
{"r1h_a": 2, "r1h_h": 7}

>  <ordered_mapped_smiles>  (1) 
[C:1]([CH:2]([NH:3][H:8])[H:7])([H:4])([H:5])[H:6]

>  <mol_properties>  (1) 
{"2": {"label": "donator", "atom_type": "N3s"}, "7": {"label": "d_hydrogen", "atom_type": "H0"}}

>  <level_of_theory>  (1) 
wb97xd/def2tzvp

>  <lot_method>  (1) 
wb97xd

>  <lot_basis>  (1) 
def2tzvp

>  <spin_multiplicity>  (1) 
1.0

>  <optical_isomers>  (1) 
1.0

>  <modes>  (1) 
IdealGasTranslation(mass=(43.0422, 'amu')),         NonlinearRotor(             inertia = ([9.32783, 51.3348, 57.5532

>  <frequency_value>  (1) 
unknown

>  <frequency_units>  (1) 
unknown

>  <frequency_list>  (1) 
unknown

>  <arkane_path>  (1) 
/home/calvin/Dropbox/PersonalFolders/Calvin/ZEUS_Converged/rmg_rxn_16731/output/Species/rmg_rxn_16731_r1_CC=N/arkane/output.py

>  <path_exists>  (1) 
True

>  <E0_value>  (1) 
-351535.20335661684

>  <E0_units>  (1) 
kJ/mol

>  <thermo_class>  (1) 
NASA

>  <Cp0_value>  (1) 
33.257888

>  <Cp0_units>  (1) 
J/(mol*K)

>  <CpInf_value>  (1) 
182.918384

>  <CpInf_units>  (1) 
J/(mol*K)

>  <Tmin_value>  (1) 
10.0

>  <Tmin_units>  (1) 
K

>  <Tmax_value>  (1) 
3000.0

>  <Tmax_units>  (1) 
K

>  <polynomials>  (1) 
[{"name": "polynomial1", "class": "NASAPolynomial", "Tmin_value": 10.0, "Tmin_units": "K", "Tmax_value": 834.0183041901832, "Tmax_units": "K", "coeffs": [4.020859284868709, 0.0012406595733239277, 4.4482903010182226e-05, -5.482114439751344e-08, 2.0739201558559772e-11, -42279921.71645892, 6.726586383468645]}, {"name": "polynomial2", "class": "NASAPolynomial", "Tmin_value": 834.0183041901832, "Tmin_units": "K", "Tmax_value": 3000.0, "Tmax_units": "K", "coeffs": [0.8146767610859666, 0.025012560508124084, -1.3369721411120483e-05, 3.4917002293006827e-09, -3.579375529269218e-13, -42279678.881200545, 19.862274208798944]}]

>  <H298_value>  (1) 
-84015.86036687854

>  <H298_units>  (1) 
kcal/mol

>  <S298_value>  (1) 
62.66843297179497

>  <S298_units>  (1) 
cal/(mol*K)

>  <Cp_T_value_list>  (1) 
[14.078036689508782, 17.202765604471058, 20.2803800489589, 23.1023356383003, 27.639649626797436, 30.983090061901617, 36.21499785066487, 38.88468928045463, 40.19916387517873]

>  <Cp_T_units>  (1) 
cal/(mol*K)

>  <T_list>  (1) 
[300.0, 400.0, 500.0, 600.0, 800.0, 1000.0, 1500.0, 2000.0, 2400.0]

>  <T_units>  (1) 
K

>  <yaml_path>  (1) 
/home/calvin/Dropbox/PersonalFolders/Calvin/ZEUS_Converged/rmg_rxn_16731/output/Species/rmg_rxn_16731_r1_CC=N/rmg_rxn_16731_r1_CC=N.yml

>  <frequencies_cm1>  (1) 
[185.42920459596, 489.9250676554, 680.6761858743599, 921.32968641376, 1055.89513074448, 1069.62910138448, 1130.4431233784, 1267.5150173509198, 1378.7876474762, 1425.071128533, 1456.56312321052, 1463.3683056626398, 1737.36788691596, 2989.2124437666403, 3014.6889593038395, 3075.43431144456, 3123.3452680222, 3455.8927661138396]

>  <ZPE_kJmol>  (1) 
178.96482902382195

>  <E_elec_kJmol>  (1) 
-351714.16818564065

>  <E0_minus_Eelec_plus_ZPE_kJmol>  (1) 
0.0

>  <rxn>  (1) 
rmg_rxn_16731

>  <species_type>  (1) 
r0

>  <species_folder>  (1) 
rmg_rxn_16731_r1_CC=N

>  <frequencies_cm1_list>  (1) 
[185.42920459596, 489.9250676554, 680.6761858743599, 921.32968641376, 1055.89513074448, 1069.62910138448, 1130.4431233784, 1267.5150173509198, 1378.7876474762, 1425.071128533, 1456.56312321052, 1463.3683056626398, 1737.36788691596, 2989.2124437666403, 3014.6889593038395, 3075.43431144456, 3123.3452680222, 3455.8927661138396]

>  <E0_kJmol>  (1) 
-351535

>  <H298_kJmol>  (1) 
-351522

$$$$

     RDKit          3D

 14 13  0  0  0  0  0  0  0  0999 V2000
   -0.1689    2.2923   -0.3738 H   0  0  0  0  0  0  0  0  0  1  0  0
   -0.4302    2.0757    0.6622 C   0  0  0  0  0  0  0  0  0  2  0  0
   -0.7837    0.7479    0.8150 O   0  0  0  0  0  0  0  0  0  3  0  0
    0.2789   -0.1385    0.9759 C   0  0  0  0  0  0  0  0  0  4  0  0
    1.0525   -0.3118   -0.1779 O   0  0  0  0  0  0  0  0  0  5  0  0
    0.5525   -1.0733   -1.1792 C   0  0  0  0  0  0  0  0  0  6  0  0
   -0.6638   -1.5896   -1.2906 C   0  0  0  0  0  0  0  0  0  7  0  0
   -1.2937    2.7071    0.8554 H   0  0  0  0  0  0  0  0  0  8  0  0
    0.4658    2.3621    1.2196 H   0  0  0  0  0  0  0  0  0  9  0  0
   -0.1590   -1.0893    1.2877 H   0  0  0  0  0  0  0  0  0 10  0  0
    0.9769    0.2364    1.7295 H   0  0  0  0  0  0  0  0  0 11  0  0
    1.3113   -1.2258   -1.9365 H   0  0  0  0  0  0  0  0  0 12  0  0
   -0.8849   -2.2054   -2.1501 H   0  0  0  0  0  0  0  0  0 13  0  0
   -1.4548   -1.4150   -0.5753 H   0  0  0  0  0  0  0  0  0 14  0  0
  1  2  1  0
  2  9  1  0
  2  8  1  0
  2  3  1  0
  3  4  1  0
  4 11  1  0
  4 10  1  0
  4  5  1  0
  5  6  1  0
  6  7  1  0
  6 12  1  0
  7 13  1  0
  7 14  1  0
M  END
>  <rmg_smiles>  (2) 
[CH2][CH]OCOC

>  <rmg_adjacency_list>  (2) 
1  O u0 p2 c0 {3,S} {4,S}
2  O u0 p2 c0 {3,S} {5,S}
3  C u0 p0 c0 {1,S} {2,S} {7,S} {8,S}
4  C u0 p0 c0 {1,S} {9,S} {10,S} {11,S}
5  C u0 p0 c0 {2,S} {6,S} {12,S}
6  C u0 p0 c0 {5,S} {13,S} {14,S}
7  H u0 p0 c0 {3,S}
8  H u0 p0 c0 {3,S}
9  H u0 p0 c0 {4,S}
10 H u0 p0 c0 {4,S}
11 H u0 p0 c0 {4,S}
12 H u0 p0 c0 {5,S}
13 H u0 p0 c0 {6,S}
14 H u0 p0 c0 {6,S}


>  <multiplicity>  (2) 
1

>  <reaction>  (2) 
rmg_rxn_16731

>  <type>  (2) 
r2h

>  <role_mapnums>  (2) 
{"r2h_a": 2, "r2h_h": 1}

>  <role_mapidx>  (2) 
{"r2h_a": 1, "r2h_h": 0}

>  <ordered_mapped_smiles>  (2) 
[H:1][C:2]([O:3][C:4]([O:5][CH:6]([CH:7]([H:13])[H:14])[H:12])([H:10])[H:11])([H:8])[H:9]

>  <mol_properties>  (2) 
{"0": {"label": "a_hydrogen", "atom_type": "H0"}, "1": {"label": "acceptor", "atom_type": "Cs"}}

>  <level_of_theory>  (2) 
wb97xd/def2tzvp

>  <lot_method>  (2) 
wb97xd

>  <lot_basis>  (2) 
def2tzvp

>  <spin_multiplicity>  (2) 
1.0

>  <optical_isomers>  (2) 
2.0

>  <modes>  (2) 
IdealGasTranslation(mass=(88.0524, 'amu')),         NonlinearRotor(inertia=([74.6, 207.265, 226.772

>  <frequency_value>  (2) 
unknown

>  <frequency_units>  (2) 
unknown

>  <frequency_list>  (2) 
unknown

>  <arkane_path>  (2) 
/home/calvin/Dropbox/PersonalFolders/Calvin/ZEUS_Converged/rmg_rxn_16731/output/Species/rmg_rxn_16731_p2_C=COCOC/arkane/output.py

>  <path_exists>  (2) 
True

>  <E0_value>  (2) 
-807464.8692773131

>  <E0_units>  (2) 
kJ/mol

>  <thermo_class>  (2) 
NASA

>  <Cp0_value>  (2) 
33.257888

>  <Cp0_units>  (2) 
J/(mol*K)

>  <CpInf_value>  (2) 
332.57888

>  <CpInf_units>  (2) 
J/(mol*K)

>  <Tmin_value>  (2) 
10.0

>  <Tmin_units>  (2) 
K

>  <Tmax_value>  (2) 
3000.0

>  <Tmax_units>  (2) 
K

>  <polynomials>  (2) 
[{"name": "polynomial1", "class": "NASAPolynomial", "Tmin_value": 10.0, "Tmin_units": "K", "Tmax_value": 1126.322217082228, "Tmax_units": "K", "coeffs": [3.8695009715898734, 0.028498370923579583, 1.702204581962229e-05, -3.0641721490768154e-08, 1.0501478828757013e-11, -97115598.34059127, 10.802000825127106]}, {"name": "polynomial2", "class": "NASAPolynomial", "Tmin_value": 1126.322217082228, "Tmin_units": "K", "Tmax_value": 3000.0, "Tmax_units": "K", "coeffs": [6.6832996486708485, 0.036558954023596386, -1.7755798377607594e-05, 4.174165742581221e-09, -3.8503179432622687e-13, -97117377.32166298, -8.19117627442157]}]

>  <H298_value>  (2) 
-192983.7541683184

>  <H298_units>  (2) 
kcal/mol

>  <S298_value>  (2) 
83.15593660548997

>  <S298_units>  (2) 
cal/(mol*K)

>  <Cp_T_value_list>  (2) 
[26.248477842824045, 32.39175282831716, 38.15501091629452, 43.3982844934546, 52.01543094609469, 58.12514441573683, 66.98827460021275, 71.5609582964223, 73.68686306629188]

>  <Cp_T_units>  (2) 
cal/(mol*K)

>  <T_list>  (2) 
[300.0, 400.0, 500.0, 600.0, 800.0, 1000.0, 1500.0, 2000.0, 2400.0]

>  <T_units>  (2) 
K

>  <yaml_path>  (2) 
/home/calvin/Dropbox/PersonalFolders/Calvin/ZEUS_Converged/rmg_rxn_16731/output/Species/rmg_rxn_16731_p2_C=COCOC/rmg_rxn_16731_p2_C=COCOC.yml

>  <frequencies_cm1>  (2) 
[74.04670270556, 138.48649294843997, 165.9063653312, 221.56328134979998, 286.20908115227996, 409.34786191051995, 520.22220688724, 668.65896156436, 725.4145952341601, 872.38868203812, 904.47123745316, 964.57795995912, 1001.1995926706799, 1023.65463466708, 1124.2216346784799, 1173.32057971648, 1192.9807586876398, 1223.71738497996, 1242.86254005212, 1330.47153876468, 1353.0501864968398, 1415.64275768864, 1444.00340706024, 1470.2558919386001, 1478.18039299788, 1491.75642297552, 1501.1229909519998, 1698.2672725038801, 2978.5205476233996, 2998.8330901999593, 3051.1320503970796, 3063.76730338588, 3117.3572568231602, 3151.18402650948, 3170.4459203320794, 3245.9552909107997]

>  <ZPE_kJmol>  (2) 
310.3903354231273

>  <E_elec_kJmol>  (2) 
-807775.2596127363

>  <E0_minus_Eelec_plus_ZPE_kJmol>  (2) 
0.0

>  <rxn>  (2) 
rmg_rxn_16731

>  <species_type>  (2) 
p1

>  <species_folder>  (2) 
rmg_rxn_16731_p2_C=COCOC

>  <frequencies_cm1_list>  (2) 
[74.04670270556, 138.48649294843997, 165.9063653312, 221.56328134979998, 286.20908115227996, 409.34786191051995, 520.22220688724, 668.65896156436, 725.4145952341601, 872.38868203812, 904.47123745316, 964.57795995912, 1001.1995926706799, 1023.65463466708, 1124.2216346784799, 1173.32057971648, 1192.9807586876398, 1223.71738497996, 1242.86254005212, 1330.47153876468, 1353.0501864968398, 1415.64275768864, 1444.00340706024, 1470.2558919386001, 1478.18039299788, 1491.75642297552, 1501.1229909519998, 1698.2672725038801, 2978.5205476233996, 2998.8330901999593, 3051.1320503970796, 3063.76730338588, 3117.3572568231602, 3151.18402650948, 3170.4459203320794, 3245.9552909107997]

>  <E0_kJmol>  (2) 
-807465

>  <H298_kJmol>  (2) 
-807444

$$$$

     RDKit          3D

 21 19  0  0  0  0  0  0  0  0999 V2000
   -0.7646    0.9535   -2.9591 C   0  0  0  0  0  0  0  0  0  1  0  0
   -0.5928    1.0969   -1.4778 C   0  0  0  0  0  0  0  0  0  2  0  0
    0.3086    1.8063   -0.9666 N   0  0  0  0  0  0  0  0  0  3  0  0
   -0.6722   -0.0993   -3.2363 H   0  0  0  0  0  0  0  0  0  4  0  0
   -1.7646    1.2808   -3.2534 H   0  0  0  0  0  0  0  0  0  5  0  0
   -0.0186    1.5387   -3.4938 H   0  0  0  0  0  0  0  0  0  6  0  0
   -1.2958    0.5268   -0.8567 H   0  0  0  0  0  0  0  0  0  7  0  0
    0.2079    1.6887    0.2572 H   0  0  0  0  0  0  0  0  0  8  0  0
   -0.1205    1.4164    1.5594 C   0  0  0  0  0  3  0  0  0  9  0  0
   -0.4741    0.0886    1.7122 O   0  0  0  0  0  0  0  0  0 10  0  0
    0.5886   -0.7977    1.8731 C   0  0  0  0  0  0  0  0  0 11  0  0
    1.3622   -0.9710    0.7193 O   0  0  0  0  0  0  0  0  0 12  0  0
    0.8622   -1.7325   -0.2820 C   0  0  0  0  0  0  0  0  0 13  0  0
   -0.3542   -2.2488   -0.3934 C   0  0  0  0  0  0  0  0  0 14  0  0
   -0.9840    2.0478    1.7526 H   0  0  0  0  0  0  0  0  0 15  0  0
    0.7755    1.7028    2.1168 H   0  0  0  0  0  0  0  0  0 16  0  0
    0.1506   -1.7485    2.1849 H   0  0  0  0  0  0  0  0  0 17  0  0
    1.2865   -0.4228    2.6267 H   0  0  0  0  0  0  0  0  0 18  0  0
    1.6210   -1.8851   -1.0393 H   0  0  0  0  0  0  0  0  0 19  0  0
   -0.5752   -2.8647   -1.2529 H   0  0  0  0  0  0  0  0  0 20  0  0
   -1.1452   -2.0743    0.3219 H   0  0  0  0  0  0  0  0  0 21  0  0
  1  4  1  0
  1  5  1  0
  1  6  1  0
  1  2  1  0
  2  3  1  0
  2  7  1  0
  3  8  1  0
  9 10  1  0
  9 16  1  0
  9 15  1  0
 10 11  1  0
 11 12  1  0
 11 17  1  0
 11 18  1  0
 12 13  1  0
 13 19  1  0
 13 14  1  0
 14 20  1  0
 14 21  1  0
M  RAD  1   9   2
M  END
>  <rmg_smiles>  (3) 
[CH2]OCO[CH][CH2].C[CH][NH]

>  <rmg_adjacency_list>  (3) 
multiplicity 2
1  O u0 p2 c0 {4,S} {7,S}
2  O u0 p2 c0 {4,S} {9,S}
3  N u0 p1 c0 {6,S} {21,S}
4  C u0 p0 c0 {1,S} {2,S} {13,S} {14,S}
5  C u0 p0 c0 {6,S} {10,S} {11,S} {12,S}
6  C u0 p0 c0 {3,S} {5,S} {15,S}
7  C u0 p0 c0 {1,S} {8,S} {16,S}
8  C u0 p0 c0 {7,S} {17,S} {18,S}
9  C u1 p0 c0 {2,S} {19,S} {20,S}
10 H u0 p0 c0 {5,S}
11 H u0 p0 c0 {5,S}
12 H u0 p0 c0 {5,S}
13 H u0 p0 c0 {4,S}
14 H u0 p0 c0 {4,S}
15 H u0 p0 c0 {6,S}
16 H u0 p0 c0 {7,S}
17 H u0 p0 c0 {8,S}
18 H u0 p0 c0 {8,S}
19 H u0 p0 c0 {9,S}
20 H u0 p0 c0 {9,S}
21 H u0 p0 c0 {3,S}


>  <multiplicity>  (3) 
2

>  <reaction>  (3) 
rmg_rxn_16731

>  <type>  (3) 
ts

>  <role_mapnums>  (3) 
{"*2": 8, "*1": 3, "*3": 9, "*0": 2, "*4": 10}

>  <role_mapidx>  (3) 
{"*2": 7, "*1": 2, "*3": 8, "*0": 1, "*4": 9}

>  <ordered_mapped_smiles>  (3) 
[C:1]([CH:2]([NH:3][H:8])[H:7])([H:4])([H:5])[H:6].[C:9]([O:10][C:11]([O:12][CH:13]([CH:14]([H:20])[H:21])[H:19])([H:17])[H:18])([H:15])[H:16]

>  <mol_properties>  (3) 
{"1": {"label": "*0", "atom_type": "Cs"}, "2": {"label": "*1", "atom_type": "N3s"}, "7": {"label": "*2", "atom_type": "H0"}, "8": {"label": "*3", "atom_type": "Cs"}, "9": {"label": "*4", "atom_type": "O2s"}}

>  <level_of_theory>  (3) 
wb97xd/def2tzvp

>  <lot_method>  (3) 
wb97xd

>  <lot_basis>  (3) 
def2tzvp

>  <spin_multiplicity>  (3) 
2.0

>  <optical_isomers>  (3) 
2.0

>  <modes>  (3) 
IdealGasTranslation(mass=(130.087, 'amu')),         NonlinearRotor(             inertia = ([268.409, 435.822, 597.502

>  <frequency_value>  (3) 
-1875.73

>  <frequency_units>  (3) 
cm^-1

>  <frequency_list>  (3) 
unknown

>  <arkane_path>  (3) 
/home/calvin/Dropbox/PersonalFolders/Calvin/ZEUS_Converged/rmg_rxn_16731/output/rxns/TS0/arkane/output.py

>  <path_exists>  (3) 
True

>  <E0_value>  (3) 
-1157260.0

>  <E0_units>  (3) 
kJ/mol

>  <thermo_class>  (3) 
unknown

>  <Cp0_value>  (3) 
unknown

>  <Cp0_units>  (3) 
unknown

>  <CpInf_value>  (3) 
unknown

>  <CpInf_units>  (3) 
unknown

>  <Tmin_value>  (3) 
unknown

>  <Tmin_units>  (3) 
unknown

>  <Tmax_value>  (3) 
unknown

>  <Tmax_units>  (3) 
unknown

>  <polynomials>  (3) 
unknown

>  <H298_value>  (3) 
unknown

>  <H298_units>  (3) 
unknown

>  <S298_value>  (3) 
unknown

>  <S298_units>  (3) 
unknown

>  <Cp_T_value_list>  (3) 
unknown

>  <Cp_T_units>  (3) 
unknown

>  <T_list>  (3) 
unknown

>  <T_units>  (3) 
unknown

>  <yaml_path>  (3) 
unknown

>  <frequencies_cm1>  (3) 
unknown

>  <ZPE_kJmol>  (3) 
unknown

>  <E_elec_kJmol>  (3) 
unknown

>  <E0_minus_Eelec_plus_ZPE_kJmol>  (3) 
unknown

>  <rxn>  (3) 
unknown

>  <species_type>  (3) 
unknown

>  <species_folder>  (3) 
unknown

>  <frequencies_cm1_list>  (3) 
[]

>  <ts_imag_freq_cm1>  (3) 
-1898.5171

>  <ts_freq_out_path>  (3) 
/home/calvin/Dropbox/PersonalFolders/Calvin/ZEUS_Converged/rmg_rxn_16731/output/rxns/TS0/geometry/freq.out

>  <E0_kJmol>  (3) 
-1.15726e+06

>  <H298_kJmol>  (3) 
unknown

$$$$

     RDKit          3D

  7  6  0  0  0  0  0  0  0  0999 V2000
   -0.6441   -0.1356    0.0624 C   0  0  0  0  0  0  0  0  0  1  0  0
    0.8523    0.0148   -0.0333 C   0  0  0  0  0  0  0  0  0  2  0  0
    1.6700   -0.6077    0.6603 N   0  0  0  0  0  2  0  0  0  3  0  0
   -1.0940    0.8275    0.3091 H   0  0  0  0  0  0  0  0  0  4  0  0
   -0.9104   -0.8656    0.8237 H   0  0  0  0  0  0  0  0  0  5  0  0
   -1.0427   -0.4545   -0.9022 H   0  0  0  0  0  0  0  0  0  6  0  0
    1.2362    0.7308   -0.7748 H   0  0  0  0  0  0  0  0  0  7  0  0
  1  5  1  0
  1  4  1  0
  1  6  1  0
  1  2  1  0
  2  3  1  0
  2  7  1  0
M  RAD  1   3   2
M  END
>  <rmg_smiles>  (4) 
C[CH][N]

>  <rmg_adjacency_list>  (4) 
multiplicity 2
1 N u1 p2 c0 {3,S}
2 C u0 p0 c0 {3,S} {4,S} {5,S} {6,S}
3 C u0 p0 c0 {1,S} {2,S} {7,S}
4 H u0 p0 c0 {2,S}
5 H u0 p0 c0 {2,S}
6 H u0 p0 c0 {2,S}
7 H u0 p0 c0 {3,S}


>  <multiplicity>  (4) 
2

>  <reaction>  (4) 
rmg_rxn_16731

>  <type>  (4) 
r1

>  <role_mapnums>  (4) 
{}

>  <role_mapidx>  (4) 
{}

>  <ordered_mapped_smiles>  (4) 
[C:1]([CH:2]([NH:3])[H:7])([H:4])([H:5])[H:6]

>  <level_of_theory>  (4) 
wb97xd/def2tzvp

>  <lot_method>  (4) 
wb97xd

>  <lot_basis>  (4) 
def2tzvp

>  <spin_multiplicity>  (4) 
2.0

>  <optical_isomers>  (4) 
1.0

>  <modes>  (4) 
IdealGasTranslation(mass=(42.0344, 'amu')),         NonlinearRotor(             inertia = ([8.81492, 48.174, 53.8511

>  <frequency_value>  (4) 
unknown

>  <frequency_units>  (4) 
unknown

>  <frequency_list>  (4) 
unknown

>  <arkane_path>  (4) 
/home/calvin/Dropbox/PersonalFolders/Calvin/ZEUS_Converged/rmg_rxn_16731/output/Species/rmg_rxn_16731_p1_CC=sbr-N-sbr/arkane/output.py

>  <path_exists>  (4) 
True

>  <E0_value>  (4) 
-349854.82234455534

>  <E0_units>  (4) 
kJ/mol

>  <thermo_class>  (4) 
NASA

>  <Cp0_value>  (4) 
33.257888

>  <Cp0_units>  (4) 
J/(mol*K)

>  <CpInf_value>  (4) 
157.97496800000002

>  <CpInf_units>  (4) 
J/(mol*K)

>  <Tmin_value>  (4) 
10.0

>  <Tmin_units>  (4) 
K

>  <Tmax_value>  (4) 
3000.0

>  <Tmax_units>  (4) 
K

>  <polynomials>  (4) 
[{"name": "polynomial1", "class": "NASAPolynomial", "Tmin_value": 10.0, "Tmin_units": "K", "Tmax_value": 503.5856077016928, "Tmax_units": "K", "coeffs": [3.976811592049577, 0.0012685228752087534, 4.786155959427562e-05, -7.554553197268183e-08, 3.869280929218241e-11, -42077814.38325793, 7.559402827950991]}, {"name": "polynomial2", "class": "NASAPolynomial", "Tmin_value": 503.5856077016928, "Tmin_units": "K", "Tmax_value": 3000.0, "Tmax_units": "K", "coeffs": [1.4688672877735052, 0.02118998940112054, -1.1479594923736429e-05, 3.0156770231218235e-09, -3.096140671693614e-13, -42077561.800061174, 17.93823402033286]}]

>  <H298_value>  (4) 
-83614.2601862362

>  <H298_units>  (4) 
kcal/mol

>  <S298_value>  (4) 
63.84640386523673

>  <S298_units>  (4) 
cal/(mol*K)

>  <Cp_T_value_list>  (4) 
[13.788413560189577, 16.48922778111735, 18.980945997388957, 21.186536551582613, 24.822448324400693, 27.593007553675324, 31.86535612271467, 33.985319854322825, 35.01227851918305]

>  <Cp_T_units>  (4) 
cal/(mol*K)

>  <T_list>  (4) 
[300.0, 400.0, 500.0, 600.0, 800.0, 1000.0, 1500.0, 2000.0, 2400.0]

>  <T_units>  (4) 
K

>  <yaml_path>  (4) 
/home/calvin/Dropbox/PersonalFolders/Calvin/ZEUS_Converged/rmg_rxn_16731/output/Species/rmg_rxn_16731_p1_CC=sbr-N-sbr/rmg_rxn_16731_p1_CC=sbr-N-sbr.yml

>  <frequencies_cm1>  (4) 
[183.94593576684, 430.87586088872, 744.9511684695599, 909.3948659275999, 1050.2642027820798, 1063.7578289358798, 1237.9320445923597, 1377.0846351168398, 1461.72709617116, 1465.6893467008, 1739.36617964408, 2963.10416558, 3026.2186276561197, 3097.525403219, 3131.35217290532]

>  <ZPE_kJmol>  (4) 
142.8532380575317

>  <E_elec_kJmol>  (4) 
-349997.67558261286

>  <E0_minus_Eelec_plus_ZPE_kJmol>  (4) 
0.0

>  <rxn>  (4) 
rmg_rxn_16731

>  <species_type>  (4) 
p0

>  <species_folder>  (4) 
rmg_rxn_16731_p1_CC=sbr-N-sbr

>  <frequencies_cm1_list>  (4) 
[183.94593576684, 430.87586088872, 744.9511684695599, 909.3948659275999, 1050.2642027820798, 1063.7578289358798, 1237.9320445923597, 1377.0846351168398, 1461.72709617116, 1465.6893467008, 1739.36617964408, 2963.10416558, 3026.2186276561197, 3097.525403219, 3131.35217290532]

>  <E0_kJmol>  (4) 
-349855

>  <H298_kJmol>  (4) 
-349842

$$$$

     RDKit          3D

 13 12  0  0  0  0  0  0  0  0999 V2000
    2.6140   -0.1760    0.1061 C   0  0  0  0  0  3  0  0  0  1  0  0
    1.7369    0.6015    0.7849 O   0  0  0  0  0  0  0  0  0  2  0  0
    0.3829    0.2955    0.5984 C   0  0  0  0  0  0  0  0  0  3  0  0
    0.0214   -0.9610    1.0915 O   0  0  0  0  0  0  0  0  0  4  0  0
   -0.0421   -1.1265    2.4384 C   0  0  0  0  0  0  0  0  0  5  0  0
    0.3542   -0.2893    3.3854 C   0  0  0  0  0  0  0  0  0  6  0  0
    3.6468    0.0574    0.3129 H   0  0  0  0  0  0  0  0  0  7  0  0
    2.2997   -1.1687   -0.1909 H   0  0  0  0  0  0  0  0  0  8  0  0
    0.1461    0.2666   -0.4670 H   0  0  0  0  0  0  0  0  0  9  0  0
   -0.1746    1.0839    1.1083 H   0  0  0  0  0  0  0  0  0 10  0  0
   -0.4863   -2.0871    2.6674 H   0  0  0  0  0  0  0  0  0 11  0  0
    0.8422    0.6530    3.1826 H   0  0  0  0  0  0  0  0  0 12  0  0
    0.2043   -0.5722    4.4170 H   0  0  0  0  0  0  0  0  0 13  0  0
  1  8  1  0
  1  7  1  0
  1  2  1  0
  2  3  1  0
  3  4  1  0
  3  9  1  0
  3 10  1  0
  4  5  1  0
  5 11  1  0
  5  6  1  0
  6 12  1  0
  6 13  1  0
M  RAD  1   1   2
M  END
>  <rmg_smiles>  (5) 
[CH2][CH]OCO[CH2]

>  <rmg_adjacency_list>  (5) 
multiplicity 2
1  O u0 p2 c0 {3,S} {4,S}
2  O u0 p2 c0 {3,S} {6,S}
3  C u0 p0 c0 {1,S} {2,S} {7,S} {8,S}
4  C u0 p0 c0 {1,S} {5,S} {9,S}
5  C u0 p0 c0 {4,S} {10,S} {11,S}
6  C u1 p0 c0 {2,S} {12,S} {13,S}
7  H u0 p0 c0 {3,S}
8  H u0 p0 c0 {3,S}
9  H u0 p0 c0 {4,S}
10 H u0 p0 c0 {5,S}
11 H u0 p0 c0 {5,S}
12 H u0 p0 c0 {6,S}
13 H u0 p0 c0 {6,S}


>  <multiplicity>  (5) 
2

>  <reaction>  (5) 
rmg_rxn_16731

>  <type>  (5) 
r2

>  <role_mapnums>  (5) 
{}

>  <role_mapidx>  (5) 
{}

>  <ordered_mapped_smiles>  (5) 
[C:1]([O:2][C:3]([O:4][CH:5]([CH:6]([H:12])[H:13])[H:11])([H:9])[H:10])([H:7])[H:8]

>  <level_of_theory>  (5) 
wb97xd/def2tzvp

>  <lot_method>  (5) 
wb97xd

>  <lot_basis>  (5) 
def2tzvp

>  <spin_multiplicity>  (5) 
2.0

>  <optical_isomers>  (5) 
2.0

>  <modes>  (5) 
IdealGasTranslation(mass=(87.0446, 'amu')),         NonlinearRotor(             inertia = ([72.7273, 199.476, 220.908

>  <frequency_value>  (5) 
unknown

>  <frequency_units>  (5) 
unknown

>  <frequency_list>  (5) 
unknown

>  <arkane_path>  (5) 
/home/calvin/Dropbox/PersonalFolders/Calvin/ZEUS_Converged/rmg_rxn_16731/output/Species/rmg_rxn_16731_r2_sbr-CH2-sbrOCOC=C/arkane/output.py

>  <path_exists>  (5) 
True

>  <E0_value>  (5) 
-805750.711592887

>  <E0_units>  (5) 
kJ/mol

>  <thermo_class>  (5) 
NASA

>  <Cp0_value>  (5) 
33.257888

>  <Cp0_units>  (5) 
J/(mol*K)

>  <CpInf_value>  (5) 
307.635464

>  <CpInf_units>  (5) 
J/(mol*K)

>  <Tmin_value>  (5) 
10.0

>  <Tmin_units>  (5) 
K

>  <Tmax_value>  (5) 
3000.0

>  <Tmax_units>  (5) 
K

>  <polynomials>  (5) 
[{"name": "polynomial1", "class": "NASAPolynomial", "Tmin_value": 10.0, "Tmin_units": "K", "Tmax_value": 795.833183974657, "Tmax_units": "K", "coeffs": [3.6724417656433466, 0.029821680697272538, 2.0678152124366964e-05, -4.852398163950526e-08, 2.215152792395944e-11, -96909423.41612482, 12.022685191557494]}, {"name": "polynomial2", "class": "NASAPolynomial", "Tmin_value": 795.833183974657, "Tmin_units": "K", "Tmax_value": 3000.0, "Tmax_units": "K", "coeffs": [3.3688646664144435, 0.042491831872105854, -2.420776744185498e-05, 6.6726121260221715e-09, -7.152020713564091e-13, -96909728.00973469, 11.200688031175948]}]

>  <H298_value>  (5) 
-192574.037039463

>  <H298_units>  (5) 
kcal/mol

>  <S298_value>  (5) 
84.18914479572827

>  <S298_units>  (5) 
cal/(mol*K)

>  <Cp_T_value_list>  (5) 
[26.527735336734747, 32.53288089472878, 37.899590906671776, 42.524714673169235, 49.66583405243175, 54.86744545512572, 62.67349468233981, 66.4901857675222, 68.41161567804997]

>  <Cp_T_units>  (5) 
cal/(mol*K)

>  <T_list>  (5) 
[300.0, 400.0, 500.0, 600.0, 800.0, 1000.0, 1500.0, 2000.0, 2400.0]

>  <T_units>  (5) 
K

>  <yaml_path>  (5) 
/home/calvin/Dropbox/PersonalFolders/Calvin/ZEUS_Converged/rmg_rxn_16731/output/Species/rmg_rxn_16731_r2_sbr-CH2-sbrOCOC=C/rmg_rxn_16731_r2_sbr-CH2-sbrOCOC=C.yml

>  <frequencies_cm1>  (5) 
[76.86216668676, 146.69940739115998, 181.7004315672, 260.23814267204, 288.06316718868, 406.52553094399997, 518.1071754086801, 574.4233220179999, 660.8031303582799, 723.2789627996399, 874.46937859008, 906.81287944728, 980.6467056079199, 1000.80817450744, 1037.944831118, 1128.2388210906797, 1214.24781222368, 1224.7336988073198, 1265.413719843, 1331.5908573718398, 1353.20126017388, 1416.0685107784798, 1439.55360057288, 1472.40525834376, 1500.951316319, 1699.97715184856, 3028.2924572227603, 3089.51163135056, 3117.30918792592, 3151.7951882029597, 3176.8665516062797, 3244.2248106101597, 3258.02058411804]

>  <ZPE_kJmol>  (5) 
273.6445664469421

>  <E_elec_kJmol>  (5) 
-806024.3561593338

>  <E0_minus_Eelec_plus_ZPE_kJmol>  (5) 
0.0

>  <rxn>  (5) 
rmg_rxn_16731

>  <species_type>  (5) 
r1

>  <species_folder>  (5) 
rmg_rxn_16731_r2_sbr-CH2-sbrOCOC=C

>  <frequencies_cm1_list>  (5) 
[76.86216668676, 146.69940739115998, 181.7004315672, 260.23814267204, 288.06316718868, 406.52553094399997, 518.1071754086801, 574.4233220179999, 660.8031303582799, 723.2789627996399, 874.46937859008, 906.81287944728, 980.6467056079199, 1000.80817450744, 1037.944831118, 1128.2388210906797, 1214.24781222368, 1224.7336988073198, 1265.413719843, 1331.5908573718398, 1353.20126017388, 1416.0685107784798, 1439.55360057288, 1472.40525834376, 1500.951316319, 1699.97715184856, 3028.2924572227603, 3089.51163135056, 3117.30918792592, 3151.7951882029597, 3176.8665516062797, 3244.2248106101597, 3258.02058411804]

>  <E0_kJmol>  (5) 
-805751

>  <H298_kJmol>  (5) 
-805730

$$$$
