
     RDKit          3D

  9  8  0  0  0  0  0  0  0  0999 V2000
   -0.9384    1.2848    0.7530 C   0  0  0  0  0  0  0  0  0  1  0  0
   -0.2717   -0.0793    0.8229 C   0  0  0  0  0  0  0  0  0  2  0  0
    0.5261   -0.5925   -0.7233 S   0  0  0  0  0  0  0  0  0  3  0  0
   -1.4172    1.5260    1.7055 H   0  0  0  0  0  0  0  0  0  4  0  0
   -1.6966    1.3044   -0.0302 H   0  0  0  0  0  0  0  0  0  5  0  0
   -0.2071    2.0631    0.5315 H   0  0  0  0  0  0  0  0  0  6  0  0
   -1.0047   -0.8586    1.0414 H   0  0  0  0  0  0  0  0  0  7  0  0
    0.4659   -0.1106    1.6277 H   0  0  0  0  0  0  0  0  0  8  0  0
    1.4470    0.3805   -0.6982 H   0  0  0  0  0  0  0  0  0  9  0  0
  1  5  1  0
  1  4  1  0
  1  6  1  0
  1  2  1  0
  2  7  1  0
  2  3  1  0
  2  8  1  0
  3  9  1  0
M  END
>  <rmg_smiles>  (1) 
CCS

>  <rmg_adjacency_list>  (1) 
1 S u0 p2 c0 {2,S} {9,S}
2 C u0 p0 c0 {1,S} {3,S} {4,S} {5,S}
3 C u0 p0 c0 {2,S} {6,S} {7,S} {8,S}
4 H u0 p0 c0 {2,S}
5 H u0 p0 c0 {2,S}
6 H u0 p0 c0 {3,S}
7 H u0 p0 c0 {3,S}
8 H u0 p0 c0 {3,S}
9 H u0 p0 c0 {1,S}


>  <multiplicity>  (1) 
1

>  <reaction>  (1) 
rmg_rxn_16496

>  <type>  (1) 
r1h

>  <role_mapnums>  (1) 
{"r1h_a": 3, "r1h_h": 9}

>  <role_mapidx>  (1) 
{"r1h_a": 2, "r1h_h": 8}

>  <ordered_mapped_smiles>  (1) 
[C:1]([C:2]([S:3][H:9])([H:7])[H:8])([H:4])([H:5])[H:6]

>  <mol_properties>  (1) 
{"2": {"label": "donator", "atom_type": "S2s"}, "8": {"label": "d_hydrogen", "atom_type": "H0"}}

>  <level_of_theory>  (1) 
wb97xd/def2tzvp

>  <lot_method>  (1) 
wb97xd

>  <lot_basis>  (1) 
def2tzvp

>  <spin_multiplicity>  (1) 
1.0

>  <optical_isomers>  (1) 
2.0

>  <modes>  (1) 
IdealGasTranslation(mass=(62.019, 'amu')),         NonlinearRotor(             inertia = ([17.3187, 95.472, 104.033

>  <frequency_value>  (1) 
unknown

>  <frequency_units>  (1) 
unknown

>  <frequency_list>  (1) 
unknown

>  <arkane_path>  (1) 
/home/calvin/Dropbox/PersonalFolders/Calvin/ZEUS_Converged/rmg_rxn_16496/output/Species/rmg_rxn_16496_r2_CCS/arkane/output.py

>  <path_exists>  (1) 
True

>  <E0_value>  (1) 
-1254880.553925724

>  <E0_units>  (1) 
kJ/mol

>  <thermo_class>  (1) 
NASA

>  <Cp0_value>  (1) 
33.257888

>  <Cp0_units>  (1) 
J/(mol*K)

>  <CpInf_value>  (1) 
207.8618

>  <CpInf_units>  (1) 
J/(mol*K)

>  <Tmin_value>  (1) 
10.0

>  <Tmin_units>  (1) 
K

>  <Tmax_value>  (1) 
3000.0

>  <Tmax_units>  (1) 
K

>  <polynomials>  (1) 
[{"name": "polynomial1", "class": "NASAPolynomial", "Tmin_value": 10.0, "Tmin_units": "K", "Tmax_value": 456.9495175798211, "Tmax_units": "K", "coeffs": [3.912577311458215, 0.0061558353642620425, 5.790382443669344e-05, -1.0305013439847405e-07, 5.821300011357851e-11, -150927266.2322309, 9.021117969035185]}, {"name": "polynomial2", "class": "NASAPolynomial", "Tmin_value": 456.9495175798211, "Tmin_units": "K", "Tmax_value": 3000.0, "Tmax_units": "K", "coeffs": [1.3558555526912288, 0.02853675717779503, -1.556510987626284e-05, 4.138069194218984e-09, -4.3071999963311006e-13, -150927032.57514724, 19.353427054946007]}]

>  <H298_value>  (1) 
-299920.1188186392

>  <H298_units>  (1) 
kcal/mol

>  <S298_value>  (1) 
69.39854649104441

>  <S298_units>  (1) 
cal/(mol*K)

>  <Cp_T_value_list>  (1) 
[17.208897881124336, 20.934361156762964, 24.290211926632683, 27.249513379196706, 32.12490107149221, 35.838975235173876, 41.58221183484122, 44.477584291142996, 45.91133114795463]

>  <Cp_T_units>  (1) 
cal/(mol*K)

>  <T_list>  (1) 
[300.0, 400.0, 500.0, 600.0, 800.0, 1000.0, 1500.0, 2000.0, 2400.0]

>  <T_units>  (1) 
K

>  <yaml_path>  (1) 
/home/calvin/Dropbox/PersonalFolders/Calvin/ZEUS_Converged/rmg_rxn_16496/output/Species/rmg_rxn_16496_r2_CCS/rmg_rxn_16496_r2_CCS.yml

>  <frequencies_cm1>  (1) 
[202.32885546847996, 256.50936964327997, 331.52431727896, 667.1482247939599, 735.969151671, 875.5955641825599, 988.159187548, 1063.6273562148, 1117.6087278153198, 1273.38628979952, 1303.10660226448, 1402.5542836687198, 1466.616389719, 1477.4456255686398, 1483.85938985752, 2700.25656848636, 3013.3430301811195, 3044.51914353392, 3080.6051513905195, 3088.40604671404, 3107.9357529641197]

>  <ZPE_kJmol>  (1) 
195.4728851436989

>  <E_elec_kJmol>  (1) 
-1255076.0268108677

>  <E0_minus_Eelec_plus_ZPE_kJmol>  (1) 
0.0

>  <rxn>  (1) 
rmg_rxn_16496

>  <species_type>  (1) 
r1

>  <species_folder>  (1) 
rmg_rxn_16496_r2_CCS

>  <frequencies_cm1_list>  (1) 
[202.32885546847996, 256.50936964327997, 331.52431727896, 667.1482247939599, 735.969151671, 875.5955641825599, 988.159187548, 1063.6273562148, 1117.6087278153198, 1273.38628979952, 1303.10660226448, 1402.5542836687198, 1466.616389719, 1477.4456255686398, 1483.85938985752, 2700.25656848636, 3013.3430301811195, 3044.51914353392, 3080.6051513905195, 3088.40604671404, 3107.9357529641197]

>  <E0_kJmol>  (1) 
-1.25488e+06

>  <H298_kJmol>  (1) 
-1.25487e+06

$$$$

     RDKit          3D

  8  7  0  0  0  0  0  0  0  0999 V2000
    0.3914   -0.9599    0.7377 C   0  0  0  0  0  0  0  0  0  1  0  0
    0.2567    0.3516    0.0227 C   0  0  0  0  0  0  0  0  0  2  0  0
   -0.6125    0.7283   -0.7913 N   0  0  0  0  0  0  0  0  0  3  0  0
   -0.3814   -1.6593    0.4249 H   0  0  0  0  0  0  0  0  0  4  0  0
    0.3305   -0.7889    1.8146 H   0  0  0  0  0  0  0  0  0  5  0  0
    1.3775   -1.3802    0.5318 H   0  0  0  0  0  0  0  0  0  6  0  0
    1.0346    1.0965    0.2421 H   0  0  0  0  0  0  0  0  0  7  0  0
   -1.3629    0.0430   -1.0123 H   0  0  0  0  0  0  0  0  0  8  0  0
  1  5  1  0
  1  4  1  0
  1  6  1  0
  1  2  1  0
  2  3  1  0
  2  7  1  0
  3  8  1  0
M  END
>  <rmg_smiles>  (2) 
C[CH][NH]

>  <rmg_adjacency_list>  (2) 
1 N u0 p1 c0 {3,S} {8,S}
2 C u0 p0 c0 {3,S} {4,S} {5,S} {6,S}
3 C u0 p0 c0 {1,S} {2,S} {7,S}
4 H u0 p0 c0 {2,S}
5 H u0 p0 c0 {2,S}
6 H u0 p0 c0 {2,S}
7 H u0 p0 c0 {3,S}
8 H u0 p0 c0 {1,S}


>  <multiplicity>  (2) 
1

>  <reaction>  (2) 
rmg_rxn_16496

>  <type>  (2) 
r2h

>  <role_mapnums>  (2) 
{"r2h_a": 3, "r2h_h": 8}

>  <role_mapidx>  (2) 
{"r2h_a": 2, "r2h_h": 7}

>  <ordered_mapped_smiles>  (2) 
[C:1]([CH:2]([NH:3][H:8])[H:7])([H:4])([H:5])[H:6]

>  <mol_properties>  (2) 
{"2": {"label": "acceptor", "atom_type": "N3s"}, "7": {"label": "a_hydrogen", "atom_type": "H0"}}

>  <level_of_theory>  (2) 
wb97xd/def2tzvp

>  <lot_method>  (2) 
wb97xd

>  <lot_basis>  (2) 
def2tzvp

>  <spin_multiplicity>  (2) 
1.0

>  <optical_isomers>  (2) 
1.0

>  <modes>  (2) 
IdealGasTranslation(mass=(43.0422, 'amu')),         NonlinearRotor(             inertia = ([9.32783, 51.3348, 57.5532

>  <frequency_value>  (2) 
unknown

>  <frequency_units>  (2) 
unknown

>  <frequency_list>  (2) 
unknown

>  <arkane_path>  (2) 
/home/calvin/Dropbox/PersonalFolders/Calvin/ZEUS_Converged/rmg_rxn_16496/output/Species/rmg_rxn_16496_p2_CC=N/arkane/output.py

>  <path_exists>  (2) 
True

>  <E0_value>  (2) 
-351535.20335661684

>  <E0_units>  (2) 
kJ/mol

>  <thermo_class>  (2) 
NASA

>  <Cp0_value>  (2) 
33.257888

>  <Cp0_units>  (2) 
J/(mol*K)

>  <CpInf_value>  (2) 
182.918384

>  <CpInf_units>  (2) 
J/(mol*K)

>  <Tmin_value>  (2) 
10.0

>  <Tmin_units>  (2) 
K

>  <Tmax_value>  (2) 
3000.0

>  <Tmax_units>  (2) 
K

>  <polynomials>  (2) 
[{"name": "polynomial1", "class": "NASAPolynomial", "Tmin_value": 10.0, "Tmin_units": "K", "Tmax_value": 834.0183041901832, "Tmax_units": "K", "coeffs": [4.020859284868709, 0.0012406595733239277, 4.4482903010182226e-05, -5.482114439751344e-08, 2.0739201558559772e-11, -42279921.71645892, 6.726586383468645]}, {"name": "polynomial2", "class": "NASAPolynomial", "Tmin_value": 834.0183041901832, "Tmin_units": "K", "Tmax_value": 3000.0, "Tmax_units": "K", "coeffs": [0.8146767610859666, 0.025012560508124084, -1.3369721411120483e-05, 3.4917002293006827e-09, -3.579375529269218e-13, -42279678.881200545, 19.862274208798944]}]

>  <H298_value>  (2) 
-84015.86036687854

>  <H298_units>  (2) 
kcal/mol

>  <S298_value>  (2) 
62.66843297179497

>  <S298_units>  (2) 
cal/(mol*K)

>  <Cp_T_value_list>  (2) 
[14.078036689508782, 17.202765604471058, 20.2803800489589, 23.1023356383003, 27.639649626797436, 30.983090061901617, 36.21499785066487, 38.88468928045463, 40.19916387517873]

>  <Cp_T_units>  (2) 
cal/(mol*K)

>  <T_list>  (2) 
[300.0, 400.0, 500.0, 600.0, 800.0, 1000.0, 1500.0, 2000.0, 2400.0]

>  <T_units>  (2) 
K

>  <yaml_path>  (2) 
/home/calvin/Dropbox/PersonalFolders/Calvin/ZEUS_Converged/rmg_rxn_16496/output/Species/rmg_rxn_16496_p2_CC=N/rmg_rxn_16496_p2_CC=N.yml

>  <frequencies_cm1>  (2) 
[185.42920459596, 489.9250676554, 680.6761858743599, 921.32968641376, 1055.89513074448, 1069.62910138448, 1130.4431233784, 1267.5150173509198, 1378.7876474762, 1425.071128533, 1456.56312321052, 1463.3683056626398, 1737.36788691596, 2989.2124437666403, 3014.6889593038395, 3075.43431144456, 3123.3452680222, 3455.8927661138396]

>  <ZPE_kJmol>  (2) 
178.96482902382195

>  <E_elec_kJmol>  (2) 
-351714.16818564065

>  <E0_minus_Eelec_plus_ZPE_kJmol>  (2) 
0.0

>  <rxn>  (2) 
rmg_rxn_16496

>  <species_type>  (2) 
p1

>  <species_folder>  (2) 
rmg_rxn_16496_p2_CC=N

>  <frequencies_cm1_list>  (2) 
[185.42920459596, 489.9250676554, 680.6761858743599, 921.32968641376, 1055.89513074448, 1069.62910138448, 1130.4431233784, 1267.5150173509198, 1378.7876474762, 1425.071128533, 1456.56312321052, 1463.3683056626398, 1737.36788691596, 2989.2124437666403, 3014.6889593038395, 3075.43431144456, 3123.3452680222, 3455.8927661138396]

>  <E0_kJmol>  (2) 
-351535

>  <H298_kJmol>  (2) 
-351522

$$$$

     RDKit          3D

 16 14  0  0  0  0  0  0  0  0999 V2000
    2.2775   -0.4682    0.4215 C   0  0  0  0  0  0  0  0  0  1  0  0
    2.1428    0.8433   -0.2935 C   0  0  0  0  0  0  0  0  0  2  0  0
    1.2736    1.2199   -1.1076 N   0  0  0  0  0  0  0  0  0  3  0  0
    1.5047   -1.1676    0.1086 H   0  0  0  0  0  0  0  0  0  4  0  0
    2.2167   -0.2972    1.4984 H   0  0  0  0  0  0  0  0  0  5  0  0
    3.2636   -0.8885    0.2156 H   0  0  0  0  0  0  0  0  0  6  0  0
    2.9207    1.5881   -0.0741 H   0  0  0  0  0  0  0  0  0  7  0  0
   -2.1992    1.1121    0.0587 C   0  0  0  0  0  0  0  0  0  8  0  0
   -1.5326   -0.2519    0.1286 C   0  0  0  0  0  0  0  0  0  9  0  0
   -0.7348   -0.7651   -1.4176 S   0  0  0  0  0  1  0  0  0 10  0  0
   -2.6780    1.3534    1.0112 H   0  0  0  0  0  0  0  0  0 11  0  0
   -2.9575    1.1318   -0.7246 H   0  0  0  0  0  0  0  0  0 12  0  0
   -1.4679    1.8905   -0.1629 H   0  0  0  0  0  0  0  0  0 13  0  0
   -2.2656   -1.0312    0.3471 H   0  0  0  0  0  0  0  0  0 14  0  0
   -0.7950   -0.2832    0.9334 H   0  0  0  0  0  0  0  0  0 15  0  0
    0.3181    0.3473   -1.3890 H   0  0  0  0  0  0  0  0  0 16  0  0
  1  5  1  0
  1  4  1  0
  1  6  1  0
  1  2  1  0
  2  3  1  0
  2  7  1  0
  3 16  1  0
  8  9  1  0
  8 13  1  0
  8 11  1  0
  8 12  1  0
  9 10  1  0
  9 14  1  0
  9 15  1  0
M  RAD  1  10   2
M  END
>  <rmg_smiles>  (3) 
C[CH][NH].CC[S]

>  <rmg_adjacency_list>  (3) 
multiplicity 2
1  S u1 p2 c0 {4,S}
2  N u0 p1 c0 {6,S} {16,S}
3  C u0 p0 c0 {4,S} {7,S} {8,S} {9,S}
4  C u0 p0 c0 {1,S} {3,S} {10,S} {11,S}
5  C u0 p0 c0 {6,S} {12,S} {13,S} {14,S}
6  C u0 p0 c0 {2,S} {5,S} {15,S}
7  H u0 p0 c0 {3,S}
8  H u0 p0 c0 {3,S}
9  H u0 p0 c0 {3,S}
10 H u0 p0 c0 {4,S}
11 H u0 p0 c0 {4,S}
12 H u0 p0 c0 {5,S}
13 H u0 p0 c0 {5,S}
14 H u0 p0 c0 {5,S}
15 H u0 p0 c0 {6,S}
16 H u0 p0 c0 {2,S}


>  <multiplicity>  (3) 
2

>  <reaction>  (3) 
rmg_rxn_16496

>  <type>  (3) 
ts

>  <role_mapnums>  (3) 
{"*2": 16, "*1": 10, "*3": 3, "*0": 2, "*4": 9}

>  <role_mapidx>  (3) 
{"*2": 15, "*1": 9, "*3": 2, "*0": 1, "*4": 8}

>  <ordered_mapped_smiles>  (3) 
[C:1]([CH:2]([NH:3][H:16])[H:7])([H:4])([H:5])[H:6].[C:8]([C:9]([S:10])([H:14])[H:15])([H:11])([H:12])[H:13]

>  <mol_properties>  (3) 
{"1": {"label": "*0", "atom_type": "Cs"}, "2": {"label": "*3", "atom_type": "N3s"}, "8": {"label": "*4", "atom_type": "Cs"}, "9": {"label": "*1", "atom_type": "S2s"}, "15": {"label": "*2", "atom_type": "H0"}}

>  <level_of_theory>  (3) 
wb97xd/def2tzvp

>  <lot_method>  (3) 
wb97xd

>  <lot_basis>  (3) 
def2tzvp

>  <spin_multiplicity>  (3) 
2.0

>  <optical_isomers>  (3) 
2.0

>  <modes>  (3) 
IdealGasTranslation(mass=(104.053, 'amu')),         NonlinearRotor(             inertia = ([137.989, 350.281, 381.041

>  <frequency_value>  (3) 
-1540.32

>  <frequency_units>  (3) 
cm^-1

>  <frequency_list>  (3) 
unknown

>  <arkane_path>  (3) 
/home/calvin/Dropbox/PersonalFolders/Calvin/ZEUS_Converged/rmg_rxn_16496/output/rxns/TS0/arkane/output.py

>  <path_exists>  (3) 
True

>  <E0_value>  (3) 
-1604710.0

>  <E0_units>  (3) 
kJ/mol

>  <thermo_class>  (3) 
unknown

>  <Cp0_value>  (3) 
unknown

>  <Cp0_units>  (3) 
unknown

>  <CpInf_value>  (3) 
unknown

>  <CpInf_units>  (3) 
unknown

>  <Tmin_value>  (3) 
unknown

>  <Tmin_units>  (3) 
unknown

>  <Tmax_value>  (3) 
unknown

>  <Tmax_units>  (3) 
unknown

>  <polynomials>  (3) 
unknown

>  <H298_value>  (3) 
unknown

>  <H298_units>  (3) 
unknown

>  <S298_value>  (3) 
unknown

>  <S298_units>  (3) 
unknown

>  <Cp_T_value_list>  (3) 
unknown

>  <Cp_T_units>  (3) 
unknown

>  <T_list>  (3) 
unknown

>  <T_units>  (3) 
unknown

>  <yaml_path>  (3) 
unknown

>  <frequencies_cm1>  (3) 
unknown

>  <ZPE_kJmol>  (3) 
unknown

>  <E_elec_kJmol>  (3) 
unknown

>  <E0_minus_Eelec_plus_ZPE_kJmol>  (3) 
unknown

>  <rxn>  (3) 
unknown

>  <species_type>  (3) 
unknown

>  <species_folder>  (3) 
unknown

>  <frequencies_cm1_list>  (3) 
[]

>  <ts_imag_freq_cm1>  (3) 
-1559.0274

>  <ts_freq_out_path>  (3) 
/home/calvin/Dropbox/PersonalFolders/Calvin/ZEUS_Converged/rmg_rxn_16496/output/rxns/TS0/geometry/freq.out

>  <E0_kJmol>  (3) 
-1.60471e+06

>  <H298_kJmol>  (3) 
unknown

$$$$

     RDKit          3D

  8  7  0  0  0  0  0  0  0  0999 V2000
    0.8136   -0.0249    0.0404 C   0  0  0  0  0  0  0  0  0  1  0  0
   -0.7034   -0.1038   -0.0095 C   0  0  0  0  0  0  0  0  0  2  0  0
   -1.5481    1.4368   -0.3594 S   0  0  0  0  0  1  0  0  0  3  0  0
    1.1410    0.6704    0.8138 H   0  0  0  0  0  0  0  0  0  4  0  0
    1.2160    0.3193   -0.9127 H   0  0  0  0  0  0  0  0  0  5  0  0
    1.2398   -1.0069    0.2586 H   0  0  0  0  0  0  0  0  0  6  0  0
   -1.1164   -0.4724    0.9353 H   0  0  0  0  0  0  0  0  0  7  0  0
   -1.0424   -0.8185   -0.7666 H   0  0  0  0  0  0  0  0  0  8  0  0
  1  5  1  0
  1  4  1  0
  1  6  1  0
  1  2  1  0
  2  8  1  0
  2  3  1  0
  2  7  1  0
M  RAD  1   3   2
M  END
>  <rmg_smiles>  (4) 
CC[S]

>  <rmg_adjacency_list>  (4) 
multiplicity 2
1 S u1 p2 c0 {3,S}
2 C u0 p0 c0 {3,S} {4,S} {5,S} {6,S}
3 C u0 p0 c0 {1,S} {2,S} {7,S} {8,S}
4 H u0 p0 c0 {2,S}
5 H u0 p0 c0 {2,S}
6 H u0 p0 c0 {2,S}
7 H u0 p0 c0 {3,S}
8 H u0 p0 c0 {3,S}


>  <multiplicity>  (4) 
2

>  <reaction>  (4) 
rmg_rxn_16496

>  <type>  (4) 
r1

>  <role_mapnums>  (4) 
{}

>  <role_mapidx>  (4) 
{}

>  <ordered_mapped_smiles>  (4) 
[C:1]([C:2]([S:3])([H:7])[H:8])([H:4])([H:5])[H:6]

>  <level_of_theory>  (4) 
wb97xd/def2tzvp

>  <lot_method>  (4) 
wb97xd

>  <lot_basis>  (4) 
def2tzvp

>  <spin_multiplicity>  (4) 
2.0

>  <optical_isomers>  (4) 
1.0

>  <modes>  (4) 
IdealGasTranslation(mass=(61.0112, 'amu')),         NonlinearRotor(             inertia = ([15.0526, 92.9571, 101.83

>  <frequency_value>  (4) 
unknown

>  <frequency_units>  (4) 
unknown

>  <frequency_list>  (4) 
unknown

>  <arkane_path>  (4) 
/home/calvin/Dropbox/PersonalFolders/Calvin/ZEUS_Converged/rmg_rxn_16496/output/Species/rmg_rxn_16496_p1_CCsbr-S-sbr/arkane/output.py

>  <path_exists>  (4) 
True

>  <E0_value>  (4) 
-1253208.922154105

>  <E0_units>  (4) 
kJ/mol

>  <thermo_class>  (4) 
NASA

>  <Cp0_value>  (4) 
33.257888

>  <Cp0_units>  (4) 
J/(mol*K)

>  <CpInf_value>  (4) 
182.918384

>  <CpInf_units>  (4) 
J/(mol*K)

>  <Tmin_value>  (4) 
10.0

>  <Tmin_units>  (4) 
K

>  <Tmax_value>  (4) 
3000.0

>  <Tmax_units>  (4) 
K

>  <polynomials>  (4) 
[{"name": "polynomial1", "class": "NASAPolynomial", "Tmin_value": 10.0, "Tmin_units": "K", "Tmax_value": 440.04818349785603, "Tmax_units": "K", "coeffs": [3.9713324192222705, 0.0017394849650108923, 6.639288749231711e-05, -1.18312767799566e-07, 6.904764451258037e-11, -150726216.8920268, 8.83267698635489]}, {"name": "polynomial2", "class": "NASAPolynomial", "Tmin_value": 440.04818349785603, "Tmin_units": "K", "Tmax_value": 3000.0, "Tmax_units": "K", "coeffs": [1.368758848804576, 0.02540263708504744, -1.4288510743246127e-05, 3.949287047748569e-09, -4.293791310771743e-13, -150725987.89840087, 19.25155452874521]}]

>  <H298_value>  (4) 
-299520.8480172091

>  <H298_units>  (4) 
kcal/mol

>  <S298_value>  (4) 
67.59789401941617

>  <S298_units>  (4) 
cal/(mol*K)

>  <Cp_T_value_list>  (4) 
[15.56654161959324, 18.849828029760467, 21.78927095089999, 24.370853516348003, 28.600636897950245, 31.800854496235655, 36.72094753869738, 39.23584299741295, 40.50411938111819]

>  <Cp_T_units>  (4) 
cal/(mol*K)

>  <T_list>  (4) 
[300.0, 400.0, 500.0, 600.0, 800.0, 1000.0, 1500.0, 2000.0, 2400.0]

>  <T_units>  (4) 
K

>  <yaml_path>  (4) 
/home/calvin/Dropbox/PersonalFolders/Calvin/ZEUS_Converged/rmg_rxn_16496/output/Species/rmg_rxn_16496_p1_CCsbr-S-sbr/rmg_rxn_16496_p1_CCsbr-S-sbr.yml

>  <frequencies_cm1>  (4) 
[226.21223041144, 334.16123964184, 489.40317677108, 681.8298394081199, 904.8283206898, 980.8458481821998, 1069.55356454596, 1246.44023940384, 1278.3717211418398, 1403.29591808328, 1419.59814123296, 1475.8250170331198, 1482.36925404308, 2999.6639954236794, 3016.93446350348, 3020.60143366436, 3090.0403892202, 3104.2962507445195]

>  <ZPE_kJmol>  (4) 
168.8186791184933

>  <E_elec_kJmol>  (4) 
-1253377.7408332236

>  <E0_minus_Eelec_plus_ZPE_kJmol>  (4) 
0.0

>  <rxn>  (4) 
rmg_rxn_16496

>  <species_type>  (4) 
p0

>  <species_folder>  (4) 
rmg_rxn_16496_p1_CCsbr-S-sbr

>  <frequencies_cm1_list>  (4) 
[226.21223041144, 334.16123964184, 489.40317677108, 681.8298394081199, 904.8283206898, 980.8458481821998, 1069.55356454596, 1246.44023940384, 1278.3717211418398, 1403.29591808328, 1419.59814123296, 1475.8250170331198, 1482.36925404308, 2999.6639954236794, 3016.93446350348, 3020.60143366436, 3090.0403892202, 3104.2962507445195]

>  <E0_kJmol>  (4) 
-1.25321e+06

>  <H298_kJmol>  (4) 
-1.2532e+06

$$$$

     RDKit          3D

  7  6  0  0  0  0  0  0  0  0999 V2000
   -0.6441   -0.1356    0.0624 C   0  0  0  0  0  0  0  0  0  1  0  0
    0.8523    0.0148   -0.0333 C   0  0  0  0  0  0  0  0  0  2  0  0
    1.6700   -0.6077    0.6603 N   0  0  0  0  0  2  0  0  0  3  0  0
   -1.0940    0.8275    0.3091 H   0  0  0  0  0  0  0  0  0  4  0  0
   -0.9104   -0.8656    0.8237 H   0  0  0  0  0  0  0  0  0  5  0  0
   -1.0427   -0.4545   -0.9022 H   0  0  0  0  0  0  0  0  0  6  0  0
    1.2362    0.7308   -0.7748 H   0  0  0  0  0  0  0  0  0  7  0  0
  1  5  1  0
  1  4  1  0
  1  6  1  0
  1  2  1  0
  2  3  1  0
  2  7  1  0
M  RAD  1   3   2
M  END
>  <rmg_smiles>  (5) 
C[CH][N]

>  <rmg_adjacency_list>  (5) 
multiplicity 2
1 N u1 p2 c0 {3,S}
2 C u0 p0 c0 {3,S} {4,S} {5,S} {6,S}
3 C u0 p0 c0 {1,S} {2,S} {7,S}
4 H u0 p0 c0 {2,S}
5 H u0 p0 c0 {2,S}
6 H u0 p0 c0 {2,S}
7 H u0 p0 c0 {3,S}


>  <multiplicity>  (5) 
2

>  <reaction>  (5) 
rmg_rxn_16496

>  <type>  (5) 
r2

>  <role_mapnums>  (5) 
{}

>  <role_mapidx>  (5) 
{}

>  <ordered_mapped_smiles>  (5) 
[C:1]([CH:2]([NH:3])[H:7])([H:4])([H:5])[H:6]

>  <level_of_theory>  (5) 
wb97xd/def2tzvp

>  <lot_method>  (5) 
wb97xd

>  <lot_basis>  (5) 
def2tzvp

>  <spin_multiplicity>  (5) 
2.0

>  <optical_isomers>  (5) 
1.0

>  <modes>  (5) 
IdealGasTranslation(mass=(42.0344, 'amu')),         NonlinearRotor(             inertia = ([8.81492, 48.174, 53.8511

>  <frequency_value>  (5) 
unknown

>  <frequency_units>  (5) 
unknown

>  <frequency_list>  (5) 
unknown

>  <arkane_path>  (5) 
/home/calvin/Dropbox/PersonalFolders/Calvin/ZEUS_Converged/rmg_rxn_16496/output/Species/rmg_rxn_16496_r1_CC=sbr-N-sbr/arkane/output.py

>  <path_exists>  (5) 
True

>  <E0_value>  (5) 
-349854.82234455534

>  <E0_units>  (5) 
kJ/mol

>  <thermo_class>  (5) 
NASA

>  <Cp0_value>  (5) 
33.257888

>  <Cp0_units>  (5) 
J/(mol*K)

>  <CpInf_value>  (5) 
157.97496800000002

>  <CpInf_units>  (5) 
J/(mol*K)

>  <Tmin_value>  (5) 
10.0

>  <Tmin_units>  (5) 
K

>  <Tmax_value>  (5) 
3000.0

>  <Tmax_units>  (5) 
K

>  <polynomials>  (5) 
[{"name": "polynomial1", "class": "NASAPolynomial", "Tmin_value": 10.0, "Tmin_units": "K", "Tmax_value": 503.5856077016928, "Tmax_units": "K", "coeffs": [3.976811592049577, 0.0012685228752087534, 4.786155959427562e-05, -7.554553197268183e-08, 3.869280929218241e-11, -42077814.38325793, 7.559402827950991]}, {"name": "polynomial2", "class": "NASAPolynomial", "Tmin_value": 503.5856077016928, "Tmin_units": "K", "Tmax_value": 3000.0, "Tmax_units": "K", "coeffs": [1.4688672877735052, 0.02118998940112054, -1.1479594923736429e-05, 3.0156770231218235e-09, -3.096140671693614e-13, -42077561.800061174, 17.93823402033286]}]

>  <H298_value>  (5) 
-83614.2601862362

>  <H298_units>  (5) 
kcal/mol

>  <S298_value>  (5) 
63.84640386523673

>  <S298_units>  (5) 
cal/(mol*K)

>  <Cp_T_value_list>  (5) 
[13.788413560189577, 16.48922778111735, 18.980945997388957, 21.186536551582613, 24.822448324400693, 27.593007553675324, 31.86535612271467, 33.985319854322825, 35.01227851918305]

>  <Cp_T_units>  (5) 
cal/(mol*K)

>  <T_list>  (5) 
[300.0, 400.0, 500.0, 600.0, 800.0, 1000.0, 1500.0, 2000.0, 2400.0]

>  <T_units>  (5) 
K

>  <yaml_path>  (5) 
/home/calvin/Dropbox/PersonalFolders/Calvin/ZEUS_Converged/rmg_rxn_16496/output/Species/rmg_rxn_16496_r1_CC=sbr-N-sbr/rmg_rxn_16496_r1_CC=sbr-N-sbr.yml

>  <frequencies_cm1>  (5) 
[183.94593576684, 430.87586088872, 744.9511684695599, 909.3948659275999, 1050.2642027820798, 1063.7578289358798, 1237.9320445923597, 1377.0846351168398, 1461.72709617116, 1465.6893467008, 1739.36617964408, 2963.10416558, 3026.2186276561197, 3097.525403219, 3131.35217290532]

>  <ZPE_kJmol>  (5) 
142.8532380575317

>  <E_elec_kJmol>  (5) 
-349997.67558261286

>  <E0_minus_Eelec_plus_ZPE_kJmol>  (5) 
0.0

>  <rxn>  (5) 
rmg_rxn_16496

>  <species_type>  (5) 
r0

>  <species_folder>  (5) 
rmg_rxn_16496_r1_CC=sbr-N-sbr

>  <frequencies_cm1_list>  (5) 
[183.94593576684, 430.87586088872, 744.9511684695599, 909.3948659275999, 1050.2642027820798, 1063.7578289358798, 1237.9320445923597, 1377.0846351168398, 1461.72709617116, 1465.6893467008, 1739.36617964408, 2963.10416558, 3026.2186276561197, 3097.525403219, 3131.35217290532]

>  <E0_kJmol>  (5) 
-349855

>  <H298_kJmol>  (5) 
-349842

$$$$
