
     RDKit          3D

  9  8  0  0  0  0  0  0  0  0999 V2000
   -0.4972   -0.3534   -1.8059 C   0  0  0  0  0  0  0  0  0  1  0  0
   -0.0152   -0.5003   -0.4042 C   0  0  0  0  0  0  0  0  0  2  0  0
    0.0061    0.5008    0.3742 N   0  0  0  0  0  0  0  0  0  3  0  0
    0.4548    0.2721    1.6061 O   0  0  0  0  0  0  0  0  0  4  0  0
    0.2859   -0.6322   -2.5153 H   0  0  0  0  0  0  0  0  0  5  0  0
   -1.3493   -1.0120   -1.9907 H   0  0  0  0  0  0  0  0  0  6  0  0
   -0.7987    0.6752   -1.9979 H   0  0  0  0  0  0  0  0  0  7  0  0
    0.3180   -1.4764   -0.0506 H   0  0  0  0  0  0  0  0  0  8  0  0
    0.3661    1.1126    2.0614 H   0  0  0  0  0  0  0  0  0  9  0  0
  1  5  1  0
  1  7  1  0
  1  6  1  0
  1  2  1  0
  2  3  1  0
  2  8  1  0
  3  4  1  0
  4  9  1  0
M  END
>  <rmg_smiles>  (1) 
C[CH][N]O

>  <rmg_adjacency_list>  (1) 
1 O u0 p2 c0 {2,S} {9,S}
2 N u0 p1 c0 {1,S} {4,S}
3 C u0 p0 c0 {4,S} {5,S} {6,S} {7,S}
4 C u0 p0 c0 {2,S} {3,S} {8,S}
5 H u0 p0 c0 {3,S}
6 H u0 p0 c0 {3,S}
7 H u0 p0 c0 {3,S}
8 H u0 p0 c0 {4,S}
9 H u0 p0 c0 {1,S}


>  <multiplicity>  (1) 
1

>  <reaction>  (1) 
rmg_rxn_253

>  <type>  (1) 
r1h

>  <role_mapnums>  (1) 
{"r1h_a": 4, "r1h_h": 9}

>  <role_mapidx>  (1) 
{"r1h_a": 3, "r1h_h": 8}

>  <ordered_mapped_smiles>  (1) 
[C:1]([CH:2]([NH:3][O:4][H:9])[H:8])([H:5])([H:6])[H:7]

>  <mol_properties>  (1) 
{"3": {"label": "donator", "atom_type": "O2s"}, "8": {"label": "d_hydrogen", "atom_type": "H0"}}

>  <level_of_theory>  (1) 
wb97xd/def2tzvp

>  <lot_method>  (1) 
wb97xd

>  <lot_basis>  (1) 
def2tzvp

>  <spin_multiplicity>  (1) 
1.0

>  <optical_isomers>  (1) 
1.0

>  <modes>  (1) 
IdealGasTranslation(mass=(59.0371, 'amu')),         NonlinearRotor(             inertia = ([10.7603, 118.091, 125.733

>  <frequency_value>  (1) 
unknown

>  <frequency_units>  (1) 
unknown

>  <frequency_list>  (1) 
unknown

>  <arkane_path>  (1) 
/home/calvin/Dropbox/PersonalFolders/Calvin/ATLAS_Converged/rmg_rxn_253/output/Species/rmg_rxn_253_r1_CC=NO/arkane/output.py

>  <path_exists>  (1) 
True

>  <E0_value>  (1) 
-548937.8541984448

>  <E0_units>  (1) 
kJ/mol

>  <thermo_class>  (1) 
NASA

>  <Cp0_value>  (1) 
33.257888

>  <Cp0_units>  (1) 
J/(mol*K)

>  <CpInf_value>  (1) 
207.8618

>  <CpInf_units>  (1) 
J/(mol*K)

>  <Tmin_value>  (1) 
10.0

>  <Tmin_units>  (1) 
K

>  <Tmax_value>  (1) 
3000.0

>  <Tmax_units>  (1) 
K

>  <polynomials>  (1) 
[{"name": "polynomial1", "class": "NASAPolynomial", "Tmin_value": 10.0, "Tmin_units": "K", "Tmax_value": 335.1910179037978, "Tmax_units": "K", "coeffs": [3.936344167606981, 0.004744355844830638, 9.160790844518127e-05, -2.1061910314248552e-07, 1.6006484261890122e-10, -66021973.16953679, 8.120493921530757]}, {"name": "polynomial2", "class": "NASAPolynomial", "Tmin_value": 335.1910179037978, "Tmin_units": "K", "Tmax_value": 3000.0, "Tmax_units": "K", "coeffs": [1.9092598311329627, 0.02893435817357441, -1.6642930351421066e-05, 4.680937669481693e-09, -5.139624250773394e-13, -66021837.27634088, 15.684306465260459]}]

>  <H298_value>  (1) 
-131195.6144386416

>  <H298_units>  (1) 
kcal/mol

>  <S298_value>  (1) 
68.52934918863554

>  <S298_units>  (1) 
cal/(mol*K)

>  <Cp_T_value_list>  (1) 
[18.310462740749653, 22.071021910178956, 25.374045411772553, 28.263825064535727, 32.970522087113224, 36.50033911765962, 41.85143067881395, 44.573751899405494, 45.995252148342956]

>  <Cp_T_units>  (1) 
cal/(mol*K)

>  <T_list>  (1) 
[300.0, 400.0, 500.0, 600.0, 800.0, 1000.0, 1500.0, 2000.0, 2400.0]

>  <T_units>  (1) 
K

>  <yaml_path>  (1) 
/home/calvin/Dropbox/PersonalFolders/Calvin/ATLAS_Converged/rmg_rxn_253/output/Species/rmg_rxn_253_r1_CC=NO/rmg_rxn_253_r1_CC=NO.yml

>  <frequencies_cm1>  (1) 
[197.06187772804, 291.09837470012, 328.62644947392, 407.23283043195994, 570.83188869564, 914.3734302846, 916.92108183832, 1038.1439736922798, 1079.0094033316, 1148.38655601956, 1286.64643845244, 1390.76366987428, 1438.44801593636, 1464.57689507896, 1470.4000986303201, 1752.33104792824, 3016.9275965181596, 3076.79397453792, 3080.3236049924, 3121.5941867655997, 3848.4577159022797]

>  <ZPE_kJmol>  (1) 
190.43926148497908

>  <E_elec_kJmol>  (1) 
-549128.2934599298

>  <E0_minus_Eelec_plus_ZPE_kJmol>  (1) 
0.0

>  <rxn>  (1) 
rmg_rxn_253

>  <species_type>  (1) 
r0

>  <species_folder>  (1) 
rmg_rxn_253_r1_CC=NO

>  <frequencies_cm1_list>  (1) 
[197.06187772804, 291.09837470012, 328.62644947392, 407.23283043195994, 570.83188869564, 914.3734302846, 916.92108183832, 1038.1439736922798, 1079.0094033316, 1148.38655601956, 1286.64643845244, 1390.76366987428, 1438.44801593636, 1464.57689507896, 1470.4000986303201, 1752.33104792824, 3016.9275965181596, 3076.79397453792, 3080.3236049924, 3121.5941867655997, 3848.4577159022797]

>  <E0_kJmol>  (1) 
-548938

>  <H298_kJmol>  (1) 
-548922

$$$$

     RDKit          3D

 14 14  0  0  0  0  0  0  0  0999 V2000
    0.9430   -2.1468   -0.2207 H   0  0  0  0  0  0  0  0  0  1  0  0
    0.8057   -1.1350    0.1829 C   0  0  0  0  0  0  0  0  0  2  0  0
    1.0715   -0.1998   -0.9629 C   0  0  0  0  0  0  0  0  0  3  0  0
    0.4978    1.1768   -0.6243 C   0  0  0  0  0  0  0  0  0  4  0  0
   -0.8471    1.0478   -0.2089 O   0  0  0  0  0  0  0  0  0  5  0  0
   -0.9550    0.2158    0.8944 C   0  0  0  0  0  0  0  0  0  6  0  0
   -0.4969   -1.0950    0.6389 O   0  0  0  0  0  0  0  0  0  7  0  0
    1.5399   -1.1222    0.9992 H   0  0  0  0  0  0  0  0  0  8  0  0
    2.1417   -0.1382   -1.1641 H   0  0  0  0  0  0  0  0  0  9  0  0
    0.5759   -0.5875   -1.8566 H   0  0  0  0  0  0  0  0  0 10  0  0
    1.0867    1.6532    0.1727 H   0  0  0  0  0  0  0  0  0 11  0  0
    0.4985    1.8326   -1.4935 H   0  0  0  0  0  0  0  0  0 12  0  0
   -0.3809    0.6321    1.7393 H   0  0  0  0  0  0  0  0  0 13  0  0
   -2.0085    0.1329    1.1486 H   0  0  0  0  0  0  0  0  0 14  0  0
  1  2  1  0
  2  7  1  0
  2  8  1  0
  2  3  1  0
  3  4  1  0
  3  9  1  0
  3 10  1  0
  4 11  1  0
  4 12  1  0
  4  5  1  0
  5  6  1  0
  6 14  1  0
  6 13  1  0
  6  7  1  0
M  END
>  <rmg_smiles>  (2) 
C1COCOC1

>  <rmg_adjacency_list>  (2) 
1  O u0 p2 c0 {5,S} {6,S}
2  O u0 p2 c0 {4,S} {6,S}
3  C u0 p0 c0 {4,S} {5,S} {7,S} {8,S}
4  C u0 p0 c0 {2,S} {3,S} {9,S} {10,S}
5  C u0 p0 c0 {1,S} {3,S} {11,S} {12,S}
6  C u0 p0 c0 {1,S} {2,S} {13,S} {14,S}
7  H u0 p0 c0 {3,S}
8  H u0 p0 c0 {3,S}
9  H u0 p0 c0 {4,S}
10 H u0 p0 c0 {4,S}
11 H u0 p0 c0 {5,S}
12 H u0 p0 c0 {5,S}
13 H u0 p0 c0 {6,S}
14 H u0 p0 c0 {6,S}


>  <multiplicity>  (2) 
1

>  <reaction>  (2) 
rmg_rxn_253

>  <type>  (2) 
r2h

>  <role_mapnums>  (2) 
{"r2h_a": 2, "r2h_h": 1}

>  <role_mapidx>  (2) 
{"r2h_a": 1, "r2h_h": 0}

>  <ordered_mapped_smiles>  (2) 
[H:1][C:2]1([H:8])[C:3]([H:9])([H:10])[C:4]([H:11])([H:12])[O:5][C:6]([H:13])([H:14])[O:7]1

>  <mol_properties>  (2) 
{"0": {"label": "a_hydrogen", "atom_type": "H0"}, "1": {"label": "acceptor", "atom_type": "Cs"}}

>  <level_of_theory>  (2) 
wb97xd/def2tzvp

>  <lot_method>  (2) 
wb97xd

>  <lot_basis>  (2) 
def2tzvp

>  <spin_multiplicity>  (2) 
1.0

>  <optical_isomers>  (2) 
1.0

>  <modes>  (2) 
IdealGasTranslation(mass=(88.0524, 'amu')),         NonlinearRotor(             inertia = ([100.123, 103.988, 181.806

>  <frequency_value>  (2) 
unknown

>  <frequency_units>  (2) 
unknown

>  <frequency_list>  (2) 
unknown

>  <arkane_path>  (2) 
/home/calvin/Dropbox/PersonalFolders/Calvin/ATLAS_Converged/rmg_rxn_253/output/Species/rmg_rxn_253_p2_C1COCOC1/arkane/output.py

>  <path_exists>  (2) 
True

>  <E0_value>  (2) 
-807534.4862541369

>  <E0_units>  (2) 
kJ/mol

>  <thermo_class>  (2) 
NASA

>  <Cp0_value>  (2) 
33.257888

>  <Cp0_units>  (2) 
J/(mol*K)

>  <CpInf_value>  (2) 
332.57888

>  <CpInf_units>  (2) 
J/(mol*K)

>  <Tmin_value>  (2) 
10.0

>  <Tmin_units>  (2) 
K

>  <Tmax_value>  (2) 
3000.0

>  <Tmax_units>  (2) 
K

>  <polynomials>  (2) 
[{"name": "polynomial1", "class": "NASAPolynomial", "Tmin_value": 10.0, "Tmin_units": "K", "Tmax_value": 635.616554573151, "Tmax_units": "K", "coeffs": [4.089858497697602, -0.00720848048360332, 0.00016188875003168496, -2.401508213073996e-07, 1.1440937882219611e-10, -97123964.81365098, 9.940070949440356]}, {"name": "polynomial2", "class": "NASAPolynomial", "Tmin_value": 635.616554573151, "Tmin_units": "K", "Tmax_value": 3000.0, "Tmax_units": "K", "coeffs": [-3.6233751272420895, 0.05886750722676344, -3.5427870905530145e-05, 1.0209382893823142e-08, -1.1338653155444558e-12, -97123338.5127768, 40.87012283464024]}]

>  <H298_value>  (2) 
-193001.58453999052

>  <H298_units>  (2) 
kcal/mol

>  <S298_value>  (2) 
72.30963326519604

>  <S298_units>  (2) 
cal/(mol*K)

>  <Cp_T_value_list>  (2) 
[21.739931113059615, 29.14813400113705, 35.94765005011551, 41.73053828287379, 50.792135881792035, 57.413930600437965, 66.93239440365458, 71.40703402864166, 73.74460734469625]

>  <Cp_T_units>  (2) 
cal/(mol*K)

>  <T_list>  (2) 
[300.0, 400.0, 500.0, 600.0, 800.0, 1000.0, 1500.0, 2000.0, 2400.0]

>  <T_units>  (2) 
K

>  <yaml_path>  (2) 
/home/calvin/Dropbox/PersonalFolders/Calvin/ATLAS_Converged/rmg_rxn_253/output/Species/rmg_rxn_253_p2_C1COCOC1/rmg_rxn_253_p2_C1COCOC1.yml

>  <frequencies_cm1>  (2) 
[264.26219606955993, 269.44676998615995, 439.22611503784, 466.70779028847994, 494.62208561427997, 656.81341188736, 851.50617968, 900.41284912904, 919.12538412604, 926.80954069912, 1013.8966485273598, 1037.6289497932798, 1094.57685905204, 1112.95291176836, 1188.75069573052, 1216.28730686372, 1226.8487302858798, 1252.366447735, 1315.55644664964, 1328.3633742714399, 1363.72148168412, 1380.93701388136, 1404.8272558096398, 1432.53554157584, 1460.95799381532, 1489.42164796672, 1490.0946125280798, 1506.58911126672, 2894.63345495428, 2944.5289702893997, 2950.530715459079, 3031.06671929204, 3080.8454958767197, 3088.2893079635996, 3091.87387430064, 3110.9160245929997]

>  <ZPE_kJmol>  (2) 
321.1850391352071

>  <E_elec_kJmol>  (2) 
-807855.671293272

>  <E0_minus_Eelec_plus_ZPE_kJmol>  (2) 
0.0

>  <rxn>  (2) 
rmg_rxn_253

>  <species_type>  (2) 
p1

>  <species_folder>  (2) 
rmg_rxn_253_p2_C1COCOC1

>  <frequencies_cm1_list>  (2) 
[264.26219606955993, 269.44676998615995, 439.22611503784, 466.70779028847994, 494.62208561427997, 656.81341188736, 851.50617968, 900.41284912904, 919.12538412604, 926.80954069912, 1013.8966485273598, 1037.6289497932798, 1094.57685905204, 1112.95291176836, 1188.75069573052, 1216.28730686372, 1226.8487302858798, 1252.366447735, 1315.55644664964, 1328.3633742714399, 1363.72148168412, 1380.93701388136, 1404.8272558096398, 1432.53554157584, 1460.95799381532, 1489.42164796672, 1490.0946125280798, 1506.58911126672, 2894.63345495428, 2944.5289702893997, 2950.530715459079, 3031.06671929204, 3080.8454958767197, 3088.2893079635996, 3091.87387430064, 3110.9160245929997]

>  <E0_kJmol>  (2) 
-807534

>  <H298_kJmol>  (2) 
-807519

$$$$

     RDKit          3D

 22 21  0  0  0  0  0  0  0  0999 V2000
   -0.0634   -2.5875   -3.3249 C   0  0  0  0  0  0  0  0  0  1  0  0
    0.4187   -2.7344   -1.9231 C   0  0  0  0  0  0  0  0  0  2  0  0
    0.4399   -1.7332   -1.1447 N   0  0  0  0  0  0  0  0  0  3  0  0
    0.8886   -1.9619    0.0872 O   0  0  0  0  0  0  0  0  0  4  0  0
    0.7198   -2.8662   -4.0342 H   0  0  0  0  0  0  0  0  0  5  0  0
   -0.9155   -3.2461   -3.5096 H   0  0  0  0  0  0  0  0  0  6  0  0
   -0.3649   -1.5588   -3.5169 H   0  0  0  0  0  0  0  0  0  7  0  0
    0.7519   -3.7104   -1.5695 H   0  0  0  0  0  0  0  0  0  8  0  0
    0.7767   -0.9014    0.6616 H   0  0  0  0  0  0  0  0  0  9  0  0
    0.6132    0.3035    1.1424 C   0  0  0  0  0  3  0  0  0 10  0  0
    0.8790    1.2387   -0.0034 C   0  0  0  0  0  0  0  0  0 11  0  0
    0.3053    2.6154    0.3351 C   0  0  0  0  0  0  0  0  0 12  0  0
   -1.0396    2.4863    0.7505 O   0  0  0  0  0  0  0  0  0 13  0  0
   -1.1475    1.6543    1.8538 C   0  0  0  0  0  0  0  0  0 14  0  0
   -0.6894    0.3435    1.5983 O   0  0  0  0  0  0  0  0  0 15  0  0
    1.3474    0.3164    1.9587 H   0  0  0  0  0  0  0  0  0 16  0  0
    1.9492    1.3003   -0.2047 H   0  0  0  0  0  0  0  0  0 17  0  0
    0.3834    0.8510   -0.8972 H   0  0  0  0  0  0  0  0  0 18  0  0
    0.8942    3.0917    1.1321 H   0  0  0  0  0  0  0  0  0 19  0  0
    0.3060    3.2711   -0.5341 H   0  0  0  0  0  0  0  0  0 20  0  0
   -0.5734    2.0707    2.6987 H   0  0  0  0  0  0  0  0  0 21  0  0
   -2.2010    1.5715    2.1080 H   0  0  0  0  0  0  0  0  0 22  0  0
  1  7  1  0
  1  5  1  0
  1  6  1  0
  1  2  1  0
  2  8  1  0
  2  3  1  0
  3  4  1  0
  4  9  1  0
 10 16  1  0
 10 11  1  0
 10 15  1  0
 11 17  1  0
 11 12  1  0
 11 18  1  0
 12 19  1  0
 12 13  1  0
 12 20  1  0
 13 14  1  0
 14 22  1  0
 14 21  1  0
 14 15  1  0
M  RAD  1  10   2
M  END
>  <rmg_smiles>  (3) 
[CH]1CCOCO1.C[CH][N]O

>  <rmg_adjacency_list>  (3) 
multiplicity 2
1  O u0 p2 c0 {6,S} {7,S}
2  O u0 p2 c0 {7,S} {9,S}
3  O u0 p2 c0 {4,S} {22,S}
4  N u0 p1 c0 {3,S} {10,S}
5  C u0 p0 c0 {6,S} {9,S} {11,S} {12,S}
6  C u0 p0 c0 {1,S} {5,S} {13,S} {14,S}
7  C u0 p0 c0 {1,S} {2,S} {18,S} {19,S}
8  C u0 p0 c0 {10,S} {15,S} {16,S} {17,S}
9  C u1 p0 c0 {2,S} {5,S} {21,S}
10 C u0 p0 c0 {4,S} {8,S} {20,S}
11 H u0 p0 c0 {5,S}
12 H u0 p0 c0 {5,S}
13 H u0 p0 c0 {6,S}
14 H u0 p0 c0 {6,S}
15 H u0 p0 c0 {8,S}
16 H u0 p0 c0 {8,S}
17 H u0 p0 c0 {8,S}
18 H u0 p0 c0 {7,S}
19 H u0 p0 c0 {7,S}
20 H u0 p0 c0 {10,S}
21 H u0 p0 c0 {9,S}
22 H u0 p0 c0 {3,S}


>  <multiplicity>  (3) 
2

>  <reaction>  (3) 
rmg_rxn_253

>  <type>  (3) 
ts

>  <role_mapnums>  (3) 
{"*2": 9, "*1": 4, "*3": 10, "*0": 3, "*4": 15}

>  <role_mapidx>  (3) 
{"*2": 8, "*1": 3, "*3": 9, "*0": 2, "*4": 14}

>  <ordered_mapped_smiles>  (3) 
[C:1]([CH:2]([NH:3][O:4][H:9])[H:8])([H:5])([H:6])[H:7].[C:10]1([H:16])[C:11]([H:17])([H:18])[C:12]([H:19])([H:20])[O:13][C:14]([H:21])([H:22])[O:15]1

>  <mol_properties>  (3) 
{"2": {"label": "*0", "atom_type": "N3s"}, "3": {"label": "*1", "atom_type": "O2s"}, "8": {"label": "*2", "atom_type": "H0"}, "9": {"label": "*3", "atom_type": "Cs"}, "14": {"label": "*4", "atom_type": "O2s"}}

>  <level_of_theory>  (3) 
wb97xd/def2tzvp

>  <lot_method>  (3) 
wb97xd

>  <lot_basis>  (3) 
def2tzvp

>  <spin_multiplicity>  (3) 
2.0

>  <optical_isomers>  (3) 
2.0

>  <modes>  (3) 
IdealGasTranslation(mass=(146.082, 'amu')),         NonlinearRotor(             inertia = ([198.924, 898.803, 957.357

>  <frequency_value>  (3) 
-2005.67

>  <frequency_units>  (3) 
cm^-1

>  <frequency_list>  (3) 
unknown

>  <arkane_path>  (3) 
/home/calvin/Dropbox/PersonalFolders/Calvin/ATLAS_Converged/rmg_rxn_253/output/rxns/TS0/arkane/output.py

>  <path_exists>  (3) 
True

>  <E0_value>  (3) 
-1354720.0

>  <E0_units>  (3) 
kJ/mol

>  <thermo_class>  (3) 
unknown

>  <Cp0_value>  (3) 
unknown

>  <Cp0_units>  (3) 
unknown

>  <CpInf_value>  (3) 
unknown

>  <CpInf_units>  (3) 
unknown

>  <Tmin_value>  (3) 
unknown

>  <Tmin_units>  (3) 
unknown

>  <Tmax_value>  (3) 
unknown

>  <Tmax_units>  (3) 
unknown

>  <polynomials>  (3) 
unknown

>  <H298_value>  (3) 
unknown

>  <H298_units>  (3) 
unknown

>  <S298_value>  (3) 
unknown

>  <S298_units>  (3) 
unknown

>  <Cp_T_value_list>  (3) 
unknown

>  <Cp_T_units>  (3) 
unknown

>  <T_list>  (3) 
unknown

>  <T_units>  (3) 
unknown

>  <yaml_path>  (3) 
unknown

>  <frequencies_cm1>  (3) 
unknown

>  <ZPE_kJmol>  (3) 
unknown

>  <E_elec_kJmol>  (3) 
unknown

>  <E0_minus_Eelec_plus_ZPE_kJmol>  (3) 
unknown

>  <rxn>  (3) 
unknown

>  <species_type>  (3) 
unknown

>  <species_folder>  (3) 
unknown

>  <frequencies_cm1_list>  (3) 
[]

>  <ts_imag_freq_cm1>  (3) 
-2030.0266

>  <ts_freq_out_path>  (3) 
/home/calvin/Dropbox/PersonalFolders/Calvin/ATLAS_Converged/rmg_rxn_253/output/rxns/TS0/geometry/freq.out

>  <E0_kJmol>  (3) 
-1.35472e+06

>  <H298_kJmol>  (3) 
unknown

$$$$

     RDKit          3D

  8  7  0  0  0  0  0  0  0  0999 V2000
   -0.9728    0.1768    0.1542 C   0  0  0  0  0  0  0  0  0  1  0  0
    0.4518   -0.2348    0.0047 C   0  0  0  0  0  0  0  0  0  2  0  0
    1.3116    0.0208    0.9062 N   0  0  0  0  0  0  0  0  0  3  0  0
    2.5018   -0.1901    1.0428 O   0  0  0  0  0  1  0  0  0  4  0  0
   -1.2701    0.8423   -0.6593 H   0  0  0  0  0  0  0  0  0  5  0  0
   -1.6318   -0.6936    0.1212 H   0  0  0  0  0  0  0  0  0  6  0  0
   -1.1258    0.6936    1.1003 H   0  0  0  0  0  0  0  0  0  7  0  0
    0.7882   -0.7655   -0.8838 H   0  0  0  0  0  0  0  0  0  8  0  0
  1  5  1  0
  1  7  1  0
  1  6  1  0
  1  2  1  0
  2  3  1  0
  2  8  1  0
  3  4  1  0
M  RAD  1   4   2
M  END
>  <rmg_smiles>  (4) 
C[CH][N][O]

>  <rmg_adjacency_list>  (4) 
multiplicity 2
1 O u1 p2 c0 {2,S}
2 N u0 p1 c0 {1,S} {4,S}
3 C u0 p0 c0 {4,S} {5,S} {6,S} {7,S}
4 C u0 p0 c0 {2,S} {3,S} {8,S}
5 H u0 p0 c0 {3,S}
6 H u0 p0 c0 {3,S}
7 H u0 p0 c0 {3,S}
8 H u0 p0 c0 {4,S}


>  <multiplicity>  (4) 
2

>  <reaction>  (4) 
rmg_rxn_253

>  <type>  (4) 
r1

>  <role_mapnums>  (4) 
{}

>  <role_mapidx>  (4) 
{}

>  <ordered_mapped_smiles>  (4) 
[C:1]([CH:2]([NH:3][O:4])[H:8])([H:5])([H:6])[H:7]

>  <level_of_theory>  (4) 
wb97xd/def2tzvp

>  <lot_method>  (4) 
wb97xd

>  <lot_basis>  (4) 
def2tzvp

>  <spin_multiplicity>  (4) 
2.0

>  <optical_isomers>  (4) 
1.0

>  <modes>  (4) 
IdealGasTranslation(mass=(58.0293, 'amu')),         NonlinearRotor(             inertia = ([9.31113, 114.15, 120.338

>  <frequency_value>  (4) 
unknown

>  <frequency_units>  (4) 
unknown

>  <frequency_list>  (4) 
unknown

>  <arkane_path>  (4) 
/home/calvin/Dropbox/PersonalFolders/Calvin/ATLAS_Converged/rmg_rxn_253/output/Species/rmg_rxn_253_p1_CC=Nsbr-O-sbr/arkane/output.py

>  <path_exists>  (4) 
True

>  <E0_value>  (4) 
-547291.9822369756

>  <E0_units>  (4) 
kJ/mol

>  <thermo_class>  (4) 
NASA

>  <Cp0_value>  (4) 
33.257888

>  <Cp0_units>  (4) 
J/(mol*K)

>  <CpInf_value>  (4) 
182.918384

>  <CpInf_units>  (4) 
J/(mol*K)

>  <Tmin_value>  (4) 
10.0

>  <Tmin_units>  (4) 
K

>  <Tmax_value>  (4) 
3000.0

>  <Tmax_units>  (4) 
K

>  <polynomials>  (4) 
[{"name": "polynomial1", "class": "NASAPolynomial", "Tmin_value": 10.0, "Tmin_units": "K", "Tmax_value": 448.469821583942, "Tmax_units": "K", "coeffs": [3.8887722230996813, 0.008399169692485739, 4.23423230637367e-05, -8.042531461118158e-08, 4.6620175661053446e-11, -65824018.56271867, 8.787674089328345]}, {"name": "polynomial2", "class": "NASAPolynomial", "Tmin_value": 448.469821583942, "Tmin_units": "K", "Tmax_value": 3000.0, "Tmax_units": "K", "coeffs": [1.9857514593635577, 0.025372613622198854, -1.4428825534244759e-05, 3.966995228918133e-09, -4.24376034853994e-13, -65823847.87311471, 16.442591867910245]}]

>  <H298_value>  (4) 
-130802.40292482237

>  <H298_units>  (4) 
kcal/mol

>  <S298_value>  (4) 
68.97171532665904

>  <S298_units>  (4) 
cal/(mol*K)

>  <Cp_T_value_list>  (4) 
[16.743153000165332, 20.010112573021154, 22.92084276433073, 25.469656650185197, 29.622633813984088, 32.733580935653485, 37.39926541997259, 39.66786469099458, 40.797255640626396]

>  <Cp_T_units>  (4) 
cal/(mol*K)

>  <T_list>  (4) 
[300.0, 400.0, 500.0, 600.0, 800.0, 1000.0, 1500.0, 2000.0, 2400.0]

>  <T_units>  (4) 
K

>  <yaml_path>  (4) 
/home/calvin/Dropbox/PersonalFolders/Calvin/ATLAS_Converged/rmg_rxn_253/output/Species/rmg_rxn_253_p1_CC=Nsbr-O-sbr/rmg_rxn_253_p1_CC=Nsbr-O-sbr.yml

>  <frequencies_cm1>  (4) 
[167.29349636583999, 305.41603909232, 336.48228068, 536.4488931984, 789.99859216876, 920.0661611148798, 1055.0848264767199, 1131.0542850718798, 1256.94672694344, 1389.69928714968, 1433.0368315041999, 1463.78719176716, 1488.27486141828, 1754.1988679352798, 3017.2297438722394, 3076.07294107932, 3099.7159715360795, 3119.71263278792]

>  <ZPE_kJmol>  (4) 
157.55134027947926

>  <E_elec_kJmol>  (4) 
-547449.5335772551

>  <E0_minus_Eelec_plus_ZPE_kJmol>  (4) 
0.0

>  <rxn>  (4) 
rmg_rxn_253

>  <species_type>  (4) 
p0

>  <species_folder>  (4) 
rmg_rxn_253_p1_CC=Nsbr-O-sbr

>  <frequencies_cm1_list>  (4) 
[167.29349636583999, 305.41603909232, 336.48228068, 536.4488931984, 789.99859216876, 920.0661611148798, 1055.0848264767199, 1131.0542850718798, 1256.94672694344, 1389.69928714968, 1433.0368315041999, 1463.78719176716, 1488.27486141828, 1754.1988679352798, 3017.2297438722394, 3076.07294107932, 3099.7159715360795, 3119.71263278792]

>  <E0_kJmol>  (4) 
-547292

>  <H298_kJmol>  (4) 
-547277

$$$$

     RDKit          3D

 13 13  0  0  0  0  0  0  0  0999 V2000
   -0.9087    1.0135    0.2744 C   0  0  0  0  0  3  0  0  0  1  0  0
   -1.1528   -0.4306   -0.0132 C   0  0  0  0  0  0  0  0  0  2  0  0
    0.1597   -1.1985    0.0580 C   0  0  0  0  0  0  0  0  0  3  0  0
    1.1497   -0.5125   -0.6902 O   0  0  0  0  0  0  0  0  0  4  0  0
    1.3593    0.7608   -0.1866 C   0  0  0  0  0  0  0  0  0  5  0  0
    0.2092    1.5798   -0.2538 O   0  0  0  0  0  0  0  0  0  6  0  0
   -1.7260    1.7182    0.3534 H   0  0  0  0  0  0  0  0  0  7  0  0
   -1.8796   -0.8393    0.6913 H   0  0  0  0  0  0  0  0  0  8  0  0
   -1.5725   -0.5507   -1.0227 H   0  0  0  0  0  0  0  0  0  9  0  0
    0.4914   -1.2968    1.1007 H   0  0  0  0  0  0  0  0  0 10  0  0
    0.0732   -2.1931   -0.3758 H   0  0  0  0  0  0  0  0  0 11  0  0
    1.6805    0.7077    0.8652 H   0  0  0  0  0  0  0  0  0 12  0  0
    2.1167    1.2415   -0.8007 H   0  0  0  0  0  0  0  0  0 13  0  0
  1  6  1  0
  1  7  1  0
  1  2  1  0
  2  9  1  0
  2  8  1  0
  2  3  1  0
  3 11  1  0
  3  4  1  0
  3 10  1  0
  4  5  1  0
  5 13  1  0
  5  6  1  0
  5 12  1  0
M  RAD  1   1   2
M  END
>  <rmg_smiles>  (5) 
[CH]1CCOCO1

>  <rmg_adjacency_list>  (5) 
multiplicity 2
1  O u0 p2 c0 {4,S} {5,S}
2  O u0 p2 c0 {5,S} {6,S}
3  C u0 p0 c0 {4,S} {6,S} {7,S} {8,S}
4  C u0 p0 c0 {1,S} {3,S} {9,S} {10,S}
5  C u0 p0 c0 {1,S} {2,S} {11,S} {12,S}
6  C u1 p0 c0 {2,S} {3,S} {13,S}
7  H u0 p0 c0 {3,S}
8  H u0 p0 c0 {3,S}
9  H u0 p0 c0 {4,S}
10 H u0 p0 c0 {4,S}
11 H u0 p0 c0 {5,S}
12 H u0 p0 c0 {5,S}
13 H u0 p0 c0 {6,S}


>  <multiplicity>  (5) 
2

>  <reaction>  (5) 
rmg_rxn_253

>  <type>  (5) 
r2

>  <role_mapnums>  (5) 
{}

>  <role_mapidx>  (5) 
{}

>  <ordered_mapped_smiles>  (5) 
[C:1]1([H:7])[C:2]([H:8])([H:9])[C:3]([H:10])([H:11])[O:4][C:5]([H:12])([H:13])[O:6]1

>  <level_of_theory>  (5) 
wb97xd/def2tzvp

>  <lot_method>  (5) 
wb97xd

>  <lot_basis>  (5) 
def2tzvp

>  <spin_multiplicity>  (5) 
2.0

>  <optical_isomers>  (5) 
2.0

>  <modes>  (5) 
IdealGasTranslation(mass=(87.0446, 'amu')),         NonlinearRotor(             inertia = ([96.9848, 100.571, 180.326

>  <frequency_value>  (5) 
unknown

>  <frequency_units>  (5) 
unknown

>  <frequency_list>  (5) 
unknown

>  <arkane_path>  (5) 
/home/calvin/Dropbox/PersonalFolders/Calvin/ATLAS_Converged/rmg_rxn_253/output/Species/rmg_rxn_253_r2_sbr-CH-sbr1CCOCO1/arkane/output.py

>  <path_exists>  (5) 
True

>  <E0_value>  (5) 
-805827.3421493819

>  <E0_units>  (5) 
kJ/mol

>  <thermo_class>  (5) 
NASA

>  <Cp0_value>  (5) 
33.257888

>  <Cp0_units>  (5) 
J/(mol*K)

>  <CpInf_value>  (5) 
307.635464

>  <CpInf_units>  (5) 
J/(mol*K)

>  <Tmin_value>  (5) 
10.0

>  <Tmin_units>  (5) 
K

>  <Tmax_value>  (5) 
3000.0

>  <Tmax_units>  (5) 
K

>  <polynomials>  (5) 
[{"name": "polynomial1", "class": "NASAPolynomial", "Tmin_value": 10.0, "Tmin_units": "K", "Tmax_value": 594.5881445366083, "Tmax_units": "K", "coeffs": [4.0448110838926565, -0.004287247298286005, 0.0001561678296055211, -2.5056792670345e-07, 1.28608989510542e-10, -96918641.31425966, 11.310846190181683]}, {"name": "polynomial2", "class": "NASAPolynomial", "Tmin_value": 594.5881445366083, "Tmin_units": "K", "Tmax_value": 3000.0, "Tmax_units": "K", "coeffs": [-2.0223142792396813, 0.05358769196829288, -3.287284368824778e-05, 9.64252563065185e-09, -1.0874709432735165e-12, -96918221.37894577, 34.89119071361758]}]

>  <H298_value>  (5) 
-192593.46110107773

>  <H298_units>  (5) 
kcal/mol

>  <S298_value>  (5) 
75.62180337642914

>  <S298_units>  (5) 
cal/(mol*K)

>  <Cp_T_value_list>  (5) 
[22.038399005889005, 28.959178246137498, 35.09449573071628, 40.21693905885679, 48.29063691328946, 54.14658537653456, 62.464910648605866, 66.37739659151993, 68.47747700545682]

>  <Cp_T_units>  (5) 
cal/(mol*K)

>  <T_list>  (5) 
[300.0, 400.0, 500.0, 600.0, 800.0, 1000.0, 1500.0, 2000.0, 2400.0]

>  <T_units>  (5) 
K

>  <yaml_path>  (5) 
/home/calvin/Dropbox/PersonalFolders/Calvin/ATLAS_Converged/rmg_rxn_253/output/Species/rmg_rxn_253_r2_sbr-CH-sbr1CCOCO1/rmg_rxn_253_r2_sbr-CH-sbr1CCOCO1.yml

>  <frequencies_cm1>  (5) 
[225.5461328354, 251.49647035968, 410.99593838732, 475.95761951452, 495.8306750306, 591.7830609069599, 728.8686888501201, 860.14484721256, 919.0292463315599, 933.8413336668, 1002.5523887787199, 1034.68988007632, 1061.81447209032, 1129.37187366848, 1164.5789074041202, 1229.20410625064, 1259.04115746604, 1263.30555534976, 1323.45347976764, 1354.19010605996, 1364.1609687445998, 1410.3689129628801, 1445.48667588936, 1452.1064497378397, 1489.32551017224, 1505.45605868892, 2941.13667954132, 2947.4199711091196, 2972.12051730516, 3065.6282564076, 3096.83183770168, 3120.1177849217997, 3169.457074446]

>  <ZPE_kJmol>  (5) 
285.28140433887154

>  <E_elec_kJmol>  (5) 
-806112.6235537208

>  <E0_minus_Eelec_plus_ZPE_kJmol>  (5) 
0.0

>  <rxn>  (5) 
rmg_rxn_253

>  <species_type>  (5) 
r1

>  <species_folder>  (5) 
rmg_rxn_253_r2_sbr-CH-sbr1CCOCO1

>  <frequencies_cm1_list>  (5) 
[225.5461328354, 251.49647035968, 410.99593838732, 475.95761951452, 495.8306750306, 591.7830609069599, 728.8686888501201, 860.14484721256, 919.0292463315599, 933.8413336668, 1002.5523887787199, 1034.68988007632, 1061.81447209032, 1129.37187366848, 1164.5789074041202, 1229.20410625064, 1259.04115746604, 1263.30555534976, 1323.45347976764, 1354.19010605996, 1364.1609687445998, 1410.3689129628801, 1445.48667588936, 1452.1064497378397, 1489.32551017224, 1505.45605868892, 2941.13667954132, 2947.4199711091196, 2972.12051730516, 3065.6282564076, 3096.83183770168, 3120.1177849217997, 3169.457074446]

>  <E0_kJmol>  (5) 
-805827

>  <H298_kJmol>  (5) 
-805811

$$$$
