
     RDKit          3D

  6  5  0  0  0  0  0  0  0  0999 V2000
    0.2529    0.2059    1.2154 C   0  0  0  0  0  0  0  0  0  1  0  0
   -0.0040   -0.0033   -0.1563 C   0  0  0  0  0  2  0  0  0  2  0  0
   -0.2491   -0.2028   -1.2668 N   0  0  0  0  0  0  0  0  0  3  0  0
   -0.5022   -0.4089    1.6953 H   0  0  0  0  0  0  0  0  0  4  0  0
    1.1812   -0.2206    1.5825 H   0  0  0  0  0  0  0  0  0  5  0  0
    0.0236    1.2014    1.5825 H   0  0  0  0  0  0  0  0  0  6  0  0
  1  5  1  0
  1  4  1  0
  1  6  1  0
  1  2  1  0
  2  3  1  0
M  RAD  1   2   3
M  END
>  <rmg_smiles>  (1) 
C[C][N]

>  <rmg_adjacency_list>  (1) 
1 N u0 p2 c0 {3,S}
2 C u0 p0 c0 {3,S} {4,S} {5,S} {6,S}
3 C u0 p1 c0 {1,S} {2,S}
4 H u0 p0 c0 {2,S}
5 H u0 p0 c0 {2,S}
6 H u0 p0 c0 {2,S}


>  <multiplicity>  (1) 
1

>  <reaction>  (1) 
rmg_rxn_94

>  <type>  (1) 
r1h

>  <role_mapnums>  (1) 
{"r1h_a": 1, "r1h_h": 4}

>  <role_mapidx>  (1) 
{"r1h_a": 0, "r1h_h": 3}

>  <ordered_mapped_smiles>  (1) 
[C:1]([C:2][NH2:3])([H:4])([H:5])[H:6]

>  <mol_properties>  (1) 
{"0": {"label": "donator", "atom_type": "Cs"}, "3": {"label": "d_hydrogen", "atom_type": "H0"}}

>  <level_of_theory>  (1) 
wb97xd/def2tzvp

>  <lot_method>  (1) 
wb97xd

>  <lot_basis>  (1) 
def2tzvp

>  <spin_multiplicity>  (1) 
1.0

>  <optical_isomers>  (1) 
1.0

>  <modes>  (1) 
IdealGasTranslation(mass=(41.0266, 'amu')),         NonlinearRotor(             inertia = ([3.17088, 54.2986, 54.2986

>  <frequency_value>  (1) 
unknown

>  <frequency_units>  (1) 
unknown

>  <frequency_list>  (1) 
unknown

>  <arkane_path>  (1) 
/home/calvin/Dropbox/PersonalFolders/Calvin/ATLAS_Converged/rmg_rxn_94/output/Species/rmg_rxn_94_r1_CCtN/arkane/output.py

>  <path_exists>  (1) 
True

>  <E0_value>  (1) 
-348435.7290944858

>  <E0_units>  (1) 
kJ/mol

>  <thermo_class>  (1) 
NASA

>  <Cp0_value>  (1) 
33.257888

>  <Cp0_units>  (1) 
J/(mol*K)

>  <CpInf_value>  (1) 
133.031552

>  <CpInf_units>  (1) 
J/(mol*K)

>  <Tmin_value>  (1) 
10.0

>  <Tmin_units>  (1) 
K

>  <Tmax_value>  (1) 
3000.0

>  <Tmax_units>  (1) 
K

>  <polynomials>  (1) 
[{"name": "polynomial1", "class": "NASAPolynomial", "Tmin_value": 10.0, "Tmin_units": "K", "Tmax_value": 511.0047217811454, "Tmax_units": "K", "coeffs": [3.9891826765760365, 0.0005009089420291138, 3.81914805026896e-05, -5.897492548510201e-08, 2.9733594077892804e-11, -41907137.48145763, 5.038698918911015]}, {"name": "polynomial2", "class": "NASAPolynomial", "Tmin_value": 511.0047217811454, "Tmin_units": "K", "Tmax_value": 3000.0, "Tmax_units": "K", "coeffs": [1.9459503138127907, 0.016494897079574664, -8.757595355908857e-06, 2.2763036875881413e-09, -2.327551492775615e-13, -41906928.66307153, 13.524317380785753]}]

>  <H298_value>  (1) 
-83275.2633014586

>  <H298_units>  (1) 
kcal/mol

>  <S298_value>  (1) 
57.92485573002877

>  <S298_units>  (1) 
cal/(mol*K)

>  <Cp_T_value_list>  (1) 
[12.37077326759869, 14.480710005326102, 16.442129136256206, 18.18625963405398, 21.078573448235012, 23.303574339623086, 26.803259226518527, 28.599299992988165, 29.480842343276066]

>  <Cp_T_units>  (1) 
cal/(mol*K)

>  <T_list>  (1) 
[300.0, 400.0, 500.0, 600.0, 800.0, 1000.0, 1500.0, 2000.0, 2400.0]

>  <T_units>  (1) 
K

>  <yaml_path>  (1) 
/home/calvin/Dropbox/PersonalFolders/Calvin/ATLAS_Converged/rmg_rxn_94/output/Species/rmg_rxn_94_r1_CCtN/rmg_rxn_94_r1_CCtN.yml

>  <frequencies_cm1>  (1) 
[383.692804755, 383.87134637331997, 927.5237071724, 1053.3268782348, 1053.59469066228, 1399.2855986564, 1460.8824569768, 1461.14340241896, 2373.9992289478396, 3039.28650072008, 3120.96242411616, 3121.60792073624]

>  <ZPE_kJmol>  (1) 
118.30578452478277

>  <E_elec_kJmol>  (1) 
-348554.0348790106

>  <E0_minus_Eelec_plus_ZPE_kJmol>  (1) 
0.0

>  <rxn>  (1) 
rmg_rxn_94

>  <species_type>  (1) 
r0

>  <species_folder>  (1) 
rmg_rxn_94_r1_CCtN

>  <frequencies_cm1_list>  (1) 
[383.692804755, 383.87134637331997, 927.5237071724, 1053.3268782348, 1053.59469066228, 1399.2855986564, 1460.8824569768, 1461.14340241896, 2373.9992289478396, 3039.28650072008, 3120.96242411616, 3121.60792073624]

>  <E0_kJmol>  (1) 
-348436

>  <H298_kJmol>  (1) 
-348424

$$$$

     RDKit          3D

  9  8  0  0  0  0  0  0  0  0999 V2000
    1.7446    1.4202    0.7275 H   0  0  0  0  0  0  0  0  0  1  0  0
   -1.1793   -0.9600   -1.1459 C   0  0  0  0  0  0  0  0  0  2  0  0
   -0.5039   -0.4102    0.0613 C   0  0  0  0  0  0  0  0  0  3  0  0
    0.4734    0.3854   -0.0659 N   0  0  0  0  0  0  0  0  0  4  0  0
    1.0399    0.8465    1.0371 O   0  0  0  0  0  0  0  0  0  5  0  0
   -1.1266   -2.0512   -1.1491 H   0  0  0  0  0  0  0  0  0  6  0  0
   -2.2371   -0.6870   -1.1491 H   0  0  0  0  0  0  0  0  0  7  0  0
   -0.7091   -0.5773   -2.0500 H   0  0  0  0  0  0  0  0  0  8  0  0
   -0.8530   -0.6944    1.0540 H   0  0  0  0  0  0  0  0  0  9  0  0
  1  5  1  0
  2  8  1  0
  2  7  1  0
  2  6  1  0
  2  3  1  0
  3  4  1  0
  3  9  1  0
  4  5  1  0
M  END
>  <rmg_smiles>  (2) 
C[CH][N]O

>  <rmg_adjacency_list>  (2) 
1 O u0 p2 c0 {2,S} {9,S}
2 N u0 p1 c0 {1,S} {4,S}
3 C u0 p0 c0 {4,S} {5,S} {6,S} {7,S}
4 C u0 p0 c0 {2,S} {3,S} {8,S}
5 H u0 p0 c0 {3,S}
6 H u0 p0 c0 {3,S}
7 H u0 p0 c0 {3,S}
8 H u0 p0 c0 {4,S}
9 H u0 p0 c0 {1,S}


>  <multiplicity>  (2) 
1

>  <reaction>  (2) 
rmg_rxn_94

>  <type>  (2) 
r2h

>  <role_mapnums>  (2) 
{"r2h_a": 5, "r2h_h": 1}

>  <role_mapidx>  (2) 
{"r2h_a": 4, "r2h_h": 0}

>  <ordered_mapped_smiles>  (2) 
[H:1][O:5][NH:4][CH:3]([C:2]([H:6])([H:7])[H:8])[H:9]

>  <mol_properties>  (2) 
{"0": {"label": "a_hydrogen", "atom_type": "H0"}, "4": {"label": "acceptor", "atom_type": "O2s"}}

>  <level_of_theory>  (2) 
wb97xd/def2tzvp

>  <lot_method>  (2) 
wb97xd

>  <lot_basis>  (2) 
def2tzvp

>  <spin_multiplicity>  (2) 
1.0

>  <optical_isomers>  (2) 
1.0

>  <modes>  (2) 
IdealGasTranslation(mass=(59.0371, 'amu')),         NonlinearRotor(             inertia = ([10.7603, 118.091, 125.733

>  <frequency_value>  (2) 
unknown

>  <frequency_units>  (2) 
unknown

>  <frequency_list>  (2) 
unknown

>  <arkane_path>  (2) 
/home/calvin/Dropbox/PersonalFolders/Calvin/ATLAS_Converged/rmg_rxn_94/output/Species/rmg_rxn_94_p2_CC=NO/arkane/output.py

>  <path_exists>  (2) 
True

>  <E0_value>  (2) 
-548937.8541984448

>  <E0_units>  (2) 
kJ/mol

>  <thermo_class>  (2) 
NASA

>  <Cp0_value>  (2) 
33.257888

>  <Cp0_units>  (2) 
J/(mol*K)

>  <CpInf_value>  (2) 
207.8618

>  <CpInf_units>  (2) 
J/(mol*K)

>  <Tmin_value>  (2) 
10.0

>  <Tmin_units>  (2) 
K

>  <Tmax_value>  (2) 
3000.0

>  <Tmax_units>  (2) 
K

>  <polynomials>  (2) 
[{"name": "polynomial1", "class": "NASAPolynomial", "Tmin_value": 10.0, "Tmin_units": "K", "Tmax_value": 335.1910179037978, "Tmax_units": "K", "coeffs": [3.936344167606981, 0.004744355844830638, 9.160790844518127e-05, -2.1061910314248552e-07, 1.6006484261890122e-10, -66021973.16953679, 8.120493921530757]}, {"name": "polynomial2", "class": "NASAPolynomial", "Tmin_value": 335.1910179037978, "Tmin_units": "K", "Tmax_value": 3000.0, "Tmax_units": "K", "coeffs": [1.9092598311329627, 0.02893435817357441, -1.6642930351421066e-05, 4.680937669481693e-09, -5.139624250773394e-13, -66021837.27634088, 15.684306465260459]}]

>  <H298_value>  (2) 
-131195.6144386416

>  <H298_units>  (2) 
kcal/mol

>  <S298_value>  (2) 
68.52934918863554

>  <S298_units>  (2) 
cal/(mol*K)

>  <Cp_T_value_list>  (2) 
[18.310462740749653, 22.071021910178956, 25.374045411772553, 28.263825064535727, 32.970522087113224, 36.50033911765962, 41.85143067881395, 44.573751899405494, 45.995252148342956]

>  <Cp_T_units>  (2) 
cal/(mol*K)

>  <T_list>  (2) 
[300.0, 400.0, 500.0, 600.0, 800.0, 1000.0, 1500.0, 2000.0, 2400.0]

>  <T_units>  (2) 
K

>  <yaml_path>  (2) 
/home/calvin/Dropbox/PersonalFolders/Calvin/ATLAS_Converged/rmg_rxn_94/output/Species/rmg_rxn_94_p2_CC=NO/rmg_rxn_94_p2_CC=NO.yml

>  <frequencies_cm1>  (2) 
[197.06187772804, 291.09837470012, 328.62644947392, 407.23283043195994, 570.83188869564, 914.3734302846, 916.92108183832, 1038.1439736922798, 1079.0094033316, 1148.38655601956, 1286.64643845244, 1390.76366987428, 1438.44801593636, 1464.57689507896, 1470.4000986303201, 1752.33104792824, 3016.9275965181596, 3076.79397453792, 3080.3236049924, 3121.5941867655997, 3848.4577159022797]

>  <ZPE_kJmol>  (2) 
190.43926148497908

>  <E_elec_kJmol>  (2) 
-549128.2934599298

>  <E0_minus_Eelec_plus_ZPE_kJmol>  (2) 
0.0

>  <rxn>  (2) 
rmg_rxn_94

>  <species_type>  (2) 
p1

>  <species_folder>  (2) 
rmg_rxn_94_p2_CC=NO

>  <frequencies_cm1_list>  (2) 
[197.06187772804, 291.09837470012, 328.62644947392, 407.23283043195994, 570.83188869564, 914.3734302846, 916.92108183832, 1038.1439736922798, 1079.0094033316, 1148.38655601956, 1286.64643845244, 1390.76366987428, 1438.44801593636, 1464.57689507896, 1470.4000986303201, 1752.33104792824, 3016.9275965181596, 3076.79397453792, 3080.3236049924, 3121.5941867655997, 3848.4577159022797]

>  <E0_kJmol>  (2) 
-548938

>  <H298_kJmol>  (2) 
-548922

$$$$

     RDKit          3D

 14 12  0  0  0  0  0  0  0  0999 V2000
    1.7378    1.4146    0.5802 C   0  0  0  0  0  0  0  0  0  1  0  0
    1.4809    1.2055   -0.7914 C   0  0  0  0  0  0  0  0  0  2  0  0
    1.2357    1.0060   -1.9019 N   0  0  0  0  0  2  0  0  0  3  0  0
    0.7786    0.6338    1.1898 H   0  0  0  0  0  0  0  0  0  4  0  0
    2.6661    0.9882    0.9473 H   0  0  0  0  0  0  0  0  0  5  0  0
    1.5085    2.4102    0.9473 H   0  0  0  0  0  0  0  0  0  6  0  0
   -2.2865   -1.8614   -0.6215 C   0  0  0  0  0  0  0  0  0  7  0  0
   -1.6112   -1.3116    0.5856 C   0  0  0  0  0  0  0  0  0  8  0  0
   -0.6338   -0.5159    0.4584 N   0  0  0  0  0  0  0  0  0  9  0  0
   -0.0674   -0.0548    1.5614 O   0  0  0  0  0  0  0  0  0 10  0  0
   -2.2338   -2.9525   -0.6247 H   0  0  0  0  0  0  0  0  0 11  0  0
   -3.3443   -1.5884   -0.6247 H   0  0  0  0  0  0  0  0  0 12  0  0
   -1.8163   -1.4786   -1.5257 H   0  0  0  0  0  0  0  0  0 13  0  0
   -1.9602   -1.5957    1.5783 H   0  0  0  0  0  0  0  0  0 14  0  0
  1  5  1  0
  1  6  1  0
  1  2  1  0
  2  3  1  0
  4 10  1  0
  7 13  1  0
  7 12  1  0
  7  8  1  0
  7 11  1  0
  8 14  1  0
  8  9  1  0
  9 10  1  0
M  RAD  1   3   2
M  END
>  <rmg_smiles>  (3) 
C[CH][N]O.[CH2][C][N]

>  <rmg_adjacency_list>  (3) 
multiplicity 2
1  O u0 p2 c0 {2,S} {14,S}
2  N u0 p1 c0 {1,S} {5,S}
3  N u1 p2 c0 {7,S}
4  C u0 p0 c0 {5,S} {8,S} {9,S} {10,S}
5  C u0 p0 c0 {2,S} {4,S} {11,S}
6  C u0 p0 c0 {7,S} {12,S} {13,S}
7  C u0 p1 c0 {3,S} {6,S}
8  H u0 p0 c0 {4,S}
9  H u0 p0 c0 {4,S}
10 H u0 p0 c0 {4,S}
11 H u0 p0 c0 {5,S}
12 H u0 p0 c0 {6,S}
13 H u0 p0 c0 {6,S}
14 H u0 p0 c0 {1,S}


>  <multiplicity>  (3) 
2

>  <reaction>  (3) 
rmg_rxn_94

>  <type>  (3) 
ts

>  <role_mapnums>  (3) 
{"*2": 4, "*1": 1, "*3": 10, "*0": 9, "*4": 2}

>  <role_mapidx>  (3) 
{"*2": 3, "*1": 0, "*3": 9, "*0": 8, "*4": 1}

>  <ordered_mapped_smiles>  (3) 
[CH:1]([CH2:2][NH:3])([H:5])[H:6].[H:4][O:10][NH:9][CH:8]([C:7]([H:11])([H:12])[H:13])[H:14]

>  <mol_properties>  (3) 
{"0": {"label": "*1", "atom_type": "Cs"}, "1": {"label": "*4", "atom_type": "C2s"}, "3": {"label": "*2", "atom_type": "H0"}, "8": {"label": "*0", "atom_type": "N3s"}, "9": {"label": "*3", "atom_type": "O2s"}}

>  <level_of_theory>  (3) 
wb97xd/def2tzvp

>  <lot_method>  (3) 
wb97xd

>  <lot_basis>  (3) 
def2tzvp

>  <spin_multiplicity>  (3) 
2.0

>  <optical_isomers>  (3) 
1.0

>  <modes>  (3) 
IdealGasTranslation(mass=(99.0558, 'amu')),         NonlinearRotor(             inertia = ([120.025, 366.456, 479.974

>  <frequency_value>  (3) 
-2081.99

>  <frequency_units>  (3) 
cm^-1

>  <frequency_list>  (3) 
unknown

>  <arkane_path>  (3) 
/home/calvin/Dropbox/PersonalFolders/Calvin/ATLAS_Converged/rmg_rxn_94/output/rxns/TS0/arkane/output.py

>  <path_exists>  (3) 
True

>  <E0_value>  (3) 
-895617.0

>  <E0_units>  (3) 
kJ/mol

>  <thermo_class>  (3) 
unknown

>  <Cp0_value>  (3) 
unknown

>  <Cp0_units>  (3) 
unknown

>  <CpInf_value>  (3) 
unknown

>  <CpInf_units>  (3) 
unknown

>  <Tmin_value>  (3) 
unknown

>  <Tmin_units>  (3) 
unknown

>  <Tmax_value>  (3) 
unknown

>  <Tmax_units>  (3) 
unknown

>  <polynomials>  (3) 
unknown

>  <H298_value>  (3) 
unknown

>  <H298_units>  (3) 
unknown

>  <S298_value>  (3) 
unknown

>  <S298_units>  (3) 
unknown

>  <Cp_T_value_list>  (3) 
unknown

>  <Cp_T_units>  (3) 
unknown

>  <T_list>  (3) 
unknown

>  <T_units>  (3) 
unknown

>  <yaml_path>  (3) 
unknown

>  <frequencies_cm1>  (3) 
unknown

>  <ZPE_kJmol>  (3) 
unknown

>  <E_elec_kJmol>  (3) 
unknown

>  <E0_minus_Eelec_plus_ZPE_kJmol>  (3) 
unknown

>  <rxn>  (3) 
unknown

>  <species_type>  (3) 
unknown

>  <species_folder>  (3) 
unknown

>  <frequencies_cm1_list>  (3) 
[]

>  <ts_imag_freq_cm1>  (3) 
-2107.2791

>  <ts_freq_out_path>  (3) 
/home/calvin/Dropbox/PersonalFolders/Calvin/ATLAS_Converged/rmg_rxn_94/output/rxns/TS0/geometry/freq.out

>  <E0_kJmol>  (3) 
-895617

>  <H298_kJmol>  (3) 
unknown

$$$$

     RDKit          3D

  5  4  0  0  0  0  0  0  0  0999 V2000
   -0.5684   -0.0010    0.0059 C   0  0  0  0  0  0  0  0  0  1  0  0
    0.8107    0.0015   -0.0083 C   0  0  0  0  0  0  0  0  0  2  0  0
    1.9722    0.0036   -0.0203 N   0  0  0  0  0  2  0  0  0  3  0  0
   -1.1085    0.9327    0.0554 H   0  0  0  0  0  0  0  0  0  4  0  0
   -1.1060   -0.9368   -0.0326 H   0  0  0  0  0  0  0  0  0  5  0  0
  1  5  1  0
  1  4  1  0
  1  2  1  0
  2  3  1  0
M  RAD  1   3   2
M  END
>  <rmg_smiles>  (4) 
[CH2][C][N]

>  <rmg_adjacency_list>  (4) 
multiplicity 2
1 N u1 p2 c0 {3,S}
2 C u0 p0 c0 {3,S} {4,S} {5,S}
3 C u0 p1 c0 {1,S} {2,S}
4 H u0 p0 c0 {2,S}
5 H u0 p0 c0 {2,S}


>  <multiplicity>  (4) 
2

>  <reaction>  (4) 
rmg_rxn_94

>  <type>  (4) 
r1

>  <role_mapnums>  (4) 
{}

>  <role_mapidx>  (4) 
{}

>  <ordered_mapped_smiles>  (4) 
[CH:1]([CH2:2][NH:3])([H:4])[H:5]

>  <level_of_theory>  (4) 
wb97xd/def2tzvp

>  <lot_method>  (4) 
wb97xd

>  <lot_basis>  (4) 
def2tzvp

>  <spin_multiplicity>  (4) 
2.0

>  <optical_isomers>  (4) 
1.0

>  <modes>  (4) 
IdealGasTranslation(mass=(40.0187, 'amu')),         NonlinearRotor(             inertia = ([1.76513, 48.7017, 50.4668

>  <frequency_value>  (4) 
unknown

>  <frequency_units>  (4) 
unknown

>  <frequency_list>  (4) 
unknown

>  <arkane_path>  (4) 
/home/calvin/Dropbox/PersonalFolders/Calvin/ATLAS_Converged/rmg_rxn_94/output/Species/rmg_rxn_94_p1_C=C=sbr-N-sbr/arkane/output.py

>  <path_exists>  (4) 
True

>  <E0_value>  (4) 
-346728.38264853635

>  <E0_units>  (4) 
kJ/mol

>  <thermo_class>  (4) 
NASA

>  <Cp0_value>  (4) 
33.257888

>  <Cp0_units>  (4) 
J/(mol*K)

>  <CpInf_value>  (4) 
108.088136

>  <CpInf_units>  (4) 
J/(mol*K)

>  <Tmin_value>  (4) 
10.0

>  <Tmin_units>  (4) 
K

>  <Tmax_value>  (4) 
3000.0

>  <Tmax_units>  (4) 
K

>  <polynomials>  (4) 
[{"name": "polynomial1", "class": "NASAPolynomial", "Tmin_value": 10.0, "Tmin_units": "K", "Tmax_value": 527.0040671405167, "Tmax_units": "K", "coeffs": [3.9747449037282667, 0.0015353266756051366, 3.910302806424709e-05, -7.628994234029245e-08, 4.625865338238857e-11, -41701791.02109744, 5.577294410619089]}, {"name": "polynomial2", "class": "NASAPolynomial", "Tmin_value": 527.0040671405167, "Tmin_units": "K", "Tmax_value": 3000.0, "Tmax_units": "K", "coeffs": [3.239686817488942, 0.012530223097608446, -7.6062340101612755e-06, 2.2976789442675366e-09, -2.720349597801524e-13, -41701788.75209308, 7.939154814916592]}]

>  <H298_value>  (4) 
-82867.15118152696

>  <H298_units>  (4) 
kcal/mol

>  <S298_value>  (4) 
59.28592081605119

>  <S298_units>  (4) 
cal/(mol*K)

>  <Cp_T_value_list>  (4) 
[12.458755549788354, 14.202615101020045, 15.645452255252858, 16.852741911548225, 18.800685733817065, 20.248282724582875, 22.45242163881558, 23.65584364189494, 24.31935565202786]

>  <Cp_T_units>  (4) 
cal/(mol*K)

>  <T_list>  (4) 
[300.0, 400.0, 500.0, 600.0, 800.0, 1000.0, 1500.0, 2000.0, 2400.0]

>  <T_units>  (4) 
K

>  <yaml_path>  (4) 
/home/calvin/Dropbox/PersonalFolders/Calvin/ATLAS_Converged/rmg_rxn_94/output/Species/rmg_rxn_94_p1_C=C=sbr-N-sbr/rmg_rxn_94_p1_C=C=sbr-N-sbr.yml

>  <frequencies_cm1>  (4) 
[384.97006402451996, 436.79520223456, 664.47696750448, 1026.5799704134, 1046.4118240175599, 1433.3733137848799, 2141.73031748416, 3149.6183538565197, 3258.5150070610794]

>  <ZPE_kJmol>  (4) 
81.00198818833644

>  <E_elec_kJmol>  (4) 
-346809.3846367247

>  <E0_minus_Eelec_plus_ZPE_kJmol>  (4) 
0.0

>  <rxn>  (4) 
rmg_rxn_94

>  <species_type>  (4) 
p0

>  <species_folder>  (4) 
rmg_rxn_94_p1_C=C=sbr-N-sbr

>  <frequencies_cm1_list>  (4) 
[384.97006402451996, 436.79520223456, 664.47696750448, 1026.5799704134, 1046.4118240175599, 1433.3733137848799, 2141.73031748416, 3149.6183538565197, 3258.5150070610794]

>  <E0_kJmol>  (4) 
-346728

>  <H298_kJmol>  (4) 
-346716

$$$$

     RDKit          3D

  8  7  0  0  0  0  0  0  0  0999 V2000
   -0.9728    0.1768    0.1542 C   0  0  0  0  0  0  0  0  0  1  0  0
    0.4518   -0.2348    0.0047 C   0  0  0  0  0  0  0  0  0  2  0  0
    1.3116    0.0208    0.9062 N   0  0  0  0  0  0  0  0  0  3  0  0
    2.5018   -0.1901    1.0428 O   0  0  0  0  0  1  0  0  0  4  0  0
   -1.2701    0.8423   -0.6593 H   0  0  0  0  0  0  0  0  0  5  0  0
   -1.6318   -0.6936    0.1212 H   0  0  0  0  0  0  0  0  0  6  0  0
   -1.1258    0.6936    1.1003 H   0  0  0  0  0  0  0  0  0  7  0  0
    0.7882   -0.7655   -0.8838 H   0  0  0  0  0  0  0  0  0  8  0  0
  1  5  1  0
  1  7  1  0
  1  6  1  0
  1  2  1  0
  2  3  1  0
  2  8  1  0
  3  4  1  0
M  RAD  1   4   2
M  END
>  <rmg_smiles>  (5) 
C[CH][N][O]

>  <rmg_adjacency_list>  (5) 
multiplicity 2
1 O u1 p2 c0 {2,S}
2 N u0 p1 c0 {1,S} {4,S}
3 C u0 p0 c0 {4,S} {5,S} {6,S} {7,S}
4 C u0 p0 c0 {2,S} {3,S} {8,S}
5 H u0 p0 c0 {3,S}
6 H u0 p0 c0 {3,S}
7 H u0 p0 c0 {3,S}
8 H u0 p0 c0 {4,S}


>  <multiplicity>  (5) 
2

>  <reaction>  (5) 
rmg_rxn_94

>  <type>  (5) 
r2

>  <role_mapnums>  (5) 
{}

>  <role_mapidx>  (5) 
{}

>  <ordered_mapped_smiles>  (5) 
[C:1]([CH:2]([NH:3][O:4])[H:8])([H:5])([H:6])[H:7]

>  <level_of_theory>  (5) 
wb97xd/def2tzvp

>  <lot_method>  (5) 
wb97xd

>  <lot_basis>  (5) 
def2tzvp

>  <spin_multiplicity>  (5) 
2.0

>  <optical_isomers>  (5) 
1.0

>  <modes>  (5) 
IdealGasTranslation(mass=(58.0293, 'amu')),         NonlinearRotor(             inertia = ([9.31113, 114.15, 120.338

>  <frequency_value>  (5) 
unknown

>  <frequency_units>  (5) 
unknown

>  <frequency_list>  (5) 
unknown

>  <arkane_path>  (5) 
/home/calvin/Dropbox/PersonalFolders/Calvin/ATLAS_Converged/rmg_rxn_94/output/Species/rmg_rxn_94_r2_CC=Nsbr-O-sbr/arkane/output.py

>  <path_exists>  (5) 
True

>  <E0_value>  (5) 
-547291.9822369756

>  <E0_units>  (5) 
kJ/mol

>  <thermo_class>  (5) 
NASA

>  <Cp0_value>  (5) 
33.257888

>  <Cp0_units>  (5) 
J/(mol*K)

>  <CpInf_value>  (5) 
182.918384

>  <CpInf_units>  (5) 
J/(mol*K)

>  <Tmin_value>  (5) 
10.0

>  <Tmin_units>  (5) 
K

>  <Tmax_value>  (5) 
3000.0

>  <Tmax_units>  (5) 
K

>  <polynomials>  (5) 
[{"name": "polynomial1", "class": "NASAPolynomial", "Tmin_value": 10.0, "Tmin_units": "K", "Tmax_value": 448.469821583942, "Tmax_units": "K", "coeffs": [3.8887722230996813, 0.008399169692485739, 4.23423230637367e-05, -8.042531461118158e-08, 4.6620175661053446e-11, -65824018.56271867, 8.787674089328345]}, {"name": "polynomial2", "class": "NASAPolynomial", "Tmin_value": 448.469821583942, "Tmin_units": "K", "Tmax_value": 3000.0, "Tmax_units": "K", "coeffs": [1.9857514593635577, 0.025372613622198854, -1.4428825534244759e-05, 3.966995228918133e-09, -4.24376034853994e-13, -65823847.87311471, 16.442591867910245]}]

>  <H298_value>  (5) 
-130802.40292482237

>  <H298_units>  (5) 
kcal/mol

>  <S298_value>  (5) 
68.97171532665904

>  <S298_units>  (5) 
cal/(mol*K)

>  <Cp_T_value_list>  (5) 
[16.743153000165332, 20.010112573021154, 22.92084276433073, 25.469656650185197, 29.622633813984088, 32.733580935653485, 37.39926541997259, 39.66786469099458, 40.797255640626396]

>  <Cp_T_units>  (5) 
cal/(mol*K)

>  <T_list>  (5) 
[300.0, 400.0, 500.0, 600.0, 800.0, 1000.0, 1500.0, 2000.0, 2400.0]

>  <T_units>  (5) 
K

>  <yaml_path>  (5) 
/home/calvin/Dropbox/PersonalFolders/Calvin/ATLAS_Converged/rmg_rxn_94/output/Species/rmg_rxn_94_r2_CC=Nsbr-O-sbr/rmg_rxn_94_r2_CC=Nsbr-O-sbr.yml

>  <frequencies_cm1>  (5) 
[167.29349636583999, 305.41603909232, 336.48228068, 536.4488931984, 789.99859216876, 920.0661611148798, 1055.0848264767199, 1131.0542850718798, 1256.94672694344, 1389.69928714968, 1433.0368315041999, 1463.78719176716, 1488.27486141828, 1754.1988679352798, 3017.2297438722394, 3076.07294107932, 3099.7159715360795, 3119.71263278792]

>  <ZPE_kJmol>  (5) 
157.55134027947926

>  <E_elec_kJmol>  (5) 
-547449.5335772551

>  <E0_minus_Eelec_plus_ZPE_kJmol>  (5) 
0.0

>  <rxn>  (5) 
rmg_rxn_94

>  <species_type>  (5) 
r1

>  <species_folder>  (5) 
rmg_rxn_94_r2_CC=Nsbr-O-sbr

>  <frequencies_cm1_list>  (5) 
[167.29349636583999, 305.41603909232, 336.48228068, 536.4488931984, 789.99859216876, 920.0661611148798, 1055.0848264767199, 1131.0542850718798, 1256.94672694344, 1389.69928714968, 1433.0368315041999, 1463.78719176716, 1488.27486141828, 1754.1988679352798, 3017.2297438722394, 3076.07294107932, 3099.7159715360795, 3119.71263278792]

>  <E0_kJmol>  (5) 
-547292

>  <H298_kJmol>  (5) 
-547277

$$$$
