
     RDKit          3D

  9  8  0  0  0  0  0  0  0  0999 V2000
    1.1302    0.9514    0.4137 C   0  0  0  0  0  0  0  0  0  1  0  0
   -0.1384    0.8674   -0.4141 C   0  0  0  0  0  0  0  0  0  2  0  0
   -0.8243   -0.4603   -0.3824 N   0  0  0  0  0  0  0  0  0  3  0  0
   -0.2576   -1.3060    0.3175 O   0  0  0  0  0  0  0  0  0  4  0  0
    1.8804    0.2313    0.0703 H   0  0  0  0  0  0  0  0  0  5  0  0
    1.5654    1.9528    0.3341 H   0  0  0  0  0  0  0  0  0  6  0  0
    0.9306    0.7553    1.4728 H   0  0  0  0  0  0  0  0  0  7  0  0
    0.0779    1.0736   -1.4668 H   0  0  0  0  0  0  0  0  0  8  0  0
   -0.8730    1.5983   -0.0628 H   0  0  0  0  0  0  0  0  0  9  0  0
  1  5  1  0
  1  7  1  0
  1  6  1  0
  1  2  1  0
  2  3  1  0
  2  9  1  0
  2  8  1  0
  3  4  1  0
M  END
>  <rmg_smiles>  (1) 
CC[N][O]

>  <rmg_adjacency_list>  (1) 
1 O u0 p2 c0 {2,S}
2 N u0 p1 c0 {1,S} {3,S}
3 C u0 p0 c0 {2,S} {4,S} {5,S} {6,S}
4 C u0 p0 c0 {3,S} {7,S} {8,S} {9,S}
5 H u0 p0 c0 {3,S}
6 H u0 p0 c0 {3,S}
7 H u0 p0 c0 {4,S}
8 H u0 p0 c0 {4,S}
9 H u0 p0 c0 {4,S}


>  <multiplicity>  (1) 
1

>  <reaction>  (1) 
rmg_rxn_1154

>  <type>  (1) 
r1h

>  <role_mapnums>  (1) 
{"r1h_a": 1, "r1h_h": 5}

>  <role_mapidx>  (1) 
{"r1h_a": 0, "r1h_h": 4}

>  <ordered_mapped_smiles>  (1) 
[C:1]([C:2]([NH:3][OH:4])([H:8])[H:9])([H:5])([H:6])[H:7]

>  <mol_properties>  (1) 
{"0": {"label": "donator", "atom_type": "Cs"}, "4": {"label": "d_hydrogen", "atom_type": "H0"}}

>  <level_of_theory>  (1) 
wb97xd/def2tzvp

>  <lot_method>  (1) 
wb97xd

>  <lot_basis>  (1) 
def2tzvp

>  <spin_multiplicity>  (1) 
1.0

>  <optical_isomers>  (1) 
1.0

>  <modes>  (1) 
IdealGasTranslation(mass=(59.0371, 'amu')),         NonlinearRotor(             inertia = ([30.2794, 77.3005, 101.235

>  <frequency_value>  (1) 
unknown

>  <frequency_units>  (1) 
unknown

>  <frequency_list>  (1) 
unknown

>  <arkane_path>  (1) 
/home/calvin/Dropbox/PersonalFolders/Calvin/ATLAS_Converged/rmg_rxn_1154/output/Species/rmg_rxn_1154_r2_CCN=O/arkane/output.py

>  <path_exists>  (1) 
True

>  <E0_value>  (1) 
-548878.427079453

>  <E0_units>  (1) 
kJ/mol

>  <thermo_class>  (1) 
NASA

>  <Cp0_value>  (1) 
33.257888

>  <Cp0_units>  (1) 
J/(mol*K)

>  <CpInf_value>  (1) 
207.8618

>  <CpInf_units>  (1) 
J/(mol*K)

>  <Tmin_value>  (1) 
10.0

>  <Tmin_units>  (1) 
K

>  <Tmax_value>  (1) 
3000.0

>  <Tmax_units>  (1) 
K

>  <polynomials>  (1) 
[{"name": "polynomial1", "class": "NASAPolynomial", "Tmin_value": 10.0, "Tmin_units": "K", "Tmax_value": 470.4035974302268, "Tmax_units": "K", "coeffs": [3.96753995298187, 0.0019007323122393752, 7.865595232301534e-05, -1.3365371442891237e-07, 7.342482591586989e-11, -66014824.745723784, 8.203521808422717]}, {"name": "polynomial2", "class": "NASAPolynomial", "Tmin_value": 470.4035974302268, "Tmin_units": "K", "Tmax_value": 3000.0, "Tmax_units": "K", "coeffs": [0.33676300196317005, 0.032766927729034, -1.9744676775586706e-05, 5.767899136257121e-09, -6.539122675148824e-13, -66014483.07639119, 22.982604299832076]}]

>  <H298_value>  (1) 
-131181.64790639258

>  <H298_units>  (1) 
kcal/mol

>  <S298_value>  (1) 
67.23045826891001

>  <S298_units>  (1) 
cal/(mol*K)

>  <Cp_T_value_list>  (1) 
[17.095711296312917, 21.141140925042308, 24.768890677835945, 27.92016227925691, 32.985708158743435, 36.709667329922226, 42.16427048297706, 44.85623497334528, 46.2785604787329]

>  <Cp_T_units>  (1) 
cal/(mol*K)

>  <T_list>  (1) 
[300.0, 400.0, 500.0, 600.0, 800.0, 1000.0, 1500.0, 2000.0, 2400.0]

>  <T_units>  (1) 
K

>  <yaml_path>  (1) 
/home/calvin/Dropbox/PersonalFolders/Calvin/ATLAS_Converged/rmg_rxn_1154/output/Species/rmg_rxn_1154_r2_CCN=O/rmg_rxn_1154_r2_CCN=O.yml

>  <frequencies_cm1>  (1) 
[285.00049173596, 315.53110846868, 340.75354554904, 676.95427983092, 747.4576181113599, 819.4442252209199, 982.1917773049199, 1034.29159492776, 1115.5967011165599, 1252.00936449836, 1314.0319759085999, 1402.39634300636, 1425.0779955183202, 1475.80441607716, 1482.60273154396, 1485.0954472151197, 2989.65879781244, 3017.0786701952, 3055.2591085743998, 3063.2454125015597, 3076.1210099765594]

>  <ZPE_kJmol>  (1) 
187.54820658974117

>  <E_elec_kJmol>  (1) 
-549065.9752860428

>  <E0_minus_Eelec_plus_ZPE_kJmol>  (1) 
0.0

>  <rxn>  (1) 
rmg_rxn_1154

>  <species_type>  (1) 
r1

>  <species_folder>  (1) 
rmg_rxn_1154_r2_CCN=O

>  <frequencies_cm1_list>  (1) 
[285.00049173596, 315.53110846868, 340.75354554904, 676.95427983092, 747.4576181113599, 819.4442252209199, 982.1917773049199, 1034.29159492776, 1115.5967011165599, 1252.00936449836, 1314.0319759085999, 1402.39634300636, 1425.0779955183202, 1475.80441607716, 1482.60273154396, 1485.0954472151197, 2989.65879781244, 3017.0786701952, 3055.2591085743998, 3063.2454125015597, 3076.1210099765594]

>  <E0_kJmol>  (1) 
-548878

>  <H298_kJmol>  (1) 
-548864

$$$$

     RDKit          3D

  2  1  0  0  0  0  0  0  0  0999 V2000
    0.0473   -0.0454   -0.0217 O   0  0  0  0  0  1  0  0  0  1  0  0
   -0.6103    0.5859    0.2794 H   0  0  0  0  0  0  0  0  0  2  0  0
  1  2  1  0
M  RAD  1   1   2
M  END
>  <rmg_smiles>  (2) 
[OH]

>  <rmg_adjacency_list>  (2) 
multiplicity 2
1 O u1 p2 c0 {2,S}
2 H u0 p0 c0 {1,S}


>  <multiplicity>  (2) 
2

>  <reaction>  (2) 
rmg_rxn_1154

>  <type>  (2) 
r2h

>  <role_mapnums>  (2) 
{"r2h_a": 1, "r2h_h": 2}

>  <role_mapidx>  (2) 
{"r2h_a": 0, "r2h_h": 1}

>  <ordered_mapped_smiles>  (2) 
[O:1][H:2]

>  <mol_properties>  (2) 
{"0": {"label": "acceptor", "atom_type": "O2s"}, "1": {"label": "a_hydrogen", "atom_type": "H0"}}

>  <level_of_theory>  (2) 
wb97xd/def2tzvp

>  <lot_method>  (2) 
wb97xd

>  <lot_basis>  (2) 
def2tzvp

>  <spin_multiplicity>  (2) 
2.0

>  <optical_isomers>  (2) 
1.0

>  <modes>  (2) 
IdealGasTranslation(mass=(17.0027, 'amu')),         LinearRotor(inertia=(0.893962, 'amu*angstrom^2'), symmetry=1),         HarmonicOscillator(frequencies=([3724.63

>  <frequency_value>  (2) 
unknown

>  <frequency_units>  (2) 
unknown

>  <frequency_list>  (2) 
unknown

>  <arkane_path>  (2) 
/home/calvin/Dropbox/PersonalFolders/Calvin/ATLAS_Converged/rmg_rxn_1154/output/Species/rmg_rxn_1154_p1_sbr-OH-sbr/arkane/output.py

>  <path_exists>  (2) 
True

>  <E0_value>  (2) 
-198836.11500662245

>  <E0_units>  (2) 
kJ/mol

>  <thermo_class>  (2) 
NASA

>  <Cp0_value>  (2) 
29.100652

>  <Cp0_units>  (2) 
J/(mol*K)

>  <CpInf_value>  (2) 
37.415124

>  <CpInf_units>  (2) 
J/(mol*K)

>  <Tmin_value>  (2) 
10.0

>  <Tmin_units>  (2) 
K

>  <Tmax_value>  (2) 
3000.0

>  <Tmax_units>  (2) 
K

>  <polynomials>  (2) 
[{"name": "polynomial1", "class": "NASAPolynomial", "Tmin_value": 10.0, "Tmin_units": "K", "Tmax_value": 985.4633103339054, "Tmax_units": "K", "coeffs": [3.496867247333508, 0.00018342449890259614, -9.934008380455364e-07, 1.5607090885398485e-09, -6.057976047375529e-13, -23914460.713281557, 1.4723763541989374]}, {"name": "polynomial2", "class": "NASAPolynomial", "Tmin_value": 985.4633103339054, "Tmin_units": "K", "Tmax_value": 3000.0, "Tmax_units": "K", "coeffs": [3.453605826539838, -0.000298394996284096, 7.406626419620715e-07, -2.893423009710026e-10, 3.527332886378172e-14, -23914420.264604878, 1.842419488011591]}]

>  <H298_value>  (2) 
-47520.896675510776

>  <H298_units>  (2) 
kcal/mol

>  <S298_value>  (2) 
42.56095640204575

>  <S298_units>  (2) 
cal/(mol*K)

>  <Cp_T_value_list>  (2) 
[6.954667739233619, 6.946617902371048, 6.950166451559511, 6.9709205689453935, 7.072028097634187, 7.2370175778306685, 7.699521485448446, 8.086144468717986, 8.29478093025019]

>  <Cp_T_units>  (2) 
cal/(mol*K)

>  <T_list>  (2) 
[300.0, 400.0, 500.0, 600.0, 800.0, 1000.0, 1500.0, 2000.0, 2400.0]

>  <T_units>  (2) 
K

>  <yaml_path>  (2) 
/home/calvin/Dropbox/PersonalFolders/Calvin/ATLAS_Converged/rmg_rxn_1154/output/Species/rmg_rxn_1154_p1_sbr-OH-sbr/rmg_rxn_1154_p1_sbr-OH-sbr.yml

>  <frequencies_cm1>  (2) 
[3724.62536962672]

>  <ZPE_kJmol>  (2) 
22.278213462109388

>  <E_elec_kJmol>  (2) 
-198858.39322008457

>  <E0_minus_Eelec_plus_ZPE_kJmol>  (2) 
0.0

>  <rxn>  (2) 
rmg_rxn_1154

>  <species_type>  (2) 
p0

>  <species_folder>  (2) 
rmg_rxn_1154_p1_sbr-OH-sbr

>  <frequencies_cm1_list>  (2) 
[3724.62536962672]

>  <E0_kJmol>  (2) 
-198836

>  <H298_kJmol>  (2) 
-198827

$$$$

     RDKit          3D

 10  8  0  0  0  0  0  0  0  0999 V2000
    2.2168   -0.6111   -0.2946 O   0  0  0  0  0  1  0  0  0  1  0  0
    0.5181    1.0195    0.4830 C   0  0  0  0  0  3  0  0  0  2  0  0
   -0.7504    0.9355   -0.3448 C   0  0  0  0  0  0  0  0  0  3  0  0
   -1.4364   -0.3922   -0.3131 N   0  0  0  0  0  0  0  0  0  4  0  0
   -0.8697   -1.2379    0.3868 O   0  0  0  0  0  0  0  0  0  5  0  0
    1.4186    0.1551    0.0708 H   0  0  0  0  0  0  0  0  0  6  0  0
    0.9533    2.0209    0.4034 H   0  0  0  0  0  0  0  0  0  7  0  0
    0.3186    0.8234    1.5421 H   0  0  0  0  0  0  0  0  0  8  0  0
   -0.5342    1.1417   -1.3975 H   0  0  0  0  0  0  0  0  0  9  0  0
   -1.4851    1.6664    0.0065 H   0  0  0  0  0  0  0  0  0 10  0  0
  1  6  1  0
  2  7  1  0
  2  8  1  0
  2  3  1  0
  3  9  1  0
  3 10  1  0
  3  4  1  0
  4  5  1  0
M  RAD  2   1   2   2   2
M  END
>  <rmg_smiles>  (3) 
[CH2]C[N][O].[OH]

>  <rmg_adjacency_list>  (3) 
multiplicity 3
1  O u0 p2 c0 {3,S}
2  O u1 p2 c0 {10,S}
3  N u0 p1 c0 {1,S} {4,S}
4  C u0 p0 c0 {3,S} {5,S} {6,S} {7,S}
5  C u1 p0 c0 {4,S} {8,S} {9,S}
6  H u0 p0 c0 {4,S}
7  H u0 p0 c0 {4,S}
8  H u0 p0 c0 {5,S}
9  H u0 p0 c0 {5,S}
10 H u0 p0 c0 {2,S}


>  <multiplicity>  (3) 
3

>  <reaction>  (3) 
rmg_rxn_1154

>  <type>  (3) 
ts

>  <role_mapnums>  (3) 
{"*2": 6, "*1": 2, "*3": 1, "*0": null, "*4": 3}

>  <role_mapidx>  (3) 
{"*2": 5, "*1": 1, "*3": 0, "*4": 2}

>  <ordered_mapped_smiles>  (3) 
[O:1][H:6].[C:2]([C:3]([NH:4][OH:5])([H:9])[H:10])([H:7])[H:8]

>  <mol_properties>  (3) 
{"0": {"label": "*3", "atom_type": "O2s"}, "1": {"label": "*1", "atom_type": "Cs"}, "2": {"label": "*4", "atom_type": "Cs"}, "5": {"label": "*2", "atom_type": "H0"}}

>  <level_of_theory>  (3) 
wb97xd/def2tzvp

>  <lot_method>  (3) 
wb97xd

>  <lot_basis>  (3) 
def2tzvp

>  <spin_multiplicity>  (3) 
3.0

>  <optical_isomers>  (3) 
2.0

>  <modes>  (3) 
IdealGasTranslation(mass=(75.032, 'amu')),         NonlinearRotor(             inertia = ([77.9851, 149.03, 199.257

>  <frequency_value>  (3) 
-1527.27

>  <frequency_units>  (3) 
cm^-1

>  <frequency_list>  (3) 
unknown

>  <arkane_path>  (3) 
/home/calvin/Dropbox/PersonalFolders/Calvin/ATLAS_Converged/rmg_rxn_1154/output/rxns/TS0/arkane/output.py

>  <path_exists>  (3) 
True

>  <E0_value>  (3) 
-745956.0

>  <E0_units>  (3) 
kJ/mol

>  <thermo_class>  (3) 
unknown

>  <Cp0_value>  (3) 
unknown

>  <Cp0_units>  (3) 
unknown

>  <CpInf_value>  (3) 
unknown

>  <CpInf_units>  (3) 
unknown

>  <Tmin_value>  (3) 
unknown

>  <Tmin_units>  (3) 
unknown

>  <Tmax_value>  (3) 
unknown

>  <Tmax_units>  (3) 
unknown

>  <polynomials>  (3) 
unknown

>  <H298_value>  (3) 
unknown

>  <H298_units>  (3) 
unknown

>  <S298_value>  (3) 
unknown

>  <S298_units>  (3) 
unknown

>  <Cp_T_value_list>  (3) 
unknown

>  <Cp_T_units>  (3) 
unknown

>  <T_list>  (3) 
unknown

>  <T_units>  (3) 
unknown

>  <yaml_path>  (3) 
unknown

>  <frequencies_cm1>  (3) 
unknown

>  <ZPE_kJmol>  (3) 
unknown

>  <E_elec_kJmol>  (3) 
unknown

>  <E0_minus_Eelec_plus_ZPE_kJmol>  (3) 
unknown

>  <rxn>  (3) 
unknown

>  <species_type>  (3) 
unknown

>  <species_folder>  (3) 
unknown

>  <frequencies_cm1_list>  (3) 
[]

>  <ts_imag_freq_cm1>  (3) 
-1545.8219

>  <ts_freq_out_path>  (3) 
/home/calvin/Dropbox/PersonalFolders/Calvin/ATLAS_Converged/rmg_rxn_1154/output/rxns/TS0/geometry/freq.out

>  <E0_kJmol>  (3) 
-745956

>  <H298_kJmol>  (3) 
unknown

$$$$

     RDKit          3D

  8  7  0  0  0  0  0  0  0  0999 V2000
   -1.6748   -0.2731   -0.1942 C   0  0  0  0  0  3  0  0  0  1  0  0
   -0.4816    0.5270    0.1839 C   0  0  0  0  0  0  0  0  0  2  0  0
    0.6966   -0.3591    0.3830 N   0  0  0  0  0  0  0  0  0  3  0  0
    1.6576   -0.0294   -0.3219 O   0  0  0  0  0  0  0  0  0  4  0  0
   -1.8585   -1.2438    0.2515 H   0  0  0  0  0  0  0  0  0  5  0  0
   -2.4295    0.1587   -0.8396 H   0  0  0  0  0  0  0  0  0  6  0  0
   -0.2560    1.2689   -0.5884 H   0  0  0  0  0  0  0  0  0  7  0  0
   -0.6550    1.0418    1.1327 H   0  0  0  0  0  0  0  0  0  8  0  0
  1  5  1  0
  1  6  1  0
  1  2  1  0
  2  3  1  0
  2  7  1  0
  2  8  1  0
  3  4  1  0
M  RAD  1   1   2
M  END
>  <rmg_smiles>  (4) 
[CH2]C[N][O]

>  <rmg_adjacency_list>  (4) 
multiplicity 2
1 O u0 p2 c0 {2,S}
2 N u0 p1 c0 {1,S} {3,S}
3 C u0 p0 c0 {2,S} {4,S} {5,S} {6,S}
4 C u1 p0 c0 {3,S} {7,S} {8,S}
5 H u0 p0 c0 {3,S}
6 H u0 p0 c0 {3,S}
7 H u0 p0 c0 {4,S}
8 H u0 p0 c0 {4,S}


>  <multiplicity>  (4) 
2

>  <reaction>  (4) 
rmg_rxn_1154

>  <type>  (4) 
r1

>  <role_mapnums>  (4) 
{}

>  <role_mapidx>  (4) 
{}

>  <ordered_mapped_smiles>  (4) 
[C:1]([C:2]([NH:3][OH:4])([H:7])[H:8])([H:5])[H:6]

>  <level_of_theory>  (4) 
wb97xd/def2tzvp

>  <lot_method>  (4) 
wb97xd

>  <lot_basis>  (4) 
def2tzvp

>  <spin_multiplicity>  (4) 
2.0

>  <optical_isomers>  (4) 
2.0

>  <modes>  (4) 
IdealGasTranslation(mass=(58.0293, 'amu')),         NonlinearRotor(             inertia = ([17.291, 103.652, 106.992

>  <frequency_value>  (4) 
unknown

>  <frequency_units>  (4) 
unknown

>  <frequency_list>  (4) 
unknown

>  <arkane_path>  (4) 
/home/calvin/Dropbox/PersonalFolders/Calvin/ATLAS_Converged/rmg_rxn_1154/output/Species/rmg_rxn_1154_p2_sbr-CH2-sbrCN=O/arkane/output.py

>  <path_exists>  (4) 
True

>  <E0_value>  (4) 
-547148.9494430341

>  <E0_units>  (4) 
kJ/mol

>  <thermo_class>  (4) 
NASA

>  <Cp0_value>  (4) 
33.257888

>  <Cp0_units>  (4) 
J/(mol*K)

>  <CpInf_value>  (4) 
182.918384

>  <CpInf_units>  (4) 
J/(mol*K)

>  <Tmin_value>  (4) 
10.0

>  <Tmin_units>  (4) 
K

>  <Tmax_value>  (4) 
3000.0

>  <Tmax_units>  (4) 
K

>  <polynomials>  (4) 
[{"name": "polynomial1", "class": "NASAPolynomial", "Tmin_value": 10.0, "Tmin_units": "K", "Tmax_value": 679.2671794775699, "Tmax_units": "K", "coeffs": [3.8281304685911954, 0.015048533684865356, 1.967135769939468e-05, -4.239362735705269e-08, 2.145223866982166e-11, -65806816.10609549, 10.115580877099797]}, {"name": "polynomial2", "class": "NASAPolynomial", "Tmin_value": 679.2671794775699, "Tmin_units": "K", "Tmax_value": 3000.0, "Tmax_units": "K", "coeffs": [3.2400379811895834, 0.02451206883632512, -1.4477143273738336e-05, 4.126148590212366e-09, -4.553820623005924e-13, -65806874.64292728, 11.706373135964592]}]

>  <H298_value>  (4) 
-130767.9392059076

>  <H298_units>  (4) 
kcal/mol

>  <S298_value>  (4) 
73.42934698556225

>  <S298_units>  (4) 
cal/(mol*K)

>  <Cp_T_value_list>  (4) 
[18.16753458260662, 21.523326965509632, 24.466085487284754, 26.950745100596826, 30.822337786146754, 33.674664961904654, 37.866117875062216, 39.90048001612405, 40.96040399584516]

>  <Cp_T_units>  (4) 
cal/(mol*K)

>  <T_list>  (4) 
[300.0, 400.0, 500.0, 600.0, 800.0, 1000.0, 1500.0, 2000.0, 2400.0]

>  <T_units>  (4) 
K

>  <yaml_path>  (4) 
/home/calvin/Dropbox/PersonalFolders/Calvin/ATLAS_Converged/rmg_rxn_1154/output/Species/rmg_rxn_1154_p2_sbr-CH2-sbrCN=O/rmg_rxn_1154_p2_sbr-CH2-sbrCN=O.yml

>  <frequencies_cm1>  (4) 
[66.78143223699999, 231.03972109139997, 391.27395654827995, 502.07276468647996, 560.2155293909199, 823.28973700012, 856.5671478608398, 1045.1208307774, 1107.7546038811201, 1143.78567585516, 1322.2242893953598, 1426.6230672153201, 1441.75103587528, 1453.2669702569199, 2998.48287394864, 3054.95696122032, 3115.0705507116, 3224.4959617857994]

>  <ZPE_kJmol>  (4) 
148.12628034446897

>  <E_elec_kJmol>  (4) 
-547297.0757233786

>  <E0_minus_Eelec_plus_ZPE_kJmol>  (4) 
0.0

>  <rxn>  (4) 
rmg_rxn_1154

>  <species_type>  (4) 
p1

>  <species_folder>  (4) 
rmg_rxn_1154_p2_sbr-CH2-sbrCN=O

>  <frequencies_cm1_list>  (4) 
[66.78143223699999, 231.03972109139997, 391.27395654827995, 502.07276468647996, 560.2155293909199, 823.28973700012, 856.5671478608398, 1045.1208307774, 1107.7546038811201, 1143.78567585516, 1322.2242893953598, 1426.6230672153201, 1441.75103587528, 1453.2669702569199, 2998.48287394864, 3054.95696122032, 3115.0705507116, 3224.4959617857994]

>  <E0_kJmol>  (4) 
-547149

>  <H298_kJmol>  (4) 
-547133

$$$$

     RDKit          3D

  1  0  0  0  0  0  0  0  0  0999 V2000
    0.0000    0.0000    0.0000 O   0  0  0  0  0 15  0  0  0  1  0  0
M  END
>  <rmg_smiles>  (5) 
[O]

>  <rmg_adjacency_list>  (5) 
multiplicity 3
1 O u2 p3 c0


>  <multiplicity>  (5) 
3

>  <reaction>  (5) 
rmg_rxn_1154

>  <type>  (5) 
r2

>  <role_mapnums>  (5) 
{}

>  <role_mapidx>  (5) 
{}

>  <ordered_mapped_smiles>  (5) 
[O:1]

>  <level_of_theory>  (5) 
wb97xd/def2tzvp

>  <lot_method>  (5) 
wb97xd

>  <lot_basis>  (5) 
def2tzvp

>  <spin_multiplicity>  (5) 
3.0

>  <optical_isomers>  (5) 
1.0

>  <modes>  (5) 
IdealGasTranslation(mass=(15.9994, 'amu')),

>  <frequency_value>  (5) 
unknown

>  <frequency_units>  (5) 
unknown

>  <frequency_list>  (5) 
unknown

>  <arkane_path>  (5) 
/home/calvin/Dropbox/PersonalFolders/Calvin/ATLAS_Converged/rmg_rxn_1154/output/Species/rmg_rxn_1154_r1_sbr-O-sbr/arkane/output.py

>  <path_exists>  (5) 
True

>  <E0_value>  (5) 
-197098.59938458708

>  <E0_units>  (5) 
kJ/mol

>  <thermo_class>  (5) 
NASA

>  <Cp0_value>  (5) 
20.78618

>  <Cp0_units>  (5) 
J/(mol*K)

>  <CpInf_value>  (5) 
20.78618

>  <CpInf_units>  (5) 
J/(mol*K)

>  <Tmin_value>  (5) 
10.0

>  <Tmin_units>  (5) 
K

>  <Tmax_value>  (5) 
3000.0

>  <Tmax_units>  (5) 
K

>  <polynomials>  (5) 
[{"name": "polynomial1", "class": "NASAPolynomial", "Tmin_value": 10.0, "Tmin_units": "K", "Tmax_value": 1853.5663026740365, "Tmax_units": "K", "coeffs": [2.500000000000126, -2.814048095438137e-15, 9.047587538332909e-18, -8.591944598242694e-21, 2.4182720553650057e-24, -23705485.977386568, 4.091313385047355]}, {"name": "polynomial2", "class": "NASAPolynomial", "Tmin_value": 1853.5663026740365, "Tmin_units": "K", "Tmax_value": 3000.0, "Tmax_units": "K", "coeffs": [2.500000000696122, -1.3129776766613561e-12, 9.140875080033424e-16, -2.782806647322001e-19, 3.1263265306749967e-23, -23705485.97738686, 4.091313381171202]}]

>  <H298_value>  (5) 
-47106.215373741215

>  <H298_units>  (5) 
kcal/mol

>  <S298_value>  (5) 
36.4335375885593

>  <S298_units>  (5) 
cal/(mol*K)

>  <Cp_T_value_list>  (5) 
[4.968016252389826, 4.968016252389978, 4.968016252390173, 4.96801625239036, 4.968016252390567, 4.968016252390427, 4.968016252389077, 4.968016252391019, 4.968016252390868]

>  <Cp_T_units>  (5) 
cal/(mol*K)

>  <T_list>  (5) 
[300.0, 400.0, 500.0, 600.0, 800.0, 1000.0, 1500.0, 2000.0, 2400.0]

>  <T_units>  (5) 
K

>  <yaml_path>  (5) 
/home/calvin/Dropbox/PersonalFolders/Calvin/ATLAS_Converged/rmg_rxn_1154/output/Species/rmg_rxn_1154_r1_sbr-O-sbr/rmg_rxn_1154_r1_sbr-O-sbr.yml

>  <frequencies_cm1>  (5) 
[]

>  <ZPE_kJmol>  (5) 
unknown

>  <E_elec_kJmol>  (5) 
unknown

>  <E0_minus_Eelec_plus_ZPE_kJmol>  (5) 
unknown

>  <rxn>  (5) 
rmg_rxn_1154

>  <species_type>  (5) 
r0

>  <species_folder>  (5) 
rmg_rxn_1154_r1_sbr-O-sbr

>  <frequencies_cm1_list>  (5) 
[]

>  <E0_kJmol>  (5) 
-197099

>  <H298_kJmol>  (5) 
-197092

$$$$
