
     RDKit          3D

 18 17  0  0  0  0  0  0  0  0999 V2000
   -1.0239   -2.5202   -0.8736 C   0  0  0  0  0  0  0  0  0  1  0  0
   -1.2752   -1.8134    0.4496 C   0  0  0  0  0  0  0  0  0  2  0  0
   -1.3203   -0.3715    0.2930 N   0  0  0  0  0  0  0  0  0  3  0  0
    0.0025    0.0456    0.1351 O   0  0  0  0  0  0  0  0  0  4  0  0
    0.0698    1.3363   -0.3057 C   0  0  0  0  0  0  0  0  0  5  0  0
    1.1834    2.0467   -0.2061 C   0  0  0  0  0  0  0  0  0  6  0  0
    2.4657    1.5808    0.4044 C   0  0  0  0  0  0  0  0  0  7  0  0
   -0.0505   -2.2446   -1.2793 H   0  0  0  0  0  0  0  0  0  8  0  0
   -1.0423   -3.6017   -0.7309 H   0  0  0  0  0  0  0  0  0  9  0  0
   -1.7902   -2.2528   -1.6020 H   0  0  0  0  0  0  0  0  0 10  0  0
   -2.2505   -2.0892    0.8553 H   0  0  0  0  0  0  0  0  0 11  0  0
   -0.5147   -2.0997    1.1871 H   0  0  0  0  0  0  0  0  0 12  0  0
   -1.6272    0.0121    1.2096 H   0  0  0  0  0  0  0  0  0 13  0  0
   -0.8501    1.7031   -0.7426 H   0  0  0  0  0  0  0  0  0 14  0  0
    1.1497    3.0475   -0.6183 H   0  0  0  0  0  0  0  0  0 15  0  0
    2.8015    2.2759    1.1779 H   0  0  0  0  0  0  0  0  0 16  0  0
    2.3626    0.5918    0.8493 H   0  0  0  0  0  0  0  0  0 17  0  0
    3.2603    1.5294   -0.3445 H   0  0  0  0  0  0  0  0  0 18  0  0
  1 10  1  0
  1  8  1  0
  1  9  1  0
  1  2  1  0
  2  3  1  0
  2 12  1  0
  2 11  1  0
  3 13  1  0
  3  4  1  0
  4  5  1  0
  5 14  1  0
  5  6  1  0
  6 15  1  0
  6  7  1  0
  7 18  1  0
  7 17  1  0
  7 16  1  0
M  END
>  <rmg_smiles>  (1) 
C[CH][CH]ONCC

>  <rmg_adjacency_list>  (1) 
1  O u0 p2 c0 {2,S} {7,S}
2  N u0 p1 c0 {1,S} {3,S} {17,S}
3  C u0 p0 c0 {2,S} {4,S} {8,S} {9,S}
4  C u0 p0 c0 {3,S} {10,S} {11,S} {12,S}
5  C u0 p0 c0 {6,S} {13,S} {14,S} {15,S}
6  C u0 p0 c0 {5,S} {7,S} {16,S}
7  C u0 p0 c0 {1,S} {6,S} {18,S}
8  H u0 p0 c0 {3,S}
9  H u0 p0 c0 {3,S}
10 H u0 p0 c0 {4,S}
11 H u0 p0 c0 {4,S}
12 H u0 p0 c0 {4,S}
13 H u0 p0 c0 {5,S}
14 H u0 p0 c0 {5,S}
15 H u0 p0 c0 {5,S}
16 H u0 p0 c0 {6,S}
17 H u0 p0 c0 {2,S}
18 H u0 p0 c0 {7,S}


>  <multiplicity>  (1) 
1

>  <reaction>  (1) 
rmg_rxn_16755

>  <type>  (1) 
r1h

>  <role_mapnums>  (1) 
{"r1h_a": 3, "r1h_h": 13}

>  <role_mapidx>  (1) 
{"r1h_a": 2, "r1h_h": 12}

>  <ordered_mapped_smiles>  (1) 
[C:1]([C:2]([N:3]([O:4][CH:5]([CH:6]([C:7]([H:16])([H:17])[H:18])[H:15])[H:14])[H:13])([H:11])[H:12])([H:8])([H:9])[H:10]

>  <mol_properties>  (1) 
{"2": {"label": "donator", "atom_type": "N3s"}, "12": {"label": "d_hydrogen", "atom_type": "H0"}}

>  <level_of_theory>  (1) 
wb97xd/def2tzvp

>  <lot_method>  (1) 
wb97xd

>  <lot_basis>  (1) 
def2tzvp

>  <spin_multiplicity>  (1) 
1.0

>  <optical_isomers>  (1) 
2.0

>  <modes>  (1) 
IdealGasTranslation(mass=(101.084, 'amu')),         NonlinearRotor(             inertia = ([97.5074, 378.473, 405.084

>  <frequency_value>  (1) 
unknown

>  <frequency_units>  (1) 
unknown

>  <frequency_list>  (1) 
unknown

>  <arkane_path>  (1) 
/home/calvin/Dropbox/PersonalFolders/Calvin/ZEUS_Converged/rmg_rxn_16755/output/Species/rmg_rxn_16755_r2_CCNOC=CC/arkane/output.py

>  <path_exists>  (1) 
True

>  <E0_value>  (1) 
-858317.3712837993

>  <E0_units>  (1) 
kJ/mol

>  <thermo_class>  (1) 
NASA

>  <Cp0_value>  (1) 
33.257888

>  <Cp0_units>  (1) 
J/(mol*K)

>  <CpInf_value>  (1) 
432.352544

>  <CpInf_units>  (1) 
J/(mol*K)

>  <Tmin_value>  (1) 
10.0

>  <Tmin_units>  (1) 
K

>  <Tmax_value>  (1) 
3000.0

>  <Tmax_units>  (1) 
K

>  <polynomials>  (1) 
[{"name": "polynomial1", "class": "NASAPolynomial", "Tmin_value": 10.0, "Tmin_units": "K", "Tmax_value": 408.66762977557886, "Tmax_units": "K", "coeffs": [3.37709981117414, 0.06680562065591114, -0.00018525045316799532, 4.972738170112266e-07, -4.5130999965654315e-10, -103231732.61320327, 13.424590223912316]}, {"name": "polynomial2", "class": "NASAPolynomial", "Tmin_value": 408.66762977557886, "Tmin_units": "K", "Tmax_value": 3000.0, "Tmax_units": "K", "coeffs": [-1.1330448702023004, 0.06919941401915138, -4.0790950699014475e-05, 1.1621881066580259e-08, -1.2838046823979778e-12, -103231015.34242801, 35.41309249465874]}]

>  <H298_value>  (1) 
-205136.59626127788

>  <H298_units>  (1) 
kcal/mol

>  <S298_value>  (1) 
95.07512035843732

>  <S298_units>  (1) 
cal/(mol*K)

>  <Cp_T_value_list>  (1) 
[32.82274399704716, 41.19730232391399, 48.96759360427661, 55.73280902755772, 66.66051340239554, 74.74578145803285, 86.66411136161952, 92.47694773109966, 95.49917960336114]

>  <Cp_T_units>  (1) 
cal/(mol*K)

>  <T_list>  (1) 
[300.0, 400.0, 500.0, 600.0, 800.0, 1000.0, 1500.0, 2000.0, 2400.0]

>  <T_units>  (1) 
K

>  <yaml_path>  (1) 
/home/calvin/Dropbox/PersonalFolders/Calvin/ZEUS_Converged/rmg_rxn_16755/output/Species/rmg_rxn_16755_r2_CCNOC=CC/rmg_rxn_16755_r2_CCNOC=CC.yml

>  <frequencies_cm1>  (1) 
[28.16837378264, 73.99176682299999, 104.81766392447999, 123.81861230492, 194.30821661471995, 239.32817237263998, 332.21101581095996, 438.24413613708003, 454.6630980372, 488.07098161899995, 645.1807387552799, 741.00265191056, 809.2536190060399, 888.6016343786399, 926.06790628456, 944.7598403255998, 962.7925437759199, 969.22690902076, 1053.07279977796, 1062.3912988572, 1108.2421598388398, 1136.52727237192, 1173.8218696448398, 1189.6571377927598, 1270.5296239063998, 1308.24997426916, 1373.9189548843199, 1385.8606423558, 1408.41182214668, 1415.68395960056, 1466.959738985, 1475.24819026624, 1476.8481978457999, 1478.4962743226, 1492.65599805244, 1499.96933741824, 1742.1816436252798, 2980.099954247, 3008.1653232498397, 3023.38942970428, 3047.7603606049593, 3060.0110624158397, 3100.49194087724, 3104.9554813352397, 3106.61042479736, 3158.11968168268, 3182.6348192750793, 3484.97444894404]

>  <ZPE_kJmol>  (1) 
413.5518340652442

>  <E_elec_kJmol>  (1) 
-858730.9231178645

>  <E0_minus_Eelec_plus_ZPE_kJmol>  (1) 
0.0

>  <rxn>  (1) 
rmg_rxn_16755

>  <species_type>  (1) 
r1

>  <species_folder>  (1) 
rmg_rxn_16755_r2_CCNOC=CC

>  <frequencies_cm1_list>  (1) 
[28.16837378264, 73.99176682299999, 104.81766392447999, 123.81861230492, 194.30821661471995, 239.32817237263998, 332.21101581095996, 438.24413613708003, 454.6630980372, 488.07098161899995, 645.1807387552799, 741.00265191056, 809.2536190060399, 888.6016343786399, 926.06790628456, 944.7598403255998, 962.7925437759199, 969.22690902076, 1053.07279977796, 1062.3912988572, 1108.2421598388398, 1136.52727237192, 1173.8218696448398, 1189.6571377927598, 1270.5296239063998, 1308.24997426916, 1373.9189548843199, 1385.8606423558, 1408.41182214668, 1415.68395960056, 1466.959738985, 1475.24819026624, 1476.8481978457999, 1478.4962743226, 1492.65599805244, 1499.96933741824, 1742.1816436252798, 2980.099954247, 3008.1653232498397, 3023.38942970428, 3047.7603606049593, 3060.0110624158397, 3100.49194087724, 3104.9554813352397, 3106.61042479736, 3158.11968168268, 3182.6348192750793, 3484.97444894404]

>  <E0_kJmol>  (1) 
-858317

>  <H298_kJmol>  (1) 
-858292

$$$$

     RDKit          3D

  8  7  0  0  0  0  0  0  0  0999 V2000
    0.5563    0.3129    1.1053 C   0  0  0  0  0  0  0  0  0  1  0  0
    0.2750   -0.1072   -0.3083 C   0  0  0  0  0  0  0  0  0  2  0  0
   -0.8767   -0.2035   -0.7835 N   0  0  0  0  0  0  0  0  0  3  0  0
    1.1176   -0.4709    1.6188 H   0  0  0  0  0  0  0  0  0  4  0  0
   -0.3695    0.5098    1.6420 H   0  0  0  0  0  0  0  0  0  5  0  0
    1.1767    1.2117    1.1042 H   0  0  0  0  0  0  0  0  0  6  0  0
    1.1570   -0.3280   -0.9331 H   0  0  0  0  0  0  0  0  0  7  0  0
   -0.8142   -0.4759   -1.7852 H   0  0  0  0  0  0  0  0  0  8  0  0
  1  5  1  0
  1  4  1  0
  1  6  1  0
  1  2  1  0
  2  3  1  0
  2  7  1  0
  3  8  1  0
M  END
>  <rmg_smiles>  (2) 
C[CH][NH]

>  <rmg_adjacency_list>  (2) 
1 N u0 p1 c0 {3,S} {8,S}
2 C u0 p0 c0 {3,S} {4,S} {5,S} {6,S}
3 C u0 p0 c0 {1,S} {2,S} {7,S}
4 H u0 p0 c0 {2,S}
5 H u0 p0 c0 {2,S}
6 H u0 p0 c0 {2,S}
7 H u0 p0 c0 {3,S}
8 H u0 p0 c0 {1,S}


>  <multiplicity>  (2) 
1

>  <reaction>  (2) 
rmg_rxn_16755

>  <type>  (2) 
r2h

>  <role_mapnums>  (2) 
{"r2h_a": 3, "r2h_h": 8}

>  <role_mapidx>  (2) 
{"r2h_a": 2, "r2h_h": 7}

>  <ordered_mapped_smiles>  (2) 
[C:1]([CH:2]([NH:3][H:8])[H:7])([H:4])([H:5])[H:6]

>  <mol_properties>  (2) 
{"2": {"label": "acceptor", "atom_type": "N3s"}, "7": {"label": "a_hydrogen", "atom_type": "H0"}}

>  <level_of_theory>  (2) 
wb97xd/def2tzvp

>  <lot_method>  (2) 
wb97xd

>  <lot_basis>  (2) 
def2tzvp

>  <spin_multiplicity>  (2) 
1.0

>  <optical_isomers>  (2) 
1.0

>  <modes>  (2) 
IdealGasTranslation(mass=(43.0422, 'amu')),         NonlinearRotor(             inertia = ([9.32783, 51.3348, 57.5532

>  <frequency_value>  (2) 
unknown

>  <frequency_units>  (2) 
unknown

>  <frequency_list>  (2) 
unknown

>  <arkane_path>  (2) 
/home/calvin/Dropbox/PersonalFolders/Calvin/ZEUS_Converged/rmg_rxn_16755/output/Species/rmg_rxn_16755_p1_CC=N/arkane/output.py

>  <path_exists>  (2) 
True

>  <E0_value>  (2) 
-351535.20335661684

>  <E0_units>  (2) 
kJ/mol

>  <thermo_class>  (2) 
NASA

>  <Cp0_value>  (2) 
33.257888

>  <Cp0_units>  (2) 
J/(mol*K)

>  <CpInf_value>  (2) 
182.918384

>  <CpInf_units>  (2) 
J/(mol*K)

>  <Tmin_value>  (2) 
10.0

>  <Tmin_units>  (2) 
K

>  <Tmax_value>  (2) 
3000.0

>  <Tmax_units>  (2) 
K

>  <polynomials>  (2) 
[{"name": "polynomial1", "class": "NASAPolynomial", "Tmin_value": 10.0, "Tmin_units": "K", "Tmax_value": 834.0183041901832, "Tmax_units": "K", "coeffs": [4.020859284868709, 0.0012406595733239277, 4.4482903010182226e-05, -5.482114439751344e-08, 2.0739201558559772e-11, -42279921.71645892, 6.726586383468645]}, {"name": "polynomial2", "class": "NASAPolynomial", "Tmin_value": 834.0183041901832, "Tmin_units": "K", "Tmax_value": 3000.0, "Tmax_units": "K", "coeffs": [0.8146767610859666, 0.025012560508124084, -1.3369721411120483e-05, 3.4917002293006827e-09, -3.579375529269218e-13, -42279678.881200545, 19.862274208798944]}]

>  <H298_value>  (2) 
-84015.86036687854

>  <H298_units>  (2) 
kcal/mol

>  <S298_value>  (2) 
62.66843297179497

>  <S298_units>  (2) 
cal/(mol*K)

>  <Cp_T_value_list>  (2) 
[14.078036689508782, 17.202765604471058, 20.2803800489589, 23.1023356383003, 27.639649626797436, 30.983090061901617, 36.21499785066487, 38.88468928045463, 40.19916387517873]

>  <Cp_T_units>  (2) 
cal/(mol*K)

>  <T_list>  (2) 
[300.0, 400.0, 500.0, 600.0, 800.0, 1000.0, 1500.0, 2000.0, 2400.0]

>  <T_units>  (2) 
K

>  <yaml_path>  (2) 
/home/calvin/Dropbox/PersonalFolders/Calvin/ZEUS_Converged/rmg_rxn_16755/output/Species/rmg_rxn_16755_p1_CC=N/rmg_rxn_16755_p1_CC=N.yml

>  <frequencies_cm1>  (2) 
[185.42920459596, 489.9250676554, 680.6761858743599, 921.32968641376, 1055.89513074448, 1069.62910138448, 1130.4431233784, 1267.5150173509198, 1378.7876474762, 1425.071128533, 1456.56312321052, 1463.3683056626398, 1737.36788691596, 2989.2124437666403, 3014.6889593038395, 3075.43431144456, 3123.3452680222, 3455.8927661138396]

>  <ZPE_kJmol>  (2) 
178.96482902382195

>  <E_elec_kJmol>  (2) 
-351714.16818564065

>  <E0_minus_Eelec_plus_ZPE_kJmol>  (2) 
0.0

>  <rxn>  (2) 
rmg_rxn_16755

>  <species_type>  (2) 
p0

>  <species_folder>  (2) 
rmg_rxn_16755_p1_CC=N

>  <frequencies_cm1_list>  (2) 
[185.42920459596, 489.9250676554, 680.6761858743599, 921.32968641376, 1055.89513074448, 1069.62910138448, 1130.4431233784, 1267.5150173509198, 1378.7876474762, 1425.071128533, 1456.56312321052, 1463.3683056626398, 1737.36788691596, 2989.2124437666403, 3014.6889593038395, 3075.43431144456, 3123.3452680222, 3455.8927661138396]

>  <E0_kJmol>  (2) 
-351535

>  <H298_kJmol>  (2) 
-351522

$$$$

     RDKit          3D

 25 23  0  0  0  0  0  0  0  0999 V2000
   -0.1691    0.8428    3.3469 C   0  0  0  0  0  0  0  0  0  1  0  0
   -0.4504    0.4227    1.9333 C   0  0  0  0  0  0  0  0  0  2  0  0
   -1.6021    0.3264    1.4582 N   0  0  0  0  0  2  0  0  0  3  0  0
    0.3922    0.0591    3.8604 H   0  0  0  0  0  0  0  0  0  4  0  0
   -1.0949    1.0397    3.8836 H   0  0  0  0  0  0  0  0  0  5  0  0
    0.4513    1.7416    3.3459 H   0  0  0  0  0  0  0  0  0  6  0  0
    0.4316    0.2020    1.3086 H   0  0  0  0  0  0  0  0  0  7  0  0
   -0.8704   -2.6092   -2.0271 C   0  0  0  0  0  0  0  0  0  8  0  0
   -1.1217   -1.9024   -0.7039 C   0  0  0  0  0  0  0  0  0  9  0  0
   -1.1668   -0.4605   -0.8605 N   0  0  0  0  0  0  0  0  0 10  0  0
    0.1560   -0.0433   -1.0185 O   0  0  0  0  0  0  0  0  0 11  0  0
    0.2233    1.2474   -1.4592 C   0  0  0  0  0  0  0  0  0 12  0  0
    1.3369    1.9577   -1.3596 C   0  0  0  0  0  0  0  0  0 13  0  0
    2.6192    1.4919   -0.7491 C   0  0  0  0  0  0  0  0  0 14  0  0
    0.1030   -2.3336   -2.4328 H   0  0  0  0  0  0  0  0  0 15  0  0
   -0.8888   -3.6907   -1.8844 H   0  0  0  0  0  0  0  0  0 16  0  0
   -1.6367   -2.3418   -2.7555 H   0  0  0  0  0  0  0  0  0 17  0  0
   -2.0970   -2.1782   -0.2982 H   0  0  0  0  0  0  0  0  0 18  0  0
   -0.3612   -2.1887    0.0336 H   0  0  0  0  0  0  0  0  0 19  0  0
   -1.5240   -0.0139    0.2065 H   0  0  0  0  0  0  0  0  0 20  0  0
   -0.6966    1.6141   -1.8961 H   0  0  0  0  0  0  0  0  0 21  0  0
    1.3032    2.9586   -1.7718 H   0  0  0  0  0  0  0  0  0 22  0  0
    2.9550    2.1869    0.0244 H   0  0  0  0  0  0  0  0  0 23  0  0
    2.5161    0.5028   -0.3042 H   0  0  0  0  0  0  0  0  0 24  0  0
    3.4138    1.4405   -1.4980 H   0  0  0  0  0  0  0  0  0 25  0  0
  1  4  1  0
  1  5  1  0
  1  6  1  0
  1  2  1  0
  2  3  1  0
  2  7  1  0
  8 16  1  0
  8 17  1  0
  8  9  1  0
  8 15  1  0
  9 18  1  0
  9 10  1  0
  9 19  1  0
 10 11  1  0
 10 20  1  0
 11 12  1  0
 12 21  1  0
 12 13  1  0
 13 14  1  0
 13 22  1  0
 14 24  1  0
 14 25  1  0
 14 23  1  0
M  RAD  1   3   2
M  END
>  <rmg_smiles>  (3) 
C[CH][CH]ONCC.C[CH][N]

>  <rmg_adjacency_list>  (3) 
multiplicity 2
1  O u0 p2 c0 {2,S} {9,S}
2  N u0 p1 c0 {1,S} {4,S} {23,S}
3  N u1 p2 c0 {10,S}
4  C u0 p0 c0 {2,S} {5,S} {11,S} {12,S}
5  C u0 p0 c0 {4,S} {13,S} {14,S} {15,S}
6  C u0 p0 c0 {8,S} {19,S} {20,S} {21,S}
7  C u0 p0 c0 {10,S} {16,S} {17,S} {18,S}
8  C u0 p0 c0 {6,S} {9,S} {22,S}
9  C u0 p0 c0 {1,S} {8,S} {25,S}
10 C u0 p0 c0 {3,S} {7,S} {24,S}
11 H u0 p0 c0 {4,S}
12 H u0 p0 c0 {4,S}
13 H u0 p0 c0 {5,S}
14 H u0 p0 c0 {5,S}
15 H u0 p0 c0 {5,S}
16 H u0 p0 c0 {7,S}
17 H u0 p0 c0 {7,S}
18 H u0 p0 c0 {7,S}
19 H u0 p0 c0 {6,S}
20 H u0 p0 c0 {6,S}
21 H u0 p0 c0 {6,S}
22 H u0 p0 c0 {8,S}
23 H u0 p0 c0 {2,S}
24 H u0 p0 c0 {10,S}
25 H u0 p0 c0 {9,S}


>  <multiplicity>  (3) 
2

>  <reaction>  (3) 
rmg_rxn_16755

>  <type>  (3) 
ts

>  <role_mapnums>  (3) 
{"*2": 20, "*1": 10, "*3": 3, "*0": 11, "*4": 2}

>  <role_mapidx>  (3) 
{"*2": 19, "*1": 9, "*3": 2, "*0": 10, "*4": 1}

>  <ordered_mapped_smiles>  (3) 
[C:1]([CH:2]([NH:3])[H:7])([H:4])([H:5])[H:6].[C:8]([C:9]([N:10]([O:11][CH:12]([CH:13]([C:14]([H:23])([H:24])[H:25])[H:22])[H:21])[H:20])([H:18])[H:19])([H:15])([H:16])[H:17]

>  <mol_properties>  (3) 
{"1": {"label": "*4", "atom_type": "Cs"}, "2": {"label": "*3", "atom_type": "N1s"}, "9": {"label": "*1", "atom_type": "N3s"}, "10": {"label": "*0", "atom_type": "O2s"}, "19": {"label": "*2", "atom_type": "H0"}}

>  <level_of_theory>  (3) 
wb97xd/def2tzvp

>  <lot_method>  (3) 
wb97xd

>  <lot_basis>  (3) 
def2tzvp

>  <spin_multiplicity>  (3) 
2.0

>  <optical_isomers>  (3) 
2.0

>  <modes>  (3) 
IdealGasTranslation(mass=(143.118, 'amu')),         NonlinearRotor(             inertia = ([462.712, 527.233, 863.335

>  <frequency_value>  (3) 
-1932.18

>  <frequency_units>  (3) 
cm^-1

>  <frequency_list>  (3) 
unknown

>  <arkane_path>  (3) 
/home/calvin/Dropbox/PersonalFolders/Calvin/ZEUS_Converged/rmg_rxn_16755/output/rxns/TS0/arkane/output.py

>  <path_exists>  (3) 
True

>  <E0_value>  (3) 
-1208160.0

>  <E0_units>  (3) 
kJ/mol

>  <thermo_class>  (3) 
unknown

>  <Cp0_value>  (3) 
unknown

>  <Cp0_units>  (3) 
unknown

>  <CpInf_value>  (3) 
unknown

>  <CpInf_units>  (3) 
unknown

>  <Tmin_value>  (3) 
unknown

>  <Tmin_units>  (3) 
unknown

>  <Tmax_value>  (3) 
unknown

>  <Tmax_units>  (3) 
unknown

>  <polynomials>  (3) 
unknown

>  <H298_value>  (3) 
unknown

>  <H298_units>  (3) 
unknown

>  <S298_value>  (3) 
unknown

>  <S298_units>  (3) 
unknown

>  <Cp_T_value_list>  (3) 
unknown

>  <Cp_T_units>  (3) 
unknown

>  <T_list>  (3) 
unknown

>  <T_units>  (3) 
unknown

>  <yaml_path>  (3) 
unknown

>  <frequencies_cm1>  (3) 
unknown

>  <ZPE_kJmol>  (3) 
unknown

>  <E_elec_kJmol>  (3) 
unknown

>  <E0_minus_Eelec_plus_ZPE_kJmol>  (3) 
unknown

>  <rxn>  (3) 
unknown

>  <species_type>  (3) 
unknown

>  <species_folder>  (3) 
unknown

>  <frequencies_cm1_list>  (3) 
[]

>  <ts_imag_freq_cm1>  (3) 
-1955.6428

>  <ts_freq_out_path>  (3) 
/home/calvin/Dropbox/PersonalFolders/Calvin/ZEUS_Converged/rmg_rxn_16755/output/rxns/TS0/geometry/freq.out

>  <E0_kJmol>  (3) 
-1.20816e+06

>  <H298_kJmol>  (3) 
unknown

$$$$

     RDKit          3D

 17 16  0  0  0  0  0  0  0  0999 V2000
   -3.9569    0.9552    0.2194 C   0  0  0  0  0  0  0  0  0  1  0  0
   -2.7268    0.2170    0.7122 C   0  0  0  0  0  0  0  0  0  2  0  0
   -3.1329   -0.9651    1.4331 N   0  0  0  0  0  2  0  0  0  3  0  0
   -1.9936   -1.5736    1.8429 O   0  0  0  0  0  0  0  0  0  4  0  0
   -2.2420   -2.7226    2.5478 C   0  0  0  0  0  0  0  0  0  5  0  0
   -1.2555   -3.4592    3.0326 C   0  0  0  0  0  0  0  0  0  6  0  0
    0.2053   -3.1742    2.8978 C   0  0  0  0  0  0  0  0  0  7  0  0
   -4.5903    1.2537    1.0554 H   0  0  0  0  0  0  0  0  0  8  0  0
   -4.5473    0.3237   -0.4453 H   0  0  0  0  0  0  0  0  0  9  0  0
   -3.6652    1.8519   -0.3280 H   0  0  0  0  0  0  0  0  0 10  0  0
   -2.0800   -0.0725   -0.1260 H   0  0  0  0  0  0  0  0  0 11  0  0
   -2.1229    0.8548    1.3703 H   0  0  0  0  0  0  0  0  0 12  0  0
   -3.2943   -2.9484    2.6575 H   0  0  0  0  0  0  0  0  0 13  0  0
   -1.5512   -4.3487    3.5754 H   0  0  0  0  0  0  0  0  0 14  0  0
    0.6708   -3.0711    3.8810 H   0  0  0  0  0  0  0  0  0 15  0  0
    0.7136   -3.9963    2.3881 H   0  0  0  0  0  0  0  0  0 16  0  0
    0.3877   -2.2596    2.3363 H   0  0  0  0  0  0  0  0  0 17  0  0
  1 10  1  0
  1  8  1  0
  1  9  1  0
  1  2  1  0
  2 12  1  0
  2  3  1  0
  2 11  1  0
  3  4  1  0
  4  5  1  0
  5 13  1  0
  5  6  1  0
  6 14  1  0
  6  7  1  0
  7 17  1  0
  7 15  1  0
  7 16  1  0
M  RAD  1   3   2
M  END
>  <rmg_smiles>  (4) 
C[CH][CH]O[N]CC

>  <rmg_adjacency_list>  (4) 
multiplicity 2
1  O u0 p2 c0 {2,S} {7,S}
2  N u1 p1 c0 {1,S} {3,S}
3  C u0 p0 c0 {2,S} {4,S} {8,S} {9,S}
4  C u0 p0 c0 {3,S} {10,S} {11,S} {12,S}
5  C u0 p0 c0 {6,S} {13,S} {14,S} {15,S}
6  C u0 p0 c0 {5,S} {7,S} {16,S}
7  C u0 p0 c0 {1,S} {6,S} {17,S}
8  H u0 p0 c0 {3,S}
9  H u0 p0 c0 {3,S}
10 H u0 p0 c0 {4,S}
11 H u0 p0 c0 {4,S}
12 H u0 p0 c0 {4,S}
13 H u0 p0 c0 {5,S}
14 H u0 p0 c0 {5,S}
15 H u0 p0 c0 {5,S}
16 H u0 p0 c0 {6,S}
17 H u0 p0 c0 {7,S}


>  <multiplicity>  (4) 
2

>  <reaction>  (4) 
rmg_rxn_16755

>  <type>  (4) 
r1

>  <role_mapnums>  (4) 
{}

>  <role_mapidx>  (4) 
{}

>  <ordered_mapped_smiles>  (4) 
[C:1]([C:2]([N:3][O:4][CH:5]([CH:6]([C:7]([H:15])([H:16])[H:17])[H:14])[H:13])([H:11])[H:12])([H:8])([H:9])[H:10]

>  <level_of_theory>  (4) 
wb97xd/def2tzvp

>  <lot_method>  (4) 
wb97xd

>  <lot_basis>  (4) 
def2tzvp

>  <spin_multiplicity>  (4) 
2.0

>  <optical_isomers>  (4) 
1.0

>  <modes>  (4) 
IdealGasTranslation(mass=(100.076, 'amu')),         NonlinearRotor(             inertia = ([48.759, 495.431, 534.81

>  <frequency_value>  (4) 
unknown

>  <frequency_units>  (4) 
unknown

>  <frequency_list>  (4) 
unknown

>  <arkane_path>  (4) 
/home/calvin/Dropbox/PersonalFolders/Calvin/ZEUS_Converged/rmg_rxn_16755/output/Species/rmg_rxn_16755_p2_CCsbr-N-sbrOC=CC/arkane/output.py

>  <path_exists>  (4) 
True

>  <E0_value>  (4) 
-856676.8223331333

>  <E0_units>  (4) 
kJ/mol

>  <thermo_class>  (4) 
NASA

>  <Cp0_value>  (4) 
33.257888

>  <Cp0_units>  (4) 
J/(mol*K)

>  <CpInf_value>  (4) 
407.409128

>  <CpInf_units>  (4) 
J/(mol*K)

>  <Tmin_value>  (4) 
10.0

>  <Tmin_units>  (4) 
K

>  <Tmax_value>  (4) 
3000.0

>  <Tmax_units>  (4) 
K

>  <polynomials>  (4) 
[{"name": "polynomial1", "class": "NASAPolynomial", "Tmin_value": 10.0, "Tmin_units": "K", "Tmax_value": 405.8617016422642, "Tmax_units": "K", "coeffs": [3.3056821829666876, 0.07427222245103442, -0.0002334485157928309, 5.927295217898219e-07, -5.204043932585979e-10, -103034419.90991603, 12.815919936389687]}, {"name": "polynomial2", "class": "NASAPolynomial", "Tmin_value": 405.8617016422642, "Tmin_units": "K", "Tmax_value": 3000.0, "Tmax_units": "K", "coeffs": [-0.060423116103502865, 0.06444249773473294, -3.818120379550855e-05, 1.0913054719049007e-08, -1.2080186358157797e-12, -103033792.48118466, 30.383553447873673]}]

>  <H298_value>  (4) 
-204744.41408837505

>  <H298_units>  (4) 
kcal/mol

>  <S298_value>  (4) 
94.6284463739008

>  <S298_units>  (4) 
cal/(mol*K)

>  <Cp_T_value_list>  (4) 
[32.52143721927914, 40.29090107192689, 47.502493164808094, 53.77480700871094, 63.8892538204584, 71.35245162702867, 82.29336154543947, 87.58790855839342, 90.3398918368538]

>  <Cp_T_units>  (4) 
cal/(mol*K)

>  <T_list>  (4) 
[300.0, 400.0, 500.0, 600.0, 800.0, 1000.0, 1500.0, 2000.0, 2400.0]

>  <T_units>  (4) 
K

>  <yaml_path>  (4) 
/home/calvin/Dropbox/PersonalFolders/Calvin/ZEUS_Converged/rmg_rxn_16755/output/Species/rmg_rxn_16755_p2_CCsbr-N-sbrOC=CC/rmg_rxn_16755_p2_CCsbr-N-sbrOC=CC.yml

>  <frequencies_cm1>  (4) 
[41.256847802559996, 104.15843333375999, 120.12417420275999, 121.77911766487999, 126.90188871359999, 231.22512969504, 233.87578602856, 426.85180749119996, 449.615863827, 466.4056429344, 679.316522781, 752.8344676169199, 780.6388911775999, 916.6395354401998, 949.4568582844801, 962.7170069373999, 1006.871722545, 1055.6959881701998, 1078.78279281604, 1081.1175678248399, 1131.38390036724, 1169.43386602536, 1189.0871780112, 1259.78965886592, 1266.83518580424, 1366.7429552249198, 1375.2168151098, 1407.5122470697597, 1414.44103525764, 1457.00947725632, 1474.18380754164, 1476.51858255044, 1476.93060166964, 1489.9778737776398, 1747.07780415844, 2967.79431655356, 3000.9618556491596, 3012.9104101059593, 3026.2186276561197, 3066.33555589556, 3103.1219962547993, 3105.08595405632, 3114.0405029135995, 3160.2621811025197, 3192.88722835784]

>  <ZPE_kJmol>  (4) 
377.0512340360192

>  <E_elec_kJmol>  (4) 
-857053.8735671693

>  <E0_minus_Eelec_plus_ZPE_kJmol>  (4) 
0.0

>  <rxn>  (4) 
rmg_rxn_16755

>  <species_type>  (4) 
p1

>  <species_folder>  (4) 
rmg_rxn_16755_p2_CCsbr-N-sbrOC=CC

>  <frequencies_cm1_list>  (4) 
[41.256847802559996, 104.15843333375999, 120.12417420275999, 121.77911766487999, 126.90188871359999, 231.22512969504, 233.87578602856, 426.85180749119996, 449.615863827, 466.4056429344, 679.316522781, 752.8344676169199, 780.6388911775999, 916.6395354401998, 949.4568582844801, 962.7170069373999, 1006.871722545, 1055.6959881701998, 1078.78279281604, 1081.1175678248399, 1131.38390036724, 1169.43386602536, 1189.0871780112, 1259.78965886592, 1266.83518580424, 1366.7429552249198, 1375.2168151098, 1407.5122470697597, 1414.44103525764, 1457.00947725632, 1474.18380754164, 1476.51858255044, 1476.93060166964, 1489.9778737776398, 1747.07780415844, 2967.79431655356, 3000.9618556491596, 3012.9104101059593, 3026.2186276561197, 3066.33555589556, 3103.1219962547993, 3105.08595405632, 3114.0405029135995, 3160.2621811025197, 3192.88722835784]

>  <E0_kJmol>  (4) 
-856677

>  <H298_kJmol>  (4) 
-856651

$$$$

     RDKit          3D

  7  6  0  0  0  0  0  0  0  0999 V2000
   -0.6441   -0.1356    0.0624 C   0  0  0  0  0  0  0  0  0  1  0  0
    0.8523    0.0148   -0.0333 C   0  0  0  0  0  0  0  0  0  2  0  0
    1.6700   -0.6077    0.6603 N   0  0  0  0  0  2  0  0  0  3  0  0
   -1.0940    0.8275    0.3091 H   0  0  0  0  0  0  0  0  0  4  0  0
   -0.9104   -0.8656    0.8237 H   0  0  0  0  0  0  0  0  0  5  0  0
   -1.0427   -0.4545   -0.9022 H   0  0  0  0  0  0  0  0  0  6  0  0
    1.2362    0.7308   -0.7748 H   0  0  0  0  0  0  0  0  0  7  0  0
  1  5  1  0
  1  4  1  0
  1  6  1  0
  1  2  1  0
  2  3  1  0
  2  7  1  0
M  RAD  1   3   2
M  END
>  <rmg_smiles>  (5) 
C[CH][N]

>  <rmg_adjacency_list>  (5) 
multiplicity 2
1 N u1 p2 c0 {3,S}
2 C u0 p0 c0 {3,S} {4,S} {5,S} {6,S}
3 C u0 p0 c0 {1,S} {2,S} {7,S}
4 H u0 p0 c0 {2,S}
5 H u0 p0 c0 {2,S}
6 H u0 p0 c0 {2,S}
7 H u0 p0 c0 {3,S}


>  <multiplicity>  (5) 
2

>  <reaction>  (5) 
rmg_rxn_16755

>  <type>  (5) 
r2

>  <role_mapnums>  (5) 
{}

>  <role_mapidx>  (5) 
{}

>  <ordered_mapped_smiles>  (5) 
[C:1]([CH:2]([NH:3])[H:7])([H:4])([H:5])[H:6]

>  <level_of_theory>  (5) 
wb97xd/def2tzvp

>  <lot_method>  (5) 
wb97xd

>  <lot_basis>  (5) 
def2tzvp

>  <spin_multiplicity>  (5) 
2.0

>  <optical_isomers>  (5) 
1.0

>  <modes>  (5) 
IdealGasTranslation(mass=(42.0344, 'amu')),         NonlinearRotor(             inertia = ([8.81492, 48.174, 53.8511

>  <frequency_value>  (5) 
unknown

>  <frequency_units>  (5) 
unknown

>  <frequency_list>  (5) 
unknown

>  <arkane_path>  (5) 
/home/calvin/Dropbox/PersonalFolders/Calvin/ZEUS_Converged/rmg_rxn_16755/output/Species/rmg_rxn_16755_r1_CC=sbr-N-sbr/arkane/output.py

>  <path_exists>  (5) 
True

>  <E0_value>  (5) 
-349854.82234455534

>  <E0_units>  (5) 
kJ/mol

>  <thermo_class>  (5) 
NASA

>  <Cp0_value>  (5) 
33.257888

>  <Cp0_units>  (5) 
J/(mol*K)

>  <CpInf_value>  (5) 
157.97496800000002

>  <CpInf_units>  (5) 
J/(mol*K)

>  <Tmin_value>  (5) 
10.0

>  <Tmin_units>  (5) 
K

>  <Tmax_value>  (5) 
3000.0

>  <Tmax_units>  (5) 
K

>  <polynomials>  (5) 
[{"name": "polynomial1", "class": "NASAPolynomial", "Tmin_value": 10.0, "Tmin_units": "K", "Tmax_value": 503.5856077016928, "Tmax_units": "K", "coeffs": [3.976811592049577, 0.0012685228752087534, 4.786155959427562e-05, -7.554553197268183e-08, 3.869280929218241e-11, -42077814.38325793, 7.559402827950991]}, {"name": "polynomial2", "class": "NASAPolynomial", "Tmin_value": 503.5856077016928, "Tmin_units": "K", "Tmax_value": 3000.0, "Tmax_units": "K", "coeffs": [1.4688672877735052, 0.02118998940112054, -1.1479594923736429e-05, 3.0156770231218235e-09, -3.096140671693614e-13, -42077561.800061174, 17.93823402033286]}]

>  <H298_value>  (5) 
-83614.2601862362

>  <H298_units>  (5) 
kcal/mol

>  <S298_value>  (5) 
63.84640386523673

>  <S298_units>  (5) 
cal/(mol*K)

>  <Cp_T_value_list>  (5) 
[13.788413560189577, 16.48922778111735, 18.980945997388957, 21.186536551582613, 24.822448324400693, 27.593007553675324, 31.86535612271467, 33.985319854322825, 35.01227851918305]

>  <Cp_T_units>  (5) 
cal/(mol*K)

>  <T_list>  (5) 
[300.0, 400.0, 500.0, 600.0, 800.0, 1000.0, 1500.0, 2000.0, 2400.0]

>  <T_units>  (5) 
K

>  <yaml_path>  (5) 
/home/calvin/Dropbox/PersonalFolders/Calvin/ZEUS_Converged/rmg_rxn_16755/output/Species/rmg_rxn_16755_r1_CC=sbr-N-sbr/rmg_rxn_16755_r1_CC=sbr-N-sbr.yml

>  <frequencies_cm1>  (5) 
[183.94593576684, 430.87586088872, 744.9511684695599, 909.3948659275999, 1050.2642027820798, 1063.7578289358798, 1237.9320445923597, 1377.0846351168398, 1461.72709617116, 1465.6893467008, 1739.36617964408, 2963.10416558, 3026.2186276561197, 3097.525403219, 3131.35217290532]

>  <ZPE_kJmol>  (5) 
142.8532380575317

>  <E_elec_kJmol>  (5) 
-349997.67558261286

>  <E0_minus_Eelec_plus_ZPE_kJmol>  (5) 
0.0

>  <rxn>  (5) 
rmg_rxn_16755

>  <species_type>  (5) 
r0

>  <species_folder>  (5) 
rmg_rxn_16755_r1_CC=sbr-N-sbr

>  <frequencies_cm1_list>  (5) 
[183.94593576684, 430.87586088872, 744.9511684695599, 909.3948659275999, 1050.2642027820798, 1063.7578289358798, 1237.9320445923597, 1377.0846351168398, 1461.72709617116, 1465.6893467008, 1739.36617964408, 2963.10416558, 3026.2186276561197, 3097.525403219, 3131.35217290532]

>  <E0_kJmol>  (5) 
-349855

>  <H298_kJmol>  (5) 
-349842

$$$$
