
     RDKit          3D

  9  8  0  0  0  0  0  0  0  0999 V2000
    0.1983    0.4029    1.6954 C   0  0  0  0  0  0  0  0  0  1  0  0
    0.0867   -0.6266    0.6035 C   0  0  0  0  0  0  0  0  0  2  0  0
   -0.0867    0.0723   -1.0661 S   0  0  0  0  0  0  0  0  0  3  0  0
   -0.7346    0.9647    1.7259 H   0  0  0  0  0  0  0  0  0  4  0  0
    0.9661    1.1541    1.5200 H   0  0  0  0  0  0  0  0  0  5  0  0
    0.2754   -0.0308    2.6929 H   0  0  0  0  0  0  0  0  0  6  0  0
   -0.7418   -1.3100    0.7920 H   0  0  0  0  0  0  0  0  0  7  0  0
    0.9935   -1.2348    0.5479 H   0  0  0  0  0  0  0  0  0  8  0  0
   -1.2338    0.7259   -0.8348 H   0  0  0  0  0  0  0  0  0  9  0  0
  1  5  1  0
  1  4  1  0
  1  6  1  0
  1  2  1  0
  2  8  1  0
  2  3  1  0
  2  7  1  0
  3  9  1  0
M  END
>  <rmg_smiles>  (1) 
CCS

>  <rmg_adjacency_list>  (1) 
1 S u0 p2 c0 {2,S} {9,S}
2 C u0 p0 c0 {1,S} {3,S} {4,S} {5,S}
3 C u0 p0 c0 {2,S} {6,S} {7,S} {8,S}
4 H u0 p0 c0 {2,S}
5 H u0 p0 c0 {2,S}
6 H u0 p0 c0 {3,S}
7 H u0 p0 c0 {3,S}
8 H u0 p0 c0 {3,S}
9 H u0 p0 c0 {1,S}


>  <multiplicity>  (1) 
1

>  <reaction>  (1) 
rmg_rxn_2764

>  <type>  (1) 
r1h

>  <role_mapnums>  (1) 
{"r1h_a": 1, "r1h_h": 4}

>  <role_mapidx>  (1) 
{"r1h_a": 0, "r1h_h": 3}

>  <ordered_mapped_smiles>  (1) 
[C:1]([C:2]([S:3][H:9])([H:7])[H:8])([H:4])([H:5])[H:6]

>  <mol_properties>  (1) 
{"0": {"label": "donator", "atom_type": "Cs"}, "3": {"label": "d_hydrogen", "atom_type": "H0"}}

>  <level_of_theory>  (1) 
wb97xd/def2tzvp

>  <lot_method>  (1) 
wb97xd

>  <lot_basis>  (1) 
def2tzvp

>  <spin_multiplicity>  (1) 
1.0

>  <optical_isomers>  (1) 
2.0

>  <modes>  (1) 
IdealGasTranslation(mass=(62.019, 'amu')),         NonlinearRotor(             inertia = ([17.3187, 95.472, 104.033

>  <frequency_value>  (1) 
unknown

>  <frequency_units>  (1) 
unknown

>  <frequency_list>  (1) 
unknown

>  <arkane_path>  (1) 
/home/calvin/Dropbox/PersonalFolders/Calvin/ATLAS_Converged/rmg_rxn_2764/output/Species/rmg_rxn_2764_r1_CCS/arkane/output.py

>  <path_exists>  (1) 
True

>  <E0_value>  (1) 
-1254880.5539257105

>  <E0_units>  (1) 
kJ/mol

>  <thermo_class>  (1) 
NASA

>  <Cp0_value>  (1) 
33.257888

>  <Cp0_units>  (1) 
J/(mol*K)

>  <CpInf_value>  (1) 
207.8618

>  <CpInf_units>  (1) 
J/(mol*K)

>  <Tmin_value>  (1) 
10.0

>  <Tmin_units>  (1) 
K

>  <Tmax_value>  (1) 
3000.0

>  <Tmax_units>  (1) 
K

>  <polynomials>  (1) 
[{"name": "polynomial1", "class": "NASAPolynomial", "Tmin_value": 10.0, "Tmin_units": "K", "Tmax_value": 456.94594899547127, "Tmax_units": "K", "coeffs": [3.912577624338537, 0.00615582175220408, 5.7903930492959536e-05, -1.030503984599124e-07, 5.821320863281675e-11, -150927266.2322327, 9.021117452044235]}, {"name": "polynomial2", "class": "NASAPolynomial", "Tmin_value": 456.94594899547127, "Tmin_units": "K", "Tmax_value": 3000.0, "Tmax_units": "K", "coeffs": [1.355858308005039, 0.028536747355681385, -1.556509888997289e-05, 4.138064392594878e-09, -4.3071928406011676e-13, -150927032.57563502, 19.353413792179573]}]

>  <H298_value>  (1) 
-299920.1188186392

>  <H298_units>  (1) 
kcal/mol

>  <S298_value>  (1) 
69.39854649104443

>  <S298_units>  (1) 
cal/(mol*K)

>  <Cp_T_value_list>  (1) 
[17.20889854420324, 20.934361703682253, 24.290211996879982, 27.24951312622027, 32.12490060154891, 35.83897490418279, 41.58221214962001, 44.47758447480336, 45.91133080340105]

>  <Cp_T_units>  (1) 
cal/(mol*K)

>  <T_list>  (1) 
[300.0, 400.0, 500.0, 600.0, 800.0, 1000.0, 1500.0, 2000.0, 2400.0]

>  <T_units>  (1) 
K

>  <yaml_path>  (1) 
/home/calvin/Dropbox/PersonalFolders/Calvin/ATLAS_Converged/rmg_rxn_2764/output/Species/rmg_rxn_2764_r1_CCS/rmg_rxn_2764_r1_CCS.yml

>  <frequencies_cm1>  (1) 
[202.32885546847996, 256.50936964327997, 331.52431727896, 667.1482247939599, 735.969151671, 875.5955641825599, 988.159187548, 1063.6273562148, 1117.6087278153198, 1273.38628979952, 1303.10660226448, 1402.5542836687198, 1466.616389719, 1477.4456255686398, 1483.85938985752, 2700.25656848636, 3013.3430301811195, 3044.51914353392, 3080.6051513905195, 3088.40604671404, 3107.9357529641197]

>  <ZPE_kJmol>  (1) 
195.4728851436989

>  <E_elec_kJmol>  (1) 
-1255076.0268108542

>  <E0_minus_Eelec_plus_ZPE_kJmol>  (1) 
0.0

>  <rxn>  (1) 
rmg_rxn_2764

>  <species_type>  (1) 
r0

>  <species_folder>  (1) 
rmg_rxn_2764_r1_CCS

>  <frequencies_cm1_list>  (1) 
[202.32885546847996, 256.50936964327997, 331.52431727896, 667.1482247939599, 735.969151671, 875.5955641825599, 988.159187548, 1063.6273562148, 1117.6087278153198, 1273.38628979952, 1303.10660226448, 1402.5542836687198, 1466.616389719, 1477.4456255686398, 1483.85938985752, 2700.25656848636, 3013.3430301811195, 3044.51914353392, 3080.6051513905195, 3088.40604671404, 3107.9357529641197]

>  <E0_kJmol>  (1) 
-1.25488e+06

>  <H298_kJmol>  (1) 
-1.25487e+06

$$$$

     RDKit          3D

  9  8  0  0  0  0  0  0  0  0999 V2000
    1.2820   -1.6526    0.6039 H   0  0  0  0  0  0  0  0  0  1  0  0
    0.3708   -1.0650    0.5654 C   0  0  0  0  0  0  0  0  0  2  0  0
    0.4046    0.0152   -0.1848 C   0  0  0  0  0  0  0  0  0  3  0  0
   -0.7234    0.9883   -0.3641 C   0  0  0  0  0  0  0  0  0  4  0  0
   -0.4522   -1.4312    1.1700 H   0  0  0  0  0  0  0  0  0  5  0  0
    1.3207    0.2406   -0.7294 H   0  0  0  0  0  0  0  0  0  6  0  0
   -0.4215    1.9876   -0.0411 H   0  0  0  0  0  0  0  0  0  7  0  0
   -1.6030    0.6913    0.2072 H   0  0  0  0  0  0  0  0  0  8  0  0
   -1.0030    1.0624   -1.4179 H   0  0  0  0  0  0  0  0  0  9  0  0
  1  2  1  0
  2  5  1  0
  2  3  1  0
  3  4  1  0
  3  6  1  0
  4  8  1  0
  4  9  1  0
  4  7  1  0
M  END
>  <rmg_smiles>  (2) 
[CH2][CH]C

>  <rmg_adjacency_list>  (2) 
1 C u0 p0 c0 {2,S} {4,S} {5,S} {6,S}
2 C u0 p0 c0 {1,S} {3,S} {7,S}
3 C u0 p0 c0 {2,S} {8,S} {9,S}
4 H u0 p0 c0 {1,S}
5 H u0 p0 c0 {1,S}
6 H u0 p0 c0 {1,S}
7 H u0 p0 c0 {2,S}
8 H u0 p0 c0 {3,S}
9 H u0 p0 c0 {3,S}


>  <multiplicity>  (2) 
1

>  <reaction>  (2) 
rmg_rxn_2764

>  <type>  (2) 
r2h

>  <role_mapnums>  (2) 
{"r2h_a": 2, "r2h_h": 1}

>  <role_mapidx>  (2) 
{"r2h_a": 1, "r2h_h": 0}

>  <ordered_mapped_smiles>  (2) 
[H:1][CH:2]([CH:3]([C:4]([H:7])([H:8])[H:9])[H:6])[H:5]

>  <mol_properties>  (2) 
{"0": {"label": "a_hydrogen", "atom_type": "H0"}, "1": {"label": "acceptor", "atom_type": "Cs"}}

>  <level_of_theory>  (2) 
wb97xd/def2tzvp

>  <lot_method>  (2) 
wb97xd

>  <lot_basis>  (2) 
def2tzvp

>  <spin_multiplicity>  (2) 
1.0

>  <optical_isomers>  (2) 
1.0

>  <modes>  (2) 
IdealGasTranslation(mass=(42.047, 'amu')),         NonlinearRotor(             inertia = ([10.7194, 53.9495, 61.5633

>  <frequency_value>  (2) 
unknown

>  <frequency_units>  (2) 
unknown

>  <frequency_list>  (2) 
unknown

>  <arkane_path>  (2) 
/home/calvin/Dropbox/PersonalFolders/Calvin/ATLAS_Converged/rmg_rxn_2764/output/Species/rmg_rxn_2764_p2_C=CC/arkane/output.py

>  <path_exists>  (2) 
True

>  <E0_value>  (2) 
-309367.8832800667

>  <E0_units>  (2) 
kJ/mol

>  <thermo_class>  (2) 
NASA

>  <Cp0_value>  (2) 
33.257888

>  <Cp0_units>  (2) 
J/(mol*K)

>  <CpInf_value>  (2) 
207.8618

>  <CpInf_units>  (2) 
J/(mol*K)

>  <Tmin_value>  (2) 
10.0

>  <Tmin_units>  (2) 
K

>  <Tmax_value>  (2) 
3000.0

>  <Tmax_units>  (2) 
K

>  <polynomials>  (2) 
[{"name": "polynomial1", "class": "NASAPolynomial", "Tmin_value": 10.0, "Tmin_units": "K", "Tmax_value": 531.9064937504112, "Tmax_units": "K", "coeffs": [4.020436711182031, -0.0017312814785763397, 7.469369060034455e-05, -1.103989584976731e-07, 5.3574119431735355e-11, -37208361.61961947, 6.984063158303809]}, {"name": "polynomial2", "class": "NASAPolynomial", "Tmin_value": 531.9064937504112, "Tmin_units": "K", "Tmax_value": 3000.0, "Tmax_units": "K", "coeffs": [-0.3074697795116692, 0.0308149753688916, -1.7087881827869126e-05, 4.635359536661255e-09, -4.926745963315874e-13, -37207901.20969448, 25.131571794167595]}]

>  <H298_value>  (2) 
-73937.54315081469

>  <H298_units>  (2) 
kcal/mol

>  <S298_value>  (2) 
63.23542809596166

>  <S298_units>  (2) 
cal/(mol*K)

>  <Cp_T_value_list>  (2) 
[15.25511443960514, 19.04713332195462, 22.607914347827887, 25.768633339463815, 30.960221646023633, 34.89993402409392, 40.9710958044644, 44.05842766458756, 45.61775865088926]

>  <Cp_T_units>  (2) 
cal/(mol*K)

>  <T_list>  (2) 
[300.0, 400.0, 500.0, 600.0, 800.0, 1000.0, 1500.0, 2000.0, 2400.0]

>  <T_units>  (2) 
K

>  <yaml_path>  (2) 
/home/calvin/Dropbox/PersonalFolders/Calvin/ATLAS_Converged/rmg_rxn_2764/output/Species/rmg_rxn_2764_p2_C=CC/rmg_rxn_2764_p2_C=CC.yml

>  <frequencies_cm1>  (2) 
[200.92112347787997, 429.72220735495995, 590.1693193567598, 925.5460154002399, 944.49202789812, 949.7315376972799, 1024.05291981564, 1068.7501272635197, 1186.76613697304, 1322.2792252779197, 1396.37399688072, 1440.26090006084, 1466.0326959668, 1481.02332492036, 1720.5094379553598, 3007.2932161142003, 3065.80679802592, 3091.5648599612396, 3111.3280437122, 3123.2628641983597, 3201.2855514042]

>  <ZPE_kJmol>  (2) 
207.8343042708976

>  <E_elec_kJmol>  (2) 
-309575.71758433763

>  <E0_minus_Eelec_plus_ZPE_kJmol>  (2) 
0.0

>  <rxn>  (2) 
rmg_rxn_2764

>  <species_type>  (2) 
p1

>  <species_folder>  (2) 
rmg_rxn_2764_p2_C=CC

>  <frequencies_cm1_list>  (2) 
[200.92112347787997, 429.72220735495995, 590.1693193567598, 925.5460154002399, 944.49202789812, 949.7315376972799, 1024.05291981564, 1068.7501272635197, 1186.76613697304, 1322.2792252779197, 1396.37399688072, 1440.26090006084, 1466.0326959668, 1481.02332492036, 1720.5094379553598, 3007.2932161142003, 3065.80679802592, 3091.5648599612396, 3111.3280437122, 3123.2628641983597, 3201.2855514042]

>  <E0_kJmol>  (2) 
-309368

>  <H298_kJmol>  (2) 
-309355

$$$$

     RDKit          3D

 17 15  0  0  0  0  0  0  0  0999 V2000
    1.1345   -0.5427    1.2760 C   0  0  0  0  0  0  0  0  0  1  0  0
    1.0230   -1.5722    0.1841 C   0  0  0  0  0  0  0  0  0  2  0  0
    0.8496   -0.8733   -1.4855 S   0  0  0  0  0  0  0  0  0  3  0  0
    0.0340    0.1201    1.3120 H   0  0  0  0  0  0  0  0  0  4  0  0
    1.9024    0.2085    1.1006 H   0  0  0  0  0  0  0  0  0  5  0  0
    1.2117   -0.9764    2.2735 H   0  0  0  0  0  0  0  0  0  6  0  0
    0.1945   -2.2556    0.3726 H   0  0  0  0  0  0  0  0  0  7  0  0
    1.9298   -2.1804    0.1285 H   0  0  0  0  0  0  0  0  0  8  0  0
   -0.2975   -0.2197   -1.2542 H   0  0  0  0  0  0  0  0  0  9  0  0
   -1.1349    0.8740    1.2626 C   0  0  0  0  0  3  0  0  0 10  0  0
   -1.1012    1.9541    0.5125 C   0  0  0  0  0  0  0  0  0 11  0  0
   -2.2292    2.9272    0.3331 C   0  0  0  0  0  0  0  0  0 12  0  0
   -1.9580    0.5077    1.8673 H   0  0  0  0  0  0  0  0  0 13  0  0
   -0.1851    2.1795   -0.0322 H   0  0  0  0  0  0  0  0  0 14  0  0
   -1.9272    3.9265    0.6562 H   0  0  0  0  0  0  0  0  0 15  0  0
   -3.1088    2.6302    0.9044 H   0  0  0  0  0  0  0  0  0 16  0  0
   -2.5088    3.0013   -0.7207 H   0  0  0  0  0  0  0  0  0 17  0  0
  1  5  1  0
  1  4  1  0
  1  6  1  0
  1  2  1  0
  2  8  1  0
  2  3  1  0
  2  7  1  0
  3  9  1  0
 10 13  1  0
 10 11  1  0
 11 14  1  0
 11 12  1  0
 12 15  1  0
 12 17  1  0
 12 16  1  0
M  RAD  1  10   2
M  END
>  <rmg_smiles>  (3) 
[CH][CH]C.CCS

>  <rmg_adjacency_list>  (3) 
multiplicity 2
1  S u0 p2 c0 {2,S} {16,S}
2  C u0 p0 c0 {1,S} {3,S} {7,S} {8,S}
3  C u0 p0 c0 {2,S} {9,S} {10,S} {11,S}
4  C u0 p0 c0 {5,S} {12,S} {13,S} {14,S}
5  C u0 p0 c0 {4,S} {6,S} {15,S}
6  C u1 p1 c0 {5,S} {17,S}
7  H u0 p0 c0 {2,S}
8  H u0 p0 c0 {2,S}
9  H u0 p0 c0 {3,S}
10 H u0 p0 c0 {3,S}
11 H u0 p0 c0 {3,S}
12 H u0 p0 c0 {4,S}
13 H u0 p0 c0 {4,S}
14 H u0 p0 c0 {4,S}
15 H u0 p0 c0 {5,S}
16 H u0 p0 c0 {1,S}
17 H u0 p0 c0 {6,S}


>  <multiplicity>  (3) 
2

>  <reaction>  (3) 
rmg_rxn_2764

>  <type>  (3) 
ts

>  <role_mapnums>  (3) 
{"*2": 4, "*1": 1, "*3": 10, "*0": 2, "*4": 11}

>  <role_mapidx>  (3) 
{"*2": 3, "*1": 0, "*3": 9, "*0": 1, "*4": 10}

>  <ordered_mapped_smiles>  (3) 
[C:1]([C:2]([S:3][H:9])([H:7])[H:8])([H:4])([H:5])[H:6].[CH:10]([CH:11]([C:12]([H:15])([H:16])[H:17])[H:14])[H:13]

>  <mol_properties>  (3) 
{"0": {"label": "*1", "atom_type": "Cs"}, "1": {"label": "*0", "atom_type": "Cs"}, "3": {"label": "*2", "atom_type": "H0"}, "9": {"label": "*3", "atom_type": "C2s"}, "10": {"label": "*4", "atom_type": "Cs"}}

>  <level_of_theory>  (3) 
wb97xd/def2tzvp

>  <lot_method>  (3) 
wb97xd

>  <lot_basis>  (3) 
def2tzvp

>  <spin_multiplicity>  (3) 
2.0

>  <optical_isomers>  (3) 
2.0

>  <modes>  (3) 
IdealGasTranslation(mass=(103.058, 'amu')),         NonlinearRotor(             inertia = ([120.88, 455.067, 544.954

>  <frequency_value>  (3) 
-1594.79

>  <frequency_units>  (3) 
cm^-1

>  <frequency_list>  (3) 
unknown

>  <arkane_path>  (3) 
/home/calvin/Dropbox/PersonalFolders/Calvin/ATLAS_Converged/rmg_rxn_2764/output/rxns/TS0/arkane/output.py

>  <path_exists>  (3) 
True

>  <E0_value>  (3) 
-1562450.0

>  <E0_units>  (3) 
kJ/mol

>  <thermo_class>  (3) 
unknown

>  <Cp0_value>  (3) 
unknown

>  <Cp0_units>  (3) 
unknown

>  <CpInf_value>  (3) 
unknown

>  <CpInf_units>  (3) 
unknown

>  <Tmin_value>  (3) 
unknown

>  <Tmin_units>  (3) 
unknown

>  <Tmax_value>  (3) 
unknown

>  <Tmax_units>  (3) 
unknown

>  <polynomials>  (3) 
unknown

>  <H298_value>  (3) 
unknown

>  <H298_units>  (3) 
unknown

>  <S298_value>  (3) 
unknown

>  <S298_units>  (3) 
unknown

>  <Cp_T_value_list>  (3) 
unknown

>  <Cp_T_units>  (3) 
unknown

>  <T_list>  (3) 
unknown

>  <T_units>  (3) 
unknown

>  <yaml_path>  (3) 
unknown

>  <frequencies_cm1>  (3) 
unknown

>  <ZPE_kJmol>  (3) 
unknown

>  <E_elec_kJmol>  (3) 
unknown

>  <E0_minus_Eelec_plus_ZPE_kJmol>  (3) 
unknown

>  <rxn>  (3) 
unknown

>  <species_type>  (3) 
unknown

>  <species_folder>  (3) 
unknown

>  <frequencies_cm1_list>  (3) 
[]

>  <ts_imag_freq_cm1>  (3) 
-1614.1596

>  <ts_freq_out_path>  (3) 
/home/calvin/Dropbox/PersonalFolders/Calvin/ATLAS_Converged/rmg_rxn_2764/output/rxns/TS0/geometry/freq.out

>  <E0_kJmol>  (3) 
-1.56245e+06

>  <H298_kJmol>  (3) 
unknown

$$$$

     RDKit          3D

  8  7  0  0  0  0  0  0  0  0999 V2000
   -0.9782    0.4241    0.0826 C   0  0  0  0  0  3  0  0  0  1  0  0
    0.0504   -0.5484   -0.3049 C   0  0  0  0  0  0  0  0  0  2  0  0
    1.5829   -0.3827    0.7251 S   0  0  0  0  0  0  0  0  0  3  0  0
   -1.0358    1.3853   -0.4103 H   0  0  0  0  0  0  0  0  0  4  0  0
   -1.5488    0.2794    0.9896 H   0  0  0  0  0  0  0  0  0  5  0  0
    0.3373   -0.4650   -1.3511 H   0  0  0  0  0  0  0  0  0  6  0  0
   -0.2617   -1.5762   -0.1147 H   0  0  0  0  0  0  0  0  0  7  0  0
    1.8538    0.8835    0.3837 H   0  0  0  0  0  0  0  0  0  8  0  0
  1  5  1  0
  1  4  1  0
  1  2  1  0
  2  7  1  0
  2  3  1  0
  2  6  1  0
  3  8  1  0
M  RAD  1   1   2
M  END
>  <rmg_smiles>  (4) 
[CH2]CS

>  <rmg_adjacency_list>  (4) 
multiplicity 2
1 S u0 p2 c0 {2,S} {8,S}
2 C u0 p0 c0 {1,S} {3,S} {4,S} {5,S}
3 C u1 p0 c0 {2,S} {6,S} {7,S}
4 H u0 p0 c0 {2,S}
5 H u0 p0 c0 {2,S}
6 H u0 p0 c0 {3,S}
7 H u0 p0 c0 {3,S}
8 H u0 p0 c0 {1,S}


>  <multiplicity>  (4) 
2

>  <reaction>  (4) 
rmg_rxn_2764

>  <type>  (4) 
r1

>  <role_mapnums>  (4) 
{}

>  <role_mapidx>  (4) 
{}

>  <ordered_mapped_smiles>  (4) 
[C:1]([C:2]([S:3][H:8])([H:6])[H:7])([H:4])[H:5]

>  <level_of_theory>  (4) 
wb97xd/def2tzvp

>  <lot_method>  (4) 
wb97xd

>  <lot_basis>  (4) 
def2tzvp

>  <spin_multiplicity>  (4) 
2.0

>  <optical_isomers>  (4) 
2.0

>  <modes>  (4) 
IdealGasTranslation(mass=(61.0112, 'amu')),         NonlinearRotor(             inertia = ([16.9685, 89.332, 97.2762

>  <frequency_value>  (4) 
unknown

>  <frequency_units>  (4) 
unknown

>  <frequency_list>  (4) 
unknown

>  <arkane_path>  (4) 
/home/calvin/Dropbox/PersonalFolders/Calvin/ATLAS_Converged/rmg_rxn_2764/output/Species/rmg_rxn_2764_p1_sbr-CH2-sbrCS/arkane/output.py

>  <path_exists>  (4) 
True

>  <E0_value>  (4) 
-1253152.447801487

>  <E0_units>  (4) 
kJ/mol

>  <thermo_class>  (4) 
NASA

>  <Cp0_value>  (4) 
33.257888

>  <Cp0_units>  (4) 
J/(mol*K)

>  <CpInf_value>  (4) 
182.918384

>  <CpInf_units>  (4) 
J/(mol*K)

>  <Tmin_value>  (4) 
10.0

>  <Tmin_units>  (4) 
K

>  <Tmax_value>  (4) 
3000.0

>  <Tmax_units>  (4) 
K

>  <polynomials>  (4) 
[{"name": "polynomial1", "class": "NASAPolynomial", "Tmin_value": 10.0, "Tmin_units": "K", "Tmax_value": 403.6346184976458, "Tmax_units": "K", "coeffs": [3.933749089523302, 0.004789874267195065, 9.844718979857216e-05, -2.5137453034960017e-07, 2.010370157967652e-10, -150719426.2864665, 9.566992346621477]}, {"name": "polynomial2", "class": "NASAPolynomial", "Tmin_value": 403.6346184976458, "Tmin_units": "K", "Tmax_value": 3000.0, "Tmax_units": "K", "coeffs": [3.1833775949448735, 0.02361757593385012, -1.3854589661262194e-05, 4.030463961777109e-09, -4.606706235582761e-13, -150719458.5074117, 11.356823550571834]}]

>  <H298_value>  (4) 
-299506.9429230543

>  <H298_units>  (4) 
kcal/mol

>  <S298_value>  (4) 
71.45098548968245

>  <S298_units>  (4) 
cal/(mol*K)

>  <Cp_T_value_list>  (4) 
[18.028426150118964, 21.183277168081407, 23.853501251940504, 26.18571452761767, 29.97782048915406, 32.82101497008131, 37.17583571577638, 39.49205791180577, 40.730403487740155]

>  <Cp_T_units>  (4) 
cal/(mol*K)

>  <T_list>  (4) 
[300.0, 400.0, 500.0, 600.0, 800.0, 1000.0, 1500.0, 2000.0, 2400.0]

>  <T_units>  (4) 
K

>  <yaml_path>  (4) 
/home/calvin/Dropbox/PersonalFolders/Calvin/ATLAS_Converged/rmg_rxn_2764/output/Species/rmg_rxn_2764_p1_sbr-CH2-sbrCS/rmg_rxn_2764_p1_sbr-CH2-sbrCS.yml

>  <frequencies_cm1>  (4) 
[191.22494020604, 237.47408633623996, 297.47093707707995, 565.6816497056399, 633.94635077176, 732.7279345999599, 867.8496047415998, 1072.9321213234, 1084.38625283716, 1231.4564774356, 1255.98534899864, 1445.6377495663999, 1473.6138477600798, 2705.420541447, 3048.6324677406, 3108.1348955383996, 3129.0723337790796, 3235.8333545491196]

>  <ZPE_kJmol>  (4) 
157.41353799818407

>  <E_elec_kJmol>  (4) 
-1253309.8613394853

>  <E0_minus_Eelec_plus_ZPE_kJmol>  (4) 
0.0

>  <rxn>  (4) 
rmg_rxn_2764

>  <species_type>  (4) 
p0

>  <species_folder>  (4) 
rmg_rxn_2764_p1_sbr-CH2-sbrCS

>  <frequencies_cm1_list>  (4) 
[191.22494020604, 237.47408633623996, 297.47093707707995, 565.6816497056399, 633.94635077176, 732.7279345999599, 867.8496047415998, 1072.9321213234, 1084.38625283716, 1231.4564774356, 1255.98534899864, 1445.6377495663999, 1473.6138477600798, 2705.420541447, 3048.6324677406, 3108.1348955383996, 3129.0723337790796, 3235.8333545491196]

>  <E0_kJmol>  (4) 
-1.25315e+06

>  <H298_kJmol>  (4) 
-1.25314e+06

$$$$

     RDKit          3D

  8  7  0  0  0  0  0  0  0  0999 V2000
    1.3778   -0.6812    0.2772 C   0  0  0  0  0  3  0  0  0  1  0  0
    0.4890    0.2108   -0.0590 C   0  0  0  0  0  0  0  0  0  2  0  0
   -1.0010    0.0286   -0.0323 C   0  0  0  0  0  0  0  0  0  3  0  0
    2.4535   -0.7507    0.3287 H   0  0  0  0  0  0  0  0  0  4  0  0
    0.8447    1.1899   -0.3945 H   0  0  0  0  0  0  0  0  0  5  0  0
   -1.4635    0.7638    0.6301 H   0  0  0  0  0  0  0  0  0  6  0  0
   -1.2709   -0.9687    0.3117 H   0  0  0  0  0  0  0  0  0  7  0  0
   -1.4218    0.1801   -1.0289 H   0  0  0  0  0  0  0  0  0  8  0  0
  1  4  1  0
  1  2  1  0
  2  5  1  0
  2  3  1  0
  3  6  1  0
  3  7  1  0
  3  8  1  0
M  RAD  1   1   2
M  END
>  <rmg_smiles>  (5) 
[CH][CH]C

>  <rmg_adjacency_list>  (5) 
multiplicity 2
1 C u0 p0 c0 {2,S} {4,S} {5,S} {6,S}
2 C u0 p0 c0 {1,S} {3,S} {7,S}
3 C u1 p1 c0 {2,S} {8,S}
4 H u0 p0 c0 {1,S}
5 H u0 p0 c0 {1,S}
6 H u0 p0 c0 {1,S}
7 H u0 p0 c0 {2,S}
8 H u0 p0 c0 {3,S}


>  <multiplicity>  (5) 
2

>  <reaction>  (5) 
rmg_rxn_2764

>  <type>  (5) 
r2

>  <role_mapnums>  (5) 
{}

>  <role_mapidx>  (5) 
{}

>  <ordered_mapped_smiles>  (5) 
[CH:1]([CH:2]([C:3]([H:6])([H:7])[H:8])[H:5])[H:4]

>  <level_of_theory>  (5) 
wb97xd/def2tzvp

>  <lot_method>  (5) 
wb97xd

>  <lot_basis>  (5) 
def2tzvp

>  <spin_multiplicity>  (5) 
2.0

>  <optical_isomers>  (5) 
1.0

>  <modes>  (5) 
IdealGasTranslation(mass=(41.0391, 'amu')),         NonlinearRotor(             inertia = ([8.69051, 52.7378, 58.3092

>  <frequency_value>  (5) 
unknown

>  <frequency_units>  (5) 
unknown

>  <frequency_list>  (5) 
unknown

>  <arkane_path>  (5) 
/home/calvin/Dropbox/PersonalFolders/Calvin/ATLAS_Converged/rmg_rxn_2764/output/Species/rmg_rxn_2764_r2_sbr-CH-sbr=CC/arkane/output.py

>  <path_exists>  (5) 
True

>  <E0_value>  (5) 
-307594.3811372411

>  <E0_units>  (5) 
kJ/mol

>  <thermo_class>  (5) 
NASA

>  <Cp0_value>  (5) 
33.257888

>  <Cp0_units>  (5) 
J/(mol*K)

>  <CpInf_value>  (5) 
182.918384

>  <CpInf_units>  (5) 
J/(mol*K)

>  <Tmin_value>  (5) 
10.0

>  <Tmin_units>  (5) 
K

>  <Tmax_value>  (5) 
3000.0

>  <Tmax_units>  (5) 
K

>  <polynomials>  (5) 
[{"name": "polynomial1", "class": "NASAPolynomial", "Tmin_value": 10.0, "Tmin_units": "K", "Tmax_value": 481.0435142823728, "Tmax_units": "K", "coeffs": [3.9727991601474284, 0.0015660485202043182, 6.167214282882254e-05, -1.0205402306399866e-07, 5.477574200596452e-11, -36995057.25584206, 7.404471489365289]}, {"name": "polynomial2", "class": "NASAPolynomial", "Tmin_value": 481.0435142823728, "Tmin_units": "K", "Tmax_value": 3000.0, "Tmax_units": "K", "coeffs": [1.0134350199665534, 0.02617217573414392, -1.5049764067719394e-05, 4.265493157120896e-09, -4.749676510594084e-13, -36994772.51908542, 19.516247038101728]}]

>  <H298_value>  (5) 
-73513.59504496788

>  <H298_units>  (5) 
kcal/mol

>  <S298_value>  (5) 
64.48620704915899

>  <S298_units>  (5) 
cal/(mol*K)

>  <Cp_T_value_list>  (5) 
[15.264391809977674, 18.555665777647867, 21.542477084400776, 24.16168097728455, 28.43436620324965, 31.648990357486973, 36.56707396910277, 39.11456920322472, 40.43549191091649]

>  <Cp_T_units>  (5) 
cal/(mol*K)

>  <T_list>  (5) 
[300.0, 400.0, 500.0, 600.0, 800.0, 1000.0, 1500.0, 2000.0, 2400.0]

>  <T_units>  (5) 
K

>  <yaml_path>  (5) 
/home/calvin/Dropbox/PersonalFolders/Calvin/ATLAS_Converged/rmg_rxn_2764/output/Species/rmg_rxn_2764_r2_sbr-CH-sbr=CC/rmg_rxn_2764_r2_sbr-CH-sbr=CC.yml

>  <frequencies_cm1>  (5) 
[191.17000432348, 405.3512764542799, 612.1368053954399, 794.34539387632, 826.7575645867199, 930.6344515223599, 1057.6324780304399, 1106.7863589509998, 1263.44976204148, 1394.05982282788, 1469.8576067900399, 1470.75718186696, 1689.7865456336797, 3013.59024165264, 3022.2975790384, 3075.38624254732, 3112.38555945148, 3222.5114030283203]

>  <ZPE_kJmol>  (5) 
171.41831607459883

>  <E_elec_kJmol>  (5) 
-307765.7994533157

>  <E0_minus_Eelec_plus_ZPE_kJmol>  (5) 
0.0

>  <rxn>  (5) 
rmg_rxn_2764

>  <species_type>  (5) 
r1

>  <species_folder>  (5) 
rmg_rxn_2764_r2_sbr-CH-sbr=CC

>  <frequencies_cm1_list>  (5) 
[191.17000432348, 405.3512764542799, 612.1368053954399, 794.34539387632, 826.7575645867199, 930.6344515223599, 1057.6324780304399, 1106.7863589509998, 1263.44976204148, 1394.05982282788, 1469.8576067900399, 1470.75718186696, 1689.7865456336797, 3013.59024165264, 3022.2975790384, 3075.38624254732, 3112.38555945148, 3222.5114030283203]

>  <E0_kJmol>  (5) 
-307594

>  <H298_kJmol>  (5) 
-307581

$$$$
