
     RDKit          3D

  6  5  0  0  0  0  0  0  0  0999 V2000
    0.4262    0.4865    0.3191 N   0  0  0  0  0  0  0  0  0  1  0  0
   -0.4329   -0.4216   -0.3849 N   0  0  0  0  0  0  0  0  0  2  0  0
    1.3570    0.5323   -0.1075 H   0  0  0  0  0  0  0  0  0  3  0  0
    0.5712    0.2280    1.2992 H   0  0  0  0  0  0  0  0  0  4  0  0
   -1.4154   -0.2838   -0.1315 H   0  0  0  0  0  0  0  0  0  5  0  0
   -0.2223   -1.4057   -0.1961 H   0  0  0  0  0  0  0  0  0  6  0  0
  1  2  1  0
  1  4  1  0
  1  3  1  0
  2  6  1  0
  2  5  1  0
M  END
>  <rmg_smiles>  (1) 
NN

>  <rmg_adjacency_list>  (1) 
1 N u0 p1 c0 {2,S} {3,S} {4,S}
2 N u0 p1 c0 {1,S} {5,S} {6,S}
3 H u0 p0 c0 {1,S}
4 H u0 p0 c0 {1,S}
5 H u0 p0 c0 {2,S}
6 H u0 p0 c0 {2,S}


>  <multiplicity>  (1) 
1

>  <reaction>  (1) 
rmg_rxn_16802

>  <type>  (1) 
r1h

>  <role_mapnums>  (1) 
{"r1h_a": 2, "r1h_h": 5}

>  <role_mapidx>  (1) 
{"r1h_a": 1, "r1h_h": 4}

>  <ordered_mapped_smiles>  (1) 
[N:1]([N:2]([H:5])[H:6])([H:3])[H:4]

>  <mol_properties>  (1) 
{"1": {"label": "donator", "atom_type": "N3s"}, "4": {"label": "d_hydrogen", "atom_type": "H0"}}

>  <level_of_theory>  (1) 
wb97xd/def2tzvp

>  <lot_method>  (1) 
wb97xd

>  <lot_basis>  (1) 
def2tzvp

>  <spin_multiplicity>  (1) 
1.0

>  <optical_isomers>  (1) 
2.0

>  <modes>  (1) 
IdealGasTranslation(mass=(32.0375, 'amu')),         NonlinearRotor(             inertia = ([3.45067, 20.9493, 21.4121

>  <frequency_value>  (1) 
unknown

>  <frequency_units>  (1) 
unknown

>  <frequency_list>  (1) 
unknown

>  <arkane_path>  (1) 
/home/calvin/Dropbox/PersonalFolders/Calvin/ZEUS_Converged/rmg_rxn_16802/output/Species/rmg_rxn_16802_r1_NN/arkane/output.py

>  <path_exists>  (1) 
True

>  <E0_value>  (1) 
-293596.2479916124

>  <E0_units>  (1) 
kJ/mol

>  <thermo_class>  (1) 
NASA

>  <Cp0_value>  (1) 
33.257888

>  <Cp0_units>  (1) 
J/(mol*K)

>  <CpInf_value>  (1) 
133.031552

>  <CpInf_units>  (1) 
J/(mol*K)

>  <Tmin_value>  (1) 
10.0

>  <Tmin_units>  (1) 
K

>  <Tmax_value>  (1) 
3000.0

>  <Tmax_units>  (1) 
K

>  <polynomials>  (1) 
[{"name": "polynomial1", "class": "NASAPolynomial", "Tmin_value": 10.0, "Tmin_units": "K", "Tmax_value": 425.9276641445359, "Tmax_units": "K", "coeffs": [4.062359475527406, -0.004986443328776222, 4.526653748850949e-05, -4.8354513996005005e-08, 9.783179689096069e-12, -35311472.39975714, 4.986030032830969]}, {"name": "polynomial2", "class": "NASAPolynomial", "Tmin_value": 425.9276641445359, "Tmin_units": "K", "Tmax_value": 3000.0, "Tmax_units": "K", "coeffs": [1.147110214387398, 0.01631991147316768, -8.386334426152768e-06, 2.1558258792657153e-09, -2.2005307106133073e-13, -35311168.98958595, 17.20880662245504]}]

>  <H298_value>  (1) 
-70168.60862259177

>  <H298_units>  (1) 
kcal/mol

>  <S298_value>  (1) 
56.1313892153345

>  <S298_units>  (1) 
cal/(mol*K)

>  <Cp_T_value_list>  (1) 
[10.758908343515438, 12.849652114683096, 14.83689560932621, 16.60731567523987, 19.572860214415044, 21.891981067844867, 25.673950142475288, 27.756015384740472, 28.8361858943835]

>  <Cp_T_units>  (1) 
cal/(mol*K)

>  <T_list>  (1) 
[300.0, 400.0, 500.0, 600.0, 800.0, 1000.0, 1500.0, 2000.0, 2400.0]

>  <T_units>  (1) 
K

>  <yaml_path>  (1) 
/home/calvin/Dropbox/PersonalFolders/Calvin/ZEUS_Converged/rmg_rxn_16802/output/Species/rmg_rxn_16802_r1_NN/rmg_rxn_16802_r1_NN.yml

>  <frequencies_cm1>  (1) 
[555.77258988888, 864.0590288449599, 997.0175986108001, 1092.82577779544, 1265.67466528516, 1341.6509908656399, 1689.49813225024, 1701.5084895749198, 3334.58747043604, 3336.44155647244, 3406.9311607822397, 3412.84363514276]

>  <ZPE_kJmol>  (1) 
137.56347877253572

>  <E_elec_kJmol>  (1) 
-293733.8114703849

>  <E0_minus_Eelec_plus_ZPE_kJmol>  (1) 
0.0

>  <rxn>  (1) 
rmg_rxn_16802

>  <species_type>  (1) 
r0

>  <species_folder>  (1) 
rmg_rxn_16802_r1_NN

>  <frequencies_cm1_list>  (1) 
[555.77258988888, 864.0590288449599, 997.0175986108001, 1092.82577779544, 1265.67466528516, 1341.6509908656399, 1689.49813225024, 1701.5084895749198, 3334.58747043604, 3336.44155647244, 3406.9311607822397, 3412.84363514276]

>  <E0_kJmol>  (1) 
-293596

>  <H298_kJmol>  (1) 
-293585

$$$$

     RDKit          3D

  8  7  0  0  0  0  0  0  0  0999 V2000
    1.4700   -0.2401   -0.1502 H   0  0  0  0  0  0  0  0  0  1  0  0
   -0.1761    1.2499   -0.1437 C   0  0  0  0  0  0  0  0  0  2  0  0
    0.4241   -0.0934    0.1196 C   0  0  0  0  0  0  0  0  0  3  0  0
   -0.2845   -1.1692    0.0589 N   0  0  0  0  0  0  0  0  0  4  0  0
    0.2948    1.7273   -1.0064 H   0  0  0  0  0  0  0  0  0  5  0  0
   -1.2465    1.1289   -0.3289 H   0  0  0  0  0  0  0  0  0  6  0  0
   -0.0430    1.8766    0.7418 H   0  0  0  0  0  0  0  0  0  7  0  0
    0.3000   -1.9866    0.2692 H   0  0  0  0  0  0  0  0  0  8  0  0
  1  3  1  0
  2  7  1  0
  2  5  1  0
  2  6  1  0
  2  3  1  0
  3  4  1  0
  4  8  1  0
M  END
>  <rmg_smiles>  (2) 
C[CH][NH]

>  <rmg_adjacency_list>  (2) 
1 N u0 p1 c0 {3,S} {8,S}
2 C u0 p0 c0 {3,S} {4,S} {5,S} {6,S}
3 C u0 p0 c0 {1,S} {2,S} {7,S}
4 H u0 p0 c0 {2,S}
5 H u0 p0 c0 {2,S}
6 H u0 p0 c0 {2,S}
7 H u0 p0 c0 {3,S}
8 H u0 p0 c0 {1,S}


>  <multiplicity>  (2) 
1

>  <reaction>  (2) 
rmg_rxn_16802

>  <type>  (2) 
r2h

>  <role_mapnums>  (2) 
{"r2h_a": 3, "r2h_h": 1}

>  <role_mapidx>  (2) 
{"r2h_a": 2, "r2h_h": 0}

>  <ordered_mapped_smiles>  (2) 
[H:1][CH:3]([C:2]([H:5])([H:6])[H:7])[NH:4][H:8]

>  <mol_properties>  (2) 
{"0": {"label": "a_hydrogen", "atom_type": "H0"}, "2": {"label": "acceptor", "atom_type": "Cs"}}

>  <level_of_theory>  (2) 
wb97xd/def2tzvp

>  <lot_method>  (2) 
wb97xd

>  <lot_basis>  (2) 
def2tzvp

>  <spin_multiplicity>  (2) 
1.0

>  <optical_isomers>  (2) 
2.0

>  <modes>  (2) 
IdealGasTranslation(mass=(43.0422, 'amu')),         NonlinearRotor(             inertia = ([9.58574, 51.8782, 58.2459

>  <frequency_value>  (2) 
unknown

>  <frequency_units>  (2) 
unknown

>  <frequency_list>  (2) 
unknown

>  <arkane_path>  (2) 
/home/calvin/Dropbox/PersonalFolders/Calvin/ZEUS_Converged/rmg_rxn_16802/output/Species/rmg_rxn_16802_p2_CC=N/arkane/output.py

>  <path_exists>  (2) 
True

>  <E0_value>  (2) 
-351532.73105076194

>  <E0_units>  (2) 
kJ/mol

>  <thermo_class>  (2) 
NASA

>  <Cp0_value>  (2) 
33.257888

>  <Cp0_units>  (2) 
J/(mol*K)

>  <CpInf_value>  (2) 
182.918384

>  <CpInf_units>  (2) 
J/(mol*K)

>  <Tmin_value>  (2) 
10.0

>  <Tmin_units>  (2) 
K

>  <Tmax_value>  (2) 
3000.0

>  <Tmax_units>  (2) 
K

>  <polynomials>  (2) 
[{"name": "polynomial1", "class": "NASAPolynomial", "Tmin_value": 10.0, "Tmin_units": "K", "Tmax_value": 595.5373651451594, "Tmax_units": "K", "coeffs": [4.030703313481149, -0.00229058814131209, 6.377490274321222e-05, -8.93766559780865e-08, 4.0934862340445074e-11, -42279622.021195926, 7.585695917242757]}, {"name": "polynomial2", "class": "NASAPolynomial", "Tmin_value": 595.5373651451594, "Tmin_units": "K", "Tmax_value": 3000.0, "Tmax_units": "K", "coeffs": [-0.11565217745608042, 0.027337056045592743, -1.5327895767727505e-05, 4.187529468154553e-09, -4.469900950756201e-13, -42279159.691402115, 25.175708204040994]}]

>  <H298_value>  (2) 
-84015.34890439233

>  <H298_units>  (2) 
kcal/mol

>  <S298_value>  (2) 
63.57157650832207

>  <S298_units>  (2) 
cal/(mol*K)

>  <Cp_T_value_list>  (2) 
[13.913765714474152, 17.18194181639411, 20.300271898294582, 23.081632876583395, 27.63224015948139, 31.06808077557062, 36.31061676624832, 38.93985005203162, 40.26666894785372]

>  <Cp_T_units>  (2) 
cal/(mol*K)

>  <T_list>  (2) 
[300.0, 400.0, 500.0, 600.0, 800.0, 1000.0, 1500.0, 2000.0, 2400.0]

>  <T_units>  (2) 
K

>  <yaml_path>  (2) 
/home/calvin/Dropbox/PersonalFolders/Calvin/ZEUS_Converged/rmg_rxn_16802/output/Species/rmg_rxn_16802_p2_CC=N/rmg_rxn_16802_p2_CC=N.yml

>  <frequencies_cm1>  (2) 
[234.89896684124, 508.23245051851995, 714.5510244579199, 916.92108183832, 1068.95613682312, 1083.47981077492, 1139.4045392209998, 1281.18718512304, 1373.1841874550798, 1414.5234390814799, 1449.02317332916, 1470.9357234852798, 1633.2506554941199, 2948.45001890712, 3002.78847374428, 3084.88328324488, 3091.9562781244804, 3362.8176470865596]

>  <ZPE_kJmol>  (2) 
178.12068223241255

>  <E_elec_kJmol>  (2) 
-351710.8517329944

>  <E0_minus_Eelec_plus_ZPE_kJmol>  (2) 
0.0

>  <rxn>  (2) 
rmg_rxn_16802

>  <species_type>  (2) 
p1

>  <species_folder>  (2) 
rmg_rxn_16802_p2_CC=N

>  <frequencies_cm1_list>  (2) 
[234.89896684124, 508.23245051851995, 714.5510244579199, 916.92108183832, 1068.95613682312, 1083.47981077492, 1139.4045392209998, 1281.18718512304, 1373.1841874550798, 1414.5234390814799, 1449.02317332916, 1470.9357234852798, 1633.2506554941199, 2948.45001890712, 3002.78847374428, 3084.88328324488, 3091.9562781244804, 3362.8176470865596]

>  <E0_kJmol>  (2) 
-351533

>  <H298_kJmol>  (2) 
-351520

$$$$

     RDKit          3D

 13 11  0  0  0  0  0  0  0  0999 V2000
    2.3094    0.4522    0.2379 N   0  0  0  0  0  0  0  0  0  1  0  0
    1.4503   -0.4560   -0.4661 N   0  0  0  0  0  0  0  0  0  2  0  0
    3.2402    0.4980   -0.1886 H   0  0  0  0  0  0  0  0  0  3  0  0
    2.4544    0.1937    1.2180 H   0  0  0  0  0  0  0  0  0  4  0  0
    0.2702   -0.2904   -0.1617 H   0  0  0  0  0  0  0  0  0  5  0  0
    1.6609   -1.4401   -0.2773 H   0  0  0  0  0  0  0  0  0  6  0  0
   -1.5998    1.2310   -0.0975 C   0  0  0  0  0  0  0  0  0  7  0  0
   -0.9996   -0.1123    0.1658 C   0  0  0  0  0  3  0  0  0  8  0  0
   -1.7082   -1.1881    0.1051 N   0  0  0  0  0  0  0  0  0  9  0  0
   -1.1289    1.7084   -0.9601 H   0  0  0  0  0  0  0  0  0 10  0  0
   -2.6702    1.1100   -0.2826 H   0  0  0  0  0  0  0  0  0 11  0  0
   -1.4667    1.8576    0.7881 H   0  0  0  0  0  0  0  0  0 12  0  0
   -1.1237   -2.0055    0.3154 H   0  0  0  0  0  0  0  0  0 13  0  0
  1  2  1  0
  1  4  1  0
  1  3  1  0
  2  6  1  0
  2  5  1  0
  7 12  1  0
  7  8  1  0
  7 11  1  0
  7 10  1  0
  8  9  1  0
  9 13  1  0
M  RAD  1   8   2
M  END
>  <rmg_smiles>  (3) 
C[C][NH].NN

>  <rmg_adjacency_list>  (3) 
multiplicity 2
1  N u0 p1 c0 {2,S} {9,S} {10,S}
2  N u0 p1 c0 {1,S} {11,S} {12,S}
3  N u0 p1 c0 {5,S} {13,S}
4  C u0 p0 c0 {5,S} {6,S} {7,S} {8,S}
5  C u1 p1 c0 {3,S} {4,S}
6  H u0 p0 c0 {4,S}
7  H u0 p0 c0 {4,S}
8  H u0 p0 c0 {4,S}
9  H u0 p0 c0 {1,S}
10 H u0 p0 c0 {1,S}
11 H u0 p0 c0 {2,S}
12 H u0 p0 c0 {2,S}
13 H u0 p0 c0 {3,S}


>  <multiplicity>  (3) 
2

>  <reaction>  (3) 
rmg_rxn_16802

>  <type>  (3) 
ts

>  <role_mapnums>  (3) 
{"*2": 5, "*1": 2, "*3": 8, "*0": 1, "*4": 9}

>  <role_mapidx>  (3) 
{"*2": 4, "*1": 1, "*3": 7, "*0": 0, "*4": 8}

>  <ordered_mapped_smiles>  (3) 
[N:1]([N:2]([H:5])[H:6])([H:3])[H:4].[C:7]([CH:8][NH:9][H:13])([H:10])([H:11])[H:12]

>  <mol_properties>  (3) 
{"0": {"label": "*0", "atom_type": "N3s"}, "1": {"label": "*1", "atom_type": "N3s"}, "4": {"label": "*2", "atom_type": "H0"}, "7": {"label": "*3", "atom_type": "C2s"}, "8": {"label": "*4", "atom_type": "N3s"}}

>  <level_of_theory>  (3) 
wb97xd/def2tzvp

>  <lot_method>  (3) 
wb97xd

>  <lot_basis>  (3) 
def2tzvp

>  <spin_multiplicity>  (3) 
2.0

>  <optical_isomers>  (3) 
2.0

>  <modes>  (3) 
IdealGasTranslation(mass=(74.0718, 'amu')),         NonlinearRotor(             inertia = ([65.5985, 227.091, 277.145

>  <frequency_value>  (3) 
-1761.75

>  <frequency_units>  (3) 
cm^-1

>  <frequency_list>  (3) 
unknown

>  <arkane_path>  (3) 
/home/calvin/Dropbox/PersonalFolders/Calvin/ZEUS_Converged/rmg_rxn_16802/output/rxns/TS0/arkane/output.py

>  <path_exists>  (3) 
True

>  <E0_value>  (3) 
-643351.0

>  <E0_units>  (3) 
kJ/mol

>  <thermo_class>  (3) 
unknown

>  <Cp0_value>  (3) 
unknown

>  <Cp0_units>  (3) 
unknown

>  <CpInf_value>  (3) 
unknown

>  <CpInf_units>  (3) 
unknown

>  <Tmin_value>  (3) 
unknown

>  <Tmin_units>  (3) 
unknown

>  <Tmax_value>  (3) 
unknown

>  <Tmax_units>  (3) 
unknown

>  <polynomials>  (3) 
unknown

>  <H298_value>  (3) 
unknown

>  <H298_units>  (3) 
unknown

>  <S298_value>  (3) 
unknown

>  <S298_units>  (3) 
unknown

>  <Cp_T_value_list>  (3) 
unknown

>  <Cp_T_units>  (3) 
unknown

>  <T_list>  (3) 
unknown

>  <T_units>  (3) 
unknown

>  <yaml_path>  (3) 
unknown

>  <frequencies_cm1>  (3) 
unknown

>  <ZPE_kJmol>  (3) 
unknown

>  <E_elec_kJmol>  (3) 
unknown

>  <E0_minus_Eelec_plus_ZPE_kJmol>  (3) 
unknown

>  <rxn>  (3) 
unknown

>  <species_type>  (3) 
unknown

>  <species_folder>  (3) 
unknown

>  <frequencies_cm1_list>  (3) 
[]

>  <ts_imag_freq_cm1>  (3) 
-1783.1495

>  <ts_freq_out_path>  (3) 
/home/calvin/Dropbox/PersonalFolders/Calvin/ZEUS_Converged/rmg_rxn_16802/output/rxns/TS0/geometry/freq.out

>  <E0_kJmol>  (3) 
-643351

>  <H298_kJmol>  (3) 
unknown

$$$$

     RDKit          3D

  5  4  0  0  0  0  0  0  0  0999 V2000
   -0.7753   -0.1467    0.0720 N   0  0  0  0  0  2  0  0  0  1  0  0
    0.6601    0.0567   -0.1327 N   0  0  0  0  0  0  0  0  0  2  0  0
   -1.2895    0.6829   -0.2527 H   0  0  0  0  0  0  0  0  0  3  0  0
    1.1259   -0.8105    0.1365 H   0  0  0  0  0  0  0  0  0  4  0  0
    0.9698    0.7577    0.5408 H   0  0  0  0  0  0  0  0  0  5  0  0
  1  3  1  0
  1  2  1  0
  2  5  1  0
  2  4  1  0
M  RAD  1   1   2
M  END
>  <rmg_smiles>  (4) 
[NH]N

>  <rmg_adjacency_list>  (4) 
multiplicity 2
1 N u0 p1 c0 {2,S} {3,S} {4,S}
2 N u1 p1 c0 {1,S} {5,S}
3 H u0 p0 c0 {1,S}
4 H u0 p0 c0 {1,S}
5 H u0 p0 c0 {2,S}


>  <multiplicity>  (4) 
2

>  <reaction>  (4) 
rmg_rxn_16802

>  <type>  (4) 
r1

>  <role_mapnums>  (4) 
{}

>  <role_mapidx>  (4) 
{}

>  <ordered_mapped_smiles>  (4) 
[N:1]([N:2]([H:4])[H:5])[H:3]

>  <level_of_theory>  (4) 
wb97xd/def2tzvp

>  <lot_method>  (4) 
wb97xd

>  <lot_basis>  (4) 
def2tzvp

>  <spin_multiplicity>  (4) 
2.0

>  <optical_isomers>  (4) 
2.0

>  <modes>  (4) 
IdealGasTranslation(mass=(31.0296, 'amu')),         NonlinearRotor(             inertia = ([2.61302, 19.1521, 20.5052

>  <frequency_value>  (4) 
unknown

>  <frequency_units>  (4) 
unknown

>  <frequency_list>  (4) 
unknown

>  <arkane_path>  (4) 
/home/calvin/Dropbox/PersonalFolders/Calvin/ZEUS_Converged/rmg_rxn_16802/output/Species/rmg_rxn_16802_p1_sbr-NH-sbrN/arkane/output.py

>  <path_exists>  (4) 
True

>  <E0_value>  (4) 
-291916.8736927982

>  <E0_units>  (4) 
kJ/mol

>  <thermo_class>  (4) 
NASA

>  <Cp0_value>  (4) 
33.257888

>  <Cp0_units>  (4) 
J/(mol*K)

>  <CpInf_value>  (4) 
108.088136

>  <CpInf_units>  (4) 
J/(mol*K)

>  <Tmin_value>  (4) 
10.0

>  <Tmin_units>  (4) 
K

>  <Tmax_value>  (4) 
3000.0

>  <Tmax_units>  (4) 
K

>  <polynomials>  (4) 
[{"name": "polynomial1", "class": "NASAPolynomial", "Tmin_value": 10.0, "Tmin_units": "K", "Tmax_value": 519.9163405233771, "Tmax_units": "K", "coeffs": [4.051795082921791, -0.004574260377477793, 5.264320236967683e-05, -8.885581429283929e-08, 5.053648691339515e-11, -35109490.22055784, 6.111919860023045]}, {"name": "polynomial2", "class": "NASAPolynomial", "Tmin_value": 519.9163405233771, "Tmin_units": "K", "Tmax_value": 3000.0, "Tmax_units": "K", "coeffs": [2.437059474997634, 0.011872251440816963, -6.414323542011326e-06, 1.75563150496664e-09, -1.9087215216918432e-13, -35109376.69488496, 12.322940654224116]}]

>  <H298_value>  (4) 
-69767.18951408603

>  <H298_units>  (4) 
kcal/mol

>  <S298_value>  (4) 
58.59383496649064

>  <S298_units>  (4) 
cal/(mol*K)

>  <Cp_T_value_list>  (4) 
[10.785848927070358, 12.423946011046658, 13.864777776572646, 15.114162536115112, 17.19012248697895, 18.798470192498424, 21.406535644153454, 22.88340976595323, 23.68974572283506]

>  <Cp_T_units>  (4) 
cal/(mol*K)

>  <T_list>  (4) 
[300.0, 400.0, 500.0, 600.0, 800.0, 1000.0, 1500.0, 2000.0, 2400.0]

>  <T_units>  (4) 
K

>  <yaml_path>  (4) 
/home/calvin/Dropbox/PersonalFolders/Calvin/ZEUS_Converged/rmg_rxn_16802/output/Species/rmg_rxn_16802_p1_sbr-NH-sbrN/rmg_rxn_16802_p1_sbr-NH-sbrN.yml

>  <frequencies_cm1>  (4) 
[464.41421719159996, 802.9634604529199, 1035.0881652248797, 1101.78032665272, 1371.0554220058798, 1636.1347893285201, 3337.84928846304, 3398.05214876348, 3473.7331939752]

>  <ZPE_kJmol>  (4) 
99.4161106765543

>  <E_elec_kJmol>  (4) 
-292016.28980347473

>  <E0_minus_Eelec_plus_ZPE_kJmol>  (4) 
0.0

>  <rxn>  (4) 
rmg_rxn_16802

>  <species_type>  (4) 
p0

>  <species_folder>  (4) 
rmg_rxn_16802_p1_sbr-NH-sbrN

>  <frequencies_cm1_list>  (4) 
[464.41421719159996, 802.9634604529199, 1035.0881652248797, 1101.78032665272, 1371.0554220058798, 1636.1347893285201, 3337.84928846304, 3398.05214876348, 3473.7331939752]

>  <E0_kJmol>  (4) 
-291917

>  <H298_kJmol>  (4) 
-291906

$$$$

     RDKit          3D

  7  6  0  0  0  0  0  0  0  0999 V2000
   -1.2010    0.1038   -0.0002 C   0  0  0  0  0  0  0  0  0  1  0  0
    0.1886   -0.4250   -0.0003 C   0  0  0  0  0  3  0  0  0  2  0  0
    1.3309    0.0272    0.0001 N   0  0  0  0  0  0  0  0  0  3  0  0
   -1.7355   -0.2512    0.8930 H   0  0  0  0  0  0  0  0  0  4  0  0
   -1.2181    1.2094   -0.0132 H   0  0  0  0  0  0  0  0  0  5  0  0
   -1.7468   -0.2736   -0.8772 H   0  0  0  0  0  0  0  0  0  6  0  0
    1.4589    1.0518   -0.0003 H   0  0  0  0  0  0  0  0  0  7  0  0
  1  5  1  0
  1  4  1  0
  1  6  1  0
  1  2  1  0
  2  3  1  0
  3  7  1  0
M  RAD  1   2   2
M  END
>  <rmg_smiles>  (5) 
C[C][NH]

>  <rmg_adjacency_list>  (5) 
multiplicity 2
1 N u0 p1 c0 {3,S} {7,S}
2 C u0 p0 c0 {3,S} {4,S} {5,S} {6,S}
3 C u1 p1 c0 {1,S} {2,S}
4 H u0 p0 c0 {2,S}
5 H u0 p0 c0 {2,S}
6 H u0 p0 c0 {2,S}
7 H u0 p0 c0 {1,S}


>  <multiplicity>  (5) 
2

>  <reaction>  (5) 
rmg_rxn_16802

>  <type>  (5) 
r2

>  <role_mapnums>  (5) 
{}

>  <role_mapidx>  (5) 
{}

>  <ordered_mapped_smiles>  (5) 
[C:1]([CH:2][NH:3][H:7])([H:4])([H:5])[H:6]

>  <level_of_theory>  (5) 
wb97xd/def2tzvp

>  <lot_method>  (5) 
wb97xd

>  <lot_basis>  (5) 
def2tzvp

>  <spin_multiplicity>  (5) 
2.0

>  <optical_isomers>  (5) 
2.0

>  <modes>  (5) 
IdealGasTranslation(mass=(42.0344, 'amu')),         NonlinearRotor(             inertia = ([6.52903, 53.6371, 57.0074

>  <frequency_value>  (5) 
unknown

>  <frequency_units>  (5) 
unknown

>  <frequency_list>  (5) 
unknown

>  <arkane_path>  (5) 
/home/calvin/Dropbox/PersonalFolders/Calvin/ZEUS_Converged/rmg_rxn_16802/output/Species/rmg_rxn_16802_r2_Csbr-C-sbr=N/arkane/output.py

>  <path_exists>  (5) 
True

>  <E0_value>  (5) 
-349811.510605644

>  <E0_units>  (5) 
kJ/mol

>  <thermo_class>  (5) 
NASA

>  <Cp0_value>  (5) 
33.257888

>  <Cp0_units>  (5) 
J/(mol*K)

>  <CpInf_value>  (5) 
157.97496800000002

>  <CpInf_units>  (5) 
J/(mol*K)

>  <Tmin_value>  (5) 
10.0

>  <Tmin_units>  (5) 
K

>  <Tmax_value>  (5) 
3000.0

>  <Tmax_units>  (5) 
K

>  <polynomials>  (5) 
[{"name": "polynomial1", "class": "NASAPolynomial", "Tmin_value": 10.0, "Tmin_units": "K", "Tmax_value": 421.70720798911213, "Tmax_units": "K", "coeffs": [4.00483553571699, -0.0022573354786762866, 7.325703566240704e-05, -1.3189755763984632e-07, 7.984149867165401e-11, -42072605.17071024, 8.076544306969483]}, {"name": "polynomial2", "class": "NASAPolynomial", "Tmin_value": 421.70720798911213, "Tmin_units": "K", "Tmax_value": 3000.0, "Tmax_units": "K", "coeffs": [1.4681616533743833, 0.02180357645132904, -1.2326612908788062e-05, 3.3990766130784968e-09, -3.659046066610018e-13, -42072391.22322883, 18.124262429510075]}]

>  <H298_value>  (5) 
-83603.94009155394

>  <H298_units>  (5) 
kcal/mol

>  <S298_value>  (5) 
64.51755204889155

>  <S298_units>  (5) 
cal/(mol*K)

>  <Cp_T_value_list>  (5) 
[13.922865914350803, 16.743259499214652, 19.256651381375, 21.460848904722745, 25.063529222957815, 27.77776307277125, 31.910837783851893, 33.995145822610446, 35.063172111185395]

>  <Cp_T_units>  (5) 
cal/(mol*K)

>  <T_list>  (5) 
[300.0, 400.0, 500.0, 600.0, 800.0, 1000.0, 1500.0, 2000.0, 2400.0]

>  <T_units>  (5) 
K

>  <yaml_path>  (5) 
/home/calvin/Dropbox/PersonalFolders/Calvin/ZEUS_Converged/rmg_rxn_16802/output/Species/rmg_rxn_16802_r2_Csbr-C-sbr=N/rmg_rxn_16802_r2_Csbr-C-sbr=N.yml

>  <frequencies_cm1>  (5) 
[272.59184926271996, 434.13767891572, 686.93200950088, 892.99650498344, 952.3753270454799, 1049.9208535160801, 1071.5793252153599, 1389.39027281028, 1454.99745055756, 1463.25843389752, 1857.38905633892, 2900.31245181392, 2997.1987476937993, 3022.37998286224, 3220.16289404888]

>  <ZPE_kJmol>  (5) 
141.5518998523827

>  <E_elec_kJmol>  (5) 
-349953.06250549643

>  <E0_minus_Eelec_plus_ZPE_kJmol>  (5) 
0.0

>  <rxn>  (5) 
rmg_rxn_16802

>  <species_type>  (5) 
r1

>  <species_folder>  (5) 
rmg_rxn_16802_r2_Csbr-C-sbr=N

>  <frequencies_cm1_list>  (5) 
[272.59184926271996, 434.13767891572, 686.93200950088, 892.99650498344, 952.3753270454799, 1049.9208535160801, 1071.5793252153599, 1389.39027281028, 1454.99745055756, 1463.25843389752, 1857.38905633892, 2900.31245181392, 2997.1987476937993, 3022.37998286224, 3220.16289404888]

>  <E0_kJmol>  (5) 
-349812

>  <H298_kJmol>  (5) 
-349799

$$$$
