
     RDKit          3D

  9  8  0  0  0  0  0  0  0  0999 V2000
   -0.5822   -0.2070   -1.8036 C   0  0  0  0  0  0  0  0  0  1  0  0
   -0.2020   -0.4771   -0.3880 C   0  0  0  0  0  0  0  0  0  2  0  0
    0.1917    0.4698    0.3596 N   0  0  0  0  0  0  0  0  0  3  0  0
    0.5105    0.1456    1.6066 O   0  0  0  0  0  0  0  0  0  4  0  0
    0.0350   -0.7935   -2.4886 H   0  0  0  0  0  0  0  0  0  5  0  0
   -1.6224   -0.4885   -1.9869 H   0  0  0  0  0  0  0  0  0  6  0  0
   -0.4566    0.8500   -2.0336 H   0  0  0  0  0  0  0  0  0  7  0  0
   -0.2619   -1.4946   -0.0001 H   0  0  0  0  0  0  0  0  0  8  0  0
    0.7912    0.9787    1.9923 H   0  0  0  0  0  0  0  0  0  9  0  0
  1  5  1  0
  1  7  1  0
  1  6  1  0
  1  2  1  0
  2  3  1  0
  2  8  1  0
  3  4  1  0
  4  9  1  0
M  END
>  <rmg_smiles>  (1) 
C[CH][N]O

>  <rmg_adjacency_list>  (1) 
1 O u0 p2 c0 {2,S} {9,S}
2 N u0 p1 c0 {1,S} {4,S}
3 C u0 p0 c0 {4,S} {5,S} {6,S} {7,S}
4 C u0 p0 c0 {2,S} {3,S} {8,S}
5 H u0 p0 c0 {3,S}
6 H u0 p0 c0 {3,S}
7 H u0 p0 c0 {3,S}
8 H u0 p0 c0 {4,S}
9 H u0 p0 c0 {1,S}


>  <multiplicity>  (1) 
1

>  <reaction>  (1) 
rmg_rxn_681

>  <type>  (1) 
r1h

>  <role_mapnums>  (1) 
{"r1h_a": 4, "r1h_h": 9}

>  <role_mapidx>  (1) 
{"r1h_a": 3, "r1h_h": 8}

>  <ordered_mapped_smiles>  (1) 
[C:1]([CH:2]([NH:3][O:4][H:9])[H:8])([H:5])([H:6])[H:7]

>  <mol_properties>  (1) 
{"3": {"label": "donator", "atom_type": "O2s"}, "8": {"label": "d_hydrogen", "atom_type": "H0"}}

>  <level_of_theory>  (1) 
wb97xd/def2tzvp

>  <lot_method>  (1) 
wb97xd

>  <lot_basis>  (1) 
def2tzvp

>  <spin_multiplicity>  (1) 
1.0

>  <optical_isomers>  (1) 
1.0

>  <modes>  (1) 
IdealGasTranslation(mass=(59.0371, 'amu')),         NonlinearRotor(             inertia = ([10.7603, 118.091, 125.733

>  <frequency_value>  (1) 
unknown

>  <frequency_units>  (1) 
unknown

>  <frequency_list>  (1) 
unknown

>  <arkane_path>  (1) 
/home/calvin/Dropbox/PersonalFolders/Calvin/ATLAS_Converged/rmg_rxn_681/output/Species/rmg_rxn_681_r1_CC=NO/arkane/output.py

>  <path_exists>  (1) 
True

>  <E0_value>  (1) 
-548937.8541984448

>  <E0_units>  (1) 
kJ/mol

>  <thermo_class>  (1) 
NASA

>  <Cp0_value>  (1) 
33.257888

>  <Cp0_units>  (1) 
J/(mol*K)

>  <CpInf_value>  (1) 
207.8618

>  <CpInf_units>  (1) 
J/(mol*K)

>  <Tmin_value>  (1) 
10.0

>  <Tmin_units>  (1) 
K

>  <Tmax_value>  (1) 
3000.0

>  <Tmax_units>  (1) 
K

>  <polynomials>  (1) 
[{"name": "polynomial1", "class": "NASAPolynomial", "Tmin_value": 10.0, "Tmin_units": "K", "Tmax_value": 335.1910179037978, "Tmax_units": "K", "coeffs": [3.936344167606981, 0.004744355844830638, 9.160790844518127e-05, -2.1061910314248552e-07, 1.6006484261890122e-10, -66021973.16953679, 8.120493921530757]}, {"name": "polynomial2", "class": "NASAPolynomial", "Tmin_value": 335.1910179037978, "Tmin_units": "K", "Tmax_value": 3000.0, "Tmax_units": "K", "coeffs": [1.9092598311329627, 0.02893435817357441, -1.6642930351421066e-05, 4.680937669481693e-09, -5.139624250773394e-13, -66021837.27634088, 15.684306465260459]}]

>  <H298_value>  (1) 
-131195.6144386416

>  <H298_units>  (1) 
kcal/mol

>  <S298_value>  (1) 
68.52934918863554

>  <S298_units>  (1) 
cal/(mol*K)

>  <Cp_T_value_list>  (1) 
[18.310462740749653, 22.071021910178956, 25.374045411772553, 28.263825064535727, 32.970522087113224, 36.50033911765962, 41.85143067881395, 44.573751899405494, 45.995252148342956]

>  <Cp_T_units>  (1) 
cal/(mol*K)

>  <T_list>  (1) 
[300.0, 400.0, 500.0, 600.0, 800.0, 1000.0, 1500.0, 2000.0, 2400.0]

>  <T_units>  (1) 
K

>  <yaml_path>  (1) 
/home/calvin/Dropbox/PersonalFolders/Calvin/ATLAS_Converged/rmg_rxn_681/output/Species/rmg_rxn_681_r1_CC=NO/rmg_rxn_681_r1_CC=NO.yml

>  <frequencies_cm1>  (1) 
[197.06187772804, 291.09837470012, 328.62644947392, 407.23283043195994, 570.83188869564, 914.3734302846, 916.92108183832, 1038.1439736922798, 1079.0094033316, 1148.38655601956, 1286.64643845244, 1390.76366987428, 1438.44801593636, 1464.57689507896, 1470.4000986303201, 1752.33104792824, 3016.9275965181596, 3076.79397453792, 3080.3236049924, 3121.5941867655997, 3848.4577159022797]

>  <ZPE_kJmol>  (1) 
190.43926148497908

>  <E_elec_kJmol>  (1) 
-549128.2934599298

>  <E0_minus_Eelec_plus_ZPE_kJmol>  (1) 
0.0

>  <rxn>  (1) 
rmg_rxn_681

>  <species_type>  (1) 
r0

>  <species_folder>  (1) 
rmg_rxn_681_r1_CC=NO

>  <frequencies_cm1_list>  (1) 
[197.06187772804, 291.09837470012, 328.62644947392, 407.23283043195994, 570.83188869564, 914.3734302846, 916.92108183832, 1038.1439736922798, 1079.0094033316, 1148.38655601956, 1286.64643845244, 1390.76366987428, 1438.44801593636, 1464.57689507896, 1470.4000986303201, 1752.33104792824, 3016.9275965181596, 3076.79397453792, 3080.3236049924, 3121.5941867655997, 3848.4577159022797]

>  <E0_kJmol>  (1) 
-548938

>  <H298_kJmol>  (1) 
-548922

$$$$

     RDKit          3D

 15 14  0  0  0  0  0  0  0  0999 V2000
    1.3147   -1.9226    0.9771 H   0  0  0  0  0  0  0  0  0  1  0  0
    1.5357   -0.8977    1.2824 C   0  0  0  0  0  0  0  0  0  2  0  0
    0.9060   -0.0568    0.4250 O   0  0  0  0  0  0  0  0  0  3  0  0
   -0.5015    0.0334    0.6088 C   0  0  0  0  0  0  0  0  0  4  0  0
   -1.0941    0.8582   -0.5119 C   0  0  0  0  0  0  0  0  0  5  0  0
   -0.9689    0.1930   -1.8759 C   0  0  0  0  0  0  0  0  0  6  0  0
    2.6150   -0.7978    1.1899 H   0  0  0  0  0  0  0  0  0  7  0  0
    1.1679   -0.8603    2.3142 H   0  0  0  0  0  0  0  0  0  8  0  0
   -0.6990    0.4955    1.5838 H   0  0  0  0  0  0  0  0  0  9  0  0
   -0.9241   -0.9771    0.6124 H   0  0  0  0  0  0  0  0  0 10  0  0
   -0.6080    1.8373   -0.5196 H   0  0  0  0  0  0  0  0  0 11  0  0
   -2.1469    1.0314   -0.2725 H   0  0  0  0  0  0  0  0  0 12  0  0
   -1.3983    0.8221   -2.6570 H   0  0  0  0  0  0  0  0  0 13  0  0
    0.0762    0.0019   -2.1184 H   0  0  0  0  0  0  0  0  0 14  0  0
   -1.4875   -0.7680   -1.8860 H   0  0  0  0  0  0  0  0  0 15  0  0
  1  2  1  0
  2  7  1  0
  2  8  1  0
  2  3  1  0
  3  4  1  0
  4  5  1  0
  4  9  1  0
  4 10  1  0
  5 11  1  0
  5 12  1  0
  5  6  1  0
  6 15  1  0
  6 14  1  0
  6 13  1  0
M  END
>  <rmg_smiles>  (2) 
CCCOC

>  <rmg_adjacency_list>  (2) 
1  O u0 p2 c0 {3,S} {5,S}
2  C u0 p0 c0 {3,S} {4,S} {6,S} {7,S}
3  C u0 p0 c0 {1,S} {2,S} {8,S} {9,S}
4  C u0 p0 c0 {2,S} {10,S} {11,S} {12,S}
5  C u0 p0 c0 {1,S} {13,S} {14,S} {15,S}
6  H u0 p0 c0 {2,S}
7  H u0 p0 c0 {2,S}
8  H u0 p0 c0 {3,S}
9  H u0 p0 c0 {3,S}
10 H u0 p0 c0 {4,S}
11 H u0 p0 c0 {4,S}
12 H u0 p0 c0 {4,S}
13 H u0 p0 c0 {5,S}
14 H u0 p0 c0 {5,S}
15 H u0 p0 c0 {5,S}


>  <multiplicity>  (2) 
1

>  <reaction>  (2) 
rmg_rxn_681

>  <type>  (2) 
r2h

>  <role_mapnums>  (2) 
{"r2h_a": 2, "r2h_h": 1}

>  <role_mapidx>  (2) 
{"r2h_a": 1, "r2h_h": 0}

>  <ordered_mapped_smiles>  (2) 
[H:1][C:2]([O:3][C:4]([C:5]([C:6]([H:13])([H:14])[H:15])([H:11])[H:12])([H:9])[H:10])([H:7])[H:8]

>  <mol_properties>  (2) 
{"0": {"label": "a_hydrogen", "atom_type": "H0"}, "1": {"label": "acceptor", "atom_type": "Cs"}}

>  <level_of_theory>  (2) 
wb97xd/def2tzvp

>  <lot_method>  (2) 
wb97xd

>  <lot_basis>  (2) 
def2tzvp

>  <spin_multiplicity>  (2) 
1.0

>  <optical_isomers>  (2) 
2.0

>  <modes>  (2) 
IdealGasTranslation(mass=(74.0732, 'amu')),         NonlinearRotor(             inertia = ([40.784, 192.218, 211.735

>  <frequency_value>  (2) 
unknown

>  <frequency_units>  (2) 
unknown

>  <frequency_list>  (2) 
unknown

>  <arkane_path>  (2) 
/home/calvin/Dropbox/PersonalFolders/Calvin/ATLAS_Converged/rmg_rxn_681/output/Species/rmg_rxn_681_p2_CCCOC/arkane/output.py

>  <path_exists>  (2) 
True

>  <E0_value>  (2) 
-613163.1274347997

>  <E0_units>  (2) 
kJ/mol

>  <thermo_class>  (2) 
NASA

>  <Cp0_value>  (2) 
33.257888

>  <Cp0_units>  (2) 
J/(mol*K)

>  <CpInf_value>  (2) 
357.522296

>  <CpInf_units>  (2) 
J/(mol*K)

>  <Tmin_value>  (2) 
10.0

>  <Tmin_units>  (2) 
K

>  <Tmax_value>  (2) 
3000.0

>  <Tmax_units>  (2) 
K

>  <polynomials>  (2) 
[{"name": "polynomial1", "class": "NASAPolynomial", "Tmin_value": 10.0, "Tmin_units": "K", "Tmax_value": 456.12277018744567, "Tmax_units": "K", "coeffs": [3.622226901022252, 0.03879872355210146, -8.360315445704422e-05, 2.4524502933094215e-07, -2.1872936534136321e-10, -73746489.62868527, 10.515620099564817]}, {"name": "polynomial2", "class": "NASAPolynomial", "Tmin_value": 456.12277018744567, "Tmin_units": "K", "Tmax_value": 3000.0, "Tmax_units": "K", "coeffs": [-2.209364299375013, 0.05648500157757207, -3.174874691312015e-05, 8.654192472156478e-09, -9.19837106274248e-13, -73745609.63979425, 37.886729471141834]}]

>  <H298_value>  (2) 
-146544.64412103067

>  <H298_units>  (2) 
kcal/mol

>  <S298_value>  (2) 
80.94643116904645

>  <S298_units>  (2) 
cal/(mol*K)

>  <Cp_T_value_list>  (2) 
[25.013898236577287, 31.519920382574806, 37.99585330660428, 43.722879986859475, 53.0854797360422, 60.13534424358971, 70.81347124398386, 76.07383642339944, 78.69223762627242]

>  <Cp_T_units>  (2) 
cal/(mol*K)

>  <T_list>  (2) 
[300.0, 400.0, 500.0, 600.0, 800.0, 1000.0, 1500.0, 2000.0, 2400.0]

>  <T_units>  (2) 
K

>  <yaml_path>  (2) 
/home/calvin/Dropbox/PersonalFolders/Calvin/ATLAS_Converged/rmg_rxn_681/output/Species/rmg_rxn_681_p2_CCCOC/rmg_rxn_681_p2_CCCOC.yml

>  <frequencies_cm1>  (2) 
[91.63991909539999, 126.95682459615999, 202.90568223536002, 229.57705321824, 300.01172164547995, 354.24717170284, 509.2281633899199, 764.38473692516, 888.9449836446399, 924.72884414716, 957.6835066978399, 1072.9458552940398, 1116.4482072962398, 1154.8758571469598, 1177.0081508333199, 1188.20133690492, 1229.14230338276, 1271.07211574668, 1307.65941353164, 1369.5858871474, 1403.3027850685999, 1415.972372984, 1467.6807724436, 1468.9442977424796, 1475.31686011944, 1481.9915698504797, 1490.39675988216, 1494.07059702836, 1510.75737135596, 2928.3984217727198, 2950.9908034755194, 2962.18398954712, 2998.10518975604, 3014.75762915704, 3020.7181724148, 3057.78615917216, 3085.0274899366, 3099.33828734348, 3104.91427942332]

>  <ZPE_kJmol>  (2) 
356.8934095365274

>  <E_elec_kJmol>  (2) 
-613520.0208443362

>  <E0_minus_Eelec_plus_ZPE_kJmol>  (2) 
0.0

>  <rxn>  (2) 
rmg_rxn_681

>  <species_type>  (2) 
p1

>  <species_folder>  (2) 
rmg_rxn_681_p2_CCCOC

>  <frequencies_cm1_list>  (2) 
[91.63991909539999, 126.95682459615999, 202.90568223536002, 229.57705321824, 300.01172164547995, 354.24717170284, 509.2281633899199, 764.38473692516, 888.9449836446399, 924.72884414716, 957.6835066978399, 1072.9458552940398, 1116.4482072962398, 1154.8758571469598, 1177.0081508333199, 1188.20133690492, 1229.14230338276, 1271.07211574668, 1307.65941353164, 1369.5858871474, 1403.3027850685999, 1415.972372984, 1467.6807724436, 1468.9442977424796, 1475.31686011944, 1481.9915698504797, 1490.39675988216, 1494.07059702836, 1510.75737135596, 2928.3984217727198, 2950.9908034755194, 2962.18398954712, 2998.10518975604, 3014.75762915704, 3020.7181724148, 3057.78615917216, 3085.0274899366, 3099.33828734348, 3104.91427942332]

>  <E0_kJmol>  (2) 
-613163

>  <H298_kJmol>  (2) 
-613143

$$$$

     RDKit          3D

 23 21  0  0  0  0  0  0  0  0999 V2000
   -0.3302   -1.9437   -2.3284 C   0  0  0  0  0  0  0  0  0  1  0  0
    0.0501   -2.2138   -0.9128 C   0  0  0  0  0  0  0  0  0  2  0  0
    0.4438   -1.2669   -0.1652 N   0  0  0  0  0  0  0  0  0  3  0  0
    0.7626   -1.5912    1.0819 O   0  0  0  0  0  0  0  0  0  4  0  0
    0.2871   -2.5303   -3.0133 H   0  0  0  0  0  0  0  0  0  5  0  0
   -1.3704   -2.2252   -2.5117 H   0  0  0  0  0  0  0  0  0  6  0  0
   -0.2046   -0.8867   -2.5584 H   0  0  0  0  0  0  0  0  0  7  0  0
   -0.0099   -3.2313   -0.5249 H   0  0  0  0  0  0  0  0  0  8  0  0
    1.1289   -0.5037    1.5853 H   0  0  0  0  0  0  0  0  0  9  0  0
    1.3900    0.7068    1.9459 C   0  0  0  0  0  3  0  0  0 10  0  0
    0.7603    1.5478    1.0884 O   0  0  0  0  0  0  0  0  0 11  0  0
   -0.6472    1.6380    1.2723 C   0  0  0  0  0  0  0  0  0 12  0  0
   -1.2398    2.4627    0.1516 C   0  0  0  0  0  0  0  0  0 13  0  0
   -1.1146    1.7976   -1.2124 C   0  0  0  0  0  0  0  0  0 14  0  0
    2.4692    0.8068    1.8534 H   0  0  0  0  0  0  0  0  0 15  0  0
    1.0221    0.7442    2.9776 H   0  0  0  0  0  0  0  0  0 16  0  0
   -0.8447    2.1001    2.2473 H   0  0  0  0  0  0  0  0  0 17  0  0
   -1.0698    0.6275    1.2759 H   0  0  0  0  0  0  0  0  0 18  0  0
   -0.7537    3.4418    0.1439 H   0  0  0  0  0  0  0  0  0 19  0  0
   -2.2926    2.6360    0.3910 H   0  0  0  0  0  0  0  0  0 20  0  0
   -1.5440    2.4267   -1.9935 H   0  0  0  0  0  0  0  0  0 21  0  0
   -0.0695    1.6064   -1.4549 H   0  0  0  0  0  0  0  0  0 22  0  0
   -1.6332    0.8366   -1.2225 H   0  0  0  0  0  0  0  0  0 23  0  0
  1  7  1  0
  1  5  1  0
  1  6  1  0
  1  2  1  0
  2  8  1  0
  2  3  1  0
  3  4  1  0
  4  9  1  0
 10 16  1  0
 10 15  1  0
 10 11  1  0
 11 12  1  0
 12 17  1  0
 12 18  1  0
 12 13  1  0
 13 19  1  0
 13 20  1  0
 13 14  1  0
 14 23  1  0
 14 22  1  0
 14 21  1  0
M  RAD  1  10   2
M  END
>  <rmg_smiles>  (3) 
CCCO[CH2].C[CH][N]O

>  <rmg_adjacency_list>  (3) 
multiplicity 2
1  O u0 p2 c0 {5,S} {9,S}
2  O u0 p2 c0 {3,S} {23,S}
3  N u0 p1 c0 {2,S} {8,S}
4  C u0 p0 c0 {5,S} {6,S} {10,S} {11,S}
5  C u0 p0 c0 {1,S} {4,S} {12,S} {13,S}
6  C u0 p0 c0 {4,S} {14,S} {15,S} {16,S}
7  C u0 p0 c0 {8,S} {17,S} {18,S} {19,S}
8  C u0 p0 c0 {3,S} {7,S} {20,S}
9  C u1 p0 c0 {1,S} {21,S} {22,S}
10 H u0 p0 c0 {4,S}
11 H u0 p0 c0 {4,S}
12 H u0 p0 c0 {5,S}
13 H u0 p0 c0 {5,S}
14 H u0 p0 c0 {6,S}
15 H u0 p0 c0 {6,S}
16 H u0 p0 c0 {6,S}
17 H u0 p0 c0 {7,S}
18 H u0 p0 c0 {7,S}
19 H u0 p0 c0 {7,S}
20 H u0 p0 c0 {8,S}
21 H u0 p0 c0 {9,S}
22 H u0 p0 c0 {9,S}
23 H u0 p0 c0 {2,S}


>  <multiplicity>  (3) 
2

>  <reaction>  (3) 
rmg_rxn_681

>  <type>  (3) 
ts

>  <role_mapnums>  (3) 
{"*2": 9, "*1": 4, "*3": 10, "*0": 3, "*4": 11}

>  <role_mapidx>  (3) 
{"*2": 8, "*1": 3, "*3": 9, "*0": 2, "*4": 10}

>  <ordered_mapped_smiles>  (3) 
[C:1]([CH:2]([NH:3][O:4][H:9])[H:8])([H:5])([H:6])[H:7].[C:10]([O:11][C:12]([C:13]([C:14]([H:21])([H:22])[H:23])([H:19])[H:20])([H:17])[H:18])([H:15])[H:16]

>  <mol_properties>  (3) 
{"2": {"label": "*0", "atom_type": "N3s"}, "3": {"label": "*1", "atom_type": "O2s"}, "8": {"label": "*2", "atom_type": "H0"}, "9": {"label": "*3", "atom_type": "Cs"}, "10": {"label": "*4", "atom_type": "O2s"}}

>  <level_of_theory>  (3) 
wb97xd/def2tzvp

>  <lot_method>  (3) 
wb97xd

>  <lot_basis>  (3) 
def2tzvp

>  <spin_multiplicity>  (3) 
2.0

>  <optical_isomers>  (3) 
2.0

>  <modes>  (3) 
IdealGasTranslation(mass=(132.102, 'amu')),         NonlinearRotor(             inertia = ([289.334, 502.94, 734.616

>  <frequency_value>  (3) 
-1806.88

>  <frequency_units>  (3) 
cm^-1

>  <frequency_list>  (3) 
unknown

>  <arkane_path>  (3) 
/home/calvin/Dropbox/PersonalFolders/Calvin/ATLAS_Converged/rmg_rxn_681/output/rxns/TS0/arkane/output.py

>  <path_exists>  (3) 
True

>  <E0_value>  (3) 
-1160370.0

>  <E0_units>  (3) 
kJ/mol

>  <thermo_class>  (3) 
unknown

>  <Cp0_value>  (3) 
unknown

>  <Cp0_units>  (3) 
unknown

>  <CpInf_value>  (3) 
unknown

>  <CpInf_units>  (3) 
unknown

>  <Tmin_value>  (3) 
unknown

>  <Tmin_units>  (3) 
unknown

>  <Tmax_value>  (3) 
unknown

>  <Tmax_units>  (3) 
unknown

>  <polynomials>  (3) 
unknown

>  <H298_value>  (3) 
unknown

>  <H298_units>  (3) 
unknown

>  <S298_value>  (3) 
unknown

>  <S298_units>  (3) 
unknown

>  <Cp_T_value_list>  (3) 
unknown

>  <Cp_T_units>  (3) 
unknown

>  <T_list>  (3) 
unknown

>  <T_units>  (3) 
unknown

>  <yaml_path>  (3) 
unknown

>  <frequencies_cm1>  (3) 
unknown

>  <ZPE_kJmol>  (3) 
unknown

>  <E_elec_kJmol>  (3) 
unknown

>  <E0_minus_Eelec_plus_ZPE_kJmol>  (3) 
unknown

>  <rxn>  (3) 
unknown

>  <species_type>  (3) 
unknown

>  <species_folder>  (3) 
unknown

>  <frequencies_cm1_list>  (3) 
[]

>  <ts_imag_freq_cm1>  (3) 
-1828.8224

>  <ts_freq_out_path>  (3) 
/home/calvin/Dropbox/PersonalFolders/Calvin/ATLAS_Converged/rmg_rxn_681/output/rxns/TS0/geometry/freq.out

>  <E0_kJmol>  (3) 
-1.16037e+06

>  <H298_kJmol>  (3) 
unknown

$$$$

     RDKit          3D

  8  7  0  0  0  0  0  0  0  0999 V2000
   -0.9728    0.1768    0.1542 C   0  0  0  0  0  0  0  0  0  1  0  0
    0.4518   -0.2348    0.0047 C   0  0  0  0  0  0  0  0  0  2  0  0
    1.3116    0.0208    0.9062 N   0  0  0  0  0  0  0  0  0  3  0  0
    2.5018   -0.1901    1.0428 O   0  0  0  0  0  1  0  0  0  4  0  0
   -1.2701    0.8423   -0.6593 H   0  0  0  0  0  0  0  0  0  5  0  0
   -1.6318   -0.6936    0.1212 H   0  0  0  0  0  0  0  0  0  6  0  0
   -1.1258    0.6936    1.1003 H   0  0  0  0  0  0  0  0  0  7  0  0
    0.7882   -0.7655   -0.8838 H   0  0  0  0  0  0  0  0  0  8  0  0
  1  5  1  0
  1  7  1  0
  1  6  1  0
  1  2  1  0
  2  3  1  0
  2  8  1  0
  3  4  1  0
M  RAD  1   4   2
M  END
>  <rmg_smiles>  (4) 
C[CH][N][O]

>  <rmg_adjacency_list>  (4) 
multiplicity 2
1 O u1 p2 c0 {2,S}
2 N u0 p1 c0 {1,S} {4,S}
3 C u0 p0 c0 {4,S} {5,S} {6,S} {7,S}
4 C u0 p0 c0 {2,S} {3,S} {8,S}
5 H u0 p0 c0 {3,S}
6 H u0 p0 c0 {3,S}
7 H u0 p0 c0 {3,S}
8 H u0 p0 c0 {4,S}


>  <multiplicity>  (4) 
2

>  <reaction>  (4) 
rmg_rxn_681

>  <type>  (4) 
r1

>  <role_mapnums>  (4) 
{}

>  <role_mapidx>  (4) 
{}

>  <ordered_mapped_smiles>  (4) 
[C:1]([CH:2]([NH:3][O:4])[H:8])([H:5])([H:6])[H:7]

>  <level_of_theory>  (4) 
wb97xd/def2tzvp

>  <lot_method>  (4) 
wb97xd

>  <lot_basis>  (4) 
def2tzvp

>  <spin_multiplicity>  (4) 
2.0

>  <optical_isomers>  (4) 
1.0

>  <modes>  (4) 
IdealGasTranslation(mass=(58.0293, 'amu')),         NonlinearRotor(             inertia = ([9.31113, 114.15, 120.338

>  <frequency_value>  (4) 
unknown

>  <frequency_units>  (4) 
unknown

>  <frequency_list>  (4) 
unknown

>  <arkane_path>  (4) 
/home/calvin/Dropbox/PersonalFolders/Calvin/ATLAS_Converged/rmg_rxn_681/output/Species/rmg_rxn_681_p1_CC=Nsbr-O-sbr/arkane/output.py

>  <path_exists>  (4) 
True

>  <E0_value>  (4) 
-547291.9822369756

>  <E0_units>  (4) 
kJ/mol

>  <thermo_class>  (4) 
NASA

>  <Cp0_value>  (4) 
33.257888

>  <Cp0_units>  (4) 
J/(mol*K)

>  <CpInf_value>  (4) 
182.918384

>  <CpInf_units>  (4) 
J/(mol*K)

>  <Tmin_value>  (4) 
10.0

>  <Tmin_units>  (4) 
K

>  <Tmax_value>  (4) 
3000.0

>  <Tmax_units>  (4) 
K

>  <polynomials>  (4) 
[{"name": "polynomial1", "class": "NASAPolynomial", "Tmin_value": 10.0, "Tmin_units": "K", "Tmax_value": 448.469821583942, "Tmax_units": "K", "coeffs": [3.8887722230996813, 0.008399169692485739, 4.23423230637367e-05, -8.042531461118158e-08, 4.6620175661053446e-11, -65824018.56271867, 8.787674089328345]}, {"name": "polynomial2", "class": "NASAPolynomial", "Tmin_value": 448.469821583942, "Tmin_units": "K", "Tmax_value": 3000.0, "Tmax_units": "K", "coeffs": [1.9857514593635577, 0.025372613622198854, -1.4428825534244759e-05, 3.966995228918133e-09, -4.24376034853994e-13, -65823847.87311471, 16.442591867910245]}]

>  <H298_value>  (4) 
-130802.40292482237

>  <H298_units>  (4) 
kcal/mol

>  <S298_value>  (4) 
68.97171532665904

>  <S298_units>  (4) 
cal/(mol*K)

>  <Cp_T_value_list>  (4) 
[16.743153000165332, 20.010112573021154, 22.92084276433073, 25.469656650185197, 29.622633813984088, 32.733580935653485, 37.39926541997259, 39.66786469099458, 40.797255640626396]

>  <Cp_T_units>  (4) 
cal/(mol*K)

>  <T_list>  (4) 
[300.0, 400.0, 500.0, 600.0, 800.0, 1000.0, 1500.0, 2000.0, 2400.0]

>  <T_units>  (4) 
K

>  <yaml_path>  (4) 
/home/calvin/Dropbox/PersonalFolders/Calvin/ATLAS_Converged/rmg_rxn_681/output/Species/rmg_rxn_681_p1_CC=Nsbr-O-sbr/rmg_rxn_681_p1_CC=Nsbr-O-sbr.yml

>  <frequencies_cm1>  (4) 
[167.29349636583999, 305.41603909232, 336.48228068, 536.4488931984, 789.99859216876, 920.0661611148798, 1055.0848264767199, 1131.0542850718798, 1256.94672694344, 1389.69928714968, 1433.0368315041999, 1463.78719176716, 1488.27486141828, 1754.1988679352798, 3017.2297438722394, 3076.07294107932, 3099.7159715360795, 3119.71263278792]

>  <ZPE_kJmol>  (4) 
157.55134027947926

>  <E_elec_kJmol>  (4) 
-547449.5335772551

>  <E0_minus_Eelec_plus_ZPE_kJmol>  (4) 
0.0

>  <rxn>  (4) 
rmg_rxn_681

>  <species_type>  (4) 
p0

>  <species_folder>  (4) 
rmg_rxn_681_p1_CC=Nsbr-O-sbr

>  <frequencies_cm1_list>  (4) 
[167.29349636583999, 305.41603909232, 336.48228068, 536.4488931984, 789.99859216876, 920.0661611148798, 1055.0848264767199, 1131.0542850718798, 1256.94672694344, 1389.69928714968, 1433.0368315041999, 1463.78719176716, 1488.27486141828, 1754.1988679352798, 3017.2297438722394, 3076.07294107932, 3099.7159715360795, 3119.71263278792]

>  <E0_kJmol>  (4) 
-547292

>  <H298_kJmol>  (4) 
-547277

$$$$

     RDKit          3D

 14 13  0  0  0  0  0  0  0  0999 V2000
    2.7687   -0.0362   -0.0732 C   0  0  0  0  0  3  0  0  0  1  0  0
    1.6543    0.2105    0.6386 O   0  0  0  0  0  0  0  0  0  2  0  0
    1.8652    0.6968    1.9544 C   0  0  0  0  0  0  0  0  0  3  0  0
    0.5252    0.9355    2.6156 C   0  0  0  0  0  0  0  0  0  4  0  0
   -0.2992    2.0181    1.9317 C   0  0  0  0  0  0  0  0  0  5  0  0
    2.5851   -0.4757   -1.0422 H   0  0  0  0  0  0  0  0  0  6  0  0
    3.6974   -0.2083    0.4611 H   0  0  0  0  0  0  0  0  0  7  0  0
    2.4441    1.6271    1.9039 H   0  0  0  0  0  0  0  0  0  8  0  0
    2.4506   -0.0397    2.5179 H   0  0  0  0  0  0  0  0  0  9  0  0
    0.7150    1.2089    3.6572 H   0  0  0  0  0  0  0  0  0 10  0  0
   -0.0287   -0.0066    2.6327 H   0  0  0  0  0  0  0  0  0 11  0  0
   -0.5056    1.7522    0.8949 H   0  0  0  0  0  0  0  0  0 12  0  0
   -1.2524    2.1635    2.4416 H   0  0  0  0  0  0  0  0  0 13  0  0
    0.2319    2.9729    1.9340 H   0  0  0  0  0  0  0  0  0 14  0  0
  1  6  1  0
  1  7  1  0
  1  2  1  0
  2  3  1  0
  3  4  1  0
  3  9  1  0
  3  8  1  0
  4  5  1  0
  4 10  1  0
  4 11  1  0
  5 12  1  0
  5 14  1  0
  5 13  1  0
M  RAD  1   1   2
M  END
>  <rmg_smiles>  (5) 
[CH2]OCCC

>  <rmg_adjacency_list>  (5) 
multiplicity 2
1  O u0 p2 c0 {3,S} {5,S}
2  C u0 p0 c0 {3,S} {4,S} {6,S} {7,S}
3  C u0 p0 c0 {1,S} {2,S} {8,S} {9,S}
4  C u0 p0 c0 {2,S} {10,S} {11,S} {12,S}
5  C u1 p0 c0 {1,S} {13,S} {14,S}
6  H u0 p0 c0 {2,S}
7  H u0 p0 c0 {2,S}
8  H u0 p0 c0 {3,S}
9  H u0 p0 c0 {3,S}
10 H u0 p0 c0 {4,S}
11 H u0 p0 c0 {4,S}
12 H u0 p0 c0 {4,S}
13 H u0 p0 c0 {5,S}
14 H u0 p0 c0 {5,S}


>  <multiplicity>  (5) 
2

>  <reaction>  (5) 
rmg_rxn_681

>  <type>  (5) 
r2

>  <role_mapnums>  (5) 
{}

>  <role_mapidx>  (5) 
{}

>  <ordered_mapped_smiles>  (5) 
[C:1]([O:2][C:3]([C:4]([C:5]([H:12])([H:13])[H:14])([H:10])[H:11])([H:8])[H:9])([H:6])[H:7]

>  <level_of_theory>  (5) 
wb97xd/def2tzvp

>  <lot_method>  (5) 
wb97xd

>  <lot_basis>  (5) 
def2tzvp

>  <spin_multiplicity>  (5) 
2.0

>  <optical_isomers>  (5) 
2.0

>  <modes>  (5) 
IdealGasTranslation(mass=(73.0653, 'amu')),         NonlinearRotor(             inertia = ([39.3229, 184.047, 204.898

>  <frequency_value>  (5) 
unknown

>  <frequency_units>  (5) 
unknown

>  <frequency_list>  (5) 
unknown

>  <arkane_path>  (5) 
/home/calvin/Dropbox/PersonalFolders/Calvin/ATLAS_Converged/rmg_rxn_681/output/Species/rmg_rxn_681_r2_sbr-CH2-sbrOCCC/arkane/output.py

>  <path_exists>  (5) 
True

>  <E0_value>  (5) 
-611455.1532625884

>  <E0_units>  (5) 
kJ/mol

>  <thermo_class>  (5) 
NASA

>  <Cp0_value>  (5) 
33.257888

>  <Cp0_units>  (5) 
J/(mol*K)

>  <CpInf_value>  (5) 
332.57888

>  <CpInf_units>  (5) 
J/(mol*K)

>  <Tmin_value>  (5) 
10.0

>  <Tmin_units>  (5) 
K

>  <Tmax_value>  (5) 
3000.0

>  <Tmax_units>  (5) 
K

>  <polynomials>  (5) 
[{"name": "polynomial1", "class": "NASAPolynomial", "Tmin_value": 10.0, "Tmin_units": "K", "Tmax_value": 1109.298984534896, "Tmax_units": "K", "coeffs": [3.7660782116715157, 0.02887151882695906, 1.3341966962128686e-05, -2.64048981591556e-08, 9.144101048042085e-12, -73541070.106956, 11.04728409303558]}, {"name": "polynomial2", "class": "NASAPolynomial", "Tmin_value": 1109.298984534896, "Tmin_units": "K", "Tmax_value": 3000.0, "Tmax_units": "K", "coeffs": [4.9904740751447365, 0.038631152761954474, -1.9022112297290602e-05, 4.564287609921524e-09, -4.313612536747796e-13, -73542213.87845594, 1.0822934871364134]}]

>  <H298_value>  (5) 
-146136.37590473585

>  <H298_units>  (5) 
kcal/mol

>  <S298_value>  (5) 
82.43769476343626

>  <S298_units>  (5) 
cal/(mol*K)

>  <Cp_T_value_list>  (5) 
[25.812711245963627, 31.782538123311966, 37.37582383435153, 42.47398561152773, 50.92866089864846, 57.07012026254461, 66.28954224921635, 71.09599134892048, 73.37373425764557]

>  <Cp_T_units>  (5) 
cal/(mol*K)

>  <T_list>  (5) 
[300.0, 400.0, 500.0, 600.0, 800.0, 1000.0, 1500.0, 2000.0, 2400.0]

>  <T_units>  (5) 
K

>  <yaml_path>  (5) 
/home/calvin/Dropbox/PersonalFolders/Calvin/ATLAS_Converged/rmg_rxn_681/output/Species/rmg_rxn_681_r2_sbr-CH2-sbrOCCC/rmg_rxn_681_r2_sbr-CH2-sbrOCCC.yml

>  <frequencies_cm1>  (5) 
[79.56089191752, 133.9748835932, 204.21040944615999, 276.052809864, 302.19542297723996, 360.72273885959993, 511.54233744275996, 544.8334822741199, 763.2310833913999, 886.9054890046, 919.7640137608, 955.60281014588, 1080.2385937038798, 1111.8129922052399, 1161.9831869531602, 1207.84091492012, 1267.4394805124, 1296.41129157748, 1308.06456566552, 1371.5429779635997, 1405.5826241948398, 1414.2350256980396, 1468.23699825452, 1474.5271568076398, 1482.83620904484, 1494.26973960264, 1500.99938521624, 2973.8097956938796, 3010.5481671558796, 3017.55249218228, 3026.25982956804, 3060.5123523442, 3088.9622725249596, 3092.3682972436795, 3104.9898162618397, 3239.2187783118798]

>  <ZPE_kJmol>  (5) 
320.59234556766944

>  <E_elec_kJmol>  (5) 
-611775.7456081561

>  <E0_minus_Eelec_plus_ZPE_kJmol>  (5) 
0.0

>  <rxn>  (5) 
rmg_rxn_681

>  <species_type>  (5) 
r1

>  <species_folder>  (5) 
rmg_rxn_681_r2_sbr-CH2-sbrOCCC

>  <frequencies_cm1_list>  (5) 
[79.56089191752, 133.9748835932, 204.21040944615999, 276.052809864, 302.19542297723996, 360.72273885959993, 511.54233744275996, 544.8334822741199, 763.2310833913999, 886.9054890046, 919.7640137608, 955.60281014588, 1080.2385937038798, 1111.8129922052399, 1161.9831869531602, 1207.84091492012, 1267.4394805124, 1296.41129157748, 1308.06456566552, 1371.5429779635997, 1405.5826241948398, 1414.2350256980396, 1468.23699825452, 1474.5271568076398, 1482.83620904484, 1494.26973960264, 1500.99938521624, 2973.8097956938796, 3010.5481671558796, 3017.55249218228, 3026.25982956804, 3060.5123523442, 3088.9622725249596, 3092.3682972436795, 3104.9898162618397, 3239.2187783118798]

>  <E0_kJmol>  (5) 
-611455

>  <H298_kJmol>  (5) 
-611435

$$$$
