
     RDKit          3D

 10  9  0  0  0  0  0  0  0  0999 V2000
    0.8132   -0.3508   -1.8509 C   0  0  0  0  0  0  0  0  0  1  0  0
    0.2350   -0.0904   -0.5401 C   0  0  0  0  0  2  0  0  0  2  0  0
   -0.2484    0.1395    0.5378 C   0  0  0  0  0  2  0  0  0  3  0  0
   -0.8061    0.3391    1.8378 C   0  0  0  0  0  0  0  0  0  4  0  0
    0.1608    0.0169   -2.6451 H   0  0  0  0  0  0  0  0  0  5  0  0
    0.9617   -1.4212   -2.0079 H   0  0  0  0  0  0  0  0  0  6  0  0
    1.7817    0.1416   -1.9546 H   0  0  0  0  0  0  0  0  0  7  0  0
   -1.8804    0.5149    1.8416 H   0  0  0  0  0  0  0  0  0  8  0  0
   -0.2768    1.0708    2.4454 H   0  0  0  0  0  0  0  0  0  9  0  0
   -0.6939   -0.5883    2.3964 H   0  0  0  0  0  0  0  0  0 10  0  0
  1  5  1  0
  1  7  1  0
  1  6  1  0
  1  2  1  0
  2  3  1  0
  3  4  1  0
  4  8  1  0
  4  9  1  0
  4 10  1  0
M  RAD  2   2   3   3   3
M  END
>  <rmg_smiles>  (1) 
C[C][C]C

>  <rmg_adjacency_list>  (1) 
1  C u0 p0 c0 {3,S} {5,S} {6,S} {7,S}
2  C u0 p0 c0 {4,S} {8,S} {9,S} {10,S}
3  C u0 p1 c0 {1,S} {4,S}
4  C u0 p1 c0 {2,S} {3,S}
5  H u0 p0 c0 {1,S}
6  H u0 p0 c0 {1,S}
7  H u0 p0 c0 {1,S}
8  H u0 p0 c0 {2,S}
9  H u0 p0 c0 {2,S}
10 H u0 p0 c0 {2,S}


>  <multiplicity>  (1) 
1

>  <reaction>  (1) 
rmg_rxn_230

>  <type>  (1) 
r1h

>  <role_mapnums>  (1) 
{"r1h_a": 4, "r1h_h": 10}

>  <role_mapidx>  (1) 
{"r1h_a": 3, "r1h_h": 9}

>  <ordered_mapped_smiles>  (1) 
[C:1]([C:2][C:3][C:4]([H:8])([H:9])[H:10])([H:5])([H:6])[H:7]

>  <mol_properties>  (1) 
{"3": {"label": "donator", "atom_type": "Cs"}, "9": {"label": "d_hydrogen", "atom_type": "H0"}}

>  <level_of_theory>  (1) 
wb97xd/def2tzvp

>  <lot_method>  (1) 
wb97xd

>  <lot_basis>  (1) 
def2tzvp

>  <spin_multiplicity>  (1) 
1.0

>  <optical_isomers>  (1) 
2.0

>  <modes>  (1) 
IdealGasTranslation(mass=(54.047, 'amu')),         NonlinearRotor(             inertia = ([6.28532, 149.436, 149.436

>  <frequency_value>  (1) 
unknown

>  <frequency_units>  (1) 
unknown

>  <frequency_list>  (1) 
unknown

>  <arkane_path>  (1) 
/home/calvin/Dropbox/PersonalFolders/Calvin/ATLAS_Converged/rmg_rxn_230/output/Species/rmg_rxn_230_r1_CCtCC/arkane/output.py

>  <path_exists>  (1) 
True

>  <E0_value>  (1) 
-409307.6935311061

>  <E0_units>  (1) 
kJ/mol

>  <thermo_class>  (1) 
NASA

>  <Cp0_value>  (1) 
33.257888

>  <Cp0_units>  (1) 
J/(mol*K)

>  <CpInf_value>  (1) 
232.805216

>  <CpInf_units>  (1) 
J/(mol*K)

>  <Tmin_value>  (1) 
10.0

>  <Tmin_units>  (1) 
K

>  <Tmax_value>  (1) 
3000.0

>  <Tmax_units>  (1) 
K

>  <polynomials>  (1) 
[{"name": "polynomial1", "class": "NASAPolynomial", "Tmin_value": 10.0, "Tmin_units": "K", "Tmax_value": 465.3973141787347, "Tmax_units": "K", "coeffs": [3.6944134976370644, 0.030729930166799462, -7.343282955215745e-05, 1.709922791435589e-07, -1.3613465350776476e-10, -49228344.11554973, 7.780980200181497]}, {"name": "polynomial2", "class": "NASAPolynomial", "Tmin_value": 465.3973141787347, "Tmin_units": "K", "Tmax_value": 3000.0, "Tmax_units": "K", "coeffs": [1.3690985920550376, 0.03204576754598486, -1.750011226133912e-05, 4.673531607378866e-09, -4.894365577683165e-13, -49227925.48759255, 19.392949378407696]}]

>  <H298_value>  (1) 
-97822.7306609376

>  <H298_units>  (1) 
kcal/mol

>  <S298_value>  (1) 
71.47050979228106

>  <S298_units>  (1) 
cal/(mol*K)

>  <Cp_T_value_list>  (1) 
[19.51146399701785, 23.24155560321384, 26.967497036774677, 30.290135297920365, 35.7657739037064, 39.94056324809884, 46.41695865485292, 49.714844391231665, 51.36305751843927]

>  <Cp_T_units>  (1) 
cal/(mol*K)

>  <T_list>  (1) 
[300.0, 400.0, 500.0, 600.0, 800.0, 1000.0, 1500.0, 2000.0, 2400.0]

>  <T_units>  (1) 
K

>  <yaml_path>  (1) 
/home/calvin/Dropbox/PersonalFolders/Calvin/ATLAS_Converged/rmg_rxn_230/output/Species/rmg_rxn_230_r1_CCtCC/rmg_rxn_230_r1_CCtCC.yml

>  <frequencies_cm1>  (1) 
[33.56582424416, 201.56662009795997, 202.55546598404, 410.41911162044, 412.13585795043997, 721.9673686035198, 1040.6435563487598, 1041.21351613032, 1054.9749547115998, 1055.4625106693197, 1163.2604462226798, 1404.0306855125198, 1405.23240794352, 1467.7631762674398, 1468.0035207536398, 1468.0996585481198, 1468.3674709756, 2366.95370200952, 3016.4537745310795, 3017.05806923924, 3085.59744971816, 3085.96826692544, 3086.4420889125195, 3087.00518170876]

>  <ZPE_kJmol>  (1) 
219.9020464051721

>  <E_elec_kJmol>  (1) 
-409527.5955775113

>  <E0_minus_Eelec_plus_ZPE_kJmol>  (1) 
0.0

>  <rxn>  (1) 
rmg_rxn_230

>  <species_type>  (1) 
r0

>  <species_folder>  (1) 
rmg_rxn_230_r1_CCtCC

>  <frequencies_cm1_list>  (1) 
[33.56582424416, 201.56662009795997, 202.55546598404, 410.41911162044, 412.13585795043997, 721.9673686035198, 1040.6435563487598, 1041.21351613032, 1054.9749547115998, 1055.4625106693197, 1163.2604462226798, 1404.0306855125198, 1405.23240794352, 1467.7631762674398, 1468.0035207536398, 1468.0996585481198, 1468.3674709756, 2366.95370200952, 3016.4537745310795, 3017.05806923924, 3085.59744971816, 3085.96826692544, 3086.4420889125195, 3087.00518170876]

>  <E0_kJmol>  (1) 
-409308

>  <H298_kJmol>  (1) 
-409290

$$$$

     RDKit          3D

 18 17  0  0  0  0  0  0  0  0999 V2000
    0.4723    3.4231   -0.6608 H   0  0  0  0  0  0  0  0  0  1  0  0
    0.5954    2.4520   -0.1863 C   0  0  0  0  0  0  0  0  0  2  0  0
    0.3956    1.4646   -1.3007 C   0  0  0  0  0  0  0  0  0  3  0  0
    0.6388    0.0243   -0.8803 C   0  0  0  0  0  0  0  0  0  4  0  0
   -0.2945   -0.3346    0.1061 O   0  0  0  0  0  0  0  0  0  5  0  0
   -0.1314   -1.6500    0.5724 C   0  0  0  0  0  0  0  0  0  6  0  0
   -1.1789   -1.9307    1.6248 C   0  0  0  0  0  0  0  0  0  7  0  0
   -0.1597    2.4412    0.5950 H   0  0  0  0  0  0  0  0  0  8  0  0
    1.6091    2.5105    0.2076 H   0  0  0  0  0  0  0  0  0  9  0  0
    1.0744    1.6966   -2.1265 H   0  0  0  0  0  0  0  0  0 10  0  0
   -0.6209    1.5437   -1.6946 H   0  0  0  0  0  0  0  0  0 11  0  0
    1.6622   -0.0881   -0.4907 H   0  0  0  0  0  0  0  0  0 12  0  0
    0.5428   -0.6418   -1.7507 H   0  0  0  0  0  0  0  0  0 13  0  0
   -0.2264   -2.3589   -0.2635 H   0  0  0  0  0  0  0  0  0 14  0  0
    0.8779   -1.7766    0.9911 H   0  0  0  0  0  0  0  0  0 15  0  0
   -2.1800   -1.8191    1.2068 H   0  0  0  0  0  0  0  0  0 16  0  0
   -1.0720   -2.9487    2.0025 H   0  0  0  0  0  0  0  0  0 17  0  0
   -1.0757   -1.2378    2.4606 H   0  0  0  0  0  0  0  0  0 18  0  0
  1  2  1  0
  2  9  1  0
  2  8  1  0
  2  3  1  0
  3 11  1  0
  3  4  1  0
  3 10  1  0
  4 13  1  0
  4 12  1  0
  4  5  1  0
  5  6  1  0
  6 15  1  0
  6 14  1  0
  6  7  1  0
  7 17  1  0
  7 18  1  0
  7 16  1  0
M  END
>  <rmg_smiles>  (2) 
CCCOCC

>  <rmg_adjacency_list>  (2) 
1  O u0 p2 c0 {3,S} {4,S}
2  C u0 p0 c0 {3,S} {5,S} {7,S} {8,S}
3  C u0 p0 c0 {1,S} {2,S} {9,S} {10,S}
4  C u0 p0 c0 {1,S} {6,S} {11,S} {12,S}
5  C u0 p0 c0 {2,S} {13,S} {14,S} {15,S}
6  C u0 p0 c0 {4,S} {16,S} {17,S} {18,S}
7  H u0 p0 c0 {2,S}
8  H u0 p0 c0 {2,S}
9  H u0 p0 c0 {3,S}
10 H u0 p0 c0 {3,S}
11 H u0 p0 c0 {4,S}
12 H u0 p0 c0 {4,S}
13 H u0 p0 c0 {5,S}
14 H u0 p0 c0 {5,S}
15 H u0 p0 c0 {5,S}
16 H u0 p0 c0 {6,S}
17 H u0 p0 c0 {6,S}
18 H u0 p0 c0 {6,S}


>  <multiplicity>  (2) 
1

>  <reaction>  (2) 
rmg_rxn_230

>  <type>  (2) 
r2h

>  <role_mapnums>  (2) 
{"r2h_a": 2, "r2h_h": 1}

>  <role_mapidx>  (2) 
{"r2h_a": 1, "r2h_h": 0}

>  <ordered_mapped_smiles>  (2) 
[H:1][C:2]([C:3]([C:4]([O:5][C:6]([C:7]([H:16])([H:17])[H:18])([H:14])[H:15])([H:12])[H:13])([H:10])[H:11])([H:8])[H:9]

>  <mol_properties>  (2) 
{"0": {"label": "a_hydrogen", "atom_type": "H0"}, "1": {"label": "acceptor", "atom_type": "Cs"}}

>  <level_of_theory>  (2) 
wb97xd/def2tzvp

>  <lot_method>  (2) 
wb97xd

>  <lot_basis>  (2) 
def2tzvp

>  <spin_multiplicity>  (2) 
1.0

>  <optical_isomers>  (2) 
2.0

>  <modes>  (2) 
IdealGasTranslation(mass=(88.0888, 'amu')),         NonlinearRotor(             inertia = ([59.5652, 317.445, 349.634

>  <frequency_value>  (2) 
unknown

>  <frequency_units>  (2) 
unknown

>  <frequency_list>  (2) 
unknown

>  <arkane_path>  (2) 
/home/calvin/Dropbox/PersonalFolders/Calvin/ATLAS_Converged/rmg_rxn_230/output/Species/rmg_rxn_230_p2_CCCOCC/arkane/output.py

>  <path_exists>  (2) 
True

>  <E0_value>  (2) 
-716327.3605709573

>  <E0_units>  (2) 
kJ/mol

>  <thermo_class>  (2) 
NASA

>  <Cp0_value>  (2) 
33.257888

>  <Cp0_units>  (2) 
J/(mol*K)

>  <CpInf_value>  (2) 
432.352544

>  <CpInf_units>  (2) 
J/(mol*K)

>  <Tmin_value>  (2) 
10.0

>  <Tmin_units>  (2) 
K

>  <Tmax_value>  (2) 
3000.0

>  <Tmax_units>  (2) 
K

>  <polynomials>  (2) 
[{"name": "polynomial1", "class": "NASAPolynomial", "Tmin_value": 10.0, "Tmin_units": "K", "Tmax_value": 424.14701041358796, "Tmax_units": "K", "coeffs": [3.4707042336928127, 0.05746545203879795, -0.00016719847115372115, 4.780470157694204e-07, -4.3347206706639054e-10, -86154279.58985142, 11.635447004604476]}, {"name": "polynomial2", "class": "NASAPolynomial", "Tmin_value": 424.14701041358796, "Tmin_units": "K", "Tmax_value": 3000.0, "Tmax_units": "K", "coeffs": [-2.8535624465972114, 0.06921008708460846, -3.934323609424939e-05, 1.0841890934368647e-08, -1.163418506360095e-12, -86153312.26572455, 41.80111524234505]}]

>  <H298_value>  (2) 
-171200.6815246165

>  <H298_units>  (2) 
kcal/mol

>  <S298_value>  (2) 
88.37399878129293

>  <S298_units>  (2) 
cal/(mol*K)

>  <Cp_T_value_list>  (2) 
[29.924593767526826, 38.16083070533892, 46.09960348181722, 53.05840207682852, 64.40406715451496, 72.91410593462665, 85.72980278110597, 92.03567805993791, 95.21197800865355]

>  <Cp_T_units>  (2) 
cal/(mol*K)

>  <T_list>  (2) 
[300.0, 400.0, 500.0, 600.0, 800.0, 1000.0, 1500.0, 2000.0, 2400.0]

>  <T_units>  (2) 
K

>  <yaml_path>  (2) 
/home/calvin/Dropbox/PersonalFolders/Calvin/ATLAS_Converged/rmg_rxn_230/output/Species/rmg_rxn_230_p2_CCCOCC/rmg_rxn_230_p2_CCCOCC.yml

>  <frequencies_cm1>  (2) 
[76.60808822992, 85.88538539723999, 152.39213822143998, 171.44115549912, 250.05440344247998, 256.05614861216003, 329.51915756551995, 440.0707542322, 493.7774464199199, 767.98990421816, 823.02879155796, 891.3896304185598, 900.4815189822399, 929.41899512072, 1002.9850088538799, 1082.00340893112, 1102.9065122452, 1152.52734816752, 1174.9617892079598, 1182.44680320676, 1190.2339645596398, 1270.1176047871998, 1295.23017010244, 1305.6473868328799, 1368.30176089256, 1380.4425909383199, 1399.7456866728398, 1405.4521514737598, 1443.92787022172, 1468.7794900948002, 1470.37949767436, 1482.5752636026798, 1487.2448136202797, 1494.6336898246, 1500.58049911172, 1519.49904366832, 2928.8997117010795, 2942.5512785172396, 2962.4655359452395, 2968.54281795344, 3015.14904732028, 3021.7276192568397, 3024.0692612509597, 3058.7338031463196, 3085.2403664815197, 3101.8035350733594, 3104.27564978856, 3105.2988306012394]

>  <ZPE_kJmol>  (2) 
431.0594598774012

>  <E_elec_kJmol>  (2) 
-716758.4200308347

>  <E0_minus_Eelec_plus_ZPE_kJmol>  (2) 
0.0

>  <rxn>  (2) 
rmg_rxn_230

>  <species_type>  (2) 
p1

>  <species_folder>  (2) 
rmg_rxn_230_p2_CCCOCC

>  <frequencies_cm1_list>  (2) 
[76.60808822992, 85.88538539723999, 152.39213822143998, 171.44115549912, 250.05440344247998, 256.05614861216003, 329.51915756551995, 440.0707542322, 493.7774464199199, 767.98990421816, 823.02879155796, 891.3896304185598, 900.4815189822399, 929.41899512072, 1002.9850088538799, 1082.00340893112, 1102.9065122452, 1152.52734816752, 1174.9617892079598, 1182.44680320676, 1190.2339645596398, 1270.1176047871998, 1295.23017010244, 1305.6473868328799, 1368.30176089256, 1380.4425909383199, 1399.7456866728398, 1405.4521514737598, 1443.92787022172, 1468.7794900948002, 1470.37949767436, 1482.5752636026798, 1487.2448136202797, 1494.6336898246, 1500.58049911172, 1519.49904366832, 2928.8997117010795, 2942.5512785172396, 2962.4655359452395, 2968.54281795344, 3015.14904732028, 3021.7276192568397, 3024.0692612509597, 3058.7338031463196, 3085.2403664815197, 3101.8035350733594, 3104.27564978856, 3105.2988306012394]

>  <E0_kJmol>  (2) 
-716327

>  <H298_kJmol>  (2) 
-716304

$$$$

     RDKit          3D

 27 25  0  0  0  0  0  0  0  0999 V2000
    1.4856    2.4520   -3.8550 C   0  0  0  0  0  0  0  0  0  1  0  0
    0.9074    2.7123   -2.5441 C   0  0  0  0  0  0  0  0  0  2  0  0
    0.4241    2.9423   -1.4663 C   0  0  0  0  0  0  0  0  0  3  0  0
   -0.1337    3.1419   -0.1663 C   0  0  0  0  0  0  0  0  0  4  0  0
    0.8332    2.8197   -4.6491 H   0  0  0  0  0  0  0  0  0  5  0  0
    1.6341    1.3816   -4.0119 H   0  0  0  0  0  0  0  0  0  6  0  0
    2.4541    2.9444   -3.9586 H   0  0  0  0  0  0  0  0  0  7  0  0
   -1.2079    3.3177   -0.1625 H   0  0  0  0  0  0  0  0  0  8  0  0
    0.3956    3.8736    0.4413 H   0  0  0  0  0  0  0  0  0  9  0  0
    0.0003    2.0342    0.5009 H   0  0  0  0  0  0  0  0  0 10  0  0
    0.1585    0.7873    1.1102 C   0  0  0  0  0  3  0  0  0 11  0  0
   -0.0414   -0.2001   -0.0042 C   0  0  0  0  0  0  0  0  0 12  0  0
    0.2018   -1.6403    0.4163 C   0  0  0  0  0  0  0  0  0 13  0  0
   -0.7315   -1.9993    1.4026 O   0  0  0  0  0  0  0  0  0 14  0  0
   -0.5683   -3.3147    1.8689 C   0  0  0  0  0  0  0  0  0 15  0  0
   -1.6159   -3.5953    2.9213 C   0  0  0  0  0  0  0  0  0 16  0  0
   -0.5966    0.7765    1.8915 H   0  0  0  0  0  0  0  0  0 17  0  0
    1.1721    0.8458    1.5041 H   0  0  0  0  0  0  0  0  0 18  0  0
    0.6375    0.0319   -0.8300 H   0  0  0  0  0  0  0  0  0 19  0  0
   -1.0578   -0.1210   -0.3981 H   0  0  0  0  0  0  0  0  0 20  0  0
    1.2252   -1.7528    0.8059 H   0  0  0  0  0  0  0  0  0 21  0  0
    0.1059   -2.3064   -0.4542 H   0  0  0  0  0  0  0  0  0 22  0  0
   -0.6634   -4.0236    1.0330 H   0  0  0  0  0  0  0  0  0 23  0  0
    0.4409   -3.4412    2.2876 H   0  0  0  0  0  0  0  0  0 24  0  0
   -2.6169   -3.4837    2.5033 H   0  0  0  0  0  0  0  0  0 25  0  0
   -1.5090   -4.6133    3.2991 H   0  0  0  0  0  0  0  0  0 26  0  0
   -1.5127   -2.9025    3.7571 H   0  0  0  0  0  0  0  0  0 27  0  0
  1  7  1  0
  1  5  1  0
  1  6  1  0
  1  2  1  0
  2  3  1  0
  3  4  1  0
  4 10  1  0
  4  9  1  0
  4  8  1  0
 11 17  1  0
 11 12  1  0
 11 18  1  0
 12 19  1  0
 12 20  1  0
 12 13  1  0
 13 21  1  0
 13 22  1  0
 13 14  1  0
 14 15  1  0
 15 23  1  0
 15 16  1  0
 15 24  1  0
 16 26  1  0
 16 27  1  0
 16 25  1  0
M  RAD  1  11   2
M  END
>  <rmg_smiles>  (3) 
CCCC.[CH2]CCOCC

>  <rmg_adjacency_list>  (3) 
multiplicity 2
1  O u0 p2 c0 {3,S} {4,S}
2  C u0 p0 c0 {3,S} {8,S} {11,S} {12,S}
3  C u0 p0 c0 {1,S} {2,S} {13,S} {14,S}
4  C u0 p0 c0 {1,S} {5,S} {15,S} {16,S}
5  C u0 p0 c0 {4,S} {17,S} {18,S} {19,S}
6  C u0 p0 c0 {9,S} {20,S} {21,S} {22,S}
7  C u0 p0 c0 {10,S} {23,S} {24,S} {25,S}
8  C u1 p0 c0 {2,S} {26,S} {27,S}
9  C u0 p1 c0 {6,S} {10,S}
10 C u0 p1 c0 {7,S} {9,S}
11 H u0 p0 c0 {2,S}
12 H u0 p0 c0 {2,S}
13 H u0 p0 c0 {3,S}
14 H u0 p0 c0 {3,S}
15 H u0 p0 c0 {4,S}
16 H u0 p0 c0 {4,S}
17 H u0 p0 c0 {5,S}
18 H u0 p0 c0 {5,S}
19 H u0 p0 c0 {5,S}
20 H u0 p0 c0 {6,S}
21 H u0 p0 c0 {6,S}
22 H u0 p0 c0 {6,S}
23 H u0 p0 c0 {7,S}
24 H u0 p0 c0 {7,S}
25 H u0 p0 c0 {7,S}
26 H u0 p0 c0 {8,S}
27 H u0 p0 c0 {8,S}


>  <multiplicity>  (3) 
2

>  <reaction>  (3) 
rmg_rxn_230

>  <type>  (3) 
ts

>  <role_mapnums>  (3) 
{"*2": 10, "*1": 4, "*3": 11, "*0": 3, "*4": 12}

>  <role_mapidx>  (3) 
{"*2": 9, "*1": 3, "*3": 10, "*0": 2, "*4": 11}

>  <ordered_mapped_smiles>  (3) 
[C:1]([CH2:2][CH2:3][C:4]([H:8])([H:9])[H:10])([H:5])([H:6])[H:7].[C:11]([C:12]([C:13]([O:14][C:15]([C:16]([H:25])([H:26])[H:27])([H:23])[H:24])([H:21])[H:22])([H:19])[H:20])([H:17])[H:18]

>  <mol_properties>  (3) 
{"2": {"label": "*0", "atom_type": "C2s"}, "3": {"label": "*1", "atom_type": "Cs"}, "9": {"label": "*2", "atom_type": "H0"}, "10": {"label": "*3", "atom_type": "Cs"}, "11": {"label": "*4", "atom_type": "Cs"}}

>  <level_of_theory>  (3) 
wb97xd/def2tzvp

>  <lot_method>  (3) 
wb97xd

>  <lot_basis>  (3) 
def2tzvp

>  <spin_multiplicity>  (3) 
2.0

>  <optical_isomers>  (3) 
2.0

>  <modes>  (3) 
IdealGasTranslation(mass=(141.128, 'amu')),         NonlinearRotor(             inertia = ([180.299, 1430.7, 1566.48

>  <frequency_value>  (3) 
-1714.78

>  <frequency_units>  (3) 
cm^-1

>  <frequency_list>  (3) 
unknown

>  <arkane_path>  (3) 
/home/calvin/Dropbox/PersonalFolders/Calvin/ATLAS_Converged/rmg_rxn_230/output/rxns/TS0/arkane/output.py

>  <path_exists>  (3) 
True

>  <E0_value>  (3) 
-1123860.0

>  <E0_units>  (3) 
kJ/mol

>  <thermo_class>  (3) 
unknown

>  <Cp0_value>  (3) 
unknown

>  <Cp0_units>  (3) 
unknown

>  <CpInf_value>  (3) 
unknown

>  <CpInf_units>  (3) 
unknown

>  <Tmin_value>  (3) 
unknown

>  <Tmin_units>  (3) 
unknown

>  <Tmax_value>  (3) 
unknown

>  <Tmax_units>  (3) 
unknown

>  <polynomials>  (3) 
unknown

>  <H298_value>  (3) 
unknown

>  <H298_units>  (3) 
unknown

>  <S298_value>  (3) 
unknown

>  <S298_units>  (3) 
unknown

>  <Cp_T_value_list>  (3) 
unknown

>  <Cp_T_units>  (3) 
unknown

>  <T_list>  (3) 
unknown

>  <T_units>  (3) 
unknown

>  <yaml_path>  (3) 
unknown

>  <frequencies_cm1>  (3) 
unknown

>  <ZPE_kJmol>  (3) 
unknown

>  <E_elec_kJmol>  (3) 
unknown

>  <E0_minus_Eelec_plus_ZPE_kJmol>  (3) 
unknown

>  <rxn>  (3) 
unknown

>  <species_type>  (3) 
unknown

>  <species_folder>  (3) 
unknown

>  <frequencies_cm1_list>  (3) 
[]

>  <ts_imag_freq_cm1>  (3) 
-1735.6091

>  <ts_freq_out_path>  (3) 
/home/calvin/Dropbox/PersonalFolders/Calvin/ATLAS_Converged/rmg_rxn_230/output/rxns/TS0/geometry/freq.out

>  <E0_kJmol>  (3) 
-1.12386e+06

>  <H298_kJmol>  (3) 
unknown

$$$$

     RDKit          3D

  9  8  0  0  0  0  0  0  0  0999 V2000
    2.2285    0.1429   -0.1875 C   0  0  0  0  0  0  0  0  0  1  0  0
    0.8689    0.0588   -0.0734 C   0  0  0  0  0  0  0  0  0  2  0  0
   -0.3436   -0.0148    0.0282 C   0  0  0  0  0  3  0  0  0  3  0  0
   -1.7876   -0.1130    0.1500 C   0  0  0  0  0  0  0  0  0  4  0  0
    2.8646    0.0330    0.6803 H   0  0  0  0  0  0  0  0  0  5  0  0
    2.6934    0.3211   -1.1477 H   0  0  0  0  0  0  0  0  0  6  0  0
   -2.1322    0.3380    1.0826 H   0  0  0  0  0  0  0  0  0  7  0  0
   -2.1068   -1.1583    0.1470 H   0  0  0  0  0  0  0  0  0  8  0  0
   -2.2854    0.3923   -0.6795 H   0  0  0  0  0  0  0  0  0  9  0  0
  1  5  1  0
  1  6  1  0
  1  2  1  0
  2  3  1  0
  3  4  1  0
  4  8  1  0
  4  9  1  0
  4  7  1  0
M  RAD  1   3   2
M  END
>  <rmg_smiles>  (4) 
[CH2]C[C]C

>  <rmg_adjacency_list>  (4) 
multiplicity 2
1 C u0 p0 c0 {3,S} {5,S} {6,S} {7,S}
2 C u0 p0 c0 {4,S} {8,S} {9,S}
3 C u1 p1 c0 {1,S} {4,S}
4 C u0 p1 c0 {2,S} {3,S}
5 H u0 p0 c0 {1,S}
6 H u0 p0 c0 {1,S}
7 H u0 p0 c0 {1,S}
8 H u0 p0 c0 {2,S}
9 H u0 p0 c0 {2,S}


>  <multiplicity>  (4) 
2

>  <reaction>  (4) 
rmg_rxn_230

>  <type>  (4) 
r1

>  <role_mapnums>  (4) 
{}

>  <role_mapidx>  (4) 
{}

>  <ordered_mapped_smiles>  (4) 
[CH:1]([CH2:2][CH:3][C:4]([H:7])([H:8])[H:9])([H:5])[H:6]

>  <level_of_theory>  (4) 
wb97xd/def2tzvp

>  <lot_method>  (4) 
wb97xd

>  <lot_basis>  (4) 
def2tzvp

>  <spin_multiplicity>  (4) 
2.0

>  <optical_isomers>  (4) 
2.0

>  <modes>  (4) 
IdealGasTranslation(mass=(53.0391, 'amu')),         NonlinearRotor(             inertia = ([4.88746, 139.242, 140.992

>  <frequency_value>  (4) 
unknown

>  <frequency_units>  (4) 
unknown

>  <frequency_list>  (4) 
unknown

>  <arkane_path>  (4) 
/home/calvin/Dropbox/PersonalFolders/Calvin/ATLAS_Converged/rmg_rxn_230/output/Species/rmg_rxn_230_p1_sbr-CH2-sbrCtCC/arkane/output.py

>  <path_exists>  (4) 
True

>  <E0_value>  (4) 
-407625.4064849042

>  <E0_units>  (4) 
kJ/mol

>  <thermo_class>  (4) 
NASA

>  <Cp0_value>  (4) 
33.257888

>  <Cp0_units>  (4) 
J/(mol*K)

>  <CpInf_value>  (4) 
207.8618

>  <CpInf_units>  (4) 
J/(mol*K)

>  <Tmin_value>  (4) 
10.0

>  <Tmin_units>  (4) 
K

>  <Tmax_value>  (4) 
3000.0

>  <Tmax_units>  (4) 
K

>  <polynomials>  (4) 
[{"name": "polynomial1", "class": "NASAPolynomial", "Tmin_value": 10.0, "Tmin_units": "K", "Tmax_value": 502.02681672017746, "Tmax_units": "K", "coeffs": [3.6872708306254283, 0.02905362892588458, -4.470123419696922e-05, 7.503439442217303e-08, -5.158529069834182e-11, -49026010.75493381, 10.463726652875142]}, {"name": "polynomial2", "class": "NASAPolynomial", "Tmin_value": 502.02681672017746, "Tmin_units": "K", "Tmax_value": 3000.0, "Tmax_units": "K", "coeffs": [2.89846206737678, 0.02729908074769455, -1.5437590070255374e-05, 4.274702327424854e-09, -4.631616139282801e-13, -49025830.24365285, 14.734719791594486]}]

>  <H298_value>  (4) 
-97420.59795787682

>  <H298_units>  (4) 
kcal/mol

>  <S298_value>  (4) 
76.91244568160063

>  <S298_units>  (4) 
cal/(mol*K)

>  <Cp_T_value_list>  (4) 
[19.8488866808607, 23.12739289331374, 26.21919338964091, 28.980799697417396, 33.497556262468905, 36.9053925328209, 42.11858387894413, 44.77831245474619, 46.148163827512555]

>  <Cp_T_units>  (4) 
cal/(mol*K)

>  <T_list>  (4) 
[300.0, 400.0, 500.0, 600.0, 800.0, 1000.0, 1500.0, 2000.0, 2400.0]

>  <T_units>  (4) 
K

>  <yaml_path>  (4) 
/home/calvin/Dropbox/PersonalFolders/Calvin/ATLAS_Converged/rmg_rxn_230/output/Species/rmg_rxn_230_p1_sbr-CH2-sbrCtCC/rmg_rxn_230_p1_sbr-CH2-sbrCtCC.yml

>  <frequencies_cm1>  (4) 
[24.18552229704, 186.74766577739996, 206.32544092471997, 398.28514856, 428.84323323399997, 670.45124473288, 768.8002084859199, 1023.53102893132, 1025.11730254024, 1044.32426048028, 1244.297739984, 1401.51050190008, 1455.78715386936, 1460.16829050352, 1460.7931861676398, 2137.33544687936, 3007.2588811876003, 3071.0325738544398, 3085.0961597897995, 3128.557309880079, 3222.30539346872]

>  <ZPE_kJmol>  (4) 
182.1360065892337

>  <E_elec_kJmol>  (4) 
-407807.5424914934

>  <E0_minus_Eelec_plus_ZPE_kJmol>  (4) 
0.0

>  <rxn>  (4) 
rmg_rxn_230

>  <species_type>  (4) 
p0

>  <species_folder>  (4) 
rmg_rxn_230_p1_sbr-CH2-sbrCtCC

>  <frequencies_cm1_list>  (4) 
[24.18552229704, 186.74766577739996, 206.32544092471997, 398.28514856, 428.84323323399997, 670.45124473288, 768.8002084859199, 1023.53102893132, 1025.11730254024, 1044.32426048028, 1244.297739984, 1401.51050190008, 1455.78715386936, 1460.16829050352, 1460.7931861676398, 2137.33544687936, 3007.2588811876003, 3071.0325738544398, 3085.0961597897995, 3128.557309880079, 3222.30539346872]

>  <E0_kJmol>  (4) 
-407625

>  <H298_kJmol>  (4) 
-407608

$$$$

     RDKit          3D

 17 16  0  0  0  0  0  0  0  0999 V2000
    2.3128   -0.1525    1.1777 C   0  0  0  0  0  3  0  0  0  1  0  0
    1.7469    0.7266    0.1254 C   0  0  0  0  0  0  0  0  0  2  0  0
    1.6374    2.1830    0.5408 C   0  0  0  0  0  0  0  0  0  3  0  0
    2.9245    2.6874    0.7877 O   0  0  0  0  0  0  0  0  0  4  0  0
    2.9227    4.0197    1.2361 C   0  0  0  0  0  0  0  0  0  5  0  0
    4.3491    4.4603    1.4693 C   0  0  0  0  0  0  0  0  0  6  0  0
    2.1393   -1.2196    1.1557 H   0  0  0  0  0  0  0  0  0  7  0  0
    3.0313    0.2400    1.8838 H   0  0  0  0  0  0  0  0  0  8  0  0
    0.7555    0.3746   -0.1764 H   0  0  0  0  0  0  0  0  0  9  0  0
    2.3678    0.6841   -0.7826 H   0  0  0  0  0  0  0  0  0 10  0  0
    1.0170    2.2718    1.4449 H   0  0  0  0  0  0  0  0  0 11  0  0
    1.1499    2.7653   -0.2546 H   0  0  0  0  0  0  0  0  0 12  0  0
    2.4379    4.6655    0.4891 H   0  0  0  0  0  0  0  0  0 13  0  0
    2.3377    4.1015    2.1638 H   0  0  0  0  0  0  0  0  0 14  0  0
    4.9261    4.3920    0.5465 H   0  0  0  0  0  0  0  0  0 15  0  0
    4.3728    5.4939    1.8180 H   0  0  0  0  0  0  0  0  0 16  0  0
    4.8260    3.8299    2.2206 H   0  0  0  0  0  0  0  0  0 17  0  0
  1  8  1  0
  1  7  1  0
  1  2  1  0
  2 10  1  0
  2  9  1  0
  2  3  1  0
  3 11  1  0
  3  4  1  0
  3 12  1  0
  4  5  1  0
  5 13  1  0
  5  6  1  0
  5 14  1  0
  6 17  1  0
  6 15  1  0
  6 16  1  0
M  RAD  1   1   2
M  END
>  <rmg_smiles>  (5) 
[CH2]CCOCC

>  <rmg_adjacency_list>  (5) 
multiplicity 2
1  O u0 p2 c0 {3,S} {4,S}
2  C u0 p0 c0 {3,S} {6,S} {7,S} {8,S}
3  C u0 p0 c0 {1,S} {2,S} {9,S} {10,S}
4  C u0 p0 c0 {1,S} {5,S} {11,S} {12,S}
5  C u0 p0 c0 {4,S} {13,S} {14,S} {15,S}
6  C u1 p0 c0 {2,S} {16,S} {17,S}
7  H u0 p0 c0 {2,S}
8  H u0 p0 c0 {2,S}
9  H u0 p0 c0 {3,S}
10 H u0 p0 c0 {3,S}
11 H u0 p0 c0 {4,S}
12 H u0 p0 c0 {4,S}
13 H u0 p0 c0 {5,S}
14 H u0 p0 c0 {5,S}
15 H u0 p0 c0 {5,S}
16 H u0 p0 c0 {6,S}
17 H u0 p0 c0 {6,S}


>  <multiplicity>  (5) 
2

>  <reaction>  (5) 
rmg_rxn_230

>  <type>  (5) 
r2

>  <role_mapnums>  (5) 
{}

>  <role_mapidx>  (5) 
{}

>  <ordered_mapped_smiles>  (5) 
[C:1]([C:2]([C:3]([O:4][C:5]([C:6]([H:15])([H:16])[H:17])([H:13])[H:14])([H:11])[H:12])([H:9])[H:10])([H:7])[H:8]

>  <level_of_theory>  (5) 
wb97xd/def2tzvp

>  <lot_method>  (5) 
wb97xd

>  <lot_basis>  (5) 
def2tzvp

>  <spin_multiplicity>  (5) 
2.0

>  <optical_isomers>  (5) 
2.0

>  <modes>  (5) 
IdealGasTranslation(mass=(87.081, 'amu')),         NonlinearRotor(             inertia = ([56.1942, 309.598, 341.445

>  <frequency_value>  (5) 
unknown

>  <frequency_units>  (5) 
unknown

>  <frequency_list>  (5) 
unknown

>  <arkane_path>  (5) 
/home/calvin/Dropbox/PersonalFolders/Calvin/ATLAS_Converged/rmg_rxn_230/output/Species/rmg_rxn_230_r2_sbr-CH2-sbrCCOCC/arkane/output.py

>  <path_exists>  (5) 
True

>  <E0_value>  (5) 
-714594.9534761205

>  <E0_units>  (5) 
kJ/mol

>  <thermo_class>  (5) 
NASA

>  <Cp0_value>  (5) 
33.257888

>  <Cp0_units>  (5) 
J/(mol*K)

>  <CpInf_value>  (5) 
407.409128

>  <CpInf_units>  (5) 
J/(mol*K)

>  <Tmin_value>  (5) 
10.0

>  <Tmin_units>  (5) 
K

>  <Tmax_value>  (5) 
3000.0

>  <Tmax_units>  (5) 
K

>  <polynomials>  (5) 
[{"name": "polynomial1", "class": "NASAPolynomial", "Tmin_value": 10.0, "Tmin_units": "K", "Tmax_value": 428.2196342565028, "Tmax_units": "K", "coeffs": [3.449989296280544, 0.057423832316827995, -0.00013332000129952934, 3.4481867882035973e-07, -3.039663546787581e-10, -85945919.20509715, 12.33173677011069]}, {"name": "polynomial2", "class": "NASAPolynomial", "Tmin_value": 428.2196342565028, "Tmin_units": "K", "Tmax_value": 3000.0, "Tmax_units": "K", "coeffs": [-0.8337724645043922, 0.06365483127668993, -3.68065916523196e-05, 1.0327972414463865e-08, -1.1275406847880222e-12, -85945242.57829364, 32.98197379692207]}]

>  <H298_value>  (5) 
-170786.4494875034

>  <H298_units>  (5) 
kcal/mol

>  <S298_value>  (5) 
90.65975504557764

>  <S298_units>  (5) 
cal/(mol*K)

>  <Cp_T_value_list>  (5) 
[30.85399555380273, 38.5024812284313, 45.73063038026963, 52.05182606770565, 62.3187066664259, 69.97927600380646, 81.44044284908489, 87.10453068800588, 90.01380036436508]

>  <Cp_T_units>  (5) 
cal/(mol*K)

>  <T_list>  (5) 
[300.0, 400.0, 500.0, 600.0, 800.0, 1000.0, 1500.0, 2000.0, 2400.0]

>  <T_units>  (5) 
K

>  <yaml_path>  (5) 
/home/calvin/Dropbox/PersonalFolders/Calvin/ATLAS_Converged/rmg_rxn_230/output/Species/rmg_rxn_230_r2_sbr-CH2-sbrCCOCC/rmg_rxn_230_r2_sbr-CH2-sbrCCOCC.yml

>  <frequencies_cm1>  (5) 
[77.74114080771999, 86.7643595182, 154.72691323024, 159.93208810279998, 205.28852614139996, 250.85784072491998, 323.93629850035995, 437.44756583995996, 463.20562777527994, 521.1423829201199, 769.3220993702398, 823.3858747945999, 896.9312875718, 917.44297272264, 996.1248905191999, 1038.9886128866399, 1087.27038667156, 1111.9984008088798, 1157.1694302438398, 1177.7154503212798, 1186.02450255848, 1226.1551647685599, 1286.5434336726398, 1297.95636327448, 1365.48629691136, 1376.61081312976, 1398.7293728454802, 1437.088352843, 1439.70467424992, 1453.5004477578, 1470.50997039544, 1487.1830107523997, 1499.68779102012, 1519.27930013808, 2936.7761438631196, 2941.988185721, 2946.20451470748, 2969.2432504560797, 2976.1926395999203, 3024.23406889864, 3030.8195078205194, 3102.0438795595596, 3104.5915311132794, 3130.6998092999197, 3236.4651171985597]

>  <ZPE_kJmol>  (5) 
391.7837560230114

>  <E_elec_kJmol>  (5) 
-714986.7372321435

>  <E0_minus_Eelec_plus_ZPE_kJmol>  (5) 
0.0

>  <rxn>  (5) 
rmg_rxn_230

>  <species_type>  (5) 
r1

>  <species_folder>  (5) 
rmg_rxn_230_r2_sbr-CH2-sbrCCOCC

>  <frequencies_cm1_list>  (5) 
[77.74114080771999, 86.7643595182, 154.72691323024, 159.93208810279998, 205.28852614139996, 250.85784072491998, 323.93629850035995, 437.44756583995996, 463.20562777527994, 521.1423829201199, 769.3220993702398, 823.3858747945999, 896.9312875718, 917.44297272264, 996.1248905191999, 1038.9886128866399, 1087.27038667156, 1111.9984008088798, 1157.1694302438398, 1177.7154503212798, 1186.02450255848, 1226.1551647685599, 1286.5434336726398, 1297.95636327448, 1365.48629691136, 1376.61081312976, 1398.7293728454802, 1437.088352843, 1439.70467424992, 1453.5004477578, 1470.50997039544, 1487.1830107523997, 1499.68779102012, 1519.27930013808, 2936.7761438631196, 2941.988185721, 2946.20451470748, 2969.2432504560797, 2976.1926395999203, 3024.23406889864, 3030.8195078205194, 3102.0438795595596, 3104.5915311132794, 3130.6998092999197, 3236.4651171985597]

>  <E0_kJmol>  (5) 
-714595

>  <H298_kJmol>  (5) 
-714571

$$$$
