
     RDKit          3D

 13 12  0  0  0  0  0  0  0  0999 V2000
    1.5835    0.8453    0.9393 N   0  0  0  0  0  0  0  0  0  1  0  0
    1.3442    0.2424   -0.1864 N   0  0  0  0  0  0  0  0  0  2  0  0
    0.2065   -0.2471   -0.6008 C   0  0  0  0  0  0  0  0  0  3  0  0
   -1.0037   -0.1326    0.2497 C   0  0  0  0  0  0  0  0  0  4  0  0
   -2.2418   -0.7346   -0.3998 C   0  0  0  0  0  0  0  0  0  5  0  0
    2.5966    1.0690    0.8669 H   0  0  0  0  0  0  0  0  0  6  0  0
    2.1543    0.1152   -0.8144 H   0  0  0  0  0  0  0  0  0  7  0  0
    0.2123   -0.7223   -1.5704 H   0  0  0  0  0  0  0  0  0  8  0  0
   -1.1684    0.9253    0.4917 H   0  0  0  0  0  0  0  0  0  9  0  0
   -0.8058   -0.6090    1.2188 H   0  0  0  0  0  0  0  0  0 10  0  0
   -2.4723   -0.2370   -1.3440 H   0  0  0  0  0  0  0  0  0 11  0  0
   -3.1103   -0.6339    0.2512 H   0  0  0  0  0  0  0  0  0 12  0  0
   -2.1008   -1.7976   -0.6065 H   0  0  0  0  0  0  0  0  0 13  0  0
  1  2  1  0
  1  6  1  0
  2  3  1  0
  2  7  1  0
  3  4  1  0
  3  8  1  0
  4  5  1  0
  4  9  1  0
  4 10  1  0
  5 11  1  0
  5 12  1  0
  5 13  1  0
M  END
>  <rmg_smiles>  (1) 
CC[CH]N[NH]

>  <rmg_adjacency_list>  (1) 
1  N u0 p1 c0 {2,S} {5,S} {12,S}
2  N u0 p1 c0 {1,S} {13,S}
3  C u0 p0 c0 {4,S} {5,S} {6,S} {7,S}
4  C u0 p0 c0 {3,S} {8,S} {9,S} {10,S}
5  C u0 p0 c0 {1,S} {3,S} {11,S}
6  H u0 p0 c0 {3,S}
7  H u0 p0 c0 {3,S}
8  H u0 p0 c0 {4,S}
9  H u0 p0 c0 {4,S}
10 H u0 p0 c0 {4,S}
11 H u0 p0 c0 {5,S}
12 H u0 p0 c0 {1,S}
13 H u0 p0 c0 {2,S}


>  <multiplicity>  (1) 
1

>  <reaction>  (1) 
rmg_rxn_2538

>  <type>  (1) 
r1h

>  <role_mapnums>  (1) 
{"r1h_a": 1, "r1h_h": 6}

>  <role_mapidx>  (1) 
{"r1h_a": 0, "r1h_h": 5}

>  <ordered_mapped_smiles>  (1) 
[NH:1]([N:2]([CH:3]([C:4]([C:5]([H:11])([H:12])[H:13])([H:9])[H:10])[H:8])[H:7])[H:6]

>  <mol_properties>  (1) 
{"0": {"label": "donator", "atom_type": "N3s"}, "5": {"label": "d_hydrogen", "atom_type": "H0"}}

>  <level_of_theory>  (1) 
wb97xd/def2tzvp

>  <lot_method>  (1) 
wb97xd

>  <lot_basis>  (1) 
def2tzvp

>  <spin_multiplicity>  (1) 
1.0

>  <optical_isomers>  (1) 
2.0

>  <modes>  (1) 
IdealGasTranslation(mass=(72.0687, 'amu')),         NonlinearRotor(             inertia = ([54.1798, 139.96, 170.595

>  <frequency_value>  (1) 
unknown

>  <frequency_units>  (1) 
unknown

>  <frequency_list>  (1) 
unknown

>  <arkane_path>  (1) 
/home/calvin/Dropbox/PersonalFolders/Calvin/ATLAS_Converged/rmg_rxn_2538/output/Species/rmg_rxn_2538_r2_sbr-NH--sbrsbr-NHp-sbr=CCC/arkane/output.py

>  <path_exists>  (1) 
True

>  <E0_value>  (1) 
-599821.0790303417

>  <E0_units>  (1) 
kJ/mol

>  <thermo_class>  (1) 
NASA

>  <Cp0_value>  (1) 
33.257888

>  <Cp0_units>  (1) 
J/(mol*K)

>  <CpInf_value>  (1) 
307.635464

>  <CpInf_units>  (1) 
J/(mol*K)

>  <Tmin_value>  (1) 
10.0

>  <Tmin_units>  (1) 
K

>  <Tmax_value>  (1) 
3000.0

>  <Tmax_units>  (1) 
K

>  <polynomials>  (1) 
[{"name": "polynomial1", "class": "NASAPolynomial", "Tmin_value": 10.0, "Tmin_units": "K", "Tmax_value": 474.62100371348544, "Tmax_units": "K", "coeffs": [3.863855633630711, 0.011851722313415683, 8.535210099928715e-05, -1.5102960252155107e-07, 8.284035082151498e-11, -72141810.52784279, 10.255640547811005]}, {"name": "polynomial2", "class": "NASAPolynomial", "Tmin_value": 474.62100371348544, "Tmin_units": "K", "Tmax_value": 3000.0, "Tmax_units": "K", "coeffs": [-0.3841308393730185, 0.04765291504748579, -2.7794922536047773e-05, 7.900533067068031e-09, -8.741403182726763e-13, -72141407.29235935, 27.583942845321094]}]

>  <H298_value>  (1) 
-143356.35915096157

>  <H298_units>  (1) 
kcal/mol

>  <S298_value>  (1) 
76.35059111278113

>  <S298_units>  (1) 
cal/(mol*K)

>  <Cp_T_value_list>  (1) 
[23.23892736316884, 29.24313299420859, 34.630111546699624, 39.33610214134865, 46.97055843208524, 52.66147786212228, 61.1972756717267, 65.4983830173624, 67.76215740722176]

>  <Cp_T_units>  (1) 
cal/(mol*K)

>  <T_list>  (1) 
[300.0, 400.0, 500.0, 600.0, 800.0, 1000.0, 1500.0, 2000.0, 2400.0]

>  <T_units>  (1) 
K

>  <yaml_path>  (1) 
/home/calvin/Dropbox/PersonalFolders/Calvin/ATLAS_Converged/rmg_rxn_2538/output/Species/rmg_rxn_2538_r2_sbr-NH--sbrsbr-NHp-sbr=CCC/rmg_rxn_2538_r2_sbr-NH--sbrsbr-NHp-sbr=CCC.yml

>  <frequencies_cm1>  (1) 
[136.9620222074, 209.61472689299998, 254.75142140136, 308.30703991204, 470.9447202309199, 604.68612632324, 687.9689242841999, 696.47711909568, 805.7651904634799, 897.4737794120799, 920.54685008728, 1021.0932491427199, 1079.8334415699999, 1128.5341014594399, 1155.1642705303998, 1288.91941059336, 1343.4638749901198, 1373.9807577522, 1387.87266905456, 1398.0289403428399, 1456.3021777683598, 1482.71260330908, 1494.942704164, 1535.7257299794799, 1699.6338025825598, 3005.54900184292, 3019.50958299848, 3066.781909941359, 3090.26699973576, 3110.5040054737997, 3206.03750524564, 3439.3227305366795, 3491.6972275723197]

>  <ZPE_kJmol>  (1) 
300.6777184772831

>  <E_elec_kJmol>  (1) 
-600121.756748819

>  <E0_minus_Eelec_plus_ZPE_kJmol>  (1) 
0.0

>  <rxn>  (1) 
rmg_rxn_2538

>  <species_type>  (1) 
r1

>  <species_folder>  (1) 
rmg_rxn_2538_r2_sbr-NH--sbrsbr-NHp-sbr=CCC

>  <frequencies_cm1_list>  (1) 
[136.9620222074, 209.61472689299998, 254.75142140136, 308.30703991204, 470.9447202309199, 604.68612632324, 687.9689242841999, 696.47711909568, 805.7651904634799, 897.4737794120799, 920.54685008728, 1021.0932491427199, 1079.8334415699999, 1128.5341014594399, 1155.1642705303998, 1288.91941059336, 1343.4638749901198, 1373.9807577522, 1387.87266905456, 1398.0289403428399, 1456.3021777683598, 1482.71260330908, 1494.942704164, 1535.7257299794799, 1699.6338025825598, 3005.54900184292, 3019.50958299848, 3066.781909941359, 3090.26699973576, 3110.5040054737997, 3206.03750524564, 3439.3227305366795, 3491.6972275723197]

>  <E0_kJmol>  (1) 
-599821

>  <H298_kJmol>  (1) 
-599803

$$$$

     RDKit          3D

 12 11  0  0  0  0  0  0  0  0999 V2000
   -0.2591    1.5840    0.5793 C   0  0  0  0  0  0  0  0  0  1  0  0
    0.1873    0.5139   -0.7481 S   0  0  0  0  0  0  0  0  0  2  0  0
    0.5564   -1.0260    0.1340 C   0  0  0  0  0  0  0  0  0  3  0  0
   -0.6354   -1.7019    0.7920 C   0  0  0  0  0  0  0  0  0  4  0  0
   -0.2344    2.6190    0.2474 H   0  0  0  0  0  0  0  0  0  5  0  0
    0.3308    1.4227    1.4802 H   0  0  0  0  0  0  0  0  0  6  0  0
    1.3335   -0.7996    0.8663 H   0  0  0  0  0  0  0  0  0  7  0  0
    1.0030   -1.6732   -0.6223 H   0  0  0  0  0  0  0  0  0  8  0  0
   -1.3842   -1.9859    0.0511 H   0  0  0  0  0  0  0  0  0  9  0  0
   -0.3084   -2.6073    1.3071 H   0  0  0  0  0  0  0  0  0 10  0  0
   -1.1159   -1.0482    1.5207 H   0  0  0  0  0  0  0  0  0 11  0  0
   -1.2914    1.4271    0.8853 H   0  0  0  0  0  0  0  0  0 12  0  0
  1  5  1  0
  1  2  1  0
  1  6  1  0
  1 12  1  0
  2  3  1  0
  3  4  1  0
  3  7  1  0
  3  8  1  0
  4  9  1  0
  4 10  1  0
  4 11  1  0
M  END
>  <rmg_smiles>  (2) 
CSCC

>  <rmg_adjacency_list>  (2) 
1  S u0 p2 c0 {2,S} {4,S}
2  C u0 p0 c0 {1,S} {3,S} {5,S} {6,S}
3  C u0 p0 c0 {2,S} {7,S} {8,S} {9,S}
4  C u0 p0 c0 {1,S} {10,S} {11,S} {12,S}
5  H u0 p0 c0 {2,S}
6  H u0 p0 c0 {2,S}
7  H u0 p0 c0 {3,S}
8  H u0 p0 c0 {3,S}
9  H u0 p0 c0 {3,S}
10 H u0 p0 c0 {4,S}
11 H u0 p0 c0 {4,S}
12 H u0 p0 c0 {4,S}


>  <multiplicity>  (2) 
1

>  <reaction>  (2) 
rmg_rxn_2538

>  <type>  (2) 
r2h

>  <role_mapnums>  (2) 
{"r2h_a": 1, "r2h_h": 12}

>  <role_mapidx>  (2) 
{"r2h_a": 0, "r2h_h": 11}

>  <ordered_mapped_smiles>  (2) 
[C:1]([S:2][C:3]([C:4]([H:9])([H:10])[H:11])([H:7])[H:8])([H:5])([H:6])[H:12]

>  <mol_properties>  (2) 
{"0": {"label": "acceptor", "atom_type": "Cs"}, "11": {"label": "a_hydrogen", "atom_type": "H0"}}

>  <level_of_theory>  (2) 
wb97xd/def2tzvp

>  <lot_method>  (2) 
wb97xd

>  <lot_basis>  (2) 
def2tzvp

>  <spin_multiplicity>  (2) 
1.0

>  <optical_isomers>  (2) 
2.0

>  <modes>  (2) 
IdealGasTranslation(mass=(76.0347, 'amu')),         NonlinearRotor(             inertia = ([52.0964, 128.386, 157.856

>  <frequency_value>  (2) 
unknown

>  <frequency_units>  (2) 
unknown

>  <frequency_list>  (2) 
unknown

>  <arkane_path>  (2) 
/home/calvin/Dropbox/PersonalFolders/Calvin/ATLAS_Converged/rmg_rxn_2538/output/Species/rmg_rxn_2538_p2_CSCC/arkane/output.py

>  <path_exists>  (2) 
True

>  <E0_value>  (2) 
-1358024.3823847063

>  <E0_units>  (2) 
kJ/mol

>  <thermo_class>  (2) 
NASA

>  <Cp0_value>  (2) 
33.257888

>  <Cp0_units>  (2) 
J/(mol*K)

>  <CpInf_value>  (2) 
282.692048

>  <CpInf_units>  (2) 
J/(mol*K)

>  <Tmin_value>  (2) 
10.0

>  <Tmin_units>  (2) 
K

>  <Tmax_value>  (2) 
3000.0

>  <Tmax_units>  (2) 
K

>  <polynomials>  (2) 
[{"name": "polynomial1", "class": "NASAPolynomial", "Tmin_value": 10.0, "Tmin_units": "K", "Tmax_value": 1066.2668684701744, "Tmax_units": "K", "coeffs": [3.7938912313276787, 0.023010100947195324, 1.342493384076101e-05, -2.4396686231991315e-08, 8.539069834136729e-12, -163332607.1869712, 10.299389825114616]}, {"name": "polynomial2", "class": "NASAPolynomial", "Tmin_value": 1066.2668684701744, "Tmin_units": "K", "Tmax_value": 3000.0, "Tmax_units": "K", "coeffs": [3.879217425430389, 0.03360306179863777, -1.6829239210706833e-05, 4.118007320046649e-09, -3.971168214124496e-13, -163333245.74928793, 6.973208429713539]}]

>  <H298_value>  (2) 
-324571.19408104627

>  <H298_units>  (2) 
kcal/mol

>  <S298_value>  (2) 
77.83544863665438

>  <S298_units>  (2) 
cal/(mol*K)

>  <Cp_T_value_list>  (2) 
[22.486476604271342, 27.42967621467206, 32.072084622248504, 36.30607837304303, 43.32195482949402, 48.43082491651662, 56.2496539809613, 60.32875481300712, 62.28322095230064]

>  <Cp_T_units>  (2) 
cal/(mol*K)

>  <T_list>  (2) 
[300.0, 400.0, 500.0, 600.0, 800.0, 1000.0, 1500.0, 2000.0, 2400.0]

>  <T_units>  (2) 
K

>  <yaml_path>  (2) 
/home/calvin/Dropbox/PersonalFolders/Calvin/ATLAS_Converged/rmg_rxn_2538/output/Species/rmg_rxn_2538_p2_CSCC/rmg_rxn_2538_p2_CSCC.yml

>  <frequencies_cm1>  (2) 
[86.86049731268, 173.63172381619998, 227.43455379839997, 277.98929972423997, 356.053188842, 666.01517221616, 740.88591316012, 758.5958683004, 952.29292322164, 966.1504995974, 986.7445885720799, 1060.0221889218, 1079.9089784085197, 1272.4729807519598, 1296.60356716644, 1348.6278479507598, 1400.27444454248, 1452.28499135616, 1457.8541164506798, 1470.393231645, 1480.8997191846001, 1487.8971772256798, 3015.3687908505194, 3018.78854953988, 3025.31218559388, 3073.71756511456, 3086.881575973, 3099.52369594712, 3104.7151368490404, 3118.41477256244]

>  <ZPE_kJmol>  (2) 
272.4054138316235

>  <E_elec_kJmol>  (2) 
-1358296.787798538

>  <E0_minus_Eelec_plus_ZPE_kJmol>  (2) 
0.0

>  <rxn>  (2) 
rmg_rxn_2538

>  <species_type>  (2) 
p1

>  <species_folder>  (2) 
rmg_rxn_2538_p2_CSCC

>  <frequencies_cm1_list>  (2) 
[86.86049731268, 173.63172381619998, 227.43455379839997, 277.98929972423997, 356.053188842, 666.01517221616, 740.88591316012, 758.5958683004, 952.29292322164, 966.1504995974, 986.7445885720799, 1060.0221889218, 1079.9089784085197, 1272.4729807519598, 1296.60356716644, 1348.6278479507598, 1400.27444454248, 1452.28499135616, 1457.8541164506798, 1470.393231645, 1480.8997191846001, 1487.8971772256798, 3015.3687908505194, 3018.78854953988, 3025.31218559388, 3073.71756511456, 3086.881575973, 3099.52369594712, 3104.7151368490404, 3118.41477256244]

>  <E0_kJmol>  (2) 
-1.35802e+06

>  <H298_kJmol>  (2) 
-1.35801e+06

$$$$

     RDKit          3D

 24 22  0  0  0  0  0  0  0  0999 V2000
    1.8714    1.4056    0.5066 C   0  0  0  0  0  3  0  0  0  1  0  0
    2.3179    0.3355   -0.8209 S   0  0  0  0  0  0  0  0  0  2  0  0
    2.6869   -1.2045    0.0613 C   0  0  0  0  0  0  0  0  0  3  0  0
    1.4951   -1.8803    0.7192 C   0  0  0  0  0  0  0  0  0  4  0  0
    1.8961    2.4406    0.1746 H   0  0  0  0  0  0  0  0  0  5  0  0
    2.4613    1.2443    1.4075 H   0  0  0  0  0  0  0  0  0  6  0  0
    3.4640   -0.9780    0.7936 H   0  0  0  0  0  0  0  0  0  7  0  0
    3.1336   -1.8517   -0.6950 H   0  0  0  0  0  0  0  0  0  8  0  0
    0.7463   -2.1644   -0.0216 H   0  0  0  0  0  0  0  0  0  9  0  0
    1.8222   -2.7858    1.2344 H   0  0  0  0  0  0  0  0  0 10  0  0
    1.0146   -1.2266    1.4479 H   0  0  0  0  0  0  0  0  0 11  0  0
   -0.6244    0.9428    0.9735 N   0  0  0  0  0  0  0  0  0 12  0  0
   -0.8636    0.3399   -0.1522 N   0  0  0  0  0  0  0  0  0 13  0  0
   -2.0014   -0.1496   -0.5666 C   0  0  0  0  0  0  0  0  0 14  0  0
   -3.2116   -0.0351    0.2839 C   0  0  0  0  0  0  0  0  0 15  0  0
   -4.4496   -0.6371   -0.3656 C   0  0  0  0  0  0  0  0  0 16  0  0
    0.5887    1.2106    0.8868 H   0  0  0  0  0  0  0  0  0 17  0  0
   -0.0536    0.2127   -0.7802 H   0  0  0  0  0  0  0  0  0 18  0  0
   -1.9956   -0.6249   -1.5362 H   0  0  0  0  0  0  0  0  0 19  0  0
   -3.3763    1.0228    0.5259 H   0  0  0  0  0  0  0  0  0 20  0  0
   -3.0137   -0.5115    1.2530 H   0  0  0  0  0  0  0  0  0 21  0  0
   -4.6802   -0.1395   -1.3098 H   0  0  0  0  0  0  0  0  0 22  0  0
   -5.3182   -0.5364    0.2854 H   0  0  0  0  0  0  0  0  0 23  0  0
   -4.3087   -1.7002   -0.5723 H   0  0  0  0  0  0  0  0  0 24  0  0
  1  2  1  0
  1  5  1  0
  1  6  1  0
  2  3  1  0
  3  4  1  0
  3  8  1  0
  3  7  1  0
  4 10  1  0
  4 11  1  0
  4  9  1  0
 12 13  1  0
 12 17  1  0
 13 14  1  0
 13 18  1  0
 14 15  1  0
 14 19  1  0
 15 20  1  0
 15 16  1  0
 15 21  1  0
 16 22  1  0
 16 23  1  0
 16 24  1  0
M  RAD  1   1   2
M  END
>  <rmg_smiles>  (3) 
CC[CH]N[NH].[CH2]SCC

>  <rmg_adjacency_list>  (3) 
multiplicity 2
1  S u0 p2 c0 {5,S} {9,S}
2  N u0 p1 c0 {3,S} {8,S} {21,S}
3  N u0 p1 c0 {2,S} {24,S}
4  C u0 p0 c0 {6,S} {8,S} {10,S} {11,S}
5  C u0 p0 c0 {1,S} {7,S} {12,S} {13,S}
6  C u0 p0 c0 {4,S} {17,S} {18,S} {19,S}
7  C u0 p0 c0 {5,S} {14,S} {15,S} {16,S}
8  C u0 p0 c0 {2,S} {4,S} {20,S}
9  C u1 p0 c0 {1,S} {22,S} {23,S}
10 H u0 p0 c0 {4,S}
11 H u0 p0 c0 {4,S}
12 H u0 p0 c0 {5,S}
13 H u0 p0 c0 {5,S}
14 H u0 p0 c0 {7,S}
15 H u0 p0 c0 {7,S}
16 H u0 p0 c0 {7,S}
17 H u0 p0 c0 {6,S}
18 H u0 p0 c0 {6,S}
19 H u0 p0 c0 {6,S}
20 H u0 p0 c0 {8,S}
21 H u0 p0 c0 {2,S}
22 H u0 p0 c0 {9,S}
23 H u0 p0 c0 {9,S}
24 H u0 p0 c0 {3,S}


>  <multiplicity>  (3) 
2

>  <reaction>  (3) 
rmg_rxn_2538

>  <type>  (3) 
ts

>  <role_mapnums>  (3) 
{"*2": 17, "*1": 12, "*3": 1, "*0": 13, "*4": 2}

>  <role_mapidx>  (3) 
{"*2": 16, "*1": 11, "*3": 0, "*0": 12, "*4": 1}

>  <ordered_mapped_smiles>  (3) 
[C:1]([S:2][C:3]([C:4]([H:9])([H:10])[H:11])([H:7])[H:8])([H:5])[H:6].[NH:12]([N:13]([CH:14]([C:15]([C:16]([H:22])([H:23])[H:24])([H:20])[H:21])[H:19])[H:18])[H:17]

>  <mol_properties>  (3) 
{"0": {"label": "*3", "atom_type": "Cs"}, "1": {"label": "*4", "atom_type": "S2s"}, "11": {"label": "*1", "atom_type": "N3s"}, "12": {"label": "*0", "atom_type": "N3s"}, "16": {"label": "*2", "atom_type": "H0"}}

>  <level_of_theory>  (3) 
wb97xd/def2tzvp

>  <lot_method>  (3) 
wb97xd

>  <lot_basis>  (3) 
def2tzvp

>  <spin_multiplicity>  (3) 
2.0

>  <optical_isomers>  (3) 
2.0

>  <modes>  (3) 
IdealGasTranslation(mass=(147.096, 'amu')),         NonlinearRotor(             inertia = ([203.591, 949.051, 1022.04

>  <frequency_value>  (3) 
-1793.19

>  <frequency_units>  (3) 
cm^-1

>  <frequency_list>  (3) 
unknown

>  <arkane_path>  (3) 
/home/calvin/Dropbox/PersonalFolders/Calvin/ATLAS_Converged/rmg_rxn_2538/output/rxns/TS0/arkane/output.py

>  <path_exists>  (3) 
True

>  <E0_value>  (3) 
-1956120.0

>  <E0_units>  (3) 
kJ/mol

>  <thermo_class>  (3) 
unknown

>  <Cp0_value>  (3) 
unknown

>  <Cp0_units>  (3) 
unknown

>  <CpInf_value>  (3) 
unknown

>  <CpInf_units>  (3) 
unknown

>  <Tmin_value>  (3) 
unknown

>  <Tmin_units>  (3) 
unknown

>  <Tmax_value>  (3) 
unknown

>  <Tmax_units>  (3) 
unknown

>  <polynomials>  (3) 
unknown

>  <H298_value>  (3) 
unknown

>  <H298_units>  (3) 
unknown

>  <S298_value>  (3) 
unknown

>  <S298_units>  (3) 
unknown

>  <Cp_T_value_list>  (3) 
unknown

>  <Cp_T_units>  (3) 
unknown

>  <T_list>  (3) 
unknown

>  <T_units>  (3) 
unknown

>  <yaml_path>  (3) 
unknown

>  <frequencies_cm1>  (3) 
unknown

>  <ZPE_kJmol>  (3) 
unknown

>  <E_elec_kJmol>  (3) 
unknown

>  <E0_minus_Eelec_plus_ZPE_kJmol>  (3) 
unknown

>  <rxn>  (3) 
unknown

>  <species_type>  (3) 
unknown

>  <species_folder>  (3) 
unknown

>  <frequencies_cm1_list>  (3) 
[]

>  <ts_imag_freq_cm1>  (3) 
-1814.9711

>  <ts_freq_out_path>  (3) 
/home/calvin/Dropbox/PersonalFolders/Calvin/ATLAS_Converged/rmg_rxn_2538/output/rxns/TS0/geometry/freq.out

>  <E0_kJmol>  (3) 
-1.95612e+06

>  <H298_kJmol>  (3) 
unknown

$$$$

     RDKit          3D

 12 11  0  0  0  0  0  0  0  0999 V2000
    1.5035    1.1817    1.1767 N   0  0  0  0  0  2  0  0  0  1  0  0
    1.5580   -0.0511    0.8125 N   0  0  0  0  0  0  0  0  0  2  0  0
    0.8482   -0.7137   -0.0804 C   0  0  0  0  0  0  0  0  0  3  0  0
   -0.2212   -0.0125   -0.8376 C   0  0  0  0  0  0  0  0  0  4  0  0
   -1.4527    0.3302    0.0094 C   0  0  0  0  0  0  0  0  0  5  0  0
    2.2746   -0.5859    1.3051 H   0  0  0  0  0  0  0  0  0  6  0  0
    1.0804   -1.7613   -0.1832 H   0  0  0  0  0  0  0  0  0  7  0  0
    0.1929    0.9174   -1.2475 H   0  0  0  0  0  0  0  0  0  8  0  0
   -0.5138   -0.6336   -1.6852 H   0  0  0  0  0  0  0  0  0  9  0  0
   -1.1741    0.9508    0.8624 H   0  0  0  0  0  0  0  0  0 10  0  0
   -2.1844    0.8814   -0.5833 H   0  0  0  0  0  0  0  0  0 11  0  0
   -1.9295   -0.5758    0.3865 H   0  0  0  0  0  0  0  0  0 12  0  0
  1  2  1  0
  2  6  1  0
  2  3  1  0
  3  4  1  0
  3  7  1  0
  4  8  1  0
  4  5  1  0
  4  9  1  0
  5 11  1  0
  5 12  1  0
  5 10  1  0
M  RAD  1   1   2
M  END
>  <rmg_smiles>  (4) 
CC[CH]N[N]

>  <rmg_adjacency_list>  (4) 
multiplicity 2
1  N u0 p1 c0 {2,S} {5,S} {12,S}
2  N u1 p2 c0 {1,S}
3  C u0 p0 c0 {4,S} {5,S} {6,S} {7,S}
4  C u0 p0 c0 {3,S} {8,S} {9,S} {10,S}
5  C u0 p0 c0 {1,S} {3,S} {11,S}
6  H u0 p0 c0 {3,S}
7  H u0 p0 c0 {3,S}
8  H u0 p0 c0 {4,S}
9  H u0 p0 c0 {4,S}
10 H u0 p0 c0 {4,S}
11 H u0 p0 c0 {5,S}
12 H u0 p0 c0 {1,S}


>  <multiplicity>  (4) 
2

>  <reaction>  (4) 
rmg_rxn_2538

>  <type>  (4) 
r1

>  <role_mapnums>  (4) 
{}

>  <role_mapidx>  (4) 
{}

>  <ordered_mapped_smiles>  (4) 
[NH:1][N:2]([CH:3]([C:4]([C:5]([H:10])([H:11])[H:12])([H:8])[H:9])[H:7])[H:6]

>  <level_of_theory>  (4) 
wb97xd/def2tzvp

>  <lot_method>  (4) 
wb97xd

>  <lot_basis>  (4) 
def2tzvp

>  <spin_multiplicity>  (4) 
2.0

>  <optical_isomers>  (4) 
2.0

>  <modes>  (4) 
IdealGasTranslation(mass=(71.0609, 'amu')),         NonlinearRotor(             inertia = ([53.0504, 135.065, 165.702

>  <frequency_value>  (4) 
unknown

>  <frequency_units>  (4) 
unknown

>  <frequency_list>  (4) 
unknown

>  <arkane_path>  (4) 
/home/calvin/Dropbox/PersonalFolders/Calvin/ATLAS_Converged/rmg_rxn_2538/output/Species/rmg_rxn_2538_p1_sbr-N--sbrsbr-NHp-sbr=CCC/arkane/output.py

>  <path_exists>  (4) 
True

>  <E0_value>  (4) 
-598127.5170687066

>  <E0_units>  (4) 
kJ/mol

>  <thermo_class>  (4) 
NASA

>  <Cp0_value>  (4) 
33.257888

>  <Cp0_units>  (4) 
J/(mol*K)

>  <CpInf_value>  (4) 
282.692048

>  <CpInf_units>  (4) 
J/(mol*K)

>  <Tmin_value>  (4) 
10.0

>  <Tmin_units>  (4) 
K

>  <Tmax_value>  (4) 
3000.0

>  <Tmax_units>  (4) 
K

>  <polynomials>  (4) 
[{"name": "polynomial1", "class": "NASAPolynomial", "Tmin_value": 10.0, "Tmin_units": "K", "Tmax_value": 739.503368194945, "Tmax_units": "K", "coeffs": [3.8212379328585713, 0.016802345524941233, 4.7629930678069334e-05, -7.71171177955712e-08, 3.4166267074327374e-11, -71938122.51600246, 10.943747937860826]}, {"name": "polynomial2", "class": "NASAPolynomial", "Tmin_value": 739.503368194945, "Tmin_units": "K", "Tmax_value": 3000.0, "Tmax_units": "K", "coeffs": [1.2982406609696904, 0.04113558631063574, -2.3403213662420655e-05, 6.46061927743499e-09, -6.945186277157762e-13, -71938041.56017812, 20.378739096769376]}]

>  <H298_value>  (4) 
-142951.59456092006

>  <H298_units>  (4) 
kcal/mol

>  <S298_value>  (4) 
77.94371489467113

>  <S298_units>  (4) 
cal/(mol*K)

>  <Cp_T_value_list>  (4) 
[22.541320394993956, 28.023836364171633, 33.03859048742374, 37.39936756071001, 44.21934927606657, 49.27619118148097, 56.89964180189809, 60.667854136705095, 62.577682732751065]

>  <Cp_T_units>  (4) 
cal/(mol*K)

>  <T_list>  (4) 
[300.0, 400.0, 500.0, 600.0, 800.0, 1000.0, 1500.0, 2000.0, 2400.0]

>  <T_units>  (4) 
K

>  <yaml_path>  (4) 
/home/calvin/Dropbox/PersonalFolders/Calvin/ATLAS_Converged/rmg_rxn_2538/output/Species/rmg_rxn_2538_p1_sbr-N--sbrsbr-NHp-sbr=CCC/rmg_rxn_2538_p1_sbr-N--sbrsbr-NHp-sbr=CCC.yml

>  <frequencies_cm1>  (4) 
[108.841717322, 198.85416089656, 256.05614861216003, 294.31212382987997, 511.21958913272005, 575.24049327108, 667.51904200124, 801.3153839761201, 827.2931894416799, 887.88060092004, 1013.14128014216, 1072.8977863968, 1121.7838548898799, 1135.2019442051599, 1287.1133934542, 1337.173716437, 1345.67504426316, 1400.50105505804, 1452.9854238588, 1475.6464754148, 1488.28859538892, 1496.5701796848398, 1535.3961146841198, 2981.79609962104, 3018.4795352004803, 3067.0977912660796, 3094.0507086470793, 3099.5786318296796, 3217.4298338915196, 3404.94660202476]

>  <ZPE_kJmol>  (4) 
264.2209851653227

>  <E_elec_kJmol>  (4) 
-598391.7380538719

>  <E0_minus_Eelec_plus_ZPE_kJmol>  (4) 
0.0

>  <rxn>  (4) 
rmg_rxn_2538

>  <species_type>  (4) 
p0

>  <species_folder>  (4) 
rmg_rxn_2538_p1_sbr-N--sbrsbr-NHp-sbr=CCC

>  <frequencies_cm1_list>  (4) 
[108.841717322, 198.85416089656, 256.05614861216003, 294.31212382987997, 511.21958913272005, 575.24049327108, 667.51904200124, 801.3153839761201, 827.2931894416799, 887.88060092004, 1013.14128014216, 1072.8977863968, 1121.7838548898799, 1135.2019442051599, 1287.1133934542, 1337.173716437, 1345.67504426316, 1400.50105505804, 1452.9854238588, 1475.6464754148, 1488.28859538892, 1496.5701796848398, 1535.3961146841198, 2981.79609962104, 3018.4795352004803, 3067.0977912660796, 3094.0507086470793, 3099.5786318296796, 3217.4298338915196, 3404.94660202476]

>  <E0_kJmol>  (4) 
-598128

>  <H298_kJmol>  (4) 
-598109

$$$$

     RDKit          3D

 11 10  0  0  0  0  0  0  0  0999 V2000
    2.2312    0.7411   -0.3115 C   0  0  0  0  0  3  0  0  0  1  0  0
    0.6426    1.1039   -0.7896 S   0  0  0  0  0  0  0  0  0  2  0  0
    0.9085    2.4168   -2.0061 C   0  0  0  0  0  0  0  0  0  3  0  0
    1.5570    1.9429   -3.2967 C   0  0  0  0  0  0  0  0  0  4  0  0
    2.3707   -0.0938    0.3575 H   0  0  0  0  0  0  0  0  0  5  0  0
    3.0432    1.4267   -0.5066 H   0  0  0  0  0  0  0  0  0  6  0  0
    1.4997    3.2005   -1.5289 H   0  0  0  0  0  0  0  0  0  7  0  0
   -0.0844    2.8269   -2.1951 H   0  0  0  0  0  0  0  0  0  8  0  0
    0.9451    1.1830   -3.7838 H   0  0  0  0  0  0  0  0  0  9  0  0
    1.6803    2.7812   -3.9857 H   0  0  0  0  0  0  0  0  0 10  0  0
    2.5399    1.5119   -3.1043 H   0  0  0  0  0  0  0  0  0 11  0  0
  1  5  1  0
  1  2  1  0
  1  6  1  0
  2  3  1  0
  3  4  1  0
  3  7  1  0
  3  8  1  0
  4  9  1  0
  4 10  1  0
  4 11  1  0
M  RAD  1   1   2
M  END
>  <rmg_smiles>  (5) 
[CH2]SCC

>  <rmg_adjacency_list>  (5) 
multiplicity 2
1  S u0 p2 c0 {2,S} {4,S}
2  C u0 p0 c0 {1,S} {3,S} {5,S} {6,S}
3  C u0 p0 c0 {2,S} {7,S} {8,S} {9,S}
4  C u1 p0 c0 {1,S} {10,S} {11,S}
5  H u0 p0 c0 {2,S}
6  H u0 p0 c0 {2,S}
7  H u0 p0 c0 {3,S}
8  H u0 p0 c0 {3,S}
9  H u0 p0 c0 {3,S}
10 H u0 p0 c0 {4,S}
11 H u0 p0 c0 {4,S}


>  <multiplicity>  (5) 
2

>  <reaction>  (5) 
rmg_rxn_2538

>  <type>  (5) 
r2

>  <role_mapnums>  (5) 
{}

>  <role_mapidx>  (5) 
{}

>  <ordered_mapped_smiles>  (5) 
[C:1]([S:2][C:3]([C:4]([H:9])([H:10])[H:11])([H:7])[H:8])([H:5])[H:6]

>  <level_of_theory>  (5) 
wb97xd/def2tzvp

>  <lot_method>  (5) 
wb97xd

>  <lot_basis>  (5) 
def2tzvp

>  <spin_multiplicity>  (5) 
2.0

>  <optical_isomers>  (5) 
2.0

>  <modes>  (5) 
IdealGasTranslation(mass=(75.0268, 'amu')),         NonlinearRotor(             inertia = ([46.1764, 125.175, 150.124

>  <frequency_value>  (5) 
unknown

>  <frequency_units>  (5) 
unknown

>  <frequency_list>  (5) 
unknown

>  <arkane_path>  (5) 
/home/calvin/Dropbox/PersonalFolders/Calvin/ATLAS_Converged/rmg_rxn_2538/output/Species/rmg_rxn_2538_r1_sbr-CH2-sbrSCC/arkane/output.py

>  <path_exists>  (5) 
True

>  <E0_value>  (5) 
-1356326.828812391

>  <E0_units>  (5) 
kJ/mol

>  <thermo_class>  (5) 
NASA

>  <Cp0_value>  (5) 
33.257888

>  <Cp0_units>  (5) 
J/(mol*K)

>  <CpInf_value>  (5) 
257.748632

>  <CpInf_units>  (5) 
J/(mol*K)

>  <Tmin_value>  (5) 
10.0

>  <Tmin_units>  (5) 
K

>  <Tmax_value>  (5) 
3000.0

>  <Tmax_units>  (5) 
K

>  <polynomials>  (5) 
[{"name": "polynomial1", "class": "NASAPolynomial", "Tmin_value": 10.0, "Tmin_units": "K", "Tmax_value": 163.4983384736605, "Tmax_units": "K", "coeffs": [3.8835361135606306, 0.01179835617528283, 0.0001860962387176214, -8.310788830243038e-07, 1.2781022117046402e-09, -163128450.95392784, 10.667754233192833]}, {"name": "polynomial2", "class": "NASAPolynomial", "Tmin_value": 163.4983384736605, "Tmin_units": "K", "Tmax_value": 3000.0, "Tmax_units": "K", "coeffs": [2.9698107402056713, 0.03415257681811664, -1.8989116425627386e-05, 5.154010868808518e-09, -5.461082436872671e-13, -163128421.07521912, 13.421243662452813]}]

>  <H298_value>  (5) 
-324165.39986954443

>  <H298_units>  (5) 
kcal/mol

>  <S298_value>  (5) 
78.93032022623957

>  <S298_units>  (5) 
cal/(mol*K)

>  <Cp_T_value_list>  (5) 
[23.133663311616047, 27.638980468817827, 31.614348268428742, 35.109498731473295, 40.84505297373627, 45.19140833090281, 51.87260315815638, 55.269883733256364, 57.01130488605395]

>  <Cp_T_units>  (5) 
cal/(mol*K)

>  <T_list>  (5) 
[300.0, 400.0, 500.0, 600.0, 800.0, 1000.0, 1500.0, 2000.0, 2400.0]

>  <T_units>  (5) 
K

>  <yaml_path>  (5) 
/home/calvin/Dropbox/PersonalFolders/Calvin/ATLAS_Converged/rmg_rxn_2538/output/Species/rmg_rxn_2538_r1_sbr-CH2-sbrSCC/rmg_rxn_2538_r1_sbr-CH2-sbrSCC.yml

>  <frequencies_cm1>  (5) 
[110.60653254923999, 205.67307731931996, 220.086879506, 285.94813571012, 367.82320168047994, 369.88329727648, 670.6023184099199, 763.8628460408399, 854.34224461716, 913.1854418242399, 983.7231150312799, 1058.73119568164, 1076.4068158953198, 1269.6918516973599, 1295.3263078969198, 1396.0581155559998, 1402.33454013848, 1458.69188865972, 1476.6353213008802, 1485.0748462591598, 3018.4589342445192, 3035.15257555744, 3083.1459359589203, 3092.3408293024, 3109.00013568872, 3136.8045592493995, 3260.19741846448]

>  <ZPE_kJmol>  (5) 
235.6631361203891

>  <E_elec_kJmol>  (5) 
-1356562.4919485117

>  <E0_minus_Eelec_plus_ZPE_kJmol>  (5) 
0.0

>  <rxn>  (5) 
rmg_rxn_2538

>  <species_type>  (5) 
r0

>  <species_folder>  (5) 
rmg_rxn_2538_r1_sbr-CH2-sbrSCC

>  <frequencies_cm1_list>  (5) 
[110.60653254923999, 205.67307731931996, 220.086879506, 285.94813571012, 367.82320168047994, 369.88329727648, 670.6023184099199, 763.8628460408399, 854.34224461716, 913.1854418242399, 983.7231150312799, 1058.73119568164, 1076.4068158953198, 1269.6918516973599, 1295.3263078969198, 1396.0581155559998, 1402.33454013848, 1458.69188865972, 1476.6353213008802, 1485.0748462591598, 3018.4589342445192, 3035.15257555744, 3083.1459359589203, 3092.3408293024, 3109.00013568872, 3136.8045592493995, 3260.19741846448]

>  <E0_kJmol>  (5) 
-1.35633e+06

>  <H298_kJmol>  (5) 
-1.35631e+06

$$$$
