
     RDKit          3D

 17 16  0  0  0  0  0  0  0  0999 V2000
    2.3805    0.3683   -1.5417 C   0  0  0  0  0  0  0  0  0  1  0  0
    1.9991    0.9211   -0.2063 C   0  0  0  0  0  0  0  0  0  2  0  0
    0.8002    0.8234    0.3526 C   0  0  0  0  0  0  0  0  0  3  0  0
   -0.2455    0.2287   -0.2828 O   0  0  0  0  0  0  0  0  0  4  0  0
   -1.2112   -0.2766    0.6781 N   0  0  0  0  0  0  0  0  0  5  0  0
   -0.9282   -1.5537    1.0565 N   0  0  0  0  0  0  0  0  0  6  0  0
   -2.4877   -0.2016   -0.0050 C   0  0  0  0  0  0  0  0  0  7  0  0
    1.5931   -0.2703   -1.9423 H   0  0  0  0  0  0  0  0  0  8  0  0
    3.3027   -0.2125   -1.4682 H   0  0  0  0  0  0  0  0  0  9  0  0
    2.5588    1.1697   -2.2633 H   0  0  0  0  0  0  0  0  0 10  0  0
    2.7477    1.4736    0.3485 H   0  0  0  0  0  0  0  0  0 11  0  0
    0.5592    1.2347    1.3268 H   0  0  0  0  0  0  0  0  0 12  0  0
   -0.7946   -2.1400    0.2364 H   0  0  0  0  0  0  0  0  0 13  0  0
   -0.0004   -1.5580    1.4728 H   0  0  0  0  0  0  0  0  0 14  0  0
   -2.4926   -0.8179   -0.9118 H   0  0  0  0  0  0  0  0  0 15  0  0
   -2.6837    0.8347   -0.2689 H   0  0  0  0  0  0  0  0  0 16  0  0
   -3.2484   -0.5610    0.6835 H   0  0  0  0  0  0  0  0  0 17  0  0
  1 10  1  0
  1  8  1  0
  1  9  1  0
  1  2  1  0
  2 11  1  0
  2  3  1  0
  3  4  1  0
  3 12  1  0
  4  5  1  0
  5  6  1  0
  5  7  1  0
  6 14  1  0
  6 13  1  0
  7 17  1  0
  7 15  1  0
  7 16  1  0
M  END
>  <rmg_smiles>  (1) 
C[CH][CH]ON(N)C

>  <rmg_adjacency_list>  (1) 
1  O u0 p2 c0 {2,S} {7,S}
2  N u0 p1 c0 {1,S} {3,S} {4,S}
3  N u0 p1 c0 {2,S} {16,S} {17,S}
4  C u0 p0 c0 {2,S} {11,S} {12,S} {13,S}
5  C u0 p0 c0 {6,S} {8,S} {9,S} {10,S}
6  C u0 p0 c0 {5,S} {7,S} {14,S}
7  C u0 p0 c0 {1,S} {6,S} {15,S}
8  H u0 p0 c0 {5,S}
9  H u0 p0 c0 {5,S}
10 H u0 p0 c0 {5,S}
11 H u0 p0 c0 {4,S}
12 H u0 p0 c0 {4,S}
13 H u0 p0 c0 {4,S}
14 H u0 p0 c0 {6,S}
15 H u0 p0 c0 {7,S}
16 H u0 p0 c0 {3,S}
17 H u0 p0 c0 {3,S}


>  <multiplicity>  (1) 
1

>  <reaction>  (1) 
rmg_rxn_10668

>  <type>  (1) 
r1h

>  <role_mapnums>  (1) 
{"r1h_a": 6, "r1h_h": 13}

>  <role_mapidx>  (1) 
{"r1h_a": 5, "r1h_h": 12}

>  <ordered_mapped_smiles>  (1) 
[C:1]([CH:2]([CH:3]([O:4][N:5]([N:6]([H:13])[H:14])[C:7]([H:15])([H:16])[H:17])[H:12])[H:11])([H:8])([H:9])[H:10]

>  <mol_properties>  (1) 
{"5": {"label": "donator", "atom_type": "N3s"}, "12": {"label": "d_hydrogen", "atom_type": "H0"}}

>  <level_of_theory>  (1) 
wb97xd/def2tzvp

>  <lot_method>  (1) 
wb97xd

>  <lot_basis>  (1) 
def2tzvp

>  <spin_multiplicity>  (1) 
1.0

>  <optical_isomers>  (1) 
2.0

>  <modes>  (1) 
IdealGasTranslation(mass=(102.079, 'amu')),         NonlinearRotor(             inertia = ([85.6795, 376.18, 388.876

>  <frequency_value>  (1) 
unknown

>  <frequency_units>  (1) 
unknown

>  <frequency_list>  (1) 
unknown

>  <arkane_path>  (1) 
/home/calvin/Dropbox/PersonalFolders/Calvin/ZEUS_Converged/rmg_rxn_10668/output/Species/rmg_rxn_10668_r2_CC=CONrbr-N-rbrC/arkane/output.py

>  <path_exists>  (1) 
True

>  <E0_value>  (1) 
-900405.0494296006

>  <E0_units>  (1) 
kJ/mol

>  <thermo_class>  (1) 
NASA

>  <Cp0_value>  (1) 
33.257888

>  <Cp0_units>  (1) 
J/(mol*K)

>  <CpInf_value>  (1) 
407.409128

>  <CpInf_units>  (1) 
J/(mol*K)

>  <Tmin_value>  (1) 
10.0

>  <Tmin_units>  (1) 
K

>  <Tmax_value>  (1) 
3000.0

>  <Tmax_units>  (1) 
K

>  <polynomials>  (1) 
[{"name": "polynomial1", "class": "NASAPolynomial", "Tmin_value": 10.0, "Tmin_units": "K", "Tmax_value": 1108.736796573486, "Tmax_units": "K", "coeffs": [3.593482067657345, 0.04527343613148581, -7.853115807860651e-07, -2.043658609457127e-08, 8.18045447415304e-12, -108293714.18687978, 12.85162704751556]}, {"name": "polynomial2", "class": "NASAPolynomial", "Tmin_value": 1108.736796573486, "Tmin_units": "K", "Tmax_value": 3000.0, "Tmax_units": "K", "coeffs": [7.506038002578287, 0.046589931565087575, -2.3444009976697085e-05, 5.741145862751885e-09, -5.527118171710488e-13, -108295530.30298632, -10.705520626468415]}]

>  <H298_value>  (1) 
-215195.9362782153

>  <H298_units>  (1) 
kcal/mol

>  <S298_value>  (1) 
92.63660749241524

>  <S298_units>  (1) 
cal/(mol*K)

>  <Cp_T_value_list>  (1) 
[33.0259983327988, 40.69537554931736, 47.67423133324528, 53.89446290908325, 63.981717362233816, 71.19261681574156, 81.91300293988421, 87.42841994031997, 90.0449470406118]

>  <Cp_T_units>  (1) 
cal/(mol*K)

>  <T_list>  (1) 
[300.0, 400.0, 500.0, 600.0, 800.0, 1000.0, 1500.0, 2000.0, 2400.0]

>  <T_units>  (1) 
K

>  <yaml_path>  (1) 
/home/calvin/Dropbox/PersonalFolders/Calvin/ZEUS_Converged/rmg_rxn_10668/output/Species/rmg_rxn_10668_r2_CC=CONrbr-N-rbrC/rmg_rxn_10668_r2_CC=CONrbr-N-rbrC.yml

>  <frequencies_cm1>  (1) 
[42.90492427935999, 70.94969232623998, 121.85465450339998, 166.71666959895998, 253.87244728039994, 301.92074356444, 373.40606074563993, 419.64833989052, 445.81842094504, 504.72342102, 549.00174236336, 631.06908392268, 758.13578028396, 848.92419319968, 869.8822323963199, 938.1057315505199, 966.4663809221199, 985.6939398181199, 1045.86246519196, 1060.8324931895597, 1129.8319616849199, 1145.91444130436, 1177.50257377636, 1255.0720399510801, 1275.68672988172, 1357.8776771768, 1378.40309629828, 1417.9431977708398, 1431.4368239246398, 1469.8713407606797, 1474.3760831306, 1478.2284618951198, 1482.71260330908, 1665.8688357641197, 1738.5215404497199, 2975.03898606616, 3009.26404090104, 3062.7647235291597, 3097.66960991072, 3105.09968802696, 3145.0998775159596, 3146.5076095065597, 3168.9763854735997, 3405.2006804816, 3560.0443324622797]

>  <ZPE_kJmol>  (1) 
382.271003727177

>  <E_elec_kJmol>  (1) 
-900787.3204333278

>  <E0_minus_Eelec_plus_ZPE_kJmol>  (1) 
0.0

>  <rxn>  (1) 
rmg_rxn_10668

>  <species_type>  (1) 
r1

>  <species_folder>  (1) 
rmg_rxn_10668_r2_CC=CONrbr-N-rbrC

>  <frequencies_cm1_list>  (1) 
[42.90492427935999, 70.94969232623998, 121.85465450339998, 166.71666959895998, 253.87244728039994, 301.92074356444, 373.40606074563993, 419.64833989052, 445.81842094504, 504.72342102, 549.00174236336, 631.06908392268, 758.13578028396, 848.92419319968, 869.8822323963199, 938.1057315505199, 966.4663809221199, 985.6939398181199, 1045.86246519196, 1060.8324931895597, 1129.8319616849199, 1145.91444130436, 1177.50257377636, 1255.0720399510801, 1275.68672988172, 1357.8776771768, 1378.40309629828, 1417.9431977708398, 1431.4368239246398, 1469.8713407606797, 1474.3760831306, 1478.2284618951198, 1482.71260330908, 1665.8688357641197, 1738.5215404497199, 2975.03898606616, 3009.26404090104, 3062.7647235291597, 3097.66960991072, 3105.09968802696, 3145.0998775159596, 3146.5076095065597, 3168.9763854735997, 3405.2006804816, 3560.0443324622797]

>  <E0_kJmol>  (1) 
-900405

>  <H298_kJmol>  (1) 
-900380

$$$$

     RDKit          3D

 14 13  0  0  0  0  0  0  0  0999 V2000
   -2.3481   -0.2385   -1.0722 C   0  0  0  0  0  0  0  0  0  1  0  0
   -1.2499   -1.1991   -0.7044 C   0  0  0  0  0  0  0  0  0  2  0  0
    0.1048   -0.5620   -0.4841 C   0  0  0  0  0  0  0  0  0  3  0  0
    0.0653    0.2089    0.7284 O   0  0  0  0  0  0  0  0  0  4  0  0
    1.1785    0.8626    1.0509 C   0  0  0  0  0  0  0  0  0  5  0  0
    2.2031    0.8441    0.4347 O   0  0  0  0  0  0  0  0  0  6  0  0
   -3.3065   -0.7068   -1.2858 H   0  0  0  0  0  0  0  0  0  7  0  0
   -2.0778    0.5194   -1.8046 H   0  0  0  0  0  0  0  0  0  8  0  0
   -1.1215   -1.9300   -1.5132 H   0  0  0  0  0  0  0  0  0  9  0  0
   -1.5249   -1.7789    0.1814 H   0  0  0  0  0  0  0  0  0 10  0  0
    0.3746    0.1004   -1.3090 H   0  0  0  0  0  0  0  0  0 11  0  0
    0.8864   -1.3169   -0.3865 H   0  0  0  0  0  0  0  0  0 12  0  0
    1.0181    1.4211    1.9816 H   0  0  0  0  0  0  0  0  0 13  0  0
   -2.6082    0.3416   -0.1893 H   0  0  0  0  0  0  0  0  0 14  0  0
  1  8  1  0
  1  7  1  0
  1 14  1  0
  1  2  1  0
  2 10  1  0
  2  9  1  0
  2  3  1  0
  3 11  1  0
  3  4  1  0
  3 12  1  0
  4  5  1  0
  5 13  1  0
  5  6  1  0
M  END
>  <rmg_smiles>  (2) 
CCCO[CH]O

>  <rmg_adjacency_list>  (2) 
1  O u0 p2 c0 {4,S} {6,S}
2  O u0 p2 c0 {6,S}
3  C u0 p0 c0 {4,S} {5,S} {7,S} {8,S}
4  C u0 p0 c0 {1,S} {3,S} {9,S} {10,S}
5  C u0 p0 c0 {3,S} {11,S} {12,S} {13,S}
6  C u0 p0 c0 {1,S} {2,S} {14,S}
7  H u0 p0 c0 {3,S}
8  H u0 p0 c0 {3,S}
9  H u0 p0 c0 {4,S}
10 H u0 p0 c0 {4,S}
11 H u0 p0 c0 {5,S}
12 H u0 p0 c0 {5,S}
13 H u0 p0 c0 {5,S}
14 H u0 p0 c0 {6,S}


>  <multiplicity>  (2) 
1

>  <reaction>  (2) 
rmg_rxn_10668

>  <type>  (2) 
r2h

>  <role_mapnums>  (2) 
{"r2h_a": 1, "r2h_h": 14}

>  <role_mapidx>  (2) 
{"r2h_a": 0, "r2h_h": 13}

>  <ordered_mapped_smiles>  (2) 
[C:1]([C:2]([C:3]([O:4][CH:5]([OH:6])[H:13])([H:11])[H:12])([H:9])[H:10])([H:7])([H:8])[H:14]

>  <mol_properties>  (2) 
{"0": {"label": "acceptor", "atom_type": "Cs"}, "13": {"label": "a_hydrogen", "atom_type": "H0"}}

>  <level_of_theory>  (2) 
wb97xd/def2tzvp

>  <lot_method>  (2) 
wb97xd

>  <lot_basis>  (2) 
def2tzvp

>  <spin_multiplicity>  (2) 
1.0

>  <optical_isomers>  (2) 
2.0

>  <modes>  (2) 
IdealGasTranslation(mass=(88.0524, 'amu')),         NonlinearRotor(             inertia = ([48.3633, 284.16, 302.217

>  <frequency_value>  (2) 
unknown

>  <frequency_units>  (2) 
unknown

>  <frequency_list>  (2) 
unknown

>  <arkane_path>  (2) 
/home/calvin/Dropbox/PersonalFolders/Calvin/ZEUS_Converged/rmg_rxn_10668/output/Species/rmg_rxn_10668_p1_CCCOC=O/arkane/output.py

>  <path_exists>  (2) 
True

>  <E0_value>  (2) 
-807618.4108643779

>  <E0_units>  (2) 
kJ/mol

>  <thermo_class>  (2) 
NASA

>  <Cp0_value>  (2) 
33.257888

>  <Cp0_units>  (2) 
J/(mol*K)

>  <CpInf_value>  (2) 
332.57888

>  <CpInf_units>  (2) 
J/(mol*K)

>  <Tmin_value>  (2) 
10.0

>  <Tmin_units>  (2) 
K

>  <Tmax_value>  (2) 
3000.0

>  <Tmax_units>  (2) 
K

>  <polynomials>  (2) 
[{"name": "polynomial1", "class": "NASAPolynomial", "Tmin_value": 10.0, "Tmin_units": "K", "Tmax_value": 405.10744411587814, "Tmax_units": "K", "coeffs": [3.6051186443860916, 0.0433857404928104, -0.00011712945642388352, 3.5153974457342437e-07, -3.3677062560376364e-10, -97134056.76009497, 11.602927682630103]}, {"name": "polynomial2", "class": "NASAPolynomial", "Tmin_value": 405.10744411587814, "Tmin_units": "K", "Tmax_value": 3000.0, "Tmax_units": "K", "coeffs": [-0.7474451635456619, 0.053294207334936367, -3.1374616587479094e-05, 8.91792929927193e-09, -9.826468132408713e-13, -97133432.76263109, 32.017607916268844]}]

>  <H298_value>  (2) 
-193020.456463745

>  <H298_units>  (2) 
kcal/mol

>  <S298_value>  (2) 
84.07242684194651

>  <S298_units>  (2) 
cal/(mol*K)

>  <Cp_T_value_list>  (2) 
[25.521535606004147, 31.985911797342972, 37.97418499098442, 43.188235042536576, 51.611039182396816, 57.842470286699886, 67.01722850328892, 71.46707694187613, 73.76600476206598]

>  <Cp_T_units>  (2) 
cal/(mol*K)

>  <T_list>  (2) 
[300.0, 400.0, 500.0, 600.0, 800.0, 1000.0, 1500.0, 2000.0, 2400.0]

>  <T_units>  (2) 
K

>  <yaml_path>  (2) 
/home/calvin/Dropbox/PersonalFolders/Calvin/ZEUS_Converged/rmg_rxn_10668/output/Species/rmg_rxn_10668_p1_CCCOC=O/rmg_rxn_10668_p1_CCCOC=O.yml

>  <frequencies_cm1>  (2) 
[46.4551556898, 126.02978157796, 189.48759292007998, 250.07500439844, 297.16878972300003, 346.86516248384, 461.00819247287995, 761.5486719879999, 784.73161442832, 897.4257105148399, 914.51763697632, 942.4594002434001, 1045.6633226176798, 1075.20509346432, 1123.17098592452, 1166.94801733952, 1239.2985746710401, 1272.15709942724, 1302.4817066003598, 1370.97301818204, 1394.12849268108, 1404.8547237509197, 1411.8865167186, 1469.7752029661997, 1483.13835639892, 1494.14613386688, 1498.0465815286398, 1809.5330356438396, 3017.80657063912, 3018.8022835105194, 3022.331913965, 3030.1602772297992, 3060.8351006542393, 3080.8180279354397, 3091.29704753376, 3102.77178000348]

>  <ZPE_kJmol>  (2) 
311.0531007319138

>  <E_elec_kJmol>  (2) 
-807929.4639651098

>  <E0_minus_Eelec_plus_ZPE_kJmol>  (2) 
0.0

>  <rxn>  (2) 
rmg_rxn_10668

>  <species_type>  (2) 
p0

>  <species_folder>  (2) 
rmg_rxn_10668_p1_CCCOC=O

>  <frequencies_cm1_list>  (2) 
[46.4551556898, 126.02978157796, 189.48759292007998, 250.07500439844, 297.16878972300003, 346.86516248384, 461.00819247287995, 761.5486719879999, 784.73161442832, 897.4257105148399, 914.51763697632, 942.4594002434001, 1045.6633226176798, 1075.20509346432, 1123.17098592452, 1166.94801733952, 1239.2985746710401, 1272.15709942724, 1302.4817066003598, 1370.97301818204, 1394.12849268108, 1404.8547237509197, 1411.8865167186, 1469.7752029661997, 1483.13835639892, 1494.14613386688, 1498.0465815286398, 1809.5330356438396, 3017.80657063912, 3018.8022835105194, 3022.331913965, 3030.1602772297992, 3060.8351006542393, 3080.8180279354397, 3091.29704753376, 3102.77178000348]

>  <E0_kJmol>  (2) 
-807618

>  <H298_kJmol>  (2) 
-807598

$$$$

     RDKit          3D

 30 28  0  0  0  0  0  0  0  0999 V2000
   -1.3349   -1.7241   -1.0337 C   0  0  0  0  0  3  0  0  0  1  0  0
   -0.2366   -2.6847   -0.6659 C   0  0  0  0  0  0  0  0  0  2  0  0
    1.1180   -2.0477   -0.4456 C   0  0  0  0  0  0  0  0  0  3  0  0
    1.0785   -1.2767    0.7669 O   0  0  0  0  0  0  0  0  0  4  0  0
    2.1917   -0.6230    1.0894 C   0  0  0  0  0  0  0  0  0  5  0  0
    3.2163   -0.6416    0.4732 O   0  0  0  0  0  0  0  0  0  6  0  0
   -2.2932   -2.1925   -1.2473 H   0  0  0  0  0  0  0  0  0  7  0  0
   -1.0645   -0.9663   -1.7661 H   0  0  0  0  0  0  0  0  0  8  0  0
   -0.1083   -3.4156   -1.4747 H   0  0  0  0  0  0  0  0  0  9  0  0
   -0.5117   -3.2645    0.2199 H   0  0  0  0  0  0  0  0  0 10  0  0
    1.3879   -1.3853   -1.2705 H   0  0  0  0  0  0  0  0  0 11  0  0
    1.8997   -2.8025   -0.3480 H   0  0  0  0  0  0  0  0  0 12  0  0
    2.0314   -0.0645    2.0200 H   0  0  0  0  0  0  0  0  0 13  0  0
    1.4761    1.6496   -1.5079 C   0  0  0  0  0  0  0  0  0 14  0  0
    1.0946    2.2024   -0.1726 C   0  0  0  0  0  0  0  0  0 15  0  0
   -0.1043    2.1047    0.3863 C   0  0  0  0  0  0  0  0  0 16  0  0
   -1.1500    1.5100   -0.2491 O   0  0  0  0  0  0  0  0  0 17  0  0
   -2.1156    1.0046    0.7118 N   0  0  0  0  0  0  0  0  0 18  0  0
   -1.8327   -0.2724    1.0902 N   0  0  0  0  0  0  0  0  0 19  0  0
   -3.3921    1.0797    0.0287 C   0  0  0  0  0  0  0  0  0 20  0  0
    0.6886    1.0109   -1.9085 H   0  0  0  0  0  0  0  0  0 21  0  0
    2.3982    1.0688   -1.4345 H   0  0  0  0  0  0  0  0  0 22  0  0
    1.6543    2.4510   -2.2296 H   0  0  0  0  0  0  0  0  0 23  0  0
    1.8432    2.7549    0.3823 H   0  0  0  0  0  0  0  0  0 24  0  0
   -0.3453    2.5160    1.3605 H   0  0  0  0  0  0  0  0  0 25  0  0
   -1.6744   -0.9671    0.1186 H   0  0  0  0  0  0  0  0  0 26  0  0
   -0.9049   -0.2767    1.5065 H   0  0  0  0  0  0  0  0  0 27  0  0
   -3.3971    0.4634   -0.8781 H   0  0  0  0  0  0  0  0  0 28  0  0
   -3.5882    2.1160   -0.2352 H   0  0  0  0  0  0  0  0  0 29  0  0
   -4.1529    0.7203    0.7172 H   0  0  0  0  0  0  0  0  0 30  0  0
  1  7  1  0
  1  8  1  0
  1  2  1  0
  2  3  1  0
  2 10  1  0
  2  9  1  0
  3  4  1  0
  3 12  1  0
  3 11  1  0
  4  5  1  0
  5 13  1  0
  5  6  1  0
 14 15  1  0
 14 23  1  0
 14 22  1  0
 14 21  1  0
 15 16  1  0
 15 24  1  0
 16 17  1  0
 16 25  1  0
 17 18  1  0
 18 19  1  0
 18 20  1  0
 19 26  1  0
 19 27  1  0
 20 30  1  0
 20 29  1  0
 20 28  1  0
M  RAD  1   1   2
M  END
>  <rmg_smiles>  (3) 
C[CH][CH]ON(N)C.[CH2]CCO[CH][O]

>  <rmg_adjacency_list>  (3) 
multiplicity 2
1  O u0 p2 c0 {7,S} {13,S}
2  O u0 p2 c0 {4,S} {11,S}
3  O u0 p2 c0 {13,S}
4  N u0 p1 c0 {2,S} {5,S} {8,S}
5  N u0 p1 c0 {4,S} {28,S} {29,S}
6  C u0 p0 c0 {7,S} {12,S} {14,S} {15,S}
7  C u0 p0 c0 {1,S} {6,S} {16,S} {17,S}
8  C u0 p0 c0 {4,S} {21,S} {22,S} {23,S}
9  C u0 p0 c0 {10,S} {18,S} {19,S} {20,S}
10 C u0 p0 c0 {9,S} {11,S} {24,S}
11 C u0 p0 c0 {2,S} {10,S} {27,S}
12 C u1 p0 c0 {6,S} {25,S} {26,S}
13 C u0 p0 c0 {1,S} {3,S} {30,S}
14 H u0 p0 c0 {6,S}
15 H u0 p0 c0 {6,S}
16 H u0 p0 c0 {7,S}
17 H u0 p0 c0 {7,S}
18 H u0 p0 c0 {9,S}
19 H u0 p0 c0 {9,S}
20 H u0 p0 c0 {9,S}
21 H u0 p0 c0 {8,S}
22 H u0 p0 c0 {8,S}
23 H u0 p0 c0 {8,S}
24 H u0 p0 c0 {10,S}
25 H u0 p0 c0 {12,S}
26 H u0 p0 c0 {12,S}
27 H u0 p0 c0 {11,S}
28 H u0 p0 c0 {5,S}
29 H u0 p0 c0 {5,S}
30 H u0 p0 c0 {13,S}


>  <multiplicity>  (3) 
2

>  <reaction>  (3) 
rmg_rxn_10668

>  <type>  (3) 
ts

>  <role_mapnums>  (3) 
{"*2": 26, "*1": 19, "*3": 1, "*0": 18, "*4": 2}

>  <role_mapidx>  (3) 
{"*2": 25, "*1": 18, "*3": 0, "*0": 17, "*4": 1}

>  <ordered_mapped_smiles>  (3) 
[C:1]([C:2]([C:3]([O:4][CH:5]([OH:6])[H:13])([H:11])[H:12])([H:9])[H:10])([H:7])[H:8].[C:14]([CH:15]([CH:16]([O:17][N:18]([N:19]([H:26])[H:27])[C:20]([H:28])([H:29])[H:30])[H:25])[H:24])([H:21])([H:22])[H:23]

>  <mol_properties>  (3) 
{"0": {"label": "*3", "atom_type": "Cs"}, "1": {"label": "*4", "atom_type": "Cs"}, "17": {"label": "*0", "atom_type": "N3s"}, "18": {"label": "*1", "atom_type": "N3s"}, "25": {"label": "*2", "atom_type": "H0"}}

>  <level_of_theory>  (3) 
wb97xd/def2tzvp

>  <lot_method>  (3) 
wb97xd

>  <lot_basis>  (3) 
def2tzvp

>  <spin_multiplicity>  (3) 
2.0

>  <optical_isomers>  (3) 
2.0

>  <modes>  (3) 
IdealGasTranslation(mass=(189.124, 'amu')),         NonlinearRotor(             inertia = ([571.489, 839.347, 1149.27

>  <frequency_value>  (3) 
-1806.79

>  <frequency_units>  (3) 
cm^-1

>  <frequency_list>  (3) 
unknown

>  <arkane_path>  (3) 
/home/calvin/Dropbox/PersonalFolders/Calvin/ZEUS_Converged/rmg_rxn_10668/output/rxns/TS0/arkane/output.py

>  <path_exists>  (3) 
True

>  <E0_value>  (3) 
-1706270.0

>  <E0_units>  (3) 
kJ/mol

>  <thermo_class>  (3) 
unknown

>  <Cp0_value>  (3) 
unknown

>  <Cp0_units>  (3) 
unknown

>  <CpInf_value>  (3) 
unknown

>  <CpInf_units>  (3) 
unknown

>  <Tmin_value>  (3) 
unknown

>  <Tmin_units>  (3) 
unknown

>  <Tmax_value>  (3) 
unknown

>  <Tmax_units>  (3) 
unknown

>  <polynomials>  (3) 
unknown

>  <H298_value>  (3) 
unknown

>  <H298_units>  (3) 
unknown

>  <S298_value>  (3) 
unknown

>  <S298_units>  (3) 
unknown

>  <Cp_T_value_list>  (3) 
unknown

>  <Cp_T_units>  (3) 
unknown

>  <T_list>  (3) 
unknown

>  <T_units>  (3) 
unknown

>  <yaml_path>  (3) 
unknown

>  <frequencies_cm1>  (3) 
unknown

>  <ZPE_kJmol>  (3) 
unknown

>  <E_elec_kJmol>  (3) 
unknown

>  <E0_minus_Eelec_plus_ZPE_kJmol>  (3) 
unknown

>  <rxn>  (3) 
unknown

>  <species_type>  (3) 
unknown

>  <species_folder>  (3) 
unknown

>  <frequencies_cm1_list>  (3) 
[]

>  <ts_imag_freq_cm1>  (3) 
-1828.7317

>  <ts_freq_out_path>  (3) 
/home/calvin/Dropbox/PersonalFolders/Calvin/ZEUS_Converged/rmg_rxn_10668/output/rxns/TS0/geometry/freq.out

>  <E0_kJmol>  (3) 
-1.70627e+06

>  <H298_kJmol>  (3) 
unknown

$$$$

     RDKit          3D

 16 15  0  0  0  0  0  0  0  0999 V2000
   -2.7163    0.6711   -0.2082 C   0  0  0  0  0  0  0  0  0  1  0  0
   -2.0604   -0.6699   -0.1371 C   0  0  0  0  0  0  0  0  0  2  0  0
   -1.8776   -1.4967   -1.1546 C   0  0  0  0  0  0  0  0  0  3  0  0
   -2.2450   -1.1612   -2.4322 O   0  0  0  0  0  0  0  0  0  4  0  0
   -2.5108   -2.3329   -3.2086 N   0  0  0  0  0  0  0  0  0  5  0  0
   -2.0229   -2.3050   -4.4233 N   0  0  0  0  0  2  0  0  0  6  0  0
   -3.9082   -2.7128   -3.0828 C   0  0  0  0  0  0  0  0  0  7  0  0
   -3.4812    0.7676    0.5653 H   0  0  0  0  0  0  0  0  0  8  0  0
   -3.1809    0.8365   -1.1792 H   0  0  0  0  0  0  0  0  0  9  0  0
   -1.9897    1.4706   -0.0417 H   0  0  0  0  0  0  0  0  0 10  0  0
   -1.6717   -0.9974    0.8197 H   0  0  0  0  0  0  0  0  0 11  0  0
   -1.3990   -2.4648   -1.0638 H   0  0  0  0  0  0  0  0  0 12  0  0
   -1.1779   -1.7364   -4.3793 H   0  0  0  0  0  0  0  0  0 13  0  0
   -4.5563   -1.9305   -3.4853 H   0  0  0  0  0  0  0  0  0 14  0  0
   -4.1357   -2.8800   -2.0315 H   0  0  0  0  0  0  0  0  0 15  0  0
   -4.0457   -3.6333   -3.6440 H   0  0  0  0  0  0  0  0  0 16  0  0
  1 10  1  0
  1  8  1  0
  1  9  1  0
  1  2  1  0
  2 11  1  0
  2  3  1  0
  3  4  1  0
  3 12  1  0
  4  5  1  0
  5  6  1  0
  5  7  1  0
  6 13  1  0
  7 14  1  0
  7 15  1  0
  7 16  1  0
M  RAD  1   6   2
M  END
>  <rmg_smiles>  (4) 
C[CH][CH]ON([NH])C

>  <rmg_adjacency_list>  (4) 
multiplicity 2
1  O u0 p2 c0 {2,S} {7,S}
2  N u0 p1 c0 {1,S} {3,S} {5,S}
3  N u1 p1 c0 {2,S} {16,S}
4  C u0 p0 c0 {6,S} {8,S} {9,S} {10,S}
5  C u0 p0 c0 {2,S} {11,S} {12,S} {13,S}
6  C u0 p0 c0 {4,S} {7,S} {14,S}
7  C u0 p0 c0 {1,S} {6,S} {15,S}
8  H u0 p0 c0 {4,S}
9  H u0 p0 c0 {4,S}
10 H u0 p0 c0 {4,S}
11 H u0 p0 c0 {5,S}
12 H u0 p0 c0 {5,S}
13 H u0 p0 c0 {5,S}
14 H u0 p0 c0 {6,S}
15 H u0 p0 c0 {7,S}
16 H u0 p0 c0 {3,S}


>  <multiplicity>  (4) 
2

>  <reaction>  (4) 
rmg_rxn_10668

>  <type>  (4) 
r1

>  <role_mapnums>  (4) 
{}

>  <role_mapidx>  (4) 
{}

>  <ordered_mapped_smiles>  (4) 
[C:1]([CH:2]([CH:3]([O:4][N:5]([N:6][H:13])[C:7]([H:14])([H:15])[H:16])[H:12])[H:11])([H:8])([H:9])[H:10]

>  <level_of_theory>  (4) 
wb97xd/def2tzvp

>  <lot_method>  (4) 
wb97xd

>  <lot_basis>  (4) 
def2tzvp

>  <spin_multiplicity>  (4) 
2.0

>  <optical_isomers>  (4) 
2.0

>  <modes>  (4) 
IdealGasTranslation(mass=(101.071, 'amu')),         NonlinearRotor(             inertia = ([82.2482, 367.276, 386.349

>  <frequency_value>  (4) 
unknown

>  <frequency_units>  (4) 
unknown

>  <frequency_list>  (4) 
unknown

>  <arkane_path>  (4) 
/home/calvin/Dropbox/PersonalFolders/Calvin/ZEUS_Converged/rmg_rxn_10668/output/Species/rmg_rxn_10668_p2_CC=CONrbr-sbr-NH-sbr-rbrC/arkane/output.py

>  <path_exists>  (4) 
True

>  <E0_value>  (4) 
-898742.9185377804

>  <E0_units>  (4) 
kJ/mol

>  <thermo_class>  (4) 
NASA

>  <Cp0_value>  (4) 
33.257888

>  <Cp0_units>  (4) 
J/(mol*K)

>  <CpInf_value>  (4) 
382.465712

>  <CpInf_units>  (4) 
J/(mol*K)

>  <Tmin_value>  (4) 
10.0

>  <Tmin_units>  (4) 
K

>  <Tmax_value>  (4) 
3000.0

>  <Tmax_units>  (4) 
K

>  <polynomials>  (4) 
[{"name": "polynomial1", "class": "NASAPolynomial", "Tmin_value": 10.0, "Tmin_units": "K", "Tmax_value": 1230.351550791476, "Tmax_units": "K", "coeffs": [3.636448192617725, 0.046012269057782156, -1.0447598723861432e-05, -9.397618320350448e-09, 4.2997715161361366e-12, -108093806.20736969, 13.356245971953898]}, {"name": "polynomial2", "class": "NASAPolynomial", "Tmin_value": 1230.351550791476, "Tmin_units": "K", "Tmax_value": 3000.0, "Tmax_units": "K", "coeffs": [10.637798077256372, 0.03762876756034826, -1.7756617991574368e-05, 4.0613531266158274e-09, -3.6506325325576807e-13, -108096617.32351352, -26.295285854594052]}]

>  <H298_value>  (4) 
-214798.71695714595

>  <H298_units>  (4) 
kcal/mol

>  <S298_value>  (4) 
93.88909266705956

>  <S298_units>  (4) 
cal/(mol*K)

>  <Cp_T_value_list>  (4) 
[32.353584800793946, 39.50241933237663, 45.9535869024618, 51.687318427953755, 61.025931419689, 67.77024327047224, 77.47619958424356, 82.5061792663907, 84.85559276208323]

>  <Cp_T_units>  (4) 
cal/(mol*K)

>  <T_list>  (4) 
[300.0, 400.0, 500.0, 600.0, 800.0, 1000.0, 1500.0, 2000.0, 2400.0]

>  <T_units>  (4) 
K

>  <yaml_path>  (4) 
/home/calvin/Dropbox/PersonalFolders/Calvin/ZEUS_Converged/rmg_rxn_10668/output/Species/rmg_rxn_10668_p2_CC=CONrbr-sbr-NH-sbr-rbrC/rmg_rxn_10668_p2_CC=CONrbr-sbr-NH-sbr-rbrC.yml

>  <frequencies_cm1>  (4) 
[39.766711988119994, 75.63297631448, 123.26238649399998, 170.50724549560002, 210.75464645612, 275.49658405307997, 409.25172411604, 436.20464149704003, 468.50694044231994, 500.21867865008005, 576.8748357772399, 635.10687129084, 759.24136492048, 839.57822617916, 939.32118795216, 961.2680730348799, 1009.44684204, 1040.7534281138799, 1058.9372052412398, 1116.31086758984, 1136.6302771517198, 1158.60463017572, 1269.5201770643598, 1302.9417946168, 1381.1704913822398, 1418.63676328816, 1428.2162078095598, 1447.1828212633998, 1467.8867820031996, 1473.94346305544, 1477.12974424392, 1484.2920099326798, 1743.06061774624, 3013.6108426086, 3018.15678689044, 3068.4780553153996, 3106.953774063359, 3110.6619461361597, 3147.0088994349203, 3149.9479691518795, 3171.6476427630796, 3452.55541124832]

>  <ZPE_kJmol>  (4) 
347.3638170215182

>  <E_elec_kJmol>  (4) 
-899090.2823548019

>  <E0_minus_Eelec_plus_ZPE_kJmol>  (4) 
0.0

>  <rxn>  (4) 
rmg_rxn_10668

>  <species_type>  (4) 
p1

>  <species_folder>  (4) 
rmg_rxn_10668_p2_CC=CONrbr-sbr-NH-sbr-rbrC

>  <frequencies_cm1_list>  (4) 
[39.766711988119994, 75.63297631448, 123.26238649399998, 170.50724549560002, 210.75464645612, 275.49658405307997, 409.25172411604, 436.20464149704003, 468.50694044231994, 500.21867865008005, 576.8748357772399, 635.10687129084, 759.24136492048, 839.57822617916, 939.32118795216, 961.2680730348799, 1009.44684204, 1040.7534281138799, 1058.9372052412398, 1116.31086758984, 1136.6302771517198, 1158.60463017572, 1269.5201770643598, 1302.9417946168, 1381.1704913822398, 1418.63676328816, 1428.2162078095598, 1447.1828212633998, 1467.8867820031996, 1473.94346305544, 1477.12974424392, 1484.2920099326798, 1743.06061774624, 3013.6108426086, 3018.15678689044, 3068.4780553153996, 3106.953774063359, 3110.6619461361597, 3147.0088994349203, 3149.9479691518795, 3171.6476427630796, 3452.55541124832]

>  <E0_kJmol>  (4) 
-898743

>  <H298_kJmol>  (4) 
-898718

$$$$

     RDKit          3D

 13 12  0  0  0  0  0  0  0  0999 V2000
   -1.5801    1.1066    0.0514 C   0  0  0  0  0  3  0  0  0  1  0  0
   -0.9927   -0.2392    0.2618 C   0  0  0  0  0  0  0  0  0  2  0  0
   -1.7553   -1.0998    1.2550 C   0  0  0  0  0  0  0  0  0  3  0  0
   -1.8362   -0.4776    2.5484 O   0  0  0  0  0  0  0  0  0  4  0  0
   -0.7919   -0.6298    3.3579 C   0  0  0  0  0  0  0  0  0  5  0  0
    0.2062   -1.2441    3.1188 O   0  0  0  0  0  0  0  0  0  6  0  0
   -1.2814    1.7056   -0.7974 H   0  0  0  0  0  0  0  0  0  7  0  0
   -2.2054    1.5630    0.8065 H   0  0  0  0  0  0  0  0  0  8  0  0
    0.0499   -0.1626    0.6013 H   0  0  0  0  0  0  0  0  0  9  0  0
   -0.9457   -0.7884   -0.6852 H   0  0  0  0  0  0  0  0  0 10  0  0
   -1.2846   -2.0771    1.3590 H   0  0  0  0  0  0  0  0  0 11  0  0
   -2.7927   -1.2238    0.9481 H   0  0  0  0  0  0  0  0  0 12  0  0
   -0.9867   -0.1021    4.3012 H   0  0  0  0  0  0  0  0  0 13  0  0
  1  8  1  0
  1  7  1  0
  1  2  1  0
  2 10  1  0
  2  9  1  0
  2  3  1  0
  3 11  1  0
  3  4  1  0
  3 12  1  0
  4  5  1  0
  5 13  1  0
  5  6  1  0
M  RAD  1   1   2
M  END
>  <rmg_smiles>  (5) 
[CH2]CCO[CH]O

>  <rmg_adjacency_list>  (5) 
multiplicity 2
1  O u0 p2 c0 {4,S} {6,S}
2  O u0 p2 c0 {6,S}
3  C u0 p0 c0 {4,S} {5,S} {7,S} {8,S}
4  C u0 p0 c0 {1,S} {3,S} {9,S} {10,S}
5  C u1 p0 c0 {3,S} {11,S} {12,S}
6  C u0 p0 c0 {1,S} {2,S} {13,S}
7  H u0 p0 c0 {3,S}
8  H u0 p0 c0 {3,S}
9  H u0 p0 c0 {4,S}
10 H u0 p0 c0 {4,S}
11 H u0 p0 c0 {5,S}
12 H u0 p0 c0 {5,S}
13 H u0 p0 c0 {6,S}


>  <multiplicity>  (5) 
2

>  <reaction>  (5) 
rmg_rxn_10668

>  <type>  (5) 
r2

>  <role_mapnums>  (5) 
{}

>  <role_mapidx>  (5) 
{}

>  <ordered_mapped_smiles>  (5) 
[C:1]([C:2]([C:3]([O:4][CH:5]([OH:6])[H:13])([H:11])[H:12])([H:9])[H:10])([H:7])[H:8]

>  <level_of_theory>  (5) 
wb97xd/def2tzvp

>  <lot_method>  (5) 
wb97xd

>  <lot_basis>  (5) 
def2tzvp

>  <spin_multiplicity>  (5) 
2.0

>  <optical_isomers>  (5) 
2.0

>  <modes>  (5) 
IdealGasTranslation(mass=(87.0446, 'amu')),         NonlinearRotor(             inertia = ([68.702, 226.633, 235.582

>  <frequency_value>  (5) 
unknown

>  <frequency_units>  (5) 
unknown

>  <frequency_list>  (5) 
unknown

>  <arkane_path>  (5) 
/home/calvin/Dropbox/PersonalFolders/Calvin/ZEUS_Converged/rmg_rxn_10668/output/Species/rmg_rxn_10668_r1_sbr-CH2-sbrCCOC=O/arkane/output.py

>  <path_exists>  (5) 
True

>  <E0_value>  (5) 
-805884.708974114

>  <E0_units>  (5) 
kJ/mol

>  <thermo_class>  (5) 
NASA

>  <Cp0_value>  (5) 
33.257888

>  <Cp0_units>  (5) 
J/(mol*K)

>  <CpInf_value>  (5) 
307.635464

>  <CpInf_units>  (5) 
J/(mol*K)

>  <Tmin_value>  (5) 
10.0

>  <Tmin_units>  (5) 
K

>  <Tmax_value>  (5) 
3000.0

>  <Tmax_units>  (5) 
K

>  <polynomials>  (5) 
[{"name": "polynomial1", "class": "NASAPolynomial", "Tmin_value": 10.0, "Tmin_units": "K", "Tmax_value": 1245.596304784552, "Tmax_units": "K", "coeffs": [3.789891562178066, 0.03413078873966546, -3.6942361083217817e-06, -1.0789615302450295e-08, 4.235190284706557e-12, -96925545.15052904, 11.846083218153694]}, {"name": "polynomial2", "class": "NASAPolynomial", "Tmin_value": 1245.596304784552, "Tmin_units": "K", "Tmax_value": 3000.0, "Tmax_units": "K", "coeffs": [9.787102796632988, 0.02834461791772943, -1.2950745568587648e-05, 2.8482819848318967e-09, -2.449000557886479e-13, -96928084.32705082, -22.59947105634167]}]

>  <H298_value>  (5) 
-192605.9206176017

>  <H298_units>  (5) 
kcal/mol

>  <S298_value>  (5) 
86.16043669395717

>  <S298_units>  (5) 
cal/(mol*K)

>  <Cp_T_value_list>  (5) 
[26.707324801156773, 32.329891920348594, 37.45432042593686, 42.04285809068928, 49.5622463607562, 54.99001640068579, 62.672513282127035, 66.65331323229566, 68.49373283268832]

>  <Cp_T_units>  (5) 
cal/(mol*K)

>  <T_list>  (5) 
[300.0, 400.0, 500.0, 600.0, 800.0, 1000.0, 1500.0, 2000.0, 2400.0]

>  <T_units>  (5) 
K

>  <yaml_path>  (5) 
/home/calvin/Dropbox/PersonalFolders/Calvin/ZEUS_Converged/rmg_rxn_10668/output/Species/rmg_rxn_10668_r1_sbr-CH2-sbrCCOC=O/rmg_rxn_10668_r1_sbr-CH2-sbrCCOC=O.yml

>  <frequencies_cm1>  (5) 
[61.260376039719986, 108.80738239539998, 142.00238943227998, 224.59848886123999, 308.3963107212, 363.84035019488, 458.33693518340004, 517.3655409941199, 763.2654183179999, 771.0045107736399, 901.1544835435999, 929.42586210604, 1012.3172419037601, 1046.5422967386398, 1078.02055744552, 1119.50401576364, 1201.87350467704, 1244.6685571912801, 1309.8431148634, 1369.0983311896798, 1392.2744066446799, 1405.6100921361199, 1446.4961227313997, 1453.42491091928, 1479.2585096931198, 1807.7682204166, 2966.79860368216, 3016.63918313472, 3022.0091656549594, 3059.5509743993994, 3115.6954463757197, 3132.8148407784797, 3237.440229114]

>  <ZPE_kJmol>  (5) 
271.9537673680998

>  <E_elec_kJmol>  (5) 
-806156.6627414821

>  <E0_minus_Eelec_plus_ZPE_kJmol>  (5) 
0.0

>  <rxn>  (5) 
rmg_rxn_10668

>  <species_type>  (5) 
r0

>  <species_folder>  (5) 
rmg_rxn_10668_r1_sbr-CH2-sbrCCOC=O

>  <frequencies_cm1_list>  (5) 
[61.260376039719986, 108.80738239539998, 142.00238943227998, 224.59848886123999, 308.3963107212, 363.84035019488, 458.33693518340004, 517.3655409941199, 763.2654183179999, 771.0045107736399, 901.1544835435999, 929.42586210604, 1012.3172419037601, 1046.5422967386398, 1078.02055744552, 1119.50401576364, 1201.87350467704, 1244.6685571912801, 1309.8431148634, 1369.0983311896798, 1392.2744066446799, 1405.6100921361199, 1446.4961227313997, 1453.42491091928, 1479.2585096931198, 1807.7682204166, 2966.79860368216, 3016.63918313472, 3022.0091656549594, 3059.5509743993994, 3115.6954463757197, 3132.8148407784797, 3237.440229114]

>  <E0_kJmol>  (5) 
-805885

>  <H298_kJmol>  (5) 
-805863

$$$$
