
     RDKit          3D

 10  9  0  0  0  0  0  0  0  0999 V2000
    0.0446   -0.6182   -1.8035 C   0  0  0  0  0  0  0  0  0  1  0  0
    0.2181   -0.3117   -0.5526 C   0  0  0  0  0  2  0  0  0  2  0  0
    0.3801    0.0016    0.7104 C   0  0  0  0  0  0  0  0  0  3  0  0
   -0.5211    0.8494    1.4875 C   0  0  0  0  0  0  0  0  0  4  0  0
    0.4996   -0.0373   -2.5992 H   0  0  0  0  0  0  0  0  0  5  0  0
   -0.5606   -1.4716   -2.0949 H   0  0  0  0  0  0  0  0  0  6  0  0
    1.2199   -0.4513    1.2303 H   0  0  0  0  0  0  0  0  0  7  0  0
   -1.2086    0.1921    2.0142 H   0  0  0  0  0  0  0  0  0  8  0  0
   -1.1835    1.4804    0.9003 H   0  0  0  0  0  0  0  0  0  9  0  0
   -0.0486    1.3865    2.3065 H   0  0  0  0  0  0  0  0  0 10  0  0
  1  5  1  0
  1  6  1  0
  1  2  1  0
  2  3  1  0
  3  4  1  0
  3  7  1  0
  4  8  1  0
  4  9  1  0
  4 10  1  0
M  RAD  1   2   3
M  END
>  <rmg_smiles>  (1) 
[CH2][C][CH]C

>  <rmg_adjacency_list>  (1) 
1  C u0 p0 c0 {2,S} {5,S} {6,S} {7,S}
2  C u0 p0 c0 {1,S} {4,S} {8,S}
3  C u0 p0 c0 {4,S} {9,S} {10,S}
4  C u0 p1 c0 {2,S} {3,S}
5  H u0 p0 c0 {1,S}
6  H u0 p0 c0 {1,S}
7  H u0 p0 c0 {1,S}
8  H u0 p0 c0 {2,S}
9  H u0 p0 c0 {3,S}
10 H u0 p0 c0 {3,S}


>  <multiplicity>  (1) 
1

>  <reaction>  (1) 
rmg_rxn_14139

>  <type>  (1) 
r1h

>  <role_mapnums>  (1) 
{"r1h_a": 4, "r1h_h": 8}

>  <role_mapidx>  (1) 
{"r1h_a": 3, "r1h_h": 7}

>  <ordered_mapped_smiles>  (1) 
[CH:1]([C:2][CH:3]([C:4]([H:8])([H:9])[H:10])[H:7])([H:5])[H:6]

>  <mol_properties>  (1) 
{"3": {"label": "donator", "atom_type": "Cs"}, "7": {"label": "d_hydrogen", "atom_type": "H0"}}

>  <level_of_theory>  (1) 
wb97xd/def2tzvp

>  <lot_method>  (1) 
wb97xd

>  <lot_basis>  (1) 
def2tzvp

>  <spin_multiplicity>  (1) 
1.0

>  <optical_isomers>  (1) 
1.0

>  <modes>  (1) 
IdealGasTranslation(mass=(54.047, 'amu')),         NonlinearRotor(             inertia = ([14.6121, 119.467, 127.49

>  <frequency_value>  (1) 
unknown

>  <frequency_units>  (1) 
unknown

>  <frequency_list>  (1) 
unknown

>  <arkane_path>  (1) 
/home/calvin/Dropbox/PersonalFolders/Calvin/ZEUS_Converged/rmg_rxn_14139/output/Species/rmg_rxn_14139_r1_C=C=CC/arkane/output.py

>  <path_exists>  (1) 
True

>  <E0_value>  (1) 
-409296.6502421279

>  <E0_units>  (1) 
kJ/mol

>  <thermo_class>  (1) 
NASA

>  <Cp0_value>  (1) 
33.257888

>  <Cp0_units>  (1) 
J/(mol*K)

>  <CpInf_value>  (1) 
232.805216

>  <CpInf_units>  (1) 
J/(mol*K)

>  <Tmin_value>  (1) 
10.0

>  <Tmin_units>  (1) 
K

>  <Tmax_value>  (1) 
3000.0

>  <Tmax_units>  (1) 
K

>  <polynomials>  (1) 
[{"name": "polynomial1", "class": "NASAPolynomial", "Tmin_value": 10.0, "Tmin_units": "K", "Tmax_value": 452.8802664009696, "Tmax_units": "K", "coeffs": [3.9021943352433452, 0.007937521032632688, 6.664442489196733e-05, -1.2131953588307993e-07, 6.938885885775227e-11, -49227014.555544384, 8.255511443201872]}, {"name": "polynomial2", "class": "NASAPolynomial", "Tmin_value": 452.8802664009696, "Tmin_units": "K", "Tmax_value": 3000.0, "Tmax_units": "K", "coeffs": [0.958037882717614, 0.033941191741253485, -1.948265019694705e-05, 5.463813645242153e-09, -5.979209978345261e-13, -49226747.88374059, 20.12723627389473]}]

>  <H298_value>  (1) 
-97820.47439749332

>  <H298_units>  (1) 
kcal/mol

>  <S298_value>  (1) 
69.30943774444917

>  <S298_units>  (1) 
cal/(mol*K)

>  <Cp_T_value_list>  (1) 
[19.013335795722274, 23.35407848830737, 27.231838984706652, 30.626214617830076, 36.15654523435027, 40.30546036176962, 46.594544625367064, 49.786664420046236, 51.450781523093035]

>  <Cp_T_units>  (1) 
cal/(mol*K)

>  <T_list>  (1) 
[300.0, 400.0, 500.0, 600.0, 800.0, 1000.0, 1500.0, 2000.0, 2400.0]

>  <T_units>  (1) 
K

>  <yaml_path>  (1) 
/home/calvin/Dropbox/PersonalFolders/Calvin/ZEUS_Converged/rmg_rxn_14139/output/Species/rmg_rxn_14139_r1_C=C=CC/rmg_rxn_14139_r1_C=C=CC.yml

>  <frequencies_cm1>  (1) 
[164.84884959192, 210.28769145436, 340.98015606459995, 540.2944049775999, 574.7186023867599, 878.6239047086799, 884.0282221555199, 895.09093550604, 1017.79709618912, 1055.91573170044, 1088.91159616304, 1146.5530709391198, 1353.77808694076, 1399.01778622892, 1463.354571692, 1470.3726306890399, 1494.8053644576, 2061.4346581373993, 3012.63573069316, 3072.0282867258397, 3106.42501619372, 3110.62074422424, 3124.134971334, 3189.66661224276]

>  <ZPE_kJmol>  (1) 
219.25357474583132

>  <E_elec_kJmol>  (1) 
-409515.9038168737

>  <E0_minus_Eelec_plus_ZPE_kJmol>  (1) 
0.0

>  <rxn>  (1) 
rmg_rxn_14139

>  <species_type>  (1) 
r0

>  <species_folder>  (1) 
rmg_rxn_14139_r1_C=C=CC

>  <frequencies_cm1_list>  (1) 
[164.84884959192, 210.28769145436, 340.98015606459995, 540.2944049775999, 574.7186023867599, 878.6239047086799, 884.0282221555199, 895.09093550604, 1017.79709618912, 1055.91573170044, 1088.91159616304, 1146.5530709391198, 1353.77808694076, 1399.01778622892, 1463.354571692, 1470.3726306890399, 1494.8053644576, 2061.4346581373993, 3012.63573069316, 3072.0282867258397, 3106.42501619372, 3110.62074422424, 3124.134971334, 3189.66661224276]

>  <E0_kJmol>  (1) 
-409297

>  <H298_kJmol>  (1) 
-409281

$$$$

     RDKit          3D

 18 17  0  0  0  0  0  0  0  0999 V2000
    0.5804    2.1611    0.5720 H   0  0  0  0  0  0  0  0  0  1  0  0
    0.5986    1.2219    2.4275 C   0  0  0  0  0  0  0  0  0  2  0  0
    0.0004    1.3708    1.0632 C   0  0  0  0  0  0  0  0  0  3  0  0
    0.1973    0.2495    0.2963 O   0  0  0  0  0  0  0  0  0  4  0  0
   -0.4720    0.2700   -0.9502 C   0  0  0  0  0  0  0  0  0  5  0  0
   -0.0083   -0.9083   -1.7782 C   0  0  0  0  0  0  0  0  0  6  0  0
   -0.3371   -2.2559   -1.1501 C   0  0  0  0  0  0  0  0  0  7  0  0
    1.6636    0.9936    2.3501 H   0  0  0  0  0  0  0  0  0  8  0  0
    0.4828    2.1486    2.9911 H   0  0  0  0  0  0  0  0  0  9  0  0
    0.1195    0.4141    2.9875 H   0  0  0  0  0  0  0  0  0 10  0  0
   -1.0349    1.7315    1.0435 H   0  0  0  0  0  0  0  0  0 11  0  0
   -1.5571    0.2231   -0.7787 H   0  0  0  0  0  0  0  0  0 12  0  0
   -0.2505    1.2084   -1.4707 H   0  0  0  0  0  0  0  0  0 13  0  0
   -0.4773   -0.8279   -2.7631 H   0  0  0  0  0  0  0  0  0 14  0  0
    1.0704   -0.8144   -1.9293 H   0  0  0  0  0  0  0  0  0 15  0  0
   -1.4152   -2.3703   -1.0124 H   0  0  0  0  0  0  0  0  0 16  0  0
    0.0090   -3.0764   -1.7802 H   0  0  0  0  0  0  0  0  0 17  0  0
    0.1379   -2.3539   -0.1738 H   0  0  0  0  0  0  0  0  0 18  0  0
  1  3  1  0
  2 10  1  0
  2  9  1  0
  2  8  1  0
  2  3  1  0
  3 11  1  0
  3  4  1  0
  4  5  1  0
  5 13  1  0
  5 12  1  0
  5  6  1  0
  6 15  1  0
  6 14  1  0
  6  7  1  0
  7 17  1  0
  7 18  1  0
  7 16  1  0
M  END
>  <rmg_smiles>  (2) 
CCCOCC

>  <rmg_adjacency_list>  (2) 
1  O u0 p2 c0 {3,S} {4,S}
2  C u0 p0 c0 {3,S} {5,S} {7,S} {8,S}
3  C u0 p0 c0 {1,S} {2,S} {11,S} {12,S}
4  C u0 p0 c0 {1,S} {6,S} {9,S} {10,S}
5  C u0 p0 c0 {2,S} {16,S} {17,S} {18,S}
6  C u0 p0 c0 {4,S} {13,S} {14,S} {15,S}
7  H u0 p0 c0 {2,S}
8  H u0 p0 c0 {2,S}
9  H u0 p0 c0 {4,S}
10 H u0 p0 c0 {4,S}
11 H u0 p0 c0 {3,S}
12 H u0 p0 c0 {3,S}
13 H u0 p0 c0 {6,S}
14 H u0 p0 c0 {6,S}
15 H u0 p0 c0 {6,S}
16 H u0 p0 c0 {5,S}
17 H u0 p0 c0 {5,S}
18 H u0 p0 c0 {5,S}


>  <multiplicity>  (2) 
1

>  <reaction>  (2) 
rmg_rxn_14139

>  <type>  (2) 
r2h

>  <role_mapnums>  (2) 
{"r2h_a": 3, "r2h_h": 1}

>  <role_mapidx>  (2) 
{"r2h_a": 2, "r2h_h": 0}

>  <ordered_mapped_smiles>  (2) 
[H:1][C:3]([C:2]([H:8])([H:9])[H:10])([O:4][C:5]([C:6]([C:7]([H:16])([H:17])[H:18])([H:14])[H:15])([H:12])[H:13])[H:11]

>  <mol_properties>  (2) 
{"0": {"label": "a_hydrogen", "atom_type": "H0"}, "2": {"label": "acceptor", "atom_type": "Cs"}}

>  <level_of_theory>  (2) 
wb97xd/def2tzvp

>  <lot_method>  (2) 
wb97xd

>  <lot_basis>  (2) 
def2tzvp

>  <spin_multiplicity>  (2) 
1.0

>  <optical_isomers>  (2) 
2.0

>  <modes>  (2) 
IdealGasTranslation(mass=(88.0888, 'amu')),         NonlinearRotor(             inertia = ([59.5652, 317.445, 349.634

>  <frequency_value>  (2) 
unknown

>  <frequency_units>  (2) 
unknown

>  <frequency_list>  (2) 
unknown

>  <arkane_path>  (2) 
/home/calvin/Dropbox/PersonalFolders/Calvin/ZEUS_Converged/rmg_rxn_14139/output/Species/rmg_rxn_14139_p2_CCCOCC/arkane/output.py

>  <path_exists>  (2) 
True

>  <E0_value>  (2) 
-716327.3605697051

>  <E0_units>  (2) 
kJ/mol

>  <thermo_class>  (2) 
NASA

>  <Cp0_value>  (2) 
33.257888

>  <Cp0_units>  (2) 
J/(mol*K)

>  <CpInf_value>  (2) 
432.352544

>  <CpInf_units>  (2) 
J/(mol*K)

>  <Tmin_value>  (2) 
10.0

>  <Tmin_units>  (2) 
K

>  <Tmax_value>  (2) 
3000.0

>  <Tmax_units>  (2) 
K

>  <polynomials>  (2) 
[{"name": "polynomial1", "class": "NASAPolynomial", "Tmin_value": 10.0, "Tmin_units": "K", "Tmax_value": 424.1471510525553, "Tmax_units": "K", "coeffs": [3.470707395992323, 0.057465092337157006, -0.00016719615574429907, 4.780416785244836e-07, -4.334678348364383e-10, -86154279.58971617, 11.635448459863113]}, {"name": "polynomial2", "class": "NASAPolynomial", "Tmin_value": 424.1471510525553, "Tmin_units": "K", "Tmax_value": 3000.0, "Tmax_units": "K", "coeffs": [-2.8535766592043905, 0.06921012570291063, -3.93432708586682e-05, 1.0841904063530556e-08, -1.1634202736411879e-12, -86153312.26593868, 41.801162441870254]}]

>  <H298_value>  (2) 
-171200.6815305831

>  <H298_units>  (2) 
kcal/mol

>  <S298_value>  (2) 
88.3739517878424

>  <S298_units>  (2) 
cal/(mol*K)

>  <Cp_T_value_list>  (2) 
[29.924581474875136, 38.16082376712961, 46.0995993804801, 53.05840018906718, 64.40406801111835, 72.91410792810673, 85.72980448804608, 92.035679496926, 95.21198017799685]

>  <Cp_T_units>  (2) 
cal/(mol*K)

>  <T_list>  (2) 
[300.0, 400.0, 500.0, 600.0, 800.0, 1000.0, 1500.0, 2000.0, 2400.0]

>  <T_units>  (2) 
K

>  <yaml_path>  (2) 
/home/calvin/Dropbox/PersonalFolders/Calvin/ZEUS_Converged/rmg_rxn_14139/output/Species/rmg_rxn_14139_p2_CCCOCC/rmg_rxn_14139_p2_CCCOCC.yml

>  <frequencies_cm1>  (2) 
[76.60808822992, 85.88538539723999, 152.39213822143998, 171.44115549912, 250.05440344247998, 256.06301559748, 329.51915756551995, 440.0707542322, 493.7774464199199, 767.98990421816, 823.02879155796, 891.3896304185598, 900.4815189822399, 929.41899512072, 1002.9850088538799, 1082.00340893112, 1102.9065122452, 1152.52734816752, 1174.9617892079598, 1182.44680320676, 1190.2339645596398, 1270.1176047871998, 1295.23017010244, 1305.6473868328799, 1368.30176089256, 1380.4425909383199, 1399.7456866728398, 1405.4521514737598, 1443.92787022172, 1468.7794900948002, 1470.37949767436, 1482.5752636026798, 1487.2448136202797, 1494.6336898246, 1500.58049911172, 1519.49904366832, 2928.8997117010795, 2942.5512785172396, 2962.4655359452395, 2968.54281795344, 3015.1421803349594, 3021.7276192568397, 3024.0692612509597, 3058.7338031463196, 3085.2403664815197, 3101.8035350733594, 3104.27564978856, 3105.2988306012394]

>  <ZPE_kJmol>  (2) 
431.0594598774012

>  <E_elec_kJmol>  (2) 
-716758.4200295826

>  <E0_minus_Eelec_plus_ZPE_kJmol>  (2) 
0.0

>  <rxn>  (2) 
rmg_rxn_14139

>  <species_type>  (2) 
p1

>  <species_folder>  (2) 
rmg_rxn_14139_p2_CCCOCC

>  <frequencies_cm1_list>  (2) 
[76.60808822992, 85.88538539723999, 152.39213822143998, 171.44115549912, 250.05440344247998, 256.06301559748, 329.51915756551995, 440.0707542322, 493.7774464199199, 767.98990421816, 823.02879155796, 891.3896304185598, 900.4815189822399, 929.41899512072, 1002.9850088538799, 1082.00340893112, 1102.9065122452, 1152.52734816752, 1174.9617892079598, 1182.44680320676, 1190.2339645596398, 1270.1176047871998, 1295.23017010244, 1305.6473868328799, 1368.30176089256, 1380.4425909383199, 1399.7456866728398, 1405.4521514737598, 1443.92787022172, 1468.7794900948002, 1470.37949767436, 1482.5752636026798, 1487.2448136202797, 1494.6336898246, 1500.58049911172, 1519.49904366832, 2928.8997117010795, 2942.5512785172396, 2962.4655359452395, 2968.54281795344, 3015.1421803349594, 3021.7276192568397, 3024.0692612509597, 3058.7338031463196, 3085.2403664815197, 3101.8035350733594, 3104.27564978856, 3105.2988306012394]

>  <E0_kJmol>  (2) 
-716327

>  <H298_kJmol>  (2) 
-716304

$$$$

     RDKit          3D

 27 25  0  0  0  0  0  0  0  0999 V2000
    1.3147    0.8196   -2.8362 C   0  0  0  0  0  0  0  0  0  1  0  0
    1.4883    1.1261   -1.5853 C   0  0  0  0  0  0  0  0  0  2  0  0
    1.6502    1.4393   -0.3223 C   0  0  0  0  0  0  0  0  0  3  0  0
    0.7490    2.2872    0.4548 C   0  0  0  0  0  0  0  0  0  4  0  0
    1.7698    1.4005   -3.6319 H   0  0  0  0  0  0  0  0  0  5  0  0
    0.7095   -0.0338   -3.1276 H   0  0  0  0  0  0  0  0  0  6  0  0
    2.4901    0.9865    0.1976 H   0  0  0  0  0  0  0  0  0  7  0  0
   -0.1050    1.4707    1.1091 H   0  0  0  0  0  0  0  0  0  8  0  0
    0.0866    2.9182   -0.1324 H   0  0  0  0  0  0  0  0  0  9  0  0
    1.2216    2.8243    1.2738 H   0  0  0  0  0  0  0  0  0 10  0  0
   -0.2285    0.3384    3.0846 C   0  0  0  0  0  0  0  0  0 11  0  0
   -0.8268    0.4873    1.7204 C   0  0  0  0  0  3  0  0  0 12  0  0
   -0.6299   -0.6340    0.9535 O   0  0  0  0  0  0  0  0  0 13  0  0
   -1.2992   -0.6135   -0.2930 C   0  0  0  0  0  0  0  0  0 14  0  0
   -0.8354   -1.7919   -1.1211 C   0  0  0  0  0  0  0  0  0 15  0  0
   -1.1643   -3.1395   -0.4929 C   0  0  0  0  0  0  0  0  0 16  0  0
    0.8364    0.1101    3.0073 H   0  0  0  0  0  0  0  0  0 17  0  0
   -0.3444    1.2650    3.6482 H   0  0  0  0  0  0  0  0  0 18  0  0
   -0.7077   -0.4695    3.6447 H   0  0  0  0  0  0  0  0  0 19  0  0
   -1.8621    0.8479    1.7007 H   0  0  0  0  0  0  0  0  0 20  0  0
   -2.3843   -0.6604   -0.1215 H   0  0  0  0  0  0  0  0  0 21  0  0
   -1.0777    0.3248   -0.8135 H   0  0  0  0  0  0  0  0  0 22  0  0
   -1.3045   -1.7115   -2.1059 H   0  0  0  0  0  0  0  0  0 23  0  0
    0.2433   -1.6979   -1.2721 H   0  0  0  0  0  0  0  0  0 24  0  0
   -2.2423   -3.2538   -0.3552 H   0  0  0  0  0  0  0  0  0 25  0  0
   -0.8182   -3.9600   -1.1230 H   0  0  0  0  0  0  0  0  0 26  0  0
   -0.6893   -3.2374    0.4833 H   0  0  0  0  0  0  0  0  0 27  0  0
  1  5  1  0
  1  6  1  0
  1  2  1  0
  2  3  1  0
  3  4  1  0
  3  7  1  0
  4 10  1  0
  4  9  1  0
  4  8  1  0
 11 19  1  0
 11 17  1  0
 11 12  1  0
 11 18  1  0
 12 13  1  0
 12 20  1  0
 13 14  1  0
 14 15  1  0
 14 22  1  0
 14 21  1  0
 15 23  1  0
 15 16  1  0
 15 24  1  0
 16 26  1  0
 16 27  1  0
 16 25  1  0
M  RAD  1  12   2
M  END
>  <rmg_smiles>  (3) 
C[CH]OCCC.[CH2]C[CH]C

>  <rmg_adjacency_list>  (3) 
multiplicity 2
1  O u0 p2 c0 {3,S} {7,S}
2  C u0 p0 c0 {3,S} {4,S} {11,S} {12,S}
3  C u0 p0 c0 {1,S} {2,S} {13,S} {14,S}
4  C u0 p0 c0 {2,S} {15,S} {16,S} {17,S}
5  C u0 p0 c0 {8,S} {18,S} {19,S} {20,S}
6  C u0 p0 c0 {7,S} {21,S} {22,S} {23,S}
7  C u1 p0 c0 {1,S} {6,S} {25,S}
8  C u0 p0 c0 {5,S} {10,S} {24,S}
9  C u0 p0 c0 {10,S} {26,S} {27,S}
10 C u0 p1 c0 {8,S} {9,S}
11 H u0 p0 c0 {2,S}
12 H u0 p0 c0 {2,S}
13 H u0 p0 c0 {3,S}
14 H u0 p0 c0 {3,S}
15 H u0 p0 c0 {4,S}
16 H u0 p0 c0 {4,S}
17 H u0 p0 c0 {4,S}
18 H u0 p0 c0 {5,S}
19 H u0 p0 c0 {5,S}
20 H u0 p0 c0 {5,S}
21 H u0 p0 c0 {6,S}
22 H u0 p0 c0 {6,S}
23 H u0 p0 c0 {6,S}
24 H u0 p0 c0 {8,S}
25 H u0 p0 c0 {7,S}
26 H u0 p0 c0 {9,S}
27 H u0 p0 c0 {9,S}


>  <multiplicity>  (3) 
2

>  <reaction>  (3) 
rmg_rxn_14139

>  <type>  (3) 
ts

>  <role_mapnums>  (3) 
{"*2": 8, "*1": 4, "*3": 12, "*0": 3, "*4": 13}

>  <role_mapidx>  (3) 
{"*2": 7, "*1": 3, "*3": 11, "*0": 2, "*4": 12}

>  <ordered_mapped_smiles>  (3) 
[CH:1]([CH2:2][CH:3]([C:4]([H:8])([H:9])[H:10])[H:7])([H:5])[H:6].[C:11]([C:12]([O:13][C:14]([C:15]([C:16]([H:25])([H:26])[H:27])([H:23])[H:24])([H:21])[H:22])[H:20])([H:17])([H:18])[H:19]

>  <mol_properties>  (3) 
{"2": {"label": "*0", "atom_type": "Cs"}, "3": {"label": "*1", "atom_type": "Cs"}, "7": {"label": "*2", "atom_type": "H0"}, "11": {"label": "*3", "atom_type": "Cs"}, "12": {"label": "*4", "atom_type": "O2s"}}

>  <level_of_theory>  (3) 
wb97xd/def2tzvp

>  <lot_method>  (3) 
wb97xd

>  <lot_basis>  (3) 
def2tzvp

>  <spin_multiplicity>  (3) 
2.0

>  <optical_isomers>  (3) 
2.0

>  <modes>  (3) 
IdealGasTranslation(mass=(141.128, 'amu')),         NonlinearRotor(             inertia = ([444.539, 511.797, 874.646

>  <frequency_value>  (3) 
-1744.74

>  <frequency_units>  (3) 
cm^-1

>  <frequency_list>  (3) 
unknown

>  <arkane_path>  (3) 
/home/calvin/Dropbox/PersonalFolders/Calvin/ZEUS_Converged/rmg_rxn_14139/output/rxns/TS0/arkane/output.py

>  <path_exists>  (3) 
True

>  <E0_value>  (3) 
-1123870.0

>  <E0_units>  (3) 
kJ/mol

>  <thermo_class>  (3) 
unknown

>  <Cp0_value>  (3) 
unknown

>  <Cp0_units>  (3) 
unknown

>  <CpInf_value>  (3) 
unknown

>  <CpInf_units>  (3) 
unknown

>  <Tmin_value>  (3) 
unknown

>  <Tmin_units>  (3) 
unknown

>  <Tmax_value>  (3) 
unknown

>  <Tmax_units>  (3) 
unknown

>  <polynomials>  (3) 
unknown

>  <H298_value>  (3) 
unknown

>  <H298_units>  (3) 
unknown

>  <S298_value>  (3) 
unknown

>  <S298_units>  (3) 
unknown

>  <Cp_T_value_list>  (3) 
unknown

>  <Cp_T_units>  (3) 
unknown

>  <T_list>  (3) 
unknown

>  <T_units>  (3) 
unknown

>  <yaml_path>  (3) 
unknown

>  <frequencies_cm1>  (3) 
unknown

>  <ZPE_kJmol>  (3) 
unknown

>  <E_elec_kJmol>  (3) 
unknown

>  <E0_minus_Eelec_plus_ZPE_kJmol>  (3) 
unknown

>  <rxn>  (3) 
unknown

>  <species_type>  (3) 
unknown

>  <species_folder>  (3) 
unknown

>  <frequencies_cm1_list>  (3) 
[]

>  <ts_imag_freq_cm1>  (3) 
-1765.9349

>  <ts_freq_out_path>  (3) 
/home/calvin/Dropbox/PersonalFolders/Calvin/ZEUS_Converged/rmg_rxn_14139/output/rxns/TS0/geometry/freq.out

>  <E0_kJmol>  (3) 
-1.12387e+06

>  <H298_kJmol>  (3) 
unknown

$$$$

     RDKit          3D

  9  8  0  0  0  0  0  0  0  0999 V2000
    1.8962   -0.1368   -0.2185 C   0  0  0  0  0  0  0  0  0  1  0  0
    0.6332    0.1497   -0.2267 C   0  0  0  0  0  3  0  0  0  2  0  0
   -0.6783    0.4486   -0.2362 C   0  0  0  0  0  0  0  0  0  3  0  0
   -1.6587   -0.2335    0.4694 C   0  0  0  0  0  0  0  0  0  4  0  0
    2.3273   -0.8311   -0.9354 H   0  0  0  0  0  0  0  0  0  5  0  0
    2.5755    0.3040    0.5069 H   0  0  0  0  0  0  0  0  0  6  0  0
   -0.9764    1.2944   -0.8506 H   0  0  0  0  0  0  0  0  0  7  0  0
   -2.6928    0.0726    0.4065 H   0  0  0  0  0  0  0  0  0  8  0  0
   -1.4099   -1.0807    1.0934 H   0  0  0  0  0  0  0  0  0  9  0  0
  1  5  1  0
  1  6  1  0
  1  2  1  0
  2  3  1  0
  3  4  1  0
  3  7  1  0
  4  8  1  0
  4  9  1  0
M  RAD  1   2   2
M  END
>  <rmg_smiles>  (4) 
[CH2][C][CH][CH2]

>  <rmg_adjacency_list>  (4) 
multiplicity 2
1 C u0 p0 c0 {2,S} {4,S} {5,S}
2 C u0 p0 c0 {1,S} {6,S} {7,S}
3 C u0 p0 c0 {4,S} {8,S} {9,S}
4 C u1 p1 c0 {1,S} {3,S}
5 H u0 p0 c0 {1,S}
6 H u0 p0 c0 {2,S}
7 H u0 p0 c0 {2,S}
8 H u0 p0 c0 {3,S}
9 H u0 p0 c0 {3,S}


>  <multiplicity>  (4) 
2

>  <reaction>  (4) 
rmg_rxn_14139

>  <type>  (4) 
r1

>  <role_mapnums>  (4) 
{}

>  <role_mapidx>  (4) 
{}

>  <ordered_mapped_smiles>  (4) 
[CH:1]([CH:2][CH:3]([CH:4]([H:8])[H:9])[H:7])([H:5])[H:6]

>  <level_of_theory>  (4) 
wb97xd/def2tzvp

>  <lot_method>  (4) 
wb97xd

>  <lot_basis>  (4) 
def2tzvp

>  <spin_multiplicity>  (4) 
2.0

>  <optical_isomers>  (4) 
1.0

>  <modes>  (4) 
IdealGasTranslation(mass=(53.0391, 'amu')),         NonlinearRotor(             inertia = ([12.0347, 113.266, 121.844

>  <frequency_value>  (4) 
unknown

>  <frequency_units>  (4) 
unknown

>  <frequency_list>  (4) 
unknown

>  <arkane_path>  (4) 
/home/calvin/Dropbox/PersonalFolders/Calvin/ZEUS_Converged/rmg_rxn_14139/output/Species/rmg_rxn_14139_p1_C=sbr-C-sbrC=C/arkane/output.py

>  <path_exists>  (4) 
True

>  <E0_value>  (4) 
-407618.7322871182

>  <E0_units>  (4) 
kJ/mol

>  <thermo_class>  (4) 
NASA

>  <Cp0_value>  (4) 
33.257888

>  <Cp0_units>  (4) 
J/(mol*K)

>  <CpInf_value>  (4) 
207.8618

>  <CpInf_units>  (4) 
J/(mol*K)

>  <Tmin_value>  (4) 
10.0

>  <Tmin_units>  (4) 
K

>  <Tmax_value>  (4) 
3000.0

>  <Tmax_units>  (4) 
K

>  <polynomials>  (4) 
[{"name": "polynomial1", "class": "NASAPolynomial", "Tmin_value": 10.0, "Tmin_units": "K", "Tmax_value": 514.1627669615141, "Tmax_units": "K", "coeffs": [3.9420033650092194, 0.003572324131280511, 9.462342675756363e-05, -1.8676284311886954e-07, 1.149785738012023e-10, -49025207.30228202, 8.656389036962679]}, {"name": "polynomial2", "class": "NASAPolynomial", "Tmin_value": 514.1627669615141, "Tmin_units": "K", "Tmax_value": 3000.0, "Tmax_units": "K", "coeffs": [2.029834550148665, 0.030448893080009667, -1.8795396905939947e-05, 5.691011797771398e-09, -6.697030625419615e-13, -49025169.29486995, 15.066930145553966]}]

>  <H298_value>  (4) 
-97419.52666136409

>  <H298_units>  (4) 
kcal/mol

>  <S298_value>  (4) 
69.4719153890684

>  <S298_units>  (4) 
cal/(mol*K)

>  <Cp_T_value_list>  (4) 
[18.71658132650381, 22.855479647781404, 26.28046336634898, 29.16283674573409, 33.78128373497921, 37.16998113185326, 42.18903825802206, 44.829149945703655, 46.30012006236418]

>  <Cp_T_units>  (4) 
cal/(mol*K)

>  <T_list>  (4) 
[300.0, 400.0, 500.0, 600.0, 800.0, 1000.0, 1500.0, 2000.0, 2400.0]

>  <T_units>  (4) 
K

>  <yaml_path>  (4) 
/home/calvin/Dropbox/PersonalFolders/Calvin/ZEUS_Converged/rmg_rxn_14139/output/Species/rmg_rxn_14139_p1_C=sbr-C-sbrC=C/rmg_rxn_14139_p1_C=sbr-C-sbrC=C.yml

>  <frequencies_cm1>  (4) 
[209.8207364526, 213.04821955299997, 498.82468063011993, 525.2763080827599, 574.87654304912, 748.93401995516, 893.7518733686398, 905.4944182658398, 936.5057239709599, 975.15311735192, 1080.3828003955998, 1184.87084902472, 1365.78157728012, 1440.54244645896, 1485.45939743708, 1902.75236136284, 3071.2179824580794, 3118.0576893257994, 3138.67924624176, 3141.52904514956, 3241.1758691280797]

>  <ZPE_kJmol>  (4) 
183.34053407098105

>  <E_elec_kJmol>  (4) 
-407802.0728211892

>  <E0_minus_Eelec_plus_ZPE_kJmol>  (4) 
0.0

>  <rxn>  (4) 
rmg_rxn_14139

>  <species_type>  (4) 
p0

>  <species_folder>  (4) 
rmg_rxn_14139_p1_C=sbr-C-sbrC=C

>  <frequencies_cm1_list>  (4) 
[209.8207364526, 213.04821955299997, 498.82468063011993, 525.2763080827599, 574.87654304912, 748.93401995516, 893.7518733686398, 905.4944182658398, 936.5057239709599, 975.15311735192, 1080.3828003955998, 1184.87084902472, 1365.78157728012, 1440.54244645896, 1485.45939743708, 1902.75236136284, 3071.2179824580794, 3118.0576893257994, 3138.67924624176, 3141.52904514956, 3241.1758691280797]

>  <E0_kJmol>  (4) 
-407619

>  <H298_kJmol>  (4) 
-407603

$$$$

     RDKit          3D

 17 16  0  0  0  0  0  0  0  0999 V2000
   -3.2378    0.0781    0.0468 C   0  0  0  0  0  0  0  0  0  1  0  0
   -1.9072   -0.5430    0.2348 C   0  0  0  0  0  3  0  0  0  2  0  0
   -1.5607   -0.7743    1.5229 O   0  0  0  0  0  0  0  0  0  3  0  0
   -0.2678   -1.3170    1.7206 C   0  0  0  0  0  0  0  0  0  4  0  0
    0.0055   -1.4164    3.2061 C   0  0  0  0  0  0  0  0  0  5  0  0
    0.0347   -0.0632    3.9042 C   0  0  0  0  0  0  0  0  0  6  0  0
   -3.2816    1.0982    0.4537 H   0  0  0  0  0  0  0  0  0  7  0  0
   -3.4818    0.1310   -1.0144 H   0  0  0  0  0  0  0  0  0  8  0  0
   -4.0139   -0.5033    0.5509 H   0  0  0  0  0  0  0  0  0  9  0  0
   -1.0896   -0.3480   -0.4562 H   0  0  0  0  0  0  0  0  0 10  0  0
   -0.2142   -2.3036    1.2476 H   0  0  0  0  0  0  0  0  0 11  0  0
    0.4751   -0.6679    1.2371 H   0  0  0  0  0  0  0  0  0 12  0  0
   -0.7555   -2.0574    3.6583 H   0  0  0  0  0  0  0  0  0 13  0  0
    0.9642   -1.9267    3.3334 H   0  0  0  0  0  0  0  0  0 14  0  0
   -0.9209    0.4499    3.7952 H   0  0  0  0  0  0  0  0  0 15  0  0
    0.2399   -0.1765    4.9695 H   0  0  0  0  0  0  0  0  0 16  0  0
    0.8109    0.5782    3.4796 H   0  0  0  0  0  0  0  0  0 17  0  0
  1  8  1  0
  1  7  1  0
  1  9  1  0
  1  2  1  0
  2 10  1  0
  2  3  1  0
  3  4  1  0
  4  5  1  0
  4 12  1  0
  4 11  1  0
  5 14  1  0
  5  6  1  0
  5 13  1  0
  6 17  1  0
  6 15  1  0
  6 16  1  0
M  RAD  1   2   2
M  END
>  <rmg_smiles>  (5) 
C[CH]OCCC

>  <rmg_adjacency_list>  (5) 
multiplicity 2
1  O u0 p2 c0 {3,S} {6,S}
2  C u0 p0 c0 {3,S} {4,S} {7,S} {8,S}
3  C u0 p0 c0 {1,S} {2,S} {9,S} {10,S}
4  C u0 p0 c0 {2,S} {11,S} {12,S} {13,S}
5  C u0 p0 c0 {6,S} {14,S} {15,S} {16,S}
6  C u1 p0 c0 {1,S} {5,S} {17,S}
7  H u0 p0 c0 {2,S}
8  H u0 p0 c0 {2,S}
9  H u0 p0 c0 {3,S}
10 H u0 p0 c0 {3,S}
11 H u0 p0 c0 {4,S}
12 H u0 p0 c0 {4,S}
13 H u0 p0 c0 {4,S}
14 H u0 p0 c0 {5,S}
15 H u0 p0 c0 {5,S}
16 H u0 p0 c0 {5,S}
17 H u0 p0 c0 {6,S}


>  <multiplicity>  (5) 
2

>  <reaction>  (5) 
rmg_rxn_14139

>  <type>  (5) 
r2

>  <role_mapnums>  (5) 
{}

>  <role_mapidx>  (5) 
{}

>  <ordered_mapped_smiles>  (5) 
[C:1]([C:2]([O:3][C:4]([C:5]([C:6]([H:15])([H:16])[H:17])([H:13])[H:14])([H:11])[H:12])[H:10])([H:7])([H:8])[H:9]

>  <level_of_theory>  (5) 
wb97xd/def2tzvp

>  <lot_method>  (5) 
wb97xd

>  <lot_basis>  (5) 
def2tzvp

>  <spin_multiplicity>  (5) 
2.0

>  <optical_isomers>  (5) 
2.0

>  <modes>  (5) 
IdealGasTranslation(mass=(87.081, 'amu')),         NonlinearRotor(             inertia = ([57.4633, 312.694, 344.444

>  <frequency_value>  (5) 
unknown

>  <frequency_units>  (5) 
unknown

>  <frequency_list>  (5) 
unknown

>  <arkane_path>  (5) 
/home/calvin/Dropbox/PersonalFolders/Calvin/ZEUS_Converged/rmg_rxn_14139/output/Species/rmg_rxn_14139_r2_Csbr-CH-sbrOCCC/arkane/output.py

>  <path_exists>  (5) 
True

>  <E0_value>  (5) 
-714626.8773508471

>  <E0_units>  (5) 
kJ/mol

>  <thermo_class>  (5) 
NASA

>  <Cp0_value>  (5) 
33.257888

>  <Cp0_units>  (5) 
J/(mol*K)

>  <CpInf_value>  (5) 
407.409128

>  <CpInf_units>  (5) 
J/(mol*K)

>  <Tmin_value>  (5) 
10.0

>  <Tmin_units>  (5) 
K

>  <Tmax_value>  (5) 
3000.0

>  <Tmax_units>  (5) 
K

>  <polynomials>  (5) 
[{"name": "polynomial1", "class": "NASAPolynomial", "Tmin_value": 10.0, "Tmin_units": "K", "Tmax_value": 423.5582174304516, "Tmax_units": "K", "coeffs": [3.425317028674424, 0.06108340089002518, -0.00016985724564922192, 4.4412595950856165e-07, -3.895119290886788e-10, -85949758.59070115, 12.50982009188648]}, {"name": "polynomial2", "class": "NASAPolynomial", "Tmin_value": 423.5582174304516, "Tmin_units": "K", "Tmax_value": 3000.0, "Tmax_units": "K", "coeffs": [-1.1025720691955678, 0.063639683523291, -3.652991801983614e-05, 1.0171382643252047e-08, -1.1023140335017426e-12, -85949014.3909022, 34.72172518223911]}]

>  <H298_value>  (5) 
-170794.10215544468

>  <H298_units>  (5) 
kcal/mol

>  <S298_value>  (5) 
91.08322998435024

>  <S298_units>  (5) 
cal/(mol*K)

>  <Cp_T_value_list>  (5) 
[30.40334429316793, 38.02335645060782, 45.283107245559535, 51.63681832782424, 61.973553123016764, 69.70377596309287, 81.30176342290142, 87.02207685876006, 89.9357998438411]

>  <Cp_T_units>  (5) 
cal/(mol*K)

>  <T_list>  (5) 
[300.0, 400.0, 500.0, 600.0, 800.0, 1000.0, 1500.0, 2000.0, 2400.0]

>  <T_units>  (5) 
K

>  <yaml_path>  (5) 
/home/calvin/Dropbox/PersonalFolders/Calvin/ZEUS_Converged/rmg_rxn_14139/output/Species/rmg_rxn_14139_r2_Csbr-CH-sbrOCCC/rmg_rxn_14139_r2_Csbr-CH-sbrOCCC.yml

>  <frequencies_cm1>  (5) 
[62.256088911119996, 80.6184076568, 158.02306618384, 168.50208578215998, 182.09871671576, 251.82608565504, 327.37665814568, 441.4441512962, 492.0607000899199, 558.5605859287999, 768.1066429685999, 888.04540856772, 910.1090324008799, 927.2490277595999, 1010.4082199848, 1016.6709105966398, 1099.15027127516, 1117.79413641896, 1151.8612505914798, 1175.63475376932, 1265.93561072732, 1270.30988037616, 1304.10231513588, 1361.4965784404399, 1376.3567346729199, 1400.64526174976, 1406.7843466258398, 1443.5913879410398, 1453.0266257707199, 1468.7451551681997, 1477.39068968608, 1483.24136117872, 1494.41394629436, 1502.4483191187599, 2953.29811054304, 2963.1797024185194, 3009.8614686238802, 3016.1859621035996, 3027.0563998651596, 3039.68478586864, 3061.08231212576, 3087.3485309747603, 3090.2463987797996, 3104.30311772984, 3105.33316552784]

>  <ZPE_kJmol>  (5) 
394.4918275611198

>  <E_elec_kJmol>  (5) 
-715021.3691784083

>  <E0_minus_Eelec_plus_ZPE_kJmol>  (5) 
0.0

>  <rxn>  (5) 
rmg_rxn_14139

>  <species_type>  (5) 
r1

>  <species_folder>  (5) 
rmg_rxn_14139_r2_Csbr-CH-sbrOCCC

>  <frequencies_cm1_list>  (5) 
[62.256088911119996, 80.6184076568, 158.02306618384, 168.50208578215998, 182.09871671576, 251.82608565504, 327.37665814568, 441.4441512962, 492.0607000899199, 558.5605859287999, 768.1066429685999, 888.04540856772, 910.1090324008799, 927.2490277595999, 1010.4082199848, 1016.6709105966398, 1099.15027127516, 1117.79413641896, 1151.8612505914798, 1175.63475376932, 1265.93561072732, 1270.30988037616, 1304.10231513588, 1361.4965784404399, 1376.3567346729199, 1400.64526174976, 1406.7843466258398, 1443.5913879410398, 1453.0266257707199, 1468.7451551681997, 1477.39068968608, 1483.24136117872, 1494.41394629436, 1502.4483191187599, 2953.29811054304, 2963.1797024185194, 3009.8614686238802, 3016.1859621035996, 3027.0563998651596, 3039.68478586864, 3061.08231212576, 3087.3485309747603, 3090.2463987797996, 3104.30311772984, 3105.33316552784]

>  <E0_kJmol>  (5) 
-714627

>  <H298_kJmol>  (5) 
-714603

$$$$
