
     RDKit          3D

 18 17  0  0  0  0  0  0  0  0999 V2000
   -0.9761    1.8528    1.4007 C   0  0  0  0  0  0  0  0  0  1  0  0
    0.0924    0.8700    1.8067 C   0  0  0  0  0  0  0  0  0  2  0  0
    0.0536   -0.4210    1.0120 C   0  0  0  0  0  0  0  0  0  3  0  0
    0.2708   -0.1359   -0.3458 O   0  0  0  0  0  0  0  0  0  4  0  0
    0.1819   -1.2695   -1.1721 C   0  0  0  0  0  0  0  0  0  5  0  0
    0.4232   -0.8526   -2.6042 C   0  0  0  0  0  0  0  0  0  6  0  0
   -1.9369    1.3716    1.5705 H   0  0  0  0  0  0  0  0  0  7  0  0
   -0.9875    2.0851    0.3384 H   0  0  0  0  0  0  0  0  0  8  0  0
   -1.0215    2.7498    2.0156 H   0  0  0  0  0  0  0  0  0  9  0  0
   -0.0074    0.6200    2.8671 H   0  0  0  0  0  0  0  0  0 10  0  0
    1.0839    1.3211    1.6854 H   0  0  0  0  0  0  0  0  0 11  0  0
   -0.9220   -0.9140    1.1398 H   0  0  0  0  0  0  0  0  0 12  0  0
    0.8226   -1.1155    1.3803 H   0  0  0  0  0  0  0  0  0 13  0  0
    0.9228   -2.0201   -0.8597 H   0  0  0  0  0  0  0  0  0 14  0  0
   -0.8110   -1.7309   -1.0675 H   0  0  0  0  0  0  0  0  0 15  0  0
    1.4128   -0.4072   -2.7113 H   0  0  0  0  0  0  0  0  0 16  0  0
   -0.3203   -0.1195   -2.9191 H   0  0  0  0  0  0  0  0  0 17  0  0
    0.3586   -1.7180   -3.2655 H   0  0  0  0  0  0  0  0  0 18  0  0
  1  8  1  0
  1  7  1  0
  1  9  1  0
  1  2  1  0
  2 10  1  0
  2 11  1  0
  2  3  1  0
  3  4  1  0
  3 13  1  0
  3 12  1  0
  4  5  1  0
  5  6  1  0
  5 14  1  0
  5 15  1  0
  6 17  1  0
  6 18  1  0
  6 16  1  0
M  END
>  <rmg_smiles>  (1) 
CCCOCC

>  <rmg_adjacency_list>  (1) 
1  O u0 p2 c0 {3,S} {4,S}
2  C u0 p0 c0 {3,S} {5,S} {7,S} {8,S}
3  C u0 p0 c0 {1,S} {2,S} {9,S} {10,S}
4  C u0 p0 c0 {1,S} {6,S} {11,S} {12,S}
5  C u0 p0 c0 {2,S} {13,S} {14,S} {15,S}
6  C u0 p0 c0 {4,S} {16,S} {17,S} {18,S}
7  H u0 p0 c0 {2,S}
8  H u0 p0 c0 {2,S}
9  H u0 p0 c0 {3,S}
10 H u0 p0 c0 {3,S}
11 H u0 p0 c0 {4,S}
12 H u0 p0 c0 {4,S}
13 H u0 p0 c0 {5,S}
14 H u0 p0 c0 {5,S}
15 H u0 p0 c0 {5,S}
16 H u0 p0 c0 {6,S}
17 H u0 p0 c0 {6,S}
18 H u0 p0 c0 {6,S}


>  <multiplicity>  (1) 
1

>  <reaction>  (1) 
rmg_rxn_244

>  <type>  (1) 
r1h

>  <role_mapnums>  (1) 
{"r1h_a": 1, "r1h_h": 7}

>  <role_mapidx>  (1) 
{"r1h_a": 0, "r1h_h": 6}

>  <ordered_mapped_smiles>  (1) 
[C:1]([C:2]([C:3]([O:4][C:5]([C:6]([H:16])([H:17])[H:18])([H:14])[H:15])([H:12])[H:13])([H:10])[H:11])([H:7])([H:8])[H:9]

>  <mol_properties>  (1) 
{"0": {"label": "donator", "atom_type": "Cs"}, "6": {"label": "d_hydrogen", "atom_type": "H0"}}

>  <level_of_theory>  (1) 
wb97xd/def2tzvp

>  <lot_method>  (1) 
wb97xd

>  <lot_basis>  (1) 
def2tzvp

>  <spin_multiplicity>  (1) 
1.0

>  <optical_isomers>  (1) 
2.0

>  <modes>  (1) 
IdealGasTranslation(mass=(88.0888, 'amu')),         NonlinearRotor(             inertia = ([59.5652, 317.445, 349.634

>  <frequency_value>  (1) 
unknown

>  <frequency_units>  (1) 
unknown

>  <frequency_list>  (1) 
unknown

>  <arkane_path>  (1) 
/home/calvin/Dropbox/PersonalFolders/Calvin/ATLAS_Converged/rmg_rxn_244/output/Species/rmg_rxn_244_r2_CCCOCC/arkane/output.py

>  <path_exists>  (1) 
True

>  <E0_value>  (1) 
-716327.3605709573

>  <E0_units>  (1) 
kJ/mol

>  <thermo_class>  (1) 
NASA

>  <Cp0_value>  (1) 
33.257888

>  <Cp0_units>  (1) 
J/(mol*K)

>  <CpInf_value>  (1) 
432.352544

>  <CpInf_units>  (1) 
J/(mol*K)

>  <Tmin_value>  (1) 
10.0

>  <Tmin_units>  (1) 
K

>  <Tmax_value>  (1) 
3000.0

>  <Tmax_units>  (1) 
K

>  <polynomials>  (1) 
[{"name": "polynomial1", "class": "NASAPolynomial", "Tmin_value": 10.0, "Tmin_units": "K", "Tmax_value": 424.14701041358796, "Tmax_units": "K", "coeffs": [3.4707042336928127, 0.05746545203879795, -0.00016719847115372115, 4.780470157694204e-07, -4.3347206706639054e-10, -86154279.58985142, 11.635447004604476]}, {"name": "polynomial2", "class": "NASAPolynomial", "Tmin_value": 424.14701041358796, "Tmin_units": "K", "Tmax_value": 3000.0, "Tmax_units": "K", "coeffs": [-2.8535624465972114, 0.06921008708460846, -3.934323609424939e-05, 1.0841890934368647e-08, -1.163418506360095e-12, -86153312.26572455, 41.80111524234505]}]

>  <H298_value>  (1) 
-171200.6815246165

>  <H298_units>  (1) 
kcal/mol

>  <S298_value>  (1) 
88.37399878129293

>  <S298_units>  (1) 
cal/(mol*K)

>  <Cp_T_value_list>  (1) 
[29.924593767526826, 38.16083070533892, 46.09960348181722, 53.05840207682852, 64.40406715451496, 72.91410593462665, 85.72980278110597, 92.03567805993791, 95.21197800865355]

>  <Cp_T_units>  (1) 
cal/(mol*K)

>  <T_list>  (1) 
[300.0, 400.0, 500.0, 600.0, 800.0, 1000.0, 1500.0, 2000.0, 2400.0]

>  <T_units>  (1) 
K

>  <yaml_path>  (1) 
/home/calvin/Dropbox/PersonalFolders/Calvin/ATLAS_Converged/rmg_rxn_244/output/Species/rmg_rxn_244_r2_CCCOCC/rmg_rxn_244_r2_CCCOCC.yml

>  <frequencies_cm1>  (1) 
[76.60808822992, 85.88538539723999, 152.39213822143998, 171.44115549912, 250.05440344247998, 256.05614861216003, 329.51915756551995, 440.0707542322, 493.7774464199199, 767.98990421816, 823.02879155796, 891.3896304185598, 900.4815189822399, 929.41899512072, 1002.9850088538799, 1082.00340893112, 1102.9065122452, 1152.52734816752, 1174.9617892079598, 1182.44680320676, 1190.2339645596398, 1270.1176047871998, 1295.23017010244, 1305.6473868328799, 1368.30176089256, 1380.4425909383199, 1399.7456866728398, 1405.4521514737598, 1443.92787022172, 1468.7794900948002, 1470.37949767436, 1482.5752636026798, 1487.2448136202797, 1494.6336898246, 1500.58049911172, 1519.49904366832, 2928.8997117010795, 2942.5512785172396, 2962.4655359452395, 2968.54281795344, 3015.14904732028, 3021.7276192568397, 3024.0692612509597, 3058.7338031463196, 3085.2403664815197, 3101.8035350733594, 3104.27564978856, 3105.2988306012394]

>  <ZPE_kJmol>  (1) 
431.0594598774012

>  <E_elec_kJmol>  (1) 
-716758.4200308347

>  <E0_minus_Eelec_plus_ZPE_kJmol>  (1) 
0.0

>  <rxn>  (1) 
rmg_rxn_244

>  <species_type>  (1) 
r1

>  <species_folder>  (1) 
rmg_rxn_244_r2_CCCOCC

>  <frequencies_cm1_list>  (1) 
[76.60808822992, 85.88538539723999, 152.39213822143998, 171.44115549912, 250.05440344247998, 256.05614861216003, 329.51915756551995, 440.0707542322, 493.7774464199199, 767.98990421816, 823.02879155796, 891.3896304185598, 900.4815189822399, 929.41899512072, 1002.9850088538799, 1082.00340893112, 1102.9065122452, 1152.52734816752, 1174.9617892079598, 1182.44680320676, 1190.2339645596398, 1270.1176047871998, 1295.23017010244, 1305.6473868328799, 1368.30176089256, 1380.4425909383199, 1399.7456866728398, 1405.4521514737598, 1443.92787022172, 1468.7794900948002, 1470.37949767436, 1482.5752636026798, 1487.2448136202797, 1494.6336898246, 1500.58049911172, 1519.49904366832, 2928.8997117010795, 2942.5512785172396, 2962.4655359452395, 2968.54281795344, 3015.14904732028, 3021.7276192568397, 3024.0692612509597, 3058.7338031463196, 3085.2403664815197, 3101.8035350733594, 3104.27564978856, 3105.2988306012394]

>  <E0_kJmol>  (1) 
-716327

>  <H298_kJmol>  (1) 
-716304

$$$$

     RDKit          3D

 18 17  0  0  0  0  0  0  0  0999 V2000
    0.9907    1.7342   -1.9327 C   0  0  0  0  0  0  0  0  0  1  0  0
    1.2025    1.1027   -0.5920 C   0  0  0  0  0  0  0  0  0  2  0  0
    0.0409    0.4071   -0.1985 O   0  0  0  0  0  0  0  0  0  3  0  0
    0.1705   -0.2172    1.0549 C   0  0  0  0  0  0  0  0  0  4  0  0
   -1.1025   -0.9750    1.3715 C   0  0  0  0  0  0  0  0  0  5  0  0
   -1.3858   -2.1047    0.3902 C   0  0  0  0  0  0  0  0  0  6  0  0
    0.8713    1.0269   -2.7506 H   0  0  0  0  0  0  0  0  0  7  0  0
    0.2326    2.5140   -1.9469 H   0  0  0  0  0  0  0  0  0  8  0  0
    1.4467    1.8714    0.1567 H   0  0  0  0  0  0  0  0  0  9  0  0
    2.0539    0.4059   -0.6278 H   0  0  0  0  0  0  0  0  0 10  0  0
    1.0284   -0.9084    1.0425 H   0  0  0  0  0  0  0  0  0 11  0  0
    0.3693    0.5365    1.8309 H   0  0  0  0  0  0  0  0  0 12  0  0
   -1.9352   -0.2670    1.3792 H   0  0  0  0  0  0  0  0  0 13  0  0
   -1.0143   -1.3717    2.3868 H   0  0  0  0  0  0  0  0  0 14  0  0
   -0.5711   -2.8332    0.3893 H   0  0  0  0  0  0  0  0  0 15  0  0
   -1.4908   -1.7180   -0.6234 H   0  0  0  0  0  0  0  0  0 16  0  0
   -2.3050   -2.6309    0.6520 H   0  0  0  0  0  0  0  0  0 17  0  0
    1.9167    2.2589   -2.1571 H   0  0  0  0  0  0  0  0  0 18  0  0
  1  8  1  0
  1  7  1  0
  1 18  1  0
  1  2  1  0
  2 10  1  0
  2  9  1  0
  2  3  1  0
  3  4  1  0
  4  5  1  0
  4 12  1  0
  4 11  1  0
  5  6  1  0
  5 14  1  0
  5 13  1  0
  6 17  1  0
  6 15  1  0
  6 16  1  0
M  END
>  <rmg_smiles>  (2) 
CCCOCC

>  <rmg_adjacency_list>  (2) 
1  O u0 p2 c0 {3,S} {4,S}
2  C u0 p0 c0 {3,S} {5,S} {7,S} {8,S}
3  C u0 p0 c0 {1,S} {2,S} {11,S} {12,S}
4  C u0 p0 c0 {1,S} {6,S} {9,S} {10,S}
5  C u0 p0 c0 {2,S} {15,S} {16,S} {17,S}
6  C u0 p0 c0 {4,S} {13,S} {14,S} {18,S}
7  H u0 p0 c0 {2,S}
8  H u0 p0 c0 {2,S}
9  H u0 p0 c0 {4,S}
10 H u0 p0 c0 {4,S}
11 H u0 p0 c0 {3,S}
12 H u0 p0 c0 {3,S}
13 H u0 p0 c0 {6,S}
14 H u0 p0 c0 {6,S}
15 H u0 p0 c0 {5,S}
16 H u0 p0 c0 {5,S}
17 H u0 p0 c0 {5,S}
18 H u0 p0 c0 {6,S}


>  <multiplicity>  (2) 
1

>  <reaction>  (2) 
rmg_rxn_244

>  <type>  (2) 
r2h

>  <role_mapnums>  (2) 
{"r2h_a": 1, "r2h_h": 18}

>  <role_mapidx>  (2) 
{"r2h_a": 0, "r2h_h": 17}

>  <ordered_mapped_smiles>  (2) 
[C:1]([C:2]([O:3][C:4]([C:5]([C:6]([H:15])([H:16])[H:17])([H:13])[H:14])([H:11])[H:12])([H:9])[H:10])([H:7])([H:8])[H:18]

>  <mol_properties>  (2) 
{"0": {"label": "acceptor", "atom_type": "Cs"}, "17": {"label": "a_hydrogen", "atom_type": "H0"}}

>  <level_of_theory>  (2) 
wb97xd/def2tzvp

>  <lot_method>  (2) 
wb97xd

>  <lot_basis>  (2) 
def2tzvp

>  <spin_multiplicity>  (2) 
1.0

>  <optical_isomers>  (2) 
2.0

>  <modes>  (2) 
IdealGasTranslation(mass=(88.0888, 'amu')),         NonlinearRotor(             inertia = ([59.5652, 317.445, 349.634

>  <frequency_value>  (2) 
unknown

>  <frequency_units>  (2) 
unknown

>  <frequency_list>  (2) 
unknown

>  <arkane_path>  (2) 
/home/calvin/Dropbox/PersonalFolders/Calvin/ATLAS_Converged/rmg_rxn_244/output/Species/rmg_rxn_244_p2_CCCOCC/arkane/output.py

>  <path_exists>  (2) 
True

>  <E0_value>  (2) 
-716327.3605709573

>  <E0_units>  (2) 
kJ/mol

>  <thermo_class>  (2) 
NASA

>  <Cp0_value>  (2) 
33.257888

>  <Cp0_units>  (2) 
J/(mol*K)

>  <CpInf_value>  (2) 
432.352544

>  <CpInf_units>  (2) 
J/(mol*K)

>  <Tmin_value>  (2) 
10.0

>  <Tmin_units>  (2) 
K

>  <Tmax_value>  (2) 
3000.0

>  <Tmax_units>  (2) 
K

>  <polynomials>  (2) 
[{"name": "polynomial1", "class": "NASAPolynomial", "Tmin_value": 10.0, "Tmin_units": "K", "Tmax_value": 424.14701041358796, "Tmax_units": "K", "coeffs": [3.4707042336928127, 0.05746545203879795, -0.00016719847115372115, 4.780470157694204e-07, -4.3347206706639054e-10, -86154279.58985142, 11.635447004604476]}, {"name": "polynomial2", "class": "NASAPolynomial", "Tmin_value": 424.14701041358796, "Tmin_units": "K", "Tmax_value": 3000.0, "Tmax_units": "K", "coeffs": [-2.8535624465972114, 0.06921008708460846, -3.934323609424939e-05, 1.0841890934368647e-08, -1.163418506360095e-12, -86153312.26572455, 41.80111524234505]}]

>  <H298_value>  (2) 
-171200.6815246165

>  <H298_units>  (2) 
kcal/mol

>  <S298_value>  (2) 
88.37399878129293

>  <S298_units>  (2) 
cal/(mol*K)

>  <Cp_T_value_list>  (2) 
[29.924593767526826, 38.16083070533892, 46.09960348181722, 53.05840207682852, 64.40406715451496, 72.91410593462665, 85.72980278110597, 92.03567805993791, 95.21197800865355]

>  <Cp_T_units>  (2) 
cal/(mol*K)

>  <T_list>  (2) 
[300.0, 400.0, 500.0, 600.0, 800.0, 1000.0, 1500.0, 2000.0, 2400.0]

>  <T_units>  (2) 
K

>  <yaml_path>  (2) 
/home/calvin/Dropbox/PersonalFolders/Calvin/ATLAS_Converged/rmg_rxn_244/output/Species/rmg_rxn_244_p2_CCCOCC/rmg_rxn_244_p2_CCCOCC.yml

>  <frequencies_cm1>  (2) 
[76.60808822992, 85.88538539723999, 152.39213822143998, 171.44115549912, 250.05440344247998, 256.05614861216003, 329.51915756551995, 440.0707542322, 493.7774464199199, 767.98990421816, 823.02879155796, 891.3896304185598, 900.4815189822399, 929.41899512072, 1002.9850088538799, 1082.00340893112, 1102.9065122452, 1152.52734816752, 1174.9617892079598, 1182.44680320676, 1190.2339645596398, 1270.1176047871998, 1295.23017010244, 1305.6473868328799, 1368.30176089256, 1380.4425909383199, 1399.7456866728398, 1405.4521514737598, 1443.92787022172, 1468.7794900948002, 1470.37949767436, 1482.5752636026798, 1487.2448136202797, 1494.6336898246, 1500.58049911172, 1519.49904366832, 2928.8997117010795, 2942.5512785172396, 2962.4655359452395, 2968.54281795344, 3015.14904732028, 3021.7276192568397, 3024.0692612509597, 3058.7338031463196, 3085.2403664815197, 3101.8035350733594, 3104.27564978856, 3105.2988306012394]

>  <ZPE_kJmol>  (2) 
431.0594598774012

>  <E_elec_kJmol>  (2) 
-716758.4200308347

>  <E0_minus_Eelec_plus_ZPE_kJmol>  (2) 
0.0

>  <rxn>  (2) 
rmg_rxn_244

>  <species_type>  (2) 
p1

>  <species_folder>  (2) 
rmg_rxn_244_p2_CCCOCC

>  <frequencies_cm1_list>  (2) 
[76.60808822992, 85.88538539723999, 152.39213822143998, 171.44115549912, 250.05440344247998, 256.05614861216003, 329.51915756551995, 440.0707542322, 493.7774464199199, 767.98990421816, 823.02879155796, 891.3896304185598, 900.4815189822399, 929.41899512072, 1002.9850088538799, 1082.00340893112, 1102.9065122452, 1152.52734816752, 1174.9617892079598, 1182.44680320676, 1190.2339645596398, 1270.1176047871998, 1295.23017010244, 1305.6473868328799, 1368.30176089256, 1380.4425909383199, 1399.7456866728398, 1405.4521514737598, 1443.92787022172, 1468.7794900948002, 1470.37949767436, 1482.5752636026798, 1487.2448136202797, 1494.6336898246, 1500.58049911172, 1519.49904366832, 2928.8997117010795, 2942.5512785172396, 2962.4655359452395, 2968.54281795344, 3015.14904732028, 3021.7276192568397, 3024.0692612509597, 3058.7338031463196, 3085.2403664815197, 3101.8035350733594, 3104.27564978856, 3105.2988306012394]

>  <E0_kJmol>  (2) 
-716327

>  <H298_kJmol>  (2) 
-716304

$$$$

     RDKit          3D

 35 33  0  0  0  0  0  0  0  0999 V2000
   -1.1711    1.1765   -0.0354 C   0  0  0  0  0  3  0  0  0  1  0  0
   -0.9592    0.5450    1.3053 C   0  0  0  0  0  0  0  0  0  2  0  0
   -2.1208   -0.1507    1.6988 O   0  0  0  0  0  0  0  0  0  3  0  0
   -1.9912   -0.7750    2.9521 C   0  0  0  0  0  0  0  0  0  4  0  0
   -3.2643   -1.5327    3.2688 C   0  0  0  0  0  0  0  0  0  5  0  0
   -3.5476   -2.6624    2.2875 C   0  0  0  0  0  0  0  0  0  6  0  0
   -1.2905    0.4692   -0.8533 H   0  0  0  0  0  0  0  0  0  7  0  0
   -1.9291    1.9563   -0.0496 H   0  0  0  0  0  0  0  0  0  8  0  0
   -0.7151    1.3137    2.0540 H   0  0  0  0  0  0  0  0  0  9  0  0
   -0.1079   -0.1518    1.2695 H   0  0  0  0  0  0  0  0  0 10  0  0
   -1.1333   -1.4661    2.9398 H   0  0  0  0  0  0  0  0  0 11  0  0
   -1.7925   -0.0212    3.7282 H   0  0  0  0  0  0  0  0  0 12  0  0
   -4.0969   -0.8247    3.2764 H   0  0  0  0  0  0  0  0  0 13  0  0
   -3.1761   -1.9294    4.2841 H   0  0  0  0  0  0  0  0  0 14  0  0
   -2.7329   -3.3909    2.2866 H   0  0  0  0  0  0  0  0  0 15  0  0
   -3.6526   -2.2757    1.2739 H   0  0  0  0  0  0  0  0  0 16  0  0
   -4.4667   -3.1887    2.5492 H   0  0  0  0  0  0  0  0  0 17  0  0
    1.1616    2.4209   -0.5238 C   0  0  0  0  0  0  0  0  0 18  0  0
    2.2301    1.4382   -0.1177 C   0  0  0  0  0  0  0  0  0 19  0  0
    2.1913    0.1471   -0.9124 C   0  0  0  0  0  0  0  0  0 20  0  0
    2.4084    0.4323   -2.2702 O   0  0  0  0  0  0  0  0  0 21  0  0
    2.3196   -0.7013   -3.0965 C   0  0  0  0  0  0  0  0  0 22  0  0
    2.5608   -0.2844   -4.5286 C   0  0  0  0  0  0  0  0  0 23  0  0
   -0.0123    1.8330   -0.3163 H   0  0  0  0  0  0  0  0  0 24  0  0
    1.1501    2.6532   -1.5860 H   0  0  0  0  0  0  0  0  0 25  0  0
    1.1162    3.3179    0.0911 H   0  0  0  0  0  0  0  0  0 26  0  0
    2.1303    1.1882    0.9427 H   0  0  0  0  0  0  0  0  0 27  0  0
    3.2215    1.8892   -0.2390 H   0  0  0  0  0  0  0  0  0 28  0  0
    1.2156   -0.3459   -0.7846 H   0  0  0  0  0  0  0  0  0 29  0  0
    2.9602   -0.5474   -0.5442 H   0  0  0  0  0  0  0  0  0 30  0  0
    3.0605   -1.4519   -2.7841 H   0  0  0  0  0  0  0  0  0 31  0  0
    1.3267   -1.1627   -2.9919 H   0  0  0  0  0  0  0  0  0 32  0  0
    3.5505    0.1609   -4.6357 H   0  0  0  0  0  0  0  0  0 33  0  0
    1.8174    0.4487   -4.8435 H   0  0  0  0  0  0  0  0  0 34  0  0
    2.4963   -1.1499   -5.1899 H   0  0  0  0  0  0  0  0  0 35  0  0
  1  7  1  0
  1  8  1  0
  1  2  1  0
  2  3  1  0
  2 10  1  0
  2  9  1  0
  3  4  1  0
  4 11  1  0
  4 12  1  0
  4  5  1  0
  5 14  1  0
  5 13  1  0
  5  6  1  0
  6 16  1  0
  6 17  1  0
  6 15  1  0
 18 19  1  0
 18 24  1  0
 18 25  1  0
 18 26  1  0
 19 27  1  0
 19 28  1  0
 19 20  1  0
 20 30  1  0
 20 21  1  0
 20 29  1  0
 21 22  1  0
 22 32  1  0
 22 23  1  0
 22 31  1  0
 23 34  1  0
 23 33  1  0
 23 35  1  0
M  RAD  1   1   2
M  END
>  <rmg_smiles>  (3) 
CCCOCC.[CH2]COCCC

>  <rmg_adjacency_list>  (3) 
multiplicity 2
1  O u0 p2 c0 {6,S} {7,S}
2  O u0 p2 c0 {5,S} {8,S}
3  C u0 p0 c0 {5,S} {9,S} {13,S} {14,S}
4  C u0 p0 c0 {6,S} {10,S} {15,S} {16,S}
5  C u0 p0 c0 {2,S} {3,S} {17,S} {18,S}
6  C u0 p0 c0 {1,S} {4,S} {19,S} {20,S}
7  C u0 p0 c0 {1,S} {11,S} {21,S} {22,S}
8  C u0 p0 c0 {2,S} {12,S} {23,S} {24,S}
9  C u0 p0 c0 {3,S} {25,S} {26,S} {27,S}
10 C u0 p0 c0 {4,S} {28,S} {29,S} {30,S}
11 C u0 p0 c0 {7,S} {31,S} {32,S} {33,S}
12 C u1 p0 c0 {8,S} {34,S} {35,S}
13 H u0 p0 c0 {3,S}
14 H u0 p0 c0 {3,S}
15 H u0 p0 c0 {4,S}
16 H u0 p0 c0 {4,S}
17 H u0 p0 c0 {5,S}
18 H u0 p0 c0 {5,S}
19 H u0 p0 c0 {6,S}
20 H u0 p0 c0 {6,S}
21 H u0 p0 c0 {7,S}
22 H u0 p0 c0 {7,S}
23 H u0 p0 c0 {8,S}
24 H u0 p0 c0 {8,S}
25 H u0 p0 c0 {9,S}
26 H u0 p0 c0 {9,S}
27 H u0 p0 c0 {9,S}
28 H u0 p0 c0 {10,S}
29 H u0 p0 c0 {10,S}
30 H u0 p0 c0 {10,S}
31 H u0 p0 c0 {11,S}
32 H u0 p0 c0 {11,S}
33 H u0 p0 c0 {11,S}
34 H u0 p0 c0 {12,S}
35 H u0 p0 c0 {12,S}


>  <multiplicity>  (3) 
2

>  <reaction>  (3) 
rmg_rxn_244

>  <type>  (3) 
ts

>  <role_mapnums>  (3) 
{"*2": 24, "*1": 18, "*3": 1, "*0": 19, "*4": 2}

>  <role_mapidx>  (3) 
{"*2": 23, "*1": 17, "*3": 0, "*0": 18, "*4": 1}

>  <ordered_mapped_smiles>  (3) 
[C:1]([C:2]([O:3][C:4]([C:5]([C:6]([H:15])([H:16])[H:17])([H:13])[H:14])([H:11])[H:12])([H:9])[H:10])([H:7])[H:8].[C:18]([C:19]([C:20]([O:21][C:22]([C:23]([H:33])([H:34])[H:35])([H:31])[H:32])([H:29])[H:30])([H:27])[H:28])([H:24])([H:25])[H:26]

>  <mol_properties>  (3) 
{"0": {"label": "*3", "atom_type": "Cs"}, "1": {"label": "*4", "atom_type": "Cs"}, "17": {"label": "*1", "atom_type": "Cs"}, "18": {"label": "*0", "atom_type": "Cs"}, "23": {"label": "*2", "atom_type": "H0"}}

>  <level_of_theory>  (3) 
wb97xd/def2tzvp

>  <lot_method>  (3) 
wb97xd

>  <lot_basis>  (3) 
def2tzvp

>  <spin_multiplicity>  (3) 
2.0

>  <optical_isomers>  (3) 
2.0

>  <modes>  (3) 
IdealGasTranslation(mass=(175.17, 'amu')),         NonlinearRotor(             inertia = ([380.433, 1948.71, 2147.9

>  <frequency_value>  (3) 
-1705.94

>  <frequency_units>  (3) 
cm^-1

>  <frequency_list>  (3) 
unknown

>  <arkane_path>  (3) 
/home/calvin/Dropbox/PersonalFolders/Calvin/ATLAS_Converged/rmg_rxn_244/output/rxns/TS0/arkane/output.py

>  <path_exists>  (3) 
True

>  <E0_value>  (3) 
-1430860.0

>  <E0_units>  (3) 
kJ/mol

>  <thermo_class>  (3) 
unknown

>  <Cp0_value>  (3) 
unknown

>  <Cp0_units>  (3) 
unknown

>  <CpInf_value>  (3) 
unknown

>  <CpInf_units>  (3) 
unknown

>  <Tmin_value>  (3) 
unknown

>  <Tmin_units>  (3) 
unknown

>  <Tmax_value>  (3) 
unknown

>  <Tmax_units>  (3) 
unknown

>  <polynomials>  (3) 
unknown

>  <H298_value>  (3) 
unknown

>  <H298_units>  (3) 
unknown

>  <S298_value>  (3) 
unknown

>  <S298_units>  (3) 
unknown

>  <Cp_T_value_list>  (3) 
unknown

>  <Cp_T_units>  (3) 
unknown

>  <T_list>  (3) 
unknown

>  <T_units>  (3) 
unknown

>  <yaml_path>  (3) 
unknown

>  <frequencies_cm1>  (3) 
unknown

>  <ZPE_kJmol>  (3) 
unknown

>  <E_elec_kJmol>  (3) 
unknown

>  <E0_minus_Eelec_plus_ZPE_kJmol>  (3) 
unknown

>  <rxn>  (3) 
unknown

>  <species_type>  (3) 
unknown

>  <species_folder>  (3) 
unknown

>  <frequencies_cm1_list>  (3) 
[]

>  <ts_imag_freq_cm1>  (3) 
-1726.6614

>  <ts_freq_out_path>  (3) 
/home/calvin/Dropbox/PersonalFolders/Calvin/ATLAS_Converged/rmg_rxn_244/output/rxns/TS0/geometry/freq.out

>  <E0_kJmol>  (3) 
-1.43086e+06

>  <H298_kJmol>  (3) 
unknown

$$$$

     RDKit          3D

 17 16  0  0  0  0  0  0  0  0999 V2000
    2.3128   -0.1525    1.1777 C   0  0  0  0  0  3  0  0  0  1  0  0
    1.7469    0.7266    0.1254 C   0  0  0  0  0  0  0  0  0  2  0  0
    1.6374    2.1830    0.5408 C   0  0  0  0  0  0  0  0  0  3  0  0
    2.9245    2.6874    0.7877 O   0  0  0  0  0  0  0  0  0  4  0  0
    2.9227    4.0197    1.2361 C   0  0  0  0  0  0  0  0  0  5  0  0
    4.3491    4.4603    1.4693 C   0  0  0  0  0  0  0  0  0  6  0  0
    2.1393   -1.2196    1.1557 H   0  0  0  0  0  0  0  0  0  7  0  0
    3.0313    0.2400    1.8838 H   0  0  0  0  0  0  0  0  0  8  0  0
    0.7555    0.3746   -0.1764 H   0  0  0  0  0  0  0  0  0  9  0  0
    2.3678    0.6841   -0.7826 H   0  0  0  0  0  0  0  0  0 10  0  0
    1.0170    2.2718    1.4449 H   0  0  0  0  0  0  0  0  0 11  0  0
    1.1499    2.7653   -0.2546 H   0  0  0  0  0  0  0  0  0 12  0  0
    2.4379    4.6655    0.4891 H   0  0  0  0  0  0  0  0  0 13  0  0
    2.3377    4.1015    2.1638 H   0  0  0  0  0  0  0  0  0 14  0  0
    4.9261    4.3920    0.5465 H   0  0  0  0  0  0  0  0  0 15  0  0
    4.3728    5.4939    1.8180 H   0  0  0  0  0  0  0  0  0 16  0  0
    4.8260    3.8299    2.2206 H   0  0  0  0  0  0  0  0  0 17  0  0
  1  8  1  0
  1  7  1  0
  1  2  1  0
  2 10  1  0
  2  9  1  0
  2  3  1  0
  3 11  1  0
  3  4  1  0
  3 12  1  0
  4  5  1  0
  5 13  1  0
  5  6  1  0
  5 14  1  0
  6 17  1  0
  6 15  1  0
  6 16  1  0
M  RAD  1   1   2
M  END
>  <rmg_smiles>  (4) 
[CH2]CCOCC

>  <rmg_adjacency_list>  (4) 
multiplicity 2
1  O u0 p2 c0 {3,S} {4,S}
2  C u0 p0 c0 {3,S} {6,S} {7,S} {8,S}
3  C u0 p0 c0 {1,S} {2,S} {9,S} {10,S}
4  C u0 p0 c0 {1,S} {5,S} {11,S} {12,S}
5  C u0 p0 c0 {4,S} {13,S} {14,S} {15,S}
6  C u1 p0 c0 {2,S} {16,S} {17,S}
7  H u0 p0 c0 {2,S}
8  H u0 p0 c0 {2,S}
9  H u0 p0 c0 {3,S}
10 H u0 p0 c0 {3,S}
11 H u0 p0 c0 {4,S}
12 H u0 p0 c0 {4,S}
13 H u0 p0 c0 {5,S}
14 H u0 p0 c0 {5,S}
15 H u0 p0 c0 {5,S}
16 H u0 p0 c0 {6,S}
17 H u0 p0 c0 {6,S}


>  <multiplicity>  (4) 
2

>  <reaction>  (4) 
rmg_rxn_244

>  <type>  (4) 
r1

>  <role_mapnums>  (4) 
{}

>  <role_mapidx>  (4) 
{}

>  <ordered_mapped_smiles>  (4) 
[C:1]([C:2]([C:3]([O:4][C:5]([C:6]([H:15])([H:16])[H:17])([H:13])[H:14])([H:11])[H:12])([H:9])[H:10])([H:7])[H:8]

>  <level_of_theory>  (4) 
wb97xd/def2tzvp

>  <lot_method>  (4) 
wb97xd

>  <lot_basis>  (4) 
def2tzvp

>  <spin_multiplicity>  (4) 
2.0

>  <optical_isomers>  (4) 
2.0

>  <modes>  (4) 
IdealGasTranslation(mass=(87.081, 'amu')),         NonlinearRotor(             inertia = ([56.1942, 309.598, 341.445

>  <frequency_value>  (4) 
unknown

>  <frequency_units>  (4) 
unknown

>  <frequency_list>  (4) 
unknown

>  <arkane_path>  (4) 
/home/calvin/Dropbox/PersonalFolders/Calvin/ATLAS_Converged/rmg_rxn_244/output/Species/rmg_rxn_244_p1_sbr-CH2-sbrCCOCC/arkane/output.py

>  <path_exists>  (4) 
True

>  <E0_value>  (4) 
-714594.9534761205

>  <E0_units>  (4) 
kJ/mol

>  <thermo_class>  (4) 
NASA

>  <Cp0_value>  (4) 
33.257888

>  <Cp0_units>  (4) 
J/(mol*K)

>  <CpInf_value>  (4) 
407.409128

>  <CpInf_units>  (4) 
J/(mol*K)

>  <Tmin_value>  (4) 
10.0

>  <Tmin_units>  (4) 
K

>  <Tmax_value>  (4) 
3000.0

>  <Tmax_units>  (4) 
K

>  <polynomials>  (4) 
[{"name": "polynomial1", "class": "NASAPolynomial", "Tmin_value": 10.0, "Tmin_units": "K", "Tmax_value": 428.2196342565028, "Tmax_units": "K", "coeffs": [3.449989296280544, 0.057423832316827995, -0.00013332000129952934, 3.4481867882035973e-07, -3.039663546787581e-10, -85945919.20509715, 12.33173677011069]}, {"name": "polynomial2", "class": "NASAPolynomial", "Tmin_value": 428.2196342565028, "Tmin_units": "K", "Tmax_value": 3000.0, "Tmax_units": "K", "coeffs": [-0.8337724645043922, 0.06365483127668993, -3.68065916523196e-05, 1.0327972414463865e-08, -1.1275406847880222e-12, -85945242.57829364, 32.98197379692207]}]

>  <H298_value>  (4) 
-170786.4494875034

>  <H298_units>  (4) 
kcal/mol

>  <S298_value>  (4) 
90.65975504557764

>  <S298_units>  (4) 
cal/(mol*K)

>  <Cp_T_value_list>  (4) 
[30.85399555380273, 38.5024812284313, 45.73063038026963, 52.05182606770565, 62.3187066664259, 69.97927600380646, 81.44044284908489, 87.10453068800588, 90.01380036436508]

>  <Cp_T_units>  (4) 
cal/(mol*K)

>  <T_list>  (4) 
[300.0, 400.0, 500.0, 600.0, 800.0, 1000.0, 1500.0, 2000.0, 2400.0]

>  <T_units>  (4) 
K

>  <yaml_path>  (4) 
/home/calvin/Dropbox/PersonalFolders/Calvin/ATLAS_Converged/rmg_rxn_244/output/Species/rmg_rxn_244_p1_sbr-CH2-sbrCCOCC/rmg_rxn_244_p1_sbr-CH2-sbrCCOCC.yml

>  <frequencies_cm1>  (4) 
[77.74114080771999, 86.7643595182, 154.72691323024, 159.93208810279998, 205.28852614139996, 250.85784072491998, 323.93629850035995, 437.44756583995996, 463.20562777527994, 521.1423829201199, 769.3220993702398, 823.3858747945999, 896.9312875718, 917.44297272264, 996.1248905191999, 1038.9886128866399, 1087.27038667156, 1111.9984008088798, 1157.1694302438398, 1177.7154503212798, 1186.02450255848, 1226.1551647685599, 1286.5434336726398, 1297.95636327448, 1365.48629691136, 1376.61081312976, 1398.7293728454802, 1437.088352843, 1439.70467424992, 1453.5004477578, 1470.50997039544, 1487.1830107523997, 1499.68779102012, 1519.27930013808, 2936.7761438631196, 2941.988185721, 2946.20451470748, 2969.2432504560797, 2976.1926395999203, 3024.23406889864, 3030.8195078205194, 3102.0438795595596, 3104.5915311132794, 3130.6998092999197, 3236.4651171985597]

>  <ZPE_kJmol>  (4) 
391.7837560230114

>  <E_elec_kJmol>  (4) 
-714986.7372321435

>  <E0_minus_Eelec_plus_ZPE_kJmol>  (4) 
0.0

>  <rxn>  (4) 
rmg_rxn_244

>  <species_type>  (4) 
p0

>  <species_folder>  (4) 
rmg_rxn_244_p1_sbr-CH2-sbrCCOCC

>  <frequencies_cm1_list>  (4) 
[77.74114080771999, 86.7643595182, 154.72691323024, 159.93208810279998, 205.28852614139996, 250.85784072491998, 323.93629850035995, 437.44756583995996, 463.20562777527994, 521.1423829201199, 769.3220993702398, 823.3858747945999, 896.9312875718, 917.44297272264, 996.1248905191999, 1038.9886128866399, 1087.27038667156, 1111.9984008088798, 1157.1694302438398, 1177.7154503212798, 1186.02450255848, 1226.1551647685599, 1286.5434336726398, 1297.95636327448, 1365.48629691136, 1376.61081312976, 1398.7293728454802, 1437.088352843, 1439.70467424992, 1453.5004477578, 1470.50997039544, 1487.1830107523997, 1499.68779102012, 1519.27930013808, 2936.7761438631196, 2941.988185721, 2946.20451470748, 2969.2432504560797, 2976.1926395999203, 3024.23406889864, 3030.8195078205194, 3102.0438795595596, 3104.5915311132794, 3130.6998092999197, 3236.4651171985597]

>  <E0_kJmol>  (4) 
-714595

>  <H298_kJmol>  (4) 
-714571

$$$$

     RDKit          3D

 17 16  0  0  0  0  0  0  0  0999 V2000
    3.3619    0.3511   -1.0290 C   0  0  0  0  0  3  0  0  0  1  0  0
    2.1806    1.0643   -0.5073 C   0  0  0  0  0  0  0  0  0  2  0  0
    1.4028    0.1998    0.2757 O   0  0  0  0  0  0  0  0  0  3  0  0
    0.2433    0.8081    0.7885 C   0  0  0  0  0  0  0  0  0  4  0  0
   -0.5040   -0.1878    1.6510 C   0  0  0  0  0  0  0  0  0  5  0  0
    0.2852   -0.6298    2.8762 C   0  0  0  0  0  0  0  0  0  6  0  0
    4.1174    0.8902   -1.5820 H   0  0  0  0  0  0  0  0  0  7  0  0
    3.4399   -0.7198   -0.9141 H   0  0  0  0  0  0  0  0  0  8  0  0
    1.5724    1.4684   -1.3398 H   0  0  0  0  0  0  0  0  0  9  0  0
    2.4896    1.9442    0.0856 H   0  0  0  0  0  0  0  0  0 10  0  0
    0.5169    1.6937    1.3835 H   0  0  0  0  0  0  0  0  0 11  0  0
   -0.3954    1.1528   -0.0379 H   0  0  0  0  0  0  0  0  0 12  0  0
   -0.7611   -1.0545    1.0367 H   0  0  0  0  0  0  0  0  0 13  0  0
   -1.4466    0.2743    1.9571 H   0  0  0  0  0  0  0  0  0 14  0  0
    0.5263    0.2245    3.5136 H   0  0  0  0  0  0  0  0  0 15  0  0
    1.2220   -1.1033    2.5825 H   0  0  0  0  0  0  0  0  0 16  0  0
   -0.2849   -1.3427    3.4737 H   0  0  0  0  0  0  0  0  0 17  0  0
  1  8  1  0
  1  7  1  0
  1  2  1  0
  2 10  1  0
  2  9  1  0
  2  3  1  0
  3  4  1  0
  4  5  1  0
  4 12  1  0
  4 11  1  0
  5 14  1  0
  5  6  1  0
  5 13  1  0
  6 17  1  0
  6 15  1  0
  6 16  1  0
M  RAD  1   1   2
M  END
>  <rmg_smiles>  (5) 
[CH2]COCCC

>  <rmg_adjacency_list>  (5) 
multiplicity 2
1  O u0 p2 c0 {3,S} {4,S}
2  C u0 p0 c0 {3,S} {5,S} {7,S} {8,S}
3  C u0 p0 c0 {1,S} {2,S} {9,S} {10,S}
4  C u0 p0 c0 {1,S} {6,S} {11,S} {12,S}
5  C u0 p0 c0 {2,S} {13,S} {14,S} {15,S}
6  C u1 p0 c0 {4,S} {16,S} {17,S}
7  H u0 p0 c0 {2,S}
8  H u0 p0 c0 {2,S}
9  H u0 p0 c0 {3,S}
10 H u0 p0 c0 {3,S}
11 H u0 p0 c0 {4,S}
12 H u0 p0 c0 {4,S}
13 H u0 p0 c0 {5,S}
14 H u0 p0 c0 {5,S}
15 H u0 p0 c0 {5,S}
16 H u0 p0 c0 {6,S}
17 H u0 p0 c0 {6,S}


>  <multiplicity>  (5) 
2

>  <reaction>  (5) 
rmg_rxn_244

>  <type>  (5) 
r2

>  <role_mapnums>  (5) 
{}

>  <role_mapidx>  (5) 
{}

>  <ordered_mapped_smiles>  (5) 
[C:1]([C:2]([O:3][C:4]([C:5]([C:6]([H:15])([H:16])[H:17])([H:13])[H:14])([H:11])[H:12])([H:9])[H:10])([H:7])[H:8]

>  <level_of_theory>  (5) 
wb97xd/def2tzvp

>  <lot_method>  (5) 
wb97xd

>  <lot_basis>  (5) 
def2tzvp

>  <spin_multiplicity>  (5) 
2.0

>  <optical_isomers>  (5) 
2.0

>  <modes>  (5) 
IdealGasTranslation(mass=(87.081, 'amu')),         NonlinearRotor(             inertia = ([56.6963, 308.928, 339.863

>  <frequency_value>  (5) 
unknown

>  <frequency_units>  (5) 
unknown

>  <frequency_list>  (5) 
unknown

>  <arkane_path>  (5) 
/home/calvin/Dropbox/PersonalFolders/Calvin/ATLAS_Converged/rmg_rxn_244/output/Species/rmg_rxn_244_r1_sbr-CH2-sbrCOCCC/arkane/output.py

>  <path_exists>  (5) 
True

>  <E0_value>  (5) 
-714592.2874414226

>  <E0_units>  (5) 
kJ/mol

>  <thermo_class>  (5) 
NASA

>  <Cp0_value>  (5) 
33.257888

>  <Cp0_units>  (5) 
J/(mol*K)

>  <CpInf_value>  (5) 
407.409128

>  <CpInf_units>  (5) 
J/(mol*K)

>  <Tmin_value>  (5) 
10.0

>  <Tmin_units>  (5) 
K

>  <Tmax_value>  (5) 
3000.0

>  <Tmax_units>  (5) 
K

>  <polynomials>  (5) 
[{"name": "polynomial1", "class": "NASAPolynomial", "Tmin_value": 10.0, "Tmin_units": "K", "Tmax_value": 421.035855830905, "Tmax_units": "K", "coeffs": [3.3789406813208065, 0.06590596017086366, -0.00019249809040560733, 4.899813308840383e-07, -4.242410627799397e-10, -85945598.19070739, 12.514736539096582]}, {"name": "polynomial2", "class": "NASAPolynomial", "Tmin_value": 421.035855830905, "Tmin_units": "K", "Tmax_value": 3000.0, "Tmax_units": "K", "coeffs": [-0.7031553085295065, 0.06341059745348604, -3.655347709588294e-05, 1.021357311823544e-08, -1.1100139129408708e-12, -85944888.58939976, 33.02208008641289]}]

>  <H298_value>  (5) 
-170785.6861885609

>  <H298_units>  (5) 
kcal/mol

>  <S298_value>  (5) 
92.09384257836304

>  <S298_units>  (5) 
cal/(mol*K)

>  <Cp_T_value_list>  (5) 
[31.038265619376926, 38.63102462361129, 45.847029798195116, 52.15666973937588, 62.409780220359046, 70.06398140589506, 81.51278875283624, 87.14396027312499, 90.01864155696947]

>  <Cp_T_units>  (5) 
cal/(mol*K)

>  <T_list>  (5) 
[300.0, 400.0, 500.0, 600.0, 800.0, 1000.0, 1500.0, 2000.0, 2400.0]

>  <T_units>  (5) 
K

>  <yaml_path>  (5) 
/home/calvin/Dropbox/PersonalFolders/Calvin/ATLAS_Converged/rmg_rxn_244/output/Species/rmg_rxn_244_r1_sbr-CH2-sbrCOCCC/rmg_rxn_244_r1_sbr-CH2-sbrCOCCC.yml

>  <frequencies_cm1>  (5) 
[70.26986077955999, 88.4467709216, 104.549851497, 153.07883675344, 172.60167601819998, 255.52052375720004, 329.3406159472, 414.08608178132, 453.8047248722, 492.96027516683995, 765.9229416368398, 873.5492025571998, 892.37160931932, 924.52970157288, 955.5272733073599, 1010.5936285884401, 1091.5691194818799, 1101.61551900504, 1147.9951378563198, 1175.99183700596, 1193.5163835426, 1228.5654766158798, 1271.8686860438, 1305.08429403664, 1367.51892456608, 1378.9249871825998, 1404.3190988959598, 1420.9784052822797, 1445.0952577261198, 1468.6833523003202, 1476.29197203488, 1483.39930184108, 1494.4551482062798, 1509.4526441451599, 2863.5603463812795, 2892.74503399128, 2932.77955840688, 2965.8028908107603, 3015.3275889386, 3021.99543168432, 3058.9535466765597, 3085.6249176594397, 3105.36750045444, 3142.87497427228, 3256.07036028716]

>  <ZPE_kJmol>  (5) 
390.3630165565436

>  <E_elec_kJmol>  (5) 
-714982.6504579792

>  <E0_minus_Eelec_plus_ZPE_kJmol>  (5) 
0.0

>  <rxn>  (5) 
rmg_rxn_244

>  <species_type>  (5) 
r0

>  <species_folder>  (5) 
rmg_rxn_244_r1_sbr-CH2-sbrCOCCC

>  <frequencies_cm1_list>  (5) 
[70.26986077955999, 88.4467709216, 104.549851497, 153.07883675344, 172.60167601819998, 255.52052375720004, 329.3406159472, 414.08608178132, 453.8047248722, 492.96027516683995, 765.9229416368398, 873.5492025571998, 892.37160931932, 924.52970157288, 955.5272733073599, 1010.5936285884401, 1091.5691194818799, 1101.61551900504, 1147.9951378563198, 1175.99183700596, 1193.5163835426, 1228.5654766158798, 1271.8686860438, 1305.08429403664, 1367.51892456608, 1378.9249871825998, 1404.3190988959598, 1420.9784052822797, 1445.0952577261198, 1468.6833523003202, 1476.29197203488, 1483.39930184108, 1494.4551482062798, 1509.4526441451599, 2863.5603463812795, 2892.74503399128, 2932.77955840688, 2965.8028908107603, 3015.3275889386, 3021.99543168432, 3058.9535466765597, 3085.6249176594397, 3105.36750045444, 3142.87497427228, 3256.07036028716]

>  <E0_kJmol>  (5) 
-714592

>  <H298_kJmol>  (5) 
-714567

$$$$
