
     RDKit          3D

  3  2  0  0  0  0  0  0  0  0999 V2000
   -0.2347    0.0982   -0.6199 O   0  0  0  0  0  1  0  0  0  1  0  0
    0.1841   -0.1425    0.5638 O   0  0  0  0  0  0  0  0  0  2  0  0
    0.7261    0.5965    0.8497 H   0  0  0  0  0  0  0  0  0  3  0  0
  1  2  1  0
  2  3  1  0
M  RAD  1   1   2
M  END
>  <rmg_smiles>  (1) 
[O]O

>  <rmg_adjacency_list>  (1) 
multiplicity 2
1 O u1 p2 c0 {2,S}
2 O u0 p2 c0 {1,S} {3,S}
3 H u0 p0 c0 {2,S}


>  <multiplicity>  (1) 
2

>  <reaction>  (1) 
rmg_rxn_417

>  <type>  (1) 
r1h

>  <role_mapnums>  (1) 
{"r1h_a": 2, "r1h_h": 3}

>  <role_mapidx>  (1) 
{"r1h_a": 1, "r1h_h": 2}

>  <ordered_mapped_smiles>  (1) 
[O:1][O:2][H:3]

>  <mol_properties>  (1) 
{"1": {"label": "donator", "atom_type": "O2s"}, "2": {"label": "d_hydrogen", "atom_type": "H0"}}

>  <level_of_theory>  (1) 
wb97xd/def2tzvp

>  <lot_method>  (1) 
wb97xd

>  <lot_basis>  (1) 
def2tzvp

>  <spin_multiplicity>  (1) 
2.0

>  <optical_isomers>  (1) 
1.0

>  <modes>  (1) 
IdealGasTranslation(mass=(32.9977, 'amu')),         NonlinearRotor(             inertia = ([0.803517, 14.5889, 15.3924

>  <frequency_value>  (1) 
unknown

>  <frequency_units>  (1) 
unknown

>  <frequency_list>  (1) 
unknown

>  <arkane_path>  (1) 
/home/calvin/Dropbox/PersonalFolders/Calvin/ATLAS_Converged/rmg_rxn_417/output/Species/rmg_rxn_417_r1_sbr-O-sbrO/arkane/output.py

>  <path_exists>  (1) 
True

>  <E0_value>  (1) 
-396214.7927695948

>  <E0_units>  (1) 
kJ/mol

>  <thermo_class>  (1) 
NASA

>  <Cp0_value>  (1) 
33.257888

>  <Cp0_units>  (1) 
J/(mol*K)

>  <CpInf_value>  (1) 
58.201304

>  <CpInf_units>  (1) 
J/(mol*K)

>  <Tmin_value>  (1) 
10.0

>  <Tmin_units>  (1) 
K

>  <Tmax_value>  (1) 
3000.0

>  <Tmax_units>  (1) 
K

>  <polynomials>  (1) 
[{"name": "polynomial1", "class": "NASAPolynomial", "Tmin_value": 10.0, "Tmin_units": "K", "Tmax_value": 938.1761657005266, "Tmax_units": "K", "coeffs": [4.028901041197694, -0.001700194588450402, 1.0116570391044709e-05, -1.0102604785693042e-08, 3.2944164308155567e-12, -47653633.38793454, 4.661311507836104]}, {"name": "polynomial2", "class": "NASAPolynomial", "Tmin_value": 938.1761657005266, "Tmin_units": "K", "Tmax_value": 3000.0, "Tmax_units": "K", "coeffs": [3.0224262557447976, 0.004282199494853047, -2.1523259427611133e-06, 5.370890698672739e-10, -5.2803327661120167e-14, -47653518.96521391, 9.05607970771492]}]

>  <H298_value>  (1) 
-94695.23338060974

>  <H298_units>  (1) 
kcal/mol

>  <S298_value>  (1) 
54.59701487407023

>  <S298_units>  (1) 
cal/(mol*K)

>  <Cp_T_value_list>  (1) 
[8.312978502499373, 8.75413115003035, 9.2425407042839, 9.728455599899984, 10.572355382757646, 11.20105944824, 12.218042861408723, 12.776507304533373, 13.066159424780023]

>  <Cp_T_units>  (1) 
cal/(mol*K)

>  <T_list>  (1) 
[300.0, 400.0, 500.0, 600.0, 800.0, 1000.0, 1500.0, 2000.0, 2400.0]

>  <T_units>  (1) 
K

>  <yaml_path>  (1) 
/home/calvin/Dropbox/PersonalFolders/Calvin/ATLAS_Converged/rmg_rxn_417/output/Species/rmg_rxn_417_r1_sbr-O-sbrO/rmg_rxn_417_r1_sbr-O-sbrO.yml

>  <frequencies_cm1>  (1) 
[1229.25217514788, 1446.77766912952, 3624.6283293968795]

>  <ZPE_kJmol>  (1) 
37.68631575394318

>  <E_elec_kJmol>  (1) 
-396252.4790853488

>  <E0_minus_Eelec_plus_ZPE_kJmol>  (1) 
0.0

>  <rxn>  (1) 
rmg_rxn_417

>  <species_type>  (1) 
r0

>  <species_folder>  (1) 
rmg_rxn_417_r1_sbr-O-sbrO

>  <frequencies_cm1_list>  (1) 
[1229.25217514788, 1446.77766912952, 3624.6283293968795]

>  <E0_kJmol>  (1) 
-396215

>  <H298_kJmol>  (1) 
-396205

$$$$

     RDKit          3D

  9  8  0  0  0  0  0  0  0  0999 V2000
   -0.1436   -1.8504    0.5696 H   0  0  0  0  0  0  0  0  0  1  0  0
   -0.5077    1.1579   -0.1700 C   0  0  0  0  0  0  0  0  0  2  0  0
    0.2017   -0.1734   -0.4607 C   0  0  0  0  0  0  0  0  0  3  0  0
    0.3744   -0.9550    0.6772 N   0  0  0  0  0  2  0  0  0  4  0  0
    0.0671    1.7508    0.5402 H   0  0  0  0  0  0  0  0  0  5  0  0
   -0.6143    1.7208   -1.0971 H   0  0  0  0  0  0  0  0  0  6  0  0
   -1.4989    0.9776    0.2444 H   0  0  0  0  0  0  0  0  0  7  0  0
   -0.3817   -0.7576   -1.2055 H   0  0  0  0  0  0  0  0  0  8  0  0
    1.1888    0.0111   -0.9145 H   0  0  0  0  0  0  0  0  0  9  0  0
  1  4  1  0
  2  7  1  0
  2  5  1  0
  2  6  1  0
  2  3  1  0
  3  4  1  0
  3  8  1  0
  3  9  1  0
M  RAD  1   4   2
M  END
>  <rmg_smiles>  (2) 
CC[NH]

>  <rmg_adjacency_list>  (2) 
multiplicity 2
1 N u1 p1 c0 {2,S} {9,S}
2 C u0 p0 c0 {1,S} {3,S} {4,S} {5,S}
3 C u0 p0 c0 {2,S} {6,S} {7,S} {8,S}
4 H u0 p0 c0 {2,S}
5 H u0 p0 c0 {2,S}
6 H u0 p0 c0 {3,S}
7 H u0 p0 c0 {3,S}
8 H u0 p0 c0 {3,S}
9 H u0 p0 c0 {1,S}


>  <multiplicity>  (2) 
2

>  <reaction>  (2) 
rmg_rxn_417

>  <type>  (2) 
r2h

>  <role_mapnums>  (2) 
{"r2h_a": 4, "r2h_h": 1}

>  <role_mapidx>  (2) 
{"r2h_a": 3, "r2h_h": 0}

>  <ordered_mapped_smiles>  (2) 
[H:1][N:4][C:3]([C:2]([H:5])([H:6])[H:7])([H:8])[H:9]

>  <mol_properties>  (2) 
{"0": {"label": "a_hydrogen", "atom_type": "H0"}, "3": {"label": "acceptor", "atom_type": "N3s"}}

>  <level_of_theory>  (2) 
wb97xd/def2tzvp

>  <lot_method>  (2) 
wb97xd

>  <lot_basis>  (2) 
def2tzvp

>  <spin_multiplicity>  (2) 
2.0

>  <optical_isomers>  (2) 
1.0

>  <modes>  (2) 
IdealGasTranslation(mass=(44.05, 'amu')),         NonlinearRotor(             inertia = ([13.5046, 54.0855, 61.3855

>  <frequency_value>  (2) 
unknown

>  <frequency_units>  (2) 
unknown

>  <frequency_list>  (2) 
unknown

>  <arkane_path>  (2) 
/home/calvin/Dropbox/PersonalFolders/Calvin/ATLAS_Converged/rmg_rxn_417/output/Species/rmg_rxn_417_p2_CCsbr-NH-sbr/arkane/output.py

>  <path_exists>  (2) 
True

>  <E0_value>  (2) 
-352969.95105561113

>  <E0_units>  (2) 
kJ/mol

>  <thermo_class>  (2) 
NASA

>  <Cp0_value>  (2) 
33.257888

>  <Cp0_units>  (2) 
J/(mol*K)

>  <CpInf_value>  (2) 
207.8618

>  <CpInf_units>  (2) 
J/(mol*K)

>  <Tmin_value>  (2) 
10.0

>  <Tmin_units>  (2) 
K

>  <Tmax_value>  (2) 
3000.0

>  <Tmax_units>  (2) 
K

>  <polynomials>  (2) 
[{"name": "polynomial1", "class": "NASAPolynomial", "Tmin_value": 10.0, "Tmin_units": "K", "Tmax_value": 494.98074748977484, "Tmax_units": "K", "coeffs": [3.96628511452133, 0.0018994782140610337, 6.762100082474034e-05, -1.0861292876060174e-07, 5.65918620315742e-11, -42452477.255166434, 7.84782322933281]}, {"name": "polynomial2", "class": "NASAPolynomial", "Tmin_value": 494.98074748977484, "Tmin_units": "K", "Tmax_value": 3000.0, "Tmax_units": "K", "coeffs": [0.5324488734331831, 0.029632058000791692, -1.6369867882593552e-05, 4.442442345004726e-09, -4.746642285780625e-13, -42452137.11437419, 22.001362446936305]}]

>  <H298_value>  (2) 
-84358.50970291646

>  <H298_units>  (2) 
kcal/mol

>  <S298_value>  (2) 
65.90798772684775

>  <S298_units>  (2) 
cal/(mol*K)

>  <Cp_T_value_list>  (2) 
[16.191487631841138, 19.95743690999345, 23.412570840096805, 26.46279891443655, 31.48030762408747, 35.29759074982531, 41.21185768118182, 44.23919996224711, 45.751558882208336]

>  <Cp_T_units>  (2) 
cal/(mol*K)

>  <T_list>  (2) 
[300.0, 400.0, 500.0, 600.0, 800.0, 1000.0, 1500.0, 2000.0, 2400.0]

>  <T_units>  (2) 
K

>  <yaml_path>  (2) 
/home/calvin/Dropbox/PersonalFolders/Calvin/ATLAS_Converged/rmg_rxn_417/output/Species/rmg_rxn_417_p2_CCsbr-NH-sbr/rmg_rxn_417_p2_CCsbr-NH-sbr.yml

>  <frequencies_cm1>  (2) 
[215.54780220947998, 313.0658607388, 421.33075129391995, 726.5957167091999, 902.32873803332, 1018.4151248679198, 1029.1207549817998, 1087.9845531448398, 1242.70459938976, 1258.69094121472, 1381.9189927821199, 1408.32255133752, 1429.1295168571198, 1475.1657864423998, 1485.8096136883998, 2923.26191675336, 2945.2843386746, 3021.78942212472, 3097.67647689604, 3102.6619082383595, 3400.85387877404]

>  <ZPE_kJmol>  (2) 
202.6932728728076

>  <E_elec_kJmol>  (2) 
-353172.644328484

>  <E0_minus_Eelec_plus_ZPE_kJmol>  (2) 
0.0

>  <rxn>  (2) 
rmg_rxn_417

>  <species_type>  (2) 
p1

>  <species_folder>  (2) 
rmg_rxn_417_p2_CCsbr-NH-sbr

>  <frequencies_cm1_list>  (2) 
[215.54780220947998, 313.0658607388, 421.33075129391995, 726.5957167091999, 902.32873803332, 1018.4151248679198, 1029.1207549817998, 1087.9845531448398, 1242.70459938976, 1258.69094121472, 1381.9189927821199, 1408.32255133752, 1429.1295168571198, 1475.1657864423998, 1485.8096136883998, 2923.26191675336, 2945.2843386746, 3021.78942212472, 3097.67647689604, 3102.6619082383595, 3400.85387877404]

>  <E0_kJmol>  (2) 
-352970

>  <H298_kJmol>  (2) 
-352956

$$$$

     RDKit          3D

 11  9  0  0  0  0  0  0  0  0999 V2000
   -1.0143   -1.4289   -0.7885 O   0  0  0  0  0  1  0  0  0  1  0  0
   -0.5954   -1.6696    0.3952 O   0  0  0  0  0  0  0  0  0  2  0  0
    0.0246   -0.8243    0.7222 H   0  0  0  0  0  0  0  0  0  3  0  0
   -0.1633    2.4886    0.0193 C   0  0  0  0  0  0  0  0  0  4  0  0
    0.5462    1.1573   -0.2714 C   0  0  0  0  0  0  0  0  0  5  0  0
    0.7189    0.3757    0.8665 N   0  0  0  0  0  1  0  0  0  6  0  0
    0.4115    3.0815    0.7295 H   0  0  0  0  0  0  0  0  0  7  0  0
   -0.2698    3.0515   -0.9078 H   0  0  0  0  0  0  0  0  0  8  0  0
   -1.1544    2.3084    0.4337 H   0  0  0  0  0  0  0  0  0  9  0  0
   -0.0372    0.5731   -1.0162 H   0  0  0  0  0  0  0  0  0 10  0  0
    1.5333    1.3418   -0.7252 H   0  0  0  0  0  0  0  0  0 11  0  0
  1  2  1  0
  2  3  1  0
  4  8  1  0
  4  5  1  0
  4  9  1  0
  4  7  1  0
  5 11  1  0
  5  6  1  0
  5 10  1  0
M  RAD  2   1   2   6   3
M  END
>  <rmg_smiles>  (3) 
CC[N].[O]O

>  <rmg_adjacency_list>  (3) 
multiplicity 4
1  O u0 p2 c0 {2,S} {11,S}
2  O u1 p2 c0 {1,S}
3  N u2 p2 c0 {5,S}
4  C u0 p0 c0 {5,S} {6,S} {7,S} {8,S}
5  C u0 p0 c0 {3,S} {4,S} {9,S} {10,S}
6  H u0 p0 c0 {4,S}
7  H u0 p0 c0 {4,S}
8  H u0 p0 c0 {4,S}
9  H u0 p0 c0 {5,S}
10 H u0 p0 c0 {5,S}
11 H u0 p0 c0 {1,S}


>  <multiplicity>  (3) 
4

>  <reaction>  (3) 
rmg_rxn_417

>  <type>  (3) 
ts

>  <role_mapnums>  (3) 
{"*2": 3, "*1": 2, "*3": 6, "*0": 1, "*4": 5}

>  <role_mapidx>  (3) 
{"*2": 2, "*1": 1, "*3": 5, "*0": 0, "*4": 4}

>  <ordered_mapped_smiles>  (3) 
[O:1][O:2][H:3].[C:4]([C:5]([N:6])([H:10])[H:11])([H:7])([H:8])[H:9]

>  <mol_properties>  (3) 
{"0": {"label": "*0", "atom_type": "O2s"}, "1": {"label": "*1", "atom_type": "O2s"}, "2": {"label": "*2", "atom_type": "H0"}, "4": {"label": "*4", "atom_type": "Cs"}, "5": {"label": "*3", "atom_type": "N1s"}}

>  <level_of_theory>  (3) 
wb97xd/def2tzvp

>  <lot_method>  (3) 
wb97xd

>  <lot_basis>  (3) 
def2tzvp

>  <spin_multiplicity>  (3) 
2.0

>  <optical_isomers>  (3) 
2.0

>  <modes>  (3) 
IdealGasTranslation(mass=(76.0399, 'amu')),         NonlinearRotor(             inertia = ([49.9674, 220.914, 246.874

>  <frequency_value>  (3) 
-1292.48

>  <frequency_units>  (3) 
cm^-1

>  <frequency_list>  (3) 
unknown

>  <arkane_path>  (3) 
/home/calvin/Dropbox/PersonalFolders/Calvin/ATLAS_Converged/rmg_rxn_417/output/rxns/TS0/arkane/output.py

>  <path_exists>  (3) 
True

>  <E0_value>  (3) 
-747489.0

>  <E0_units>  (3) 
kJ/mol

>  <thermo_class>  (3) 
unknown

>  <Cp0_value>  (3) 
unknown

>  <Cp0_units>  (3) 
unknown

>  <CpInf_value>  (3) 
unknown

>  <CpInf_units>  (3) 
unknown

>  <Tmin_value>  (3) 
unknown

>  <Tmin_units>  (3) 
unknown

>  <Tmax_value>  (3) 
unknown

>  <Tmax_units>  (3) 
unknown

>  <polynomials>  (3) 
unknown

>  <H298_value>  (3) 
unknown

>  <H298_units>  (3) 
unknown

>  <S298_value>  (3) 
unknown

>  <S298_units>  (3) 
unknown

>  <Cp_T_value_list>  (3) 
unknown

>  <Cp_T_units>  (3) 
unknown

>  <T_list>  (3) 
unknown

>  <T_units>  (3) 
unknown

>  <yaml_path>  (3) 
unknown

>  <frequencies_cm1>  (3) 
unknown

>  <ZPE_kJmol>  (3) 
unknown

>  <E_elec_kJmol>  (3) 
unknown

>  <E0_minus_Eelec_plus_ZPE_kJmol>  (3) 
unknown

>  <rxn>  (3) 
unknown

>  <species_type>  (3) 
unknown

>  <species_folder>  (3) 
unknown

>  <frequencies_cm1_list>  (3) 
[]

>  <ts_imag_freq_cm1>  (3) 
-1308.1831

>  <ts_freq_out_path>  (3) 
/home/calvin/Dropbox/PersonalFolders/Calvin/ATLAS_Converged/rmg_rxn_417/output/rxns/TS0/geometry/freq.out

>  <E0_kJmol>  (3) 
-747489

>  <H298_kJmol>  (3) 
unknown

$$$$

     RDKit          3D

  2  1  0  0  0  0  0  0  0  0999 V2000
    0.0000    0.0000    0.5973 O   0  0  0  0  0  1  0  0  0  1  0  0
    0.0000    0.0000   -0.5973 O   0  0  0  0  0  1  0  0  0  2  0  0
  1  2  1  0
M  RAD  2   1   2   2   2
M  END
>  <rmg_smiles>  (4) 
[O][O]

>  <rmg_adjacency_list>  (4) 
multiplicity 3
1 O u1 p2 c0 {2,S}
2 O u1 p2 c0 {1,S}


>  <multiplicity>  (4) 
3

>  <reaction>  (4) 
rmg_rxn_417

>  <type>  (4) 
r1

>  <role_mapnums>  (4) 
{}

>  <role_mapidx>  (4) 
{}

>  <ordered_mapped_smiles>  (4) 
[O:1][O:2]

>  <level_of_theory>  (4) 
wb97xd/def2tzvp

>  <lot_method>  (4) 
wb97xd

>  <lot_basis>  (4) 
def2tzvp

>  <spin_multiplicity>  (4) 
3.0

>  <optical_isomers>  (4) 
1.0

>  <modes>  (4) 
IdealGasTranslation(mass=(31.9898, 'amu')),         LinearRotor(inertia=(11.4119, 'amu*angstrom^2'), symmetry=2),         HarmonicOscillator(frequencies=([1715.95

>  <frequency_value>  (4) 
unknown

>  <frequency_units>  (4) 
unknown

>  <frequency_list>  (4) 
unknown

>  <arkane_path>  (4) 
/home/calvin/Dropbox/PersonalFolders/Calvin/ATLAS_Converged/rmg_rxn_417/output/Species/rmg_rxn_417_p1_sbr-O-sbrsbr-O-sbr/arkane/output.py

>  <path_exists>  (4) 
True

>  <E0_value>  (4) 
-394707.785445247

>  <E0_units>  (4) 
kJ/mol

>  <thermo_class>  (4) 
NASA

>  <Cp0_value>  (4) 
29.100652

>  <Cp0_units>  (4) 
J/(mol*K)

>  <CpInf_value>  (4) 
37.415124

>  <CpInf_units>  (4) 
J/(mol*K)

>  <Tmin_value>  (4) 
10.0

>  <Tmin_units>  (4) 
K

>  <Tmax_value>  (4) 
3000.0

>  <Tmax_units>  (4) 
K

>  <polynomials>  (4) 
[{"name": "polynomial1", "class": "NASAPolynomial", "Tmin_value": 10.0, "Tmin_units": "K", "Tmax_value": 623.1067365812339, "Tmax_units": "K", "coeffs": [3.5071717169867545, -0.0004204533575713959, 1.3190555577599089e-06, 1.5870895922619425e-09, -2.1298492787888263e-12, -47472381.678587586, 4.703409616269141]}, {"name": "polynomial2", "class": "NASAPolynomial", "Tmin_value": 623.1067365812339, "Tmin_units": "K", "Tmax_value": 3000.0, "Tmax_units": "K", "coeffs": [2.875523834466992, 0.0021105290197265814, -1.1054134882145092e-06, 2.5625703544572847e-10, -2.1212509987924437e-14, -47472273.37918193, 7.689332260333164]}]

>  <H298_value>  (4) 
-94335.358332164

>  <H298_units>  (4) 
kcal/mol

>  <S298_value>  (4) 
48.93927096892353

>  <S298_units>  (4) 
cal/(mol*K)

>  <Cp_T_value_list>  (4) 
[7.005599133164053, 7.148158358300299, 7.336725756697227, 7.544514113291943, 7.907089452572359, 8.178713784943326, 8.568071699323143, 8.715061124357609, 8.768208627382272]

>  <Cp_T_units>  (4) 
cal/(mol*K)

>  <T_list>  (4) 
[300.0, 400.0, 500.0, 600.0, 800.0, 1000.0, 1500.0, 2000.0, 2400.0]

>  <T_units>  (4) 
K

>  <yaml_path>  (4) 
/home/calvin/Dropbox/PersonalFolders/Calvin/ATLAS_Converged/rmg_rxn_417/output/Species/rmg_rxn_417_p1_sbr-O-sbrsbr-O-sbr/rmg_rxn_417_p1_sbr-O-sbrsbr-O-sbr.yml

>  <frequencies_cm1>  (4) 
[1695.3556707281998]

>  <ZPE_kJmol>  (4) 
10.140481733996705

>  <E_elec_kJmol>  (4) 
-394717.925926981

>  <E0_minus_Eelec_plus_ZPE_kJmol>  (4) 
0.0

>  <rxn>  (4) 
rmg_rxn_417

>  <species_type>  (4) 
p0

>  <species_folder>  (4) 
rmg_rxn_417_p1_sbr-O-sbrsbr-O-sbr

>  <frequencies_cm1_list>  (4) 
[1695.3556707281998]

>  <E0_kJmol>  (4) 
-394708

>  <H298_kJmol>  (4) 
-394699

$$$$

     RDKit          3D

  8  7  0  0  0  0  0  0  0  0999 V2000
   -0.7853    0.0326    0.0393 C   0  0  0  0  0  0  0  0  0  1  0  0
    0.7379   -0.1211   -0.0579 C   0  0  0  0  0  0  0  0  0  2  0  0
    1.1315   -0.8282   -1.2106 N   0  0  0  0  0  1  0  0  0  3  0  0
   -1.2679   -0.9438    0.0768 H   0  0  0  0  0  0  0  0  0  4  0  0
   -1.0464    0.5840    0.9431 H   0  0  0  0  0  0  0  0  0  5  0  0
   -1.1718    0.5760   -0.8227 H   0  0  0  0  0  0  0  0  0  6  0  0
    1.2178    0.8698   -0.0686 H   0  0  0  0  0  0  0  0  0  7  0  0
    1.1219   -0.6479    0.8296 H   0  0  0  0  0  0  0  0  0  8  0  0
  1  5  1  0
  1  4  1  0
  1  6  1  0
  1  2  1  0
  2  3  1  0
  2  7  1  0
  2  8  1  0
M  RAD  1   3   3
M  END
>  <rmg_smiles>  (5) 
CC[N]

>  <rmg_adjacency_list>  (5) 
multiplicity 3
1 N u2 p2 c0 {3,S}
2 C u0 p0 c0 {3,S} {4,S} {5,S} {6,S}
3 C u0 p0 c0 {1,S} {2,S} {7,S} {8,S}
4 H u0 p0 c0 {2,S}
5 H u0 p0 c0 {2,S}
6 H u0 p0 c0 {2,S}
7 H u0 p0 c0 {3,S}
8 H u0 p0 c0 {3,S}


>  <multiplicity>  (5) 
3

>  <reaction>  (5) 
rmg_rxn_417

>  <type>  (5) 
r2

>  <role_mapnums>  (5) 
{}

>  <role_mapidx>  (5) 
{}

>  <ordered_mapped_smiles>  (5) 
[C:1]([C:2]([N:3])([H:7])[H:8])([H:4])([H:5])[H:6]

>  <level_of_theory>  (5) 
wb97xd/def2tzvp

>  <lot_method>  (5) 
wb97xd

>  <lot_basis>  (5) 
def2tzvp

>  <spin_multiplicity>  (5) 
3.0

>  <optical_isomers>  (5) 
1.0

>  <modes>  (5) 
IdealGasTranslation(mass=(43.0422, 'amu')),         NonlinearRotor(             inertia = ([13.2978, 49.7979, 56.7993

>  <frequency_value>  (5) 
unknown

>  <frequency_units>  (5) 
unknown

>  <frequency_list>  (5) 
unknown

>  <arkane_path>  (5) 
/home/calvin/Dropbox/PersonalFolders/Calvin/ATLAS_Converged/rmg_rxn_417/output/Species/rmg_rxn_417_r2_CCsbr-N-sbr/arkane/output.py

>  <path_exists>  (5) 
True

>  <E0_value>  (5) 
-351303.23848085233

>  <E0_units>  (5) 
kJ/mol

>  <thermo_class>  (5) 
NASA

>  <Cp0_value>  (5) 
33.257888

>  <Cp0_units>  (5) 
J/(mol*K)

>  <CpInf_value>  (5) 
182.918384

>  <CpInf_units>  (5) 
J/(mol*K)

>  <Tmin_value>  (5) 
10.0

>  <Tmin_units>  (5) 
K

>  <Tmax_value>  (5) 
3000.0

>  <Tmax_units>  (5) 
K

>  <polynomials>  (5) 
[{"name": "polynomial1", "class": "NASAPolynomial", "Tmin_value": 10.0, "Tmin_units": "K", "Tmax_value": 538.90863830612, "Tmax_units": "K", "coeffs": [4.011017893648797, -0.000996526599198243, 6.34493776247714e-05, -9.34151768570848e-08, 4.485816232808959e-11, -42252019.791687176, 8.154035590068796]}, {"name": "polynomial2", "class": "NASAPolynomial", "Tmin_value": 538.90863830612, "Tmin_units": "K", "Tmax_value": 3000.0, "Tmax_units": "K", "coeffs": [0.1889273408420262, 0.02737276498056165, -1.5514283778665416e-05, 4.268848130444583e-09, -4.577869697015348e-13, -42251607.842699245, 24.230537973141246]}]

>  <H298_value>  (5) 
-83960.41291340075

>  <H298_units>  (5) 
kcal/mol

>  <S298_value>  (5) 
65.16030182938087

>  <S298_units>  (5) 
cal/(mol*K)

>  <Cp_T_value_list>  (5) 
[14.434363041238354, 17.753912153606223, 20.869318835111557, 23.62825526207762, 28.131170270711078, 31.514054089972188, 36.62571062079461, 39.15495452180056, 40.43085357674264]

>  <Cp_T_units>  (5) 
cal/(mol*K)

>  <T_list>  (5) 
[300.0, 400.0, 500.0, 600.0, 800.0, 1000.0, 1500.0, 2000.0, 2400.0]

>  <T_units>  (5) 
K

>  <yaml_path>  (5) 
/home/calvin/Dropbox/PersonalFolders/Calvin/ATLAS_Converged/rmg_rxn_417/output/Species/rmg_rxn_417_r2_CCsbr-N-sbr/rmg_rxn_417_r2_CCsbr-N-sbr.yml

>  <frequencies_cm1>  (5) 
[219.85340200512002, 386.0619146904, 760.5529591165998, 905.2609407649599, 1021.4297314234, 1026.9988565179199, 1083.5347466574801, 1232.4178553804, 1304.0885811652397, 1390.88040862472, 1421.98785212432, 1476.3263069614798, 1486.33150457272, 2930.4447833980794, 2964.9719855870403, 3028.6838753859997, 3108.6361854667603, 3113.1134598954]

>  <ZPE_kJmol>  (5) 
172.63060648664862

>  <E_elec_kJmol>  (5) 
-351475.869087339

>  <E0_minus_Eelec_plus_ZPE_kJmol>  (5) 
0.0

>  <rxn>  (5) 
rmg_rxn_417

>  <species_type>  (5) 
r1

>  <species_folder>  (5) 
rmg_rxn_417_r2_CCsbr-N-sbr

>  <frequencies_cm1_list>  (5) 
[219.85340200512002, 386.0619146904, 760.5529591165998, 905.2609407649599, 1021.4297314234, 1026.9988565179199, 1083.5347466574801, 1232.4178553804, 1304.0885811652397, 1390.88040862472, 1421.98785212432, 1476.3263069614798, 1486.33150457272, 2930.4447833980794, 2964.9719855870403, 3028.6838753859997, 3108.6361854667603, 3113.1134598954]

>  <E0_kJmol>  (5) 
-351303

>  <H298_kJmol>  (5) 
-351290

$$$$
