
     RDKit          3D

 14 14  0  0  0  0  0  0  0  0999 V2000
    1.3413    0.0027   -0.4686 C   0  0  0  0  0  0  0  0  0  1  0  0
    0.6979   -1.2443    0.0919 C   0  0  0  0  0  0  0  0  0  2  0  0
   -0.7032   -1.1646   -0.1153 O   0  0  0  0  0  0  0  0  0  3  0  0
   -1.2336   -0.0023    0.4493 C   0  0  0  0  0  0  0  0  0  4  0  0
   -0.7074    1.1620   -0.1150 O   0  0  0  0  0  0  0  0  0  5  0  0
    0.6931    1.2467    0.0934 C   0  0  0  0  0  0  0  0  0  6  0  0
    2.3778    0.0040   -0.1336 H   0  0  0  0  0  0  0  0  0  7  0  0
    1.4289    0.0045   -1.5544 H   0  0  0  0  0  0  0  0  0  8  0  0
    1.0444   -2.1477   -0.4049 H   0  0  0  0  0  0  0  0  0  9  0  0
    0.9107   -1.3308    1.1666 H   0  0  0  0  0  0  0  0  0 10  0  0
   -1.0455   -0.0020    1.5374 H   0  0  0  0  0  0  0  0  0 11  0  0
   -2.3017   -0.0053    0.2453 H   0  0  0  0  0  0  0  0  0 12  0  0
    0.9052    1.3344    1.1681 H   0  0  0  0  0  0  0  0  0 13  0  0
    1.0373    2.1509   -0.4037 H   0  0  0  0  0  0  0  0  0 14  0  0
  1  8  1  0
  1  7  1  0
  1  6  1  0
  1  2  1  0
  2 10  1  0
  2  9  1  0
  2  3  1  0
  3  4  1  0
  4 11  1  0
  4 12  1  0
  4  5  1  0
  5  6  1  0
  6 14  1  0
  6 13  1  0
M  END
>  <rmg_smiles>  (1) 
C1COCOC1

>  <rmg_adjacency_list>  (1) 
1  O u0 p2 c0 {4,S} {6,S}
2  O u0 p2 c0 {5,S} {6,S}
3  C u0 p0 c0 {4,S} {5,S} {7,S} {8,S}
4  C u0 p0 c0 {1,S} {3,S} {9,S} {10,S}
5  C u0 p0 c0 {2,S} {3,S} {11,S} {12,S}
6  C u0 p0 c0 {1,S} {2,S} {13,S} {14,S}
7  H u0 p0 c0 {3,S}
8  H u0 p0 c0 {3,S}
9  H u0 p0 c0 {4,S}
10 H u0 p0 c0 {4,S}
11 H u0 p0 c0 {5,S}
12 H u0 p0 c0 {5,S}
13 H u0 p0 c0 {6,S}
14 H u0 p0 c0 {6,S}


>  <multiplicity>  (1) 
1

>  <reaction>  (1) 
rmg_rxn_1155

>  <type>  (1) 
r1h

>  <role_mapnums>  (1) 
{"r1h_a": 1, "r1h_h": 7}

>  <role_mapidx>  (1) 
{"r1h_a": 0, "r1h_h": 6}

>  <ordered_mapped_smiles>  (1) 
[C:1]1([H:7])([H:8])[C:2]([H:9])([H:10])[O:3][C:4]([H:11])([H:12])[O:5][C:6]1([H:13])[H:14]

>  <mol_properties>  (1) 
{"0": {"label": "donator", "atom_type": "Cs"}, "6": {"label": "d_hydrogen", "atom_type": "H0"}}

>  <level_of_theory>  (1) 
wb97xd/def2tzvp

>  <lot_method>  (1) 
wb97xd

>  <lot_basis>  (1) 
def2tzvp

>  <spin_multiplicity>  (1) 
1.0

>  <optical_isomers>  (1) 
1.0

>  <modes>  (1) 
IdealGasTranslation(mass=(88.0524, 'amu')),         NonlinearRotor(             inertia = ([101.434, 105.437, 184.213

>  <frequency_value>  (1) 
unknown

>  <frequency_units>  (1) 
unknown

>  <frequency_list>  (1) 
unknown

>  <arkane_path>  (1) 
/home/calvin/Dropbox/PersonalFolders/Calvin/ATLAS_Converged/rmg_rxn_1155/output/Species/rmg_rxn_1155_r2_C1COCOC1/arkane/output.py

>  <path_exists>  (1) 
True

>  <E0_value>  (1) 
-807536.3779894107

>  <E0_units>  (1) 
kJ/mol

>  <thermo_class>  (1) 
NASA

>  <Cp0_value>  (1) 
33.257888

>  <Cp0_units>  (1) 
J/(mol*K)

>  <CpInf_value>  (1) 
332.57888

>  <CpInf_units>  (1) 
J/(mol*K)

>  <Tmin_value>  (1) 
10.0

>  <Tmin_units>  (1) 
K

>  <Tmax_value>  (1) 
3000.0

>  <Tmax_units>  (1) 
K

>  <polynomials>  (1) 
[{"name": "polynomial1", "class": "NASAPolynomial", "Tmin_value": 10.0, "Tmin_units": "K", "Tmax_value": 625.4503686944838, "Tmax_units": "K", "coeffs": [4.106533255829942, -0.008691126958570201, 0.0001731496096395986, -2.6215626378525376e-07, 1.2774498950661777e-10, -97124192.18179677, 9.936021759571663]}, {"name": "polynomial2", "class": "NASAPolynomial", "Tmin_value": 625.4503686944838, "Tmin_units": "K", "Tmax_value": 3000.0, "Tmax_units": "K", "coeffs": [-3.378687502148629, 0.058748009364157784, -3.551767904446883e-05, 1.0284427820701856e-08, -1.1474176201920036e-12, -97123638.5977586, 39.475458551185035]}]

>  <H298_value>  (1) 
-193002.0336762779

>  <H298_units>  (1) 
kcal/mol

>  <S298_value>  (1) 
72.27247610500025

>  <S298_units>  (1) 
cal/(mol*K)

>  <Cp_T_value_list>  (1) 
[21.93712097823596, 29.462901589709215, 36.292155707683996, 42.04077281720871, 51.03951150385088, 57.606439731427756, 67.02786100524746, 71.4666142250199, 73.80101619051884]

>  <Cp_T_units>  (1) 
cal/(mol*K)

>  <T_list>  (1) 
[300.0, 400.0, 500.0, 600.0, 800.0, 1000.0, 1500.0, 2000.0, 2400.0]

>  <T_units>  (1) 
K

>  <yaml_path>  (1) 
/home/calvin/Dropbox/PersonalFolders/Calvin/ATLAS_Converged/rmg_rxn_1155/output/Species/rmg_rxn_1155_r2_C1COCOC1/rmg_rxn_1155_r2_C1COCOC1.yml

>  <frequencies_cm1>  (1) 
[280.74982782288, 281.73867370896, 438.4844806232799, 467.28461705535994, 491.57314413219996, 649.7953528903199, 840.5876730211999, 884.3647044361999, 907.5064449646, 916.06270867332, 984.9179704769599, 994.15406573236, 1065.52264416312, 1095.2154886868, 1152.3488065492, 1193.4133787628, 1209.6950009565198, 1251.5561434672397, 1297.88769342128, 1305.04309212472, 1360.4390627011599, 1386.5061389758798, 1401.64097462116, 1415.12773378964, 1462.82581382236, 1491.2620000324798, 1494.2560056319999, 1512.1788373171999, 2976.8724711465998, 2981.41841542844, 2986.9257376550795, 2997.56269791576, 3042.3285752168395, 3044.4092717687995, 3057.94409983452, 3061.6454049219997]

>  <ZPE_kJmol>  (1) 
319.29084306769914

>  <E_elec_kJmol>  (1) 
-807855.6688324783

>  <E0_minus_Eelec_plus_ZPE_kJmol>  (1) 
0.0

>  <rxn>  (1) 
rmg_rxn_1155

>  <species_type>  (1) 
r1

>  <species_folder>  (1) 
rmg_rxn_1155_r2_C1COCOC1

>  <frequencies_cm1_list>  (1) 
[280.74982782288, 281.73867370896, 438.4844806232799, 467.28461705535994, 491.57314413219996, 649.7953528903199, 840.5876730211999, 884.3647044361999, 907.5064449646, 916.06270867332, 984.9179704769599, 994.15406573236, 1065.52264416312, 1095.2154886868, 1152.3488065492, 1193.4133787628, 1209.6950009565198, 1251.5561434672397, 1297.88769342128, 1305.04309212472, 1360.4390627011599, 1386.5061389758798, 1401.64097462116, 1415.12773378964, 1462.82581382236, 1491.2620000324798, 1494.2560056319999, 1512.1788373171999, 2976.8724711465998, 2981.41841542844, 2986.9257376550795, 2997.56269791576, 3042.3285752168395, 3044.4092717687995, 3057.94409983452, 3061.6454049219997]

>  <E0_kJmol>  (1) 
-807536

>  <H298_kJmol>  (1) 
-807521

$$$$

     RDKit          3D

  2  1  0  0  0  0  0  0  0  0999 V2000
    0.0681   -0.0003    0.0251 O   0  0  0  0  0  1  0  0  0  1  0  0
   -0.8326    0.0031   -0.3070 H   0  0  0  0  0  0  0  0  0  2  0  0
  1  2  1  0
M  RAD  1   1   2
M  END
>  <rmg_smiles>  (2) 
[OH]

>  <rmg_adjacency_list>  (2) 
multiplicity 2
1 O u1 p2 c0 {2,S}
2 H u0 p0 c0 {1,S}


>  <multiplicity>  (2) 
2

>  <reaction>  (2) 
rmg_rxn_1155

>  <type>  (2) 
r2h

>  <role_mapnums>  (2) 
{"r2h_a": 1, "r2h_h": 2}

>  <role_mapidx>  (2) 
{"r2h_a": 0, "r2h_h": 1}

>  <ordered_mapped_smiles>  (2) 
[O:1][H:2]

>  <mol_properties>  (2) 
{"0": {"label": "acceptor", "atom_type": "O2s"}, "1": {"label": "a_hydrogen", "atom_type": "H0"}}

>  <level_of_theory>  (2) 
wb97xd/def2tzvp

>  <lot_method>  (2) 
wb97xd

>  <lot_basis>  (2) 
def2tzvp

>  <spin_multiplicity>  (2) 
2.0

>  <optical_isomers>  (2) 
1.0

>  <modes>  (2) 
IdealGasTranslation(mass=(17.0027, 'amu')),         LinearRotor(inertia=(0.893962, 'amu*angstrom^2'), symmetry=1),         HarmonicOscillator(frequencies=([3724.63

>  <frequency_value>  (2) 
unknown

>  <frequency_units>  (2) 
unknown

>  <frequency_list>  (2) 
unknown

>  <arkane_path>  (2) 
/home/calvin/Dropbox/PersonalFolders/Calvin/ATLAS_Converged/rmg_rxn_1155/output/Species/rmg_rxn_1155_p1_sbr-OH-sbr/arkane/output.py

>  <path_exists>  (2) 
True

>  <E0_value>  (2) 
-198836.11500557224

>  <E0_units>  (2) 
kJ/mol

>  <thermo_class>  (2) 
NASA

>  <Cp0_value>  (2) 
29.100652

>  <Cp0_units>  (2) 
J/(mol*K)

>  <CpInf_value>  (2) 
37.415124

>  <CpInf_units>  (2) 
J/(mol*K)

>  <Tmin_value>  (2) 
10.0

>  <Tmin_units>  (2) 
K

>  <Tmax_value>  (2) 
3000.0

>  <Tmax_units>  (2) 
K

>  <polynomials>  (2) 
[{"name": "polynomial1", "class": "NASAPolynomial", "Tmin_value": 10.0, "Tmin_units": "K", "Tmax_value": 985.4633103339054, "Tmax_units": "K", "coeffs": [3.496867247333508, 0.00018342449890259614, -9.934008380455364e-07, 1.5607090885398485e-09, -6.057976047375529e-13, -23914460.71315525, 1.4723763541989374]}, {"name": "polynomial2", "class": "NASAPolynomial", "Tmin_value": 985.4633103339054, "Tmin_units": "K", "Tmax_value": 3000.0, "Tmax_units": "K", "coeffs": [3.453605826539838, -0.000298394996284096, 7.406626419620715e-07, -2.893423009710026e-10, 3.527332886378172e-14, -23914420.264478575, 1.842419488011591]}]

>  <H298_value>  (2) 
-47520.89667525978

>  <H298_units>  (2) 
kcal/mol

>  <S298_value>  (2) 
42.56095640204575

>  <S298_units>  (2) 
cal/(mol*K)

>  <Cp_T_value_list>  (2) 
[6.954667739233619, 6.946617902371048, 6.950166451559511, 6.9709205689453935, 7.072028097634187, 7.2370175778306685, 7.699521485448446, 8.086144468717986, 8.29478093025019]

>  <Cp_T_units>  (2) 
cal/(mol*K)

>  <T_list>  (2) 
[300.0, 400.0, 500.0, 600.0, 800.0, 1000.0, 1500.0, 2000.0, 2400.0]

>  <T_units>  (2) 
K

>  <yaml_path>  (2) 
/home/calvin/Dropbox/PersonalFolders/Calvin/ATLAS_Converged/rmg_rxn_1155/output/Species/rmg_rxn_1155_p1_sbr-OH-sbr/rmg_rxn_1155_p1_sbr-OH-sbr.yml

>  <frequencies_cm1>  (2) 
[3724.62536962672]

>  <ZPE_kJmol>  (2) 
22.278213462109388

>  <E_elec_kJmol>  (2) 
-198858.3932190344

>  <E0_minus_Eelec_plus_ZPE_kJmol>  (2) 
0.0

>  <rxn>  (2) 
rmg_rxn_1155

>  <species_type>  (2) 
p0

>  <species_folder>  (2) 
rmg_rxn_1155_p1_sbr-OH-sbr

>  <frequencies_cm1_list>  (2) 
[3724.62536962672]

>  <E0_kJmol>  (2) 
-198836

>  <H298_kJmol>  (2) 
-198827

$$$$

     RDKit          3D

 15 14  0  0  0  0  0  0  0  0999 V2000
    3.1420   -0.0001    0.2853 O   0  0  0  0  0  1  0  0  0  1  0  0
    0.7707    0.0026   -0.5335 C   0  0  0  0  0  3  0  0  0  2  0  0
    0.1274   -1.2444    0.0269 C   0  0  0  0  0  0  0  0  0  3  0  0
   -1.2737   -1.1646   -0.1803 O   0  0  0  0  0  0  0  0  0  4  0  0
   -1.8042   -0.0023    0.3844 C   0  0  0  0  0  0  0  0  0  5  0  0
   -1.2780    1.1619   -0.1799 O   0  0  0  0  0  0  0  0  0  6  0  0
    0.1226    1.2466    0.0285 C   0  0  0  0  0  0  0  0  0  7  0  0
    1.9928    0.0041   -0.1385 H   0  0  0  0  0  0  0  0  0  8  0  0
    0.8583    0.0044   -1.6193 H   0  0  0  0  0  0  0  0  0  9  0  0
    0.4739   -2.1478   -0.4698 H   0  0  0  0  0  0  0  0  0 10  0  0
    0.3401   -1.3309    1.1017 H   0  0  0  0  0  0  0  0  0 11  0  0
   -1.6160   -0.0021    1.4725 H   0  0  0  0  0  0  0  0  0 12  0  0
   -2.8723   -0.0054    0.1804 H   0  0  0  0  0  0  0  0  0 13  0  0
    0.3347    1.3343    1.1032 H   0  0  0  0  0  0  0  0  0 14  0  0
    0.4667    2.1508   -0.4686 H   0  0  0  0  0  0  0  0  0 15  0  0
  1  8  1  0
  2  9  1  0
  2  7  1  0
  2  3  1  0
  3 11  1  0
  3  4  1  0
  3 10  1  0
  4  5  1  0
  5 13  1  0
  5  6  1  0
  5 12  1  0
  6  7  1  0
  7 14  1  0
  7 15  1  0
M  RAD  2   1   2   2   2
M  END
>  <rmg_smiles>  (3) 
[CH]1COCOC1.[OH]

>  <rmg_adjacency_list>  (3) 
multiplicity 3
1  O u0 p2 c0 {4,S} {6,S}
2  O u0 p2 c0 {5,S} {6,S}
3  O u1 p2 c0 {15,S}
4  C u0 p0 c0 {1,S} {7,S} {8,S} {9,S}
5  C u0 p0 c0 {2,S} {7,S} {10,S} {11,S}
6  C u0 p0 c0 {1,S} {2,S} {12,S} {13,S}
7  C u1 p0 c0 {4,S} {5,S} {14,S}
8  H u0 p0 c0 {4,S}
9  H u0 p0 c0 {4,S}
10 H u0 p0 c0 {5,S}
11 H u0 p0 c0 {5,S}
12 H u0 p0 c0 {6,S}
13 H u0 p0 c0 {6,S}
14 H u0 p0 c0 {7,S}
15 H u0 p0 c0 {3,S}


>  <multiplicity>  (3) 
3

>  <reaction>  (3) 
rmg_rxn_1155

>  <type>  (3) 
ts

>  <role_mapnums>  (3) 
{"*2": 8, "*1": 2, "*3": 1, "*0": null, "*4": 3}

>  <role_mapidx>  (3) 
{"*2": 7, "*1": 1, "*3": 0, "*4": 2}

>  <ordered_mapped_smiles>  (3) 
[O:1][H:8].[C:2]1([H:9])[C:3]([H:10])([H:11])[O:4][C:5]([H:12])([H:13])[O:6][C:7]1([H:14])[H:15]

>  <mol_properties>  (3) 
{"0": {"label": "*3", "atom_type": "O2s"}, "1": {"label": "*1", "atom_type": "Cs"}, "2": {"label": "*4", "atom_type": "Cs"}, "7": {"label": "*2", "atom_type": "H0"}}

>  <level_of_theory>  (3) 
wb97xd/def2tzvp

>  <lot_method>  (3) 
wb97xd

>  <lot_basis>  (3) 
def2tzvp

>  <spin_multiplicity>  (3) 
3.0

>  <optical_isomers>  (3) 
1.0

>  <modes>  (3) 
IdealGasTranslation(mass=(104.047, 'amu')),         NonlinearRotor(             inertia = ([108.65, 288.221, 366.395

>  <frequency_value>  (3) 
-1478.73

>  <frequency_units>  (3) 
cm^-1

>  <frequency_list>  (3) 
unknown

>  <arkane_path>  (3) 
/home/calvin/Dropbox/PersonalFolders/Calvin/ATLAS_Converged/rmg_rxn_1155/output/rxns/TS0/arkane/output.py

>  <path_exists>  (3) 
True

>  <E0_value>  (3) 
-1004620.0

>  <E0_units>  (3) 
kJ/mol

>  <thermo_class>  (3) 
unknown

>  <Cp0_value>  (3) 
unknown

>  <Cp0_units>  (3) 
unknown

>  <CpInf_value>  (3) 
unknown

>  <CpInf_units>  (3) 
unknown

>  <Tmin_value>  (3) 
unknown

>  <Tmin_units>  (3) 
unknown

>  <Tmax_value>  (3) 
unknown

>  <Tmax_units>  (3) 
unknown

>  <polynomials>  (3) 
unknown

>  <H298_value>  (3) 
unknown

>  <H298_units>  (3) 
unknown

>  <S298_value>  (3) 
unknown

>  <S298_units>  (3) 
unknown

>  <Cp_T_value_list>  (3) 
unknown

>  <Cp_T_units>  (3) 
unknown

>  <T_list>  (3) 
unknown

>  <T_units>  (3) 
unknown

>  <yaml_path>  (3) 
unknown

>  <frequencies_cm1>  (3) 
unknown

>  <ZPE_kJmol>  (3) 
unknown

>  <E_elec_kJmol>  (3) 
unknown

>  <E0_minus_Eelec_plus_ZPE_kJmol>  (3) 
unknown

>  <rxn>  (3) 
unknown

>  <species_type>  (3) 
unknown

>  <species_folder>  (3) 
unknown

>  <frequencies_cm1_list>  (3) 
[]

>  <ts_imag_freq_cm1>  (3) 
-1496.6935

>  <ts_freq_out_path>  (3) 
/home/calvin/Dropbox/PersonalFolders/Calvin/ATLAS_Converged/rmg_rxn_1155/output/rxns/TS0/geometry/freq.out

>  <E0_kJmol>  (3) 
-1.00462e+06

>  <H298_kJmol>  (3) 
unknown

$$$$

     RDKit          3D

 13 13  0  0  0  0  0  0  0  0999 V2000
   -0.5720    1.2674    0.0000 C   0  0  0  0  0  3  0  0  0  1  0  0
   -0.0685    0.6769    1.2631 C   0  0  0  0  0  0  0  0  0  2  0  0
   -0.0685   -0.7387    1.1709 O   0  0  0  0  0  0  0  0  0  3  0  0
    0.6054   -1.1751    0.0000 C   0  0  0  0  0  0  0  0  0  4  0  0
   -0.0685   -0.7387   -1.1709 O   0  0  0  0  0  0  0  0  0  5  0  0
   -0.0685    0.6769   -1.2631 C   0  0  0  0  0  0  0  0  0  6  0  0
   -0.9850    2.2676    0.0000 H   0  0  0  0  0  0  0  0  0  7  0  0
   -0.7178    0.9610    2.0963 H   0  0  0  0  0  0  0  0  0  8  0  0
    0.9427    1.0343    1.4863 H   0  0  0  0  0  0  0  0  0  9  0  0
    1.6529   -0.8470    0.0000 H   0  0  0  0  0  0  0  0  0 10  0  0
    0.5996   -2.2689    0.0000 H   0  0  0  0  0  0  0  0  0 11  0  0
   -0.7178    0.9610   -2.0963 H   0  0  0  0  0  0  0  0  0 12  0  0
    0.9427    1.0343   -1.4863 H   0  0  0  0  0  0  0  0  0 13  0  0
  1  7  1  0
  1  6  1  0
  1  2  1  0
  2  9  1  0
  2  8  1  0
  2  3  1  0
  3  4  1  0
  4 11  1  0
  4 10  1  0
  4  5  1  0
  5  6  1  0
  6 13  1  0
  6 12  1  0
M  RAD  1   1   2
M  END
>  <rmg_smiles>  (4) 
[CH]1COCOC1

>  <rmg_adjacency_list>  (4) 
multiplicity 2
1  O u0 p2 c0 {3,S} {5,S}
2  O u0 p2 c0 {4,S} {5,S}
3  C u0 p0 c0 {1,S} {6,S} {7,S} {8,S}
4  C u0 p0 c0 {2,S} {6,S} {9,S} {10,S}
5  C u0 p0 c0 {1,S} {2,S} {11,S} {12,S}
6  C u1 p0 c0 {3,S} {4,S} {13,S}
7  H u0 p0 c0 {3,S}
8  H u0 p0 c0 {3,S}
9  H u0 p0 c0 {4,S}
10 H u0 p0 c0 {4,S}
11 H u0 p0 c0 {5,S}
12 H u0 p0 c0 {5,S}
13 H u0 p0 c0 {6,S}


>  <multiplicity>  (4) 
2

>  <reaction>  (4) 
rmg_rxn_1155

>  <type>  (4) 
r1

>  <role_mapnums>  (4) 
{}

>  <role_mapidx>  (4) 
{}

>  <ordered_mapped_smiles>  (4) 
[C:1]1([H:7])[C:2]([H:8])([H:9])[O:3][C:4]([H:10])([H:11])[O:5][C:6]1([H:12])[H:13]

>  <level_of_theory>  (4) 
wb97xd/def2tzvp

>  <lot_method>  (4) 
wb97xd

>  <lot_basis>  (4) 
def2tzvp

>  <spin_multiplicity>  (4) 
2.0

>  <optical_isomers>  (4) 
1.0

>  <modes>  (4) 
IdealGasTranslation(mass=(87.0446, 'amu')),         NonlinearRotor(             inertia = ([94.7789, 104.508, 181.188

>  <frequency_value>  (4) 
unknown

>  <frequency_units>  (4) 
unknown

>  <frequency_list>  (4) 
unknown

>  <arkane_path>  (4) 
/home/calvin/Dropbox/PersonalFolders/Calvin/ATLAS_Converged/rmg_rxn_1155/output/Species/rmg_rxn_1155_p2_sbr-CH-sbr1COCOC1/arkane/output.py

>  <path_exists>  (4) 
True

>  <E0_value>  (4) 
-805805.8961128375

>  <E0_units>  (4) 
kJ/mol

>  <thermo_class>  (4) 
NASA

>  <Cp0_value>  (4) 
33.257888

>  <Cp0_units>  (4) 
J/(mol*K)

>  <CpInf_value>  (4) 
307.635464

>  <CpInf_units>  (4) 
J/(mol*K)

>  <Tmin_value>  (4) 
10.0

>  <Tmin_units>  (4) 
K

>  <Tmax_value>  (4) 
3000.0

>  <Tmax_units>  (4) 
K

>  <polynomials>  (4) 
[{"name": "polynomial1", "class": "NASAPolynomial", "Tmin_value": 10.0, "Tmin_units": "K", "Tmax_value": 561.2002615505412, "Tmax_units": "K", "coeffs": [3.996194116424398, -0.000613140381240436, 0.00014811861746655028, -2.4878303618639906e-07, 1.3334068081646013e-10, -96916061.32298377, 10.761167159961142]}, {"name": "polynomial2", "class": "NASAPolynomial", "Tmin_value": 561.2002615505412, "Tmin_units": "K", "Tmax_value": 3000.0, "Tmax_units": "K", "coeffs": [-1.6981232113081965, 0.05359100116190155, -3.3157790443044136e-05, 9.798066799974487e-09, -1.111550630367509e-12, -96915636.63019033, 33.032950569240654]}]

>  <H298_value>  (4) 
-192588.16841429417

>  <H298_units>  (4) 
kcal/mol

>  <S298_value>  (4) 
75.49442718317144

>  <S298_units>  (4) 
cal/(mol*K)

>  <Cp_T_value_list>  (4) 
[22.864490204809, 29.69149593042981, 35.680672917352226, 40.72183242501581, 48.71638902761907, 54.49238909388438, 62.64589089143219, 66.47690952814611, 68.56120740121996]

>  <Cp_T_units>  (4) 
cal/(mol*K)

>  <T_list>  (4) 
[300.0, 400.0, 500.0, 600.0, 800.0, 1000.0, 1500.0, 2000.0, 2400.0]

>  <T_units>  (4) 
K

>  <yaml_path>  (4) 
/home/calvin/Dropbox/PersonalFolders/Calvin/ATLAS_Converged/rmg_rxn_1155/output/Species/rmg_rxn_1155_p2_sbr-CH-sbr1COCOC1/rmg_rxn_1155_p2_sbr-CH-sbr1COCOC1.yml

>  <frequencies_cm1>  (4) 
[166.5587289366, 233.42256499744, 368.71590977208, 413.49552104379995, 472.73700339943997, 560.5314107156399, 768.1753128218, 875.3208847697599, 897.7690597808398, 906.1742498125199, 940.41990560336, 1008.7601435079998, 1026.6417732812797, 1100.31765877956, 1142.9273026901599, 1175.7926944316798, 1192.5275376565198, 1266.8832547014802, 1284.89535719584, 1343.4158060928798, 1375.4090906987599, 1392.71389370516, 1408.8032403099198, 1462.9700205140798, 1464.1648759597597, 1507.9556413453997, 2970.6029135494396, 2971.7977689951194, 2979.15917725816, 3044.7869559613996, 3045.28137890444, 3060.71149491848, 3173.0622417389995]

>  <ZPE_kJmol>  (4) 
281.139860485651

>  <E_elec_kJmol>  (4) 
-806087.0359733232

>  <E0_minus_Eelec_plus_ZPE_kJmol>  (4) 
0.0

>  <rxn>  (4) 
rmg_rxn_1155

>  <species_type>  (4) 
p1

>  <species_folder>  (4) 
rmg_rxn_1155_p2_sbr-CH-sbr1COCOC1

>  <frequencies_cm1_list>  (4) 
[166.5587289366, 233.42256499744, 368.71590977208, 413.49552104379995, 472.73700339943997, 560.5314107156399, 768.1753128218, 875.3208847697599, 897.7690597808398, 906.1742498125199, 940.41990560336, 1008.7601435079998, 1026.6417732812797, 1100.31765877956, 1142.9273026901599, 1175.7926944316798, 1192.5275376565198, 1266.8832547014802, 1284.89535719584, 1343.4158060928798, 1375.4090906987599, 1392.71389370516, 1408.8032403099198, 1462.9700205140798, 1464.1648759597597, 1507.9556413453997, 2970.6029135494396, 2971.7977689951194, 2979.15917725816, 3044.7869559613996, 3045.28137890444, 3060.71149491848, 3173.0622417389995]

>  <E0_kJmol>  (4) 
-805806

>  <H298_kJmol>  (4) 
-805789

$$$$

     RDKit          3D

  1  0  0  0  0  0  0  0  0  0999 V2000
    0.0000    0.0000    0.0000 O   0  0  0  0  0 15  0  0  0  1  0  0
M  END
>  <rmg_smiles>  (5) 
[O]

>  <rmg_adjacency_list>  (5) 
multiplicity 3
1 O u2 p3 c0


>  <multiplicity>  (5) 
3

>  <reaction>  (5) 
rmg_rxn_1155

>  <type>  (5) 
r2

>  <role_mapnums>  (5) 
{}

>  <role_mapidx>  (5) 
{}

>  <ordered_mapped_smiles>  (5) 
[O:1]

>  <level_of_theory>  (5) 
wb97xd/def2tzvp

>  <lot_method>  (5) 
wb97xd

>  <lot_basis>  (5) 
def2tzvp

>  <spin_multiplicity>  (5) 
3.0

>  <optical_isomers>  (5) 
1.0

>  <modes>  (5) 
IdealGasTranslation(mass=(15.9994, 'amu')),

>  <frequency_value>  (5) 
unknown

>  <frequency_units>  (5) 
unknown

>  <frequency_list>  (5) 
unknown

>  <arkane_path>  (5) 
/home/calvin/Dropbox/PersonalFolders/Calvin/ATLAS_Converged/rmg_rxn_1155/output/Species/rmg_rxn_1155_r1_sbr-O-sbr/arkane/output.py

>  <path_exists>  (5) 
True

>  <E0_value>  (5) 
-197098.59938458708

>  <E0_units>  (5) 
kJ/mol

>  <thermo_class>  (5) 
NASA

>  <Cp0_value>  (5) 
20.78618

>  <Cp0_units>  (5) 
J/(mol*K)

>  <CpInf_value>  (5) 
20.78618

>  <CpInf_units>  (5) 
J/(mol*K)

>  <Tmin_value>  (5) 
10.0

>  <Tmin_units>  (5) 
K

>  <Tmax_value>  (5) 
3000.0

>  <Tmax_units>  (5) 
K

>  <polynomials>  (5) 
[{"name": "polynomial1", "class": "NASAPolynomial", "Tmin_value": 10.0, "Tmin_units": "K", "Tmax_value": 1853.5663026740365, "Tmax_units": "K", "coeffs": [2.500000000000126, -2.814048095438137e-15, 9.047587538332909e-18, -8.591944598242694e-21, 2.4182720553650057e-24, -23705485.977386568, 4.091313385047355]}, {"name": "polynomial2", "class": "NASAPolynomial", "Tmin_value": 1853.5663026740365, "Tmin_units": "K", "Tmax_value": 3000.0, "Tmax_units": "K", "coeffs": [2.500000000696122, -1.3129776766613561e-12, 9.140875080033424e-16, -2.782806647322001e-19, 3.1263265306749967e-23, -23705485.97738686, 4.091313381171202]}]

>  <H298_value>  (5) 
-47106.215373741215

>  <H298_units>  (5) 
kcal/mol

>  <S298_value>  (5) 
36.4335375885593

>  <S298_units>  (5) 
cal/(mol*K)

>  <Cp_T_value_list>  (5) 
[4.968016252389826, 4.968016252389978, 4.968016252390173, 4.96801625239036, 4.968016252390567, 4.968016252390427, 4.968016252389077, 4.968016252391019, 4.968016252390868]

>  <Cp_T_units>  (5) 
cal/(mol*K)

>  <T_list>  (5) 
[300.0, 400.0, 500.0, 600.0, 800.0, 1000.0, 1500.0, 2000.0, 2400.0]

>  <T_units>  (5) 
K

>  <yaml_path>  (5) 
/home/calvin/Dropbox/PersonalFolders/Calvin/ATLAS_Converged/rmg_rxn_1155/output/Species/rmg_rxn_1155_r1_sbr-O-sbr/rmg_rxn_1155_r1_sbr-O-sbr.yml

>  <frequencies_cm1>  (5) 
[]

>  <ZPE_kJmol>  (5) 
unknown

>  <E_elec_kJmol>  (5) 
unknown

>  <E0_minus_Eelec_plus_ZPE_kJmol>  (5) 
unknown

>  <rxn>  (5) 
rmg_rxn_1155

>  <species_type>  (5) 
r0

>  <species_folder>  (5) 
rmg_rxn_1155_r1_sbr-O-sbr

>  <frequencies_cm1_list>  (5) 
[]

>  <E0_kJmol>  (5) 
-197099

>  <H298_kJmol>  (5) 
-197092

$$$$
