
     RDKit          3D

  3  2  0  0  0  0  0  0  0  0999 V2000
   -0.1185   -0.0601    0.5744 N   0  0  0  0  0  0  0  0  0  1  0  0
    0.1095   -0.0083   -0.5685 O   0  0  0  0  0  0  0  0  0  2  0  0
   -0.0931    0.8863    1.0048 H   0  0  0  0  0  0  0  0  0  3  0  0
  1  3  1  0
  1  2  1  0
M  END
>  <rmg_smiles>  (1) 
[NH][O]

>  <rmg_adjacency_list>  (1) 
1 O u0 p2 c0 {2,S}
2 N u0 p1 c0 {1,S} {3,S}
3 H u0 p0 c0 {2,S}


>  <multiplicity>  (1) 
1

>  <reaction>  (1) 
rmg_rxn_2886

>  <type>  (1) 
r1h

>  <role_mapnums>  (1) 
{"r1h_a": 1, "r1h_h": 3}

>  <role_mapidx>  (1) 
{"r1h_a": 0, "r1h_h": 2}

>  <ordered_mapped_smiles>  (1) 
[NH:1]([OH:2])[H:3]

>  <mol_properties>  (1) 
{"0": {"label": "donator", "atom_type": "N3s"}, "2": {"label": "d_hydrogen", "atom_type": "H0"}}

>  <level_of_theory>  (1) 
wb97xd/def2tzvp

>  <lot_method>  (1) 
wb97xd

>  <lot_basis>  (1) 
def2tzvp

>  <spin_multiplicity>  (1) 
1.0

>  <optical_isomers>  (1) 
1.0

>  <modes>  (1) 
IdealGasTranslation(mass=(31.0058, 'amu')),         NonlinearRotor(             inertia = ([0.894997, 11.6018, 12.4968

>  <frequency_value>  (1) 
unknown

>  <frequency_units>  (1) 
unknown

>  <frequency_list>  (1) 
unknown

>  <arkane_path>  (1) 
/home/calvin/Dropbox/PersonalFolders/Calvin/ATLAS_Converged/rmg_rxn_2886/output/Species/rmg_rxn_2886_r2_N=O/arkane/output.py

>  <path_exists>  (1) 
True

>  <E0_value>  (1) 
-342549.8942768721

>  <E0_units>  (1) 
kJ/mol

>  <thermo_class>  (1) 
NASA

>  <Cp0_value>  (1) 
33.257888

>  <Cp0_units>  (1) 
J/(mol*K)

>  <CpInf_value>  (1) 
58.201304

>  <CpInf_units>  (1) 
J/(mol*K)

>  <Tmin_value>  (1) 
10.0

>  <Tmin_units>  (1) 
K

>  <Tmax_value>  (1) 
3000.0

>  <Tmax_units>  (1) 
K

>  <polynomials>  (1) 
[{"name": "polynomial1", "class": "NASAPolynomial", "Tmin_value": 10.0, "Tmin_units": "K", "Tmax_value": 671.7035683460227, "Tmax_units": "K", "coeffs": [4.015397317465916, -0.0008611623196567181, 2.7881895948404837e-06, 3.1572614316441516e-09, -3.856509378623432e-12, -41199236.778277814, 3.7404406180568657]}, {"name": "polynomial2", "class": "NASAPolynomial", "Tmin_value": 671.7035683460227, "Tmin_units": "K", "Tmax_value": 3000.0, "Tmax_units": "K", "coeffs": [2.5318336423252847, 0.004599422101218795, -1.8713112431566604e-06, 3.036396350118557e-10, -1.1135938546781076e-14, -41198961.3591478, 10.874001344432743]}]

>  <H298_value>  (1) 
-81869.03163411531

>  <H298_units>  (1) 
kcal/mol

>  <S298_value>  (1) 
52.668835486753125

>  <S298_units>  (1) 
cal/(mol*K)

>  <Cp_T_value_list>  (1) 
[8.07202091900091, 8.38676819468166, 8.814233368891006, 9.30929347479349, 10.263194936258623, 11.033861153006823, 12.298671151995416, 12.90963850443875, 13.15479935344093]

>  <Cp_T_units>  (1) 
cal/(mol*K)

>  <T_list>  (1) 
[300.0, 400.0, 500.0, 600.0, 800.0, 1000.0, 1500.0, 2000.0, 2400.0]

>  <T_units>  (1) 
K

>  <yaml_path>  (1) 
/home/calvin/Dropbox/PersonalFolders/Calvin/ATLAS_Converged/rmg_rxn_2886/output/Species/rmg_rxn_2886_r2_N=O/rmg_rxn_2886_r2_N=O.yml

>  <frequencies_cm1>  (1) 
[1568.4194470879997, 1706.1986405484797, 2886.20079698132]

>  <ZPE_kJmol>  (1) 
36.84989081913098

>  <E_elec_kJmol>  (1) 
-342586.7441676912

>  <E0_minus_Eelec_plus_ZPE_kJmol>  (1) 
0.0

>  <rxn>  (1) 
rmg_rxn_2886

>  <species_type>  (1) 
r1

>  <species_folder>  (1) 
rmg_rxn_2886_r2_N=O

>  <frequencies_cm1_list>  (1) 
[1568.4194470879997, 1706.1986405484797, 2886.20079698132]

>  <E0_kJmol>  (1) 
-342550

>  <H298_kJmol>  (1) 
-342540

$$$$

     RDKit          3D

  4  3  0  0  0  0  0  0  0  0999 V2000
    1.0325    0.0088    0.2646 O   0  0  0  0  0  0  0  0  0  1  0  0
   -0.1144    0.4004    0.1004 N   0  0  0  0  0  0  0  0  0  2  0  0
   -0.9981   -0.2666   -0.3381 O   0  0  0  0  0  0  0  0  0  3  0  0
    1.0391   -0.9021   -0.0385 H   0  0  0  0  0  0  0  0  0  4  0  0
  1  2  1  0
  1  4  1  0
  2  3  1  0
M  END
>  <rmg_smiles>  (2) 
[O][N]O

>  <rmg_adjacency_list>  (2) 
1 O u0 p2 c0 {3,S} {4,S}
2 O u0 p2 c0 {3,S}
3 N u0 p1 c0 {1,S} {2,S}
4 H u0 p0 c0 {1,S}


>  <multiplicity>  (2) 
1

>  <reaction>  (2) 
rmg_rxn_2886

>  <type>  (2) 
r2h

>  <role_mapnums>  (2) 
{"r2h_a": 1, "r2h_h": 4}

>  <role_mapidx>  (2) 
{"r2h_a": 0, "r2h_h": 3}

>  <ordered_mapped_smiles>  (2) 
[O:1]([NH:2][OH:3])[H:4]

>  <mol_properties>  (2) 
{"0": {"label": "acceptor", "atom_type": "O2s"}, "3": {"label": "a_hydrogen", "atom_type": "H0"}}

>  <level_of_theory>  (2) 
wb97xd/def2tzvp

>  <lot_method>  (2) 
wb97xd

>  <lot_basis>  (2) 
def2tzvp

>  <spin_multiplicity>  (2) 
1.0

>  <optical_isomers>  (2) 
1.0

>  <modes>  (2) 
IdealGasTranslation(mass=(47.0007, 'amu')),         NonlinearRotor(             inertia = ([5.85585, 37.1292, 42.985

>  <frequency_value>  (2) 
unknown

>  <frequency_units>  (2) 
unknown

>  <frequency_list>  (2) 
unknown

>  <arkane_path>  (2) 
/home/calvin/Dropbox/PersonalFolders/Calvin/ATLAS_Converged/rmg_rxn_2886/output/Species/rmg_rxn_2886_p2_ON=O/arkane/output.py

>  <path_exists>  (2) 
True

>  <E0_value>  (2) 
-540078.5942529333

>  <E0_units>  (2) 
kJ/mol

>  <thermo_class>  (2) 
NASA

>  <Cp0_value>  (2) 
33.257888

>  <Cp0_units>  (2) 
J/(mol*K)

>  <CpInf_value>  (2) 
83.14472

>  <CpInf_units>  (2) 
J/(mol*K)

>  <Tmin_value>  (2) 
10.0

>  <Tmin_units>  (2) 
K

>  <Tmax_value>  (2) 
3000.0

>  <Tmax_units>  (2) 
K

>  <polynomials>  (2) 
[{"name": "polynomial1", "class": "NASAPolynomial", "Tmin_value": 10.0, "Tmin_units": "K", "Tmax_value": 612.0643897395777, "Tmax_units": "K", "coeffs": [4.0600857452062735, -0.005003345064429928, 4.853845019464716e-05, -7.775324969230841e-08, 4.0459407904253375e-11, -64956451.21114784, 6.457820799308927]}, {"name": "polynomial2", "class": "NASAPolynomial", "Tmin_value": 612.0643897395777, "Tmin_units": "K", "Tmax_value": 3000.0, "Tmax_units": "K", "coeffs": [2.9193437592381053, 0.009916245223045126, -6.318854045102609e-06, 1.923369739597041e-09, -2.2344958697478614e-13, -64956451.389076084, 10.259035440863206]}]

>  <H298_value>  (2) 
-129079.33524779696

>  <H298_units>  (2) 
kcal/mol

>  <S298_value>  (2) 
58.91392971376136

>  <S298_units>  (2) 
cal/(mol*K)

>  <Cp_T_value_list>  (2) 
[10.245890074471536, 11.693622486364122, 12.921974304699056, 13.872207892773629, 15.304498101096991, 16.328190410569672, 17.758570202857868, 18.457536745620374, 18.872252251724756]

>  <Cp_T_units>  (2) 
cal/(mol*K)

>  <T_list>  (2) 
[300.0, 400.0, 500.0, 600.0, 800.0, 1000.0, 1500.0, 2000.0, 2400.0]

>  <T_units>  (2) 
K

>  <yaml_path>  (2) 
/home/calvin/Dropbox/PersonalFolders/Calvin/ATLAS_Converged/rmg_rxn_2886/output/Species/rmg_rxn_2886_p2_ON=O/rmg_rxn_2886_p2_ON=O.yml

>  <frequencies_cm1>  (2) 
[677.3800329207598, 710.56817297232, 946.5109215821999, 1350.5025349431198, 1733.8176555055202, 3605.3046327064]

>  <ZPE_kJmol>  (2) 
53.97602405642365

>  <E_elec_kJmol>  (2) 
-540132.5702769897

>  <E0_minus_Eelec_plus_ZPE_kJmol>  (2) 
0.0

>  <rxn>  (2) 
rmg_rxn_2886

>  <species_type>  (2) 
p1

>  <species_folder>  (2) 
rmg_rxn_2886_p2_ON=O

>  <frequencies_cm1_list>  (2) 
[677.3800329207598, 710.56817297232, 946.5109215821999, 1350.5025349431198, 1733.8176555055202, 3605.3046327064]

>  <E0_kJmol>  (2) 
-540079

>  <H298_kJmol>  (2) 
-540068

$$$$

     RDKit          3D

  6  4  0  0  0  0  0  0  0  0999 V2000
    0.5969    1.0094    0.7849 O   0  0  0  0  0  0  0  0  0  1  0  0
   -0.5500    1.4011    0.6206 N   0  0  0  0  0  0  0  0  0  2  0  0
   -1.4337    0.7341    0.1821 O   0  0  0  0  0  1  0  0  0  3  0  0
    0.5800   -1.4980   -0.1748 N   0  0  0  0  0  0  0  0  0  4  0  0
    0.8080   -1.4462   -1.3178 O   0  0  0  0  0  0  0  0  0  5  0  0
    0.6076   -0.4709    0.2923 H   0  0  0  0  0  0  0  0  0  6  0  0
  1  2  1  0
  2  3  1  0
  4  6  1  0
  4  5  1  0
M  RAD  1   3   2
M  END
>  <rmg_smiles>  (3) 
[O][N][O].[NH][O]

>  <rmg_adjacency_list>  (3) 
multiplicity 2
1 O u1 p2 c0 {4,S}
2 O u0 p2 c0 {4,S}
3 O u0 p2 c0 {5,S}
4 N u0 p1 c0 {1,S} {2,S}
5 N u0 p1 c0 {3,S} {6,S}
6 H u0 p0 c0 {5,S}


>  <multiplicity>  (3) 
2

>  <reaction>  (3) 
rmg_rxn_2886

>  <type>  (3) 
ts

>  <role_mapnums>  (3) 
{"*2": 6, "*1": 4, "*3": 1, "*0": 5, "*4": 2}

>  <role_mapidx>  (3) 
{"*2": 5, "*1": 3, "*3": 0, "*0": 4, "*4": 1}

>  <ordered_mapped_smiles>  (3) 
[OH:1][NH:2][O:3].[NH:4]([OH:5])[H:6]

>  <mol_properties>  (3) 
{"0": {"label": "*3", "atom_type": "O2s"}, "1": {"label": "*4", "atom_type": "N3s"}, "3": {"label": "*1", "atom_type": "N3s"}, "4": {"label": "*0", "atom_type": "O2s"}, "5": {"label": "*2", "atom_type": "H0"}}

>  <level_of_theory>  (3) 
wb97xd/def2tzvp

>  <lot_method>  (3) 
wb97xd

>  <lot_basis>  (3) 
def2tzvp

>  <spin_multiplicity>  (3) 
2.0

>  <optical_isomers>  (3) 
2.0

>  <modes>  (3) 
IdealGasTranslation(mass=(76.9987, 'amu')),         NonlinearRotor(             inertia = ([44.3216, 183.469, 211.776

>  <frequency_value>  (3) 
-885.399

>  <frequency_units>  (3) 
cm^-1

>  <frequency_list>  (3) 
unknown

>  <arkane_path>  (3) 
/home/calvin/Dropbox/PersonalFolders/Calvin/ATLAS_Converged/rmg_rxn_2886/output/rxns/TS0/arkane/output.py

>  <path_exists>  (3) 
True

>  <E0_value>  (3) 
-880994.0

>  <E0_units>  (3) 
kJ/mol

>  <thermo_class>  (3) 
unknown

>  <Cp0_value>  (3) 
unknown

>  <Cp0_units>  (3) 
unknown

>  <CpInf_value>  (3) 
unknown

>  <CpInf_units>  (3) 
unknown

>  <Tmin_value>  (3) 
unknown

>  <Tmin_units>  (3) 
unknown

>  <Tmax_value>  (3) 
unknown

>  <Tmax_units>  (3) 
unknown

>  <polynomials>  (3) 
unknown

>  <H298_value>  (3) 
unknown

>  <H298_units>  (3) 
unknown

>  <S298_value>  (3) 
unknown

>  <S298_units>  (3) 
unknown

>  <Cp_T_value_list>  (3) 
unknown

>  <Cp_T_units>  (3) 
unknown

>  <T_list>  (3) 
unknown

>  <T_units>  (3) 
unknown

>  <yaml_path>  (3) 
unknown

>  <frequencies_cm1>  (3) 
unknown

>  <ZPE_kJmol>  (3) 
unknown

>  <E_elec_kJmol>  (3) 
unknown

>  <E0_minus_Eelec_plus_ZPE_kJmol>  (3) 
unknown

>  <rxn>  (3) 
unknown

>  <species_type>  (3) 
unknown

>  <species_folder>  (3) 
unknown

>  <frequencies_cm1_list>  (3) 
[]

>  <ts_imag_freq_cm1>  (3) 
-896.1528

>  <ts_freq_out_path>  (3) 
/home/calvin/Dropbox/PersonalFolders/Calvin/ATLAS_Converged/rmg_rxn_2886/output/rxns/TS0/geometry/freq.out

>  <E0_kJmol>  (3) 
-880994

>  <H298_kJmol>  (3) 
unknown

$$$$

     RDKit          3D

  2  1  0  0  0  0  0  0  0  0999 V2000
    0.0000    0.0000    0.5699 N   0  0  0  0  0  2  0  0  0  1  0  0
    0.0000    0.0000   -0.5699 O   0  0  0  0  0  0  0  0  0  2  0  0
  1  2  1  0
M  RAD  1   1   2
M  END
>  <rmg_smiles>  (4) 
[N]=O

>  <rmg_adjacency_list>  (4) 
multiplicity 2
1 N u1 p2 c0 {2,S}
2 O u0 p2 c0 {1,S}


>  <multiplicity>  (4) 
2

>  <reaction>  (4) 
rmg_rxn_2886

>  <type>  (4) 
r1

>  <role_mapnums>  (4) 
{}

>  <role_mapidx>  (4) 
{}

>  <ordered_mapped_smiles>  (4) 
[NH:1][OH:2]

>  <level_of_theory>  (4) 
wb97xd/def2tzvp

>  <lot_method>  (4) 
wb97xd

>  <lot_basis>  (4) 
def2tzvp

>  <spin_multiplicity>  (4) 
2.0

>  <optical_isomers>  (4) 
1.0

>  <modes>  (4) 
IdealGasTranslation(mass=(29.998, 'amu')),         LinearRotor(inertia=(9.70079, 'amu*angstrom^2'), symmetry=1),         HarmonicOscillator(frequencies=([2034.32

>  <frequency_value>  (4) 
unknown

>  <frequency_units>  (4) 
unknown

>  <frequency_list>  (4) 
unknown

>  <arkane_path>  (4) 
/home/calvin/Dropbox/PersonalFolders/Calvin/ATLAS_Converged/rmg_rxn_2886/output/Species/rmg_rxn_2886_p1_sbr-N-sbr=O/arkane/output.py

>  <path_exists>  (4) 
True

>  <E0_value>  (4) 
-341044.6317811924

>  <E0_units>  (4) 
kJ/mol

>  <thermo_class>  (4) 
NASA

>  <Cp0_value>  (4) 
29.100652

>  <Cp0_units>  (4) 
J/(mol*K)

>  <CpInf_value>  (4) 
37.415124

>  <CpInf_units>  (4) 
J/(mol*K)

>  <Tmin_value>  (4) 
10.0

>  <Tmin_units>  (4) 
K

>  <Tmax_value>  (4) 
3000.0

>  <Tmax_units>  (4) 
K

>  <polynomials>  (4) 
[{"name": "polynomial1", "class": "NASAPolynomial", "Tmin_value": 10.0, "Tmin_units": "K", "Tmax_value": 720.3138643760603, "Tmax_units": "K", "coeffs": [3.505451677336064, -0.00028953210299893214, 6.077025119860231e-07, 1.5112348759071728e-09, -1.3872630628454572e-12, -41018195.02857665, 4.731882697322634]}, {"name": "polynomial2", "class": "NASAPolynomial", "Tmin_value": 720.3138643760603, "Tmin_units": "K", "Tmax_value": 3000.0, "Tmax_units": "K", "coeffs": [2.922952781623477, 0.001616659587859859, -5.952907480043382e-07, 6.416589639706871e-11, 3.635908475569635e-15, -41018076.64733901, 7.590238585995561]}]

>  <H298_value>  (4) 
-81509.5582027967

>  <H298_units>  (4) 
kcal/mol

>  <S298_value>  (4) 
48.9927224470057

>  <S298_units>  (4) 
cal/(mol*K)

>  <Cp_T_value_list>  (4) 
[6.96088983576959, 7.0507603601981605, 7.18337725411879, 7.34698612783888, 7.689766968620922, 7.972917755483923, 8.432720061896857, 8.637612984744813, 8.707384760249072]

>  <Cp_T_units>  (4) 
cal/(mol*K)

>  <T_list>  (4) 
[300.0, 400.0, 500.0, 600.0, 800.0, 1000.0, 1500.0, 2000.0, 2400.0]

>  <T_units>  (4) 
K

>  <yaml_path>  (4) 
/home/calvin/Dropbox/PersonalFolders/Calvin/ATLAS_Converged/rmg_rxn_2886/output/Species/rmg_rxn_2886_p1_sbr-N-sbr=O/rmg_rxn_2886_p1_sbr-N-sbr=O.yml

>  <frequencies_cm1>  (4) 
[2009.90480029612]

>  <ZPE_kJmol>  (4) 
12.021903879155191

>  <E_elec_kJmol>  (4) 
-341056.6536850716

>  <E0_minus_Eelec_plus_ZPE_kJmol>  (4) 
0.0

>  <rxn>  (4) 
rmg_rxn_2886

>  <species_type>  (4) 
p0

>  <species_folder>  (4) 
rmg_rxn_2886_p1_sbr-N-sbr=O

>  <frequencies_cm1_list>  (4) 
[2009.90480029612]

>  <E0_kJmol>  (4) 
-341045

>  <H298_kJmol>  (4) 
-341036

$$$$

     RDKit          3D

  3  2  0  0  0  0  0  0  0  0999 V2000
    1.0961   -0.1123    0.0000 O   0  0  0  0  0  0  0  0  0  1  0  0
   -0.0112    0.3049    0.0000 N   0  0  0  0  0  0  0  0  0  2  0  0
   -1.0848   -0.1926    0.0000 O   0  0  0  0  0  1  0  0  0  3  0  0
  1  2  1  0
  2  3  1  0
M  RAD  1   3   2
M  END
>  <rmg_smiles>  (5) 
[O][N][O]

>  <rmg_adjacency_list>  (5) 
multiplicity 2
1 O u1 p2 c0 {3,S}
2 O u0 p2 c0 {3,S}
3 N u0 p1 c0 {1,S} {2,S}


>  <multiplicity>  (5) 
2

>  <reaction>  (5) 
rmg_rxn_2886

>  <type>  (5) 
r2

>  <role_mapnums>  (5) 
{}

>  <role_mapidx>  (5) 
{}

>  <ordered_mapped_smiles>  (5) 
[OH:1][NH:2][O:3]

>  <level_of_theory>  (5) 
wb97xd/def2tzvp

>  <lot_method>  (5) 
wb97xd

>  <lot_basis>  (5) 
def2tzvp

>  <spin_multiplicity>  (5) 
2.0

>  <optical_isomers>  (5) 
1.0

>  <modes>  (5) 
IdealGasTranslation(mass=(45.9929, 'amu')),         NonlinearRotor(             inertia = ([2.03949, 38.09, 40.1295

>  <frequency_value>  (5) 
unknown

>  <frequency_units>  (5) 
unknown

>  <frequency_list>  (5) 
unknown

>  <arkane_path>  (5) 
/home/calvin/Dropbox/PersonalFolders/Calvin/ATLAS_Converged/rmg_rxn_2886/output/Species/rmg_rxn_2886_r1_sbr-O--sbrsbr-Np-sbr=O/arkane/output.py

>  <path_exists>  (5) 
True

>  <E0_value>  (5) 
-538456.0889257833

>  <E0_units>  (5) 
kJ/mol

>  <thermo_class>  (5) 
NASA

>  <Cp0_value>  (5) 
33.257888

>  <Cp0_units>  (5) 
J/(mol*K)

>  <CpInf_value>  (5) 
58.201304

>  <CpInf_units>  (5) 
J/(mol*K)

>  <Tmin_value>  (5) 
10.0

>  <Tmin_units>  (5) 
K

>  <Tmax_value>  (5) 
3000.0

>  <Tmax_units>  (5) 
K

>  <polynomials>  (5) 
[{"name": "polynomial1", "class": "NASAPolynomial", "Tmin_value": 10.0, "Tmin_units": "K", "Tmax_value": 829.6569664713601, "Tmax_units": "K", "coeffs": [4.03089636799025, -0.0019750039052565515, 1.6098845778790944e-05, -1.920739616755687e-08, 7.297907389699296e-12, -64761309.7824354, 5.8680775999309605]}, {"name": "polynomial2", "class": "NASAPolynomial", "Tmin_value": 829.6569664713601, "Tmin_units": "K", "Tmax_value": 3000.0, "Tmax_units": "K", "coeffs": [2.9737910070195195, 0.006084739080733844, -3.83028703701791e-06, 1.1113971313799636e-09, -1.2191596389898882e-13, -64761236.35692391, 10.155992803159362]}]

>  <H298_value>  (5) 
-128691.66925982916

>  <H298_units>  (5) 
kcal/mol

>  <S298_value>  (5) 
57.23889332642445

>  <S298_units>  (5) 
cal/(mol*K)

>  <Cp_T_value_list>  (5) 
[8.79896222486352, 9.487446878145503, 10.181056161241756, 10.807402148257042, 11.742781918561981, 12.355901987591391, 13.148390655511276, 13.438767435877251, 13.58014461694549]

>  <Cp_T_units>  (5) 
cal/(mol*K)

>  <T_list>  (5) 
[300.0, 400.0, 500.0, 600.0, 800.0, 1000.0, 1500.0, 2000.0, 2400.0]

>  <T_units>  (5) 
K

>  <yaml_path>  (5) 
/home/calvin/Dropbox/PersonalFolders/Calvin/ATLAS_Converged/rmg_rxn_2886/output/Species/rmg_rxn_2886_r1_sbr-O--sbrsbr-Np-sbr=O/rmg_rxn_2886_r1_sbr-O--sbrsbr-Np-sbr=O.yml

>  <frequencies_cm1>  (5) 
[773.57963026864, 1428.1132030297597, 1743.1018196581601]

>  <ZPE_kJmol>  (5) 
23.59511860156866

>  <E_elec_kJmol>  (5) 
-538479.6840443849

>  <E0_minus_Eelec_plus_ZPE_kJmol>  (5) 
0.0

>  <rxn>  (5) 
rmg_rxn_2886

>  <species_type>  (5) 
r0

>  <species_folder>  (5) 
rmg_rxn_2886_r1_sbr-O--sbrsbr-Np-sbr=O

>  <frequencies_cm1_list>  (5) 
[773.57963026864, 1428.1132030297597, 1743.1018196581601]

>  <E0_kJmol>  (5) 
-538456

>  <H298_kJmol>  (5) 
-538446

$$$$
