
     RDKit          3D

  9  8  0  0  0  0  0  0  0  0999 V2000
   -0.8973   -0.9530   -0.4058 O   0  0  0  0  0  0  0  0  0  1  0  0
   -0.1052   -0.5953    0.6900 N   0  0  0  0  0  0  0  0  0  2  0  0
    0.6650    0.5176    0.3939 C   0  0  0  0  0  0  0  0  0  3  0  0
    0.5407    1.3397   -0.6478 C   0  0  0  0  0  0  0  0  0  4  0  0
   -1.7044   -1.2763   -0.0000 H   0  0  0  0  0  0  0  0  0  5  0  0
    0.5570   -1.3856    0.8260 H   0  0  0  0  0  0  0  0  0  6  0  0
    1.4112    0.6863    1.1633 H   0  0  0  0  0  0  0  0  0  7  0  0
   -0.1985    1.1725   -1.4172 H   0  0  0  0  0  0  0  0  0  8  0  0
    1.1747    2.2118   -0.7183 H   0  0  0  0  0  0  0  0  0  9  0  0
  1  5  1  0
  1  2  1  0
  2  6  1  0
  2  3  1  0
  3  4  1  0
  3  7  1  0
  4  8  1  0
  4  9  1  0
M  END
>  <rmg_smiles>  (1) 
[CH2][CH]NO

>  <rmg_adjacency_list>  (1) 
1 O u0 p2 c0 {2,S} {9,S}
2 N u0 p1 c0 {1,S} {3,S} {6,S}
3 C u0 p0 c0 {2,S} {4,S} {5,S}
4 C u0 p0 c0 {3,S} {7,S} {8,S}
5 H u0 p0 c0 {3,S}
6 H u0 p0 c0 {2,S}
7 H u0 p0 c0 {4,S}
8 H u0 p0 c0 {4,S}
9 H u0 p0 c0 {1,S}


>  <multiplicity>  (1) 
1

>  <reaction>  (1) 
rmg_rxn_15729

>  <type>  (1) 
r1h

>  <role_mapnums>  (1) 
{"r1h_a": 2, "r1h_h": 6}

>  <role_mapidx>  (1) 
{"r1h_a": 1, "r1h_h": 5}

>  <ordered_mapped_smiles>  (1) 
[O:1]([N:2]([CH:3]([CH:4]([H:8])[H:9])[H:7])[H:6])[H:5]

>  <mol_properties>  (1) 
{"1": {"label": "donator", "atom_type": "N3s"}, "5": {"label": "d_hydrogen", "atom_type": "H0"}}

>  <level_of_theory>  (1) 
wb97xd/def2tzvp

>  <lot_method>  (1) 
wb97xd

>  <lot_basis>  (1) 
def2tzvp

>  <spin_multiplicity>  (1) 
1.0

>  <optical_isomers>  (1) 
2.0

>  <modes>  (1) 
IdealGasTranslation(mass=(59.0371, 'amu')),         NonlinearRotor(             inertia = ([26.8851, 80.2475, 104.734

>  <frequency_value>  (1) 
unknown

>  <frequency_units>  (1) 
unknown

>  <frequency_list>  (1) 
unknown

>  <arkane_path>  (1) 
/home/calvin/Dropbox/PersonalFolders/Calvin/ZEUS_Converged/rmg_rxn_15729/output/Species/rmg_rxn_15729_r2_ONC=C/arkane/output.py

>  <path_exists>  (1) 
True

>  <E0_value>  (1) 
-548876.2492897667

>  <E0_units>  (1) 
kJ/mol

>  <thermo_class>  (1) 
NASA

>  <Cp0_value>  (1) 
33.257888

>  <Cp0_units>  (1) 
J/(mol*K)

>  <CpInf_value>  (1) 
207.8618

>  <CpInf_units>  (1) 
J/(mol*K)

>  <Tmin_value>  (1) 
10.0

>  <Tmin_units>  (1) 
K

>  <Tmax_value>  (1) 
3000.0

>  <Tmax_units>  (1) 
K

>  <polynomials>  (1) 
[{"name": "polynomial1", "class": "NASAPolynomial", "Tmin_value": 10.0, "Tmin_units": "K", "Tmax_value": 534.513822788252, "Tmax_units": "K", "coeffs": [3.9517303912922594, 0.0028840980202371903, 8.773836020256086e-05, -1.6272179485764668e-07, 9.457369073564097e-11, -66014562.421124935, 8.823481836648403]}, {"name": "polynomial2", "class": "NASAPolynomial", "Tmin_value": 534.513822788252, "Tmin_units": "K", "Tmax_value": 3000.0, "Tmax_units": "K", "coeffs": [1.5236658327763646, 0.031063031084434593, -1.9427063870386636e-05, 5.970608421724234e-09, -7.109704180363607e-13, -66014445.83063852, 17.679113003132944]}]

>  <H298_value>  (1) 
-131180.9841278997

>  <H298_units>  (1) 
kcal/mol

>  <S298_value>  (1) 
69.24050182976455

>  <S298_units>  (1) 
cal/(mol*K)

>  <Cp_T_value_list>  (1) 
[18.0556999419756, 22.158145070532438, 25.632978177679774, 28.54672045926108, 33.19928101171102, 36.6028951744489, 41.64953203785474, 44.37593717322883, 45.95305980032292]

>  <Cp_T_units>  (1) 
cal/(mol*K)

>  <T_list>  (1) 
[300.0, 400.0, 500.0, 600.0, 800.0, 1000.0, 1500.0, 2000.0, 2400.0]

>  <T_units>  (1) 
K

>  <yaml_path>  (1) 
/home/calvin/Dropbox/PersonalFolders/Calvin/ZEUS_Converged/rmg_rxn_15729/output/Species/rmg_rxn_15729_r2_ONC=C/rmg_rxn_15729_r2_ONC=C.yml

>  <frequencies_cm1>  (1) 
[258.13684516411996, 308.68472410463994, 322.41182775932, 612.44581973484, 680.82039256608, 774.1770579914801, 870.0813749705999, 989.50511667072, 1011.5412725625999, 1022.6520548103599, 1191.51809081448, 1319.1959488692398, 1382.58509035816, 1435.43340938088, 1488.7143484787598, 1720.13862074808, 3143.3968651566, 3158.0922137413995, 3245.6737445126796, 3519.9823401054, 3819.6438454995596]

>  <ZPE_kJmol>  (1) 
193.04641492915528

>  <E_elec_kJmol>  (1) 
-549069.2957046959

>  <E0_minus_Eelec_plus_ZPE_kJmol>  (1) 
0.0

>  <rxn>  (1) 
rmg_rxn_15729

>  <species_type>  (1) 
r1

>  <species_folder>  (1) 
rmg_rxn_15729_r2_ONC=C

>  <frequencies_cm1_list>  (1) 
[258.13684516411996, 308.68472410463994, 322.41182775932, 612.44581973484, 680.82039256608, 774.1770579914801, 870.0813749705999, 989.50511667072, 1011.5412725625999, 1022.6520548103599, 1191.51809081448, 1319.1959488692398, 1382.58509035816, 1435.43340938088, 1488.7143484787598, 1720.13862074808, 3143.3968651566, 3158.0922137413995, 3245.6737445126796, 3519.9823401054, 3819.6438454995596]

>  <E0_kJmol>  (1) 
-548876

>  <H298_kJmol>  (1) 
-548861

$$$$

     RDKit          3D

  9  8  0  0  0  0  0  0  0  0999 V2000
   -1.4181   -0.8560    0.2463 C   0  0  0  0  0  0  0  0  0  1  0  0
   -0.3233   -0.3611   -0.4212 O   0  0  0  0  0  0  0  0  0  2  0  0
    0.4879    0.3740    0.4246 N   0  0  0  0  0  0  0  0  0  3  0  0
    1.4337    0.9216   -0.2087 C   0  0  0  0  0  0  0  0  0  4  0  0
   -1.8950   -1.6149   -0.3674 H   0  0  0  0  0  0  0  0  0  5  0  0
   -1.2200   -1.1214    1.2835 H   0  0  0  0  0  0  0  0  0  6  0  0
    2.1283    1.5083    0.3776 H   0  0  0  0  0  0  0  0  0  7  0  0
    1.5565    0.8205   -1.2840 H   0  0  0  0  0  0  0  0  0  8  0  0
   -2.1736   -0.0763    0.3094 H   0  0  0  0  0  0  0  0  0  9  0  0
  1  5  1  0
  1  9  1  0
  1  2  1  0
  1  6  1  0
  2  3  1  0
  3  4  1  0
  4  8  1  0
  4  7  1  0
M  END
>  <rmg_smiles>  (2) 
CO[N][CH2]

>  <rmg_adjacency_list>  (2) 
1 O u0 p2 c0 {2,S} {3,S}
2 N u0 p1 c0 {1,S} {4,S}
3 C u0 p0 c0 {1,S} {5,S} {6,S} {7,S}
4 C u0 p0 c0 {2,S} {8,S} {9,S}
5 H u0 p0 c0 {3,S}
6 H u0 p0 c0 {3,S}
7 H u0 p0 c0 {3,S}
8 H u0 p0 c0 {4,S}
9 H u0 p0 c0 {4,S}


>  <multiplicity>  (2) 
1

>  <reaction>  (2) 
rmg_rxn_15729

>  <type>  (2) 
r2h

>  <role_mapnums>  (2) 
{"r2h_a": 1, "r2h_h": 9}

>  <role_mapidx>  (2) 
{"r2h_a": 0, "r2h_h": 8}

>  <ordered_mapped_smiles>  (2) 
[C:1]([O:2][NH:3][CH:4]([H:7])[H:8])([H:5])([H:6])[H:9]

>  <mol_properties>  (2) 
{"0": {"label": "acceptor", "atom_type": "Cs"}, "8": {"label": "a_hydrogen", "atom_type": "H0"}}

>  <level_of_theory>  (2) 
wb97xd/def2tzvp

>  <lot_method>  (2) 
wb97xd

>  <lot_basis>  (2) 
def2tzvp

>  <spin_multiplicity>  (2) 
1.0

>  <optical_isomers>  (2) 
1.0

>  <modes>  (2) 
IdealGasTranslation(mass=(59.0371, 'amu')),         NonlinearRotor(             inertia = ([11.9742, 101.538, 110.304

>  <frequency_value>  (2) 
unknown

>  <frequency_units>  (2) 
unknown

>  <frequency_list>  (2) 
unknown

>  <arkane_path>  (2) 
/home/calvin/Dropbox/PersonalFolders/Calvin/ZEUS_Converged/rmg_rxn_15729/output/Species/rmg_rxn_15729_p2_CON=C/arkane/output.py

>  <path_exists>  (2) 
True

>  <E0_value>  (2) 
-548882.9200394232

>  <E0_units>  (2) 
kJ/mol

>  <thermo_class>  (2) 
NASA

>  <Cp0_value>  (2) 
33.257888

>  <Cp0_units>  (2) 
J/(mol*K)

>  <CpInf_value>  (2) 
207.8618

>  <CpInf_units>  (2) 
J/(mol*K)

>  <Tmin_value>  (2) 
10.0

>  <Tmin_units>  (2) 
K

>  <Tmax_value>  (2) 
3000.0

>  <Tmax_units>  (2) 
K

>  <polynomials>  (2) 
[{"name": "polynomial1", "class": "NASAPolynomial", "Tmin_value": 10.0, "Tmin_units": "K", "Tmax_value": 1066.0445442103917, "Tmax_units": "K", "coeffs": [3.9488472240731216, 0.012909444164008412, 1.8432835387873368e-05, -2.5565901414715004e-08, 8.632634293818456e-12, -66015370.98001154, 7.906058800048573]}, {"name": "polynomial2", "class": "NASAPolynomial", "Tmin_value": 1066.0445442103917, "Tmin_units": "K", "Tmax_value": 3000.0, "Tmax_units": "K", "coeffs": [4.051174026649639, 0.02340322367340144, -1.163838712217072e-05, 2.8112466199843713e-09, -2.6680947262736413e-13, -66016010.897278614, 4.506810904924114]}]

>  <H298_value>  (2) 
-131182.46582067996

>  <H298_units>  (2) 
kcal/mol

>  <S298_value>  (2) 
69.27397375028742

>  <S298_units>  (2) 
cal/(mol*K)

>  <Cp_T_value_list>  (2) 
[17.607207323409234, 21.157104611048137, 24.5530891366924, 27.67560467885903, 32.827861850696166, 36.480858050170255, 41.94371504002133, 44.76201379304356, 46.08804102499818]

>  <Cp_T_units>  (2) 
cal/(mol*K)

>  <T_list>  (2) 
[300.0, 400.0, 500.0, 600.0, 800.0, 1000.0, 1500.0, 2000.0, 2400.0]

>  <T_units>  (2) 
K

>  <yaml_path>  (2) 
/home/calvin/Dropbox/PersonalFolders/Calvin/ZEUS_Converged/rmg_rxn_15729/output/Species/rmg_rxn_15729_p2_CON=C/rmg_rxn_15729_p2_CON=C.yml

>  <frequencies_cm1>  (2) 
[119.61601728907998, 180.59484693068, 346.29520270228, 574.9726808436, 796.6046320465999, 891.08061607916, 982.9746136314, 1126.32979917172, 1169.7222794088, 1171.7686410341598, 1237.71230106212, 1418.12173938916, 1456.2266409298397, 1467.4060930307999, 1493.1160860688801, 1708.0183916582798, 3005.45973103376, 3077.28153049564, 3083.54422110748, 3121.53925088304, 3213.405780494]

>  <ZPE_kJmol>  (2) 
189.2599943319938

>  <E_elec_kJmol>  (2) 
-549072.1800337551

>  <E0_minus_Eelec_plus_ZPE_kJmol>  (2) 
0.0

>  <rxn>  (2) 
rmg_rxn_15729

>  <species_type>  (2) 
p1

>  <species_folder>  (2) 
rmg_rxn_15729_p2_CON=C

>  <frequencies_cm1_list>  (2) 
[119.61601728907998, 180.59484693068, 346.29520270228, 574.9726808436, 796.6046320465999, 891.08061607916, 982.9746136314, 1126.32979917172, 1169.7222794088, 1171.7686410341598, 1237.71230106212, 1418.12173938916, 1456.2266409298397, 1467.4060930307999, 1493.1160860688801, 1708.0183916582798, 3005.45973103376, 3077.28153049564, 3083.54422110748, 3121.53925088304, 3213.405780494]

>  <E0_kJmol>  (2) 
-548883

>  <H298_kJmol>  (2) 
-548867

$$$$

     RDKit          3D

 17 15  0  0  0  0  0  0  0  0999 V2000
    0.0228   -1.6634    0.6355 C   0  0  0  0  0  3  0  0  0  1  0  0
    1.1176   -1.1684   -0.0320 O   0  0  0  0  0  0  0  0  0  2  0  0
    1.9288   -0.4333    0.8137 N   0  0  0  0  0  0  0  0  0  3  0  0
    2.8746    0.1143    0.1805 C   0  0  0  0  0  0  0  0  0  4  0  0
   -0.4541   -2.4222    0.0218 H   0  0  0  0  0  0  0  0  0  5  0  0
    0.2209   -1.9287    1.6727 H   0  0  0  0  0  0  0  0  0  6  0  0
    3.5692    0.7010    0.7668 H   0  0  0  0  0  0  0  0  0  7  0  0
    2.9974    0.0132   -0.8948 H   0  0  0  0  0  0  0  0  0  8  0  0
   -2.5237   -0.0862   -0.5360 O   0  0  0  0  0  0  0  0  0  9  0  0
   -1.7316    0.2715    0.5597 N   0  0  0  0  0  0  0  0  0 10  0  0
   -0.9614    1.3844    0.2636 C   0  0  0  0  0  0  0  0  0 11  0  0
   -1.0857    2.2065   -0.7780 C   0  0  0  0  0  0  0  0  0 12  0  0
   -3.3308   -0.4096   -0.1303 H   0  0  0  0  0  0  0  0  0 13  0  0
   -0.9624   -0.6466    0.7177 H   0  0  0  0  0  0  0  0  0 14  0  0
   -0.2152    1.5531    1.0331 H   0  0  0  0  0  0  0  0  0 15  0  0
   -1.8249    2.0393   -1.5475 H   0  0  0  0  0  0  0  0  0 16  0  0
   -0.4517    3.0786   -0.8486 H   0  0  0  0  0  0  0  0  0 17  0  0
  1  5  1  0
  1  2  1  0
  1  6  1  0
  2  3  1  0
  3  4  1  0
  4  8  1  0
  4  7  1  0
  9 13  1  0
  9 10  1  0
 10 11  1  0
 10 14  1  0
 11 12  1  0
 11 15  1  0
 12 17  1  0
 12 16  1  0
M  RAD  1   1   2
M  END
>  <rmg_smiles>  (3) 
[CH2]O[N][CH2].[CH2][CH]NO

>  <rmg_adjacency_list>  (3) 
multiplicity 2
1  O u0 p2 c0 {4,S} {7,S}
2  O u0 p2 c0 {3,S} {17,S}
3  N u0 p1 c0 {2,S} {5,S} {10,S}
4  N u0 p1 c0 {1,S} {8,S}
5  C u0 p0 c0 {3,S} {6,S} {9,S}
6  C u0 p0 c0 {5,S} {11,S} {12,S}
7  C u1 p0 c0 {1,S} {13,S} {14,S}
8  C u0 p0 c0 {4,S} {15,S} {16,S}
9  H u0 p0 c0 {5,S}
10 H u0 p0 c0 {3,S}
11 H u0 p0 c0 {6,S}
12 H u0 p0 c0 {6,S}
13 H u0 p0 c0 {7,S}
14 H u0 p0 c0 {7,S}
15 H u0 p0 c0 {8,S}
16 H u0 p0 c0 {8,S}
17 H u0 p0 c0 {2,S}


>  <multiplicity>  (3) 
2

>  <reaction>  (3) 
rmg_rxn_15729

>  <type>  (3) 
ts

>  <role_mapnums>  (3) 
{"*2": 14, "*1": 10, "*3": 1, "*0": 11, "*4": 2}

>  <role_mapidx>  (3) 
{"*2": 13, "*1": 9, "*3": 0, "*0": 10, "*4": 1}

>  <ordered_mapped_smiles>  (3) 
[C:1]([O:2][NH:3][CH:4]([H:7])[H:8])([H:5])[H:6].[O:9]([N:10]([CH:11]([CH:12]([H:16])[H:17])[H:15])[H:14])[H:13]

>  <mol_properties>  (3) 
{"0": {"label": "*3", "atom_type": "Cs"}, "1": {"label": "*4", "atom_type": "O2s"}, "9": {"label": "*1", "atom_type": "N3s"}, "10": {"label": "*0", "atom_type": "Cs"}, "13": {"label": "*2", "atom_type": "H0"}}

>  <level_of_theory>  (3) 
wb97xd/def2tzvp

>  <lot_method>  (3) 
wb97xd

>  <lot_basis>  (3) 
def2tzvp

>  <spin_multiplicity>  (3) 
2.0

>  <optical_isomers>  (3) 
2.0

>  <modes>  (3) 
IdealGasTranslation(mass=(117.066, 'amu')),         NonlinearRotor(             inertia = ([172.141, 437.364, 557.088

>  <frequency_value>  (3) 
-1961.94

>  <frequency_units>  (3) 
cm^-1

>  <frequency_list>  (3) 
unknown

>  <arkane_path>  (3) 
/home/calvin/Dropbox/PersonalFolders/Calvin/ZEUS_Converged/rmg_rxn_15729/output/rxns/TS0/arkane/output.py

>  <path_exists>  (3) 
True

>  <E0_value>  (3) 
-1096020.0

>  <E0_units>  (3) 
kJ/mol

>  <thermo_class>  (3) 
unknown

>  <Cp0_value>  (3) 
unknown

>  <Cp0_units>  (3) 
unknown

>  <CpInf_value>  (3) 
unknown

>  <CpInf_units>  (3) 
unknown

>  <Tmin_value>  (3) 
unknown

>  <Tmin_units>  (3) 
unknown

>  <Tmax_value>  (3) 
unknown

>  <Tmax_units>  (3) 
unknown

>  <polynomials>  (3) 
unknown

>  <H298_value>  (3) 
unknown

>  <H298_units>  (3) 
unknown

>  <S298_value>  (3) 
unknown

>  <S298_units>  (3) 
unknown

>  <Cp_T_value_list>  (3) 
unknown

>  <Cp_T_units>  (3) 
unknown

>  <T_list>  (3) 
unknown

>  <T_units>  (3) 
unknown

>  <yaml_path>  (3) 
unknown

>  <frequencies_cm1>  (3) 
unknown

>  <ZPE_kJmol>  (3) 
unknown

>  <E_elec_kJmol>  (3) 
unknown

>  <E0_minus_Eelec_plus_ZPE_kJmol>  (3) 
unknown

>  <rxn>  (3) 
unknown

>  <species_type>  (3) 
unknown

>  <species_folder>  (3) 
unknown

>  <frequencies_cm1_list>  (3) 
[]

>  <ts_imag_freq_cm1>  (3) 
-1985.7699

>  <ts_freq_out_path>  (3) 
/home/calvin/Dropbox/PersonalFolders/Calvin/ZEUS_Converged/rmg_rxn_15729/output/rxns/TS0/geometry/freq.out

>  <E0_kJmol>  (3) 
-1.09602e+06

>  <H298_kJmol>  (3) 
unknown

$$$$

     RDKit          3D

  8  7  0  0  0  0  0  0  0  0999 V2000
   -0.5099    1.2819    0.3063 C   0  0  0  0  0  0  0  0  0  1  0  0
   -0.1363    0.0810   -0.2221 C   0  0  0  0  0  0  0  0  0  2  0  0
    0.0687   -0.9688    0.5737 N   0  0  0  0  0  2  0  0  0  3  0  0
    0.4319   -2.0496   -0.1803 O   0  0  0  0  0  0  0  0  0  4  0  0
   -0.6777    2.1365   -0.3324 H   0  0  0  0  0  0  0  0  0  5  0  0
   -0.6433    1.3943    1.3738 H   0  0  0  0  0  0  0  0  0  6  0  0
    0.0019   -0.0482   -1.2935 H   0  0  0  0  0  0  0  0  0  7  0  0
    0.5569   -2.7482    0.4667 H   0  0  0  0  0  0  0  0  0  8  0  0
  1  5  1  0
  1  6  1  0
  1  2  1  0
  2  3  1  0
  2  7  1  0
  3  4  1  0
  4  8  1  0
M  RAD  1   3   2
M  END
>  <rmg_smiles>  (4) 
[CH2][CH][N]O

>  <rmg_adjacency_list>  (4) 
multiplicity 2
1 O u0 p2 c0 {2,S} {8,S}
2 N u1 p1 c0 {1,S} {3,S}
3 C u0 p0 c0 {2,S} {4,S} {5,S}
4 C u0 p0 c0 {3,S} {6,S} {7,S}
5 H u0 p0 c0 {3,S}
6 H u0 p0 c0 {4,S}
7 H u0 p0 c0 {4,S}
8 H u0 p0 c0 {1,S}


>  <multiplicity>  (4) 
2

>  <reaction>  (4) 
rmg_rxn_15729

>  <type>  (4) 
r1

>  <role_mapnums>  (4) 
{}

>  <role_mapidx>  (4) 
{}

>  <ordered_mapped_smiles>  (4) 
[CH:1]([CH:2]([N:3][O:4][H:8])[H:7])([H:5])[H:6]

>  <level_of_theory>  (4) 
wb97xd/def2tzvp

>  <lot_method>  (4) 
wb97xd

>  <lot_basis>  (4) 
def2tzvp

>  <spin_multiplicity>  (4) 
2.0

>  <optical_isomers>  (4) 
1.0

>  <modes>  (4) 
IdealGasTranslation(mass=(58.0293, 'amu')),         NonlinearRotor(             inertia = ([9.7439, 107.457, 117.201

>  <frequency_value>  (4) 
unknown

>  <frequency_units>  (4) 
unknown

>  <frequency_list>  (4) 
unknown

>  <arkane_path>  (4) 
/home/calvin/Dropbox/PersonalFolders/Calvin/ZEUS_Converged/rmg_rxn_15729/output/Species/rmg_rxn_15729_p1_sbr-CH2-sbrC=NO/arkane/output.py

>  <path_exists>  (4) 
True

>  <E0_value>  (4) 
-547267.0535374497

>  <E0_units>  (4) 
kJ/mol

>  <thermo_class>  (4) 
NASA

>  <Cp0_value>  (4) 
33.257888

>  <Cp0_units>  (4) 
J/(mol*K)

>  <CpInf_value>  (4) 
182.918384

>  <CpInf_units>  (4) 
J/(mol*K)

>  <Tmin_value>  (4) 
10.0

>  <Tmin_units>  (4) 
K

>  <Tmax_value>  (4) 
3000.0

>  <Tmax_units>  (4) 
K

>  <polynomials>  (4) 
[{"name": "polynomial1", "class": "NASAPolynomial", "Tmin_value": 10.0, "Tmin_units": "K", "Tmax_value": 561.8125111902724, "Tmax_units": "K", "coeffs": [3.9491705278934233, 0.002964522841885397, 7.827496700020108e-05, -1.444346632632993e-07, 8.207271933103846e-11, -65821020.533206716, 8.437756594402968]}, {"name": "polynomial2", "class": "NASAPolynomial", "Tmin_value": 561.8125111902724, "Tmin_units": "K", "Tmax_value": 3000.0, "Tmax_units": "K", "coeffs": [2.0663254979189025, 0.027693929183602542, -1.7984837240747508e-05, 5.667402843419192e-09, -6.856867945995076e-13, -65820987.68205264, 14.845293892310655]}]

>  <H298_value>  (4) 
-130796.47676834262

>  <H298_units>  (4) 
kcal/mol

>  <S298_value>  (4) 
67.92920834676084

>  <S298_units>  (4) 
cal/(mol*K)

>  <Cp_T_value_list>  (4) 
[17.186012687925327, 20.897895882225196, 23.996285062290188, 26.5161619833379, 30.46790165156667, 33.29988460790833, 37.35457517025081, 39.51176384836804, 40.80893039296876]

>  <Cp_T_units>  (4) 
cal/(mol*K)

>  <T_list>  (4) 
[300.0, 400.0, 500.0, 600.0, 800.0, 1000.0, 1500.0, 2000.0, 2400.0]

>  <T_units>  (4) 
K

>  <yaml_path>  (4) 
/home/calvin/Dropbox/PersonalFolders/Calvin/ZEUS_Converged/rmg_rxn_15729/output/Species/rmg_rxn_15729_p1_sbr-CH2-sbrC=NO/rmg_rxn_15729_p1_sbr-CH2-sbrC=NO.yml

>  <frequencies_cm1>  (4) 
[238.61400589936, 343.60334445684, 476.32156973647994, 578.0696912229199, 618.3376931394, 832.2923547546399, 937.81045118176, 983.2424260588798, 1116.6679508264801, 1143.181381147, 1266.5124374941997, 1406.4066624332402, 1429.65140774144, 1536.33002468764, 3111.8087326846003, 3143.0878508172, 3245.7080794392796, 3824.5674739739998]

>  <ZPE_kJmol>  (4) 
156.9035257994234

>  <E_elec_kJmol>  (4) 
-547423.9570632491

>  <E0_minus_Eelec_plus_ZPE_kJmol>  (4) 
0.0

>  <rxn>  (4) 
rmg_rxn_15729

>  <species_type>  (4) 
p0

>  <species_folder>  (4) 
rmg_rxn_15729_p1_sbr-CH2-sbrC=NO

>  <frequencies_cm1_list>  (4) 
[238.61400589936, 343.60334445684, 476.32156973647994, 578.0696912229199, 618.3376931394, 832.2923547546399, 937.81045118176, 983.2424260588798, 1116.6679508264801, 1143.181381147, 1266.5124374941997, 1406.4066624332402, 1429.65140774144, 1536.33002468764, 3111.8087326846003, 3143.0878508172, 3245.7080794392796, 3824.5674739739998]

>  <E0_kJmol>  (4) 
-547267

>  <H298_kJmol>  (4) 
-547252

$$$$

     RDKit          3D

  8  7  0  0  0  0  0  0  0  0999 V2000
    1.7077   -0.1964   -0.0607 C   0  0  0  0  0  3  0  0  0  1  0  0
    0.4209   -0.4565    0.2808 O   0  0  0  0  0  0  0  0  0  2  0  0
   -0.4607    0.4385   -0.2968 N   0  0  0  0  0  0  0  0  0  3  0  0
   -1.6584    0.1416   -0.0244 C   0  0  0  0  0  0  0  0  0  4  0  0
    2.4163   -0.7685    0.5170 H   0  0  0  0  0  0  0  0  0  5  0  0
    1.9214    0.7645   -0.5045 H   0  0  0  0  0  0  0  0  0  6  0  0
   -2.4185    0.7953   -0.4307 H   0  0  0  0  0  0  0  0  0  7  0  0
   -1.9286   -0.7185    0.5831 H   0  0  0  0  0  0  0  0  0  8  0  0
  1  6  1  0
  1  5  1  0
  1  2  1  0
  2  3  1  0
  3  4  1  0
  4  8  1  0
  4  7  1  0
M  RAD  1   1   2
M  END
>  <rmg_smiles>  (5) 
[CH2]O[N][CH2]

>  <rmg_adjacency_list>  (5) 
multiplicity 2
1 O u0 p2 c0 {2,S} {3,S}
2 N u0 p1 c0 {1,S} {4,S}
3 C u1 p0 c0 {1,S} {5,S} {6,S}
4 C u0 p0 c0 {2,S} {7,S} {8,S}
5 H u0 p0 c0 {3,S}
6 H u0 p0 c0 {3,S}
7 H u0 p0 c0 {4,S}
8 H u0 p0 c0 {4,S}


>  <multiplicity>  (5) 
2

>  <reaction>  (5) 
rmg_rxn_15729

>  <type>  (5) 
r2

>  <role_mapnums>  (5) 
{}

>  <role_mapidx>  (5) 
{}

>  <ordered_mapped_smiles>  (5) 
[C:1]([O:2][NH:3][CH:4]([H:7])[H:8])([H:5])[H:6]

>  <level_of_theory>  (5) 
wb97xd/def2tzvp

>  <lot_method>  (5) 
wb97xd

>  <lot_basis>  (5) 
def2tzvp

>  <spin_multiplicity>  (5) 
2.0

>  <optical_isomers>  (5) 
2.0

>  <modes>  (5) 
IdealGasTranslation(mass=(58.0293, 'amu')),         NonlinearRotor(             inertia = ([10.2741, 95.4529, 105.582

>  <frequency_value>  (5) 
unknown

>  <frequency_units>  (5) 
unknown

>  <frequency_list>  (5) 
unknown

>  <arkane_path>  (5) 
/home/calvin/Dropbox/PersonalFolders/Calvin/ZEUS_Converged/rmg_rxn_15729/output/Species/rmg_rxn_15729_r1_sbr-CH2-sbrON=C/arkane/output.py

>  <path_exists>  (5) 
True

>  <E0_value>  (5) 
-547168.2732446302

>  <E0_units>  (5) 
kJ/mol

>  <thermo_class>  (5) 
NASA

>  <Cp0_value>  (5) 
33.257888

>  <Cp0_units>  (5) 
J/(mol*K)

>  <CpInf_value>  (5) 
182.918384

>  <CpInf_units>  (5) 
J/(mol*K)

>  <Tmin_value>  (5) 
10.0

>  <Tmin_units>  (5) 
K

>  <Tmax_value>  (5) 
3000.0

>  <Tmax_units>  (5) 
K

>  <polynomials>  (5) 
[{"name": "polynomial1", "class": "NASAPolynomial", "Tmin_value": 10.0, "Tmin_units": "K", "Tmax_value": 253.2842427910515, "Tmax_units": "K", "coeffs": [3.956862909385456, 0.0038362890131335746, 0.00011727738047703725, -3.4736244039427427e-07, 3.472729073035136e-10, -65809144.38694886, 9.350338763280796]}, {"name": "polynomial2", "class": "NASAPolynomial", "Tmin_value": 253.2842427910515, "Tmin_units": "K", "Tmax_value": 3000.0, "Tmax_units": "K", "coeffs": [2.5252197328965313, 0.026445761179553072, -1.662161754135038e-05, 5.074735532607581e-09, -5.97403912324656e-13, -65809071.86505469, 14.291183066674913]}]

>  <H298_value>  (5) 
-130772.65860702786

>  <H298_units>  (5) 
kcal/mol

>  <S298_value>  (5) 
71.26914844977757

>  <S298_units>  (5) 
cal/(mol*K)

>  <Cp_T_value_list>  (5) 
[18.0740035969719, 21.369534269323825, 24.223451351766553, 26.683440747612977, 30.598134113509214, 33.438117676478754, 37.554421513360474, 39.68390492467901, 40.91110806828642]

>  <Cp_T_units>  (5) 
cal/(mol*K)

>  <T_list>  (5) 
[300.0, 400.0, 500.0, 600.0, 800.0, 1000.0, 1500.0, 2000.0, 2400.0]

>  <T_units>  (5) 
K

>  <yaml_path>  (5) 
/home/calvin/Dropbox/PersonalFolders/Calvin/ZEUS_Converged/rmg_rxn_15729/output/Species/rmg_rxn_15729_r1_sbr-CH2-sbrON=C/rmg_rxn_15729_r1_sbr-CH2-sbrON=C.yml

>  <frequencies_cm1>  (5) 
[132.13453152744, 273.14807507364, 360.4549264321199, 498.69420790903996, 595.9169860696, 789.3942974605999, 873.74834513148, 993.5360370535599, 1152.01232426852, 1206.54305469464, 1257.0497317232398, 1417.2771001948001, 1437.260027476, 1705.2166616477198, 3090.5210781926, 3134.7719315946797, 3218.94057066192, 3282.16490450316]

>  <ZPE_kJmol>  (5) 
152.0381400376291

>  <E_elec_kJmol>  (5) 
-547320.3113846679

>  <E0_minus_Eelec_plus_ZPE_kJmol>  (5) 
0.0

>  <rxn>  (5) 
rmg_rxn_15729

>  <species_type>  (5) 
r0

>  <species_folder>  (5) 
rmg_rxn_15729_r1_sbr-CH2-sbrON=C

>  <frequencies_cm1_list>  (5) 
[132.13453152744, 273.14807507364, 360.4549264321199, 498.69420790903996, 595.9169860696, 789.3942974605999, 873.74834513148, 993.5360370535599, 1152.01232426852, 1206.54305469464, 1257.0497317232398, 1417.2771001948001, 1437.260027476, 1705.2166616477198, 3090.5210781926, 3134.7719315946797, 3218.94057066192, 3282.16490450316]

>  <E0_kJmol>  (5) 
-547168

>  <H298_kJmol>  (5) 
-547153

$$$$
