
     RDKit          3D

  9  9  0  0  0  0  0  0  0  0999 V2000
    0.8755   -0.1321    1.0250 O   0  0  0  0  0  0  0  0  0  1  0  0
    0.0759   -0.5266   -0.0168 N   0  0  0  0  0  0  0  0  0  2  0  0
   -0.0024    0.4519   -1.0856 C   0  0  0  0  0  0  0  0  0  3  0  0
   -1.1388    0.2569   -0.1379 C   0  0  0  0  0  0  0  0  0  4  0  0
    1.2883   -0.9453    1.3246 H   0  0  0  0  0  0  0  0  0  5  0  0
   -0.0426    0.0499   -2.0902 H   0  0  0  0  0  0  0  0  0  6  0  0
    0.5913    1.3477   -0.9524 H   0  0  0  0  0  0  0  0  0  7  0  0
   -1.2833    1.0260    0.6105 H   0  0  0  0  0  0  0  0  0  8  0  0
   -2.0241   -0.2899   -0.4379 H   0  0  0  0  0  0  0  0  0  9  0  0
  1  5  1  0
  1  2  1  0
  2  3  1  0
  2  4  1  0
  3  4  1  0
  3  6  1  0
  3  7  1  0
  4  8  1  0
  4  9  1  0
M  END
>  <rmg_smiles>  (1) 
ON1CC1

>  <rmg_adjacency_list>  (1) 
1 O u0 p2 c0 {2,S} {9,S}
2 N u0 p1 c0 {1,S} {3,S} {4,S}
3 C u0 p0 c0 {2,S} {4,S} {5,S} {6,S}
4 C u0 p0 c0 {2,S} {3,S} {7,S} {8,S}
5 H u0 p0 c0 {3,S}
6 H u0 p0 c0 {3,S}
7 H u0 p0 c0 {4,S}
8 H u0 p0 c0 {4,S}
9 H u0 p0 c0 {1,S}


>  <multiplicity>  (1) 
1

>  <reaction>  (1) 
rmg_rxn_3041

>  <type>  (1) 
r1h

>  <role_mapnums>  (1) 
{"r1h_a": 1, "r1h_h": 5}

>  <role_mapidx>  (1) 
{"r1h_a": 0, "r1h_h": 4}

>  <ordered_mapped_smiles>  (1) 
[O:1]([N:2]1[C:3]([H:6])([H:7])[C:4]1([H:8])[H:9])[H:5]

>  <mol_properties>  (1) 
{"0": {"label": "donator", "atom_type": "O2s"}, "4": {"label": "d_hydrogen", "atom_type": "H0"}}

>  <level_of_theory>  (1) 
wb97xd/def2tzvp

>  <lot_method>  (1) 
wb97xd

>  <lot_basis>  (1) 
def2tzvp

>  <spin_multiplicity>  (1) 
1.0

>  <optical_isomers>  (1) 
1.0

>  <modes>  (1) 
IdealGasTranslation(mass=(59.0371, 'amu')),         NonlinearRotor(             inertia = ([28.1872, 66.5407, 77.6102

>  <frequency_value>  (1) 
unknown

>  <frequency_units>  (1) 
unknown

>  <frequency_list>  (1) 
unknown

>  <arkane_path>  (1) 
/home/calvin/Dropbox/PersonalFolders/Calvin/ATLAS_Converged/rmg_rxn_3041/output/Species/rmg_rxn_3041_r1_ON1CC1/arkane/output.py

>  <path_exists>  (1) 
True

>  <E0_value>  (1) 
-548830.9755880404

>  <E0_units>  (1) 
kJ/mol

>  <thermo_class>  (1) 
NASA

>  <Cp0_value>  (1) 
33.257888

>  <Cp0_units>  (1) 
J/(mol*K)

>  <CpInf_value>  (1) 
207.8618

>  <CpInf_units>  (1) 
J/(mol*K)

>  <Tmin_value>  (1) 
10.0

>  <Tmin_units>  (1) 
K

>  <Tmax_value>  (1) 
3000.0

>  <Tmax_units>  (1) 
K

>  <polynomials>  (1) 
[{"name": "polynomial1", "class": "NASAPolynomial", "Tmin_value": 10.0, "Tmin_units": "K", "Tmax_value": 587.2199948559334, "Tmax_units": "K", "coeffs": [4.01290829659194, -0.0016502474955422339, 9.708642231333483e-05, -1.6094228553485929e-07, 8.484346380941685e-11, -66009118.08554968, 8.391880568105824]}, {"name": "polynomial2", "class": "NASAPolynomial", "Tmin_value": 587.2199948559334, "Tmin_units": "K", "Tmax_value": 3000.0, "Tmax_units": "K", "coeffs": [0.7337841600207903, 0.03241844705827431, -1.990752940299833e-05, 5.903220459412223e-09, -6.732998606532043e-13, -66008935.2494822, 20.743767898900355]}]

>  <H298_value>  (1) 
-131170.36722140852

>  <H298_units>  (1) 
kcal/mol

>  <S298_value>  (1) 
67.20815903717752

>  <S298_units>  (1) 
cal/(mol*K)

>  <Cp_T_value_list>  (1) 
[17.084813947658525, 21.379009937156017, 25.126876739126274, 28.23021137141331, 33.135452712013276, 36.71288976391953, 41.89886219457449, 44.500561578088046, 45.980647572639626]

>  <Cp_T_units>  (1) 
cal/(mol*K)

>  <T_list>  (1) 
[300.0, 400.0, 500.0, 600.0, 800.0, 1000.0, 1500.0, 2000.0, 2400.0]

>  <T_units>  (1) 
K

>  <yaml_path>  (1) 
/home/calvin/Dropbox/PersonalFolders/Calvin/ATLAS_Converged/rmg_rxn_3041/output/Species/rmg_rxn_3041_r1_ON1CC1/rmg_rxn_3041_r1_ON1CC1.yml

>  <frequencies_cm1>  (1) 
[133.13711138415997, 422.03805078188, 447.52830028972, 737.70649895696, 837.0649095520399, 880.14837544972, 977.55656221392, 1021.37479554084, 1108.8807894735999, 1123.8508174712, 1174.6390408979198, 1175.03732604648, 1241.8668271807198, 1382.8803707269199, 1458.29360351116, 1496.32296821332, 3107.7915462724, 3111.1083001819597, 3196.87694682876, 3210.06155864316, 3845.8619954513197]

>  <ZPE_kJmol>  (1) 
191.94103937201209

>  <E_elec_kJmol>  (1) 
-549022.9166274124

>  <E0_minus_Eelec_plus_ZPE_kJmol>  (1) 
0.0

>  <rxn>  (1) 
rmg_rxn_3041

>  <species_type>  (1) 
r0

>  <species_folder>  (1) 
rmg_rxn_3041_r1_ON1CC1

>  <frequencies_cm1_list>  (1) 
[133.13711138415997, 422.03805078188, 447.52830028972, 737.70649895696, 837.0649095520399, 880.14837544972, 977.55656221392, 1021.37479554084, 1108.8807894735999, 1123.8508174712, 1174.6390408979198, 1175.03732604648, 1241.8668271807198, 1382.8803707269199, 1458.29360351116, 1496.32296821332, 3107.7915462724, 3111.1083001819597, 3196.87694682876, 3210.06155864316, 3845.8619954513197]

>  <E0_kJmol>  (1) 
-548831

>  <H298_kJmol>  (1) 
-548817

$$$$

     RDKit          3D

 14 13  0  0  0  0  0  0  0  0999 V2000
   -0.6446    1.2001    0.4452 H   0  0  0  0  0  0  0  0  0  1  0  0
   -1.4771   -0.5464    1.1592 C   0  0  0  0  0  0  0  0  0  2  0  0
   -0.2720    0.1945    0.6538 C   0  0  0  0  0  0  0  0  0  3  0  0
    0.2917   -0.2577   -0.6653 C   0  0  0  0  0  0  0  0  0  4  0  0
    1.4736    0.5765   -1.1397 C   0  0  0  0  0  0  0  0  0  5  0  0
   -1.2357   -1.5993    1.3456 H   0  0  0  0  0  0  0  0  0  6  0  0
   -2.2793   -0.5182    0.4180 H   0  0  0  0  0  0  0  0  0  7  0  0
   -1.8522   -0.1187    2.0892 H   0  0  0  0  0  0  0  0  0  8  0  0
    0.4865    0.3957    1.4138 H   0  0  0  0  0  0  0  0  0  9  0  0
   -0.5095   -0.2297   -1.4110 H   0  0  0  0  0  0  0  0  0 10  0  0
    0.5883   -1.3118   -0.5771 H   0  0  0  0  0  0  0  0  0 11  0  0
    2.2964    0.5370   -0.4221 H   0  0  0  0  0  0  0  0  0 12  0  0
    1.8493    0.2192   -2.0996 H   0  0  0  0  0  0  0  0  0 13  0  0
    1.1809    1.6215   -1.2556 H   0  0  0  0  0  0  0  0  0 14  0  0
  1  3  1  0
  2  7  1  0
  2  8  1  0
  2  6  1  0
  2  3  1  0
  3  4  1  0
  3  9  1  0
  4  5  1  0
  4 10  1  0
  4 11  1  0
  5 12  1  0
  5 14  1  0
  5 13  1  0
M  END
>  <rmg_smiles>  (2) 
CCCC

>  <rmg_adjacency_list>  (2) 
1  C u0 p0 c0 {2,S} {3,S} {5,S} {6,S}
2  C u0 p0 c0 {1,S} {4,S} {7,S} {8,S}
3  C u0 p0 c0 {1,S} {9,S} {10,S} {11,S}
4  C u0 p0 c0 {2,S} {12,S} {13,S} {14,S}
5  H u0 p0 c0 {1,S}
6  H u0 p0 c0 {1,S}
7  H u0 p0 c0 {2,S}
8  H u0 p0 c0 {2,S}
9  H u0 p0 c0 {3,S}
10 H u0 p0 c0 {3,S}
11 H u0 p0 c0 {3,S}
12 H u0 p0 c0 {4,S}
13 H u0 p0 c0 {4,S}
14 H u0 p0 c0 {4,S}


>  <multiplicity>  (2) 
1

>  <reaction>  (2) 
rmg_rxn_3041

>  <type>  (2) 
r2h

>  <role_mapnums>  (2) 
{"r2h_a": 3, "r2h_h": 1}

>  <role_mapidx>  (2) 
{"r2h_a": 2, "r2h_h": 0}

>  <ordered_mapped_smiles>  (2) 
[H:1][C:3]([C:2]([H:6])([H:7])[H:8])([C:4]([C:5]([H:12])([H:13])[H:14])([H:10])[H:11])[H:9]

>  <mol_properties>  (2) 
{"0": {"label": "a_hydrogen", "atom_type": "H0"}, "2": {"label": "acceptor", "atom_type": "Cs"}}

>  <level_of_theory>  (2) 
wb97xd/def2tzvp

>  <lot_method>  (2) 
wb97xd

>  <lot_basis>  (2) 
def2tzvp

>  <spin_multiplicity>  (2) 
1.0

>  <optical_isomers>  (2) 
1.0

>  <modes>  (2) 
IdealGasTranslation(mass=(58.0782, 'amu')),         NonlinearRotor(             inertia = ([21.4183, 138.436, 147.416

>  <frequency_value>  (2) 
unknown

>  <frequency_units>  (2) 
unknown

>  <frequency_list>  (2) 
unknown

>  <arkane_path>  (2) 
/home/calvin/Dropbox/PersonalFolders/Calvin/ATLAS_Converged/rmg_rxn_3041/output/Species/rmg_rxn_3041_p2_CCCC/arkane/output.py

>  <path_exists>  (2) 
True

>  <E0_value>  (2) 
-415711.4770347972

>  <E0_units>  (2) 
kJ/mol

>  <thermo_class>  (2) 
NASA

>  <Cp0_value>  (2) 
33.257888

>  <Cp0_units>  (2) 
J/(mol*K)

>  <CpInf_value>  (2) 
332.57888

>  <CpInf_units>  (2) 
J/(mol*K)

>  <Tmin_value>  (2) 
10.0

>  <Tmin_units>  (2) 
K

>  <Tmax_value>  (2) 
3000.0

>  <Tmax_units>  (2) 
K

>  <polynomials>  (2) 
[{"name": "polynomial1", "class": "NASAPolynomial", "Tmin_value": 10.0, "Tmin_units": "K", "Tmax_value": 1025.0239672813746, "Tmax_units": "K", "coeffs": [3.915013592071844, 0.015190476507378274, 4.499566831623061e-05, -5.4452087887537436e-08, 1.803189229500368e-11, -49998546.31449076, 7.728184054699678]}, {"name": "polynomial2", "class": "NASAPolynomial", "Tmin_value": 1025.0239672813746, "Tmin_units": "K", "Tmax_value": 3000.0, "Tmax_units": "K", "coeffs": [0.8557434606866323, 0.04413202068529884, -2.2238982520549216e-05, 5.4598853249734095e-09, -5.274578153178241e-13, -49998812.39100051, 18.205832942846666]}]

>  <H298_value>  (2) 
-99353.185245995

>  <H298_units>  (2) 
kcal/mol

>  <S298_value>  (2) 
71.76251802442486

>  <S298_units>  (2) 
cal/(mol*K)

>  <Cp_T_value_list>  (2) 
[22.251980571284225, 28.1531399049666, 33.94079391323614, 39.35269474865459, 48.430242634303475, 55.007789274879656, 65.12656285712895, 70.35428852741721, 72.83851882766015]

>  <Cp_T_units>  (2) 
cal/(mol*K)

>  <T_list>  (2) 
[300.0, 400.0, 500.0, 600.0, 800.0, 1000.0, 1500.0, 2000.0, 2400.0]

>  <T_units>  (2) 
K

>  <yaml_path>  (2) 
/home/calvin/Dropbox/PersonalFolders/Calvin/ATLAS_Converged/rmg_rxn_3041/output/Species/rmg_rxn_3041_p2_CCCC/rmg_rxn_3041_p2_CCCC.yml

>  <frequencies_cm1>  (2) 
[117.85806904715999, 224.50921805207997, 259.37290252171994, 260.8081024536, 427.68957970024, 733.9639919575599, 810.5171443049198, 844.8383369342799, 959.6886664112799, 978.69648177704, 1024.40313606696, 1072.73297874912, 1166.6664709414, 1201.7086970293599, 1282.4438434365998, 1315.46030885516, 1324.99168447932, 1392.23320473276, 1403.41265683372, 1404.42210367576, 1477.30828586224, 1478.9082934418, 1485.02677736192, 1486.84652847172, 1491.0285225316, 1497.33241505536, 2994.3077468740794, 3001.82022881416, 3007.36875295272, 3008.254594059, 3019.68125763148, 3041.7654824206, 3075.78452769588, 3079.10128160544, 3084.83521434764, 3085.5356468502796]

>  <ZPE_kJmol>  (2) 
344.05401570070524

>  <E_elec_kJmol>  (2) 
-416055.5310504979

>  <E0_minus_Eelec_plus_ZPE_kJmol>  (2) 
0.0

>  <rxn>  (2) 
rmg_rxn_3041

>  <species_type>  (2) 
p1

>  <species_folder>  (2) 
rmg_rxn_3041_p2_CCCC

>  <frequencies_cm1_list>  (2) 
[117.85806904715999, 224.50921805207997, 259.37290252171994, 260.8081024536, 427.68957970024, 733.9639919575599, 810.5171443049198, 844.8383369342799, 959.6886664112799, 978.69648177704, 1024.40313606696, 1072.73297874912, 1166.6664709414, 1201.7086970293599, 1282.4438434365998, 1315.46030885516, 1324.99168447932, 1392.23320473276, 1403.41265683372, 1404.42210367576, 1477.30828586224, 1478.9082934418, 1485.02677736192, 1486.84652847172, 1491.0285225316, 1497.33241505536, 2994.3077468740794, 3001.82022881416, 3007.36875295272, 3008.254594059, 3019.68125763148, 3041.7654824206, 3075.78452769588, 3079.10128160544, 3084.83521434764, 3085.5356468502796]

>  <E0_kJmol>  (2) 
-415711

>  <H298_kJmol>  (2) 
-415694

$$$$

     RDKit          3D

 22 21  0  0  0  0  0  0  0  0999 V2000
   -0.1632    1.1228    0.5497 O   0  0  0  0  0  0  0  0  0  1  0  0
   -0.9628    0.7283   -0.4921 N   0  0  0  0  0  0  0  0  0  2  0  0
   -1.0411    1.7067   -1.5608 C   0  0  0  0  0  0  0  0  0  3  0  0
   -2.1776    1.5117   -0.6132 C   0  0  0  0  0  0  0  0  0  4  0  0
    0.3588    0.0942    0.9287 H   0  0  0  0  0  0  0  0  0  5  0  0
   -1.0813    1.3047   -2.5655 H   0  0  0  0  0  0  0  0  0  6  0  0
   -0.4474    2.6025   -1.4277 H   0  0  0  0  0  0  0  0  0  7  0  0
   -2.3220    2.2809    0.1353 H   0  0  0  0  0  0  0  0  0  8  0  0
   -3.0628    0.9650   -0.9132 H   0  0  0  0  0  0  0  0  0  9  0  0
   -0.4003   -1.8501    1.6837 C   0  0  0  0  0  0  0  0  0 10  0  0
    0.8047   -1.1092    1.1782 C   0  0  0  0  0  3  0  0  0 11  0  0
    1.3684   -1.5614   -0.1408 C   0  0  0  0  0  0  0  0  0 12  0  0
    2.5504   -0.7273   -0.6153 C   0  0  0  0  0  0  0  0  0 13  0  0
   -0.1590   -2.9030    1.8701 H   0  0  0  0  0  0  0  0  0 14  0  0
   -1.2025   -1.8219    0.9425 H   0  0  0  0  0  0  0  0  0 15  0  0
   -0.7755   -1.4224    2.6137 H   0  0  0  0  0  0  0  0  0 16  0  0
    1.5632   -0.9080    1.9383 H   0  0  0  0  0  0  0  0  0 17  0  0
    0.5673   -1.5334   -0.8865 H   0  0  0  0  0  0  0  0  0 18  0  0
    1.6651   -2.6155   -0.0526 H   0  0  0  0  0  0  0  0  0 19  0  0
    3.3732   -0.7667    0.1024 H   0  0  0  0  0  0  0  0  0 20  0  0
    2.9260   -1.0845   -1.5751 H   0  0  0  0  0  0  0  0  0 21  0  0
    2.2576    0.3178   -0.7311 H   0  0  0  0  0  0  0  0  0 22  0  0
  1  2  1  0
  1  5  1  0
  2  4  1  0
  2  3  1  0
  3  4  1  0
  3  6  1  0
  3  7  1  0
  4  9  1  0
  4  8  1  0
 10 16  1  0
 10 15  1  0
 10 11  1  0
 10 14  1  0
 11 17  1  0
 11 12  1  0
 12 19  1  0
 12 18  1  0
 12 13  1  0
 13 21  1  0
 13 20  1  0
 13 22  1  0
M  RAD  1  11   2
M  END
>  <rmg_smiles>  (3) 
ON1CC1.CC[CH]C

>  <rmg_adjacency_list>  (3) 
multiplicity 2
1  O u0 p2 c0 {2,S} {22,S}
2  N u0 p1 c0 {1,S} {3,S} {4,S}
3  C u0 p0 c0 {2,S} {4,S} {9,S} {10,S}
4  C u0 p0 c0 {2,S} {3,S} {11,S} {12,S}
5  C u0 p0 c0 {6,S} {8,S} {13,S} {14,S}
6  C u0 p0 c0 {5,S} {15,S} {16,S} {17,S}
7  C u0 p0 c0 {8,S} {18,S} {19,S} {20,S}
8  C u1 p0 c0 {5,S} {7,S} {21,S}
9  H u0 p0 c0 {3,S}
10 H u0 p0 c0 {3,S}
11 H u0 p0 c0 {4,S}
12 H u0 p0 c0 {4,S}
13 H u0 p0 c0 {5,S}
14 H u0 p0 c0 {5,S}
15 H u0 p0 c0 {6,S}
16 H u0 p0 c0 {6,S}
17 H u0 p0 c0 {6,S}
18 H u0 p0 c0 {7,S}
19 H u0 p0 c0 {7,S}
20 H u0 p0 c0 {7,S}
21 H u0 p0 c0 {8,S}
22 H u0 p0 c0 {1,S}


>  <multiplicity>  (3) 
2

>  <reaction>  (3) 
rmg_rxn_3041

>  <type>  (3) 
ts

>  <role_mapnums>  (3) 
{"*2": 5, "*1": 1, "*3": 11, "*0": 2, "*4": 12}

>  <role_mapidx>  (3) 
{"*2": 4, "*1": 0, "*3": 10, "*0": 1, "*4": 11}

>  <ordered_mapped_smiles>  (3) 
[O:1]([N:2]1[C:3]([H:6])([H:7])[C:4]1([H:8])[H:9])[H:5].[C:10]([C:11]([C:12]([C:13]([H:20])([H:21])[H:22])([H:18])[H:19])[H:17])([H:14])([H:15])[H:16]

>  <mol_properties>  (3) 
{"0": {"label": "*1", "atom_type": "O2s"}, "1": {"label": "*0", "atom_type": "N3s"}, "4": {"label": "*2", "atom_type": "H0"}, "10": {"label": "*3", "atom_type": "Cs"}, "11": {"label": "*4", "atom_type": "Cs"}}

>  <level_of_theory>  (3) 
wb97xd/def2tzvp

>  <lot_method>  (3) 
wb97xd

>  <lot_basis>  (3) 
def2tzvp

>  <spin_multiplicity>  (3) 
2.0

>  <optical_isomers>  (3) 
2.0

>  <modes>  (3) 
IdealGasTranslation(mass=(116.108, 'amu')),         NonlinearRotor(             inertia = ([189.443, 440.567, 553.113

>  <frequency_value>  (3) 
-1930.94

>  <frequency_units>  (3) 
cm^-1

>  <frequency_list>  (3) 
unknown

>  <arkane_path>  (3) 
/home/calvin/Dropbox/PersonalFolders/Calvin/ATLAS_Converged/rmg_rxn_3041/output/rxns/TS0/arkane/output.py

>  <path_exists>  (3) 
True

>  <E0_value>  (3) 
-962805.0

>  <E0_units>  (3) 
kJ/mol

>  <thermo_class>  (3) 
unknown

>  <Cp0_value>  (3) 
unknown

>  <Cp0_units>  (3) 
unknown

>  <CpInf_value>  (3) 
unknown

>  <CpInf_units>  (3) 
unknown

>  <Tmin_value>  (3) 
unknown

>  <Tmin_units>  (3) 
unknown

>  <Tmax_value>  (3) 
unknown

>  <Tmax_units>  (3) 
unknown

>  <polynomials>  (3) 
unknown

>  <H298_value>  (3) 
unknown

>  <H298_units>  (3) 
unknown

>  <S298_value>  (3) 
unknown

>  <S298_units>  (3) 
unknown

>  <Cp_T_value_list>  (3) 
unknown

>  <Cp_T_units>  (3) 
unknown

>  <T_list>  (3) 
unknown

>  <T_units>  (3) 
unknown

>  <yaml_path>  (3) 
unknown

>  <frequencies_cm1>  (3) 
unknown

>  <ZPE_kJmol>  (3) 
unknown

>  <E_elec_kJmol>  (3) 
unknown

>  <E0_minus_Eelec_plus_ZPE_kJmol>  (3) 
unknown

>  <rxn>  (3) 
unknown

>  <species_type>  (3) 
unknown

>  <species_folder>  (3) 
unknown

>  <frequencies_cm1_list>  (3) 
[]

>  <ts_imag_freq_cm1>  (3) 
-1954.3877

>  <ts_freq_out_path>  (3) 
/home/calvin/Dropbox/PersonalFolders/Calvin/ATLAS_Converged/rmg_rxn_3041/output/rxns/TS0/geometry/freq.out

>  <E0_kJmol>  (3) 
-962805

>  <H298_kJmol>  (3) 
unknown

$$$$

     RDKit          3D

  8  8  0  0  0  0  0  0  0  0999 V2000
    0.0257    1.9818    0.0485 O   0  0  0  0  0  1  0  0  0  1  0  0
    0.0179    0.8208   -0.4484 N   0  0  0  0  0  0  0  0  0  2  0  0
    0.7557   -0.3258    0.0134 C   0  0  0  0  0  0  0  0  0  3  0  0
   -0.7642   -0.3055   -0.0101 C   0  0  0  0  0  0  0  0  0  4  0  0
    1.2844   -0.9009   -0.7365 H   0  0  0  0  0  0  0  0  0  5  0  0
    1.2442   -0.2188    0.9742 H   0  0  0  0  0  0  0  0  0  6  0  0
   -1.2791   -0.1851    0.9352 H   0  0  0  0  0  0  0  0  0  7  0  0
   -1.2846   -0.8666   -0.7762 H   0  0  0  0  0  0  0  0  0  8  0  0
  1  2  1  0
  2  3  1  0
  2  4  1  0
  3  4  1  0
  3  6  1  0
  3  5  1  0
  4  8  1  0
  4  7  1  0
M  RAD  1   1   2
M  END
>  <rmg_smiles>  (4) 
[O]N1CC1

>  <rmg_adjacency_list>  (4) 
multiplicity 2
1 O u1 p2 c0 {2,S}
2 N u0 p1 c0 {1,S} {3,S} {4,S}
3 C u0 p0 c0 {2,S} {4,S} {5,S} {6,S}
4 C u0 p0 c0 {2,S} {3,S} {7,S} {8,S}
5 H u0 p0 c0 {3,S}
6 H u0 p0 c0 {3,S}
7 H u0 p0 c0 {4,S}
8 H u0 p0 c0 {4,S}


>  <multiplicity>  (4) 
2

>  <reaction>  (4) 
rmg_rxn_3041

>  <type>  (4) 
r1

>  <role_mapnums>  (4) 
{}

>  <role_mapidx>  (4) 
{}

>  <ordered_mapped_smiles>  (4) 
[O:1][N:2]1[C:3]([H:5])([H:6])[C:4]1([H:7])[H:8]

>  <level_of_theory>  (4) 
wb97xd/def2tzvp

>  <lot_method>  (4) 
wb97xd

>  <lot_basis>  (4) 
def2tzvp

>  <spin_multiplicity>  (4) 
2.0

>  <optical_isomers>  (4) 
1.0

>  <modes>  (4) 
IdealGasTranslation(mass=(58.0293, 'amu')),         NonlinearRotor(             inertia = ([25.8055, 62.4608, 77.4626

>  <frequency_value>  (4) 
unknown

>  <frequency_units>  (4) 
unknown

>  <frequency_list>  (4) 
unknown

>  <arkane_path>  (4) 
/home/calvin/Dropbox/PersonalFolders/Calvin/ATLAS_Converged/rmg_rxn_3041/output/Species/rmg_rxn_3041_p1_sbr-O-sbrN1CC1/arkane/output.py

>  <path_exists>  (4) 
True

>  <E0_value>  (4) 
-547181.0539800306

>  <E0_units>  (4) 
kJ/mol

>  <thermo_class>  (4) 
NASA

>  <Cp0_value>  (4) 
33.257888

>  <Cp0_units>  (4) 
J/(mol*K)

>  <CpInf_value>  (4) 
182.918384

>  <CpInf_units>  (4) 
J/(mol*K)

>  <Tmin_value>  (4) 
10.0

>  <Tmin_units>  (4) 
K

>  <Tmax_value>  (4) 
3000.0

>  <Tmax_units>  (4) 
K

>  <polynomials>  (4) 
[{"name": "polynomial1", "class": "NASAPolynomial", "Tmin_value": 10.0, "Tmin_units": "K", "Tmax_value": 624.7357386490204, "Tmax_units": "K", "coeffs": [4.1105451907420125, -0.009033090615102013, 0.00011173695653622377, -1.734104128021453e-07, 8.700249676344132e-11, -65810679.90864667, 8.7112352700631]}, {"name": "polynomial2", "class": "NASAPolynomial", "Tmin_value": 624.7357386490204, "Tmin_units": "K", "Tmax_value": 3000.0, "Tmax_units": "K", "coeffs": [0.5509038236468667, 0.029424195237818408, -1.8213741851288973e-05, 5.401052377808208e-09, -6.146368474763313e-13, -65810540.85840035, 21.763128585627033]}]

>  <H298_value>  (4) 
-130776.41321357674

>  <H298_units>  (4) 
kcal/mol

>  <S298_value>  (4) 
65.65873371157244

>  <S298_units>  (4) 
cal/(mol*K)

>  <Cp_T_value_list>  (4) 
[14.863476305027024, 18.886846753670252, 22.43475352619028, 25.306815638075097, 29.702872533122694, 32.883841566280715, 37.40564552125166, 39.58228468223397, 40.796935988510995]

>  <Cp_T_units>  (4) 
cal/(mol*K)

>  <T_list>  (4) 
[300.0, 400.0, 500.0, 600.0, 800.0, 1000.0, 1500.0, 2000.0, 2400.0]

>  <T_units>  (4) 
K

>  <yaml_path>  (4) 
/home/calvin/Dropbox/PersonalFolders/Calvin/ATLAS_Converged/rmg_rxn_3041/output/Species/rmg_rxn_3041_p1_sbr-O-sbrN1CC1/rmg_rxn_3041_p1_sbr-O-sbrN1CC1.yml

>  <frequencies_cm1>  (4) 
[350.08577859892, 463.25369667251994, 761.6104748558798, 793.3977499021601, 893.5939327062799, 1016.15588669764, 1066.6762976968798, 1105.1726174008, 1123.1366509979198, 1153.9625480994, 1164.4896365949598, 1431.4917598071997, 1454.9768496016, 1497.97791167544, 3102.6413072824, 3105.09282104164, 3197.1310252856, 3209.5328007735197]

>  <ZPE_kJmol>  (4) 
160.84023508429246

>  <E_elec_kJmol>  (4) 
-547341.8942151149

>  <E0_minus_Eelec_plus_ZPE_kJmol>  (4) 
0.0

>  <rxn>  (4) 
rmg_rxn_3041

>  <species_type>  (4) 
p0

>  <species_folder>  (4) 
rmg_rxn_3041_p1_sbr-O-sbrN1CC1

>  <frequencies_cm1_list>  (4) 
[350.08577859892, 463.25369667251994, 761.6104748558798, 793.3977499021601, 893.5939327062799, 1016.15588669764, 1066.6762976968798, 1105.1726174008, 1123.1366509979198, 1153.9625480994, 1164.4896365949598, 1431.4917598071997, 1454.9768496016, 1497.97791167544, 3102.6413072824, 3105.09282104164, 3197.1310252856, 3209.5328007735197]

>  <E0_kJmol>  (4) 
-547181

>  <H298_kJmol>  (4) 
-547169

$$$$

     RDKit          3D

 13 12  0  0  0  0  0  0  0  0999 V2000
    1.9060    0.2628    0.3980 C   0  0  0  0  0  0  0  0  0  1  0  0
    0.6330   -0.4250    0.0685 C   0  0  0  0  0  3  0  0  0  2  0  0
   -0.2610   -0.9325    1.1416 C   0  0  0  0  0  0  0  0  0  3  0  0
   -1.4364   -1.7546    0.6268 C   0  0  0  0  0  0  0  0  0  4  0  0
    2.4899   -0.3070    1.1292 H   0  0  0  0  0  0  0  0  0  5  0  0
    1.7297    1.2496    0.8515 H   0  0  0  0  0  0  0  0  0  6  0  0
    2.5269    0.4197   -0.4845 H   0  0  0  0  0  0  0  0  0  7  0  0
    0.2597   -0.3936   -0.9489 H   0  0  0  0  0  0  0  0  0  8  0  0
   -0.6439   -0.0868    1.7356 H   0  0  0  0  0  0  0  0  0  9  0  0
    0.3260   -1.5277    1.8536 H   0  0  0  0  0  0  0  0  0 10  0  0
   -1.0872   -2.6320    0.0792 H   0  0  0  0  0  0  0  0  0 11  0  0
   -2.0701   -2.0976    1.4459 H   0  0  0  0  0  0  0  0  0 12  0  0
   -2.0561   -1.1637   -0.0512 H   0  0  0  0  0  0  0  0  0 13  0  0
  1  5  1  0
  1  7  1  0
  1  6  1  0
  1  2  1  0
  2  8  1  0
  2  3  1  0
  3  4  1  0
  3  9  1  0
  3 10  1  0
  4 13  1  0
  4 12  1  0
  4 11  1  0
M  RAD  1   2   2
M  END
>  <rmg_smiles>  (5) 
C[CH]CC

>  <rmg_adjacency_list>  (5) 
multiplicity 2
1  C u0 p0 c0 {2,S} {4,S} {5,S} {6,S}
2  C u0 p0 c0 {1,S} {7,S} {8,S} {9,S}
3  C u0 p0 c0 {4,S} {10,S} {11,S} {12,S}
4  C u1 p0 c0 {1,S} {3,S} {13,S}
5  H u0 p0 c0 {1,S}
6  H u0 p0 c0 {1,S}
7  H u0 p0 c0 {2,S}
8  H u0 p0 c0 {2,S}
9  H u0 p0 c0 {2,S}
10 H u0 p0 c0 {3,S}
11 H u0 p0 c0 {3,S}
12 H u0 p0 c0 {3,S}
13 H u0 p0 c0 {4,S}


>  <multiplicity>  (5) 
2

>  <reaction>  (5) 
rmg_rxn_3041

>  <type>  (5) 
r2

>  <role_mapnums>  (5) 
{}

>  <role_mapidx>  (5) 
{}

>  <ordered_mapped_smiles>  (5) 
[C:1]([C:2]([C:3]([C:4]([H:11])([H:12])[H:13])([H:9])[H:10])[H:8])([H:5])([H:6])[H:7]

>  <level_of_theory>  (5) 
wb97xd/def2tzvp

>  <lot_method>  (5) 
wb97xd

>  <lot_basis>  (5) 
def2tzvp

>  <spin_multiplicity>  (5) 
2.0

>  <optical_isomers>  (5) 
2.0

>  <modes>  (5) 
IdealGasTranslation(mass=(57.0704, 'amu')),         NonlinearRotor(             inertia = ([18.7542, 137.737, 146.856

>  <frequency_value>  (5) 
unknown

>  <frequency_units>  (5) 
unknown

>  <frequency_list>  (5) 
unknown

>  <arkane_path>  (5) 
/home/calvin/Dropbox/PersonalFolders/Calvin/ATLAS_Converged/rmg_rxn_3041/output/Species/rmg_rxn_3041_r2_Csbr-CH-sbrCC/arkane/output.py

>  <path_exists>  (5) 
True

>  <E0_value>  (5) 
-413995.2264405356

>  <E0_units>  (5) 
kJ/mol

>  <thermo_class>  (5) 
NASA

>  <Cp0_value>  (5) 
33.257888

>  <Cp0_units>  (5) 
J/(mol*K)

>  <CpInf_value>  (5) 
307.635464

>  <CpInf_units>  (5) 
J/(mol*K)

>  <Tmin_value>  (5) 
10.0

>  <Tmin_units>  (5) 
K

>  <Tmax_value>  (5) 
3000.0

>  <Tmax_units>  (5) 
K

>  <polynomials>  (5) 
[{"name": "polynomial1", "class": "NASAPolynomial", "Tmin_value": 10.0, "Tmin_units": "K", "Tmax_value": 437.64132334566835, "Tmax_units": "K", "coeffs": [3.6274282376646756, 0.03980524048628293, -0.00011211913315348379, 3.0275669442783334e-07, -2.6334100357152647e-10, -49792123.767797455, 10.477759673967103]}, {"name": "polynomial2", "class": "NASAPolynomial", "Tmin_value": 437.64132334566835, "Tmin_units": "K", "Tmax_value": 3000.0, "Tmax_units": "K", "coeffs": [-0.4712203043918067, 0.04588815729464738, -2.541997261504284e-05, 6.85639015424627e-09, -7.228277482308085e-13, -49791464.52563959, 30.297543071931177]}]

>  <H298_value>  (5) 
-98942.59688263848

>  <H298_units>  (5) 
kcal/mol

>  <S298_value>  (5) 
79.84336435797195

>  <S298_units>  (5) 
cal/(mol*K)

>  <Cp_T_value_list>  (5) 
[22.891917447574397, 28.308475735554, 33.64288387138264, 38.34868525299168, 46.07323283166112, 51.92675269306213, 60.90207372767515, 65.40111428959476, 67.64920413290923]

>  <Cp_T_units>  (5) 
cal/(mol*K)

>  <T_list>  (5) 
[300.0, 400.0, 500.0, 600.0, 800.0, 1000.0, 1500.0, 2000.0, 2400.0]

>  <T_units>  (5) 
K

>  <yaml_path>  (5) 
/home/calvin/Dropbox/PersonalFolders/Calvin/ATLAS_Converged/rmg_rxn_3041/output/Species/rmg_rxn_3041_r2_Csbr-CH-sbrCC/rmg_rxn_3041_r2_Csbr-CH-sbrCC.yml

>  <frequencies_cm1>  (5) 
[56.84490447896, 98.78845081352, 231.15645984184, 255.98747875895998, 343.02651768996, 433.15570001495996, 765.0302335452399, 850.6821414415999, 969.8792726261601, 986.4561751886399, 1035.713060889, 1061.1277735583199, 1129.08346028504, 1177.0836876718397, 1262.3853793168798, 1303.7933007964798, 1389.89842972396, 1402.2452693293199, 1414.45476922828, 1456.0687002674797, 1460.55284168144, 1471.1898019421196, 1484.2096061088398, 1489.95040583636, 2924.0516200651596, 2943.40278469692, 2976.8244022493595, 3009.05803134144, 3013.50097084348, 3083.1390689736, 3085.4944449383597, 3091.2352446658797, 3146.1642602405595]

>  <ZPE_kJmol>  (5) 
303.861341375402

>  <E_elec_kJmol>  (5) 
-414299.087781911

>  <E0_minus_Eelec_plus_ZPE_kJmol>  (5) 
0.0

>  <rxn>  (5) 
rmg_rxn_3041

>  <species_type>  (5) 
r1

>  <species_folder>  (5) 
rmg_rxn_3041_r2_Csbr-CH-sbrCC

>  <frequencies_cm1_list>  (5) 
[56.84490447896, 98.78845081352, 231.15645984184, 255.98747875895998, 343.02651768996, 433.15570001495996, 765.0302335452399, 850.6821414415999, 969.8792726261601, 986.4561751886399, 1035.713060889, 1061.1277735583199, 1129.08346028504, 1177.0836876718397, 1262.3853793168798, 1303.7933007964798, 1389.89842972396, 1402.2452693293199, 1414.45476922828, 1456.0687002674797, 1460.55284168144, 1471.1898019421196, 1484.2096061088398, 1489.95040583636, 2924.0516200651596, 2943.40278469692, 2976.8244022493595, 3009.05803134144, 3013.50097084348, 3083.1390689736, 3085.4944449383597, 3091.2352446658797, 3146.1642602405595]

>  <E0_kJmol>  (5) 
-413995

>  <H298_kJmol>  (5) 
-413976

$$$$
