
     RDKit          3D

  9  9  0  0  0  0  0  0  0  0999 V2000
    0.9446   -0.9130   -0.4664 O   0  0  0  0  0  0  0  0  0  1  0  0
   -0.1906   -0.4538    0.0493 N   0  0  0  0  0  0  0  0  0  2  0  0
   -0.7896    0.7665   -0.4262 C   0  0  0  0  0  0  0  0  0  3  0  0
   -0.2031    0.6675    0.9559 C   0  0  0  0  0  0  0  0  0  4  0  0
    1.5482   -0.2193   -0.7422 H   0  0  0  0  0  0  0  0  0  5  0  0
   -1.8631    0.7471   -0.5646 H   0  0  0  0  0  0  0  0  0  6  0  0
   -0.2189    1.3252   -1.1595 H   0  0  0  0  0  0  0  0  0  7  0  0
    0.7502    1.1616    1.1086 H   0  0  0  0  0  0  0  0  0  8  0  0
   -0.8510    0.5782    1.8184 H   0  0  0  0  0  0  0  0  0  9  0  0
  1  5  1  0
  1  2  1  0
  2  3  1  0
  2  4  1  0
  3  4  1  0
  3  6  1  0
  3  7  1  0
  4  8  1  0
  4  9  1  0
M  END
>  <rmg_smiles>  (1) 
ON1CC1

>  <rmg_adjacency_list>  (1) 
1 O u0 p2 c0 {2,S} {9,S}
2 N u0 p1 c0 {1,S} {3,S} {4,S}
3 C u0 p0 c0 {2,S} {4,S} {5,S} {6,S}
4 C u0 p0 c0 {2,S} {3,S} {7,S} {8,S}
5 H u0 p0 c0 {3,S}
6 H u0 p0 c0 {3,S}
7 H u0 p0 c0 {4,S}
8 H u0 p0 c0 {4,S}
9 H u0 p0 c0 {1,S}


>  <multiplicity>  (1) 
1

>  <reaction>  (1) 
rmg_rxn_3031

>  <type>  (1) 
r1h

>  <role_mapnums>  (1) 
{"r1h_a": 1, "r1h_h": 5}

>  <role_mapidx>  (1) 
{"r1h_a": 0, "r1h_h": 4}

>  <ordered_mapped_smiles>  (1) 
[O:1]([N:2]1[C:3]([H:6])([H:7])[C:4]1([H:8])[H:9])[H:5]

>  <mol_properties>  (1) 
{"0": {"label": "donator", "atom_type": "O2s"}, "4": {"label": "d_hydrogen", "atom_type": "H0"}}

>  <level_of_theory>  (1) 
wb97xd/def2tzvp

>  <lot_method>  (1) 
wb97xd

>  <lot_basis>  (1) 
def2tzvp

>  <spin_multiplicity>  (1) 
1.0

>  <optical_isomers>  (1) 
1.0

>  <modes>  (1) 
IdealGasTranslation(mass=(59.0371, 'amu')),         NonlinearRotor(             inertia = ([28.1872, 66.5407, 77.6102

>  <frequency_value>  (1) 
unknown

>  <frequency_units>  (1) 
unknown

>  <frequency_list>  (1) 
unknown

>  <arkane_path>  (1) 
/home/calvin/Dropbox/PersonalFolders/Calvin/ATLAS_Converged/rmg_rxn_3031/output/Species/rmg_rxn_3031_r2_ON1CC1/arkane/output.py

>  <path_exists>  (1) 
True

>  <E0_value>  (1) 
-548830.9755880404

>  <E0_units>  (1) 
kJ/mol

>  <thermo_class>  (1) 
NASA

>  <Cp0_value>  (1) 
33.257888

>  <Cp0_units>  (1) 
J/(mol*K)

>  <CpInf_value>  (1) 
207.8618

>  <CpInf_units>  (1) 
J/(mol*K)

>  <Tmin_value>  (1) 
10.0

>  <Tmin_units>  (1) 
K

>  <Tmax_value>  (1) 
3000.0

>  <Tmax_units>  (1) 
K

>  <polynomials>  (1) 
[{"name": "polynomial1", "class": "NASAPolynomial", "Tmin_value": 10.0, "Tmin_units": "K", "Tmax_value": 587.2199948559334, "Tmax_units": "K", "coeffs": [4.01290829659194, -0.0016502474955422339, 9.708642231333483e-05, -1.6094228553485929e-07, 8.484346380941685e-11, -66009118.08554968, 8.391880568105824]}, {"name": "polynomial2", "class": "NASAPolynomial", "Tmin_value": 587.2199948559334, "Tmin_units": "K", "Tmax_value": 3000.0, "Tmax_units": "K", "coeffs": [0.7337841600207903, 0.03241844705827431, -1.990752940299833e-05, 5.903220459412223e-09, -6.732998606532043e-13, -66008935.2494822, 20.743767898900355]}]

>  <H298_value>  (1) 
-131170.36722140852

>  <H298_units>  (1) 
kcal/mol

>  <S298_value>  (1) 
67.20815903717752

>  <S298_units>  (1) 
cal/(mol*K)

>  <Cp_T_value_list>  (1) 
[17.084813947658525, 21.379009937156017, 25.126876739126274, 28.23021137141331, 33.135452712013276, 36.71288976391953, 41.89886219457449, 44.500561578088046, 45.980647572639626]

>  <Cp_T_units>  (1) 
cal/(mol*K)

>  <T_list>  (1) 
[300.0, 400.0, 500.0, 600.0, 800.0, 1000.0, 1500.0, 2000.0, 2400.0]

>  <T_units>  (1) 
K

>  <yaml_path>  (1) 
/home/calvin/Dropbox/PersonalFolders/Calvin/ATLAS_Converged/rmg_rxn_3031/output/Species/rmg_rxn_3031_r2_ON1CC1/rmg_rxn_3031_r2_ON1CC1.yml

>  <frequencies_cm1>  (1) 
[133.13711138415997, 422.03805078188, 447.52830028972, 737.70649895696, 837.0649095520399, 880.14837544972, 977.55656221392, 1021.37479554084, 1108.8807894735999, 1123.8508174712, 1174.6390408979198, 1175.03732604648, 1241.8668271807198, 1382.8803707269199, 1458.29360351116, 1496.32296821332, 3107.7915462724, 3111.1083001819597, 3196.87694682876, 3210.06155864316, 3845.8619954513197]

>  <ZPE_kJmol>  (1) 
191.94103937201209

>  <E_elec_kJmol>  (1) 
-549022.9166274124

>  <E0_minus_Eelec_plus_ZPE_kJmol>  (1) 
0.0

>  <rxn>  (1) 
rmg_rxn_3031

>  <species_type>  (1) 
r1

>  <species_folder>  (1) 
rmg_rxn_3031_r2_ON1CC1

>  <frequencies_cm1_list>  (1) 
[133.13711138415997, 422.03805078188, 447.52830028972, 737.70649895696, 837.0649095520399, 880.14837544972, 977.55656221392, 1021.37479554084, 1108.8807894735999, 1123.8508174712, 1174.6390408979198, 1175.03732604648, 1241.8668271807198, 1382.8803707269199, 1458.29360351116, 1496.32296821332, 3107.7915462724, 3111.1083001819597, 3196.87694682876, 3210.06155864316, 3845.8619954513197]

>  <E0_kJmol>  (1) 
-548831

>  <H298_kJmol>  (1) 
-548817

$$$$

     RDKit          3D

  9  8  0  0  0  0  0  0  0  0999 V2000
    1.0693   -1.2829    0.5563 C   0  0  0  0  0  0  0  0  0  1  0  0
    0.3920    0.0596    0.7720 C   0  0  0  0  0  0  0  0  0  2  0  0
   -0.6396    0.6035   -0.6134 S   0  0  0  0  0  0  0  0  0  3  0  0
    0.3277   -2.0737    0.4387 H   0  0  0  0  0  0  0  0  0  4  0  0
    1.7016   -1.5318    1.4121 H   0  0  0  0  0  0  0  0  0  5  0  0
    1.6910   -1.2644   -0.3393 H   0  0  0  0  0  0  0  0  0  6  0  0
    1.1305    0.8542    0.9061 H   0  0  0  0  0  0  0  0  0  7  0  0
   -0.2169    0.0470    1.6782 H   0  0  0  0  0  0  0  0  0  8  0  0
   -1.5359   -0.3839   -0.4822 H   0  0  0  0  0  0  0  0  0  9  0  0
  1  5  1  0
  1  4  1  0
  1  6  1  0
  1  2  1  0
  2  7  1  0
  2  3  1  0
  2  8  1  0
  3  9  1  0
M  END
>  <rmg_smiles>  (2) 
CCS

>  <rmg_adjacency_list>  (2) 
1 S u0 p2 c0 {2,S} {9,S}
2 C u0 p0 c0 {1,S} {3,S} {4,S} {5,S}
3 C u0 p0 c0 {2,S} {6,S} {7,S} {8,S}
4 H u0 p0 c0 {2,S}
5 H u0 p0 c0 {2,S}
6 H u0 p0 c0 {3,S}
7 H u0 p0 c0 {3,S}
8 H u0 p0 c0 {3,S}
9 H u0 p0 c0 {1,S}


>  <multiplicity>  (2) 
1

>  <reaction>  (2) 
rmg_rxn_3031

>  <type>  (2) 
r2h

>  <role_mapnums>  (2) 
{"r2h_a": 3, "r2h_h": 9}

>  <role_mapidx>  (2) 
{"r2h_a": 2, "r2h_h": 8}

>  <ordered_mapped_smiles>  (2) 
[C:1]([C:2]([S:3][H:9])([H:7])[H:8])([H:4])([H:5])[H:6]

>  <mol_properties>  (2) 
{"2": {"label": "acceptor", "atom_type": "S2s"}, "8": {"label": "a_hydrogen", "atom_type": "H0"}}

>  <level_of_theory>  (2) 
wb97xd/def2tzvp

>  <lot_method>  (2) 
wb97xd

>  <lot_basis>  (2) 
def2tzvp

>  <spin_multiplicity>  (2) 
1.0

>  <optical_isomers>  (2) 
2.0

>  <modes>  (2) 
IdealGasTranslation(mass=(62.019, 'amu')),         NonlinearRotor(             inertia = ([17.3187, 95.472, 104.033

>  <frequency_value>  (2) 
unknown

>  <frequency_units>  (2) 
unknown

>  <frequency_list>  (2) 
unknown

>  <arkane_path>  (2) 
/home/calvin/Dropbox/PersonalFolders/Calvin/ATLAS_Converged/rmg_rxn_3031/output/Species/rmg_rxn_3031_p2_CCS/arkane/output.py

>  <path_exists>  (2) 
True

>  <E0_value>  (2) 
-1254880.5539257105

>  <E0_units>  (2) 
kJ/mol

>  <thermo_class>  (2) 
NASA

>  <Cp0_value>  (2) 
33.257888

>  <Cp0_units>  (2) 
J/(mol*K)

>  <CpInf_value>  (2) 
207.8618

>  <CpInf_units>  (2) 
J/(mol*K)

>  <Tmin_value>  (2) 
10.0

>  <Tmin_units>  (2) 
K

>  <Tmax_value>  (2) 
3000.0

>  <Tmax_units>  (2) 
K

>  <polynomials>  (2) 
[{"name": "polynomial1", "class": "NASAPolynomial", "Tmin_value": 10.0, "Tmin_units": "K", "Tmax_value": 456.94594899547127, "Tmax_units": "K", "coeffs": [3.912577624338537, 0.00615582175220408, 5.7903930492959536e-05, -1.030503984599124e-07, 5.821320863281675e-11, -150927266.2322327, 9.021117452044235]}, {"name": "polynomial2", "class": "NASAPolynomial", "Tmin_value": 456.94594899547127, "Tmin_units": "K", "Tmax_value": 3000.0, "Tmax_units": "K", "coeffs": [1.355858308005039, 0.028536747355681385, -1.556509888997289e-05, 4.138064392594878e-09, -4.3071928406011676e-13, -150927032.57563502, 19.353413792179573]}]

>  <H298_value>  (2) 
-299920.1188186392

>  <H298_units>  (2) 
kcal/mol

>  <S298_value>  (2) 
69.39854649104443

>  <S298_units>  (2) 
cal/(mol*K)

>  <Cp_T_value_list>  (2) 
[17.20889854420324, 20.934361703682253, 24.290211996879982, 27.24951312622027, 32.12490060154891, 35.83897490418279, 41.58221214962001, 44.47758447480336, 45.91133080340105]

>  <Cp_T_units>  (2) 
cal/(mol*K)

>  <T_list>  (2) 
[300.0, 400.0, 500.0, 600.0, 800.0, 1000.0, 1500.0, 2000.0, 2400.0]

>  <T_units>  (2) 
K

>  <yaml_path>  (2) 
/home/calvin/Dropbox/PersonalFolders/Calvin/ATLAS_Converged/rmg_rxn_3031/output/Species/rmg_rxn_3031_p2_CCS/rmg_rxn_3031_p2_CCS.yml

>  <frequencies_cm1>  (2) 
[202.32885546847996, 256.50936964327997, 331.52431727896, 667.1482247939599, 735.969151671, 875.5955641825599, 988.159187548, 1063.6273562148, 1117.6087278153198, 1273.38628979952, 1303.10660226448, 1402.5542836687198, 1466.616389719, 1477.4456255686398, 1483.85938985752, 2700.25656848636, 3013.3430301811195, 3044.51914353392, 3080.6051513905195, 3088.40604671404, 3107.9357529641197]

>  <ZPE_kJmol>  (2) 
195.4728851436989

>  <E_elec_kJmol>  (2) 
-1255076.0268108542

>  <E0_minus_Eelec_plus_ZPE_kJmol>  (2) 
0.0

>  <rxn>  (2) 
rmg_rxn_3031

>  <species_type>  (2) 
p1

>  <species_folder>  (2) 
rmg_rxn_3031_p2_CCS

>  <frequencies_cm1_list>  (2) 
[202.32885546847996, 256.50936964327997, 331.52431727896, 667.1482247939599, 735.969151671, 875.5955641825599, 988.159187548, 1063.6273562148, 1117.6087278153198, 1273.38628979952, 1303.10660226448, 1402.5542836687198, 1466.616389719, 1477.4456255686398, 1483.85938985752, 2700.25656848636, 3013.3430301811195, 3044.51914353392, 3080.6051513905195, 3088.40604671404, 3107.9357529641197]

>  <E0_kJmol>  (2) 
-1.25488e+06

>  <H298_kJmol>  (2) 
-1.25487e+06

$$$$

     RDKit          3D

 17 16  0  0  0  0  0  0  0  0999 V2000
    2.7062   -1.1371    0.0252 C   0  0  0  0  0  0  0  0  0  1  0  0
    2.0289    0.2054    0.2409 C   0  0  0  0  0  0  0  0  0  2  0  0
    0.9972    0.7494   -1.1445 S   0  0  0  0  0  1  0  0  0  3  0  0
    1.9646   -1.9278   -0.0924 H   0  0  0  0  0  0  0  0  0  4  0  0
    3.3385   -1.3859    0.8810 H   0  0  0  0  0  0  0  0  0  5  0  0
    3.3278   -1.1186   -0.8704 H   0  0  0  0  0  0  0  0  0  6  0  0
    2.7673    1.0001    0.3750 H   0  0  0  0  0  0  0  0  0  7  0  0
    1.4200    0.1928    1.1471 H   0  0  0  0  0  0  0  0  0  8  0  0
   -0.8211   -1.2878   -0.6561 O   0  0  0  0  0  0  0  0  0  9  0  0
   -1.9562   -0.8286   -0.1405 N   0  0  0  0  0  0  0  0  0 10  0  0
   -2.5553    0.3916   -0.6160 C   0  0  0  0  0  0  0  0  0 11  0  0
   -1.9687    0.2927    0.7661 C   0  0  0  0  0  0  0  0  0 12  0  0
   -0.1056   -0.4656   -0.9831 H   0  0  0  0  0  0  0  0  0 13  0  0
   -3.6287    0.3722   -0.7544 H   0  0  0  0  0  0  0  0  0 14  0  0
   -1.9846    0.9504   -1.3493 H   0  0  0  0  0  0  0  0  0 15  0  0
   -1.0155    0.7868    0.9188 H   0  0  0  0  0  0  0  0  0 16  0  0
   -2.6166    0.2034    1.6286 H   0  0  0  0  0  0  0  0  0 17  0  0
  1  5  1  0
  1  4  1  0
  1  6  1  0
  1  2  1  0
  2  7  1  0
  2  3  1  0
  2  8  1  0
  9 13  1  0
  9 10  1  0
 10 11  1  0
 10 12  1  0
 11 14  1  0
 11 12  1  0
 11 15  1  0
 12 17  1  0
 12 16  1  0
M  RAD  1   3   2
M  END
>  <rmg_smiles>  (3) 
ON1CC1.CC[S]

>  <rmg_adjacency_list>  (3) 
multiplicity 2
1  S u1 p2 c0 {7,S}
2  O u0 p2 c0 {3,S} {17,S}
3  N u0 p1 c0 {2,S} {4,S} {5,S}
4  C u0 p0 c0 {3,S} {5,S} {8,S} {9,S}
5  C u0 p0 c0 {3,S} {4,S} {10,S} {11,S}
6  C u0 p0 c0 {7,S} {12,S} {13,S} {14,S}
7  C u0 p0 c0 {1,S} {6,S} {15,S} {16,S}
8  H u0 p0 c0 {4,S}
9  H u0 p0 c0 {4,S}
10 H u0 p0 c0 {5,S}
11 H u0 p0 c0 {5,S}
12 H u0 p0 c0 {6,S}
13 H u0 p0 c0 {6,S}
14 H u0 p0 c0 {6,S}
15 H u0 p0 c0 {7,S}
16 H u0 p0 c0 {7,S}
17 H u0 p0 c0 {2,S}


>  <multiplicity>  (3) 
2

>  <reaction>  (3) 
rmg_rxn_3031

>  <type>  (3) 
ts

>  <role_mapnums>  (3) 
{"*2": 13, "*1": 9, "*3": 3, "*0": 10, "*4": 2}

>  <role_mapidx>  (3) 
{"*2": 12, "*1": 8, "*3": 2, "*0": 9, "*4": 1}

>  <ordered_mapped_smiles>  (3) 
[C:1]([C:2]([S:3])([H:7])[H:8])([H:4])([H:5])[H:6].[O:9]([N:10]1[C:11]([H:14])([H:15])[C:12]1([H:16])[H:17])[H:13]

>  <mol_properties>  (3) 
{"1": {"label": "*4", "atom_type": "Cs"}, "2": {"label": "*3", "atom_type": "S2s"}, "8": {"label": "*1", "atom_type": "O2s"}, "9": {"label": "*0", "atom_type": "N3s"}, "12": {"label": "*2", "atom_type": "H0"}}

>  <level_of_theory>  (3) 
wb97xd/def2tzvp

>  <lot_method>  (3) 
wb97xd

>  <lot_basis>  (3) 
def2tzvp

>  <spin_multiplicity>  (3) 
2.0

>  <optical_isomers>  (3) 
2.0

>  <modes>  (3) 
IdealGasTranslation(mass=(120.048, 'amu')),         NonlinearRotor(             inertia = ([136.755, 467.45, 509.439

>  <frequency_value>  (3) 
-1509.68

>  <frequency_units>  (3) 
cm^-1

>  <frequency_list>  (3) 
unknown

>  <arkane_path>  (3) 
/home/calvin/Dropbox/PersonalFolders/Calvin/ATLAS_Converged/rmg_rxn_3031/output/rxns/TS0/arkane/output.py

>  <path_exists>  (3) 
True

>  <E0_value>  (3) 
-1802020.0

>  <E0_units>  (3) 
kJ/mol

>  <thermo_class>  (3) 
unknown

>  <Cp0_value>  (3) 
unknown

>  <Cp0_units>  (3) 
unknown

>  <CpInf_value>  (3) 
unknown

>  <CpInf_units>  (3) 
unknown

>  <Tmin_value>  (3) 
unknown

>  <Tmin_units>  (3) 
unknown

>  <Tmax_value>  (3) 
unknown

>  <Tmax_units>  (3) 
unknown

>  <polynomials>  (3) 
unknown

>  <H298_value>  (3) 
unknown

>  <H298_units>  (3) 
unknown

>  <S298_value>  (3) 
unknown

>  <S298_units>  (3) 
unknown

>  <Cp_T_value_list>  (3) 
unknown

>  <Cp_T_units>  (3) 
unknown

>  <T_list>  (3) 
unknown

>  <T_units>  (3) 
unknown

>  <yaml_path>  (3) 
unknown

>  <frequencies_cm1>  (3) 
unknown

>  <ZPE_kJmol>  (3) 
unknown

>  <E_elec_kJmol>  (3) 
unknown

>  <E0_minus_Eelec_plus_ZPE_kJmol>  (3) 
unknown

>  <rxn>  (3) 
unknown

>  <species_type>  (3) 
unknown

>  <species_folder>  (3) 
unknown

>  <frequencies_cm1_list>  (3) 
[]

>  <ts_imag_freq_cm1>  (3) 
-1528.0115

>  <ts_freq_out_path>  (3) 
/home/calvin/Dropbox/PersonalFolders/Calvin/ATLAS_Converged/rmg_rxn_3031/output/rxns/TS0/geometry/freq.out

>  <E0_kJmol>  (3) 
-1.80202e+06

>  <H298_kJmol>  (3) 
unknown

$$$$

     RDKit          3D

  8  8  0  0  0  0  0  0  0  0999 V2000
    0.0257    1.9818    0.0485 O   0  0  0  0  0  1  0  0  0  1  0  0
    0.0179    0.8208   -0.4484 N   0  0  0  0  0  0  0  0  0  2  0  0
    0.7557   -0.3258    0.0134 C   0  0  0  0  0  0  0  0  0  3  0  0
   -0.7642   -0.3055   -0.0101 C   0  0  0  0  0  0  0  0  0  4  0  0
    1.2844   -0.9009   -0.7365 H   0  0  0  0  0  0  0  0  0  5  0  0
    1.2442   -0.2188    0.9742 H   0  0  0  0  0  0  0  0  0  6  0  0
   -1.2791   -0.1851    0.9352 H   0  0  0  0  0  0  0  0  0  7  0  0
   -1.2846   -0.8666   -0.7762 H   0  0  0  0  0  0  0  0  0  8  0  0
  1  2  1  0
  2  3  1  0
  2  4  1  0
  3  4  1  0
  3  6  1  0
  3  5  1  0
  4  8  1  0
  4  7  1  0
M  RAD  1   1   2
M  END
>  <rmg_smiles>  (4) 
[O]N1CC1

>  <rmg_adjacency_list>  (4) 
multiplicity 2
1 O u1 p2 c0 {2,S}
2 N u0 p1 c0 {1,S} {3,S} {4,S}
3 C u0 p0 c0 {2,S} {4,S} {5,S} {6,S}
4 C u0 p0 c0 {2,S} {3,S} {7,S} {8,S}
5 H u0 p0 c0 {3,S}
6 H u0 p0 c0 {3,S}
7 H u0 p0 c0 {4,S}
8 H u0 p0 c0 {4,S}


>  <multiplicity>  (4) 
2

>  <reaction>  (4) 
rmg_rxn_3031

>  <type>  (4) 
r1

>  <role_mapnums>  (4) 
{}

>  <role_mapidx>  (4) 
{}

>  <ordered_mapped_smiles>  (4) 
[O:1][N:2]1[C:3]([H:5])([H:6])[C:4]1([H:7])[H:8]

>  <level_of_theory>  (4) 
wb97xd/def2tzvp

>  <lot_method>  (4) 
wb97xd

>  <lot_basis>  (4) 
def2tzvp

>  <spin_multiplicity>  (4) 
2.0

>  <optical_isomers>  (4) 
1.0

>  <modes>  (4) 
IdealGasTranslation(mass=(58.0293, 'amu')),         NonlinearRotor(             inertia = ([25.8055, 62.4608, 77.4626

>  <frequency_value>  (4) 
unknown

>  <frequency_units>  (4) 
unknown

>  <frequency_list>  (4) 
unknown

>  <arkane_path>  (4) 
/home/calvin/Dropbox/PersonalFolders/Calvin/ATLAS_Converged/rmg_rxn_3031/output/Species/rmg_rxn_3031_p1_sbr-O-sbrN1CC1/arkane/output.py

>  <path_exists>  (4) 
True

>  <E0_value>  (4) 
-547181.0539800306

>  <E0_units>  (4) 
kJ/mol

>  <thermo_class>  (4) 
NASA

>  <Cp0_value>  (4) 
33.257888

>  <Cp0_units>  (4) 
J/(mol*K)

>  <CpInf_value>  (4) 
182.918384

>  <CpInf_units>  (4) 
J/(mol*K)

>  <Tmin_value>  (4) 
10.0

>  <Tmin_units>  (4) 
K

>  <Tmax_value>  (4) 
3000.0

>  <Tmax_units>  (4) 
K

>  <polynomials>  (4) 
[{"name": "polynomial1", "class": "NASAPolynomial", "Tmin_value": 10.0, "Tmin_units": "K", "Tmax_value": 624.7357386490204, "Tmax_units": "K", "coeffs": [4.1105451907420125, -0.009033090615102013, 0.00011173695653622377, -1.734104128021453e-07, 8.700249676344132e-11, -65810679.90864667, 8.7112352700631]}, {"name": "polynomial2", "class": "NASAPolynomial", "Tmin_value": 624.7357386490204, "Tmin_units": "K", "Tmax_value": 3000.0, "Tmax_units": "K", "coeffs": [0.5509038236468667, 0.029424195237818408, -1.8213741851288973e-05, 5.401052377808208e-09, -6.146368474763313e-13, -65810540.85840035, 21.763128585627033]}]

>  <H298_value>  (4) 
-130776.41321357674

>  <H298_units>  (4) 
kcal/mol

>  <S298_value>  (4) 
65.65873371157244

>  <S298_units>  (4) 
cal/(mol*K)

>  <Cp_T_value_list>  (4) 
[14.863476305027024, 18.886846753670252, 22.43475352619028, 25.306815638075097, 29.702872533122694, 32.883841566280715, 37.40564552125166, 39.58228468223397, 40.796935988510995]

>  <Cp_T_units>  (4) 
cal/(mol*K)

>  <T_list>  (4) 
[300.0, 400.0, 500.0, 600.0, 800.0, 1000.0, 1500.0, 2000.0, 2400.0]

>  <T_units>  (4) 
K

>  <yaml_path>  (4) 
/home/calvin/Dropbox/PersonalFolders/Calvin/ATLAS_Converged/rmg_rxn_3031/output/Species/rmg_rxn_3031_p1_sbr-O-sbrN1CC1/rmg_rxn_3031_p1_sbr-O-sbrN1CC1.yml

>  <frequencies_cm1>  (4) 
[350.08577859892, 463.25369667251994, 761.6104748558798, 793.3977499021601, 893.5939327062799, 1016.15588669764, 1066.6762976968798, 1105.1726174008, 1123.1366509979198, 1153.9625480994, 1164.4896365949598, 1431.4917598071997, 1454.9768496016, 1497.97791167544, 3102.6413072824, 3105.09282104164, 3197.1310252856, 3209.5328007735197]

>  <ZPE_kJmol>  (4) 
160.84023508429246

>  <E_elec_kJmol>  (4) 
-547341.8942151149

>  <E0_minus_Eelec_plus_ZPE_kJmol>  (4) 
0.0

>  <rxn>  (4) 
rmg_rxn_3031

>  <species_type>  (4) 
p0

>  <species_folder>  (4) 
rmg_rxn_3031_p1_sbr-O-sbrN1CC1

>  <frequencies_cm1_list>  (4) 
[350.08577859892, 463.25369667251994, 761.6104748558798, 793.3977499021601, 893.5939327062799, 1016.15588669764, 1066.6762976968798, 1105.1726174008, 1123.1366509979198, 1153.9625480994, 1164.4896365949598, 1431.4917598071997, 1454.9768496016, 1497.97791167544, 3102.6413072824, 3105.09282104164, 3197.1310252856, 3209.5328007735197]

>  <E0_kJmol>  (4) 
-547181

>  <H298_kJmol>  (4) 
-547169

$$$$

     RDKit          3D

  8  7  0  0  0  0  0  0  0  0999 V2000
    0.8136   -0.0249    0.0404 C   0  0  0  0  0  0  0  0  0  1  0  0
   -0.7034   -0.1038   -0.0095 C   0  0  0  0  0  0  0  0  0  2  0  0
   -1.5481    1.4368   -0.3594 S   0  0  0  0  0  1  0  0  0  3  0  0
    1.1410    0.6704    0.8138 H   0  0  0  0  0  0  0  0  0  4  0  0
    1.2160    0.3193   -0.9127 H   0  0  0  0  0  0  0  0  0  5  0  0
    1.2398   -1.0069    0.2586 H   0  0  0  0  0  0  0  0  0  6  0  0
   -1.1164   -0.4724    0.9353 H   0  0  0  0  0  0  0  0  0  7  0  0
   -1.0424   -0.8185   -0.7666 H   0  0  0  0  0  0  0  0  0  8  0  0
  1  5  1  0
  1  4  1  0
  1  6  1  0
  1  2  1  0
  2  8  1  0
  2  3  1  0
  2  7  1  0
M  RAD  1   3   2
M  END
>  <rmg_smiles>  (5) 
CC[S]

>  <rmg_adjacency_list>  (5) 
multiplicity 2
1 S u1 p2 c0 {3,S}
2 C u0 p0 c0 {3,S} {4,S} {5,S} {6,S}
3 C u0 p0 c0 {1,S} {2,S} {7,S} {8,S}
4 H u0 p0 c0 {2,S}
5 H u0 p0 c0 {2,S}
6 H u0 p0 c0 {2,S}
7 H u0 p0 c0 {3,S}
8 H u0 p0 c0 {3,S}


>  <multiplicity>  (5) 
2

>  <reaction>  (5) 
rmg_rxn_3031

>  <type>  (5) 
r2

>  <role_mapnums>  (5) 
{}

>  <role_mapidx>  (5) 
{}

>  <ordered_mapped_smiles>  (5) 
[C:1]([C:2]([S:3])([H:7])[H:8])([H:4])([H:5])[H:6]

>  <level_of_theory>  (5) 
wb97xd/def2tzvp

>  <lot_method>  (5) 
wb97xd

>  <lot_basis>  (5) 
def2tzvp

>  <spin_multiplicity>  (5) 
2.0

>  <optical_isomers>  (5) 
1.0

>  <modes>  (5) 
IdealGasTranslation(mass=(61.0112, 'amu')),         NonlinearRotor(             inertia = ([15.0526, 92.9571, 101.83

>  <frequency_value>  (5) 
unknown

>  <frequency_units>  (5) 
unknown

>  <frequency_list>  (5) 
unknown

>  <arkane_path>  (5) 
/home/calvin/Dropbox/PersonalFolders/Calvin/ATLAS_Converged/rmg_rxn_3031/output/Species/rmg_rxn_3031_r1_CCsbr-S-sbr/arkane/output.py

>  <path_exists>  (5) 
True

>  <E0_value>  (5) 
-1253208.9221530382

>  <E0_units>  (5) 
kJ/mol

>  <thermo_class>  (5) 
NASA

>  <Cp0_value>  (5) 
33.257888

>  <Cp0_units>  (5) 
J/(mol*K)

>  <CpInf_value>  (5) 
182.918384

>  <CpInf_units>  (5) 
J/(mol*K)

>  <Tmin_value>  (5) 
10.0

>  <Tmin_units>  (5) 
K

>  <Tmax_value>  (5) 
3000.0

>  <Tmax_units>  (5) 
K

>  <polynomials>  (5) 
[{"name": "polynomial1", "class": "NASAPolynomial", "Tmin_value": 10.0, "Tmin_units": "K", "Tmax_value": 439.99270153224853, "Tmax_units": "K", "coeffs": [3.9713348401441664, 0.001739386523554638, 6.639412064945751e-05, -1.1831624219985673e-07, 6.905057054712798e-11, -150726216.89197433, 8.832671958864628]}, {"name": "polynomial2", "class": "NASAPolynomial", "Tmin_value": 439.99270153224853, "Tmin_units": "K", "Tmax_value": 3000.0, "Tmax_units": "K", "coeffs": [1.368795632773295, 0.02540255152955802, -1.42884343133722e-05, 3.949257226889342e-09, -4.293749407870089e-13, -150725987.90450996, 19.251376213201166]}]

>  <H298_value>  (5) 
-299520.84801361983

>  <H298_units>  (5) 
kcal/mol

>  <S298_value>  (5) 
67.59791250885056

>  <S298_units>  (5) 
cal/(mol*K)

>  <Cp_T_value_list>  (5) 
[15.56656897289385, 18.84985365349198, 21.78929012342503, 24.370867560305353, 28.600644256097844, 31.800858525861525, 36.72094949787433, 39.23584273958168, 40.504116334891535]

>  <Cp_T_units>  (5) 
cal/(mol*K)

>  <T_list>  (5) 
[300.0, 400.0, 500.0, 600.0, 800.0, 1000.0, 1500.0, 2000.0, 2400.0]

>  <T_units>  (5) 
K

>  <yaml_path>  (5) 
/home/calvin/Dropbox/PersonalFolders/Calvin/ATLAS_Converged/rmg_rxn_3031/output/Species/rmg_rxn_3031_r1_CCsbr-S-sbr/rmg_rxn_3031_r1_CCsbr-S-sbr.yml

>  <frequencies_cm1>  (5) 
[226.21223041144, 334.16123964184, 489.39630978575997, 681.8298394081199, 904.8283206898, 980.8458481821998, 1069.55356454596, 1246.44023940384, 1278.3648541565199, 1403.29591808328, 1419.59814123296, 1475.8250170331198, 1482.3623870577599, 2999.6708624089997, 3016.93446350348, 3020.6083006496797, 3090.0403892202, 3104.2962507445195]

>  <ZPE_kJmol>  (5) 
168.81863804478797

>  <E_elec_kJmol>  (5) 
-1253377.740791083

>  <E0_minus_Eelec_plus_ZPE_kJmol>  (5) 
0.0

>  <rxn>  (5) 
rmg_rxn_3031

>  <species_type>  (5) 
r0

>  <species_folder>  (5) 
rmg_rxn_3031_r1_CCsbr-S-sbr

>  <frequencies_cm1_list>  (5) 
[226.21223041144, 334.16123964184, 489.39630978575997, 681.8298394081199, 904.8283206898, 980.8458481821998, 1069.55356454596, 1246.44023940384, 1278.3648541565199, 1403.29591808328, 1419.59814123296, 1475.8250170331198, 1482.3623870577599, 2999.6708624089997, 3016.93446350348, 3020.6083006496797, 3090.0403892202, 3104.2962507445195]

>  <E0_kJmol>  (5) 
-1.25321e+06

>  <H298_kJmol>  (5) 
-1.2532e+06

$$$$
