
     RDKit          3D

 14 13  0  0  0  0  0  0  0  0999 V2000
    0.5191    1.0698   -0.6392 O   0  0  0  0  0  0  0  0  0  1  0  0
    0.2116   -1.9412    0.6154 O   0  0  0  0  0  0  0  0  0  2  0  0
   -1.3585   -0.2707   -0.1135 C   0  0  0  0  0  0  0  0  0  3  0  0
   -0.4327    0.8281    0.3624 C   0  0  0  0  0  0  0  0  0  4  0  0
   -0.7567   -1.6543   -0.0354 C   0  0  0  0  0  0  0  0  0  5  0  0
    1.5998    1.8160   -0.2205 C   0  0  0  0  0  0  0  0  0  6  0  0
   -2.2782   -0.2970    0.4981 H   0  0  0  0  0  0  0  0  0  7  0  0
   -1.6865   -0.0759   -1.1473 H   0  0  0  0  0  0  0  0  0  8  0  0
    0.0606    0.5153    1.3007 H   0  0  0  0  0  0  0  0  0  9  0  0
   -1.0071    1.7514    0.5731 H   0  0  0  0  0  0  0  0  0 10  0  0
    2.2301    1.1676    0.4086 H   0  0  0  0  0  0  0  0  0 11  0  0
   -1.3060   -2.4409   -0.6120 H   0  0  0  0  0  0  0  0  0 12  0  0
    2.2217    2.0858   -1.0836 H   0  0  0  0  0  0  0  0  0 13  0  0
    1.3283    2.6956    0.3920 H   0  0  0  0  0  0  0  0  0 14  0  0
  1  6  1  0
  1  4  1  0
  2  5  1  0
  3  4  1  0
  3  5  1  0
  3  7  1  0
  3  8  1  0
  4  9  1  0
  4 10  1  0
  5 12  1  0
  6 14  1  0
  6 13  1  0
  6 11  1  0
M  END
>  <rmg_smiles>  (1) 
COCC[CH]O

>  <rmg_adjacency_list>  (1) 
1  O u0 p2 c0 {4,S} {5,S}
2  O u0 p2 c0 {6,S}
3  C u0 p0 c0 {4,S} {6,S} {7,S} {8,S}
4  C u0 p0 c0 {1,S} {3,S} {9,S} {10,S}
5  C u0 p0 c0 {1,S} {11,S} {12,S} {13,S}
6  C u0 p0 c0 {2,S} {3,S} {14,S}
7  H u0 p0 c0 {3,S}
8  H u0 p0 c0 {3,S}
9  H u0 p0 c0 {4,S}
10 H u0 p0 c0 {4,S}
11 H u0 p0 c0 {5,S}
12 H u0 p0 c0 {5,S}
13 H u0 p0 c0 {5,S}
14 H u0 p0 c0 {6,S}


>  <multiplicity>  (1) 
1

>  <reaction>  (1) 
rmg_rxn_1349

>  <type>  (1) 
r1h

>  <role_mapnums>  (1) 
{"r1h_a": 6, "r1h_h": 11}

>  <role_mapidx>  (1) 
{"r1h_a": 5, "r1h_h": 10}

>  <ordered_mapped_smiles>  (1) 
[O:1]([C:4]([C:3]([CH:5]([OH:2])[H:12])([H:7])[H:8])([H:9])[H:10])[C:6]([H:11])([H:13])[H:14]

>  <mol_properties>  (1) 
{"5": {"label": "donator", "atom_type": "Cs"}, "10": {"label": "d_hydrogen", "atom_type": "H0"}}

>  <level_of_theory>  (1) 
wb97xd/def2tzvp

>  <lot_method>  (1) 
wb97xd

>  <lot_basis>  (1) 
def2tzvp

>  <spin_multiplicity>  (1) 
1.0

>  <optical_isomers>  (1) 
1.0

>  <modes>  (1) 
IdealGasTranslation(mass=(88.0524, 'amu')),         NonlinearRotor(             inertia = ([44.5755, 319.739, 354.742

>  <frequency_value>  (1) 
unknown

>  <frequency_units>  (1) 
unknown

>  <frequency_list>  (1) 
unknown

>  <arkane_path>  (1) 
/home/calvin/Dropbox/PersonalFolders/Calvin/ATLAS_Converged/rmg_rxn_1349/output/Species/rmg_rxn_1349_r2_COCCC=O/arkane/output.py

>  <path_exists>  (1) 
True

>  <E0_value>  (1) 
-807523.0692133828

>  <E0_units>  (1) 
kJ/mol

>  <thermo_class>  (1) 
NASA

>  <Cp0_value>  (1) 
33.257888

>  <Cp0_units>  (1) 
J/(mol*K)

>  <CpInf_value>  (1) 
332.57888

>  <CpInf_units>  (1) 
J/(mol*K)

>  <Tmin_value>  (1) 
10.0

>  <Tmin_units>  (1) 
K

>  <Tmax_value>  (1) 
3000.0

>  <Tmax_units>  (1) 
K

>  <polynomials>  (1) 
[{"name": "polynomial1", "class": "NASAPolynomial", "Tmin_value": 10.0, "Tmin_units": "K", "Tmax_value": 1204.677878169956, "Tmax_units": "K", "coeffs": [3.790465311208139, 0.030699920677143125, 9.705173370391078e-06, -2.2350985107123487e-08, 7.493684368045059e-12, -97122593.77472001, 10.236283451255074]}, {"name": "polynomial2", "class": "NASAPolynomial", "Tmin_value": 1204.677878169956, "Tmin_units": "K", "Tmax_value": 3000.0, "Tmax_units": "K", "coeffs": [7.657827754436762, 0.03474573361246971, -1.635919198395561e-05, 3.709149991149387e-09, -3.292149943200658e-13, -97124750.91916926, -14.227492678605005]}]

>  <H298_value>  (1) 
-192997.60667747093

>  <H298_units>  (1) 
kcal/mol

>  <S298_value>  (1) 
81.92862073686686

>  <S298_units>  (1) 
cal/(mol*K)

>  <Cp_T_value_list>  (1) 
[26.491706935587295, 32.55965635598301, 38.23623996575659, 43.41578980901889, 52.039814351960636, 58.3011782557252, 67.20727720396616, 71.77449485623696, 73.8671854880944]

>  <Cp_T_units>  (1) 
cal/(mol*K)

>  <T_list>  (1) 
[300.0, 400.0, 500.0, 600.0, 800.0, 1000.0, 1500.0, 2000.0, 2400.0]

>  <T_units>  (1) 
K

>  <yaml_path>  (1) 
/home/calvin/Dropbox/PersonalFolders/Calvin/ATLAS_Converged/rmg_rxn_1349/output/Species/rmg_rxn_1349_r2_COCCC=O/rmg_rxn_1349_r2_COCCC=O.yml

>  <frequencies_cm1>  (1) 
[119.45120964139998, 126.72334709527999, 181.116737815, 228.09378438912, 254.05098889872, 316.95257442992, 441.25187570724, 683.77319625368, 694.6779689418399, 886.61707562116, 906.60000290236, 959.42772096912, 1080.58194296988, 1116.1185920008797, 1122.2714108475998, 1168.5411579337601, 1202.02457835408, 1219.26071150728, 1296.5280303279199, 1314.7186744406, 1384.4597773505197, 1408.2744824402798, 1440.37763881128, 1463.0798922791998, 1479.6361938857199, 1483.0628195603997, 1499.1178312385598, 1681.9513153835596, 2935.04566356248, 2975.2106606991597, 2980.62871211664, 3013.01341488576, 3021.32933410828, 3049.1680925955598, 3058.9329457206, 3074.12271724844]

>  <ZPE_kJmol>  (1) 
306.640018612928

>  <E_elec_kJmol>  (1) 
-807829.7092319957

>  <E0_minus_Eelec_plus_ZPE_kJmol>  (1) 
0.0

>  <rxn>  (1) 
rmg_rxn_1349

>  <species_type>  (1) 
r1

>  <species_folder>  (1) 
rmg_rxn_1349_r2_COCCC=O

>  <frequencies_cm1_list>  (1) 
[119.45120964139998, 126.72334709527999, 181.116737815, 228.09378438912, 254.05098889872, 316.95257442992, 441.25187570724, 683.77319625368, 694.6779689418399, 886.61707562116, 906.60000290236, 959.42772096912, 1080.58194296988, 1116.1185920008797, 1122.2714108475998, 1168.5411579337601, 1202.02457835408, 1219.26071150728, 1296.5280303279199, 1314.7186744406, 1384.4597773505197, 1408.2744824402798, 1440.37763881128, 1463.0798922791998, 1479.6361938857199, 1483.0628195603997, 1499.1178312385598, 1681.9513153835596, 2935.04566356248, 2975.2106606991597, 2980.62871211664, 3013.01341488576, 3021.32933410828, 3049.1680925955598, 3058.9329457206, 3074.12271724844]

>  <E0_kJmol>  (1) 
-807523

>  <H298_kJmol>  (1) 
-807502

$$$$

     RDKit          3D

 11 10  0  0  0  0  0  0  0  0999 V2000
    0.5746    0.0416   -0.0079 C   0  0  0  0  0  0  0  0  0  1  0  0
   -0.2776    0.6543    1.0778 C   0  0  0  0  0  0  0  0  0  2  0  0
   -0.2395   -0.7182   -1.0528 C   0  0  0  0  0  0  0  0  0  3  0  0
    1.1706    0.8327   -0.4979 H   0  0  0  0  0  0  0  0  0  4  0  0
    1.3162   -0.6434    0.4450 H   0  0  0  0  0  0  0  0  0  5  0  0
   -0.8691    1.4373    0.5831 H   0  0  0  0  0  0  0  0  0  6  0  0
   -1.0457   -0.0167    1.4877 H   0  0  0  0  0  0  0  0  0  7  0  0
    0.2714    1.1975    1.8594 H   0  0  0  0  0  0  0  0  0  8  0  0
    0.4039   -1.1211   -1.8497 H   0  0  0  0  0  0  0  0  0  9  0  0
   -0.9973   -0.0674   -1.5152 H   0  0  0  0  0  0  0  0  0 10  0  0
   -0.7812   -1.5562   -0.5890 H   0  0  0  0  0  0  0  0  0 11  0  0
  1  5  1  0
  1  3  1  0
  1  4  1  0
  1  2  1  0
  2  7  1  0
  2  8  1  0
  2  6  1  0
  3 11  1  0
  3  9  1  0
  3 10  1  0
M  END
>  <rmg_smiles>  (2) 
CCC

>  <rmg_adjacency_list>  (2) 
1  C u0 p0 c0 {2,S} {3,S} {4,S} {5,S}
2  C u0 p0 c0 {1,S} {6,S} {7,S} {8,S}
3  C u0 p0 c0 {1,S} {9,S} {10,S} {11,S}
4  H u0 p0 c0 {1,S}
5  H u0 p0 c0 {1,S}
6  H u0 p0 c0 {2,S}
7  H u0 p0 c0 {2,S}
8  H u0 p0 c0 {2,S}
9  H u0 p0 c0 {3,S}
10 H u0 p0 c0 {3,S}
11 H u0 p0 c0 {3,S}


>  <multiplicity>  (2) 
1

>  <reaction>  (2) 
rmg_rxn_1349

>  <type>  (2) 
r2h

>  <role_mapnums>  (2) 
{"r2h_a": 2, "r2h_h": 6}

>  <role_mapidx>  (2) 
{"r2h_a": 1, "r2h_h": 5}

>  <ordered_mapped_smiles>  (2) 
[C:1]([C:2]([H:6])([H:7])[H:8])([C:3]([H:9])([H:10])[H:11])([H:4])[H:5]

>  <mol_properties>  (2) 
{"1": {"label": "acceptor", "atom_type": "Cs"}, "5": {"label": "a_hydrogen", "atom_type": "H0"}}

>  <level_of_theory>  (2) 
wb97xd/def2tzvp

>  <lot_method>  (2) 
wb97xd

>  <lot_basis>  (2) 
def2tzvp

>  <spin_multiplicity>  (2) 
1.0

>  <optical_isomers>  (2) 
1.0

>  <modes>  (2) 
IdealGasTranslation(mass=(44.0626, 'amu')),         NonlinearRotor(             inertia = ([17.2379, 58.7077, 66.4771

>  <frequency_value>  (2) 
unknown

>  <frequency_units>  (2) 
unknown

>  <frequency_list>  (2) 
unknown

>  <arkane_path>  (2) 
/home/calvin/Dropbox/PersonalFolders/Calvin/ATLAS_Converged/rmg_rxn_1349/output/Species/rmg_rxn_1349_p1_CCC/arkane/output.py

>  <path_exists>  (2) 
True

>  <E0_value>  (2) 
-312559.5659093317

>  <E0_units>  (2) 
kJ/mol

>  <thermo_class>  (2) 
NASA

>  <Cp0_value>  (2) 
33.257888

>  <Cp0_units>  (2) 
J/(mol*K)

>  <CpInf_value>  (2) 
257.748632

>  <CpInf_units>  (2) 
J/(mol*K)

>  <Tmin_value>  (2) 
10.0

>  <Tmin_units>  (2) 
K

>  <Tmax_value>  (2) 
3000.0

>  <Tmax_units>  (2) 
K

>  <polynomials>  (2) 
[{"name": "polynomial1", "class": "NASAPolynomial", "Tmin_value": 10.0, "Tmin_units": "K", "Tmax_value": 585.6824430343231, "Tmax_units": "K", "coeffs": [4.008202975527919, -0.0009457141465395142, 8.161989586923781e-05, -1.1122965769608417e-07, 4.923946740202523e-11, -37592232.021237314, 6.616248049024993]}, {"name": "polynomial2", "class": "NASAPolynomial", "Tmin_value": 585.6824430343231, "Tmin_units": "K", "Tmax_value": 3000.0, "Tmax_units": "K", "coeffs": [-1.8508470213293426, 0.03906904734742861, -2.0861381263097234e-05, 5.420762402257517e-09, -5.525076113063814e-13, -37591545.705176346, 31.748381446102744]}]

>  <H298_value>  (2) 
-74700.19672781977

>  <H298_units>  (2) 
kcal/mol

>  <S298_value>  (2) 
63.410800848769775

>  <S298_units>  (2) 
cal/(mol*K)

>  <Cp_T_value_list>  (2) 
[16.8235278583958, 21.523300327793564, 26.06038377848225, 30.165325355768932, 36.966472548440194, 42.178604745847444, 50.30140199329152, 54.38527147206227, 56.35529539863589]

>  <Cp_T_units>  (2) 
cal/(mol*K)

>  <T_list>  (2) 
[300.0, 400.0, 500.0, 600.0, 800.0, 1000.0, 1500.0, 2000.0, 2400.0]

>  <T_units>  (2) 
K

>  <yaml_path>  (2) 
/home/calvin/Dropbox/PersonalFolders/Calvin/ATLAS_Converged/rmg_rxn_1349/output/Species/rmg_rxn_1349_p1_CCC/rmg_rxn_1349_p1_CCC.yml

>  <frequencies_cm1>  (2) 
[271.417594773, 314.84440993668, 381.36489673152, 768.47746017588, 892.2686045395199, 921.1099428835199, 942.76154759748, 1072.3140926446, 1180.8536626125199, 1216.2461049518, 1314.18991657096, 1363.70088072816, 1401.7302454303199, 1413.8779424613997, 1479.3134455756797, 1480.4602321241198, 1484.0516654464798, 1497.8131040277597, 1499.42684557796, 2983.0939598465197, 2985.0373166920795, 2989.12317295748, 3021.7756881540795, 3055.65052673764, 3056.2891563723997, 3059.4411026342796, 3066.5278314845195]

>  <ZPE_kJmol>  (2) 
269.8367053756118

>  <E_elec_kJmol>  (2) 
-312829.40261470736

>  <E0_minus_Eelec_plus_ZPE_kJmol>  (2) 
0.0

>  <rxn>  (2) 
rmg_rxn_1349

>  <species_type>  (2) 
p0

>  <species_folder>  (2) 
rmg_rxn_1349_p1_CCC

>  <frequencies_cm1_list>  (2) 
[271.417594773, 314.84440993668, 381.36489673152, 768.47746017588, 892.2686045395199, 921.1099428835199, 942.76154759748, 1072.3140926446, 1180.8536626125199, 1216.2461049518, 1314.18991657096, 1363.70088072816, 1401.7302454303199, 1413.8779424613997, 1479.3134455756797, 1480.4602321241198, 1484.0516654464798, 1497.8131040277597, 1499.42684557796, 2983.0939598465197, 2985.0373166920795, 2989.12317295748, 3021.7756881540795, 3055.65052673764, 3056.2891563723997, 3059.4411026342796, 3066.5278314845195]

>  <E0_kJmol>  (2) 
-312560

>  <H298_kJmol>  (2) 
-312546

$$$$

     RDKit          3D

 24 22  0  0  0  0  0  0  0  0999 V2000
   -0.6469    1.2626   -0.6636 O   0  0  0  0  0  0  0  0  0  1  0  0
   -0.9544   -1.7484    0.5910 O   0  0  0  0  0  0  0  0  0  2  0  0
    2.7919   -0.3726    0.0520 C   0  0  0  0  0  0  0  0  0  3  0  0
   -2.5244   -0.0779   -0.1378 C   0  0  0  0  0  0  0  0  0  4  0  0
   -1.5987    1.0209    0.3380 C   0  0  0  0  0  0  0  0  0  5  0  0
    1.9397    0.2400    1.1378 C   0  0  0  0  0  3  0  0  0  6  0  0
    1.9779   -1.1325   -0.9929 C   0  0  0  0  0  0  0  0  0  7  0  0
   -1.9227   -1.4615   -0.0598 C   0  0  0  0  0  0  0  0  0  8  0  0
    0.4338    2.0088   -0.2449 C   0  0  0  0  0  0  0  0  0  9  0  0
    3.3880    0.4184   -0.4379 H   0  0  0  0  0  0  0  0  0 10  0  0
    3.5335   -1.0577    0.5049 H   0  0  0  0  0  0  0  0  0 11  0  0
   -3.4442   -0.1042    0.4737 H   0  0  0  0  0  0  0  0  0 12  0  0
   -2.8525    0.1169   -1.1717 H   0  0  0  0  0  0  0  0  0 13  0  0
   -1.1053    0.7081    1.2763 H   0  0  0  0  0  0  0  0  0 14  0  0
   -2.1730    1.9442    0.5487 H   0  0  0  0  0  0  0  0  0 15  0  0
    1.1952    1.2256    0.5150 H   0  0  0  0  0  0  0  0  0 16  0  0
    1.1716   -0.4309    1.5477 H   0  0  0  0  0  0  0  0  0 17  0  0
    2.4887    0.7832    1.9193 H   0  0  0  0  0  0  0  0  0 18  0  0
    2.6213   -1.5354   -1.7897 H   0  0  0  0  0  0  0  0  0 19  0  0
    1.2201   -0.4816   -1.4553 H   0  0  0  0  0  0  0  0  0 20  0  0
    1.4361   -1.9705   -0.5291 H   0  0  0  0  0  0  0  0  0 21  0  0
   -2.4719   -2.2481   -0.6363 H   0  0  0  0  0  0  0  0  0 22  0  0
    1.0557    2.2786   -1.1080 H   0  0  0  0  0  0  0  0  0 23  0  0
    0.1624    2.8884    0.3676 H   0  0  0  0  0  0  0  0  0 24  0  0
  1  9  1  0
  1  5  1  0
  2  8  1  0
  3  7  1  0
  3 11  1  0
  3  6  1  0
  3 10  1  0
  4 12  1  0
  4  5  1  0
  4 13  1  0
  4  8  1  0
  5 14  1  0
  5 15  1  0
  6 17  1  0
  6 18  1  0
  7 20  1  0
  7 21  1  0
  7 19  1  0
  8 22  1  0
  9 24  1  0
  9 16  1  0
  9 23  1  0
M  RAD  1   6   2
M  END
>  <rmg_smiles>  (3) 
COCC[CH]O.[CH2]CC

>  <rmg_adjacency_list>  (3) 
multiplicity 2
1  O u0 p2 c0 {5,S} {7,S}
2  O u0 p2 c0 {9,S}
3  C u0 p0 c0 {5,S} {9,S} {12,S} {13,S}
4  C u0 p0 c0 {6,S} {8,S} {10,S} {11,S}
5  C u0 p0 c0 {1,S} {3,S} {14,S} {15,S}
6  C u0 p0 c0 {4,S} {16,S} {17,S} {18,S}
7  C u0 p0 c0 {1,S} {19,S} {20,S} {21,S}
8  C u1 p0 c0 {4,S} {22,S} {23,S}
9  C u0 p0 c0 {2,S} {3,S} {24,S}
10 H u0 p0 c0 {4,S}
11 H u0 p0 c0 {4,S}
12 H u0 p0 c0 {3,S}
13 H u0 p0 c0 {3,S}
14 H u0 p0 c0 {5,S}
15 H u0 p0 c0 {5,S}
16 H u0 p0 c0 {6,S}
17 H u0 p0 c0 {6,S}
18 H u0 p0 c0 {6,S}
19 H u0 p0 c0 {7,S}
20 H u0 p0 c0 {7,S}
21 H u0 p0 c0 {7,S}
22 H u0 p0 c0 {8,S}
23 H u0 p0 c0 {8,S}
24 H u0 p0 c0 {9,S}


>  <multiplicity>  (3) 
2

>  <reaction>  (3) 
rmg_rxn_1349

>  <type>  (3) 
ts

>  <role_mapnums>  (3) 
{"*2": 16, "*1": 9, "*3": 6, "*0": 1, "*4": 3}

>  <role_mapidx>  (3) 
{"*2": 15, "*1": 8, "*3": 5, "*0": 0, "*4": 2}

>  <ordered_mapped_smiles>  (3) 
[O:1]([C:5]([C:4]([CH:8]([OH:2])[H:22])([H:12])[H:13])([H:14])[H:15])[C:9]([H:16])([H:23])[H:24].[C:3]([C:6]([H:17])[H:18])([C:7]([H:19])([H:20])[H:21])([H:10])[H:11]

>  <mol_properties>  (3) 
{"0": {"label": "*0", "atom_type": "O2s"}, "2": {"label": "*4", "atom_type": "Cs"}, "5": {"label": "*3", "atom_type": "Cs"}, "8": {"label": "*1", "atom_type": "Cs"}, "15": {"label": "*2", "atom_type": "H0"}}

>  <level_of_theory>  (3) 
wb97xd/def2tzvp

>  <lot_method>  (3) 
wb97xd

>  <lot_basis>  (3) 
def2tzvp

>  <spin_multiplicity>  (3) 
2.0

>  <optical_isomers>  (3) 
2.0

>  <modes>  (3) 
IdealGasTranslation(mass=(131.107, 'amu')),         NonlinearRotor(             inertia = ([272.114, 497.479, 649.796

>  <frequency_value>  (3) 
-1771.91

>  <frequency_units>  (3) 
cm^-1

>  <frequency_list>  (3) 
unknown

>  <arkane_path>  (3) 
/home/calvin/Dropbox/PersonalFolders/Calvin/ATLAS_Converged/rmg_rxn_1349/output/rxns/TS0/arkane/output.py

>  <path_exists>  (3) 
True

>  <E0_value>  (3) 
-1118300.0

>  <E0_units>  (3) 
kJ/mol

>  <thermo_class>  (3) 
unknown

>  <Cp0_value>  (3) 
unknown

>  <Cp0_units>  (3) 
unknown

>  <CpInf_value>  (3) 
unknown

>  <CpInf_units>  (3) 
unknown

>  <Tmin_value>  (3) 
unknown

>  <Tmin_units>  (3) 
unknown

>  <Tmax_value>  (3) 
unknown

>  <Tmax_units>  (3) 
unknown

>  <polynomials>  (3) 
unknown

>  <H298_value>  (3) 
unknown

>  <H298_units>  (3) 
unknown

>  <S298_value>  (3) 
unknown

>  <S298_units>  (3) 
unknown

>  <Cp_T_value_list>  (3) 
unknown

>  <Cp_T_units>  (3) 
unknown

>  <T_list>  (3) 
unknown

>  <T_units>  (3) 
unknown

>  <yaml_path>  (3) 
unknown

>  <frequencies_cm1>  (3) 
unknown

>  <ZPE_kJmol>  (3) 
unknown

>  <E_elec_kJmol>  (3) 
unknown

>  <E0_minus_Eelec_plus_ZPE_kJmol>  (3) 
unknown

>  <rxn>  (3) 
unknown

>  <species_type>  (3) 
unknown

>  <species_folder>  (3) 
unknown

>  <frequencies_cm1_list>  (3) 
[]

>  <ts_imag_freq_cm1>  (3) 
-1793.4337

>  <ts_freq_out_path>  (3) 
/home/calvin/Dropbox/PersonalFolders/Calvin/ATLAS_Converged/rmg_rxn_1349/output/rxns/TS0/geometry/freq.out

>  <E0_kJmol>  (3) 
-1.1183e+06

>  <H298_kJmol>  (3) 
unknown

$$$$

     RDKit          3D

 13 12  0  0  0  0  0  0  0  0999 V2000
   -2.7070   -0.4344   -0.2055 C   0  0  0  0  0  3  0  0  0  1  0  0
   -1.6720    0.4487    0.0704 O   0  0  0  0  0  0  0  0  0  2  0  0
   -0.3991   -0.2089    0.0000 C   0  0  0  0  0  0  0  0  0  3  0  0
    0.6760    0.8635    0.0035 C   0  0  0  0  0  0  0  0  0  4  0  0
    2.0575    0.2721   -0.0091 C   0  0  0  0  0  0  0  0  0  5  0  0
    2.2973   -0.9310   -0.0033 O   0  0  0  0  0  0  0  0  0  6  0  0
   -3.6755    0.0422    0.2382 H   0  0  0  0  0  0  0  0  0  7  0  0
   -2.5094   -1.4767    0.5114 H   0  0  0  0  0  0  0  0  0  8  0  0
   -0.3167   -0.8506   -0.8718 H   0  0  0  0  0  0  0  0  0  9  0  0
   -0.2954   -0.8300    0.9139 H   0  0  0  0  0  0  0  0  0 10  0  0
    0.5688    1.4911   -0.8987 H   0  0  0  0  0  0  0  0  0 11  0  0
    0.5799    1.5212    0.8631 H   0  0  0  0  0  0  0  0  0 12  0  0
    2.8808    1.0068   -0.0260 H   0  0  0  0  0  0  0  0  0 13  0  0
  1  8  1  0
  1  7  1  0
  1  2  1  0
  2  3  1  0
  3  4  1  0
  3  9  1  0
  3 10  1  0
  4  5  1  0
  4 12  1  0
  4 11  1  0
  5  6  1  0
  5 13  1  0
M  RAD  1   1   2
M  END
>  <rmg_smiles>  (4) 
[CH2]OCC[CH]O

>  <rmg_adjacency_list>  (4) 
multiplicity 2
1  O u0 p2 c0 {4,S} {6,S}
2  O u0 p2 c0 {5,S}
3  C u0 p0 c0 {4,S} {5,S} {7,S} {8,S}
4  C u0 p0 c0 {1,S} {3,S} {9,S} {10,S}
5  C u0 p0 c0 {2,S} {3,S} {11,S}
6  C u1 p0 c0 {1,S} {12,S} {13,S}
7  H u0 p0 c0 {3,S}
8  H u0 p0 c0 {3,S}
9  H u0 p0 c0 {4,S}
10 H u0 p0 c0 {4,S}
11 H u0 p0 c0 {5,S}
12 H u0 p0 c0 {6,S}
13 H u0 p0 c0 {6,S}


>  <multiplicity>  (4) 
2

>  <reaction>  (4) 
rmg_rxn_1349

>  <type>  (4) 
r1

>  <role_mapnums>  (4) 
{}

>  <role_mapidx>  (4) 
{}

>  <ordered_mapped_smiles>  (4) 
[C:1]([O:2][C:3]([C:4]([CH:5]([OH:6])[H:13])([H:11])[H:12])([H:9])[H:10])([H:7])[H:8]

>  <level_of_theory>  (4) 
wb97xd/def2tzvp

>  <lot_method>  (4) 
wb97xd

>  <lot_basis>  (4) 
def2tzvp

>  <spin_multiplicity>  (4) 
2.0

>  <optical_isomers>  (4) 
2.0

>  <modes>  (4) 
IdealGasTranslation(mass=(87.0446, 'amu')),         NonlinearRotor(             inertia = ([42.6978, 308.679, 343.305

>  <frequency_value>  (4) 
unknown

>  <frequency_units>  (4) 
unknown

>  <frequency_list>  (4) 
unknown

>  <arkane_path>  (4) 
/home/calvin/Dropbox/PersonalFolders/Calvin/ATLAS_Converged/rmg_rxn_1349/output/Species/rmg_rxn_1349_p2_sbr-CH2-sbrOCCC=O/arkane/output.py

>  <path_exists>  (4) 
True

>  <E0_value>  (4) 
-805817.2707726001

>  <E0_units>  (4) 
kJ/mol

>  <thermo_class>  (4) 
NASA

>  <Cp0_value>  (4) 
33.257888

>  <Cp0_units>  (4) 
J/(mol*K)

>  <CpInf_value>  (4) 
307.635464

>  <CpInf_units>  (4) 
J/(mol*K)

>  <Tmin_value>  (4) 
10.0

>  <Tmin_units>  (4) 
K

>  <Tmax_value>  (4) 
3000.0

>  <Tmax_units>  (4) 
K

>  <polynomials>  (4) 
[{"name": "polynomial1", "class": "NASAPolynomial", "Tmin_value": 10.0, "Tmin_units": "K", "Tmax_value": 848.7481586044175, "Tmax_units": "K", "coeffs": [3.8391832038762055, 0.017648908552463077, 5.587439355546979e-05, -8.223625298538009e-08, 3.285208394099403e-11, -96917433.13816744, 11.66847398088421]}, {"name": "polynomial2", "class": "NASAPolynomial", "Tmin_value": 848.7481586044175, "Tmin_units": "K", "Tmax_value": 3000.0, "Tmax_units": "K", "coeffs": [1.3874589095296035, 0.04688441111892003, -2.7041477707297145e-05, 7.435878454552619e-09, -7.904896269928865e-13, -96917653.80354828, 19.342890965820466]}]

>  <H298_value>  (4) 
-192590.4344562697

>  <H298_units>  (4) 
kcal/mol

>  <S298_value>  (4) 
80.72095618465457

>  <S298_units>  (4) 
cal/(mol*K)

>  <Cp_T_value_list>  (4) 
[24.26036193304411, 30.635853978169912, 36.57644235906376, 41.806670424041755, 49.81762549684448, 55.394933517948274, 63.521029559920144, 67.22632935172831, 68.99217135295126]

>  <Cp_T_units>  (4) 
cal/(mol*K)

>  <T_list>  (4) 
[300.0, 400.0, 500.0, 600.0, 800.0, 1000.0, 1500.0, 2000.0, 2400.0]

>  <T_units>  (4) 
K

>  <yaml_path>  (4) 
/home/calvin/Dropbox/PersonalFolders/Calvin/ATLAS_Converged/rmg_rxn_1349/output/Species/rmg_rxn_1349_p2_sbr-CH2-sbrOCCC=O/rmg_rxn_1349_p2_sbr-CH2-sbrOCCC=O.yml

>  <frequencies_cm1>  (4) 
[136.21352080751998, 205.837884967, 226.22596438207998, 282.70005165376, 343.22566026423993, 493.44783112455997, 683.39551206108, 700.78271889132, 817.63820808176, 887.17330143208, 910.562253432, 984.2175379743198, 1086.60428909552, 1114.2507719938399, 1134.06202464204, 1217.44096039748, 1289.09108522636, 1298.6842637184, 1307.69374845824, 1330.11445552804, 1385.4142883099998, 1413.0882391496, 1444.51843095924, 1495.6843385785598, 1501.4457392620398, 1681.2783508221999, 1686.83374194608, 2455.7712901383993, 2883.4128009413994, 2934.66797936988, 2953.5727899558397, 3113.5117450439598, 3127.9392812012798]

>  <ZPE_kJmol>  (4) 
266.3276965840741

>  <E_elec_kJmol>  (4) 
-806083.5984691841

>  <E0_minus_Eelec_plus_ZPE_kJmol>  (4) 
0.0

>  <rxn>  (4) 
rmg_rxn_1349

>  <species_type>  (4) 
p1

>  <species_folder>  (4) 
rmg_rxn_1349_p2_sbr-CH2-sbrOCCC=O

>  <frequencies_cm1_list>  (4) 
[136.21352080751998, 205.837884967, 226.22596438207998, 282.70005165376, 343.22566026423993, 493.44783112455997, 683.39551206108, 700.78271889132, 817.63820808176, 887.17330143208, 910.562253432, 984.2175379743198, 1086.60428909552, 1114.2507719938399, 1134.06202464204, 1217.44096039748, 1289.09108522636, 1298.6842637184, 1307.69374845824, 1330.11445552804, 1385.4142883099998, 1413.0882391496, 1444.51843095924, 1495.6843385785598, 1501.4457392620398, 1681.2783508221999, 1686.83374194608, 2455.7712901383993, 2883.4128009413994, 2934.66797936988, 2953.5727899558397, 3113.5117450439598, 3127.9392812012798]

>  <E0_kJmol>  (4) 
-805817

>  <H298_kJmol>  (4) 
-805798

$$$$

     RDKit          3D

 10  9  0  0  0  0  0  0  0  0999 V2000
    1.2870   -0.2956   -0.0394 C   0  0  0  0  0  3  0  0  0  1  0  0
    0.0720    0.5613    0.0693 C   0  0  0  0  0  0  0  0  0  2  0  0
   -1.2083   -0.2490   -0.0463 C   0  0  0  0  0  0  0  0  0  3  0  0
    2.2172    0.1336   -0.3943 H   0  0  0  0  0  0  0  0  0  4  0  0
    1.3124   -1.2810    0.4124 H   0  0  0  0  0  0  0  0  0  5  0  0
    0.0904    1.0882    1.0291 H   0  0  0  0  0  0  0  0  0  6  0  0
    0.0952    1.3176   -0.7226 H   0  0  0  0  0  0  0  0  0  7  0  0
   -1.2797   -0.9941    0.7534 H   0  0  0  0  0  0  0  0  0  8  0  0
   -2.0801    0.4089    0.0267 H   0  0  0  0  0  0  0  0  0  9  0  0
   -1.2595   -0.7737   -1.0064 H   0  0  0  0  0  0  0  0  0 10  0  0
  1  5  1  0
  1  4  1  0
  1  2  1  0
  2  7  1  0
  2  6  1  0
  2  3  1  0
  3  8  1  0
  3  9  1  0
  3 10  1  0
M  RAD  1   1   2
M  END
>  <rmg_smiles>  (5) 
[CH2]CC

>  <rmg_adjacency_list>  (5) 
multiplicity 2
1  C u0 p0 c0 {2,S} {3,S} {4,S} {5,S}
2  C u0 p0 c0 {1,S} {6,S} {7,S} {8,S}
3  C u1 p0 c0 {1,S} {9,S} {10,S}
4  H u0 p0 c0 {1,S}
5  H u0 p0 c0 {1,S}
6  H u0 p0 c0 {2,S}
7  H u0 p0 c0 {2,S}
8  H u0 p0 c0 {2,S}
9  H u0 p0 c0 {3,S}
10 H u0 p0 c0 {3,S}


>  <multiplicity>  (5) 
2

>  <reaction>  (5) 
rmg_rxn_1349

>  <type>  (5) 
r2

>  <role_mapnums>  (5) 
{}

>  <role_mapidx>  (5) 
{}

>  <ordered_mapped_smiles>  (5) 
[C:1]([C:2]([C:3]([H:8])([H:9])[H:10])([H:6])[H:7])([H:4])[H:5]

>  <level_of_theory>  (5) 
wb97xd/def2tzvp

>  <lot_method>  (5) 
wb97xd

>  <lot_basis>  (5) 
def2tzvp

>  <spin_multiplicity>  (5) 
2.0

>  <optical_isomers>  (5) 
2.0

>  <modes>  (5) 
IdealGasTranslation(mass=(43.0548, 'amu')),         NonlinearRotor(             inertia = ([15.5717, 55.3567, 63.7277

>  <frequency_value>  (5) 
unknown

>  <frequency_units>  (5) 
unknown

>  <frequency_list>  (5) 
unknown

>  <arkane_path>  (5) 
/home/calvin/Dropbox/PersonalFolders/Calvin/ATLAS_Converged/rmg_rxn_1349/output/Species/rmg_rxn_1349_r1_sbr-CH2-sbrCC/arkane/output.py

>  <path_exists>  (5) 
True

>  <E0_value>  (5) 
-310827.67646916874

>  <E0_units>  (5) 
kJ/mol

>  <thermo_class>  (5) 
NASA

>  <Cp0_value>  (5) 
33.257888

>  <Cp0_units>  (5) 
J/(mol*K)

>  <CpInf_value>  (5) 
232.805216

>  <CpInf_units>  (5) 
J/(mol*K)

>  <Tmin_value>  (5) 
10.0

>  <Tmin_units>  (5) 
K

>  <Tmax_value>  (5) 
3000.0

>  <Tmax_units>  (5) 
K

>  <polynomials>  (5) 
[{"name": "polynomial1", "class": "NASAPolynomial", "Tmin_value": 10.0, "Tmin_units": "K", "Tmax_value": 449.5475147590233, "Tmax_units": "K", "coeffs": [3.958967903427211, 0.0024484566568562143, 8.273868588255916e-05, -1.4401432260533936e-07, 8.217877668166103e-11, -37383932.168525934, 8.604351008656966]}, {"name": "polynomial2", "class": "NASAPolynomial", "Tmin_value": 449.5475147590233, "Tmin_units": "K", "Tmax_value": 3000.0, "Tmax_units": "K", "coeffs": [0.5825602079008378, 0.03249047386896289, -1.749981599537456e-05, 4.633148660872275e-09, -4.84335375079796e-13, -37383628.590271786, 22.194161250654254]}]

>  <H298_value>  (5) 
-74286.06964265722

>  <H298_units>  (5) 
kcal/mol

>  <S298_value>  (5) 
68.46722126694029

>  <S298_units>  (5) 
cal/(mol*K)

>  <Cp_T_value_list>  (5) 
[17.72041321748369, 21.98526108565582, 25.837094092198154, 29.241546962069343, 34.87317968454517, 39.19174894512068, 45.96133193168872, 49.44183138348232, 51.15132946751427]

>  <Cp_T_units>  (5) 
cal/(mol*K)

>  <T_list>  (5) 
[300.0, 400.0, 500.0, 600.0, 800.0, 1000.0, 1500.0, 2000.0, 2400.0]

>  <T_units>  (5) 
K

>  <yaml_path>  (5) 
/home/calvin/Dropbox/PersonalFolders/Calvin/ATLAS_Converged/rmg_rxn_1349/output/Species/rmg_rxn_1349_r1_sbr-CH2-sbrCC/rmg_rxn_1349_r1_sbr-CH2-sbrCC.yml

>  <frequencies_cm1>  (5) 
[200.21382398991997, 294.06491235835995, 376.30392855068, 516.5621037116799, 759.95553139376, 899.8497563328, 929.06191188408, 1051.11570896176, 1083.1639294501997, 1174.34376052916, 1262.05576402152, 1350.52313589908, 1408.63843266224, 1449.1330450942799, 1453.2601032716, 1488.9272250236797, 1491.90062966724, 2981.91283837148, 2983.8630622023597, 3022.9156077172, 3056.5638357852, 3057.4565438767995, 3100.65674852492, 3206.21604686396]

>  <ZPE_kJmol>  (5) 
230.87131336479447

>  <E_elec_kJmol>  (5) 
-311058.5477825335

>  <E0_minus_Eelec_plus_ZPE_kJmol>  (5) 
0.0

>  <rxn>  (5) 
rmg_rxn_1349

>  <species_type>  (5) 
r0

>  <species_folder>  (5) 
rmg_rxn_1349_r1_sbr-CH2-sbrCC

>  <frequencies_cm1_list>  (5) 
[200.21382398991997, 294.06491235835995, 376.30392855068, 516.5621037116799, 759.95553139376, 899.8497563328, 929.06191188408, 1051.11570896176, 1083.1639294501997, 1174.34376052916, 1262.05576402152, 1350.52313589908, 1408.63843266224, 1449.1330450942799, 1453.2601032716, 1488.9272250236797, 1491.90062966724, 2981.91283837148, 2983.8630622023597, 3022.9156077172, 3056.5638357852, 3057.4565438767995, 3100.65674852492, 3206.21604686396]

>  <E0_kJmol>  (5) 
-310828

>  <H298_kJmol>  (5) 
-310813

$$$$
