
     RDKit          3D

  8  7  0  0  0  0  0  0  0  0999 V2000
   -0.2400   -0.5643   -1.1138 C   0  0  0  0  0  0  0  0  0  1  0  0
    0.2828   -0.2150    0.2478 C   0  0  0  0  0  0  0  0  0  2  0  0
   -0.0700    0.8193    0.8659 N   0  0  0  0  0  0  0  0  0  3  0  0
    0.5888   -0.6420   -1.8216 H   0  0  0  0  0  0  0  0  0  4  0  0
   -0.7332   -1.5389   -1.0853 H   0  0  0  0  0  0  0  0  0  5  0  0
   -0.9444    0.1892   -1.4613 H   0  0  0  0  0  0  0  0  0  6  0  0
    1.0022   -0.9235    0.6864 H   0  0  0  0  0  0  0  0  0  7  0  0
    0.4409    0.8122    1.7718 H   0  0  0  0  0  0  0  0  0  8  0  0
  1  5  1  0
  1  4  1  0
  1  6  1  0
  1  2  1  0
  2  3  1  0
  2  7  1  0
  3  8  1  0
M  END
>  <rmg_smiles>  (1) 
C[CH][NH]

>  <rmg_adjacency_list>  (1) 
1 N u0 p1 c0 {3,S} {8,S}
2 C u0 p0 c0 {3,S} {4,S} {5,S} {6,S}
3 C u0 p0 c0 {1,S} {2,S} {7,S}
4 H u0 p0 c0 {2,S}
5 H u0 p0 c0 {2,S}
6 H u0 p0 c0 {2,S}
7 H u0 p0 c0 {3,S}
8 H u0 p0 c0 {1,S}


>  <multiplicity>  (1) 
1

>  <reaction>  (1) 
rmg_rxn_16534

>  <type>  (1) 
r1h

>  <role_mapnums>  (1) 
{"r1h_a": 3, "r1h_h": 8}

>  <role_mapidx>  (1) 
{"r1h_a": 2, "r1h_h": 7}

>  <ordered_mapped_smiles>  (1) 
[C:1]([CH:2]([NH:3][H:8])[H:7])([H:4])([H:5])[H:6]

>  <mol_properties>  (1) 
{"2": {"label": "donator", "atom_type": "N3s"}, "7": {"label": "d_hydrogen", "atom_type": "H0"}}

>  <level_of_theory>  (1) 
wb97xd/def2tzvp

>  <lot_method>  (1) 
wb97xd

>  <lot_basis>  (1) 
def2tzvp

>  <spin_multiplicity>  (1) 
1.0

>  <optical_isomers>  (1) 
1.0

>  <modes>  (1) 
IdealGasTranslation(mass=(43.0422, 'amu')),         NonlinearRotor(             inertia = ([9.32783, 51.3348, 57.5532

>  <frequency_value>  (1) 
unknown

>  <frequency_units>  (1) 
unknown

>  <frequency_list>  (1) 
unknown

>  <arkane_path>  (1) 
/home/calvin/Dropbox/PersonalFolders/Calvin/ZEUS_Converged/rmg_rxn_16534/output/Species/rmg_rxn_16534_r1_CC=N/arkane/output.py

>  <path_exists>  (1) 
True

>  <E0_value>  (1) 
-351535.20335661684

>  <E0_units>  (1) 
kJ/mol

>  <thermo_class>  (1) 
NASA

>  <Cp0_value>  (1) 
33.257888

>  <Cp0_units>  (1) 
J/(mol*K)

>  <CpInf_value>  (1) 
182.918384

>  <CpInf_units>  (1) 
J/(mol*K)

>  <Tmin_value>  (1) 
10.0

>  <Tmin_units>  (1) 
K

>  <Tmax_value>  (1) 
3000.0

>  <Tmax_units>  (1) 
K

>  <polynomials>  (1) 
[{"name": "polynomial1", "class": "NASAPolynomial", "Tmin_value": 10.0, "Tmin_units": "K", "Tmax_value": 834.0183041901832, "Tmax_units": "K", "coeffs": [4.020859284868709, 0.0012406595733239277, 4.4482903010182226e-05, -5.482114439751344e-08, 2.0739201558559772e-11, -42279921.71645892, 6.726586383468645]}, {"name": "polynomial2", "class": "NASAPolynomial", "Tmin_value": 834.0183041901832, "Tmin_units": "K", "Tmax_value": 3000.0, "Tmax_units": "K", "coeffs": [0.8146767610859666, 0.025012560508124084, -1.3369721411120483e-05, 3.4917002293006827e-09, -3.579375529269218e-13, -42279678.881200545, 19.862274208798944]}]

>  <H298_value>  (1) 
-84015.86036687854

>  <H298_units>  (1) 
kcal/mol

>  <S298_value>  (1) 
62.66843297179497

>  <S298_units>  (1) 
cal/(mol*K)

>  <Cp_T_value_list>  (1) 
[14.078036689508782, 17.202765604471058, 20.2803800489589, 23.1023356383003, 27.639649626797436, 30.983090061901617, 36.21499785066487, 38.88468928045463, 40.19916387517873]

>  <Cp_T_units>  (1) 
cal/(mol*K)

>  <T_list>  (1) 
[300.0, 400.0, 500.0, 600.0, 800.0, 1000.0, 1500.0, 2000.0, 2400.0]

>  <T_units>  (1) 
K

>  <yaml_path>  (1) 
/home/calvin/Dropbox/PersonalFolders/Calvin/ZEUS_Converged/rmg_rxn_16534/output/Species/rmg_rxn_16534_r1_CC=N/rmg_rxn_16534_r1_CC=N.yml

>  <frequencies_cm1>  (1) 
[185.42920459596, 489.9250676554, 680.6761858743599, 921.32968641376, 1055.89513074448, 1069.62910138448, 1130.4431233784, 1267.5150173509198, 1378.7876474762, 1425.071128533, 1456.56312321052, 1463.3683056626398, 1737.36788691596, 2989.2124437666403, 3014.6889593038395, 3075.43431144456, 3123.3452680222, 3455.8927661138396]

>  <ZPE_kJmol>  (1) 
178.96482902382195

>  <E_elec_kJmol>  (1) 
-351714.16818564065

>  <E0_minus_Eelec_plus_ZPE_kJmol>  (1) 
0.0

>  <rxn>  (1) 
rmg_rxn_16534

>  <species_type>  (1) 
r0

>  <species_folder>  (1) 
rmg_rxn_16534_r1_CC=N

>  <frequencies_cm1_list>  (1) 
[185.42920459596, 489.9250676554, 680.6761858743599, 921.32968641376, 1055.89513074448, 1069.62910138448, 1130.4431233784, 1267.5150173509198, 1378.7876474762, 1425.071128533, 1456.56312321052, 1463.3683056626398, 1737.36788691596, 2989.2124437666403, 3014.6889593038395, 3075.43431144456, 3123.3452680222, 3455.8927661138396]

>  <E0_kJmol>  (1) 
-351535

>  <H298_kJmol>  (1) 
-351522

$$$$

     RDKit          3D

 15 14  0  0  0  0  0  0  0  0999 V2000
   -0.4271    2.3588   -1.4093 H   0  0  0  0  0  0  0  0  0  1  0  0
    0.1888    2.1420   -0.5352 C   0  0  0  0  0  0  0  0  0  2  0  0
    0.3708    0.7858   -0.4395 O   0  0  0  0  0  0  0  0  0  3  0  0
   -0.7693    0.0802    0.0189 C   0  0  0  0  0  0  0  0  0  4  0  0
   -0.4680   -1.4027    0.0215 C   0  0  0  0  0  0  0  0  0  5  0  0
    0.6575   -1.7880    0.9722 C   0  0  0  0  0  0  0  0  0  6  0  0
   -0.3737    2.5800    0.2957 H   0  0  0  0  0  0  0  0  0  7  0  0
    1.1394    2.6339   -0.7278 H   0  0  0  0  0  0  0  0  0  8  0  0
   -1.6211    0.3030   -0.6341 H   0  0  0  0  0  0  0  0  0  9  0  0
   -1.0222    0.4257    1.0309 H   0  0  0  0  0  0  0  0  0 10  0  0
   -0.2214   -1.7103   -0.9983 H   0  0  0  0  0  0  0  0  0 11  0  0
   -1.3877   -1.9271    0.2944 H   0  0  0  0  0  0  0  0  0 12  0  0
    0.8374   -2.8636    0.9499 H   0  0  0  0  0  0  0  0  0 13  0  0
    1.5849   -1.2829    0.7017 H   0  0  0  0  0  0  0  0  0 14  0  0
    0.4114   -1.5105    1.9999 H   0  0  0  0  0  0  0  0  0 15  0  0
  1  2  1  0
  2  8  1  0
  2  7  1  0
  2  3  1  0
  3  4  1  0
  4  5  1  0
  4  9  1  0
  4 10  1  0
  5 11  1  0
  5 12  1  0
  5  6  1  0
  6 15  1  0
  6 14  1  0
  6 13  1  0
M  END
>  <rmg_smiles>  (2) 
CCCOC

>  <rmg_adjacency_list>  (2) 
1  O u0 p2 c0 {3,S} {5,S}
2  C u0 p0 c0 {3,S} {4,S} {6,S} {7,S}
3  C u0 p0 c0 {1,S} {2,S} {8,S} {9,S}
4  C u0 p0 c0 {2,S} {10,S} {11,S} {12,S}
5  C u0 p0 c0 {1,S} {13,S} {14,S} {15,S}
6  H u0 p0 c0 {2,S}
7  H u0 p0 c0 {2,S}
8  H u0 p0 c0 {3,S}
9  H u0 p0 c0 {3,S}
10 H u0 p0 c0 {4,S}
11 H u0 p0 c0 {4,S}
12 H u0 p0 c0 {4,S}
13 H u0 p0 c0 {5,S}
14 H u0 p0 c0 {5,S}
15 H u0 p0 c0 {5,S}


>  <multiplicity>  (2) 
1

>  <reaction>  (2) 
rmg_rxn_16534

>  <type>  (2) 
r2h

>  <role_mapnums>  (2) 
{"r2h_a": 2, "r2h_h": 1}

>  <role_mapidx>  (2) 
{"r2h_a": 1, "r2h_h": 0}

>  <ordered_mapped_smiles>  (2) 
[H:1][C:2]([O:3][C:4]([C:5]([C:6]([H:13])([H:14])[H:15])([H:11])[H:12])([H:9])[H:10])([H:7])[H:8]

>  <mol_properties>  (2) 
{"0": {"label": "a_hydrogen", "atom_type": "H0"}, "1": {"label": "acceptor", "atom_type": "Cs"}}

>  <level_of_theory>  (2) 
wb97xd/def2tzvp

>  <lot_method>  (2) 
wb97xd

>  <lot_basis>  (2) 
def2tzvp

>  <spin_multiplicity>  (2) 
1.0

>  <optical_isomers>  (2) 
2.0

>  <modes>  (2) 
IdealGasTranslation(mass=(74.0732, 'amu')),         NonlinearRotor(             inertia = ([40.784, 192.218, 211.735

>  <frequency_value>  (2) 
unknown

>  <frequency_units>  (2) 
unknown

>  <frequency_list>  (2) 
unknown

>  <arkane_path>  (2) 
/home/calvin/Dropbox/PersonalFolders/Calvin/ZEUS_Converged/rmg_rxn_16534/output/Species/rmg_rxn_16534_p2_CCCOC/arkane/output.py

>  <path_exists>  (2) 
True

>  <E0_value>  (2) 
-613163.1274359095

>  <E0_units>  (2) 
kJ/mol

>  <thermo_class>  (2) 
NASA

>  <Cp0_value>  (2) 
33.257888

>  <Cp0_units>  (2) 
J/(mol*K)

>  <CpInf_value>  (2) 
357.522296

>  <CpInf_units>  (2) 
J/(mol*K)

>  <Tmin_value>  (2) 
10.0

>  <Tmin_units>  (2) 
K

>  <Tmax_value>  (2) 
3000.0

>  <Tmax_units>  (2) 
K

>  <polynomials>  (2) 
[{"name": "polynomial1", "class": "NASAPolynomial", "Tmin_value": 10.0, "Tmin_units": "K", "Tmax_value": 456.12560324554056, "Tmax_units": "K", "coeffs": [3.62223196701835, 0.03879795217402279, -8.359648491421e-05, 2.4522721819815076e-07, -2.187140949836333e-10, -73746489.62884024, 10.515609438787227]}, {"name": "polynomial2", "class": "NASAPolynomial", "Tmin_value": 456.12560324554056, "Tmin_units": "K", "Tmax_value": 3000.0, "Tmax_units": "K", "coeffs": [-2.20935170520275, 0.056485006605310945, -3.174876766111153e-05, 8.65420390010314e-09, -9.198389746305381e-13, -73745609.6450763, 37.88661603232218]}]

>  <H298_value>  (2) 
-146544.64412500645

>  <H298_units>  (2) 
kcal/mol

>  <S298_value>  (2) 
80.94634663649457

>  <S298_units>  (2) 
cal/(mol*K)

>  <Cp_T_value_list>  (2) 
[25.013931424396034, 31.51994949570118, 37.99587562842776, 43.72290058989096, 53.08549647523409, 60.13535702830284, 70.81347633831932, 76.07383878332065, 78.6922399009724]

>  <Cp_T_units>  (2) 
cal/(mol*K)

>  <T_list>  (2) 
[300.0, 400.0, 500.0, 600.0, 800.0, 1000.0, 1500.0, 2000.0, 2400.0]

>  <T_units>  (2) 
K

>  <yaml_path>  (2) 
/home/calvin/Dropbox/PersonalFolders/Calvin/ZEUS_Converged/rmg_rxn_16534/output/Species/rmg_rxn_16534_p2_CCCOC/rmg_rxn_16534_p2_CCCOC.yml

>  <frequencies_cm1>  (2) 
[91.63991909539999, 126.96369158147998, 202.90568223536002, 229.57705321824, 300.01172164547995, 354.24717170284, 509.22129640459997, 764.38473692516, 888.9449836446399, 924.72884414716, 957.6835066978399, 1072.9458552940398, 1116.4482072962398, 1154.8689901616399, 1177.001283848, 1188.20133690492, 1229.14230338276, 1271.07211574668, 1307.65941353164, 1369.5858871474, 1403.3027850685999, 1415.972372984, 1467.6807724436, 1468.93743075716, 1475.31686011944, 1481.9915698504797, 1490.39675988216, 1494.07059702836, 1510.75737135596, 2928.3984217727198, 2950.9908034755194, 2962.18398954712, 2998.10518975604, 3014.75762915704, 3020.7181724148, 3057.78615917216, 3085.0343569219203, 3099.33828734348, 3104.91427942332]

>  <ZPE_kJmol>  (2) 
356.89332738911673

>  <E_elec_kJmol>  (2) 
-613520.0207632986

>  <E0_minus_Eelec_plus_ZPE_kJmol>  (2) 
0.0

>  <rxn>  (2) 
rmg_rxn_16534

>  <species_type>  (2) 
p1

>  <species_folder>  (2) 
rmg_rxn_16534_p2_CCCOC

>  <frequencies_cm1_list>  (2) 
[91.63991909539999, 126.96369158147998, 202.90568223536002, 229.57705321824, 300.01172164547995, 354.24717170284, 509.22129640459997, 764.38473692516, 888.9449836446399, 924.72884414716, 957.6835066978399, 1072.9458552940398, 1116.4482072962398, 1154.8689901616399, 1177.001283848, 1188.20133690492, 1229.14230338276, 1271.07211574668, 1307.65941353164, 1369.5858871474, 1403.3027850685999, 1415.972372984, 1467.6807724436, 1468.93743075716, 1475.31686011944, 1481.9915698504797, 1490.39675988216, 1494.07059702836, 1510.75737135596, 2928.3984217727198, 2950.9908034755194, 2962.18398954712, 2998.10518975604, 3014.75762915704, 3020.7181724148, 3057.78615917216, 3085.0343569219203, 3099.33828734348, 3104.91427942332]

>  <E0_kJmol>  (2) 
-613163

>  <H298_kJmol>  (2) 
-613143

$$$$

     RDKit          3D

 22 20  0  0  0  0  0  0  0  0999 V2000
   -0.8767    0.4928   -3.3511 C   0  0  0  0  0  0  0  0  0  1  0  0
   -0.3539    0.8421   -1.9894 C   0  0  0  0  0  0  0  0  0  2  0  0
   -0.7067    1.8764   -1.3713 N   0  0  0  0  0  0  0  0  0  3  0  0
   -0.0480    0.4152   -4.0588 H   0  0  0  0  0  0  0  0  0  4  0  0
   -1.3700   -0.4818   -3.3225 H   0  0  0  0  0  0  0  0  0  5  0  0
   -1.5811    1.2464   -3.6985 H   0  0  0  0  0  0  0  0  0  6  0  0
    0.3654    0.1336   -1.5508 H   0  0  0  0  0  0  0  0  0  7  0  0
   -0.0887    1.8678   -0.2755 H   0  0  0  0  0  0  0  0  0  8  0  0
    0.6771    1.5983    0.8115 C   0  0  0  0  0  3  0  0  0  9  0  0
    0.8590    0.2421    0.9071 O   0  0  0  0  0  0  0  0  0 10  0  0
   -0.2810   -0.4636    1.3655 C   0  0  0  0  0  0  0  0  0 11  0  0
    0.0203   -1.9464    1.3682 C   0  0  0  0  0  0  0  0  0 12  0  0
    1.1458   -2.3317    2.3189 C   0  0  0  0  0  0  0  0  0 13  0  0
    0.1146    2.0362    1.6423 H   0  0  0  0  0  0  0  0  0 14  0  0
    1.6277    2.0901    0.6188 H   0  0  0  0  0  0  0  0  0 15  0  0
   -1.1328   -0.2407    0.7126 H   0  0  0  0  0  0  0  0  0 16  0  0
   -0.5340   -0.1181    2.3775 H   0  0  0  0  0  0  0  0  0 17  0  0
    0.2669   -2.2540    0.3483 H   0  0  0  0  0  0  0  0  0 18  0  0
   -0.8994   -2.4708    1.6411 H   0  0  0  0  0  0  0  0  0 19  0  0
    1.3257   -3.4073    2.2966 H   0  0  0  0  0  0  0  0  0 20  0  0
    2.0732   -1.8266    2.0484 H   0  0  0  0  0  0  0  0  0 21  0  0
    0.8997   -2.0542    3.3466 H   0  0  0  0  0  0  0  0  0 22  0  0
  1  4  1  0
  1  5  1  0
  1  6  1  0
  1  2  1  0
  2  3  1  0
  2  7  1  0
  3  8  1  0
  9 10  1  0
  9 15  1  0
  9 14  1  0
 10 11  1  0
 11 17  1  0
 11 12  1  0
 11 16  1  0
 12 19  1  0
 12 18  1  0
 12 13  1  0
 13 21  1  0
 13 20  1  0
 13 22  1  0
M  RAD  1   9   2
M  END
>  <rmg_smiles>  (3) 
CCCO[CH2].C[CH][NH]

>  <rmg_adjacency_list>  (3) 
multiplicity 2
1  O u0 p2 c0 {4,S} {8,S}
2  N u0 p1 c0 {7,S} {22,S}
3  C u0 p0 c0 {4,S} {5,S} {9,S} {10,S}
4  C u0 p0 c0 {1,S} {3,S} {11,S} {12,S}
5  C u0 p0 c0 {3,S} {13,S} {14,S} {15,S}
6  C u0 p0 c0 {7,S} {16,S} {17,S} {18,S}
7  C u0 p0 c0 {2,S} {6,S} {19,S}
8  C u1 p0 c0 {1,S} {20,S} {21,S}
9  H u0 p0 c0 {3,S}
10 H u0 p0 c0 {3,S}
11 H u0 p0 c0 {4,S}
12 H u0 p0 c0 {4,S}
13 H u0 p0 c0 {5,S}
14 H u0 p0 c0 {5,S}
15 H u0 p0 c0 {5,S}
16 H u0 p0 c0 {6,S}
17 H u0 p0 c0 {6,S}
18 H u0 p0 c0 {6,S}
19 H u0 p0 c0 {7,S}
20 H u0 p0 c0 {8,S}
21 H u0 p0 c0 {8,S}
22 H u0 p0 c0 {2,S}


>  <multiplicity>  (3) 
2

>  <reaction>  (3) 
rmg_rxn_16534

>  <type>  (3) 
ts

>  <role_mapnums>  (3) 
{"*2": 8, "*1": 3, "*3": 9, "*0": 2, "*4": 10}

>  <role_mapidx>  (3) 
{"*2": 7, "*1": 2, "*3": 8, "*0": 1, "*4": 9}

>  <ordered_mapped_smiles>  (3) 
[C:1]([CH:2]([NH:3][H:8])[H:7])([H:4])([H:5])[H:6].[C:9]([O:10][C:11]([C:12]([C:13]([H:20])([H:21])[H:22])([H:18])[H:19])([H:16])[H:17])([H:14])[H:15]

>  <mol_properties>  (3) 
{"1": {"label": "*0", "atom_type": "Cs"}, "2": {"label": "*1", "atom_type": "N3s"}, "7": {"label": "*2", "atom_type": "H0"}, "8": {"label": "*3", "atom_type": "Cs"}, "9": {"label": "*4", "atom_type": "O2s"}}

>  <level_of_theory>  (3) 
wb97xd/def2tzvp

>  <lot_method>  (3) 
wb97xd

>  <lot_basis>  (3) 
def2tzvp

>  <spin_multiplicity>  (3) 
2.0

>  <optical_isomers>  (3) 
2.0

>  <modes>  (3) 
IdealGasTranslation(mass=(116.108, 'amu')),         NonlinearRotor(             inertia = ([164.039, 598.322, 705.295

>  <frequency_value>  (3) 
-1857.07

>  <frequency_units>  (3) 
cm^-1

>  <frequency_list>  (3) 
unknown

>  <arkane_path>  (3) 
/home/calvin/Dropbox/PersonalFolders/Calvin/ZEUS_Converged/rmg_rxn_16534/output/rxns/TS0/arkane/output.py

>  <path_exists>  (3) 
True

>  <E0_value>  (3) 
-962959.0

>  <E0_units>  (3) 
kJ/mol

>  <thermo_class>  (3) 
unknown

>  <Cp0_value>  (3) 
unknown

>  <Cp0_units>  (3) 
unknown

>  <CpInf_value>  (3) 
unknown

>  <CpInf_units>  (3) 
unknown

>  <Tmin_value>  (3) 
unknown

>  <Tmin_units>  (3) 
unknown

>  <Tmax_value>  (3) 
unknown

>  <Tmax_units>  (3) 
unknown

>  <polynomials>  (3) 
unknown

>  <H298_value>  (3) 
unknown

>  <H298_units>  (3) 
unknown

>  <S298_value>  (3) 
unknown

>  <S298_units>  (3) 
unknown

>  <Cp_T_value_list>  (3) 
unknown

>  <Cp_T_units>  (3) 
unknown

>  <T_list>  (3) 
unknown

>  <T_units>  (3) 
unknown

>  <yaml_path>  (3) 
unknown

>  <frequencies_cm1>  (3) 
unknown

>  <ZPE_kJmol>  (3) 
unknown

>  <E_elec_kJmol>  (3) 
unknown

>  <E0_minus_Eelec_plus_ZPE_kJmol>  (3) 
unknown

>  <rxn>  (3) 
unknown

>  <species_type>  (3) 
unknown

>  <species_folder>  (3) 
unknown

>  <frequencies_cm1_list>  (3) 
[]

>  <ts_imag_freq_cm1>  (3) 
-1879.6252

>  <ts_freq_out_path>  (3) 
/home/calvin/Dropbox/PersonalFolders/Calvin/ZEUS_Converged/rmg_rxn_16534/output/rxns/TS0/geometry/freq.out

>  <E0_kJmol>  (3) 
-962959

>  <H298_kJmol>  (3) 
unknown

$$$$

     RDKit          3D

  7  6  0  0  0  0  0  0  0  0999 V2000
   -0.6441   -0.1356    0.0624 C   0  0  0  0  0  0  0  0  0  1  0  0
    0.8523    0.0148   -0.0333 C   0  0  0  0  0  0  0  0  0  2  0  0
    1.6700   -0.6077    0.6603 N   0  0  0  0  0  2  0  0  0  3  0  0
   -1.0940    0.8275    0.3091 H   0  0  0  0  0  0  0  0  0  4  0  0
   -0.9104   -0.8656    0.8237 H   0  0  0  0  0  0  0  0  0  5  0  0
   -1.0427   -0.4545   -0.9022 H   0  0  0  0  0  0  0  0  0  6  0  0
    1.2362    0.7308   -0.7748 H   0  0  0  0  0  0  0  0  0  7  0  0
  1  5  1  0
  1  4  1  0
  1  6  1  0
  1  2  1  0
  2  3  1  0
  2  7  1  0
M  RAD  1   3   2
M  END
>  <rmg_smiles>  (4) 
C[CH][N]

>  <rmg_adjacency_list>  (4) 
multiplicity 2
1 N u1 p2 c0 {3,S}
2 C u0 p0 c0 {3,S} {4,S} {5,S} {6,S}
3 C u0 p0 c0 {1,S} {2,S} {7,S}
4 H u0 p0 c0 {2,S}
5 H u0 p0 c0 {2,S}
6 H u0 p0 c0 {2,S}
7 H u0 p0 c0 {3,S}


>  <multiplicity>  (4) 
2

>  <reaction>  (4) 
rmg_rxn_16534

>  <type>  (4) 
r1

>  <role_mapnums>  (4) 
{}

>  <role_mapidx>  (4) 
{}

>  <ordered_mapped_smiles>  (4) 
[C:1]([CH:2]([NH:3])[H:7])([H:4])([H:5])[H:6]

>  <level_of_theory>  (4) 
wb97xd/def2tzvp

>  <lot_method>  (4) 
wb97xd

>  <lot_basis>  (4) 
def2tzvp

>  <spin_multiplicity>  (4) 
2.0

>  <optical_isomers>  (4) 
1.0

>  <modes>  (4) 
IdealGasTranslation(mass=(42.0344, 'amu')),         NonlinearRotor(             inertia = ([8.81492, 48.174, 53.8511

>  <frequency_value>  (4) 
unknown

>  <frequency_units>  (4) 
unknown

>  <frequency_list>  (4) 
unknown

>  <arkane_path>  (4) 
/home/calvin/Dropbox/PersonalFolders/Calvin/ZEUS_Converged/rmg_rxn_16534/output/Species/rmg_rxn_16534_p1_CC=sbr-N-sbr/arkane/output.py

>  <path_exists>  (4) 
True

>  <E0_value>  (4) 
-349854.82234455534

>  <E0_units>  (4) 
kJ/mol

>  <thermo_class>  (4) 
NASA

>  <Cp0_value>  (4) 
33.257888

>  <Cp0_units>  (4) 
J/(mol*K)

>  <CpInf_value>  (4) 
157.97496800000002

>  <CpInf_units>  (4) 
J/(mol*K)

>  <Tmin_value>  (4) 
10.0

>  <Tmin_units>  (4) 
K

>  <Tmax_value>  (4) 
3000.0

>  <Tmax_units>  (4) 
K

>  <polynomials>  (4) 
[{"name": "polynomial1", "class": "NASAPolynomial", "Tmin_value": 10.0, "Tmin_units": "K", "Tmax_value": 503.5856077016928, "Tmax_units": "K", "coeffs": [3.976811592049577, 0.0012685228752087534, 4.786155959427562e-05, -7.554553197268183e-08, 3.869280929218241e-11, -42077814.38325793, 7.559402827950991]}, {"name": "polynomial2", "class": "NASAPolynomial", "Tmin_value": 503.5856077016928, "Tmin_units": "K", "Tmax_value": 3000.0, "Tmax_units": "K", "coeffs": [1.4688672877735052, 0.02118998940112054, -1.1479594923736429e-05, 3.0156770231218235e-09, -3.096140671693614e-13, -42077561.800061174, 17.93823402033286]}]

>  <H298_value>  (4) 
-83614.2601862362

>  <H298_units>  (4) 
kcal/mol

>  <S298_value>  (4) 
63.84640386523673

>  <S298_units>  (4) 
cal/(mol*K)

>  <Cp_T_value_list>  (4) 
[13.788413560189577, 16.48922778111735, 18.980945997388957, 21.186536551582613, 24.822448324400693, 27.593007553675324, 31.86535612271467, 33.985319854322825, 35.01227851918305]

>  <Cp_T_units>  (4) 
cal/(mol*K)

>  <T_list>  (4) 
[300.0, 400.0, 500.0, 600.0, 800.0, 1000.0, 1500.0, 2000.0, 2400.0]

>  <T_units>  (4) 
K

>  <yaml_path>  (4) 
/home/calvin/Dropbox/PersonalFolders/Calvin/ZEUS_Converged/rmg_rxn_16534/output/Species/rmg_rxn_16534_p1_CC=sbr-N-sbr/rmg_rxn_16534_p1_CC=sbr-N-sbr.yml

>  <frequencies_cm1>  (4) 
[183.94593576684, 430.87586088872, 744.9511684695599, 909.3948659275999, 1050.2642027820798, 1063.7578289358798, 1237.9320445923597, 1377.0846351168398, 1461.72709617116, 1465.6893467008, 1739.36617964408, 2963.10416558, 3026.2186276561197, 3097.525403219, 3131.35217290532]

>  <ZPE_kJmol>  (4) 
142.8532380575317

>  <E_elec_kJmol>  (4) 
-349997.67558261286

>  <E0_minus_Eelec_plus_ZPE_kJmol>  (4) 
0.0

>  <rxn>  (4) 
rmg_rxn_16534

>  <species_type>  (4) 
p0

>  <species_folder>  (4) 
rmg_rxn_16534_p1_CC=sbr-N-sbr

>  <frequencies_cm1_list>  (4) 
[183.94593576684, 430.87586088872, 744.9511684695599, 909.3948659275999, 1050.2642027820798, 1063.7578289358798, 1237.9320445923597, 1377.0846351168398, 1461.72709617116, 1465.6893467008, 1739.36617964408, 2963.10416558, 3026.2186276561197, 3097.525403219, 3131.35217290532]

>  <E0_kJmol>  (4) 
-349855

>  <H298_kJmol>  (4) 
-349842

$$$$

     RDKit          3D

 14 13  0  0  0  0  0  0  0  0999 V2000
    2.7687   -0.0362   -0.0732 C   0  0  0  0  0  3  0  0  0  1  0  0
    1.6543    0.2105    0.6386 O   0  0  0  0  0  0  0  0  0  2  0  0
    1.8652    0.6968    1.9544 C   0  0  0  0  0  0  0  0  0  3  0  0
    0.5252    0.9355    2.6156 C   0  0  0  0  0  0  0  0  0  4  0  0
   -0.2992    2.0181    1.9317 C   0  0  0  0  0  0  0  0  0  5  0  0
    2.5851   -0.4757   -1.0422 H   0  0  0  0  0  0  0  0  0  6  0  0
    3.6974   -0.2083    0.4611 H   0  0  0  0  0  0  0  0  0  7  0  0
    2.4441    1.6271    1.9039 H   0  0  0  0  0  0  0  0  0  8  0  0
    2.4506   -0.0397    2.5179 H   0  0  0  0  0  0  0  0  0  9  0  0
    0.7150    1.2089    3.6572 H   0  0  0  0  0  0  0  0  0 10  0  0
   -0.0287   -0.0066    2.6327 H   0  0  0  0  0  0  0  0  0 11  0  0
   -0.5056    1.7522    0.8949 H   0  0  0  0  0  0  0  0  0 12  0  0
   -1.2524    2.1635    2.4416 H   0  0  0  0  0  0  0  0  0 13  0  0
    0.2319    2.9729    1.9340 H   0  0  0  0  0  0  0  0  0 14  0  0
  1  6  1  0
  1  7  1  0
  1  2  1  0
  2  3  1  0
  3  4  1  0
  3  9  1  0
  3  8  1  0
  4  5  1  0
  4 10  1  0
  4 11  1  0
  5 12  1  0
  5 14  1  0
  5 13  1  0
M  RAD  1   1   2
M  END
>  <rmg_smiles>  (5) 
[CH2]OCCC

>  <rmg_adjacency_list>  (5) 
multiplicity 2
1  O u0 p2 c0 {3,S} {5,S}
2  C u0 p0 c0 {3,S} {4,S} {6,S} {7,S}
3  C u0 p0 c0 {1,S} {2,S} {8,S} {9,S}
4  C u0 p0 c0 {2,S} {10,S} {11,S} {12,S}
5  C u1 p0 c0 {1,S} {13,S} {14,S}
6  H u0 p0 c0 {2,S}
7  H u0 p0 c0 {2,S}
8  H u0 p0 c0 {3,S}
9  H u0 p0 c0 {3,S}
10 H u0 p0 c0 {4,S}
11 H u0 p0 c0 {4,S}
12 H u0 p0 c0 {4,S}
13 H u0 p0 c0 {5,S}
14 H u0 p0 c0 {5,S}


>  <multiplicity>  (5) 
2

>  <reaction>  (5) 
rmg_rxn_16534

>  <type>  (5) 
r2

>  <role_mapnums>  (5) 
{}

>  <role_mapidx>  (5) 
{}

>  <ordered_mapped_smiles>  (5) 
[C:1]([O:2][C:3]([C:4]([C:5]([H:12])([H:13])[H:14])([H:10])[H:11])([H:8])[H:9])([H:6])[H:7]

>  <level_of_theory>  (5) 
wb97xd/def2tzvp

>  <lot_method>  (5) 
wb97xd

>  <lot_basis>  (5) 
def2tzvp

>  <spin_multiplicity>  (5) 
2.0

>  <optical_isomers>  (5) 
2.0

>  <modes>  (5) 
IdealGasTranslation(mass=(73.0653, 'amu')),         NonlinearRotor(             inertia = ([39.3229, 184.047, 204.898

>  <frequency_value>  (5) 
unknown

>  <frequency_units>  (5) 
unknown

>  <frequency_list>  (5) 
unknown

>  <arkane_path>  (5) 
/home/calvin/Dropbox/PersonalFolders/Calvin/ZEUS_Converged/rmg_rxn_16534/output/Species/rmg_rxn_16534_r2_sbr-CH2-sbrOCCC/arkane/output.py

>  <path_exists>  (5) 
True

>  <E0_value>  (5) 
-611455.1532625885

>  <E0_units>  (5) 
kJ/mol

>  <thermo_class>  (5) 
NASA

>  <Cp0_value>  (5) 
33.257888

>  <Cp0_units>  (5) 
J/(mol*K)

>  <CpInf_value>  (5) 
332.57888

>  <CpInf_units>  (5) 
J/(mol*K)

>  <Tmin_value>  (5) 
10.0

>  <Tmin_units>  (5) 
K

>  <Tmax_value>  (5) 
3000.0

>  <Tmax_units>  (5) 
K

>  <polynomials>  (5) 
[{"name": "polynomial1", "class": "NASAPolynomial", "Tmin_value": 10.0, "Tmin_units": "K", "Tmax_value": 1109.3056835189027, "Tmax_units": "K", "coeffs": [3.766077454752429, 0.02887154275827062, 1.3341842735734053e-05, -2.640470384303258e-08, 9.144010343931049e-12, -73541070.10703768, 11.047285254369589]}, {"name": "polynomial2", "class": "NASAPolynomial", "Tmin_value": 1109.3056835189027, "Tmin_units": "K", "Tmax_value": 3000.0, "Tmax_units": "K", "coeffs": [4.990743337834248, 0.03863055175051041, -1.9021631506903658e-05, 4.564123452357677e-09, -4.3134097115964196e-13, -73542213.97043335, 1.080843504244336]}]

>  <H298_value>  (5) 
-146136.37590473582

>  <H298_units>  (5) 
kcal/mol

>  <S298_value>  (5) 
82.43769476343623

>  <S298_units>  (5) 
cal/(mol*K)

>  <Cp_T_value_list>  (5) 
[25.81271075697348, 31.782536242597924, 37.37582139534663, 42.473983817866326, 50.92866332440899, 57.07012534981277, 66.28953861729629, 71.09599464983064, 73.37373385794714]

>  <Cp_T_units>  (5) 
cal/(mol*K)

>  <T_list>  (5) 
[300.0, 400.0, 500.0, 600.0, 800.0, 1000.0, 1500.0, 2000.0, 2400.0]

>  <T_units>  (5) 
K

>  <yaml_path>  (5) 
/home/calvin/Dropbox/PersonalFolders/Calvin/ZEUS_Converged/rmg_rxn_16534/output/Species/rmg_rxn_16534_r2_sbr-CH2-sbrOCCC/rmg_rxn_16534_r2_sbr-CH2-sbrOCCC.yml

>  <frequencies_cm1>  (5) 
[79.56089191752, 133.9748835932, 204.21040944615999, 276.052809864, 302.19542297723996, 360.72273885959993, 511.54233744275996, 544.8334822741199, 763.2310833913999, 886.9054890046, 919.7640137608, 955.60281014588, 1080.2385937038798, 1111.8129922052399, 1161.9831869531602, 1207.84091492012, 1267.4394805124, 1296.41129157748, 1308.06456566552, 1371.5429779635997, 1405.5826241948398, 1414.2350256980396, 1468.23699825452, 1474.5271568076398, 1482.83620904484, 1494.26973960264, 1500.99938521624, 2973.8097956938796, 3010.5481671558796, 3017.55249218228, 3026.25982956804, 3060.5123523442, 3088.9622725249596, 3092.3682972436795, 3104.9898162618397, 3239.2187783118798]

>  <ZPE_kJmol>  (5) 
320.59234556766944

>  <E_elec_kJmol>  (5) 
-611775.7456081562

>  <E0_minus_Eelec_plus_ZPE_kJmol>  (5) 
0.0

>  <rxn>  (5) 
rmg_rxn_16534

>  <species_type>  (5) 
r1

>  <species_folder>  (5) 
rmg_rxn_16534_r2_sbr-CH2-sbrOCCC

>  <frequencies_cm1_list>  (5) 
[79.56089191752, 133.9748835932, 204.21040944615999, 276.052809864, 302.19542297723996, 360.72273885959993, 511.54233744275996, 544.8334822741199, 763.2310833913999, 886.9054890046, 919.7640137608, 955.60281014588, 1080.2385937038798, 1111.8129922052399, 1161.9831869531602, 1207.84091492012, 1267.4394805124, 1296.41129157748, 1308.06456566552, 1371.5429779635997, 1405.5826241948398, 1414.2350256980396, 1468.23699825452, 1474.5271568076398, 1482.83620904484, 1494.26973960264, 1500.99938521624, 2973.8097956938796, 3010.5481671558796, 3017.55249218228, 3026.25982956804, 3060.5123523442, 3088.9622725249596, 3092.3682972436795, 3104.9898162618397, 3239.2187783118798]

>  <E0_kJmol>  (5) 
-611455

>  <H298_kJmol>  (5) 
-611435

$$$$
