
     RDKit          3D

 12 11  0  0  0  0  0  0  0  0999 V2000
    1.2399    1.1349    0.2645 C   0  0  0  0  0  0  0  0  0  1  0  0
   -0.3417    0.4905    0.7082 S   0  0  0  0  0  0  0  0  0  2  0  0
   -0.3104   -1.1295   -0.0972 C   0  0  0  0  0  0  0  0  0  3  0  0
   -0.2913   -1.0942   -1.6164 C   0  0  0  0  0  0  0  0  0  4  0  0
    1.2505    1.5521   -0.7413 H   0  0  0  0  0  0  0  0  0  5  0  0
    2.0311    0.3859    0.2622 H   0  0  0  0  0  0  0  0  0  6  0  0
    1.4843    1.9800    0.9053 H   0  0  0  0  0  0  0  0  0  7  0  0
   -1.2098   -1.6275    0.2693 H   0  0  0  0  0  0  0  0  0  8  0  0
    0.5467   -1.6845    0.2905 H   0  0  0  0  0  0  0  0  0  9  0  0
    0.6292   -0.6470   -1.9916 H   0  0  0  0  0  0  0  0  0 10  0  0
   -1.1375   -0.5230   -2.0013 H   0  0  0  0  0  0  0  0  0 11  0  0
   -0.3549   -2.1107   -2.0129 H   0  0  0  0  0  0  0  0  0 12  0  0
  1  5  1  0
  1  7  1  0
  1  2  1  0
  1  6  1  0
  2  3  1  0
  3  4  1  0
  3  9  1  0
  3  8  1  0
  4 12  1  0
  4 10  1  0
  4 11  1  0
M  END
>  <rmg_smiles>  (1) 
CSCC

>  <rmg_adjacency_list>  (1) 
1  S u0 p2 c0 {2,S} {4,S}
2  C u0 p0 c0 {1,S} {3,S} {5,S} {6,S}
3  C u0 p0 c0 {2,S} {7,S} {8,S} {9,S}
4  C u0 p0 c0 {1,S} {10,S} {11,S} {12,S}
5  H u0 p0 c0 {2,S}
6  H u0 p0 c0 {2,S}
7  H u0 p0 c0 {3,S}
8  H u0 p0 c0 {3,S}
9  H u0 p0 c0 {3,S}
10 H u0 p0 c0 {4,S}
11 H u0 p0 c0 {4,S}
12 H u0 p0 c0 {4,S}


>  <multiplicity>  (1) 
1

>  <reaction>  (1) 
rmg_rxn_653

>  <type>  (1) 
r1h

>  <role_mapnums>  (1) 
{"r1h_a": 1, "r1h_h": 5}

>  <role_mapidx>  (1) 
{"r1h_a": 0, "r1h_h": 4}

>  <ordered_mapped_smiles>  (1) 
[C:1]([S:2][C:3]([C:4]([H:10])([H:11])[H:12])([H:8])[H:9])([H:5])([H:6])[H:7]

>  <mol_properties>  (1) 
{"0": {"label": "donator", "atom_type": "Cs"}, "4": {"label": "d_hydrogen", "atom_type": "H0"}}

>  <level_of_theory>  (1) 
wb97xd/def2tzvp

>  <lot_method>  (1) 
wb97xd

>  <lot_basis>  (1) 
def2tzvp

>  <spin_multiplicity>  (1) 
1.0

>  <optical_isomers>  (1) 
2.0

>  <modes>  (1) 
IdealGasTranslation(mass=(76.0347, 'amu')),         NonlinearRotor(             inertia = ([52.0964, 128.386, 157.856

>  <frequency_value>  (1) 
unknown

>  <frequency_units>  (1) 
unknown

>  <frequency_list>  (1) 
unknown

>  <arkane_path>  (1) 
/home/calvin/Dropbox/PersonalFolders/Calvin/ATLAS_Converged/rmg_rxn_653/output/Species/rmg_rxn_653_r1_CSCC/arkane/output.py

>  <path_exists>  (1) 
True

>  <E0_value>  (1) 
-1358024.3823847063

>  <E0_units>  (1) 
kJ/mol

>  <thermo_class>  (1) 
NASA

>  <Cp0_value>  (1) 
33.257888

>  <Cp0_units>  (1) 
J/(mol*K)

>  <CpInf_value>  (1) 
282.692048

>  <CpInf_units>  (1) 
J/(mol*K)

>  <Tmin_value>  (1) 
10.0

>  <Tmin_units>  (1) 
K

>  <Tmax_value>  (1) 
3000.0

>  <Tmax_units>  (1) 
K

>  <polynomials>  (1) 
[{"name": "polynomial1", "class": "NASAPolynomial", "Tmin_value": 10.0, "Tmin_units": "K", "Tmax_value": 1066.2668684701744, "Tmax_units": "K", "coeffs": [3.7938912313276787, 0.023010100947195324, 1.342493384076101e-05, -2.4396686231991315e-08, 8.539069834136729e-12, -163332607.1869712, 10.299389825114616]}, {"name": "polynomial2", "class": "NASAPolynomial", "Tmin_value": 1066.2668684701744, "Tmin_units": "K", "Tmax_value": 3000.0, "Tmax_units": "K", "coeffs": [3.879217425430389, 0.03360306179863777, -1.6829239210706833e-05, 4.118007320046649e-09, -3.971168214124496e-13, -163333245.74928793, 6.973208429713539]}]

>  <H298_value>  (1) 
-324571.19408104627

>  <H298_units>  (1) 
kcal/mol

>  <S298_value>  (1) 
77.83544863665438

>  <S298_units>  (1) 
cal/(mol*K)

>  <Cp_T_value_list>  (1) 
[22.486476604271342, 27.42967621467206, 32.072084622248504, 36.30607837304303, 43.32195482949402, 48.43082491651662, 56.2496539809613, 60.32875481300712, 62.28322095230064]

>  <Cp_T_units>  (1) 
cal/(mol*K)

>  <T_list>  (1) 
[300.0, 400.0, 500.0, 600.0, 800.0, 1000.0, 1500.0, 2000.0, 2400.0]

>  <T_units>  (1) 
K

>  <yaml_path>  (1) 
/home/calvin/Dropbox/PersonalFolders/Calvin/ATLAS_Converged/rmg_rxn_653/output/Species/rmg_rxn_653_r1_CSCC/rmg_rxn_653_r1_CSCC.yml

>  <frequencies_cm1>  (1) 
[86.86049731268, 173.63172381619998, 227.43455379839997, 277.98929972423997, 356.053188842, 666.01517221616, 740.88591316012, 758.5958683004, 952.29292322164, 966.1504995974, 986.7445885720799, 1060.0221889218, 1079.9089784085197, 1272.4729807519598, 1296.60356716644, 1348.6278479507598, 1400.27444454248, 1452.28499135616, 1457.8541164506798, 1470.393231645, 1480.8997191846001, 1487.8971772256798, 3015.3687908505194, 3018.78854953988, 3025.31218559388, 3073.71756511456, 3086.881575973, 3099.52369594712, 3104.7151368490404, 3118.41477256244]

>  <ZPE_kJmol>  (1) 
272.4054138316235

>  <E_elec_kJmol>  (1) 
-1358296.787798538

>  <E0_minus_Eelec_plus_ZPE_kJmol>  (1) 
0.0

>  <rxn>  (1) 
rmg_rxn_653

>  <species_type>  (1) 
r0

>  <species_folder>  (1) 
rmg_rxn_653_r1_CSCC

>  <frequencies_cm1_list>  (1) 
[86.86049731268, 173.63172381619998, 227.43455379839997, 277.98929972423997, 356.053188842, 666.01517221616, 740.88591316012, 758.5958683004, 952.29292322164, 966.1504995974, 986.7445885720799, 1060.0221889218, 1079.9089784085197, 1272.4729807519598, 1296.60356716644, 1348.6278479507598, 1400.27444454248, 1452.28499135616, 1457.8541164506798, 1470.393231645, 1480.8997191846001, 1487.8971772256798, 3015.3687908505194, 3018.78854953988, 3025.31218559388, 3073.71756511456, 3086.881575973, 3099.52369594712, 3104.7151368490404, 3118.41477256244]

>  <E0_kJmol>  (1) 
-1.35802e+06

>  <H298_kJmol>  (1) 
-1.35801e+06

$$$$

     RDKit          3D

 15 14  0  0  0  0  0  0  0  0999 V2000
   -1.6423    1.3235    1.5564 H   0  0  0  0  0  0  0  0  0  1  0  0
   -1.5319    1.7495    0.5622 C   0  0  0  0  0  0  0  0  0  2  0  0
   -0.2025    1.2760    0.0715 C   0  0  0  0  0  0  0  0  0  3  0  0
   -0.1895   -0.1316    0.0662 O   0  0  0  0  0  0  0  0  0  4  0  0
    1.0170   -0.6839   -0.3973 C   0  0  0  0  0  0  0  0  0  5  0  0
    0.9134   -2.1904   -0.3401 C   0  0  0  0  0  0  0  0  0  6  0  0
   -2.3875    1.3458    0.0261 H   0  0  0  0  0  0  0  0  0  7  0  0
   -1.5953    2.8230    0.7218 H   0  0  0  0  0  0  0  0  0  8  0  0
    0.6035    1.6571    0.7173 H   0  0  0  0  0  0  0  0  0  9  0  0
    0.0012    1.6513   -0.9459 H   0  0  0  0  0  0  0  0  0 10  0  0
    1.2118   -0.3492   -1.4264 H   0  0  0  0  0  0  0  0  0 11  0  0
    1.8535   -0.3310    0.2233 H   0  0  0  0  0  0  0  0  0 12  0  0
    0.0895   -2.5400   -0.9633 H   0  0  0  0  0  0  0  0  0 13  0  0
    1.8372   -2.6479   -0.6972 H   0  0  0  0  0  0  0  0  0 14  0  0
    0.7355   -2.5228    0.6834 H   0  0  0  0  0  0  0  0  0 15  0  0
  1  2  1  0
  2  7  1  0
  2  8  1  0
  2  3  1  0
  3  4  1  0
  3  9  1  0
  3 10  1  0
  4  5  1  0
  5 11  1  0
  5 12  1  0
  5  6  1  0
  6 15  1  0
  6 14  1  0
  6 13  1  0
M  END
>  <rmg_smiles>  (2) 
CCOCC

>  <rmg_adjacency_list>  (2) 
1  O u0 p2 c0 {2,S} {3,S}
2  C u0 p0 c0 {1,S} {4,S} {6,S} {7,S}
3  C u0 p0 c0 {1,S} {5,S} {8,S} {9,S}
4  C u0 p0 c0 {2,S} {10,S} {11,S} {12,S}
5  C u0 p0 c0 {3,S} {13,S} {14,S} {15,S}
6  H u0 p0 c0 {2,S}
7  H u0 p0 c0 {2,S}
8  H u0 p0 c0 {3,S}
9  H u0 p0 c0 {3,S}
10 H u0 p0 c0 {4,S}
11 H u0 p0 c0 {4,S}
12 H u0 p0 c0 {4,S}
13 H u0 p0 c0 {5,S}
14 H u0 p0 c0 {5,S}
15 H u0 p0 c0 {5,S}


>  <multiplicity>  (2) 
1

>  <reaction>  (2) 
rmg_rxn_653

>  <type>  (2) 
r2h

>  <role_mapnums>  (2) 
{"r2h_a": 2, "r2h_h": 1}

>  <role_mapidx>  (2) 
{"r2h_a": 1, "r2h_h": 0}

>  <ordered_mapped_smiles>  (2) 
[H:1][C:2]([C:3]([O:4][C:5]([C:6]([H:13])([H:14])[H:15])([H:11])[H:12])([H:9])[H:10])([H:7])[H:8]

>  <mol_properties>  (2) 
{"0": {"label": "a_hydrogen", "atom_type": "H0"}, "1": {"label": "acceptor", "atom_type": "Cs"}}

>  <level_of_theory>  (2) 
wb97xd/def2tzvp

>  <lot_method>  (2) 
wb97xd

>  <lot_basis>  (2) 
def2tzvp

>  <spin_multiplicity>  (2) 
1.0

>  <optical_isomers>  (2) 
1.0

>  <modes>  (2) 
IdealGasTranslation(mass=(74.0732, 'amu')),         NonlinearRotor(             inertia = ([27.7055, 224.199, 239.286

>  <frequency_value>  (2) 
unknown

>  <frequency_units>  (2) 
unknown

>  <frequency_list>  (2) 
unknown

>  <arkane_path>  (2) 
/home/calvin/Dropbox/PersonalFolders/Calvin/ATLAS_Converged/rmg_rxn_653/output/Species/rmg_rxn_653_p2_CCOCC/arkane/output.py

>  <path_exists>  (2) 
True

>  <E0_value>  (2) 
-613176.3128110756

>  <E0_units>  (2) 
kJ/mol

>  <thermo_class>  (2) 
NASA

>  <Cp0_value>  (2) 
33.257888

>  <Cp0_units>  (2) 
J/(mol*K)

>  <CpInf_value>  (2) 
357.522296

>  <CpInf_units>  (2) 
J/(mol*K)

>  <Tmin_value>  (2) 
10.0

>  <Tmin_units>  (2) 
K

>  <Tmax_value>  (2) 
3000.0

>  <Tmax_units>  (2) 
K

>  <polynomials>  (2) 
[{"name": "polynomial1", "class": "NASAPolynomial", "Tmin_value": 10.0, "Tmin_units": "K", "Tmax_value": 447.8675776386012, "Tmax_units": "K", "coeffs": [3.6145674548663025, 0.04016229737238276, -9.26716676667475e-05, 2.7059440243079876e-07, -2.426777252164927e-10, -73748075.28187743, 9.084384782318237]}, {"name": "polynomial2", "class": "NASAPolynomial", "Tmin_value": 447.8675776386012, "Tmin_units": "K", "Tmax_value": 3000.0, "Tmax_units": "K", "coeffs": [-2.0346716801386466, 0.056284897785958125, -3.168484191016198e-05, 8.654575683408253e-09, -9.217706924539855e-13, -73747224.93534479, 35.6449449802163]}]

>  <H298_value>  (2) 
-146547.7613808907

>  <H298_units>  (2) 
kcal/mol

>  <S298_value>  (2) 
78.37341548181337

>  <S298_units>  (2) 
cal/(mol*K)

>  <Cp_T_value_list>  (2) 
[25.164325535478298, 31.710870725358603, 38.17578298456695, 43.876825548291244, 53.19460319689213, 60.208758518830386, 70.83300100554185, 76.07827456888258, 78.69955471915]

>  <Cp_T_units>  (2) 
cal/(mol*K)

>  <T_list>  (2) 
[300.0, 400.0, 500.0, 600.0, 800.0, 1000.0, 1500.0, 2000.0, 2400.0]

>  <T_units>  (2) 
K

>  <yaml_path>  (2) 
/home/calvin/Dropbox/PersonalFolders/Calvin/ATLAS_Converged/rmg_rxn_653/output/Species/rmg_rxn_653_p2_CCOCC/rmg_rxn_653_p2_CCOCC.yml

>  <frequencies_cm1>  (2) 
[97.33264992568, 110.05030673831997, 194.58289602751998, 248.33079012716, 254.60721470963998, 436.05356782, 444.0673396884399, 815.26909814636, 829.360152023, 865.38435701172, 947.98045644068, 1068.20763542324, 1096.27300442608, 1164.469035639, 1181.3961544528, 1184.7335093183199, 1192.65114339228, 1290.03872920052, 1301.0533736538, 1374.4477127539599, 1392.16453487956, 1405.93970743148, 1446.2214433186, 1470.736580911, 1470.98379238252, 1486.2834356754797, 1488.7761513466398, 1505.1745122908, 1522.6784578714798, 2933.80960620488, 2943.4577205794803, 2963.1797024185194, 2967.5127701554397, 3022.8812727906, 3023.35509477768, 3101.1992403652002, 3101.4601858073597, 3102.6138393411197, 3102.76491301816]

>  <ZPE_kJmol>  (2) 
356.17314104031504

>  <E_elec_kJmol>  (2) 
-613532.4859521159

>  <E0_minus_Eelec_plus_ZPE_kJmol>  (2) 
0.0

>  <rxn>  (2) 
rmg_rxn_653

>  <species_type>  (2) 
p1

>  <species_folder>  (2) 
rmg_rxn_653_p2_CCOCC

>  <frequencies_cm1_list>  (2) 
[97.33264992568, 110.05030673831997, 194.58289602751998, 248.33079012716, 254.60721470963998, 436.05356782, 444.0673396884399, 815.26909814636, 829.360152023, 865.38435701172, 947.98045644068, 1068.20763542324, 1096.27300442608, 1164.469035639, 1181.3961544528, 1184.7335093183199, 1192.65114339228, 1290.03872920052, 1301.0533736538, 1374.4477127539599, 1392.16453487956, 1405.93970743148, 1446.2214433186, 1470.736580911, 1470.98379238252, 1486.2834356754797, 1488.7761513466398, 1505.1745122908, 1522.6784578714798, 2933.80960620488, 2943.4577205794803, 2963.1797024185194, 2967.5127701554397, 3022.8812727906, 3023.35509477768, 3101.1992403652002, 3101.4601858073597, 3102.6138393411197, 3102.76491301816]

>  <E0_kJmol>  (2) 
-613176

>  <H298_kJmol>  (2) 
-613156

$$$$

     RDKit          3D

 26 24  0  0  0  0  0  0  0  0999 V2000
   -0.1785    0.9215    1.6270 C   0  0  0  0  0  0  0  0  0  1  0  0
   -1.7600    0.2770    2.0706 S   0  0  0  0  0  0  0  0  0  2  0  0
   -1.7287   -1.3430    1.2652 C   0  0  0  0  0  0  0  0  0  3  0  0
   -1.7097   -1.3077   -0.2540 C   0  0  0  0  0  0  0  0  0  4  0  0
   -0.1658    1.4183    0.4292 H   0  0  0  0  0  0  0  0  0  5  0  0
    0.6127    0.1724    1.6247 H   0  0  0  0  0  0  0  0  0  6  0  0
    0.0659    1.7665    2.2678 H   0  0  0  0  0  0  0  0  0  7  0  0
   -2.6282   -1.8410    1.6317 H   0  0  0  0  0  0  0  0  0  8  0  0
   -0.8716   -1.8980    1.6529 H   0  0  0  0  0  0  0  0  0  9  0  0
   -0.7891   -0.8605   -0.6292 H   0  0  0  0  0  0  0  0  0 10  0  0
   -2.5558   -0.7365   -0.6388 H   0  0  0  0  0  0  0  0  0 11  0  0
   -1.7733   -2.3241   -0.6505 H   0  0  0  0  0  0  0  0  0 12  0  0
   -0.0234    1.9680   -0.8535 C   0  0  0  0  0  3  0  0  0 13  0  0
    1.3060    1.4945   -1.3442 C   0  0  0  0  0  0  0  0  0 14  0  0
    1.3190    0.0869   -1.3495 O   0  0  0  0  0  0  0  0  0 15  0  0
    2.5255   -0.4654   -1.8130 C   0  0  0  0  0  0  0  0  0 16  0  0
    2.4219   -1.9719   -1.7559 C   0  0  0  0  0  0  0  0  0 17  0  0
   -0.8789    1.5643   -1.3896 H   0  0  0  0  0  0  0  0  0 18  0  0
   -0.0867    3.0415   -0.6940 H   0  0  0  0  0  0  0  0  0 19  0  0
    2.1121    1.8756   -0.6985 H   0  0  0  0  0  0  0  0  0 20  0  0
    1.5098    1.8698   -2.3616 H   0  0  0  0  0  0  0  0  0 21  0  0
    2.7203   -0.1307   -2.8421 H   0  0  0  0  0  0  0  0  0 22  0  0
    3.3620   -0.1125   -1.1924 H   0  0  0  0  0  0  0  0  0 23  0  0
    1.5980   -2.3215   -2.3791 H   0  0  0  0  0  0  0  0  0 24  0  0
    3.3457   -2.4294   -2.1129 H   0  0  0  0  0  0  0  0  0 25  0  0
    2.2440   -2.3043   -0.7323 H   0  0  0  0  0  0  0  0  0 26  0  0
  1  7  1  0
  1  2  1  0
  1  5  1  0
  1  6  1  0
  2  3  1  0
  3  4  1  0
  3  8  1  0
  3  9  1  0
  4 10  1  0
  4 11  1  0
  4 12  1  0
 13 19  1  0
 13 18  1  0
 13 14  1  0
 14 20  1  0
 14 21  1  0
 14 15  1  0
 15 16  1  0
 16 22  1  0
 16 17  1  0
 16 23  1  0
 17 24  1  0
 17 26  1  0
 17 25  1  0
M  RAD  1  13   2
M  END
>  <rmg_smiles>  (3) 
[CH2]COCC.CSCC

>  <rmg_adjacency_list>  (3) 
multiplicity 2
1  S u0 p2 c0 {3,S} {8,S}
2  O u0 p2 c0 {4,S} {5,S}
3  C u0 p0 c0 {1,S} {6,S} {10,S} {11,S}
4  C u0 p0 c0 {2,S} {7,S} {12,S} {13,S}
5  C u0 p0 c0 {2,S} {9,S} {17,S} {18,S}
6  C u0 p0 c0 {3,S} {14,S} {15,S} {16,S}
7  C u0 p0 c0 {4,S} {19,S} {20,S} {21,S}
8  C u0 p0 c0 {1,S} {22,S} {23,S} {24,S}
9  C u1 p0 c0 {5,S} {25,S} {26,S}
10 H u0 p0 c0 {3,S}
11 H u0 p0 c0 {3,S}
12 H u0 p0 c0 {4,S}
13 H u0 p0 c0 {4,S}
14 H u0 p0 c0 {6,S}
15 H u0 p0 c0 {6,S}
16 H u0 p0 c0 {6,S}
17 H u0 p0 c0 {5,S}
18 H u0 p0 c0 {5,S}
19 H u0 p0 c0 {7,S}
20 H u0 p0 c0 {7,S}
21 H u0 p0 c0 {7,S}
22 H u0 p0 c0 {8,S}
23 H u0 p0 c0 {8,S}
24 H u0 p0 c0 {8,S}
25 H u0 p0 c0 {9,S}
26 H u0 p0 c0 {9,S}


>  <multiplicity>  (3) 
2

>  <reaction>  (3) 
rmg_rxn_653

>  <type>  (3) 
ts

>  <role_mapnums>  (3) 
{"*2": 5, "*1": 1, "*3": 13, "*0": 2, "*4": 14}

>  <role_mapidx>  (3) 
{"*2": 4, "*1": 0, "*3": 12, "*0": 1, "*4": 13}

>  <ordered_mapped_smiles>  (3) 
[C:1]([S:2][C:3]([C:4]([H:10])([H:11])[H:12])([H:8])[H:9])([H:5])([H:6])[H:7].[C:13]([C:14]([O:15][C:16]([C:17]([H:24])([H:25])[H:26])([H:22])[H:23])([H:20])[H:21])([H:18])[H:19]

>  <mol_properties>  (3) 
{"0": {"label": "*1", "atom_type": "Cs"}, "1": {"label": "*0", "atom_type": "S2s"}, "4": {"label": "*2", "atom_type": "H0"}, "12": {"label": "*3", "atom_type": "Cs"}, "13": {"label": "*4", "atom_type": "Cs"}}

>  <level_of_theory>  (3) 
wb97xd/def2tzvp

>  <lot_method>  (3) 
wb97xd

>  <lot_basis>  (3) 
def2tzvp

>  <spin_multiplicity>  (3) 
2.0

>  <optical_isomers>  (3) 
2.0

>  <modes>  (3) 
IdealGasTranslation(mass=(149.1, 'amu')),         NonlinearRotor(             inertia = ([302.184, 797.593, 959.793

>  <frequency_value>  (3) 
-1719.24

>  <frequency_units>  (3) 
cm^-1

>  <frequency_list>  (3) 
unknown

>  <arkane_path>  (3) 
/home/calvin/Dropbox/PersonalFolders/Calvin/ATLAS_Converged/rmg_rxn_653/output/rxns/TS0/arkane/output.py

>  <path_exists>  (3) 
True

>  <E0_value>  (3) 
-1969430.0

>  <E0_units>  (3) 
kJ/mol

>  <thermo_class>  (3) 
unknown

>  <Cp0_value>  (3) 
unknown

>  <Cp0_units>  (3) 
unknown

>  <CpInf_value>  (3) 
unknown

>  <CpInf_units>  (3) 
unknown

>  <Tmin_value>  (3) 
unknown

>  <Tmin_units>  (3) 
unknown

>  <Tmax_value>  (3) 
unknown

>  <Tmax_units>  (3) 
unknown

>  <polynomials>  (3) 
unknown

>  <H298_value>  (3) 
unknown

>  <H298_units>  (3) 
unknown

>  <S298_value>  (3) 
unknown

>  <S298_units>  (3) 
unknown

>  <Cp_T_value_list>  (3) 
unknown

>  <Cp_T_units>  (3) 
unknown

>  <T_list>  (3) 
unknown

>  <T_units>  (3) 
unknown

>  <yaml_path>  (3) 
unknown

>  <frequencies_cm1>  (3) 
unknown

>  <ZPE_kJmol>  (3) 
unknown

>  <E_elec_kJmol>  (3) 
unknown

>  <E0_minus_Eelec_plus_ZPE_kJmol>  (3) 
unknown

>  <rxn>  (3) 
unknown

>  <species_type>  (3) 
unknown

>  <species_folder>  (3) 
unknown

>  <frequencies_cm1_list>  (3) 
[]

>  <ts_imag_freq_cm1>  (3) 
-1740.117

>  <ts_freq_out_path>  (3) 
/home/calvin/Dropbox/PersonalFolders/Calvin/ATLAS_Converged/rmg_rxn_653/output/rxns/TS0/geometry/freq.out

>  <E0_kJmol>  (3) 
-1.96943e+06

>  <H298_kJmol>  (3) 
unknown

$$$$

     RDKit          3D

 11 10  0  0  0  0  0  0  0  0999 V2000
    2.2312    0.7411   -0.3115 C   0  0  0  0  0  3  0  0  0  1  0  0
    0.6426    1.1039   -0.7896 S   0  0  0  0  0  0  0  0  0  2  0  0
    0.9085    2.4168   -2.0061 C   0  0  0  0  0  0  0  0  0  3  0  0
    1.5570    1.9429   -3.2967 C   0  0  0  0  0  0  0  0  0  4  0  0
    2.3707   -0.0938    0.3575 H   0  0  0  0  0  0  0  0  0  5  0  0
    3.0432    1.4267   -0.5066 H   0  0  0  0  0  0  0  0  0  6  0  0
    1.4997    3.2005   -1.5289 H   0  0  0  0  0  0  0  0  0  7  0  0
   -0.0844    2.8269   -2.1951 H   0  0  0  0  0  0  0  0  0  8  0  0
    0.9451    1.1830   -3.7838 H   0  0  0  0  0  0  0  0  0  9  0  0
    1.6803    2.7812   -3.9857 H   0  0  0  0  0  0  0  0  0 10  0  0
    2.5399    1.5119   -3.1043 H   0  0  0  0  0  0  0  0  0 11  0  0
  1  5  1  0
  1  2  1  0
  1  6  1  0
  2  3  1  0
  3  4  1  0
  3  7  1  0
  3  8  1  0
  4  9  1  0
  4 10  1  0
  4 11  1  0
M  RAD  1   1   2
M  END
>  <rmg_smiles>  (4) 
[CH2]SCC

>  <rmg_adjacency_list>  (4) 
multiplicity 2
1  S u0 p2 c0 {2,S} {4,S}
2  C u0 p0 c0 {1,S} {3,S} {5,S} {6,S}
3  C u0 p0 c0 {2,S} {7,S} {8,S} {9,S}
4  C u1 p0 c0 {1,S} {10,S} {11,S}
5  H u0 p0 c0 {2,S}
6  H u0 p0 c0 {2,S}
7  H u0 p0 c0 {3,S}
8  H u0 p0 c0 {3,S}
9  H u0 p0 c0 {3,S}
10 H u0 p0 c0 {4,S}
11 H u0 p0 c0 {4,S}


>  <multiplicity>  (4) 
2

>  <reaction>  (4) 
rmg_rxn_653

>  <type>  (4) 
r1

>  <role_mapnums>  (4) 
{}

>  <role_mapidx>  (4) 
{}

>  <ordered_mapped_smiles>  (4) 
[C:1]([S:2][C:3]([C:4]([H:9])([H:10])[H:11])([H:7])[H:8])([H:5])[H:6]

>  <level_of_theory>  (4) 
wb97xd/def2tzvp

>  <lot_method>  (4) 
wb97xd

>  <lot_basis>  (4) 
def2tzvp

>  <spin_multiplicity>  (4) 
2.0

>  <optical_isomers>  (4) 
2.0

>  <modes>  (4) 
IdealGasTranslation(mass=(75.0268, 'amu')),         NonlinearRotor(             inertia = ([46.1764, 125.175, 150.124

>  <frequency_value>  (4) 
unknown

>  <frequency_units>  (4) 
unknown

>  <frequency_list>  (4) 
unknown

>  <arkane_path>  (4) 
/home/calvin/Dropbox/PersonalFolders/Calvin/ATLAS_Converged/rmg_rxn_653/output/Species/rmg_rxn_653_p1_sbr-CH2-sbrSCC/arkane/output.py

>  <path_exists>  (4) 
True

>  <E0_value>  (4) 
-1356326.828812391

>  <E0_units>  (4) 
kJ/mol

>  <thermo_class>  (4) 
NASA

>  <Cp0_value>  (4) 
33.257888

>  <Cp0_units>  (4) 
J/(mol*K)

>  <CpInf_value>  (4) 
257.748632

>  <CpInf_units>  (4) 
J/(mol*K)

>  <Tmin_value>  (4) 
10.0

>  <Tmin_units>  (4) 
K

>  <Tmax_value>  (4) 
3000.0

>  <Tmax_units>  (4) 
K

>  <polynomials>  (4) 
[{"name": "polynomial1", "class": "NASAPolynomial", "Tmin_value": 10.0, "Tmin_units": "K", "Tmax_value": 163.4983384736605, "Tmax_units": "K", "coeffs": [3.8835361135606306, 0.01179835617528283, 0.0001860962387176214, -8.310788830243038e-07, 1.2781022117046402e-09, -163128450.95392784, 10.667754233192833]}, {"name": "polynomial2", "class": "NASAPolynomial", "Tmin_value": 163.4983384736605, "Tmin_units": "K", "Tmax_value": 3000.0, "Tmax_units": "K", "coeffs": [2.9698107402056713, 0.03415257681811664, -1.8989116425627386e-05, 5.154010868808518e-09, -5.461082436872671e-13, -163128421.07521912, 13.421243662452813]}]

>  <H298_value>  (4) 
-324165.39986954443

>  <H298_units>  (4) 
kcal/mol

>  <S298_value>  (4) 
78.93032022623957

>  <S298_units>  (4) 
cal/(mol*K)

>  <Cp_T_value_list>  (4) 
[23.133663311616047, 27.638980468817827, 31.614348268428742, 35.109498731473295, 40.84505297373627, 45.19140833090281, 51.87260315815638, 55.269883733256364, 57.01130488605395]

>  <Cp_T_units>  (4) 
cal/(mol*K)

>  <T_list>  (4) 
[300.0, 400.0, 500.0, 600.0, 800.0, 1000.0, 1500.0, 2000.0, 2400.0]

>  <T_units>  (4) 
K

>  <yaml_path>  (4) 
/home/calvin/Dropbox/PersonalFolders/Calvin/ATLAS_Converged/rmg_rxn_653/output/Species/rmg_rxn_653_p1_sbr-CH2-sbrSCC/rmg_rxn_653_p1_sbr-CH2-sbrSCC.yml

>  <frequencies_cm1>  (4) 
[110.60653254923999, 205.67307731931996, 220.086879506, 285.94813571012, 367.82320168047994, 369.88329727648, 670.6023184099199, 763.8628460408399, 854.34224461716, 913.1854418242399, 983.7231150312799, 1058.73119568164, 1076.4068158953198, 1269.6918516973599, 1295.3263078969198, 1396.0581155559998, 1402.33454013848, 1458.69188865972, 1476.6353213008802, 1485.0748462591598, 3018.4589342445192, 3035.15257555744, 3083.1459359589203, 3092.3408293024, 3109.00013568872, 3136.8045592493995, 3260.19741846448]

>  <ZPE_kJmol>  (4) 
235.6631361203891

>  <E_elec_kJmol>  (4) 
-1356562.4919485117

>  <E0_minus_Eelec_plus_ZPE_kJmol>  (4) 
0.0

>  <rxn>  (4) 
rmg_rxn_653

>  <species_type>  (4) 
p0

>  <species_folder>  (4) 
rmg_rxn_653_p1_sbr-CH2-sbrSCC

>  <frequencies_cm1_list>  (4) 
[110.60653254923999, 205.67307731931996, 220.086879506, 285.94813571012, 367.82320168047994, 369.88329727648, 670.6023184099199, 763.8628460408399, 854.34224461716, 913.1854418242399, 983.7231150312799, 1058.73119568164, 1076.4068158953198, 1269.6918516973599, 1295.3263078969198, 1396.0581155559998, 1402.33454013848, 1458.69188865972, 1476.6353213008802, 1485.0748462591598, 3018.4589342445192, 3035.15257555744, 3083.1459359589203, 3092.3408293024, 3109.00013568872, 3136.8045592493995, 3260.19741846448]

>  <E0_kJmol>  (4) 
-1.35633e+06

>  <H298_kJmol>  (4) 
-1.35631e+06

$$$$

     RDKit          3D

 14 13  0  0  0  0  0  0  0  0999 V2000
    2.6694    0.2813   -0.6046 C   0  0  0  0  0  3  0  0  0  1  0  0
    1.5626   -0.5075   -0.0103 C   0  0  0  0  0  0  0  0  0  2  0  0
    0.5522   -0.8487   -0.9278 O   0  0  0  0  0  0  0  0  0  3  0  0
    0.9505   -1.8204   -1.8682 C   0  0  0  0  0  0  0  0  0  4  0  0
   -0.2101   -2.1029   -2.7930 C   0  0  0  0  0  0  0  0  0  5  0  0
    2.4666    0.9443   -1.4355 H   0  0  0  0  0  0  0  0  0  6  0  0
    3.6339    0.3312   -0.1179 H   0  0  0  0  0  0  0  0  0  7  0  0
    1.0573    0.0741    0.7733 H   0  0  0  0  0  0  0  0  0  8  0  0
    1.9580   -1.4106    0.4809 H   0  0  0  0  0  0  0  0  0  9  0  0
    1.8195   -1.4649   -2.4379 H   0  0  0  0  0  0  0  0  0 10  0  0
    1.2587   -2.7372   -1.3440 H   0  0  0  0  0  0  0  0  0 11  0  0
   -0.5051   -1.1971   -3.3238 H   0  0  0  0  0  0  0  0  0 12  0  0
    0.0686   -2.8601   -3.5276 H   0  0  0  0  0  0  0  0  0 13  0  0
   -1.0699   -2.4661   -2.2289 H   0  0  0  0  0  0  0  0  0 14  0  0
  1  7  1  0
  1  6  1  0
  1  2  1  0
  2  9  1  0
  2  8  1  0
  2  3  1  0
  3  4  1  0
  4  5  1  0
  4 10  1  0
  4 11  1  0
  5 12  1  0
  5 14  1  0
  5 13  1  0
M  RAD  1   1   2
M  END
>  <rmg_smiles>  (5) 
[CH2]COCC

>  <rmg_adjacency_list>  (5) 
multiplicity 2
1  O u0 p2 c0 {2,S} {3,S}
2  C u0 p0 c0 {1,S} {4,S} {6,S} {7,S}
3  C u0 p0 c0 {1,S} {5,S} {8,S} {9,S}
4  C u0 p0 c0 {2,S} {10,S} {11,S} {12,S}
5  C u1 p0 c0 {3,S} {13,S} {14,S}
6  H u0 p0 c0 {2,S}
7  H u0 p0 c0 {2,S}
8  H u0 p0 c0 {3,S}
9  H u0 p0 c0 {3,S}
10 H u0 p0 c0 {4,S}
11 H u0 p0 c0 {4,S}
12 H u0 p0 c0 {4,S}
13 H u0 p0 c0 {5,S}
14 H u0 p0 c0 {5,S}


>  <multiplicity>  (5) 
2

>  <reaction>  (5) 
rmg_rxn_653

>  <type>  (5) 
r2

>  <role_mapnums>  (5) 
{}

>  <role_mapidx>  (5) 
{}

>  <ordered_mapped_smiles>  (5) 
[C:1]([C:2]([O:3][C:4]([C:5]([H:12])([H:13])[H:14])([H:10])[H:11])([H:8])[H:9])([H:6])[H:7]

>  <level_of_theory>  (5) 
wb97xd/def2tzvp

>  <lot_method>  (5) 
wb97xd

>  <lot_basis>  (5) 
def2tzvp

>  <spin_multiplicity>  (5) 
2.0

>  <optical_isomers>  (5) 
2.0

>  <modes>  (5) 
IdealGasTranslation(mass=(73.0653, 'amu')),         NonlinearRotor(             inertia = ([36.1087, 191.263, 204.688

>  <frequency_value>  (5) 
unknown

>  <frequency_units>  (5) 
unknown

>  <frequency_list>  (5) 
unknown

>  <arkane_path>  (5) 
/home/calvin/Dropbox/PersonalFolders/Calvin/ATLAS_Converged/rmg_rxn_653/output/Species/rmg_rxn_653_r2_sbr-CH2-sbrCOCC/arkane/output.py

>  <path_exists>  (5) 
True

>  <E0_value>  (5) 
-611438.6030950935

>  <E0_units>  (5) 
kJ/mol

>  <thermo_class>  (5) 
NASA

>  <Cp0_value>  (5) 
33.257888

>  <Cp0_units>  (5) 
J/(mol*K)

>  <CpInf_value>  (5) 
332.57888

>  <CpInf_units>  (5) 
J/(mol*K)

>  <Tmin_value>  (5) 
10.0

>  <Tmin_units>  (5) 
K

>  <Tmax_value>  (5) 
3000.0

>  <Tmax_units>  (5) 
K

>  <polynomials>  (5) 
[{"name": "polynomial1", "class": "NASAPolynomial", "Tmin_value": 10.0, "Tmin_units": "K", "Tmax_value": 1129.3959237558668, "Tmax_units": "K", "coeffs": [3.767687254331021, 0.030025181353026488, 1.0783022290029728e-05, -2.4093154306759102e-08, 8.382058777565432e-12, -73539079.86675207, 10.999960770951583]}, {"name": "polynomial2", "class": "NASAPolynomial", "Tmin_value": 1129.3959237558668, "Tmin_units": "K", "Tmax_value": 3000.0, "Tmax_units": "K", "coeffs": [5.6857834097634, 0.037592019875525746, -1.833922228791922e-05, 4.3554701728670094e-09, -4.0732880567514265e-13, -73540428.97117028, -2.5417292363783583]}]

>  <H298_value>  (5) 
-146132.3546509215

>  <H298_units>  (5) 
kcal/mol

>  <S298_value>  (5) 
82.85680191938049

>  <S298_units>  (5) 
cal/(mol*K)

>  <Cp_T_value_list>  (5) 
[26.1577843323499, 32.14438106326243, 37.73360939012966, 42.81809519804709, 51.24322537774468, 57.36030900443956, 66.46842649273657, 71.22035723151492, 73.4641194799488]

>  <Cp_T_units>  (5) 
cal/(mol*K)

>  <T_list>  (5) 
[300.0, 400.0, 500.0, 600.0, 800.0, 1000.0, 1500.0, 2000.0, 2400.0]

>  <T_units>  (5) 
K

>  <yaml_path>  (5) 
/home/calvin/Dropbox/PersonalFolders/Calvin/ATLAS_Converged/rmg_rxn_653/output/Species/rmg_rxn_653_r2_sbr-CH2-sbrCOCC/rmg_rxn_653_r2_sbr-CH2-sbrCOCC.yml

>  <frequencies_cm1>  (5) 
[76.09993131623999, 140.58779045635998, 186.73393180675998, 253.66643772079996, 286.93011461087997, 382.93743636979997, 472.70266847283995, 529.9115231737599, 822.58930449748, 853.7036149823999, 871.2762304162799, 982.3771859085599, 1056.19727809856, 1096.42407810312, 1136.3281297976398, 1169.37206315748, 1177.12488958376, 1281.42066262392, 1292.2086965616397, 1373.79534914856, 1391.2512258319998, 1423.8488051460397, 1437.4660370355998, 1459.749404399, 1470.3382957624399, 1487.2654145762401, 1513.826913794, 2933.2739813499197, 2947.7839213310795, 2970.7608542117996, 2983.3205703620797, 3023.4924344840797, 3101.41211691012, 3103.7537589042395, 3126.2774707538397, 3235.73034976932]

>  <ZPE_kJmol>  (5) 
317.3211535298422

>  <E_elec_kJmol>  (5) 
-611755.9242486233

>  <E0_minus_Eelec_plus_ZPE_kJmol>  (5) 
0.0

>  <rxn>  (5) 
rmg_rxn_653

>  <species_type>  (5) 
r1

>  <species_folder>  (5) 
rmg_rxn_653_r2_sbr-CH2-sbrCOCC

>  <frequencies_cm1_list>  (5) 
[76.09993131623999, 140.58779045635998, 186.73393180675998, 253.66643772079996, 286.93011461087997, 382.93743636979997, 472.70266847283995, 529.9115231737599, 822.58930449748, 853.7036149823999, 871.2762304162799, 982.3771859085599, 1056.19727809856, 1096.42407810312, 1136.3281297976398, 1169.37206315748, 1177.12488958376, 1281.42066262392, 1292.2086965616397, 1373.79534914856, 1391.2512258319998, 1423.8488051460397, 1437.4660370355998, 1459.749404399, 1470.3382957624399, 1487.2654145762401, 1513.826913794, 2933.2739813499197, 2947.7839213310795, 2970.7608542117996, 2983.3205703620797, 3023.4924344840797, 3101.41211691012, 3103.7537589042395, 3126.2774707538397, 3235.73034976932]

>  <E0_kJmol>  (5) 
-611439

>  <H298_kJmol>  (5) 
-611418

$$$$
