
     RDKit          3D

  8  7  0  0  0  0  0  0  0  0999 V2000
   -0.0506    0.0164   -1.2702 C   0  0  0  0  0  0  0  0  0  1  0  0
   -0.3370   -0.1951    0.1862 C   0  0  0  0  0  0  0  0  0  2  0  0
    0.4290    0.2006    1.0949 N   0  0  0  0  0  0  0  0  0  3  0  0
   -0.0062   -0.9478   -1.7812 H   0  0  0  0  0  0  0  0  0  4  0  0
   -0.8605    0.5905   -1.7255 H   0  0  0  0  0  0  0  0  0  5  0  0
    0.8911    0.5446   -1.4058 H   0  0  0  0  0  0  0  0  0  6  0  0
   -1.2692   -0.7232    0.4313 H   0  0  0  0  0  0  0  0  0  7  0  0
   -0.0139   -0.0699    1.9961 H   0  0  0  0  0  0  0  0  0  8  0  0
  1  5  1  0
  1  4  1  0
  1  6  1  0
  1  2  1  0
  2  3  1  0
  2  7  1  0
  3  8  1  0
M  END
>  <rmg_smiles>  (1) 
C[CH][NH]

>  <rmg_adjacency_list>  (1) 
1 N u0 p1 c0 {3,S} {8,S}
2 C u0 p0 c0 {3,S} {4,S} {5,S} {6,S}
3 C u0 p0 c0 {1,S} {2,S} {7,S}
4 H u0 p0 c0 {2,S}
5 H u0 p0 c0 {2,S}
6 H u0 p0 c0 {2,S}
7 H u0 p0 c0 {3,S}
8 H u0 p0 c0 {1,S}


>  <multiplicity>  (1) 
1

>  <reaction>  (1) 
rmg_rxn_16719

>  <type>  (1) 
r1h

>  <role_mapnums>  (1) 
{"r1h_a": 3, "r1h_h": 8}

>  <role_mapidx>  (1) 
{"r1h_a": 2, "r1h_h": 7}

>  <ordered_mapped_smiles>  (1) 
[C:1]([CH:2]([NH:3][H:8])[H:7])([H:4])([H:5])[H:6]

>  <mol_properties>  (1) 
{"2": {"label": "donator", "atom_type": "N3s"}, "7": {"label": "d_hydrogen", "atom_type": "H0"}}

>  <level_of_theory>  (1) 
wb97xd/def2tzvp

>  <lot_method>  (1) 
wb97xd

>  <lot_basis>  (1) 
def2tzvp

>  <spin_multiplicity>  (1) 
1.0

>  <optical_isomers>  (1) 
1.0

>  <modes>  (1) 
IdealGasTranslation(mass=(43.0422, 'amu')),         NonlinearRotor(             inertia = ([9.32783, 51.3348, 57.5532

>  <frequency_value>  (1) 
unknown

>  <frequency_units>  (1) 
unknown

>  <frequency_list>  (1) 
unknown

>  <arkane_path>  (1) 
/home/calvin/Dropbox/PersonalFolders/Calvin/ZEUS_Converged/rmg_rxn_16719/output/Species/rmg_rxn_16719_r2_CC=N/arkane/output.py

>  <path_exists>  (1) 
True

>  <E0_value>  (1) 
-351535.20335661684

>  <E0_units>  (1) 
kJ/mol

>  <thermo_class>  (1) 
NASA

>  <Cp0_value>  (1) 
33.257888

>  <Cp0_units>  (1) 
J/(mol*K)

>  <CpInf_value>  (1) 
182.918384

>  <CpInf_units>  (1) 
J/(mol*K)

>  <Tmin_value>  (1) 
10.0

>  <Tmin_units>  (1) 
K

>  <Tmax_value>  (1) 
3000.0

>  <Tmax_units>  (1) 
K

>  <polynomials>  (1) 
[{"name": "polynomial1", "class": "NASAPolynomial", "Tmin_value": 10.0, "Tmin_units": "K", "Tmax_value": 834.0183041901832, "Tmax_units": "K", "coeffs": [4.020859284868709, 0.0012406595733239277, 4.4482903010182226e-05, -5.482114439751344e-08, 2.0739201558559772e-11, -42279921.71645892, 6.726586383468645]}, {"name": "polynomial2", "class": "NASAPolynomial", "Tmin_value": 834.0183041901832, "Tmin_units": "K", "Tmax_value": 3000.0, "Tmax_units": "K", "coeffs": [0.8146767610859666, 0.025012560508124084, -1.3369721411120483e-05, 3.4917002293006827e-09, -3.579375529269218e-13, -42279678.881200545, 19.862274208798944]}]

>  <H298_value>  (1) 
-84015.86036687854

>  <H298_units>  (1) 
kcal/mol

>  <S298_value>  (1) 
62.66843297179497

>  <S298_units>  (1) 
cal/(mol*K)

>  <Cp_T_value_list>  (1) 
[14.078036689508782, 17.202765604471058, 20.2803800489589, 23.1023356383003, 27.639649626797436, 30.983090061901617, 36.21499785066487, 38.88468928045463, 40.19916387517873]

>  <Cp_T_units>  (1) 
cal/(mol*K)

>  <T_list>  (1) 
[300.0, 400.0, 500.0, 600.0, 800.0, 1000.0, 1500.0, 2000.0, 2400.0]

>  <T_units>  (1) 
K

>  <yaml_path>  (1) 
/home/calvin/Dropbox/PersonalFolders/Calvin/ZEUS_Converged/rmg_rxn_16719/output/Species/rmg_rxn_16719_r2_CC=N/rmg_rxn_16719_r2_CC=N.yml

>  <frequencies_cm1>  (1) 
[185.42920459596, 489.9250676554, 680.6761858743599, 921.32968641376, 1055.89513074448, 1069.62910138448, 1130.4431233784, 1267.5150173509198, 1378.7876474762, 1425.071128533, 1456.56312321052, 1463.3683056626398, 1737.36788691596, 2989.2124437666403, 3014.6889593038395, 3075.43431144456, 3123.3452680222, 3455.8927661138396]

>  <ZPE_kJmol>  (1) 
178.96482902382195

>  <E_elec_kJmol>  (1) 
-351714.16818564065

>  <E0_minus_Eelec_plus_ZPE_kJmol>  (1) 
0.0

>  <rxn>  (1) 
rmg_rxn_16719

>  <species_type>  (1) 
r1

>  <species_folder>  (1) 
rmg_rxn_16719_r2_CC=N

>  <frequencies_cm1_list>  (1) 
[185.42920459596, 489.9250676554, 680.6761858743599, 921.32968641376, 1055.89513074448, 1069.62910138448, 1130.4431233784, 1267.5150173509198, 1378.7876474762, 1425.071128533, 1456.56312321052, 1463.3683056626398, 1737.36788691596, 2989.2124437666403, 3014.6889593038395, 3075.43431144456, 3123.3452680222, 3455.8927661138396]

>  <E0_kJmol>  (1) 
-351535

>  <H298_kJmol>  (1) 
-351522

$$$$

     RDKit          3D

  5  4  0  0  0  0  0  0  0  0999 V2000
    0.4234    0.0340    0.4514 C   0  0  0  0  0  0  0  0  0  1  0  0
   -0.4825   -0.0642   -0.4036 N   0  0  0  0  0  0  0  0  0  2  0  0
    1.4280    0.4078    0.2183 H   0  0  0  0  0  0  0  0  0  3  0  0
    0.2287   -0.2597    1.4870 H   0  0  0  0  0  0  0  0  0  4  0  0
   -0.0736    0.2741   -1.2979 H   0  0  0  0  0  0  0  0  0  5  0  0
  1  3  1  0
  1  4  1  0
  1  2  1  0
  2  5  1  0
M  END
>  <rmg_smiles>  (2) 
[CH2][NH]

>  <rmg_adjacency_list>  (2) 
1 N u0 p1 c0 {2,S} {5,S}
2 C u0 p0 c0 {1,S} {3,S} {4,S}
3 H u0 p0 c0 {2,S}
4 H u0 p0 c0 {2,S}
5 H u0 p0 c0 {1,S}


>  <multiplicity>  (2) 
1

>  <reaction>  (2) 
rmg_rxn_16719

>  <type>  (2) 
r2h

>  <role_mapnums>  (2) 
{"r2h_a": 2, "r2h_h": 5}

>  <role_mapidx>  (2) 
{"r2h_a": 1, "r2h_h": 4}

>  <ordered_mapped_smiles>  (2) 
[CH:1]([NH:2][H:5])([H:3])[H:4]

>  <mol_properties>  (2) 
{"1": {"label": "acceptor", "atom_type": "N3s"}, "4": {"label": "a_hydrogen", "atom_type": "H0"}}

>  <level_of_theory>  (2) 
wb97xd/def2tzvp

>  <lot_method>  (2) 
wb97xd

>  <lot_basis>  (2) 
def2tzvp

>  <spin_multiplicity>  (2) 
1.0

>  <optical_isomers>  (2) 
1.0

>  <modes>  (2) 
IdealGasTranslation(mass=(29.0266, 'amu')),         NonlinearRotor(             inertia = ([2.54329, 14.3364, 16.8797

>  <frequency_value>  (2) 
unknown

>  <frequency_units>  (2) 
unknown

>  <frequency_list>  (2) 
unknown

>  <arkane_path>  (2) 
/home/calvin/Dropbox/PersonalFolders/Calvin/ZEUS_Converged/rmg_rxn_16719/output/Species/rmg_rxn_16719_p1_C=N/arkane/output.py

>  <path_exists>  (2) 
True

>  <E0_value>  (2) 
-248356.34423815363

>  <E0_units>  (2) 
kJ/mol

>  <thermo_class>  (2) 
NASA

>  <Cp0_value>  (2) 
33.257888

>  <Cp0_units>  (2) 
J/(mol*K)

>  <CpInf_value>  (2) 
108.088136

>  <CpInf_units>  (2) 
J/(mol*K)

>  <Tmin_value>  (2) 
10.0

>  <Tmin_units>  (2) 
K

>  <Tmax_value>  (2) 
3000.0

>  <Tmax_units>  (2) 
K

>  <polynomials>  (2) 
[{"name": "polynomial1", "class": "NASAPolynomial", "Tmin_value": 10.0, "Tmin_units": "K", "Tmax_value": 929.7240262893993, "Tmax_units": "K", "coeffs": [4.082145460594925, -0.004843976677700841, 3.0618254500355554e-05, -3.074840969514881e-08, 1.0052040673267447e-11, -29870371.356619485, 4.365827486380137]}, {"name": "polynomial2", "class": "NASAPolynomial", "Tmin_value": 929.7240262893993, "Tmin_units": "K", "Tmax_value": 3000.0, "Tmax_units": "K", "coeffs": [0.8877885730975533, 0.013678167093669738, -6.975223600455135e-06, 1.7369743094275228e-09, -1.6982028045337096e-13, -29869983.92327757, 18.43322457794641]}]

>  <H298_value>  (2) 
-59356.18051805212

>  <H298_units>  (2) 
kcal/mol

>  <S298_value>  (2) 
54.22446397082332

>  <S298_units>  (2) 
cal/(mol*K)

>  <Cp_T_value_list>  (2) 
[9.212311431374061, 10.597592487657463, 12.120811203526856, 13.631082131337639, 16.24894459909042, 18.19861078356772, 21.28965712304398, 22.89639129808111, 23.67916550995145]

>  <Cp_T_units>  (2) 
cal/(mol*K)

>  <T_list>  (2) 
[300.0, 400.0, 500.0, 600.0, 800.0, 1000.0, 1500.0, 2000.0, 2400.0]

>  <T_units>  (2) 
K

>  <yaml_path>  (2) 
/home/calvin/Dropbox/PersonalFolders/Calvin/ZEUS_Converged/rmg_rxn_16719/output/Species/rmg_rxn_16719_p1_C=N/rmg_rxn_16719_p1_C=N.yml

>  <frequencies_cm1>  (2) 
[1070.7758879329199, 1100.41379657404, 1160.96000614048, 1358.81158718032, 1481.75122536428, 1720.3789652342798, 3005.1987855916, 3102.24988911916, 3440.05749796592]

>  <ZPE_kJmol>  (2) 
104.3179698886586

>  <E_elec_kJmol>  (2) 
-248460.66220804228

>  <E0_minus_Eelec_plus_ZPE_kJmol>  (2) 
0.0

>  <rxn>  (2) 
rmg_rxn_16719

>  <species_type>  (2) 
p0

>  <species_folder>  (2) 
rmg_rxn_16719_p1_C=N

>  <frequencies_cm1_list>  (2) 
[1070.7758879329199, 1100.41379657404, 1160.96000614048, 1358.81158718032, 1481.75122536428, 1720.3789652342798, 3005.1987855916, 3102.24988911916, 3440.05749796592]

>  <E0_kJmol>  (2) 
-248356

>  <H298_kJmol>  (2) 
-248346

$$$$

     RDKit          3D

 12 10  0  0  0  0  0  0  0  0999 V2000
    0.3269   -0.5471    2.5967 C   0  0  0  0  0  0  0  0  0  1  0  0
   -0.5791   -0.6453    1.7417 N   0  0  0  0  0  0  0  0  0  2  0  0
    1.3315   -0.1732    2.3636 H   0  0  0  0  0  0  0  0  0  3  0  0
    0.1322   -0.8408    3.6323 H   0  0  0  0  0  0  0  0  0  4  0  0
   -0.0389   -0.1009   -2.7727 C   0  0  0  0  0  0  0  0  0  5  0  0
   -0.3253   -0.3124   -1.3163 C   0  0  0  0  0  0  0  0  0  6  0  0
    0.4408    0.0832   -0.4076 N   0  0  0  0  0  2  0  0  0  7  0  0
    0.0056   -1.0651   -3.2837 H   0  0  0  0  0  0  0  0  0  8  0  0
   -0.8487    0.4732   -3.2280 H   0  0  0  0  0  0  0  0  0  9  0  0
    0.9028    0.4273   -2.9083 H   0  0  0  0  0  0  0  0  0 10  0  0
   -1.2574   -0.8405   -1.0712 H   0  0  0  0  0  0  0  0  0 11  0  0
   -0.0904   -0.2410    0.6731 H   0  0  0  0  0  0  0  0  0 12  0  0
  1  2  1  0
  1  4  1  0
  1  3  1  0
  2 12  1  0
  5  8  1  0
  5  6  1  0
  5  9  1  0
  5 10  1  0
  6  7  1  0
  6 11  1  0
M  RAD  1   7   2
M  END
>  <rmg_smiles>  (3) 
C[CH][N].[CH2][NH]

>  <rmg_adjacency_list>  (3) 
multiplicity 2
1  N u0 p1 c0 {5,S} {12,S}
2  N u1 p2 c0 {4,S}
3  C u0 p0 c0 {4,S} {6,S} {7,S} {8,S}
4  C u0 p0 c0 {2,S} {3,S} {9,S}
5  C u0 p0 c0 {1,S} {10,S} {11,S}
6  H u0 p0 c0 {3,S}
7  H u0 p0 c0 {3,S}
8  H u0 p0 c0 {3,S}
9  H u0 p0 c0 {4,S}
10 H u0 p0 c0 {5,S}
11 H u0 p0 c0 {5,S}
12 H u0 p0 c0 {1,S}


>  <multiplicity>  (3) 
2

>  <reaction>  (3) 
rmg_rxn_16719

>  <type>  (3) 
ts

>  <role_mapnums>  (3) 
{"*2": 12, "*1": 7, "*3": 2, "*0": 1, "*4": 6}

>  <role_mapidx>  (3) 
{"*2": 11, "*1": 6, "*3": 1, "*0": 0, "*4": 5}

>  <ordered_mapped_smiles>  (3) 
[CH:1]([NH:2][H:12])([H:3])[H:4].[C:5]([CH:6]([NH:7])[H:11])([H:8])([H:9])[H:10]

>  <mol_properties>  (3) 
{"0": {"label": "*0", "atom_type": "Cs"}, "1": {"label": "*3", "atom_type": "N3s"}, "5": {"label": "*4", "atom_type": "Cs"}, "6": {"label": "*1", "atom_type": "N1s"}, "11": {"label": "*2", "atom_type": "H0"}}

>  <level_of_theory>  (3) 
wb97xd/def2tzvp

>  <lot_method>  (3) 
wb97xd

>  <lot_basis>  (3) 
def2tzvp

>  <spin_multiplicity>  (3) 
2.0

>  <optical_isomers>  (3) 
2.0

>  <modes>  (3) 
IdealGasTranslation(mass=(71.0609, 'amu')),         NonlinearRotor(             inertia = ([19.3292, 294.107, 308.97

>  <frequency_value>  (3) 
-2006.8

>  <frequency_units>  (3) 
cm^-1

>  <frequency_list>  (3) 
unknown

>  <arkane_path>  (3) 
/home/calvin/Dropbox/PersonalFolders/Calvin/ZEUS_Converged/rmg_rxn_16719/output/rxns/TS0/arkane/output.py

>  <path_exists>  (3) 
True

>  <E0_value>  (3) 
-598180.0

>  <E0_units>  (3) 
kJ/mol

>  <thermo_class>  (3) 
unknown

>  <Cp0_value>  (3) 
unknown

>  <Cp0_units>  (3) 
unknown

>  <CpInf_value>  (3) 
unknown

>  <CpInf_units>  (3) 
unknown

>  <Tmin_value>  (3) 
unknown

>  <Tmin_units>  (3) 
unknown

>  <Tmax_value>  (3) 
unknown

>  <Tmax_units>  (3) 
unknown

>  <polynomials>  (3) 
unknown

>  <H298_value>  (3) 
unknown

>  <H298_units>  (3) 
unknown

>  <S298_value>  (3) 
unknown

>  <S298_units>  (3) 
unknown

>  <Cp_T_value_list>  (3) 
unknown

>  <Cp_T_units>  (3) 
unknown

>  <T_list>  (3) 
unknown

>  <T_units>  (3) 
unknown

>  <yaml_path>  (3) 
unknown

>  <frequencies_cm1>  (3) 
unknown

>  <ZPE_kJmol>  (3) 
unknown

>  <E_elec_kJmol>  (3) 
unknown

>  <E0_minus_Eelec_plus_ZPE_kJmol>  (3) 
unknown

>  <rxn>  (3) 
unknown

>  <species_type>  (3) 
unknown

>  <species_folder>  (3) 
unknown

>  <frequencies_cm1_list>  (3) 
[]

>  <ts_imag_freq_cm1>  (3) 
-2031.1747

>  <ts_freq_out_path>  (3) 
/home/calvin/Dropbox/PersonalFolders/Calvin/ZEUS_Converged/rmg_rxn_16719/output/rxns/TS0/geometry/freq.out

>  <E0_kJmol>  (3) 
-598180

>  <H298_kJmol>  (3) 
unknown

$$$$

     RDKit          3D

  7  6  0  0  0  0  0  0  0  0999 V2000
   -0.6441   -0.1356    0.0624 C   0  0  0  0  0  0  0  0  0  1  0  0
    0.8523    0.0148   -0.0333 C   0  0  0  0  0  0  0  0  0  2  0  0
    1.6700   -0.6077    0.6603 N   0  0  0  0  0  2  0  0  0  3  0  0
   -1.0940    0.8275    0.3091 H   0  0  0  0  0  0  0  0  0  4  0  0
   -0.9104   -0.8656    0.8237 H   0  0  0  0  0  0  0  0  0  5  0  0
   -1.0427   -0.4545   -0.9022 H   0  0  0  0  0  0  0  0  0  6  0  0
    1.2362    0.7308   -0.7748 H   0  0  0  0  0  0  0  0  0  7  0  0
  1  5  1  0
  1  4  1  0
  1  6  1  0
  1  2  1  0
  2  3  1  0
  2  7  1  0
M  RAD  1   3   2
M  END
>  <rmg_smiles>  (4) 
C[CH][N]

>  <rmg_adjacency_list>  (4) 
multiplicity 2
1 N u1 p2 c0 {3,S}
2 C u0 p0 c0 {3,S} {4,S} {5,S} {6,S}
3 C u0 p0 c0 {1,S} {2,S} {7,S}
4 H u0 p0 c0 {2,S}
5 H u0 p0 c0 {2,S}
6 H u0 p0 c0 {2,S}
7 H u0 p0 c0 {3,S}


>  <multiplicity>  (4) 
2

>  <reaction>  (4) 
rmg_rxn_16719

>  <type>  (4) 
r1

>  <role_mapnums>  (4) 
{}

>  <role_mapidx>  (4) 
{}

>  <ordered_mapped_smiles>  (4) 
[C:1]([CH:2]([NH:3])[H:7])([H:4])([H:5])[H:6]

>  <level_of_theory>  (4) 
wb97xd/def2tzvp

>  <lot_method>  (4) 
wb97xd

>  <lot_basis>  (4) 
def2tzvp

>  <spin_multiplicity>  (4) 
2.0

>  <optical_isomers>  (4) 
1.0

>  <modes>  (4) 
IdealGasTranslation(mass=(42.0344, 'amu')),         NonlinearRotor(             inertia = ([8.81492, 48.174, 53.8511

>  <frequency_value>  (4) 
unknown

>  <frequency_units>  (4) 
unknown

>  <frequency_list>  (4) 
unknown

>  <arkane_path>  (4) 
/home/calvin/Dropbox/PersonalFolders/Calvin/ZEUS_Converged/rmg_rxn_16719/output/Species/rmg_rxn_16719_p2_CC=sbr-N-sbr/arkane/output.py

>  <path_exists>  (4) 
True

>  <E0_value>  (4) 
-349854.82234455534

>  <E0_units>  (4) 
kJ/mol

>  <thermo_class>  (4) 
NASA

>  <Cp0_value>  (4) 
33.257888

>  <Cp0_units>  (4) 
J/(mol*K)

>  <CpInf_value>  (4) 
157.97496800000002

>  <CpInf_units>  (4) 
J/(mol*K)

>  <Tmin_value>  (4) 
10.0

>  <Tmin_units>  (4) 
K

>  <Tmax_value>  (4) 
3000.0

>  <Tmax_units>  (4) 
K

>  <polynomials>  (4) 
[{"name": "polynomial1", "class": "NASAPolynomial", "Tmin_value": 10.0, "Tmin_units": "K", "Tmax_value": 503.5856077016928, "Tmax_units": "K", "coeffs": [3.976811592049577, 0.0012685228752087534, 4.786155959427562e-05, -7.554553197268183e-08, 3.869280929218241e-11, -42077814.38325793, 7.559402827950991]}, {"name": "polynomial2", "class": "NASAPolynomial", "Tmin_value": 503.5856077016928, "Tmin_units": "K", "Tmax_value": 3000.0, "Tmax_units": "K", "coeffs": [1.4688672877735052, 0.02118998940112054, -1.1479594923736429e-05, 3.0156770231218235e-09, -3.096140671693614e-13, -42077561.800061174, 17.93823402033286]}]

>  <H298_value>  (4) 
-83614.2601862362

>  <H298_units>  (4) 
kcal/mol

>  <S298_value>  (4) 
63.84640386523673

>  <S298_units>  (4) 
cal/(mol*K)

>  <Cp_T_value_list>  (4) 
[13.788413560189577, 16.48922778111735, 18.980945997388957, 21.186536551582613, 24.822448324400693, 27.593007553675324, 31.86535612271467, 33.985319854322825, 35.01227851918305]

>  <Cp_T_units>  (4) 
cal/(mol*K)

>  <T_list>  (4) 
[300.0, 400.0, 500.0, 600.0, 800.0, 1000.0, 1500.0, 2000.0, 2400.0]

>  <T_units>  (4) 
K

>  <yaml_path>  (4) 
/home/calvin/Dropbox/PersonalFolders/Calvin/ZEUS_Converged/rmg_rxn_16719/output/Species/rmg_rxn_16719_p2_CC=sbr-N-sbr/rmg_rxn_16719_p2_CC=sbr-N-sbr.yml

>  <frequencies_cm1>  (4) 
[183.94593576684, 430.87586088872, 744.9511684695599, 909.3948659275999, 1050.2642027820798, 1063.7578289358798, 1237.9320445923597, 1377.0846351168398, 1461.72709617116, 1465.6893467008, 1739.36617964408, 2963.10416558, 3026.2186276561197, 3097.525403219, 3131.35217290532]

>  <ZPE_kJmol>  (4) 
142.8532380575317

>  <E_elec_kJmol>  (4) 
-349997.67558261286

>  <E0_minus_Eelec_plus_ZPE_kJmol>  (4) 
0.0

>  <rxn>  (4) 
rmg_rxn_16719

>  <species_type>  (4) 
p1

>  <species_folder>  (4) 
rmg_rxn_16719_p2_CC=sbr-N-sbr

>  <frequencies_cm1_list>  (4) 
[183.94593576684, 430.87586088872, 744.9511684695599, 909.3948659275999, 1050.2642027820798, 1063.7578289358798, 1237.9320445923597, 1377.0846351168398, 1461.72709617116, 1465.6893467008, 1739.36617964408, 2963.10416558, 3026.2186276561197, 3097.525403219, 3131.35217290532]

>  <E0_kJmol>  (4) 
-349855

>  <H298_kJmol>  (4) 
-349842

$$$$

     RDKit          3D

  4  3  0  0  0  0  0  0  0  0999 V2000
   -0.0235    0.0026    0.0007 C   0  0  0  0  0  0  0  0  0  1  0  0
    1.2046   -0.1325   -0.0372 N   0  0  0  0  0  2  0  0  0  2  0  0
   -0.6930   -0.8666    0.0185 H   0  0  0  0  0  0  0  0  0  3  0  0
   -0.4880    0.9965    0.0179 H   0  0  0  0  0  0  0  0  0  4  0  0
  1  3  1  0
  1  4  1  0
  1  2  1  0
M  RAD  1   2   2
M  END
>  <rmg_smiles>  (5) 
[CH2][N]

>  <rmg_adjacency_list>  (5) 
multiplicity 2
1 N u1 p2 c0 {2,S}
2 C u0 p0 c0 {1,S} {3,S} {4,S}
3 H u0 p0 c0 {2,S}
4 H u0 p0 c0 {2,S}


>  <multiplicity>  (5) 
2

>  <reaction>  (5) 
rmg_rxn_16719

>  <type>  (5) 
r2

>  <role_mapnums>  (5) 
{}

>  <role_mapidx>  (5) 
{}

>  <ordered_mapped_smiles>  (5) 
[CH:1]([NH:2])([H:3])[H:4]

>  <level_of_theory>  (5) 
wb97xd/def2tzvp

>  <lot_method>  (5) 
wb97xd

>  <lot_basis>  (5) 
def2tzvp

>  <spin_multiplicity>  (5) 
2.0

>  <optical_isomers>  (5) 
1.0

>  <modes>  (5) 
IdealGasTranslation(mass=(28.0187, 'amu')),         NonlinearRotor(             inertia = ([1.77036, 12.7332, 14.5036

>  <frequency_value>  (5) 
unknown

>  <frequency_units>  (5) 
unknown

>  <frequency_list>  (5) 
unknown

>  <arkane_path>  (5) 
/home/calvin/Dropbox/PersonalFolders/Calvin/ZEUS_Converged/rmg_rxn_16719/output/Species/rmg_rxn_16719_r1_C=sbr-N-sbr/arkane/output.py

>  <path_exists>  (5) 
True

>  <E0_value>  (5) 
-246684.55210791552

>  <E0_units>  (5) 
kJ/mol

>  <thermo_class>  (5) 
NASA

>  <Cp0_value>  (5) 
33.257888

>  <Cp0_units>  (5) 
J/(mol*K)

>  <CpInf_value>  (5) 
83.14472

>  <CpInf_units>  (5) 
J/(mol*K)

>  <Tmin_value>  (5) 
10.0

>  <Tmin_units>  (5) 
K

>  <Tmax_value>  (5) 
3000.0

>  <Tmax_units>  (5) 
K

>  <polynomials>  (5) 
[{"name": "polynomial1", "class": "NASAPolynomial", "Tmin_value": 10.0, "Tmin_units": "K", "Tmax_value": 940.7148683215217, "Tmax_units": "K", "coeffs": [4.066582150505424, -0.00294529183182086, 2.0923630635656942e-05, -2.1725797231907374e-08, 7.260495220908212e-12, -29669301.271788627, 3.887654238456512]}, {"name": "polynomial2", "class": "NASAPolynomial", "Tmin_value": 940.7148683215217, "Tmin_units": "K", "Tmax_value": 3000.0, "Tmax_units": "K", "coeffs": [2.4177638764196314, 0.008438429295388641, -4.200655052959667e-06, 1.020636969464395e-09, -9.76766733436895e-14, -29669184.542691655, 10.713090798555452]}]

>  <H298_value>  (5) 
-58956.591622867

>  <H298_units>  (5) 
kcal/mol

>  <S298_value>  (5) 
53.51422667564984

>  <S298_units>  (5) 
cal/(mol*K)

>  <Cp_T_value_list>  (5) 
[9.018608505901824, 9.998955360345976, 11.05463142338205, 12.082418337697861, 13.814588530557753, 15.060041317711931, 17.038498443572106, 18.072194924765178, 18.566130424083166]

>  <Cp_T_units>  (5) 
cal/(mol*K)

>  <T_list>  (5) 
[300.0, 400.0, 500.0, 600.0, 800.0, 1000.0, 1500.0, 2000.0, 2400.0]

>  <T_units>  (5) 
K

>  <yaml_path>  (5) 
/home/calvin/Dropbox/PersonalFolders/Calvin/ZEUS_Converged/rmg_rxn_16719/output/Species/rmg_rxn_16719_r1_C=sbr-N-sbr/rmg_rxn_16719_r1_C=sbr-N-sbr.yml

>  <frequencies_cm1>  (5) 
[931.60269645248, 995.74033934128, 1367.3953188303199, 1729.09316960536, 2962.5273388131195, 3028.35426009064]

>  <ZPE_kJmol>  (5) 
65.8826340447903

>  <E_elec_kJmol>  (5) 
-246750.43474196031

>  <E0_minus_Eelec_plus_ZPE_kJmol>  (5) 
0.0

>  <rxn>  (5) 
rmg_rxn_16719

>  <species_type>  (5) 
r0

>  <species_folder>  (5) 
rmg_rxn_16719_r1_C=sbr-N-sbr

>  <frequencies_cm1_list>  (5) 
[931.60269645248, 995.74033934128, 1367.3953188303199, 1729.09316960536, 2962.5273388131195, 3028.35426009064]

>  <E0_kJmol>  (5) 
-246685

>  <H298_kJmol>  (5) 
-246674

$$$$
