
     RDKit          3D

  9  9  0  0  0  0  0  0  0  0999 V2000
    0.0808    0.1452   -1.0390 C   0  0  0  0  0  0  0  0  0  1  0  0
    0.8884   -0.6044    0.0086 C   0  0  0  0  0  0  0  0  0  2  0  0
   -0.1340   -0.1916    0.9911 N   0  0  0  0  0  0  0  0  0  3  0  0
   -0.8245    0.5577   -0.0007 O   0  0  0  0  0  0  0  0  0  4  0  0
   -0.4280   -0.4689   -1.7841 H   0  0  0  0  0  0  0  0  0  5  0  0
    0.5656    0.9972   -1.5173 H   0  0  0  0  0  0  0  0  0  6  0  0
    1.8770   -0.1889    0.2204 H   0  0  0  0  0  0  0  0  0  7  0  0
    0.9614   -1.6864   -0.0998 H   0  0  0  0  0  0  0  0  0  8  0  0
    0.3500    0.5082    1.5891 H   0  0  0  0  0  0  0  0  0  9  0  0
  1  5  1  0
  1  4  1  0
  1  6  1  0
  1  2  1  0
  2  3  1  0
  2  8  1  0
  2  7  1  0
  3  9  1  0
  3  4  1  0
M  END
>  <rmg_smiles>  (1) 
C1CNO1

>  <rmg_adjacency_list>  (1) 
1 O u0 p2 c0 {2,S} {4,S}
2 N u0 p1 c0 {1,S} {3,S} {9,S}
3 C u0 p0 c0 {2,S} {4,S} {5,S} {6,S}
4 C u0 p0 c0 {1,S} {3,S} {7,S} {8,S}
5 H u0 p0 c0 {3,S}
6 H u0 p0 c0 {3,S}
7 H u0 p0 c0 {4,S}
8 H u0 p0 c0 {4,S}
9 H u0 p0 c0 {2,S}


>  <multiplicity>  (1) 
1

>  <reaction>  (1) 
rmg_rxn_10663

>  <type>  (1) 
r1h

>  <role_mapnums>  (1) 
{"r1h_a": 3, "r1h_h": 9}

>  <role_mapidx>  (1) 
{"r1h_a": 2, "r1h_h": 8}

>  <ordered_mapped_smiles>  (1) 
[C:1]1([H:5])([H:6])[C:2]([H:7])([H:8])[N:3]([H:9])[O:4]1

>  <mol_properties>  (1) 
{"2": {"label": "donator", "atom_type": "N3s"}, "8": {"label": "d_hydrogen", "atom_type": "H0"}}

>  <level_of_theory>  (1) 
wb97xd/def2tzvp

>  <lot_method>  (1) 
wb97xd

>  <lot_basis>  (1) 
def2tzvp

>  <spin_multiplicity>  (1) 
1.0

>  <optical_isomers>  (1) 
2.0

>  <modes>  (1) 
IdealGasTranslation(mass=(59.0371, 'amu')),         NonlinearRotor(             inertia = ([39.1516, 41.075, 71.4672

>  <frequency_value>  (1) 
unknown

>  <frequency_units>  (1) 
unknown

>  <frequency_list>  (1) 
unknown

>  <arkane_path>  (1) 
/home/calvin/Dropbox/PersonalFolders/Calvin/ZEUS_Converged/rmg_rxn_10663/output/Species/rmg_rxn_10663_r1_C1CNO1/arkane/output.py

>  <path_exists>  (1) 
True

>  <E0_value>  (1) 
-548813.9925652791

>  <E0_units>  (1) 
kJ/mol

>  <thermo_class>  (1) 
NASA

>  <Cp0_value>  (1) 
33.257888

>  <Cp0_units>  (1) 
J/(mol*K)

>  <CpInf_value>  (1) 
207.8618

>  <CpInf_units>  (1) 
J/(mol*K)

>  <Tmin_value>  (1) 
10.0

>  <Tmin_units>  (1) 
K

>  <Tmax_value>  (1) 
3000.0

>  <Tmax_units>  (1) 
K

>  <polynomials>  (1) 
[{"name": "polynomial1", "class": "NASAPolynomial", "Tmin_value": 10.0, "Tmin_units": "K", "Tmax_value": 733.6104995939062, "Tmax_units": "K", "coeffs": [4.077827212604522, -0.005386596362494975, 8.406479709387594e-05, -1.0955987033055228e-07, 4.5560761872445825e-11, -66007078.65566898, 9.13400291644228]}, {"name": "polynomial2", "class": "NASAPolynomial", "Tmin_value": 733.6104995939062, "Tmin_units": "K", "Tmax_value": 3000.0, "Tmax_units": "K", "coeffs": [-1.381871719366429, 0.035186850356113145, -2.098679790853313e-05, 5.981373096893418e-09, -6.548792766584922e-13, -66006568.338417664, 31.801027157418137]}]

>  <H298_value>  (1) 
-131166.66933424954

>  <H298_units>  (1) 
kcal/mol

>  <S298_value>  (1) 
66.80308769165718

>  <S298_units>  (1) 
cal/(mol*K)

>  <Cp_T_value_list>  (1) 
[14.782045633995951, 18.9342625283718, 22.958777229242912, 26.527098552780135, 32.054202003724576, 36.057215220408175, 41.83053068392948, 44.54830846275449, 45.987519872501906]

>  <Cp_T_units>  (1) 
cal/(mol*K)

>  <T_list>  (1) 
[300.0, 400.0, 500.0, 600.0, 800.0, 1000.0, 1500.0, 2000.0, 2400.0]

>  <T_units>  (1) 
K

>  <yaml_path>  (1) 
/home/calvin/Dropbox/PersonalFolders/Calvin/ZEUS_Converged/rmg_rxn_10663/output/Species/rmg_rxn_10663_r1_C1CNO1/rmg_rxn_10663_r1_C1CNO1.yml

>  <frequencies_cm1>  (1) 
[126.69587915399998, 749.09882760284, 874.66852116436, 913.45325425172, 960.7324481799199, 981.1136606096799, 1029.57397601292, 1083.25320025936, 1154.1548236883598, 1199.9164138608398, 1247.03080014136, 1307.63194559036, 1350.2553234716, 1386.89755713912, 1499.0972302826, 1522.45871434124, 2991.80129723228, 3049.64191458264, 3068.4093854622, 3104.5503292013595, 3404.23243555148]

>  <ZPE_kJmol>  (1) 
197.41181047628305

>  <E_elec_kJmol>  (1) 
-549011.4043757555

>  <E0_minus_Eelec_plus_ZPE_kJmol>  (1) 
0.0

>  <rxn>  (1) 
rmg_rxn_10663

>  <species_type>  (1) 
r0

>  <species_folder>  (1) 
rmg_rxn_10663_r1_C1CNO1

>  <frequencies_cm1_list>  (1) 
[126.69587915399998, 749.09882760284, 874.66852116436, 913.45325425172, 960.7324481799199, 981.1136606096799, 1029.57397601292, 1083.25320025936, 1154.1548236883598, 1199.9164138608398, 1247.03080014136, 1307.63194559036, 1350.2553234716, 1386.89755713912, 1499.0972302826, 1522.45871434124, 2991.80129723228, 3049.64191458264, 3068.4093854622, 3104.5503292013595, 3404.23243555148]

>  <E0_kJmol>  (1) 
-548814

>  <H298_kJmol>  (1) 
-548801

$$$$

     RDKit          3D

 17 16  0  0  0  0  0  0  0  0999 V2000
   -0.0590   -2.8494    0.7693 H   0  0  0  0  0  0  0  0  0  1  0  0
   -0.9285    2.6874   -0.3281 C   0  0  0  0  0  0  0  0  0  2  0  0
   -1.3945    1.4204   -0.9701 C   0  0  0  0  0  0  0  0  0  3  0  0
   -0.9978    0.1981   -0.6518 C   0  0  0  0  0  0  0  0  0  4  0  0
   -0.1273   -0.0224    0.3862 O   0  0  0  0  0  0  0  0  0  5  0  0
    0.6673   -1.1749    0.1559 N   0  0  0  0  0  0  0  0  0  6  0  0
    0.5085   -2.0936    1.1541 N   0  0  0  0  0  0  0  0  0  7  0  0
    2.0454   -0.7320   -0.0068 C   0  0  0  0  0  0  0  0  0  8  0  0
   -0.6304    3.4172   -1.0841 H   0  0  0  0  0  0  0  0  0  9  0  0
   -0.0832    2.5092    0.3353 H   0  0  0  0  0  0  0  0  0 10  0  0
   -1.7273    3.1454    0.2612 H   0  0  0  0  0  0  0  0  0 11  0  0
   -2.1437    1.4903   -1.7498 H   0  0  0  0  0  0  0  0  0 12  0  0
   -1.3577   -0.7059   -1.1267 H   0  0  0  0  0  0  0  0  0 13  0  0
   -0.1348   -1.6879    1.8344 H   0  0  0  0  0  0  0  0  0 14  0  0
    2.3993   -0.1994    0.8812 H   0  0  0  0  0  0  0  0  0 15  0  0
    2.1007   -0.0820   -0.8786 H   0  0  0  0  0  0  0  0  0 16  0  0
    2.6600   -1.6151   -0.1678 H   0  0  0  0  0  0  0  0  0 17  0  0
  1  7  1  0
  2 10  1  0
  2  9  1  0
  2 11  1  0
  2  3  1  0
  3  4  1  0
  3 12  1  0
  4 13  1  0
  4  5  1  0
  5  6  1  0
  6  8  1  0
  6  7  1  0
  7 14  1  0
  8 17  1  0
  8 16  1  0
  8 15  1  0
M  END
>  <rmg_smiles>  (2) 
C[CH][CH]ON(N)C

>  <rmg_adjacency_list>  (2) 
1  O u0 p2 c0 {2,S} {7,S}
2  N u0 p1 c0 {1,S} {3,S} {4,S}
3  N u0 p1 c0 {2,S} {16,S} {17,S}
4  C u0 p0 c0 {2,S} {11,S} {12,S} {13,S}
5  C u0 p0 c0 {6,S} {8,S} {9,S} {10,S}
6  C u0 p0 c0 {5,S} {7,S} {14,S}
7  C u0 p0 c0 {1,S} {6,S} {15,S}
8  H u0 p0 c0 {5,S}
9  H u0 p0 c0 {5,S}
10 H u0 p0 c0 {5,S}
11 H u0 p0 c0 {4,S}
12 H u0 p0 c0 {4,S}
13 H u0 p0 c0 {4,S}
14 H u0 p0 c0 {6,S}
15 H u0 p0 c0 {7,S}
16 H u0 p0 c0 {3,S}
17 H u0 p0 c0 {3,S}


>  <multiplicity>  (2) 
1

>  <reaction>  (2) 
rmg_rxn_10663

>  <type>  (2) 
r2h

>  <role_mapnums>  (2) 
{"r2h_a": 7, "r2h_h": 1}

>  <role_mapidx>  (2) 
{"r2h_a": 6, "r2h_h": 0}

>  <ordered_mapped_smiles>  (2) 
[H:1][N:7]([N:6]([O:5][CH:4]([CH:3]([C:2]([H:9])([H:10])[H:11])[H:12])[H:13])[C:8]([H:15])([H:16])[H:17])[H:14]

>  <mol_properties>  (2) 
{"0": {"label": "a_hydrogen", "atom_type": "H0"}, "6": {"label": "acceptor", "atom_type": "N3s"}}

>  <level_of_theory>  (2) 
wb97xd/def2tzvp

>  <lot_method>  (2) 
wb97xd

>  <lot_basis>  (2) 
def2tzvp

>  <spin_multiplicity>  (2) 
1.0

>  <optical_isomers>  (2) 
2.0

>  <modes>  (2) 
IdealGasTranslation(mass=(102.079, 'amu')),         NonlinearRotor(             inertia = ([85.6795, 376.18, 388.876

>  <frequency_value>  (2) 
unknown

>  <frequency_units>  (2) 
unknown

>  <frequency_list>  (2) 
unknown

>  <arkane_path>  (2) 
/home/calvin/Dropbox/PersonalFolders/Calvin/ZEUS_Converged/rmg_rxn_10663/output/Species/rmg_rxn_10663_p2_CC=CONrbr-N-rbrC/arkane/output.py

>  <path_exists>  (2) 
True

>  <E0_value>  (2) 
-900405.0494296006

>  <E0_units>  (2) 
kJ/mol

>  <thermo_class>  (2) 
NASA

>  <Cp0_value>  (2) 
33.257888

>  <Cp0_units>  (2) 
J/(mol*K)

>  <CpInf_value>  (2) 
407.409128

>  <CpInf_units>  (2) 
J/(mol*K)

>  <Tmin_value>  (2) 
10.0

>  <Tmin_units>  (2) 
K

>  <Tmax_value>  (2) 
3000.0

>  <Tmax_units>  (2) 
K

>  <polynomials>  (2) 
[{"name": "polynomial1", "class": "NASAPolynomial", "Tmin_value": 10.0, "Tmin_units": "K", "Tmax_value": 1108.736796573486, "Tmax_units": "K", "coeffs": [3.593482067657345, 0.04527343613148581, -7.853115807860651e-07, -2.043658609457127e-08, 8.18045447415304e-12, -108293714.18687978, 12.85162704751556]}, {"name": "polynomial2", "class": "NASAPolynomial", "Tmin_value": 1108.736796573486, "Tmin_units": "K", "Tmax_value": 3000.0, "Tmax_units": "K", "coeffs": [7.506038002578287, 0.046589931565087575, -2.3444009976697085e-05, 5.741145862751885e-09, -5.527118171710488e-13, -108295530.30298632, -10.705520626468415]}]

>  <H298_value>  (2) 
-215195.9362782153

>  <H298_units>  (2) 
kcal/mol

>  <S298_value>  (2) 
92.63660749241524

>  <S298_units>  (2) 
cal/(mol*K)

>  <Cp_T_value_list>  (2) 
[33.0259983327988, 40.69537554931736, 47.67423133324528, 53.89446290908325, 63.981717362233816, 71.19261681574156, 81.91300293988421, 87.42841994031997, 90.0449470406118]

>  <Cp_T_units>  (2) 
cal/(mol*K)

>  <T_list>  (2) 
[300.0, 400.0, 500.0, 600.0, 800.0, 1000.0, 1500.0, 2000.0, 2400.0]

>  <T_units>  (2) 
K

>  <yaml_path>  (2) 
/home/calvin/Dropbox/PersonalFolders/Calvin/ZEUS_Converged/rmg_rxn_10663/output/Species/rmg_rxn_10663_p2_CC=CONrbr-N-rbrC/rmg_rxn_10663_p2_CC=CONrbr-N-rbrC.yml

>  <frequencies_cm1>  (2) 
[42.90492427935999, 70.94969232623998, 121.85465450339998, 166.71666959895998, 253.87244728039994, 301.92074356444, 373.40606074563993, 419.64833989052, 445.81842094504, 504.72342102, 549.00174236336, 631.06908392268, 758.13578028396, 848.92419319968, 869.8822323963199, 938.1057315505199, 966.4663809221199, 985.6939398181199, 1045.86246519196, 1060.8324931895597, 1129.8319616849199, 1145.91444130436, 1177.50257377636, 1255.0720399510801, 1275.68672988172, 1357.8776771768, 1378.40309629828, 1417.9431977708398, 1431.4368239246398, 1469.8713407606797, 1474.3760831306, 1478.2284618951198, 1482.71260330908, 1665.8688357641197, 1738.5215404497199, 2975.03898606616, 3009.26404090104, 3062.7647235291597, 3097.66960991072, 3105.09968802696, 3145.0998775159596, 3146.5076095065597, 3168.9763854735997, 3405.2006804816, 3560.0443324622797]

>  <ZPE_kJmol>  (2) 
382.271003727177

>  <E_elec_kJmol>  (2) 
-900787.3204333278

>  <E0_minus_Eelec_plus_ZPE_kJmol>  (2) 
0.0

>  <rxn>  (2) 
rmg_rxn_10663

>  <species_type>  (2) 
p1

>  <species_folder>  (2) 
rmg_rxn_10663_p2_CC=CONrbr-N-rbrC

>  <frequencies_cm1_list>  (2) 
[42.90492427935999, 70.94969232623998, 121.85465450339998, 166.71666959895998, 253.87244728039994, 301.92074356444, 373.40606074563993, 419.64833989052, 445.81842094504, 504.72342102, 549.00174236336, 631.06908392268, 758.13578028396, 848.92419319968, 869.8822323963199, 938.1057315505199, 966.4663809221199, 985.6939398181199, 1045.86246519196, 1060.8324931895597, 1129.8319616849199, 1145.91444130436, 1177.50257377636, 1255.0720399510801, 1275.68672988172, 1357.8776771768, 1378.40309629828, 1417.9431977708398, 1431.4368239246398, 1469.8713407606797, 1474.3760831306, 1478.2284618951198, 1482.71260330908, 1665.8688357641197, 1738.5215404497199, 2975.03898606616, 3009.26404090104, 3062.7647235291597, 3097.66960991072, 3105.09968802696, 3145.0998775159596, 3146.5076095065597, 3168.9763854735997, 3405.2006804816, 3560.0443324622797]

>  <E0_kJmol>  (2) 
-900405

>  <H298_kJmol>  (2) 
-900380

$$$$

     RDKit          3D

 25 24  0  0  0  0  0  0  0  0999 V2000
   -0.5416   -2.4255   -1.4285 C   0  0  0  0  0  0  0  0  0  1  0  0
    0.2661   -3.1751   -0.3809 C   0  0  0  0  0  0  0  0  0  2  0  0
   -0.7564   -2.7623    0.6016 N   0  0  0  0  0  0  0  0  0  3  0  0
   -1.4469   -2.0130   -0.3902 O   0  0  0  0  0  0  0  0  0  4  0  0
   -1.0504   -3.0396   -2.1736 H   0  0  0  0  0  0  0  0  0  5  0  0
   -0.0568   -1.5735   -1.9068 H   0  0  0  0  0  0  0  0  0  6  0  0
    1.2546   -2.7596   -0.1691 H   0  0  0  0  0  0  0  0  0  7  0  0
    0.3390   -4.2571   -0.4893 H   0  0  0  0  0  0  0  0  0  8  0  0
   -0.1899   -1.9434    1.3013 H   0  0  0  0  0  0  0  0  0  9  0  0
   -0.9046    3.7996    0.3089 C   0  0  0  0  0  0  0  0  0 10  0  0
   -1.3706    2.5326   -0.3331 C   0  0  0  0  0  0  0  0  0 11  0  0
   -0.9739    1.3102   -0.0148 C   0  0  0  0  0  0  0  0  0 12  0  0
   -0.1034    1.0898    1.0233 O   0  0  0  0  0  0  0  0  0 13  0  0
    0.6913   -0.0627    0.7929 N   0  0  0  0  0  0  0  0  0 14  0  0
    0.5324   -0.9814    1.7911 N   0  0  0  0  0  2  0  0  0 15  0  0
    2.0693    0.3802    0.6302 C   0  0  0  0  0  0  0  0  0 16  0  0
   -0.6064    4.5294   -0.4470 H   0  0  0  0  0  0  0  0  0 17  0  0
   -0.0593    3.6214    0.9724 H   0  0  0  0  0  0  0  0  0 18  0  0
   -1.7034    4.2576    0.8983 H   0  0  0  0  0  0  0  0  0 19  0  0
   -2.1198    2.6025   -1.1127 H   0  0  0  0  0  0  0  0  0 20  0  0
   -1.3338    0.4063   -0.4897 H   0  0  0  0  0  0  0  0  0 21  0  0
   -0.1109   -0.5758    2.4714 H   0  0  0  0  0  0  0  0  0 22  0  0
    2.4232    0.9128    1.5182 H   0  0  0  0  0  0  0  0  0 23  0  0
    2.1246    1.0302   -0.2415 H   0  0  0  0  0  0  0  0  0 24  0  0
    2.6839   -0.5029    0.4692 H   0  0  0  0  0  0  0  0  0 25  0  0
  1  4  1  0
  1  5  1  0
  1  6  1  0
  1  2  1  0
  2  8  1  0
  2  3  1  0
  2  7  1  0
  3  4  1  0
  3  9  1  0
 10 18  1  0
 10 11  1  0
 10 19  1  0
 10 17  1  0
 11 12  1  0
 11 20  1  0
 12 13  1  0
 12 21  1  0
 13 14  1  0
 14 15  1  0
 14 16  1  0
 15 22  1  0
 16 23  1  0
 16 24  1  0
 16 25  1  0
M  RAD  1  15   2
M  END
>  <rmg_smiles>  (3) 
C1CNO1.C[CH][CH]ON([NH])C

>  <rmg_adjacency_list>  (3) 
multiplicity 2
1  O u0 p2 c0 {4,S} {7,S}
2  O u0 p2 c0 {3,S} {11,S}
3  N u0 p1 c0 {2,S} {5,S} {9,S}
4  N u0 p1 c0 {1,S} {6,S} {23,S}
5  N u1 p1 c0 {3,S} {25,S}
6  C u0 p0 c0 {4,S} {7,S} {12,S} {13,S}
7  C u0 p0 c0 {1,S} {6,S} {14,S} {15,S}
8  C u0 p0 c0 {10,S} {16,S} {17,S} {18,S}
9  C u0 p0 c0 {3,S} {19,S} {20,S} {21,S}
10 C u0 p0 c0 {8,S} {11,S} {22,S}
11 C u0 p0 c0 {2,S} {10,S} {24,S}
12 H u0 p0 c0 {6,S}
13 H u0 p0 c0 {6,S}
14 H u0 p0 c0 {7,S}
15 H u0 p0 c0 {7,S}
16 H u0 p0 c0 {8,S}
17 H u0 p0 c0 {8,S}
18 H u0 p0 c0 {8,S}
19 H u0 p0 c0 {9,S}
20 H u0 p0 c0 {9,S}
21 H u0 p0 c0 {9,S}
22 H u0 p0 c0 {10,S}
23 H u0 p0 c0 {4,S}
24 H u0 p0 c0 {11,S}
25 H u0 p0 c0 {5,S}


>  <multiplicity>  (3) 
2

>  <reaction>  (3) 
rmg_rxn_10663

>  <type>  (3) 
ts

>  <role_mapnums>  (3) 
{"*2": 9, "*1": 3, "*3": 15, "*0": 4, "*4": 14}

>  <role_mapidx>  (3) 
{"*2": 8, "*1": 2, "*3": 14, "*0": 3, "*4": 13}

>  <ordered_mapped_smiles>  (3) 
[C:1]1([H:5])([H:6])[C:2]([H:7])([H:8])[N:3]([H:9])[O:4]1.[C:10]([CH:11]([CH:12]([O:13][N:14]([N:15][H:22])[C:16]([H:23])([H:24])[H:25])[H:21])[H:20])([H:17])([H:18])[H:19]

>  <mol_properties>  (3) 
{"2": {"label": "*1", "atom_type": "N3s"}, "3": {"label": "*0", "atom_type": "O2s"}, "8": {"label": "*2", "atom_type": "H0"}, "13": {"label": "*4", "atom_type": "N3s"}, "14": {"label": "*3", "atom_type": "N3s"}}

>  <level_of_theory>  (3) 
wb97xd/def2tzvp

>  <lot_method>  (3) 
wb97xd

>  <lot_basis>  (3) 
def2tzvp

>  <spin_multiplicity>  (3) 
2.0

>  <optical_isomers>  (3) 
2.0

>  <modes>  (3) 
IdealGasTranslation(mass=(160.109, 'amu')),         NonlinearRotor(             inertia = ([290.109, 843.353, 990.143

>  <frequency_value>  (3) 
-2136.87

>  <frequency_units>  (3) 
cm^-1

>  <frequency_list>  (3) 
unknown

>  <arkane_path>  (3) 
/home/calvin/Dropbox/PersonalFolders/Calvin/ZEUS_Converged/rmg_rxn_10663/output/rxns/TS0/arkane/output.py

>  <path_exists>  (3) 
True

>  <E0_value>  (3) 
-1447520.0

>  <E0_units>  (3) 
kJ/mol

>  <thermo_class>  (3) 
unknown

>  <Cp0_value>  (3) 
unknown

>  <Cp0_units>  (3) 
unknown

>  <CpInf_value>  (3) 
unknown

>  <CpInf_units>  (3) 
unknown

>  <Tmin_value>  (3) 
unknown

>  <Tmin_units>  (3) 
unknown

>  <Tmax_value>  (3) 
unknown

>  <Tmax_units>  (3) 
unknown

>  <polynomials>  (3) 
unknown

>  <H298_value>  (3) 
unknown

>  <H298_units>  (3) 
unknown

>  <S298_value>  (3) 
unknown

>  <S298_units>  (3) 
unknown

>  <Cp_T_value_list>  (3) 
unknown

>  <Cp_T_units>  (3) 
unknown

>  <T_list>  (3) 
unknown

>  <T_units>  (3) 
unknown

>  <yaml_path>  (3) 
unknown

>  <frequencies_cm1>  (3) 
unknown

>  <ZPE_kJmol>  (3) 
unknown

>  <E_elec_kJmol>  (3) 
unknown

>  <E0_minus_Eelec_plus_ZPE_kJmol>  (3) 
unknown

>  <rxn>  (3) 
unknown

>  <species_type>  (3) 
unknown

>  <species_folder>  (3) 
unknown

>  <frequencies_cm1_list>  (3) 
[]

>  <ts_imag_freq_cm1>  (3) 
-2162.8252

>  <ts_freq_out_path>  (3) 
/home/calvin/Dropbox/PersonalFolders/Calvin/ZEUS_Converged/rmg_rxn_10663/output/rxns/TS0/geometry/freq.out

>  <E0_kJmol>  (3) 
-1.44752e+06

>  <H298_kJmol>  (3) 
unknown

$$$$

     RDKit          3D

  8  8  0  0  0  0  0  0  0  0999 V2000
    0.7709   -0.0208    0.0860 C   0  0  0  0  0  0  0  0  0  1  0  0
   -0.7145   -0.3116   -0.0627 C   0  0  0  0  0  0  0  0  0  2  0  0
   -0.9103    1.1413   -0.1588 N   0  0  0  0  0  2  0  0  0  3  0  0
    0.4415    1.3771   -0.0220 O   0  0  0  0  0  0  0  0  0  4  0  0
    1.4230   -0.3408   -0.7273 H   0  0  0  0  0  0  0  0  0  5  0  0
    1.2274   -0.2496    1.0495 H   0  0  0  0  0  0  0  0  0  6  0  0
   -1.2163   -0.7525    0.8013 H   0  0  0  0  0  0  0  0  0  7  0  0
   -1.0217   -0.8432   -0.9658 H   0  0  0  0  0  0  0  0  0  8  0  0
  1  5  1  0
  1  4  1  0
  1  6  1  0
  1  2  1  0
  2  3  1  0
  2  8  1  0
  2  7  1  0
  3  4  1  0
M  RAD  1   3   2
M  END
>  <rmg_smiles>  (4) 
C1C[N]O1

>  <rmg_adjacency_list>  (4) 
multiplicity 2
1 O u0 p2 c0 {2,S} {3,S}
2 N u1 p1 c0 {1,S} {4,S}
3 C u0 p0 c0 {1,S} {4,S} {5,S} {6,S}
4 C u0 p0 c0 {2,S} {3,S} {7,S} {8,S}
5 H u0 p0 c0 {3,S}
6 H u0 p0 c0 {3,S}
7 H u0 p0 c0 {4,S}
8 H u0 p0 c0 {4,S}


>  <multiplicity>  (4) 
2

>  <reaction>  (4) 
rmg_rxn_10663

>  <type>  (4) 
r1

>  <role_mapnums>  (4) 
{}

>  <role_mapidx>  (4) 
{}

>  <ordered_mapped_smiles>  (4) 
[C:1]1([H:5])([H:6])[C:2]([H:7])([H:8])[N:3][O:4]1

>  <level_of_theory>  (4) 
wb97xd/def2tzvp

>  <lot_method>  (4) 
wb97xd

>  <lot_basis>  (4) 
def2tzvp

>  <spin_multiplicity>  (4) 
2.0

>  <optical_isomers>  (4) 
1.0

>  <modes>  (4) 
IdealGasTranslation(mass=(58.0293, 'amu')),         NonlinearRotor(             inertia = ([36.1616, 38.1823, 67.9218

>  <frequency_value>  (4) 
unknown

>  <frequency_units>  (4) 
unknown

>  <frequency_list>  (4) 
unknown

>  <arkane_path>  (4) 
/home/calvin/Dropbox/PersonalFolders/Calvin/ZEUS_Converged/rmg_rxn_10663/output/Species/rmg_rxn_10663_p1_C1Csbr-N-sbrO1/arkane/output.py

>  <path_exists>  (4) 
True

>  <E0_value>  (4) 
-547192.5830183756

>  <E0_units>  (4) 
kJ/mol

>  <thermo_class>  (4) 
NASA

>  <Cp0_value>  (4) 
33.257888

>  <Cp0_units>  (4) 
J/(mol*K)

>  <CpInf_value>  (4) 
182.918384

>  <CpInf_units>  (4) 
J/(mol*K)

>  <Tmin_value>  (4) 
10.0

>  <Tmin_units>  (4) 
K

>  <Tmax_value>  (4) 
3000.0

>  <Tmax_units>  (4) 
K

>  <polynomials>  (4) 
[{"name": "polynomial1", "class": "NASAPolynomial", "Tmin_value": 10.0, "Tmin_units": "K", "Tmax_value": 721.2803246966065, "Tmax_units": "K", "coeffs": [4.081269324774337, -0.005774051499114103, 8.141477702070275e-05, -1.094902134935083e-07, 4.6973439735583125e-11, -65812067.94543052, 8.759725089878335]}, {"name": "polynomial2", "class": "NASAPolynomial", "Tmin_value": 721.2803246966065, "Tmin_units": "K", "Tmax_value": 3000.0, "Tmax_units": "K", "coeffs": [-0.4125713126623395, 0.030769588098054256, -1.8752548272813556e-05, 5.432472985850902e-09, -6.025436910445359e-13, -65811722.00074655, 26.87593611455925]}]

>  <H298_value>  (4) 
-130779.21979346684

>  <H298_units>  (4) 
kcal/mol

>  <S298_value>  (4) 
65.64177214242952

>  <S298_units>  (4) 
cal/(mol*K)

>  <Cp_T_value_list>  (4) 
[14.110423868599161, 17.871264907450385, 21.45686443400886, 24.569880452002437, 29.283658902293713, 32.65854216213234, 37.424654864791464, 39.61594848759476, 40.79201394168856]

>  <Cp_T_units>  (4) 
cal/(mol*K)

>  <T_list>  (4) 
[300.0, 400.0, 500.0, 600.0, 800.0, 1000.0, 1500.0, 2000.0, 2400.0]

>  <T_units>  (4) 
K

>  <yaml_path>  (4) 
/home/calvin/Dropbox/PersonalFolders/Calvin/ZEUS_Converged/rmg_rxn_10663/output/Species/rmg_rxn_10663_p1_C1Csbr-N-sbrO1/rmg_rxn_10663_p1_C1Csbr-N-sbrO1.yml

>  <frequencies_cm1>  (4) 
[190.59317755659998, 781.9436183884001, 878.41789514908, 959.5101247929599, 964.2964135609999, 1028.5851301268399, 1068.7707282194801, 1111.6069826456398, 1143.19511511764, 1178.53948855968, 1287.1477283808001, 1337.64067143876, 1467.2138174418399, 1509.27410252684, 3025.8958793460793, 3044.0109866202397, 3070.5312839260796, 3103.69882302168]

>  <ZPE_kJmol>  (4) 
162.39832502129732

>  <E_elec_kJmol>  (4) 
-547354.9813433968

>  <E0_minus_Eelec_plus_ZPE_kJmol>  (4) 
0.0

>  <rxn>  (4) 
rmg_rxn_10663

>  <species_type>  (4) 
p0

>  <species_folder>  (4) 
rmg_rxn_10663_p1_C1Csbr-N-sbrO1

>  <frequencies_cm1_list>  (4) 
[190.59317755659998, 781.9436183884001, 878.41789514908, 959.5101247929599, 964.2964135609999, 1028.5851301268399, 1068.7707282194801, 1111.6069826456398, 1143.19511511764, 1178.53948855968, 1287.1477283808001, 1337.64067143876, 1467.2138174418399, 1509.27410252684, 3025.8958793460793, 3044.0109866202397, 3070.5312839260796, 3103.69882302168]

>  <E0_kJmol>  (4) 
-547193

>  <H298_kJmol>  (4) 
-547180

$$$$

     RDKit          3D

 16 15  0  0  0  0  0  0  0  0999 V2000
   -2.7163    0.6711   -0.2082 C   0  0  0  0  0  0  0  0  0  1  0  0
   -2.0604   -0.6699   -0.1371 C   0  0  0  0  0  0  0  0  0  2  0  0
   -1.8776   -1.4967   -1.1546 C   0  0  0  0  0  0  0  0  0  3  0  0
   -2.2450   -1.1612   -2.4322 O   0  0  0  0  0  0  0  0  0  4  0  0
   -2.5108   -2.3329   -3.2086 N   0  0  0  0  0  0  0  0  0  5  0  0
   -2.0229   -2.3050   -4.4233 N   0  0  0  0  0  2  0  0  0  6  0  0
   -3.9082   -2.7128   -3.0828 C   0  0  0  0  0  0  0  0  0  7  0  0
   -3.4812    0.7676    0.5653 H   0  0  0  0  0  0  0  0  0  8  0  0
   -3.1809    0.8365   -1.1792 H   0  0  0  0  0  0  0  0  0  9  0  0
   -1.9897    1.4706   -0.0417 H   0  0  0  0  0  0  0  0  0 10  0  0
   -1.6717   -0.9974    0.8197 H   0  0  0  0  0  0  0  0  0 11  0  0
   -1.3990   -2.4648   -1.0638 H   0  0  0  0  0  0  0  0  0 12  0  0
   -1.1779   -1.7364   -4.3793 H   0  0  0  0  0  0  0  0  0 13  0  0
   -4.5563   -1.9305   -3.4853 H   0  0  0  0  0  0  0  0  0 14  0  0
   -4.1357   -2.8800   -2.0315 H   0  0  0  0  0  0  0  0  0 15  0  0
   -4.0457   -3.6333   -3.6440 H   0  0  0  0  0  0  0  0  0 16  0  0
  1 10  1  0
  1  8  1  0
  1  9  1  0
  1  2  1  0
  2 11  1  0
  2  3  1  0
  3  4  1  0
  3 12  1  0
  4  5  1  0
  5  6  1  0
  5  7  1  0
  6 13  1  0
  7 14  1  0
  7 15  1  0
  7 16  1  0
M  RAD  1   6   2
M  END
>  <rmg_smiles>  (5) 
C[CH][CH]ON([NH])C

>  <rmg_adjacency_list>  (5) 
multiplicity 2
1  O u0 p2 c0 {2,S} {7,S}
2  N u0 p1 c0 {1,S} {3,S} {5,S}
3  N u1 p1 c0 {2,S} {16,S}
4  C u0 p0 c0 {6,S} {8,S} {9,S} {10,S}
5  C u0 p0 c0 {2,S} {11,S} {12,S} {13,S}
6  C u0 p0 c0 {4,S} {7,S} {14,S}
7  C u0 p0 c0 {1,S} {6,S} {15,S}
8  H u0 p0 c0 {4,S}
9  H u0 p0 c0 {4,S}
10 H u0 p0 c0 {4,S}
11 H u0 p0 c0 {5,S}
12 H u0 p0 c0 {5,S}
13 H u0 p0 c0 {5,S}
14 H u0 p0 c0 {6,S}
15 H u0 p0 c0 {7,S}
16 H u0 p0 c0 {3,S}


>  <multiplicity>  (5) 
2

>  <reaction>  (5) 
rmg_rxn_10663

>  <type>  (5) 
r2

>  <role_mapnums>  (5) 
{}

>  <role_mapidx>  (5) 
{}

>  <ordered_mapped_smiles>  (5) 
[C:1]([CH:2]([CH:3]([O:4][N:5]([N:6][H:13])[C:7]([H:14])([H:15])[H:16])[H:12])[H:11])([H:8])([H:9])[H:10]

>  <level_of_theory>  (5) 
wb97xd/def2tzvp

>  <lot_method>  (5) 
wb97xd

>  <lot_basis>  (5) 
def2tzvp

>  <spin_multiplicity>  (5) 
2.0

>  <optical_isomers>  (5) 
2.0

>  <modes>  (5) 
IdealGasTranslation(mass=(101.071, 'amu')),         NonlinearRotor(             inertia = ([82.2482, 367.276, 386.349

>  <frequency_value>  (5) 
unknown

>  <frequency_units>  (5) 
unknown

>  <frequency_list>  (5) 
unknown

>  <arkane_path>  (5) 
/home/calvin/Dropbox/PersonalFolders/Calvin/ZEUS_Converged/rmg_rxn_10663/output/Species/rmg_rxn_10663_r2_CC=CONrbr-sbr-NH-sbr-rbrC/arkane/output.py

>  <path_exists>  (5) 
True

>  <E0_value>  (5) 
-898742.9185377804

>  <E0_units>  (5) 
kJ/mol

>  <thermo_class>  (5) 
NASA

>  <Cp0_value>  (5) 
33.257888

>  <Cp0_units>  (5) 
J/(mol*K)

>  <CpInf_value>  (5) 
382.465712

>  <CpInf_units>  (5) 
J/(mol*K)

>  <Tmin_value>  (5) 
10.0

>  <Tmin_units>  (5) 
K

>  <Tmax_value>  (5) 
3000.0

>  <Tmax_units>  (5) 
K

>  <polynomials>  (5) 
[{"name": "polynomial1", "class": "NASAPolynomial", "Tmin_value": 10.0, "Tmin_units": "K", "Tmax_value": 1230.351550791476, "Tmax_units": "K", "coeffs": [3.636448192617725, 0.046012269057782156, -1.0447598723861432e-05, -9.397618320350448e-09, 4.2997715161361366e-12, -108093806.20736969, 13.356245971953898]}, {"name": "polynomial2", "class": "NASAPolynomial", "Tmin_value": 1230.351550791476, "Tmin_units": "K", "Tmax_value": 3000.0, "Tmax_units": "K", "coeffs": [10.637798077256372, 0.03762876756034826, -1.7756617991574368e-05, 4.0613531266158274e-09, -3.6506325325576807e-13, -108096617.32351352, -26.295285854594052]}]

>  <H298_value>  (5) 
-214798.71695714595

>  <H298_units>  (5) 
kcal/mol

>  <S298_value>  (5) 
93.88909266705956

>  <S298_units>  (5) 
cal/(mol*K)

>  <Cp_T_value_list>  (5) 
[32.353584800793946, 39.50241933237663, 45.9535869024618, 51.687318427953755, 61.025931419689, 67.77024327047224, 77.47619958424356, 82.5061792663907, 84.85559276208323]

>  <Cp_T_units>  (5) 
cal/(mol*K)

>  <T_list>  (5) 
[300.0, 400.0, 500.0, 600.0, 800.0, 1000.0, 1500.0, 2000.0, 2400.0]

>  <T_units>  (5) 
K

>  <yaml_path>  (5) 
/home/calvin/Dropbox/PersonalFolders/Calvin/ZEUS_Converged/rmg_rxn_10663/output/Species/rmg_rxn_10663_r2_CC=CONrbr-sbr-NH-sbr-rbrC/rmg_rxn_10663_r2_CC=CONrbr-sbr-NH-sbr-rbrC.yml

>  <frequencies_cm1>  (5) 
[39.766711988119994, 75.63297631448, 123.26238649399998, 170.50724549560002, 210.75464645612, 275.49658405307997, 409.25172411604, 436.20464149704003, 468.50694044231994, 500.21867865008005, 576.8748357772399, 635.10687129084, 759.24136492048, 839.57822617916, 939.32118795216, 961.2680730348799, 1009.44684204, 1040.7534281138799, 1058.9372052412398, 1116.31086758984, 1136.6302771517198, 1158.60463017572, 1269.5201770643598, 1302.9417946168, 1381.1704913822398, 1418.63676328816, 1428.2162078095598, 1447.1828212633998, 1467.8867820031996, 1473.94346305544, 1477.12974424392, 1484.2920099326798, 1743.06061774624, 3013.6108426086, 3018.15678689044, 3068.4780553153996, 3106.953774063359, 3110.6619461361597, 3147.0088994349203, 3149.9479691518795, 3171.6476427630796, 3452.55541124832]

>  <ZPE_kJmol>  (5) 
347.3638170215182

>  <E_elec_kJmol>  (5) 
-899090.2823548019

>  <E0_minus_Eelec_plus_ZPE_kJmol>  (5) 
0.0

>  <rxn>  (5) 
rmg_rxn_10663

>  <species_type>  (5) 
r1

>  <species_folder>  (5) 
rmg_rxn_10663_r2_CC=CONrbr-sbr-NH-sbr-rbrC

>  <frequencies_cm1_list>  (5) 
[39.766711988119994, 75.63297631448, 123.26238649399998, 170.50724549560002, 210.75464645612, 275.49658405307997, 409.25172411604, 436.20464149704003, 468.50694044231994, 500.21867865008005, 576.8748357772399, 635.10687129084, 759.24136492048, 839.57822617916, 939.32118795216, 961.2680730348799, 1009.44684204, 1040.7534281138799, 1058.9372052412398, 1116.31086758984, 1136.6302771517198, 1158.60463017572, 1269.5201770643598, 1302.9417946168, 1381.1704913822398, 1418.63676328816, 1428.2162078095598, 1447.1828212633998, 1467.8867820031996, 1473.94346305544, 1477.12974424392, 1484.2920099326798, 1743.06061774624, 3013.6108426086, 3018.15678689044, 3068.4780553153996, 3106.953774063359, 3110.6619461361597, 3147.0088994349203, 3149.9479691518795, 3171.6476427630796, 3452.55541124832]

>  <E0_kJmol>  (5) 
-898743

>  <H298_kJmol>  (5) 
-898718

$$$$
