
     RDKit          3D

  9  8  0  0  0  0  0  0  0  0999 V2000
    1.2172   -1.1620   -0.0740 C   0  0  0  0  0  0  0  0  0  1  0  0
    0.1466   -0.4402    0.4473 O   0  0  0  0  0  0  0  0  0  2  0  0
   -0.2767    0.5146   -0.4510 N   0  0  0  0  0  0  0  0  0  3  0  0
   -1.2170    1.2159    0.0193 C   0  0  0  0  0  0  0  0  0  4  0  0
    2.1012   -0.5271   -0.0607 H   0  0  0  0  0  0  0  0  0  5  0  0
    1.0644   -1.4562   -1.1122 H   0  0  0  0  0  0  0  0  0  6  0  0
    1.4132   -1.9946    0.5968 H   0  0  0  0  0  0  0  0  0  7  0  0
   -1.6145    1.9867   -0.6272 H   0  0  0  0  0  0  0  0  0  8  0  0
   -1.6190    1.0644    1.0185 H   0  0  0  0  0  0  0  0  0  9  0  0
  1  6  1  0
  1  5  1  0
  1  7  1  0
  1  2  1  0
  2  3  1  0
  3  4  1  0
  4  8  1  0
  4  9  1  0
M  END
>  <rmg_smiles>  (1) 
CO[N][CH2]

>  <rmg_adjacency_list>  (1) 
1 O u0 p2 c0 {2,S} {3,S}
2 N u0 p1 c0 {1,S} {4,S}
3 C u0 p0 c0 {1,S} {5,S} {6,S} {7,S}
4 C u0 p0 c0 {2,S} {8,S} {9,S}
5 H u0 p0 c0 {3,S}
6 H u0 p0 c0 {3,S}
7 H u0 p0 c0 {3,S}
8 H u0 p0 c0 {4,S}
9 H u0 p0 c0 {4,S}


>  <multiplicity>  (1) 
1

>  <reaction>  (1) 
rmg_rxn_15722

>  <type>  (1) 
r1h

>  <role_mapnums>  (1) 
{"r1h_a": 1, "r1h_h": 5}

>  <role_mapidx>  (1) 
{"r1h_a": 0, "r1h_h": 4}

>  <ordered_mapped_smiles>  (1) 
[C:1]([O:2][NH:3][CH:4]([H:8])[H:9])([H:5])([H:6])[H:7]

>  <mol_properties>  (1) 
{"0": {"label": "donator", "atom_type": "Cs"}, "4": {"label": "d_hydrogen", "atom_type": "H0"}}

>  <level_of_theory>  (1) 
wb97xd/def2tzvp

>  <lot_method>  (1) 
wb97xd

>  <lot_basis>  (1) 
def2tzvp

>  <spin_multiplicity>  (1) 
1.0

>  <optical_isomers>  (1) 
1.0

>  <modes>  (1) 
IdealGasTranslation(mass=(59.0371, 'amu')),         NonlinearRotor(             inertia = ([11.9742, 101.538, 110.304

>  <frequency_value>  (1) 
unknown

>  <frequency_units>  (1) 
unknown

>  <frequency_list>  (1) 
unknown

>  <arkane_path>  (1) 
/home/calvin/Dropbox/PersonalFolders/Calvin/ZEUS_Converged/rmg_rxn_15722/output/Species/rmg_rxn_15722_r1_CON=C/arkane/output.py

>  <path_exists>  (1) 
True

>  <E0_value>  (1) 
-548882.9200394232

>  <E0_units>  (1) 
kJ/mol

>  <thermo_class>  (1) 
NASA

>  <Cp0_value>  (1) 
33.257888

>  <Cp0_units>  (1) 
J/(mol*K)

>  <CpInf_value>  (1) 
207.8618

>  <CpInf_units>  (1) 
J/(mol*K)

>  <Tmin_value>  (1) 
10.0

>  <Tmin_units>  (1) 
K

>  <Tmax_value>  (1) 
3000.0

>  <Tmax_units>  (1) 
K

>  <polynomials>  (1) 
[{"name": "polynomial1", "class": "NASAPolynomial", "Tmin_value": 10.0, "Tmin_units": "K", "Tmax_value": 1066.0445442103917, "Tmax_units": "K", "coeffs": [3.9488472240731216, 0.012909444164008412, 1.8432835387873368e-05, -2.5565901414715004e-08, 8.632634293818456e-12, -66015370.98001154, 7.906058800048573]}, {"name": "polynomial2", "class": "NASAPolynomial", "Tmin_value": 1066.0445442103917, "Tmin_units": "K", "Tmax_value": 3000.0, "Tmax_units": "K", "coeffs": [4.051174026649639, 0.02340322367340144, -1.163838712217072e-05, 2.8112466199843713e-09, -2.6680947262736413e-13, -66016010.897278614, 4.506810904924114]}]

>  <H298_value>  (1) 
-131182.46582067996

>  <H298_units>  (1) 
kcal/mol

>  <S298_value>  (1) 
69.27397375028742

>  <S298_units>  (1) 
cal/(mol*K)

>  <Cp_T_value_list>  (1) 
[17.607207323409234, 21.157104611048137, 24.5530891366924, 27.67560467885903, 32.827861850696166, 36.480858050170255, 41.94371504002133, 44.76201379304356, 46.08804102499818]

>  <Cp_T_units>  (1) 
cal/(mol*K)

>  <T_list>  (1) 
[300.0, 400.0, 500.0, 600.0, 800.0, 1000.0, 1500.0, 2000.0, 2400.0]

>  <T_units>  (1) 
K

>  <yaml_path>  (1) 
/home/calvin/Dropbox/PersonalFolders/Calvin/ZEUS_Converged/rmg_rxn_15722/output/Species/rmg_rxn_15722_r1_CON=C/rmg_rxn_15722_r1_CON=C.yml

>  <frequencies_cm1>  (1) 
[119.61601728907998, 180.59484693068, 346.29520270228, 574.9726808436, 796.6046320465999, 891.08061607916, 982.9746136314, 1126.32979917172, 1169.7222794088, 1171.7686410341598, 1237.71230106212, 1418.12173938916, 1456.2266409298397, 1467.4060930307999, 1493.1160860688801, 1708.0183916582798, 3005.45973103376, 3077.28153049564, 3083.54422110748, 3121.53925088304, 3213.405780494]

>  <ZPE_kJmol>  (1) 
189.2599943319938

>  <E_elec_kJmol>  (1) 
-549072.1800337551

>  <E0_minus_Eelec_plus_ZPE_kJmol>  (1) 
0.0

>  <rxn>  (1) 
rmg_rxn_15722

>  <species_type>  (1) 
r0

>  <species_folder>  (1) 
rmg_rxn_15722_r1_CON=C

>  <frequencies_cm1_list>  (1) 
[119.61601728907998, 180.59484693068, 346.29520270228, 574.9726808436, 796.6046320465999, 891.08061607916, 982.9746136314, 1126.32979917172, 1169.7222794088, 1171.7686410341598, 1237.71230106212, 1418.12173938916, 1456.2266409298397, 1467.4060930307999, 1493.1160860688801, 1708.0183916582798, 3005.45973103376, 3077.28153049564, 3083.54422110748, 3121.53925088304, 3213.405780494]

>  <E0_kJmol>  (1) 
-548883

>  <H298_kJmol>  (1) 
-548867

$$$$

     RDKit          3D

  9  8  0  0  0  0  0  0  0  0999 V2000
   -1.0708   -1.0168   -0.0594 H   0  0  0  0  0  0  0  0  0  1  0  0
    0.9591   -0.8580   -0.1118 C   0  0  0  0  0  0  0  0  0  2  0  0
   -0.2355   -0.3176   -0.0198 C   0  0  0  0  0  0  0  0  0  3  0  0
   -0.6644    1.0926    0.1225 C   0  0  0  0  0  0  0  0  0  4  0  0
    1.0963   -1.9293   -0.2136 H   0  0  0  0  0  0  0  0  0  5  0  0
    1.8629   -0.2504   -0.0907 H   0  0  0  0  0  0  0  0  0  6  0  0
   -1.3162    1.3806   -0.7050 H   0  0  0  0  0  0  0  0  0  7  0  0
   -1.2385    1.2304    1.0419 H   0  0  0  0  0  0  0  0  0  8  0  0
    0.1958    1.7691    0.1459 H   0  0  0  0  0  0  0  0  0  9  0  0
  1  3  1  0
  2  5  1  0
  2  6  1  0
  2  3  1  0
  3  4  1  0
  4  8  1  0
  4  9  1  0
  4  7  1  0
M  END
>  <rmg_smiles>  (2) 
[CH2][CH]C

>  <rmg_adjacency_list>  (2) 
1 C u0 p0 c0 {2,S} {4,S} {5,S} {6,S}
2 C u0 p0 c0 {1,S} {3,S} {7,S}
3 C u0 p0 c0 {2,S} {8,S} {9,S}
4 H u0 p0 c0 {1,S}
5 H u0 p0 c0 {1,S}
6 H u0 p0 c0 {1,S}
7 H u0 p0 c0 {2,S}
8 H u0 p0 c0 {3,S}
9 H u0 p0 c0 {3,S}


>  <multiplicity>  (2) 
1

>  <reaction>  (2) 
rmg_rxn_15722

>  <type>  (2) 
r2h

>  <role_mapnums>  (2) 
{"r2h_a": 3, "r2h_h": 1}

>  <role_mapidx>  (2) 
{"r2h_a": 2, "r2h_h": 0}

>  <ordered_mapped_smiles>  (2) 
[H:1][CH:3]([CH:2]([H:5])[H:6])[C:4]([H:7])([H:8])[H:9]

>  <mol_properties>  (2) 
{"0": {"label": "a_hydrogen", "atom_type": "H0"}, "2": {"label": "acceptor", "atom_type": "Cs"}}

>  <level_of_theory>  (2) 
wb97xd/def2tzvp

>  <lot_method>  (2) 
wb97xd

>  <lot_basis>  (2) 
def2tzvp

>  <spin_multiplicity>  (2) 
1.0

>  <optical_isomers>  (2) 
1.0

>  <modes>  (2) 
IdealGasTranslation(mass=(42.047, 'amu')),         NonlinearRotor(             inertia = ([10.7194, 53.9495, 61.5633

>  <frequency_value>  (2) 
unknown

>  <frequency_units>  (2) 
unknown

>  <frequency_list>  (2) 
unknown

>  <arkane_path>  (2) 
/home/calvin/Dropbox/PersonalFolders/Calvin/ZEUS_Converged/rmg_rxn_15722/output/Species/rmg_rxn_15722_p2_C=CC/arkane/output.py

>  <path_exists>  (2) 
True

>  <E0_value>  (2) 
-309367.88328007184

>  <E0_units>  (2) 
kJ/mol

>  <thermo_class>  (2) 
NASA

>  <Cp0_value>  (2) 
33.257888

>  <Cp0_units>  (2) 
J/(mol*K)

>  <CpInf_value>  (2) 
207.8618

>  <CpInf_units>  (2) 
J/(mol*K)

>  <Tmin_value>  (2) 
10.0

>  <Tmin_units>  (2) 
K

>  <Tmax_value>  (2) 
3000.0

>  <Tmax_units>  (2) 
K

>  <polynomials>  (2) 
[{"name": "polynomial1", "class": "NASAPolynomial", "Tmin_value": 10.0, "Tmin_units": "K", "Tmax_value": 531.9055225993732, "Tmax_units": "K", "coeffs": [4.020436719737996, -0.0017312817472453872, 7.469369250877763e-05, -1.1039896278615284e-07, 5.3574122437634835e-11, -37208361.61961987, 6.984063136788081]}, {"name": "polynomial2", "class": "NASAPolynomial", "Tmin_value": 531.9055225993732, "Tmin_units": "K", "Tmax_value": 3000.0, "Tmax_units": "K", "coeffs": [-0.30746967349798776, 0.030814974999638145, -1.70878814174512e-05, 4.6353593569365904e-09, -4.92674569396714e-13, -37207901.20971421, 25.13157127988152]}]

>  <H298_value>  (2) 
-73937.54315081467

>  <H298_units>  (2) 
kcal/mol

>  <S298_value>  (2) 
63.23542809596166

>  <S298_units>  (2) 
cal/(mol*K)

>  <Cp_T_value_list>  (2) 
[15.255114456045423, 19.04713333969236, 22.607914354064658, 25.76863333326829, 30.96022163070603, 34.89993401294243, 40.9710958151176, 44.05842766923591, 45.61775863684636]

>  <Cp_T_units>  (2) 
cal/(mol*K)

>  <T_list>  (2) 
[300.0, 400.0, 500.0, 600.0, 800.0, 1000.0, 1500.0, 2000.0, 2400.0]

>  <T_units>  (2) 
K

>  <yaml_path>  (2) 
/home/calvin/Dropbox/PersonalFolders/Calvin/ZEUS_Converged/rmg_rxn_15722/output/Species/rmg_rxn_15722_p2_C=CC/rmg_rxn_15722_p2_C=CC.yml

>  <frequencies_cm1>  (2) 
[200.92112347787997, 429.72220735495995, 590.1693193567598, 925.5460154002399, 944.49202789812, 949.7315376972799, 1024.05291981564, 1068.7501272635197, 1186.76613697304, 1322.2792252779197, 1396.37399688072, 1440.26090006084, 1466.0326959668, 1481.02332492036, 1720.5094379553598, 3007.2932161142003, 3065.80679802592, 3091.5648599612396, 3111.3280437122, 3123.2628641983597, 3201.2855514042]

>  <ZPE_kJmol>  (2) 
207.8343042708976

>  <E_elec_kJmol>  (2) 
-309575.71758434275

>  <E0_minus_Eelec_plus_ZPE_kJmol>  (2) 
0.0

>  <rxn>  (2) 
rmg_rxn_15722

>  <species_type>  (2) 
p1

>  <species_folder>  (2) 
rmg_rxn_15722_p2_C=CC

>  <frequencies_cm1_list>  (2) 
[200.92112347787997, 429.72220735495995, 590.1693193567598, 925.5460154002399, 944.49202789812, 949.7315376972799, 1024.05291981564, 1068.7501272635197, 1186.76613697304, 1322.2792252779197, 1396.37399688072, 1440.26090006084, 1466.0326959668, 1481.02332492036, 1720.5094379553598, 3007.2932161142003, 3065.80679802592, 3091.5648599612396, 3111.3280437122, 3123.2628641983597, 3201.2855514042]

>  <E0_kJmol>  (2) 
-309368

>  <H298_kJmol>  (2) 
-309355

$$$$

     RDKit          3D

 17 15  0  0  0  0  0  0  0  0999 V2000
   -0.2482   -1.4998   -0.0836 C   0  0  0  0  0  0  0  0  0  1  0  0
   -1.3188   -0.7780    0.4377 O   0  0  0  0  0  0  0  0  0  2  0  0
   -1.7422    0.1768   -0.4606 N   0  0  0  0  0  0  0  0  0  3  0  0
   -2.6824    0.8781    0.0097 C   0  0  0  0  0  0  0  0  0  4  0  0
    0.8058   -0.7428   -0.0677 H   0  0  0  0  0  0  0  0  0  5  0  0
   -0.4011   -1.7940   -1.1218 H   0  0  0  0  0  0  0  0  0  6  0  0
   -0.0522   -2.3324    0.5872 H   0  0  0  0  0  0  0  0  0  7  0  0
   -3.0800    1.6489   -0.6368 H   0  0  0  0  0  0  0  0  0  8  0  0
   -3.0845    0.7266    1.0089 H   0  0  0  0  0  0  0  0  0  9  0  0
    3.0694   -0.3883   -0.1090 C   0  0  0  0  0  0  0  0  0 10  0  0
    1.8748    0.1521   -0.0170 C   0  0  0  0  0  3  0  0  0 11  0  0
    1.4459    1.5622    0.1253 C   0  0  0  0  0  0  0  0  0 12  0  0
    3.2066   -1.4596   -0.2108 H   0  0  0  0  0  0  0  0  0 13  0  0
    3.9732    0.2193   -0.0879 H   0  0  0  0  0  0  0  0  0 14  0  0
    0.7941    1.8503   -0.7022 H   0  0  0  0  0  0  0  0  0 15  0  0
    0.8718    1.7000    1.0447 H   0  0  0  0  0  0  0  0  0 16  0  0
    2.3061    2.2388    0.1487 H   0  0  0  0  0  0  0  0  0 17  0  0
  1  6  1  0
  1  5  1  0
  1  7  1  0
  1  2  1  0
  2  3  1  0
  3  4  1  0
  4  8  1  0
  4  9  1  0
 10 13  1  0
 10 14  1  0
 10 11  1  0
 11 12  1  0
 12 15  1  0
 12 17  1  0
 12 16  1  0
M  RAD  1  11   2
M  END
>  <rmg_smiles>  (3) 
CO[N][CH2].[CH2][C]C

>  <rmg_adjacency_list>  (3) 
multiplicity 2
1  O u0 p2 c0 {2,S} {4,S}
2  N u0 p1 c0 {1,S} {6,S}
3  C u0 p0 c0 {7,S} {11,S} {12,S} {13,S}
4  C u0 p0 c0 {1,S} {8,S} {9,S} {10,S}
5  C u0 p0 c0 {7,S} {16,S} {17,S}
6  C u0 p0 c0 {2,S} {14,S} {15,S}
7  C u1 p1 c0 {3,S} {5,S}
8  H u0 p0 c0 {4,S}
9  H u0 p0 c0 {4,S}
10 H u0 p0 c0 {4,S}
11 H u0 p0 c0 {3,S}
12 H u0 p0 c0 {3,S}
13 H u0 p0 c0 {3,S}
14 H u0 p0 c0 {6,S}
15 H u0 p0 c0 {6,S}
16 H u0 p0 c0 {5,S}
17 H u0 p0 c0 {5,S}


>  <multiplicity>  (3) 
2

>  <reaction>  (3) 
rmg_rxn_15722

>  <type>  (3) 
ts

>  <role_mapnums>  (3) 
{"*2": 5, "*1": 1, "*3": 11, "*0": 2, "*4": 10}

>  <role_mapidx>  (3) 
{"*2": 4, "*1": 0, "*3": 10, "*0": 1, "*4": 9}

>  <ordered_mapped_smiles>  (3) 
[C:1]([O:2][NH:3][CH:4]([H:8])[H:9])([H:5])([H:6])[H:7].[CH:10]([CH:11][C:12]([H:15])([H:16])[H:17])([H:13])[H:14]

>  <mol_properties>  (3) 
{"0": {"label": "*1", "atom_type": "Cs"}, "1": {"label": "*0", "atom_type": "O2s"}, "4": {"label": "*2", "atom_type": "H0"}, "9": {"label": "*4", "atom_type": "Cs"}, "10": {"label": "*3", "atom_type": "C2s"}}

>  <level_of_theory>  (3) 
wb97xd/def2tzvp

>  <lot_method>  (3) 
wb97xd

>  <lot_basis>  (3) 
def2tzvp

>  <spin_multiplicity>  (3) 
2.0

>  <optical_isomers>  (3) 
2.0

>  <modes>  (3) 
IdealGasTranslation(mass=(100.076, 'amu')),         NonlinearRotor(             inertia = ([115.063, 401.892, 494.616

>  <frequency_value>  (3) 
-1673.8

>  <frequency_units>  (3) 
cm^-1

>  <frequency_list>  (3) 
unknown

>  <arkane_path>  (3) 
/home/calvin/Dropbox/PersonalFolders/Calvin/ZEUS_Converged/rmg_rxn_15722/output/rxns/TS0/arkane/output.py

>  <path_exists>  (3) 
True

>  <E0_value>  (3) 
-856466.0

>  <E0_units>  (3) 
kJ/mol

>  <thermo_class>  (3) 
unknown

>  <Cp0_value>  (3) 
unknown

>  <Cp0_units>  (3) 
unknown

>  <CpInf_value>  (3) 
unknown

>  <CpInf_units>  (3) 
unknown

>  <Tmin_value>  (3) 
unknown

>  <Tmin_units>  (3) 
unknown

>  <Tmax_value>  (3) 
unknown

>  <Tmax_units>  (3) 
unknown

>  <polynomials>  (3) 
unknown

>  <H298_value>  (3) 
unknown

>  <H298_units>  (3) 
unknown

>  <S298_value>  (3) 
unknown

>  <S298_units>  (3) 
unknown

>  <Cp_T_value_list>  (3) 
unknown

>  <Cp_T_units>  (3) 
unknown

>  <T_list>  (3) 
unknown

>  <T_units>  (3) 
unknown

>  <yaml_path>  (3) 
unknown

>  <frequencies_cm1>  (3) 
unknown

>  <ZPE_kJmol>  (3) 
unknown

>  <E_elec_kJmol>  (3) 
unknown

>  <E0_minus_Eelec_plus_ZPE_kJmol>  (3) 
unknown

>  <rxn>  (3) 
unknown

>  <species_type>  (3) 
unknown

>  <species_folder>  (3) 
unknown

>  <frequencies_cm1_list>  (3) 
[]

>  <ts_imag_freq_cm1>  (3) 
-1694.1277

>  <ts_freq_out_path>  (3) 
/home/calvin/Dropbox/PersonalFolders/Calvin/ZEUS_Converged/rmg_rxn_15722/output/rxns/TS0/geometry/freq.out

>  <E0_kJmol>  (3) 
-856466

>  <H298_kJmol>  (3) 
unknown

$$$$

     RDKit          3D

  8  7  0  0  0  0  0  0  0  0999 V2000
    1.7077   -0.1964   -0.0607 C   0  0  0  0  0  3  0  0  0  1  0  0
    0.4209   -0.4565    0.2808 O   0  0  0  0  0  0  0  0  0  2  0  0
   -0.4607    0.4385   -0.2968 N   0  0  0  0  0  0  0  0  0  3  0  0
   -1.6584    0.1416   -0.0244 C   0  0  0  0  0  0  0  0  0  4  0  0
    2.4163   -0.7685    0.5170 H   0  0  0  0  0  0  0  0  0  5  0  0
    1.9214    0.7645   -0.5045 H   0  0  0  0  0  0  0  0  0  6  0  0
   -2.4185    0.7953   -0.4307 H   0  0  0  0  0  0  0  0  0  7  0  0
   -1.9286   -0.7185    0.5831 H   0  0  0  0  0  0  0  0  0  8  0  0
  1  6  1  0
  1  5  1  0
  1  2  1  0
  2  3  1  0
  3  4  1  0
  4  8  1  0
  4  7  1  0
M  RAD  1   1   2
M  END
>  <rmg_smiles>  (4) 
[CH2]O[N][CH2]

>  <rmg_adjacency_list>  (4) 
multiplicity 2
1 O u0 p2 c0 {2,S} {3,S}
2 N u0 p1 c0 {1,S} {4,S}
3 C u1 p0 c0 {1,S} {5,S} {6,S}
4 C u0 p0 c0 {2,S} {7,S} {8,S}
5 H u0 p0 c0 {3,S}
6 H u0 p0 c0 {3,S}
7 H u0 p0 c0 {4,S}
8 H u0 p0 c0 {4,S}


>  <multiplicity>  (4) 
2

>  <reaction>  (4) 
rmg_rxn_15722

>  <type>  (4) 
r1

>  <role_mapnums>  (4) 
{}

>  <role_mapidx>  (4) 
{}

>  <ordered_mapped_smiles>  (4) 
[C:1]([O:2][NH:3][CH:4]([H:7])[H:8])([H:5])[H:6]

>  <level_of_theory>  (4) 
wb97xd/def2tzvp

>  <lot_method>  (4) 
wb97xd

>  <lot_basis>  (4) 
def2tzvp

>  <spin_multiplicity>  (4) 
2.0

>  <optical_isomers>  (4) 
2.0

>  <modes>  (4) 
IdealGasTranslation(mass=(58.0293, 'amu')),         NonlinearRotor(             inertia = ([10.2741, 95.4529, 105.582

>  <frequency_value>  (4) 
unknown

>  <frequency_units>  (4) 
unknown

>  <frequency_list>  (4) 
unknown

>  <arkane_path>  (4) 
/home/calvin/Dropbox/PersonalFolders/Calvin/ZEUS_Converged/rmg_rxn_15722/output/Species/rmg_rxn_15722_p1_sbr-CH2-sbrON=C/arkane/output.py

>  <path_exists>  (4) 
True

>  <E0_value>  (4) 
-547168.2732446302

>  <E0_units>  (4) 
kJ/mol

>  <thermo_class>  (4) 
NASA

>  <Cp0_value>  (4) 
33.257888

>  <Cp0_units>  (4) 
J/(mol*K)

>  <CpInf_value>  (4) 
182.918384

>  <CpInf_units>  (4) 
J/(mol*K)

>  <Tmin_value>  (4) 
10.0

>  <Tmin_units>  (4) 
K

>  <Tmax_value>  (4) 
3000.0

>  <Tmax_units>  (4) 
K

>  <polynomials>  (4) 
[{"name": "polynomial1", "class": "NASAPolynomial", "Tmin_value": 10.0, "Tmin_units": "K", "Tmax_value": 253.2842427910515, "Tmax_units": "K", "coeffs": [3.956862909385456, 0.0038362890131335746, 0.00011727738047703725, -3.4736244039427427e-07, 3.472729073035136e-10, -65809144.38694886, 9.350338763280796]}, {"name": "polynomial2", "class": "NASAPolynomial", "Tmin_value": 253.2842427910515, "Tmin_units": "K", "Tmax_value": 3000.0, "Tmax_units": "K", "coeffs": [2.5252197328965313, 0.026445761179553072, -1.662161754135038e-05, 5.074735532607581e-09, -5.97403912324656e-13, -65809071.86505469, 14.291183066674913]}]

>  <H298_value>  (4) 
-130772.65860702786

>  <H298_units>  (4) 
kcal/mol

>  <S298_value>  (4) 
71.26914844977757

>  <S298_units>  (4) 
cal/(mol*K)

>  <Cp_T_value_list>  (4) 
[18.0740035969719, 21.369534269323825, 24.223451351766553, 26.683440747612977, 30.598134113509214, 33.438117676478754, 37.554421513360474, 39.68390492467901, 40.91110806828642]

>  <Cp_T_units>  (4) 
cal/(mol*K)

>  <T_list>  (4) 
[300.0, 400.0, 500.0, 600.0, 800.0, 1000.0, 1500.0, 2000.0, 2400.0]

>  <T_units>  (4) 
K

>  <yaml_path>  (4) 
/home/calvin/Dropbox/PersonalFolders/Calvin/ZEUS_Converged/rmg_rxn_15722/output/Species/rmg_rxn_15722_p1_sbr-CH2-sbrON=C/rmg_rxn_15722_p1_sbr-CH2-sbrON=C.yml

>  <frequencies_cm1>  (4) 
[132.13453152744, 273.14807507364, 360.4549264321199, 498.69420790903996, 595.9169860696, 789.3942974605999, 873.74834513148, 993.5360370535599, 1152.01232426852, 1206.54305469464, 1257.0497317232398, 1417.2771001948001, 1437.260027476, 1705.2166616477198, 3090.5210781926, 3134.7719315946797, 3218.94057066192, 3282.16490450316]

>  <ZPE_kJmol>  (4) 
152.0381400376291

>  <E_elec_kJmol>  (4) 
-547320.3113846679

>  <E0_minus_Eelec_plus_ZPE_kJmol>  (4) 
0.0

>  <rxn>  (4) 
rmg_rxn_15722

>  <species_type>  (4) 
p0

>  <species_folder>  (4) 
rmg_rxn_15722_p1_sbr-CH2-sbrON=C

>  <frequencies_cm1_list>  (4) 
[132.13453152744, 273.14807507364, 360.4549264321199, 498.69420790903996, 595.9169860696, 789.3942974605999, 873.74834513148, 993.5360370535599, 1152.01232426852, 1206.54305469464, 1257.0497317232398, 1417.2771001948001, 1437.260027476, 1705.2166616477198, 3090.5210781926, 3134.7719315946797, 3218.94057066192, 3282.16490450316]

>  <E0_kJmol>  (4) 
-547168

>  <H298_kJmol>  (4) 
-547153

$$$$

     RDKit          3D

  8  7  0  0  0  0  0  0  0  0999 V2000
    1.4098   -0.3617   -0.1137 C   0  0  0  0  0  0  0  0  0  1  0  0
    0.1829   -0.1715   -0.5109 C   0  0  0  0  0  3  0  0  0  2  0  0
   -1.1129    0.2669    0.0153 C   0  0  0  0  0  0  0  0  0  3  0  0
    2.1881   -0.7137   -0.7829 H   0  0  0  0  0  0  0  0  0  4  0  0
    1.7065   -0.1722    0.9205 H   0  0  0  0  0  0  0  0  0  5  0  0
   -1.8665   -0.5154   -0.0958 H   0  0  0  0  0  0  0  0  0  6  0  0
   -1.0351    0.5163    1.0818 H   0  0  0  0  0  0  0  0  0  7  0  0
   -1.4726    1.1513   -0.5143 H   0  0  0  0  0  0  0  0  0  8  0  0
  1  5  1  0
  1  4  1  0
  1  2  1  0
  2  3  1  0
  3  6  1  0
  3  7  1  0
  3  8  1  0
M  RAD  1   2   2
M  END
>  <rmg_smiles>  (5) 
[CH2][C]C

>  <rmg_adjacency_list>  (5) 
multiplicity 2
1 C u0 p0 c0 {3,S} {4,S} {5,S} {6,S}
2 C u0 p0 c0 {3,S} {7,S} {8,S}
3 C u1 p1 c0 {1,S} {2,S}
4 H u0 p0 c0 {1,S}
5 H u0 p0 c0 {1,S}
6 H u0 p0 c0 {1,S}
7 H u0 p0 c0 {2,S}
8 H u0 p0 c0 {2,S}


>  <multiplicity>  (5) 
2

>  <reaction>  (5) 
rmg_rxn_15722

>  <type>  (5) 
r2

>  <role_mapnums>  (5) 
{}

>  <role_mapidx>  (5) 
{}

>  <ordered_mapped_smiles>  (5) 
[CH:1]([CH:2][C:3]([H:6])([H:7])[H:8])([H:4])[H:5]

>  <level_of_theory>  (5) 
wb97xd/def2tzvp

>  <lot_method>  (5) 
wb97xd

>  <lot_basis>  (5) 
def2tzvp

>  <spin_multiplicity>  (5) 
2.0

>  <optical_isomers>  (5) 
1.0

>  <modes>  (5) 
IdealGasTranslation(mass=(41.0391, 'amu')),         NonlinearRotor(             inertia = ([6.71616, 57.9316, 61.5152

>  <frequency_value>  (5) 
unknown

>  <frequency_units>  (5) 
unknown

>  <frequency_list>  (5) 
unknown

>  <arkane_path>  (5) 
/home/calvin/Dropbox/PersonalFolders/Calvin/ZEUS_Converged/rmg_rxn_15722/output/Species/rmg_rxn_15722_r2_C=sbr-C-sbrC/arkane/output.py

>  <path_exists>  (5) 
True

>  <E0_value>  (5) 
-307613.25653515075

>  <E0_units>  (5) 
kJ/mol

>  <thermo_class>  (5) 
NASA

>  <Cp0_value>  (5) 
33.257888

>  <Cp0_units>  (5) 
J/(mol*K)

>  <CpInf_value>  (5) 
182.918384

>  <CpInf_units>  (5) 
J/(mol*K)

>  <Tmin_value>  (5) 
10.0

>  <Tmin_units>  (5) 
K

>  <Tmax_value>  (5) 
3000.0

>  <Tmax_units>  (5) 
K

>  <polynomials>  (5) 
[{"name": "polynomial1", "class": "NASAPolynomial", "Tmin_value": 10.0, "Tmin_units": "K", "Tmax_value": 538.1721786181564, "Tmax_units": "K", "coeffs": [3.9303922764400583, 0.005417957622056139, 4.115103513417311e-05, -6.444122651258351e-08, 3.128241427728439e-11, -36997327.50074482, 7.425360287393725]}, {"name": "polynomial2", "class": "NASAPolynomial", "Tmin_value": 538.1721786181564, "Tmin_units": "K", "Tmax_value": 3000.0, "Tmax_units": "K", "coeffs": [1.2730137490855735, 0.025169279994585066, -1.3900597247315137e-05, 3.7552138842648574e-09, -3.9753517119553523e-13, -36997041.47794579, 18.599201139321465]}]

>  <H298_value>  (5) 
-73518.0260337464

>  <H298_units>  (5) 
kcal/mol

>  <S298_value>  (5) 
65.0852612337371

>  <S298_units>  (5) 
cal/(mol*K)

>  <Cp_T_value_list>  (5) 
[15.446252417103832, 18.596938696083715, 21.515738053866244, 24.10475996521834, 28.361201748150528, 31.595341777308043, 36.588277162622454, 39.12875791048535, 40.409167417549874]

>  <Cp_T_units>  (5) 
cal/(mol*K)

>  <T_list>  (5) 
[300.0, 400.0, 500.0, 600.0, 800.0, 1000.0, 1500.0, 2000.0, 2400.0]

>  <T_units>  (5) 
K

>  <yaml_path>  (5) 
/home/calvin/Dropbox/PersonalFolders/Calvin/ZEUS_Converged/rmg_rxn_15722/output/Species/rmg_rxn_15722_r2_C=sbr-C-sbrC/rmg_rxn_15722_r2_C=sbr-C-sbrC.yml

>  <frequencies_cm1>  (5) 
[176.04890264884, 312.72251147279997, 484.02632726551997, 893.4703269705199, 895.1939402858399, 932.7632169715598, 1043.3422815795197, 1098.3399670074, 1378.28635754784, 1408.11654177792, 1443.1999697778, 1458.9940360138, 1748.7121466646001, 2967.7256467003594, 3032.41264841476, 3055.0530990147995, 3082.9330594139997, 3144.5505186903597]

>  <ZPE_kJmol>  (5) 
170.8022104950377

>  <E_elec_kJmol>  (5) 
-307784.0587456458

>  <E0_minus_Eelec_plus_ZPE_kJmol>  (5) 
0.0

>  <rxn>  (5) 
rmg_rxn_15722

>  <species_type>  (5) 
r1

>  <species_folder>  (5) 
rmg_rxn_15722_r2_C=sbr-C-sbrC

>  <frequencies_cm1_list>  (5) 
[176.04890264884, 312.72251147279997, 484.02632726551997, 893.4703269705199, 895.1939402858399, 932.7632169715598, 1043.3422815795197, 1098.3399670074, 1378.28635754784, 1408.11654177792, 1443.1999697778, 1458.9940360138, 1748.7121466646001, 2967.7256467003594, 3032.41264841476, 3055.0530990147995, 3082.9330594139997, 3144.5505186903597]

>  <E0_kJmol>  (5) 
-307613

>  <H298_kJmol>  (5) 
-307599

$$$$
