
     RDKit          3D

 11 10  0  0  0  0  0  0  0  0999 V2000
    0.1920   -1.1228   -2.1402 C   0  0  0  0  0  0  0  0  0  1  0  0
   -0.0079   -0.6905   -0.7224 C   0  0  0  0  0  0  0  0  0  2  0  0
    0.1748    0.5579   -0.3236 C   0  0  0  0  0  0  0  0  0  3  0  0
    0.0207    1.0710    0.9322 O   0  0  0  0  0  0  0  0  0  4  0  0
   -0.3863    0.1295    1.8501 O   0  0  0  0  0  0  0  0  0  5  0  0
    0.9375   -1.9198   -2.2089 H   0  0  0  0  0  0  0  0  0  6  0  0
   -0.7339   -1.5189   -2.5648 H   0  0  0  0  0  0  0  0  0  7  0  0
    0.5234   -0.2967   -2.7717 H   0  0  0  0  0  0  0  0  0  8  0  0
   -0.3227   -1.4313    0.0006 H   0  0  0  0  0  0  0  0  0  9  0  0
    0.4836    1.3625   -0.9814 H   0  0  0  0  0  0  0  0  0 10  0  0
    0.4329   -0.2135    2.2146 H   0  0  0  0  0  0  0  0  0 11  0  0
  1  8  1  0
  1  7  1  0
  1  6  1  0
  1  2  1  0
  2  9  1  0
  2  3  1  0
  3  4  1  0
  3 10  1  0
  4  5  1  0
  5 11  1  0
M  END
>  <rmg_smiles>  (1) 
C[CH][CH]OO

>  <rmg_adjacency_list>  (1) 
1  O u0 p2 c0 {2,S} {5,S}
2  O u0 p2 c0 {1,S} {11,S}
3  C u0 p0 c0 {4,S} {6,S} {7,S} {8,S}
4  C u0 p0 c0 {3,S} {5,S} {9,S}
5  C u0 p0 c0 {1,S} {4,S} {10,S}
6  H u0 p0 c0 {3,S}
7  H u0 p0 c0 {3,S}
8  H u0 p0 c0 {3,S}
9  H u0 p0 c0 {4,S}
10 H u0 p0 c0 {5,S}
11 H u0 p0 c0 {2,S}


>  <multiplicity>  (1) 
1

>  <reaction>  (1) 
rmg_rxn_15699

>  <type>  (1) 
r1h

>  <role_mapnums>  (1) 
{"r1h_a": 5, "r1h_h": 11}

>  <role_mapidx>  (1) 
{"r1h_a": 4, "r1h_h": 10}

>  <ordered_mapped_smiles>  (1) 
[C:1]([CH:2]([CH:3]([O:4][O:5][H:11])[H:10])[H:9])([H:6])([H:7])[H:8]

>  <mol_properties>  (1) 
{"4": {"label": "donator", "atom_type": "O2s"}, "10": {"label": "d_hydrogen", "atom_type": "H0"}}

>  <level_of_theory>  (1) 
wb97xd/def2tzvp

>  <lot_method>  (1) 
wb97xd

>  <lot_basis>  (1) 
def2tzvp

>  <spin_multiplicity>  (1) 
1.0

>  <optical_isomers>  (1) 
2.0

>  <modes>  (1) 
IdealGasTranslation(mass=(74.0368, 'amu')),         NonlinearRotor(             inertia = ([30.5945, 187.799, 213.694

>  <frequency_value>  (1) 
unknown

>  <frequency_units>  (1) 
unknown

>  <frequency_list>  (1) 
unknown

>  <arkane_path>  (1) 
/home/calvin/Dropbox/PersonalFolders/Calvin/ZEUS_Converged/rmg_rxn_15699/output/Species/rmg_rxn_15699_r2_CC=COO/arkane/output.py

>  <path_exists>  (1) 
True

>  <E0_value>  (1) 
-704131.5752938386

>  <E0_units>  (1) 
kJ/mol

>  <thermo_class>  (1) 
NASA

>  <Cp0_value>  (1) 
33.257888

>  <Cp0_units>  (1) 
J/(mol*K)

>  <CpInf_value>  (1) 
257.748632

>  <CpInf_units>  (1) 
J/(mol*K)

>  <Tmin_value>  (1) 
10.0

>  <Tmin_units>  (1) 
K

>  <Tmax_value>  (1) 
3000.0

>  <Tmax_units>  (1) 
K

>  <polynomials>  (1) 
[{"name": "polynomial1", "class": "NASAPolynomial", "Tmin_value": 10.0, "Tmin_units": "K", "Tmax_value": 750.1417362527471, "Tmax_units": "K", "coeffs": [3.6818974315147455, 0.026458476926090657, 7.4565760548245125e-06, -2.8134635217814823e-08, 1.3753848649313953e-11, -84687462.90022717, 10.337322085217703]}, {"name": "polynomial2", "class": "NASAPolynomial", "Tmin_value": 750.1417362527471, "Tmin_units": "K", "Tmax_value": 3000.0, "Tmax_units": "K", "coeffs": [3.140015060826594, 0.03467665267663805, -1.963202120085646e-05, 5.409202138465521e-09, -5.81266003306408e-13, -84687531.52835645, 11.79648705316321]}]

>  <H298_value>  (1) 
-168286.92853304607

>  <H298_units>  (1) 
kcal/mol

>  <S298_value>  (1) 
78.11328013427261

>  <S298_units>  (1) 
cal/(mol*K)

>  <Cp_T_value_list>  (1) 
[23.135660957780026, 27.8404098369485, 32.02992563068473, 35.66393512339761, 41.42981484299387, 45.7307538891239, 52.25626664130418, 55.51976092126689, 57.18254028819171]

>  <Cp_T_units>  (1) 
cal/(mol*K)

>  <T_list>  (1) 
[300.0, 400.0, 500.0, 600.0, 800.0, 1000.0, 1500.0, 2000.0, 2400.0]

>  <T_units>  (1) 
K

>  <yaml_path>  (1) 
/home/calvin/Dropbox/PersonalFolders/Calvin/ZEUS_Converged/rmg_rxn_15699/output/Species/rmg_rxn_15699_r2_CC=COO/rmg_rxn_15699_r2_CC=COO.yml

>  <frequencies_cm1>  (1) 
[152.93463006172001, 170.17763020023997, 205.04131466987997, 243.71617599212001, 326.86850123199997, 382.4155454854799, 686.7053989853199, 820.3850022097599, 909.6695453404, 952.2105193978, 973.53937580172, 1060.8393601748799, 1122.28514481824, 1156.69560825676, 1311.0585712650397, 1328.4938469925198, 1402.3208061678397, 1411.55690142324, 1466.7262614841197, 1486.0842931012, 1750.05807578732, 3005.8236812557197, 3062.42137426316, 3086.3871530299593, 3162.3978135370403, 3182.30520397972, 3766.69252169704]

>  <ZPE_kJmol>  (1) 
230.7944644621705

>  <E_elec_kJmol>  (1) 
-704362.3697583008

>  <E0_minus_Eelec_plus_ZPE_kJmol>  (1) 
0.0

>  <rxn>  (1) 
rmg_rxn_15699

>  <species_type>  (1) 
r1

>  <species_folder>  (1) 
rmg_rxn_15699_r2_CC=COO

>  <frequencies_cm1_list>  (1) 
[152.93463006172001, 170.17763020023997, 205.04131466987997, 243.71617599212001, 326.86850123199997, 382.4155454854799, 686.7053989853199, 820.3850022097599, 909.6695453404, 952.2105193978, 973.53937580172, 1060.8393601748799, 1122.28514481824, 1156.69560825676, 1311.0585712650397, 1328.4938469925198, 1402.3208061678397, 1411.55690142324, 1466.7262614841197, 1486.0842931012, 1750.05807578732, 3005.8236812557197, 3062.42137426316, 3086.3871530299593, 3162.3978135370403, 3182.30520397972, 3766.69252169704]

>  <E0_kJmol>  (1) 
-704132

>  <H298_kJmol>  (1) 
-704113

$$$$

     RDKit          3D

  9  8  0  0  0  0  0  0  0  0999 V2000
   -0.7561    0.5876    1.3644 C   0  0  0  0  0  0  0  0  0  1  0  0
    0.1312    0.5440    0.3232 O   0  0  0  0  0  0  0  0  0  2  0  0
    0.0566   -0.6661   -0.3489 N   0  0  0  0  0  0  0  0  0  3  0  0
    0.6479   -0.6015   -1.4626 C   0  0  0  0  0  0  0  0  0  4  0  0
   -0.9554   -0.3849    1.8122 H   0  0  0  0  0  0  0  0  0  5  0  0
   -0.4693    1.3830    2.0473 H   0  0  0  0  0  0  0  0  0  6  0  0
    0.6641   -1.5100   -2.0500 H   0  0  0  0  0  0  0  0  0  7  0  0
    1.1192    0.3074   -1.8268 H   0  0  0  0  0  0  0  0  0  8  0  0
   -1.7221    0.9179    0.9884 H   0  0  0  0  0  0  0  0  0  9  0  0
  1  5  1  0
  1  9  1  0
  1  2  1  0
  1  6  1  0
  2  3  1  0
  3  4  1  0
  4  8  1  0
  4  7  1  0
M  END
>  <rmg_smiles>  (2) 
CO[N][CH2]

>  <rmg_adjacency_list>  (2) 
1 O u0 p2 c0 {2,S} {3,S}
2 N u0 p1 c0 {1,S} {4,S}
3 C u0 p0 c0 {1,S} {5,S} {6,S} {7,S}
4 C u0 p0 c0 {2,S} {8,S} {9,S}
5 H u0 p0 c0 {3,S}
6 H u0 p0 c0 {3,S}
7 H u0 p0 c0 {3,S}
8 H u0 p0 c0 {4,S}
9 H u0 p0 c0 {4,S}


>  <multiplicity>  (2) 
1

>  <reaction>  (2) 
rmg_rxn_15699

>  <type>  (2) 
r2h

>  <role_mapnums>  (2) 
{"r2h_a": 1, "r2h_h": 9}

>  <role_mapidx>  (2) 
{"r2h_a": 0, "r2h_h": 8}

>  <ordered_mapped_smiles>  (2) 
[C:1]([O:2][NH:3][CH:4]([H:7])[H:8])([H:5])([H:6])[H:9]

>  <mol_properties>  (2) 
{"0": {"label": "acceptor", "atom_type": "Cs"}, "8": {"label": "a_hydrogen", "atom_type": "H0"}}

>  <level_of_theory>  (2) 
wb97xd/def2tzvp

>  <lot_method>  (2) 
wb97xd

>  <lot_basis>  (2) 
def2tzvp

>  <spin_multiplicity>  (2) 
1.0

>  <optical_isomers>  (2) 
1.0

>  <modes>  (2) 
IdealGasTranslation(mass=(59.0371, 'amu')),         NonlinearRotor(             inertia = ([11.9742, 101.538, 110.304

>  <frequency_value>  (2) 
unknown

>  <frequency_units>  (2) 
unknown

>  <frequency_list>  (2) 
unknown

>  <arkane_path>  (2) 
/home/calvin/Dropbox/PersonalFolders/Calvin/ZEUS_Converged/rmg_rxn_15699/output/Species/rmg_rxn_15699_p1_CON=C/arkane/output.py

>  <path_exists>  (2) 
True

>  <E0_value>  (2) 
-548882.9200394232

>  <E0_units>  (2) 
kJ/mol

>  <thermo_class>  (2) 
NASA

>  <Cp0_value>  (2) 
33.257888

>  <Cp0_units>  (2) 
J/(mol*K)

>  <CpInf_value>  (2) 
207.8618

>  <CpInf_units>  (2) 
J/(mol*K)

>  <Tmin_value>  (2) 
10.0

>  <Tmin_units>  (2) 
K

>  <Tmax_value>  (2) 
3000.0

>  <Tmax_units>  (2) 
K

>  <polynomials>  (2) 
[{"name": "polynomial1", "class": "NASAPolynomial", "Tmin_value": 10.0, "Tmin_units": "K", "Tmax_value": 1066.0445442103917, "Tmax_units": "K", "coeffs": [3.9488472240731216, 0.012909444164008412, 1.8432835387873368e-05, -2.5565901414715004e-08, 8.632634293818456e-12, -66015370.98001154, 7.906058800048573]}, {"name": "polynomial2", "class": "NASAPolynomial", "Tmin_value": 1066.0445442103917, "Tmin_units": "K", "Tmax_value": 3000.0, "Tmax_units": "K", "coeffs": [4.051174026649639, 0.02340322367340144, -1.163838712217072e-05, 2.8112466199843713e-09, -2.6680947262736413e-13, -66016010.897278614, 4.506810904924114]}]

>  <H298_value>  (2) 
-131182.46582067996

>  <H298_units>  (2) 
kcal/mol

>  <S298_value>  (2) 
69.27397375028742

>  <S298_units>  (2) 
cal/(mol*K)

>  <Cp_T_value_list>  (2) 
[17.607207323409234, 21.157104611048137, 24.5530891366924, 27.67560467885903, 32.827861850696166, 36.480858050170255, 41.94371504002133, 44.76201379304356, 46.08804102499818]

>  <Cp_T_units>  (2) 
cal/(mol*K)

>  <T_list>  (2) 
[300.0, 400.0, 500.0, 600.0, 800.0, 1000.0, 1500.0, 2000.0, 2400.0]

>  <T_units>  (2) 
K

>  <yaml_path>  (2) 
/home/calvin/Dropbox/PersonalFolders/Calvin/ZEUS_Converged/rmg_rxn_15699/output/Species/rmg_rxn_15699_p1_CON=C/rmg_rxn_15699_p1_CON=C.yml

>  <frequencies_cm1>  (2) 
[119.61601728907998, 180.59484693068, 346.29520270228, 574.9726808436, 796.6046320465999, 891.08061607916, 982.9746136314, 1126.32979917172, 1169.7222794088, 1171.7686410341598, 1237.71230106212, 1418.12173938916, 1456.2266409298397, 1467.4060930307999, 1493.1160860688801, 1708.0183916582798, 3005.45973103376, 3077.28153049564, 3083.54422110748, 3121.53925088304, 3213.405780494]

>  <ZPE_kJmol>  (2) 
189.2599943319938

>  <E_elec_kJmol>  (2) 
-549072.1800337551

>  <E0_minus_Eelec_plus_ZPE_kJmol>  (2) 
0.0

>  <rxn>  (2) 
rmg_rxn_15699

>  <species_type>  (2) 
p0

>  <species_folder>  (2) 
rmg_rxn_15699_p1_CON=C

>  <frequencies_cm1_list>  (2) 
[119.61601728907998, 180.59484693068, 346.29520270228, 574.9726808436, 796.6046320465999, 891.08061607916, 982.9746136314, 1126.32979917172, 1169.7222794088, 1171.7686410341598, 1237.71230106212, 1418.12173938916, 1456.2266409298397, 1467.4060930307999, 1493.1160860688801, 1708.0183916582798, 3005.45973103376, 3077.28153049564, 3083.54422110748, 3121.53925088304, 3213.405780494]

>  <E0_kJmol>  (2) 
-548883

>  <H298_kJmol>  (2) 
-548867

$$$$

     RDKit          3D

 19 17  0  0  0  0  0  0  0  0999 V2000
    0.6580   -0.0188    2.1384 C   0  0  0  0  0  3  0  0  0  1  0  0
    1.5454   -0.0623    1.0972 O   0  0  0  0  0  0  0  0  0  2  0  0
    1.4708   -1.2725    0.4250 N   0  0  0  0  0  0  0  0  0  3  0  0
    2.0620   -1.2079   -0.6886 C   0  0  0  0  0  0  0  0  0  4  0  0
    0.4587   -0.9913    2.5861 H   0  0  0  0  0  0  0  0  0  5  0  0
    0.9448    0.7766    2.8213 H   0  0  0  0  0  0  0  0  0  6  0  0
    2.0782   -2.1163   -1.2760 H   0  0  0  0  0  0  0  0  0  7  0  0
    2.5334   -0.2989   -1.0529 H   0  0  0  0  0  0  0  0  0  8  0  0
   -0.9749   -0.4361   -2.7699 C   0  0  0  0  0  0  0  0  0  9  0  0
   -1.1747   -0.0037   -1.3521 C   0  0  0  0  0  0  0  0  0 10  0  0
   -0.9920    1.2446   -0.9532 C   0  0  0  0  0  0  0  0  0 11  0  0
   -1.1461    1.7577    0.3025 O   0  0  0  0  0  0  0  0  0 12  0  0
   -1.5531    0.8163    1.2204 O   0  0  0  0  0  0  0  0  0 13  0  0
   -0.2293   -1.2330   -2.8386 H   0  0  0  0  0  0  0  0  0 14  0  0
   -1.9007   -0.8322   -3.1945 H   0  0  0  0  0  0  0  0  0 15  0  0
   -0.6434    0.3900   -3.4014 H   0  0  0  0  0  0  0  0  0 16  0  0
   -1.4895   -0.7445   -0.6291 H   0  0  0  0  0  0  0  0  0 17  0  0
   -0.6833    2.0493   -1.6110 H   0  0  0  0  0  0  0  0  0 18  0  0
   -0.5257    0.3861    1.6775 H   0  0  0  0  0  0  0  0  0 19  0  0
  1  5  1  0
  1  2  1  0
  1  6  1  0
  2  3  1  0
  3  4  1  0
  4  8  1  0
  4  7  1  0
  9 10  1  0
  9 14  1  0
  9 16  1  0
  9 15  1  0
 10 17  1  0
 10 11  1  0
 11 18  1  0
 11 12  1  0
 12 13  1  0
 13 19  1  0
M  RAD  1   1   2
M  END
>  <rmg_smiles>  (3) 
C[CH][CH]OO.[CH2]O[N][CH2]

>  <rmg_adjacency_list>  (3) 
multiplicity 2
1  O u0 p2 c0 {4,S} {8,S}
2  O u0 p2 c0 {3,S} {7,S}
3  O u0 p2 c0 {2,S} {19,S}
4  N u0 p1 c0 {1,S} {9,S}
5  C u0 p0 c0 {6,S} {10,S} {11,S} {12,S}
6  C u0 p0 c0 {5,S} {7,S} {13,S}
7  C u0 p0 c0 {2,S} {6,S} {14,S}
8  C u1 p0 c0 {1,S} {15,S} {16,S}
9  C u0 p0 c0 {4,S} {17,S} {18,S}
10 H u0 p0 c0 {5,S}
11 H u0 p0 c0 {5,S}
12 H u0 p0 c0 {5,S}
13 H u0 p0 c0 {6,S}
14 H u0 p0 c0 {7,S}
15 H u0 p0 c0 {8,S}
16 H u0 p0 c0 {8,S}
17 H u0 p0 c0 {9,S}
18 H u0 p0 c0 {9,S}
19 H u0 p0 c0 {3,S}


>  <multiplicity>  (3) 
2

>  <reaction>  (3) 
rmg_rxn_15699

>  <type>  (3) 
ts

>  <role_mapnums>  (3) 
{"*2": 19, "*1": 13, "*3": 1, "*0": 12, "*4": 2}

>  <role_mapidx>  (3) 
{"*2": 18, "*1": 12, "*3": 0, "*0": 11, "*4": 1}

>  <ordered_mapped_smiles>  (3) 
[C:1]([O:2][NH:3][CH:4]([H:7])[H:8])([H:5])[H:6].[C:9]([CH:10]([CH:11]([O:12][O:13][H:19])[H:18])[H:17])([H:14])([H:15])[H:16]

>  <mol_properties>  (3) 
{"0": {"label": "*3", "atom_type": "Cs"}, "1": {"label": "*4", "atom_type": "O2s"}, "11": {"label": "*0", "atom_type": "O2s"}, "12": {"label": "*1", "atom_type": "O2s"}, "18": {"label": "*2", "atom_type": "H0"}}

>  <level_of_theory>  (3) 
wb97xd/def2tzvp

>  <lot_method>  (3) 
wb97xd

>  <lot_basis>  (3) 
def2tzvp

>  <spin_multiplicity>  (3) 
2.0

>  <optical_isomers>  (3) 
2.0

>  <modes>  (3) 
IdealGasTranslation(mass=(132.066, 'amu')),         NonlinearRotor(             inertia = ([306.168, 391.506, 626.477

>  <frequency_value>  (3) 
-1887.41

>  <frequency_units>  (3) 
cm^-1

>  <frequency_list>  (3) 
unknown

>  <arkane_path>  (3) 
/home/calvin/Dropbox/PersonalFolders/Calvin/ZEUS_Converged/rmg_rxn_15699/output/rxns/TS0/arkane/output.py

>  <path_exists>  (3) 
True

>  <E0_value>  (3) 
-1251290.0

>  <E0_units>  (3) 
kJ/mol

>  <thermo_class>  (3) 
unknown

>  <Cp0_value>  (3) 
unknown

>  <Cp0_units>  (3) 
unknown

>  <CpInf_value>  (3) 
unknown

>  <CpInf_units>  (3) 
unknown

>  <Tmin_value>  (3) 
unknown

>  <Tmin_units>  (3) 
unknown

>  <Tmax_value>  (3) 
unknown

>  <Tmax_units>  (3) 
unknown

>  <polynomials>  (3) 
unknown

>  <H298_value>  (3) 
unknown

>  <H298_units>  (3) 
unknown

>  <S298_value>  (3) 
unknown

>  <S298_units>  (3) 
unknown

>  <Cp_T_value_list>  (3) 
unknown

>  <Cp_T_units>  (3) 
unknown

>  <T_list>  (3) 
unknown

>  <T_units>  (3) 
unknown

>  <yaml_path>  (3) 
unknown

>  <frequencies_cm1>  (3) 
unknown

>  <ZPE_kJmol>  (3) 
unknown

>  <E_elec_kJmol>  (3) 
unknown

>  <E0_minus_Eelec_plus_ZPE_kJmol>  (3) 
unknown

>  <rxn>  (3) 
unknown

>  <species_type>  (3) 
unknown

>  <species_folder>  (3) 
unknown

>  <frequencies_cm1_list>  (3) 
[]

>  <ts_imag_freq_cm1>  (3) 
-1910.3361

>  <ts_freq_out_path>  (3) 
/home/calvin/Dropbox/PersonalFolders/Calvin/ZEUS_Converged/rmg_rxn_15699/output/rxns/TS0/geometry/freq.out

>  <E0_kJmol>  (3) 
-1.25129e+06

>  <H298_kJmol>  (3) 
unknown

$$$$

     RDKit          3D

 10  9  0  0  0  0  0  0  0  0999 V2000
   -1.3858    0.4213    0.0537 C   0  0  0  0  0  0  0  0  0  1  0  0
   -0.3891   -0.6569    0.3216 C   0  0  0  0  0  0  0  0  0  2  0  0
   -0.6393   -1.9540    0.4149 C   0  0  0  0  0  0  0  0  0  3  0  0
   -1.9270   -2.4250    0.2597 O   0  0  0  0  0  0  0  0  0  4  0  0
   -2.0151   -3.7214    0.3785 O   0  0  0  0  0  1  0  0  0  5  0  0
   -1.3902    1.1444    0.8724 H   0  0  0  0  0  0  0  0  0  6  0  0
   -1.1175    0.9676   -0.8534 H   0  0  0  0  0  0  0  0  0  7  0  0
   -2.3936    0.0289   -0.0653 H   0  0  0  0  0  0  0  0  0  8  0  0
    0.6461   -0.3661    0.4554 H   0  0  0  0  0  0  0  0  0  9  0  0
    0.0824   -2.7350    0.6089 H   0  0  0  0  0  0  0  0  0 10  0  0
  1  8  1  0
  1  7  1  0
  1  6  1  0
  1  2  1  0
  2  9  1  0
  2  3  1  0
  3  4  1  0
  3 10  1  0
  4  5  1  0
M  RAD  1   5   2
M  END
>  <rmg_smiles>  (4) 
C[CH][CH]O[O]

>  <rmg_adjacency_list>  (4) 
multiplicity 2
1  O u0 p2 c0 {2,S} {5,S}
2  O u1 p2 c0 {1,S}
3  C u0 p0 c0 {4,S} {6,S} {7,S} {8,S}
4  C u0 p0 c0 {3,S} {5,S} {9,S}
5  C u0 p0 c0 {1,S} {4,S} {10,S}
6  H u0 p0 c0 {3,S}
7  H u0 p0 c0 {3,S}
8  H u0 p0 c0 {3,S}
9  H u0 p0 c0 {4,S}
10 H u0 p0 c0 {5,S}


>  <multiplicity>  (4) 
2

>  <reaction>  (4) 
rmg_rxn_15699

>  <type>  (4) 
r1

>  <role_mapnums>  (4) 
{}

>  <role_mapidx>  (4) 
{}

>  <ordered_mapped_smiles>  (4) 
[C:1]([CH:2]([CH:3]([O:4][O:5])[H:10])[H:9])([H:6])([H:7])[H:8]

>  <level_of_theory>  (4) 
wb97xd/def2tzvp

>  <lot_method>  (4) 
wb97xd

>  <lot_basis>  (4) 
def2tzvp

>  <spin_multiplicity>  (4) 
2.0

>  <optical_isomers>  (4) 
1.0

>  <modes>  (4) 
IdealGasTranslation(mass=(73.0289, 'amu')),         NonlinearRotor(             inertia = ([28.9822, 174.992, 200.865

>  <frequency_value>  (4) 
unknown

>  <frequency_units>  (4) 
unknown

>  <frequency_list>  (4) 
unknown

>  <arkane_path>  (4) 
/home/calvin/Dropbox/PersonalFolders/Calvin/ZEUS_Converged/rmg_rxn_15699/output/Species/rmg_rxn_15699_p2_CC=COsbr-O-sbr/arkane/output.py

>  <path_exists>  (4) 
True

>  <E0_value>  (4) 
-702480.4161750708

>  <E0_units>  (4) 
kJ/mol

>  <thermo_class>  (4) 
NASA

>  <Cp0_value>  (4) 
33.257888

>  <Cp0_units>  (4) 
J/(mol*K)

>  <CpInf_value>  (4) 
232.805216

>  <CpInf_units>  (4) 
J/(mol*K)

>  <Tmin_value>  (4) 
10.0

>  <Tmin_units>  (4) 
K

>  <Tmax_value>  (4) 
3000.0

>  <Tmax_units>  (4) 
K

>  <polynomials>  (4) 
[{"name": "polynomial1", "class": "NASAPolynomial", "Tmin_value": 10.0, "Tmin_units": "K", "Tmax_value": 1013.8120483970304, "Tmax_units": "K", "coeffs": [3.8417198429520796, 0.021188176622346053, 1.0371863760257155e-05, -2.3048030022641927e-08, 8.80545170223189e-12, -84488881.34216082, 10.110843919901804]}, {"name": "polynomial2", "class": "NASAPolynomial", "Tmin_value": 1013.8120483970304, "Tmin_units": "K", "Tmax_value": 3000.0, "Tmax_units": "K", "coeffs": [5.104204559894564, 0.027003321362804766, -1.4205811125598202e-05, 3.6179711234222237e-09, -3.6047667103064236e-13, -84489692.1556592, 1.2664161045145885]}]

>  <H298_value>  (4) 
-167892.6099446233

>  <H298_units>  (4) 
kcal/mol

>  <S298_value>  (4) 
76.6786246787845

>  <S298_units>  (4) 
cal/(mol*K)

>  <Cp_T_value_list>  (4) 
[21.025972067640314, 25.290847928413278, 29.208181875539815, 32.6921478478071, 38.22665063331095, 42.04766383681569, 47.75625046956822, 50.60171967024907, 51.949126602081186]

>  <Cp_T_units>  (4) 
cal/(mol*K)

>  <T_list>  (4) 
[300.0, 400.0, 500.0, 600.0, 800.0, 1000.0, 1500.0, 2000.0, 2400.0]

>  <T_units>  (4) 
K

>  <yaml_path>  (4) 
/home/calvin/Dropbox/PersonalFolders/Calvin/ZEUS_Converged/rmg_rxn_15699/output/Species/rmg_rxn_15699_p2_CC=COsbr-O-sbr/rmg_rxn_15699_p2_CC=COsbr-O-sbr.yml

>  <frequencies_cm1>  (4) 
[107.983344157, 132.16199946871998, 202.50053010148, 427.39429933147994, 454.48455641888, 654.5953756289999, 750.85677584476, 939.17011427512, 961.0826644312399, 979.0260970724, 1055.8539288325599, 1142.5152835709598, 1242.88314100808, 1265.1871093274399, 1365.8159122067198, 1410.4719177426796, 1472.7486076097598, 1472.8996812868, 1715.2287262442799, 3018.2529246849203, 3074.06778136588, 3122.1092106646, 3161.3746327243593, 3204.4993005339597]

>  <ZPE_kJmol>  (4) 
199.37665331691412

>  <E_elec_kJmol>  (4) 
-702679.7928283877

>  <E0_minus_Eelec_plus_ZPE_kJmol>  (4) 
0.0

>  <rxn>  (4) 
rmg_rxn_15699

>  <species_type>  (4) 
p1

>  <species_folder>  (4) 
rmg_rxn_15699_p2_CC=COsbr-O-sbr

>  <frequencies_cm1_list>  (4) 
[107.983344157, 132.16199946871998, 202.50053010148, 427.39429933147994, 454.48455641888, 654.5953756289999, 750.85677584476, 939.17011427512, 961.0826644312399, 979.0260970724, 1055.8539288325599, 1142.5152835709598, 1242.88314100808, 1265.1871093274399, 1365.8159122067198, 1410.4719177426796, 1472.7486076097598, 1472.8996812868, 1715.2287262442799, 3018.2529246849203, 3074.06778136588, 3122.1092106646, 3161.3746327243593, 3204.4993005339597]

>  <E0_kJmol>  (4) 
-702480

>  <H298_kJmol>  (4) 
-702463

$$$$

     RDKit          3D

  8  7  0  0  0  0  0  0  0  0999 V2000
    1.7077   -0.1964   -0.0607 C   0  0  0  0  0  3  0  0  0  1  0  0
    0.4209   -0.4565    0.2808 O   0  0  0  0  0  0  0  0  0  2  0  0
   -0.4607    0.4385   -0.2968 N   0  0  0  0  0  0  0  0  0  3  0  0
   -1.6584    0.1416   -0.0244 C   0  0  0  0  0  0  0  0  0  4  0  0
    2.4163   -0.7685    0.5170 H   0  0  0  0  0  0  0  0  0  5  0  0
    1.9214    0.7645   -0.5045 H   0  0  0  0  0  0  0  0  0  6  0  0
   -2.4185    0.7953   -0.4307 H   0  0  0  0  0  0  0  0  0  7  0  0
   -1.9286   -0.7185    0.5831 H   0  0  0  0  0  0  0  0  0  8  0  0
  1  6  1  0
  1  5  1  0
  1  2  1  0
  2  3  1  0
  3  4  1  0
  4  8  1  0
  4  7  1  0
M  RAD  1   1   2
M  END
>  <rmg_smiles>  (5) 
[CH2]O[N][CH2]

>  <rmg_adjacency_list>  (5) 
multiplicity 2
1 O u0 p2 c0 {2,S} {3,S}
2 N u0 p1 c0 {1,S} {4,S}
3 C u1 p0 c0 {1,S} {5,S} {6,S}
4 C u0 p0 c0 {2,S} {7,S} {8,S}
5 H u0 p0 c0 {3,S}
6 H u0 p0 c0 {3,S}
7 H u0 p0 c0 {4,S}
8 H u0 p0 c0 {4,S}


>  <multiplicity>  (5) 
2

>  <reaction>  (5) 
rmg_rxn_15699

>  <type>  (5) 
r2

>  <role_mapnums>  (5) 
{}

>  <role_mapidx>  (5) 
{}

>  <ordered_mapped_smiles>  (5) 
[C:1]([O:2][NH:3][CH:4]([H:7])[H:8])([H:5])[H:6]

>  <level_of_theory>  (5) 
wb97xd/def2tzvp

>  <lot_method>  (5) 
wb97xd

>  <lot_basis>  (5) 
def2tzvp

>  <spin_multiplicity>  (5) 
2.0

>  <optical_isomers>  (5) 
2.0

>  <modes>  (5) 
IdealGasTranslation(mass=(58.0293, 'amu')),         NonlinearRotor(             inertia = ([10.2741, 95.4529, 105.582

>  <frequency_value>  (5) 
unknown

>  <frequency_units>  (5) 
unknown

>  <frequency_list>  (5) 
unknown

>  <arkane_path>  (5) 
/home/calvin/Dropbox/PersonalFolders/Calvin/ZEUS_Converged/rmg_rxn_15699/output/Species/rmg_rxn_15699_r1_sbr-CH2-sbrON=C/arkane/output.py

>  <path_exists>  (5) 
True

>  <E0_value>  (5) 
-547168.2732446302

>  <E0_units>  (5) 
kJ/mol

>  <thermo_class>  (5) 
NASA

>  <Cp0_value>  (5) 
33.257888

>  <Cp0_units>  (5) 
J/(mol*K)

>  <CpInf_value>  (5) 
182.918384

>  <CpInf_units>  (5) 
J/(mol*K)

>  <Tmin_value>  (5) 
10.0

>  <Tmin_units>  (5) 
K

>  <Tmax_value>  (5) 
3000.0

>  <Tmax_units>  (5) 
K

>  <polynomials>  (5) 
[{"name": "polynomial1", "class": "NASAPolynomial", "Tmin_value": 10.0, "Tmin_units": "K", "Tmax_value": 253.2842427910515, "Tmax_units": "K", "coeffs": [3.956862909385456, 0.0038362890131335746, 0.00011727738047703725, -3.4736244039427427e-07, 3.472729073035136e-10, -65809144.38694886, 9.350338763280796]}, {"name": "polynomial2", "class": "NASAPolynomial", "Tmin_value": 253.2842427910515, "Tmin_units": "K", "Tmax_value": 3000.0, "Tmax_units": "K", "coeffs": [2.5252197328965313, 0.026445761179553072, -1.662161754135038e-05, 5.074735532607581e-09, -5.97403912324656e-13, -65809071.86505469, 14.291183066674913]}]

>  <H298_value>  (5) 
-130772.65860702786

>  <H298_units>  (5) 
kcal/mol

>  <S298_value>  (5) 
71.26914844977757

>  <S298_units>  (5) 
cal/(mol*K)

>  <Cp_T_value_list>  (5) 
[18.0740035969719, 21.369534269323825, 24.223451351766553, 26.683440747612977, 30.598134113509214, 33.438117676478754, 37.554421513360474, 39.68390492467901, 40.91110806828642]

>  <Cp_T_units>  (5) 
cal/(mol*K)

>  <T_list>  (5) 
[300.0, 400.0, 500.0, 600.0, 800.0, 1000.0, 1500.0, 2000.0, 2400.0]

>  <T_units>  (5) 
K

>  <yaml_path>  (5) 
/home/calvin/Dropbox/PersonalFolders/Calvin/ZEUS_Converged/rmg_rxn_15699/output/Species/rmg_rxn_15699_r1_sbr-CH2-sbrON=C/rmg_rxn_15699_r1_sbr-CH2-sbrON=C.yml

>  <frequencies_cm1>  (5) 
[132.13453152744, 273.14807507364, 360.4549264321199, 498.69420790903996, 595.9169860696, 789.3942974605999, 873.74834513148, 993.5360370535599, 1152.01232426852, 1206.54305469464, 1257.0497317232398, 1417.2771001948001, 1437.260027476, 1705.2166616477198, 3090.5210781926, 3134.7719315946797, 3218.94057066192, 3282.16490450316]

>  <ZPE_kJmol>  (5) 
152.0381400376291

>  <E_elec_kJmol>  (5) 
-547320.3113846679

>  <E0_minus_Eelec_plus_ZPE_kJmol>  (5) 
0.0

>  <rxn>  (5) 
rmg_rxn_15699

>  <species_type>  (5) 
r0

>  <species_folder>  (5) 
rmg_rxn_15699_r1_sbr-CH2-sbrON=C

>  <frequencies_cm1_list>  (5) 
[132.13453152744, 273.14807507364, 360.4549264321199, 498.69420790903996, 595.9169860696, 789.3942974605999, 873.74834513148, 993.5360370535599, 1152.01232426852, 1206.54305469464, 1257.0497317232398, 1417.2771001948001, 1437.260027476, 1705.2166616477198, 3090.5210781926, 3134.7719315946797, 3218.94057066192, 3282.16490450316]

>  <E0_kJmol>  (5) 
-547168

>  <H298_kJmol>  (5) 
-547153

$$$$
