
     RDKit          3D

 18 17  0  0  0  0  0  0  0  0999 V2000
    0.9192   -1.8751   -1.4547 C   0  0  0  0  0  0  0  0  0  1  0  0
    0.7886   -1.8463    0.0633 C   0  0  0  0  0  0  0  0  0  2  0  0
    0.7383   -0.4537    0.6386 C   0  0  0  0  0  0  0  0  0  3  0  0
   -0.3061    0.2774    0.0964 O   0  0  0  0  0  0  0  0  0  4  0  0
   -0.5097    1.5315    0.7125 C   0  0  0  0  0  0  0  0  0  5  0  0
   -1.6039    2.2635   -0.0272 C   0  0  0  0  0  0  0  0  0  6  0  0
    1.8309   -1.3671   -1.7739 H   0  0  0  0  0  0  0  0  0  7  0  0
    0.0723   -1.3753   -1.9252 H   0  0  0  0  0  0  0  0  0  8  0  0
    0.9542   -2.9022   -1.8204 H   0  0  0  0  0  0  0  0  0  9  0  0
    1.6353   -2.3628    0.5233 H   0  0  0  0  0  0  0  0  0 10  0  0
   -0.1140   -2.3863    0.3693 H   0  0  0  0  0  0  0  0  0 11  0  0
    1.6759    0.0580    0.3810 H   0  0  0  0  0  0  0  0  0 12  0  0
    0.7138   -0.4471    1.7370 H   0  0  0  0  0  0  0  0  0 13  0  0
   -0.7846    1.3805    1.7656 H   0  0  0  0  0  0  0  0  0 14  0  0
    0.4245    2.1055    0.6919 H   0  0  0  0  0  0  0  0  0 15  0  0
   -2.5295    1.6868   -0.0153 H   0  0  0  0  0  0  0  0  0 16  0  0
   -1.3165    2.4325   -1.0657 H   0  0  0  0  0  0  0  0  0 17  0  0
   -1.7918    3.2308    0.4411 H   0  0  0  0  0  0  0  0  0 18  0  0
  1  8  1  0
  1  7  1  0
  1  9  1  0
  1  2  1  0
  2 10  1  0
  2 11  1  0
  2  3  1  0
  3  4  1  0
  3 13  1  0
  3 12  1  0
  4  5  1  0
  5  6  1  0
  5 14  1  0
  5 15  1  0
  6 17  1  0
  6 18  1  0
  6 16  1  0
M  END
>  <rmg_smiles>  (1) 
CCCOCC

>  <rmg_adjacency_list>  (1) 
1  O u0 p2 c0 {3,S} {4,S}
2  C u0 p0 c0 {3,S} {5,S} {7,S} {8,S}
3  C u0 p0 c0 {1,S} {2,S} {9,S} {10,S}
4  C u0 p0 c0 {1,S} {6,S} {11,S} {12,S}
5  C u0 p0 c0 {2,S} {13,S} {14,S} {15,S}
6  C u0 p0 c0 {4,S} {16,S} {17,S} {18,S}
7  H u0 p0 c0 {2,S}
8  H u0 p0 c0 {2,S}
9  H u0 p0 c0 {3,S}
10 H u0 p0 c0 {3,S}
11 H u0 p0 c0 {4,S}
12 H u0 p0 c0 {4,S}
13 H u0 p0 c0 {5,S}
14 H u0 p0 c0 {5,S}
15 H u0 p0 c0 {5,S}
16 H u0 p0 c0 {6,S}
17 H u0 p0 c0 {6,S}
18 H u0 p0 c0 {6,S}


>  <multiplicity>  (1) 
1

>  <reaction>  (1) 
rmg_rxn_346

>  <type>  (1) 
r1h

>  <role_mapnums>  (1) 
{"r1h_a": 3, "r1h_h": 12}

>  <role_mapidx>  (1) 
{"r1h_a": 2, "r1h_h": 11}

>  <ordered_mapped_smiles>  (1) 
[C:1]([C:2]([C:3]([O:4][C:5]([C:6]([H:16])([H:17])[H:18])([H:14])[H:15])([H:12])[H:13])([H:10])[H:11])([H:7])([H:8])[H:9]

>  <mol_properties>  (1) 
{"2": {"label": "donator", "atom_type": "Cs"}, "11": {"label": "d_hydrogen", "atom_type": "H0"}}

>  <level_of_theory>  (1) 
wb97xd/def2tzvp

>  <lot_method>  (1) 
wb97xd

>  <lot_basis>  (1) 
def2tzvp

>  <spin_multiplicity>  (1) 
1.0

>  <optical_isomers>  (1) 
2.0

>  <modes>  (1) 
IdealGasTranslation(mass=(88.0888, 'amu')),         NonlinearRotor(             inertia = ([59.5652, 317.445, 349.634

>  <frequency_value>  (1) 
unknown

>  <frequency_units>  (1) 
unknown

>  <frequency_list>  (1) 
unknown

>  <arkane_path>  (1) 
/home/calvin/Dropbox/PersonalFolders/Calvin/ATLAS_Converged/rmg_rxn_346/output/Species/rmg_rxn_346_r2_CCCOCC/arkane/output.py

>  <path_exists>  (1) 
True

>  <E0_value>  (1) 
-716327.3605709573

>  <E0_units>  (1) 
kJ/mol

>  <thermo_class>  (1) 
NASA

>  <Cp0_value>  (1) 
33.257888

>  <Cp0_units>  (1) 
J/(mol*K)

>  <CpInf_value>  (1) 
432.352544

>  <CpInf_units>  (1) 
J/(mol*K)

>  <Tmin_value>  (1) 
10.0

>  <Tmin_units>  (1) 
K

>  <Tmax_value>  (1) 
3000.0

>  <Tmax_units>  (1) 
K

>  <polynomials>  (1) 
[{"name": "polynomial1", "class": "NASAPolynomial", "Tmin_value": 10.0, "Tmin_units": "K", "Tmax_value": 424.14701041358796, "Tmax_units": "K", "coeffs": [3.4707042336928127, 0.05746545203879795, -0.00016719847115372115, 4.780470157694204e-07, -4.3347206706639054e-10, -86154279.58985142, 11.635447004604476]}, {"name": "polynomial2", "class": "NASAPolynomial", "Tmin_value": 424.14701041358796, "Tmin_units": "K", "Tmax_value": 3000.0, "Tmax_units": "K", "coeffs": [-2.8535624465972114, 0.06921008708460846, -3.934323609424939e-05, 1.0841890934368647e-08, -1.163418506360095e-12, -86153312.26572455, 41.80111524234505]}]

>  <H298_value>  (1) 
-171200.6815246165

>  <H298_units>  (1) 
kcal/mol

>  <S298_value>  (1) 
88.37399878129293

>  <S298_units>  (1) 
cal/(mol*K)

>  <Cp_T_value_list>  (1) 
[29.924593767526826, 38.16083070533892, 46.09960348181722, 53.05840207682852, 64.40406715451496, 72.91410593462665, 85.72980278110597, 92.03567805993791, 95.21197800865355]

>  <Cp_T_units>  (1) 
cal/(mol*K)

>  <T_list>  (1) 
[300.0, 400.0, 500.0, 600.0, 800.0, 1000.0, 1500.0, 2000.0, 2400.0]

>  <T_units>  (1) 
K

>  <yaml_path>  (1) 
/home/calvin/Dropbox/PersonalFolders/Calvin/ATLAS_Converged/rmg_rxn_346/output/Species/rmg_rxn_346_r2_CCCOCC/rmg_rxn_346_r2_CCCOCC.yml

>  <frequencies_cm1>  (1) 
[76.60808822992, 85.88538539723999, 152.39213822143998, 171.44115549912, 250.05440344247998, 256.05614861216003, 329.51915756551995, 440.0707542322, 493.7774464199199, 767.98990421816, 823.02879155796, 891.3896304185598, 900.4815189822399, 929.41899512072, 1002.9850088538799, 1082.00340893112, 1102.9065122452, 1152.52734816752, 1174.9617892079598, 1182.44680320676, 1190.2339645596398, 1270.1176047871998, 1295.23017010244, 1305.6473868328799, 1368.30176089256, 1380.4425909383199, 1399.7456866728398, 1405.4521514737598, 1443.92787022172, 1468.7794900948002, 1470.37949767436, 1482.5752636026798, 1487.2448136202797, 1494.6336898246, 1500.58049911172, 1519.49904366832, 2928.8997117010795, 2942.5512785172396, 2962.4655359452395, 2968.54281795344, 3015.14904732028, 3021.7276192568397, 3024.0692612509597, 3058.7338031463196, 3085.2403664815197, 3101.8035350733594, 3104.27564978856, 3105.2988306012394]

>  <ZPE_kJmol>  (1) 
431.0594598774012

>  <E_elec_kJmol>  (1) 
-716758.4200308347

>  <E0_minus_Eelec_plus_ZPE_kJmol>  (1) 
0.0

>  <rxn>  (1) 
rmg_rxn_346

>  <species_type>  (1) 
r1

>  <species_folder>  (1) 
rmg_rxn_346_r2_CCCOCC

>  <frequencies_cm1_list>  (1) 
[76.60808822992, 85.88538539723999, 152.39213822143998, 171.44115549912, 250.05440344247998, 256.05614861216003, 329.51915756551995, 440.0707542322, 493.7774464199199, 767.98990421816, 823.02879155796, 891.3896304185598, 900.4815189822399, 929.41899512072, 1002.9850088538799, 1082.00340893112, 1102.9065122452, 1152.52734816752, 1174.9617892079598, 1182.44680320676, 1190.2339645596398, 1270.1176047871998, 1295.23017010244, 1305.6473868328799, 1368.30176089256, 1380.4425909383199, 1399.7456866728398, 1405.4521514737598, 1443.92787022172, 1468.7794900948002, 1470.37949767436, 1482.5752636026798, 1487.2448136202797, 1494.6336898246, 1500.58049911172, 1519.49904366832, 2928.8997117010795, 2942.5512785172396, 2962.4655359452395, 2968.54281795344, 3015.14904732028, 3021.7276192568397, 3024.0692612509597, 3058.7338031463196, 3085.2403664815197, 3101.8035350733594, 3104.27564978856, 3105.2988306012394]

>  <E0_kJmol>  (1) 
-716327

>  <H298_kJmol>  (1) 
-716304

$$$$

     RDKit          3D

  9  8  0  0  0  0  0  0  0  0999 V2000
   -0.0912   -0.7238    1.0310 C   0  0  0  0  0  0  0  0  0  1  0  0
   -0.4158   -0.1123   -0.0866 C   0  0  0  0  0  0  0  0  0  2  0  0
    0.4782    0.7874   -0.8910 C   0  0  0  0  0  0  0  0  0  3  0  0
    0.8525   -0.6901    1.5658 H   0  0  0  0  0  0  0  0  0  4  0  0
   -1.4211   -0.2634   -0.4815 H   0  0  0  0  0  0  0  0  0  5  0  0
    0.6057    0.3965   -1.9037 H   0  0  0  0  0  0  0  0  0  6  0  0
    1.4623    0.8861   -0.4325 H   0  0  0  0  0  0  0  0  0  7  0  0
    0.0383    1.7836   -0.9847 H   0  0  0  0  0  0  0  0  0  8  0  0
   -0.8989   -1.3166    1.4482 H   0  0  0  0  0  0  0  0  0  9  0  0
  1  9  1  0
  1  4  1  0
  1  2  1  0
  2  5  1  0
  2  3  1  0
  3  6  1  0
  3  7  1  0
  3  8  1  0
M  END
>  <rmg_smiles>  (2) 
[CH2][CH]C

>  <rmg_adjacency_list>  (2) 
1 C u0 p0 c0 {2,S} {4,S} {5,S} {6,S}
2 C u0 p0 c0 {1,S} {3,S} {7,S}
3 C u0 p0 c0 {2,S} {8,S} {9,S}
4 H u0 p0 c0 {1,S}
5 H u0 p0 c0 {1,S}
6 H u0 p0 c0 {1,S}
7 H u0 p0 c0 {2,S}
8 H u0 p0 c0 {3,S}
9 H u0 p0 c0 {3,S}


>  <multiplicity>  (2) 
1

>  <reaction>  (2) 
rmg_rxn_346

>  <type>  (2) 
r2h

>  <role_mapnums>  (2) 
{"r2h_a": 1, "r2h_h": 9}

>  <role_mapidx>  (2) 
{"r2h_a": 0, "r2h_h": 8}

>  <ordered_mapped_smiles>  (2) 
[CH:1]([CH:2]([C:3]([H:6])([H:7])[H:8])[H:5])([H:4])[H:9]

>  <mol_properties>  (2) 
{"0": {"label": "acceptor", "atom_type": "Cs"}, "8": {"label": "a_hydrogen", "atom_type": "H0"}}

>  <level_of_theory>  (2) 
wb97xd/def2tzvp

>  <lot_method>  (2) 
wb97xd

>  <lot_basis>  (2) 
def2tzvp

>  <spin_multiplicity>  (2) 
1.0

>  <optical_isomers>  (2) 
1.0

>  <modes>  (2) 
IdealGasTranslation(mass=(42.047, 'amu')),         NonlinearRotor(             inertia = ([10.7194, 53.9495, 61.5632

>  <frequency_value>  (2) 
unknown

>  <frequency_units>  (2) 
unknown

>  <frequency_list>  (2) 
unknown

>  <arkane_path>  (2) 
/home/calvin/Dropbox/PersonalFolders/Calvin/ATLAS_Converged/rmg_rxn_346/output/Species/rmg_rxn_346_p1_C=CC/arkane/output.py

>  <path_exists>  (2) 
True

>  <E0_value>  (2) 
-309367.8807026825

>  <E0_units>  (2) 
kJ/mol

>  <thermo_class>  (2) 
NASA

>  <Cp0_value>  (2) 
33.257888

>  <Cp0_units>  (2) 
J/(mol*K)

>  <CpInf_value>  (2) 
207.8618

>  <CpInf_units>  (2) 
J/(mol*K)

>  <Tmin_value>  (2) 
10.0

>  <Tmin_units>  (2) 
K

>  <Tmax_value>  (2) 
3000.0

>  <Tmax_units>  (2) 
K

>  <polynomials>  (2) 
[{"name": "polynomial1", "class": "NASAPolynomial", "Tmin_value": 10.0, "Tmin_units": "K", "Tmax_value": 532.050958228352, "Tmax_units": "K", "coeffs": [4.020103905460326, -0.0017075007857358705, 7.459047944046804e-05, -1.1023400232135055e-07, 5.348122674066863e-11, -37208361.301709026, 6.986181216493328]}, {"name": "polynomial2", "class": "NASAPolynomial", "Tmin_value": 532.050958228352, "Tmin_units": "K", "Tmax_value": 3000.0, "Tmax_units": "K", "coeffs": [-0.3050758214469023, 0.030809356174296882, -1.708310870693842e-05, 4.633553897625726e-09, -4.924247956138728e-13, -37207901.05600466, 25.12343906520757]}]

>  <H298_value>  (2) 
-73937.54186756608

>  <H298_units>  (2) 
kcal/mol

>  <S298_value>  (2) 
63.24337268320408

>  <S298_units>  (2) 
cal/(mol*K)

>  <Cp_T_value_list>  (2) 
[15.257526478473713, 19.048812170100657, 22.609044034141046, 25.769394679974535, 30.960482429065184, 34.899918218018236, 40.970847945474176, 44.05802973005748, 45.61721753826164]

>  <Cp_T_units>  (2) 
cal/(mol*K)

>  <T_list>  (2) 
[300.0, 400.0, 500.0, 600.0, 800.0, 1000.0, 1500.0, 2000.0, 2400.0]

>  <T_units>  (2) 
K

>  <yaml_path>  (2) 
/home/calvin/Dropbox/PersonalFolders/Calvin/ATLAS_Converged/rmg_rxn_346/output/Species/rmg_rxn_346_p1_C=CC/rmg_rxn_346_p1_C=CC.yml

>  <frequencies_cm1>  (2) 
[200.09708523947998, 429.33078919172, 590.7049442117201, 925.49107951768, 943.8671322339999, 950.17102475776, 1024.49240687612, 1068.78446219012, 1186.6081963106801, 1322.3410281457998, 1395.89330790832, 1440.30896895808, 1465.7442825833598, 1480.7692464635202, 1719.664798761, 3008.0348505287598, 3066.795643912, 3091.69533268232, 3111.44478246264, 3123.9495627303595, 3201.2649504482397]

>  <ZPE_kJmol>  (2) 
207.83598829281505

>  <E_elec_kJmol>  (2) 
-309575.7166909753

>  <E0_minus_Eelec_plus_ZPE_kJmol>  (2) 
0.0

>  <rxn>  (2) 
rmg_rxn_346

>  <species_type>  (2) 
p0

>  <species_folder>  (2) 
rmg_rxn_346_p1_C=CC

>  <frequencies_cm1_list>  (2) 
[200.09708523947998, 429.33078919172, 590.7049442117201, 925.49107951768, 943.8671322339999, 950.17102475776, 1024.49240687612, 1068.78446219012, 1186.6081963106801, 1322.3410281457998, 1395.89330790832, 1440.30896895808, 1465.7442825833598, 1480.7692464635202, 1719.664798761, 3008.0348505287598, 3066.795643912, 3091.69533268232, 3111.44478246264, 3123.9495627303595, 3201.2649504482397]

>  <E0_kJmol>  (2) 
-309368

>  <H298_kJmol>  (2) 
-309355

$$$$

     RDKit          3D

 26 24  0  0  0  0  0  0  0  0999 V2000
    1.9415    0.4210    0.1847 C   0  0  0  0  0  3  0  0  0  1  0  0
    1.6169    1.0325   -0.9329 C   0  0  0  0  0  0  0  0  0  2  0  0
    2.5109    1.9322   -1.7373 C   0  0  0  0  0  0  0  0  0  3  0  0
    2.8853    0.4547    0.7195 H   0  0  0  0  0  0  0  0  0  4  0  0
    0.6117    0.8814   -1.3278 H   0  0  0  0  0  0  0  0  0  5  0  0
    2.6385    1.5413   -2.7500 H   0  0  0  0  0  0  0  0  0  6  0  0
    3.4951    2.0309   -1.2788 H   0  0  0  0  0  0  0  0  0  7  0  0
    2.0711    2.9284   -1.8310 H   0  0  0  0  0  0  0  0  0  8  0  0
   -0.0463   -2.3914   -1.0462 C   0  0  0  0  0  0  0  0  0  9  0  0
   -0.1769   -2.3627    0.4718 C   0  0  0  0  0  0  0  0  0 10  0  0
   -0.2272   -0.9701    1.0470 C   0  0  0  0  0  0  0  0  0 11  0  0
   -1.2716   -0.2389    0.5048 O   0  0  0  0  0  0  0  0  0 12  0  0
   -1.4751    1.0152    1.1210 C   0  0  0  0  0  0  0  0  0 13  0  0
   -2.5694    1.7472    0.3813 C   0  0  0  0  0  0  0  0  0 14  0  0
    0.8654   -1.8835   -1.3654 H   0  0  0  0  0  0  0  0  0 15  0  0
   -0.8932   -1.8916   -1.5168 H   0  0  0  0  0  0  0  0  0 16  0  0
   -0.0113   -3.4186   -1.4120 H   0  0  0  0  0  0  0  0  0 17  0  0
    0.6699   -2.8791    0.9317 H   0  0  0  0  0  0  0  0  0 18  0  0
   -1.0794   -2.9026    0.7777 H   0  0  0  0  0  0  0  0  0 19  0  0
    0.8389   -0.3882    0.7542 H   0  0  0  0  0  0  0  0  0 20  0  0
   -0.2517   -0.9634    2.1455 H   0  0  0  0  0  0  0  0  0 21  0  0
   -1.7501    0.8642    2.1740 H   0  0  0  0  0  0  0  0  0 22  0  0
   -0.5409    1.5892    1.1004 H   0  0  0  0  0  0  0  0  0 23  0  0
   -3.4949    1.1704    0.3931 H   0  0  0  0  0  0  0  0  0 24  0  0
   -2.2820    1.9162   -0.6572 H   0  0  0  0  0  0  0  0  0 25  0  0
   -2.7573    2.7145    0.8496 H   0  0  0  0  0  0  0  0  0 26  0  0
  1  4  1  0
  1  2  1  0
  2  3  1  0
  2  5  1  0
  3  6  1  0
  3  8  1  0
  3  7  1  0
  9 17  1  0
  9 16  1  0
  9 15  1  0
  9 10  1  0
 10 18  1  0
 10 11  1  0
 10 19  1  0
 11 21  1  0
 11 12  1  0
 11 20  1  0
 12 13  1  0
 13 23  1  0
 13 14  1  0
 13 22  1  0
 14 24  1  0
 14 25  1  0
 14 26  1  0
M  RAD  1   1   2
M  END
>  <rmg_smiles>  (3) 
CCCOCC.[CH][CH]C

>  <rmg_adjacency_list>  (3) 
multiplicity 2
1  O u0 p2 c0 {3,S} {4,S}
2  C u0 p0 c0 {3,S} {5,S} {10,S} {11,S}
3  C u0 p0 c0 {1,S} {2,S} {12,S} {13,S}
4  C u0 p0 c0 {1,S} {6,S} {14,S} {15,S}
5  C u0 p0 c0 {2,S} {16,S} {17,S} {18,S}
6  C u0 p0 c0 {4,S} {19,S} {20,S} {21,S}
7  C u0 p0 c0 {8,S} {22,S} {23,S} {24,S}
8  C u0 p0 c0 {7,S} {9,S} {25,S}
9  C u1 p1 c0 {8,S} {26,S}
10 H u0 p0 c0 {2,S}
11 H u0 p0 c0 {2,S}
12 H u0 p0 c0 {3,S}
13 H u0 p0 c0 {3,S}
14 H u0 p0 c0 {4,S}
15 H u0 p0 c0 {4,S}
16 H u0 p0 c0 {5,S}
17 H u0 p0 c0 {5,S}
18 H u0 p0 c0 {5,S}
19 H u0 p0 c0 {6,S}
20 H u0 p0 c0 {6,S}
21 H u0 p0 c0 {6,S}
22 H u0 p0 c0 {7,S}
23 H u0 p0 c0 {7,S}
24 H u0 p0 c0 {7,S}
25 H u0 p0 c0 {8,S}
26 H u0 p0 c0 {9,S}


>  <multiplicity>  (3) 
2

>  <reaction>  (3) 
rmg_rxn_346

>  <type>  (3) 
ts

>  <role_mapnums>  (3) 
{"*2": 20, "*1": 11, "*3": 1, "*0": 12, "*4": 2}

>  <role_mapidx>  (3) 
{"*2": 19, "*1": 10, "*3": 0, "*0": 11, "*4": 1}

>  <ordered_mapped_smiles>  (3) 
[CH:1]([CH:2]([C:3]([H:6])([H:7])[H:8])[H:5])[H:4].[C:9]([C:10]([C:11]([O:12][C:13]([C:14]([H:24])([H:25])[H:26])([H:22])[H:23])([H:20])[H:21])([H:18])[H:19])([H:15])([H:16])[H:17]

>  <mol_properties>  (3) 
{"0": {"label": "*3", "atom_type": "C2s"}, "1": {"label": "*4", "atom_type": "Cs"}, "10": {"label": "*1", "atom_type": "Cs"}, "11": {"label": "*0", "atom_type": "O2s"}, "19": {"label": "*2", "atom_type": "H0"}}

>  <level_of_theory>  (3) 
wb97xd/def2tzvp

>  <lot_method>  (3) 
wb97xd

>  <lot_basis>  (3) 
def2tzvp

>  <spin_multiplicity>  (3) 
2.0

>  <optical_isomers>  (3) 
2.0

>  <modes>  (3) 
IdealGasTranslation(mass=(129.128, 'amu')),         NonlinearRotor(             inertia = ([377.441, 498.146, 738.189

>  <frequency_value>  (3) 
-1322.77

>  <frequency_units>  (3) 
cm^-1

>  <frequency_list>  (3) 
unknown

>  <arkane_path>  (3) 
/home/calvin/Dropbox/PersonalFolders/Calvin/ATLAS_Converged/rmg_rxn_346/output/rxns/TS0/arkane/output.py

>  <path_exists>  (3) 
True

>  <E0_value>  (3) 
-1023910.0

>  <E0_units>  (3) 
kJ/mol

>  <thermo_class>  (3) 
unknown

>  <Cp0_value>  (3) 
unknown

>  <Cp0_units>  (3) 
unknown

>  <CpInf_value>  (3) 
unknown

>  <CpInf_units>  (3) 
unknown

>  <Tmin_value>  (3) 
unknown

>  <Tmin_units>  (3) 
unknown

>  <Tmax_value>  (3) 
unknown

>  <Tmax_units>  (3) 
unknown

>  <polynomials>  (3) 
unknown

>  <H298_value>  (3) 
unknown

>  <H298_units>  (3) 
unknown

>  <S298_value>  (3) 
unknown

>  <S298_units>  (3) 
unknown

>  <Cp_T_value_list>  (3) 
unknown

>  <Cp_T_units>  (3) 
unknown

>  <T_list>  (3) 
unknown

>  <T_units>  (3) 
unknown

>  <yaml_path>  (3) 
unknown

>  <frequencies_cm1>  (3) 
unknown

>  <ZPE_kJmol>  (3) 
unknown

>  <E_elec_kJmol>  (3) 
unknown

>  <E0_minus_Eelec_plus_ZPE_kJmol>  (3) 
unknown

>  <rxn>  (3) 
unknown

>  <species_type>  (3) 
unknown

>  <species_folder>  (3) 
unknown

>  <frequencies_cm1_list>  (3) 
[]

>  <ts_imag_freq_cm1>  (3) 
-1338.8376

>  <ts_freq_out_path>  (3) 
/home/calvin/Dropbox/PersonalFolders/Calvin/ATLAS_Converged/rmg_rxn_346/output/rxns/TS0/geometry/freq.out

>  <E0_kJmol>  (3) 
-1.02391e+06

>  <H298_kJmol>  (3) 
unknown

$$$$

     RDKit          3D

 17 16  0  0  0  0  0  0  0  0999 V2000
   -2.5196    0.7765    0.6863 C   0  0  0  0  0  0  0  0  0  1  0  0
   -1.7832    0.2264   -0.5439 C   0  0  0  0  0  0  0  0  0  2  0  0
   -0.5364   -0.5090   -0.2164 C   0  0  0  0  0  3  0  0  0  3  0  0
   -0.7195   -1.6896    0.4220 O   0  0  0  0  0  0  0  0  0  4  0  0
    0.4618   -2.3470    0.8423 C   0  0  0  0  0  0  0  0  0  5  0  0
    0.0797   -3.6206    1.5573 C   0  0  0  0  0  0  0  0  0  6  0  0
   -1.8902    1.4809    1.2340 H   0  0  0  0  0  0  0  0  0  7  0  0
   -3.4347    1.2951    0.3937 H   0  0  0  0  0  0  0  0  0  8  0  0
   -2.7882   -0.0345    1.3642 H   0  0  0  0  0  0  0  0  0  9  0  0
   -2.4551   -0.4399   -1.0937 H   0  0  0  0  0  0  0  0  0 10  0  0
   -1.5294    1.0480   -1.2176 H   0  0  0  0  0  0  0  0  0 11  0  0
    0.3864    0.0229    0.0104 H   0  0  0  0  0  0  0  0  0 12  0  0
    1.0871   -2.5604   -0.0319 H   0  0  0  0  0  0  0  0  0 13  0  0
    1.0283   -1.6824    1.5065 H   0  0  0  0  0  0  0  0  0 14  0  0
   -0.4799   -4.2803    0.8934 H   0  0  0  0  0  0  0  0  0 15  0  0
    0.9764   -4.1449    1.8908 H   0  0  0  0  0  0  0  0  0 16  0  0
   -0.5383   -3.4025    2.4289 H   0  0  0  0  0  0  0  0  0 17  0  0
  1  8  1  0
  1  7  1  0
  1  9  1  0
  1  2  1  0
  2 10  1  0
  2 11  1  0
  2  3  1  0
  3  4  1  0
  3 12  1  0
  4  5  1  0
  5 13  1  0
  5 14  1  0
  5  6  1  0
  6 17  1  0
  6 15  1  0
  6 16  1  0
M  RAD  1   3   2
M  END
>  <rmg_smiles>  (4) 
CC[CH]OCC

>  <rmg_adjacency_list>  (4) 
multiplicity 2
1  O u0 p2 c0 {3,S} {6,S}
2  C u0 p0 c0 {4,S} {6,S} {7,S} {8,S}
3  C u0 p0 c0 {1,S} {5,S} {9,S} {10,S}
4  C u0 p0 c0 {2,S} {11,S} {12,S} {13,S}
5  C u0 p0 c0 {3,S} {14,S} {15,S} {16,S}
6  C u1 p0 c0 {1,S} {2,S} {17,S}
7  H u0 p0 c0 {2,S}
8  H u0 p0 c0 {2,S}
9  H u0 p0 c0 {3,S}
10 H u0 p0 c0 {3,S}
11 H u0 p0 c0 {4,S}
12 H u0 p0 c0 {4,S}
13 H u0 p0 c0 {4,S}
14 H u0 p0 c0 {5,S}
15 H u0 p0 c0 {5,S}
16 H u0 p0 c0 {5,S}
17 H u0 p0 c0 {6,S}


>  <multiplicity>  (4) 
2

>  <reaction>  (4) 
rmg_rxn_346

>  <type>  (4) 
r1

>  <role_mapnums>  (4) 
{}

>  <role_mapidx>  (4) 
{}

>  <ordered_mapped_smiles>  (4) 
[C:1]([C:2]([C:3]([O:4][C:5]([C:6]([H:15])([H:16])[H:17])([H:13])[H:14])[H:12])([H:10])[H:11])([H:7])([H:8])[H:9]

>  <level_of_theory>  (4) 
wb97xd/def2tzvp

>  <lot_method>  (4) 
wb97xd

>  <lot_basis>  (4) 
def2tzvp

>  <spin_multiplicity>  (4) 
2.0

>  <optical_isomers>  (4) 
2.0

>  <modes>  (4) 
IdealGasTranslation(mass=(87.081, 'amu')),         NonlinearRotor(             inertia = ([54.0033, 326.681, 352.519

>  <frequency_value>  (4) 
unknown

>  <frequency_units>  (4) 
unknown

>  <frequency_list>  (4) 
unknown

>  <arkane_path>  (4) 
/home/calvin/Dropbox/PersonalFolders/Calvin/ATLAS_Converged/rmg_rxn_346/output/Species/rmg_rxn_346_p2_CCsbr-CH-sbrOCC/arkane/output.py

>  <path_exists>  (4) 
True

>  <E0_value>  (4) 
-714624.8903626137

>  <E0_units>  (4) 
kJ/mol

>  <thermo_class>  (4) 
NASA

>  <Cp0_value>  (4) 
33.257888

>  <Cp0_units>  (4) 
J/(mol*K)

>  <CpInf_value>  (4) 
407.409128

>  <CpInf_units>  (4) 
J/(mol*K)

>  <Tmin_value>  (4) 
10.0

>  <Tmin_units>  (4) 
K

>  <Tmax_value>  (4) 
3000.0

>  <Tmax_units>  (4) 
K

>  <polynomials>  (4) 
[{"name": "polynomial1", "class": "NASAPolynomial", "Tmin_value": 10.0, "Tmin_units": "K", "Tmax_value": 423.9444908476886, "Tmax_units": "K", "coeffs": [3.4364747383725662, 0.05979522973071814, -0.00016092814605265254, 4.228478801898717e-07, -3.7248711232237204e-10, -85949519.65292636, 12.64316366492574]}, {"name": "polynomial2", "class": "NASAPolynomial", "Tmin_value": 423.9444908476886, "Tmin_units": "K", "Tmax_value": 3000.0, "Tmax_units": "K", "coeffs": [-1.111744104574418, 0.06368295204270104, -3.660326677346525e-05, 1.020691789066353e-08, -1.107737677672226e-12, -85948783.31280652, 34.81879818509147]}]

>  <H298_value>  (4) 
-170793.64533219274

>  <H298_units>  (4) 
kcal/mol

>  <S298_value>  (4) 
91.19326537010946

>  <S298_units>  (4) 
cal/(mol*K)

>  <Cp_T_value_list>  (4) 
[30.386886645970332, 38.020541402191725, 45.279585844268674, 51.6315646190747, 61.96256804390006, 69.68561157148531, 81.2683193524739, 86.98526119843194, 89.90296990808856]

>  <Cp_T_units>  (4) 
cal/(mol*K)

>  <T_list>  (4) 
[300.0, 400.0, 500.0, 600.0, 800.0, 1000.0, 1500.0, 2000.0, 2400.0]

>  <T_units>  (4) 
K

>  <yaml_path>  (4) 
/home/calvin/Dropbox/PersonalFolders/Calvin/ATLAS_Converged/rmg_rxn_346/output/Species/rmg_rxn_346_p2_CCsbr-CH-sbrOCC/rmg_rxn_346_p2_CCsbr-CH-sbrOCC.yml

>  <frequencies_cm1>  (4) 
[54.48952851419999, 82.85704487112, 127.80146379052002, 170.37677277452, 246.99859497507998, 250.43895462039995, 310.97143021619996, 438.9033667278, 491.6418139854, 605.5238985322799, 772.5633164412799, 819.403023309, 898.5106941954, 905.0823991466399, 1001.87255723204, 1052.16635771572, 1097.2069144296, 1121.5503773889998, 1171.49396162136, 1174.68024280984, 1255.65573370328, 1288.36318478244, 1294.21385627508, 1330.67754832428, 1376.8580246012798, 1387.8520680986, 1405.8641705929597, 1448.5974202393202, 1460.0240838118, 1470.9013885586799, 1481.4353440395598, 1487.3203504587998, 1491.1589952526797, 1509.26723554152, 2975.12825687532, 3009.9438724477195, 3012.71126753168, 3014.66835834788, 3025.43579132964, 3056.8316482126797, 3084.32019044864, 3088.30304193424, 3099.2284155783595, 3103.8086947867996, 3106.4799520762795]

>  <ZPE_kJmol>  (4) 
395.124157254276

>  <E_elec_kJmol>  (4) 
-715020.014519868

>  <E0_minus_Eelec_plus_ZPE_kJmol>  (4) 
0.0

>  <rxn>  (4) 
rmg_rxn_346

>  <species_type>  (4) 
p1

>  <species_folder>  (4) 
rmg_rxn_346_p2_CCsbr-CH-sbrOCC

>  <frequencies_cm1_list>  (4) 
[54.48952851419999, 82.85704487112, 127.80146379052002, 170.37677277452, 246.99859497507998, 250.43895462039995, 310.97143021619996, 438.9033667278, 491.6418139854, 605.5238985322799, 772.5633164412799, 819.403023309, 898.5106941954, 905.0823991466399, 1001.87255723204, 1052.16635771572, 1097.2069144296, 1121.5503773889998, 1171.49396162136, 1174.68024280984, 1255.65573370328, 1288.36318478244, 1294.21385627508, 1330.67754832428, 1376.8580246012798, 1387.8520680986, 1405.8641705929597, 1448.5974202393202, 1460.0240838118, 1470.9013885586799, 1481.4353440395598, 1487.3203504587998, 1491.1589952526797, 1509.26723554152, 2975.12825687532, 3009.9438724477195, 3012.71126753168, 3014.66835834788, 3025.43579132964, 3056.8316482126797, 3084.32019044864, 3088.30304193424, 3099.2284155783595, 3103.8086947867996, 3106.4799520762795]

>  <E0_kJmol>  (4) 
-714625

>  <H298_kJmol>  (4) 
-714601

$$$$

     RDKit          3D

  8  7  0  0  0  0  0  0  0  0999 V2000
    1.3778   -0.6812    0.2772 C   0  0  0  0  0  3  0  0  0  1  0  0
    0.4890    0.2108   -0.0590 C   0  0  0  0  0  0  0  0  0  2  0  0
   -1.0010    0.0286   -0.0323 C   0  0  0  0  0  0  0  0  0  3  0  0
    2.4535   -0.7507    0.3287 H   0  0  0  0  0  0  0  0  0  4  0  0
    0.8447    1.1899   -0.3945 H   0  0  0  0  0  0  0  0  0  5  0  0
   -1.4635    0.7638    0.6301 H   0  0  0  0  0  0  0  0  0  6  0  0
   -1.2709   -0.9687    0.3117 H   0  0  0  0  0  0  0  0  0  7  0  0
   -1.4218    0.1801   -1.0289 H   0  0  0  0  0  0  0  0  0  8  0  0
  1  4  1  0
  1  2  1  0
  2  5  1  0
  2  3  1  0
  3  6  1  0
  3  7  1  0
  3  8  1  0
M  RAD  1   1   2
M  END
>  <rmg_smiles>  (5) 
[CH][CH]C

>  <rmg_adjacency_list>  (5) 
multiplicity 2
1 C u0 p0 c0 {2,S} {4,S} {5,S} {6,S}
2 C u0 p0 c0 {1,S} {3,S} {7,S}
3 C u1 p1 c0 {2,S} {8,S}
4 H u0 p0 c0 {1,S}
5 H u0 p0 c0 {1,S}
6 H u0 p0 c0 {1,S}
7 H u0 p0 c0 {2,S}
8 H u0 p0 c0 {3,S}


>  <multiplicity>  (5) 
2

>  <reaction>  (5) 
rmg_rxn_346

>  <type>  (5) 
r2

>  <role_mapnums>  (5) 
{}

>  <role_mapidx>  (5) 
{}

>  <ordered_mapped_smiles>  (5) 
[CH:1]([CH:2]([C:3]([H:6])([H:7])[H:8])[H:5])[H:4]

>  <level_of_theory>  (5) 
wb97xd/def2tzvp

>  <lot_method>  (5) 
wb97xd

>  <lot_basis>  (5) 
def2tzvp

>  <spin_multiplicity>  (5) 
2.0

>  <optical_isomers>  (5) 
1.0

>  <modes>  (5) 
IdealGasTranslation(mass=(41.0391, 'amu')),         NonlinearRotor(             inertia = ([8.69051, 52.7378, 58.3092

>  <frequency_value>  (5) 
unknown

>  <frequency_units>  (5) 
unknown

>  <frequency_list>  (5) 
unknown

>  <arkane_path>  (5) 
/home/calvin/Dropbox/PersonalFolders/Calvin/ATLAS_Converged/rmg_rxn_346/output/Species/rmg_rxn_346_r1_sbr-CH-sbr=CC/arkane/output.py

>  <path_exists>  (5) 
True

>  <E0_value>  (5) 
-307594.3811372411

>  <E0_units>  (5) 
kJ/mol

>  <thermo_class>  (5) 
NASA

>  <Cp0_value>  (5) 
33.257888

>  <Cp0_units>  (5) 
J/(mol*K)

>  <CpInf_value>  (5) 
182.918384

>  <CpInf_units>  (5) 
J/(mol*K)

>  <Tmin_value>  (5) 
10.0

>  <Tmin_units>  (5) 
K

>  <Tmax_value>  (5) 
3000.0

>  <Tmax_units>  (5) 
K

>  <polynomials>  (5) 
[{"name": "polynomial1", "class": "NASAPolynomial", "Tmin_value": 10.0, "Tmin_units": "K", "Tmax_value": 481.0435142823728, "Tmax_units": "K", "coeffs": [3.9727991601474284, 0.0015660485202043182, 6.167214282882254e-05, -1.0205402306399866e-07, 5.477574200596452e-11, -36995057.25584206, 7.404471489365289]}, {"name": "polynomial2", "class": "NASAPolynomial", "Tmin_value": 481.0435142823728, "Tmin_units": "K", "Tmax_value": 3000.0, "Tmax_units": "K", "coeffs": [1.0134350199665534, 0.02617217573414392, -1.5049764067719394e-05, 4.265493157120896e-09, -4.749676510594084e-13, -36994772.51908542, 19.516247038101728]}]

>  <H298_value>  (5) 
-73513.59504496788

>  <H298_units>  (5) 
kcal/mol

>  <S298_value>  (5) 
64.48620704915899

>  <S298_units>  (5) 
cal/(mol*K)

>  <Cp_T_value_list>  (5) 
[15.264391809977674, 18.555665777647867, 21.542477084400776, 24.16168097728455, 28.43436620324965, 31.648990357486973, 36.56707396910277, 39.11456920322472, 40.43549191091649]

>  <Cp_T_units>  (5) 
cal/(mol*K)

>  <T_list>  (5) 
[300.0, 400.0, 500.0, 600.0, 800.0, 1000.0, 1500.0, 2000.0, 2400.0]

>  <T_units>  (5) 
K

>  <yaml_path>  (5) 
/home/calvin/Dropbox/PersonalFolders/Calvin/ATLAS_Converged/rmg_rxn_346/output/Species/rmg_rxn_346_r1_sbr-CH-sbr=CC/rmg_rxn_346_r1_sbr-CH-sbr=CC.yml

>  <frequencies_cm1>  (5) 
[191.17000432348, 405.3512764542799, 612.1368053954399, 794.34539387632, 826.7575645867199, 930.6344515223599, 1057.6324780304399, 1106.7863589509998, 1263.44976204148, 1394.05982282788, 1469.8576067900399, 1470.75718186696, 1689.7865456336797, 3013.59024165264, 3022.2975790384, 3075.38624254732, 3112.38555945148, 3222.5114030283203]

>  <ZPE_kJmol>  (5) 
171.41831607459883

>  <E_elec_kJmol>  (5) 
-307765.7994533157

>  <E0_minus_Eelec_plus_ZPE_kJmol>  (5) 
0.0

>  <rxn>  (5) 
rmg_rxn_346

>  <species_type>  (5) 
r0

>  <species_folder>  (5) 
rmg_rxn_346_r1_sbr-CH-sbr=CC

>  <frequencies_cm1_list>  (5) 
[191.17000432348, 405.3512764542799, 612.1368053954399, 794.34539387632, 826.7575645867199, 930.6344515223599, 1057.6324780304399, 1106.7863589509998, 1263.44976204148, 1394.05982282788, 1469.8576067900399, 1470.75718186696, 1689.7865456336797, 3013.59024165264, 3022.2975790384, 3075.38624254732, 3112.38555945148, 3222.5114030283203]

>  <E0_kJmol>  (5) 
-307594

>  <H298_kJmol>  (5) 
-307581

$$$$
