
     RDKit          3D

  9  8  0  0  0  0  0  0  0  0999 V2000
    0.5424   -0.1874   -1.3101 O   0  0  0  0  0  0  0  0  0  1  0  0
   -0.4906    0.2756   -0.6143 N   0  0  0  0  0  0  0  0  0  2  0  0
   -0.5526    0.1743    0.7390 C   0  0  0  0  0  0  0  0  0  3  0  0
    0.4024   -0.3141    1.5420 C   0  0  0  0  0  0  0  0  0  4  0  0
    1.0797    0.5790   -1.5232 H   0  0  0  0  0  0  0  0  0  5  0  0
   -1.3059    0.5239   -1.1495 H   0  0  0  0  0  0  0  0  0  6  0  0
   -1.4788    0.5696    1.1416 H   0  0  0  0  0  0  0  0  0  7  0  0
    1.3107   -0.7451    1.1473 H   0  0  0  0  0  0  0  0  0  8  0  0
    0.2457   -0.3242    2.6097 H   0  0  0  0  0  0  0  0  0  9  0  0
  1  5  1  0
  1  2  1  0
  2  6  1  0
  2  3  1  0
  3  4  1  0
  3  7  1  0
  4  8  1  0
  4  9  1  0
M  END
>  <rmg_smiles>  (1) 
[CH2][CH]NO

>  <rmg_adjacency_list>  (1) 
1 O u0 p2 c0 {2,S} {9,S}
2 N u0 p1 c0 {1,S} {3,S} {6,S}
3 C u0 p0 c0 {2,S} {4,S} {5,S}
4 C u0 p0 c0 {3,S} {7,S} {8,S}
5 H u0 p0 c0 {3,S}
6 H u0 p0 c0 {2,S}
7 H u0 p0 c0 {4,S}
8 H u0 p0 c0 {4,S}
9 H u0 p0 c0 {1,S}


>  <multiplicity>  (1) 
1

>  <reaction>  (1) 
rmg_rxn_10693

>  <type>  (1) 
r1h

>  <role_mapnums>  (1) 
{"r1h_a": 1, "r1h_h": 5}

>  <role_mapidx>  (1) 
{"r1h_a": 0, "r1h_h": 4}

>  <ordered_mapped_smiles>  (1) 
[O:1]([N:2]([CH:3]([CH:4]([H:8])[H:9])[H:7])[H:6])[H:5]

>  <mol_properties>  (1) 
{"0": {"label": "donator", "atom_type": "O2s"}, "4": {"label": "d_hydrogen", "atom_type": "H0"}}

>  <level_of_theory>  (1) 
wb97xd/def2tzvp

>  <lot_method>  (1) 
wb97xd

>  <lot_basis>  (1) 
def2tzvp

>  <spin_multiplicity>  (1) 
1.0

>  <optical_isomers>  (1) 
2.0

>  <modes>  (1) 
IdealGasTranslation(mass=(59.0371, 'amu')),         NonlinearRotor(             inertia = ([26.8851, 80.2475, 104.734

>  <frequency_value>  (1) 
unknown

>  <frequency_units>  (1) 
unknown

>  <frequency_list>  (1) 
unknown

>  <arkane_path>  (1) 
/home/calvin/Dropbox/PersonalFolders/Calvin/ZEUS_Converged/rmg_rxn_10693/output/Species/rmg_rxn_10693_r1_ONC=C/arkane/output.py

>  <path_exists>  (1) 
True

>  <E0_value>  (1) 
-548876.2492897667

>  <E0_units>  (1) 
kJ/mol

>  <thermo_class>  (1) 
NASA

>  <Cp0_value>  (1) 
33.257888

>  <Cp0_units>  (1) 
J/(mol*K)

>  <CpInf_value>  (1) 
207.8618

>  <CpInf_units>  (1) 
J/(mol*K)

>  <Tmin_value>  (1) 
10.0

>  <Tmin_units>  (1) 
K

>  <Tmax_value>  (1) 
3000.0

>  <Tmax_units>  (1) 
K

>  <polynomials>  (1) 
[{"name": "polynomial1", "class": "NASAPolynomial", "Tmin_value": 10.0, "Tmin_units": "K", "Tmax_value": 534.513822788252, "Tmax_units": "K", "coeffs": [3.9517303912922594, 0.0028840980202371903, 8.773836020256086e-05, -1.6272179485764668e-07, 9.457369073564097e-11, -66014562.421124935, 8.823481836648403]}, {"name": "polynomial2", "class": "NASAPolynomial", "Tmin_value": 534.513822788252, "Tmin_units": "K", "Tmax_value": 3000.0, "Tmax_units": "K", "coeffs": [1.5236658327763646, 0.031063031084434593, -1.9427063870386636e-05, 5.970608421724234e-09, -7.109704180363607e-13, -66014445.83063852, 17.679113003132944]}]

>  <H298_value>  (1) 
-131180.9841278997

>  <H298_units>  (1) 
kcal/mol

>  <S298_value>  (1) 
69.24050182976455

>  <S298_units>  (1) 
cal/(mol*K)

>  <Cp_T_value_list>  (1) 
[18.0556999419756, 22.158145070532438, 25.632978177679774, 28.54672045926108, 33.19928101171102, 36.6028951744489, 41.64953203785474, 44.37593717322883, 45.95305980032292]

>  <Cp_T_units>  (1) 
cal/(mol*K)

>  <T_list>  (1) 
[300.0, 400.0, 500.0, 600.0, 800.0, 1000.0, 1500.0, 2000.0, 2400.0]

>  <T_units>  (1) 
K

>  <yaml_path>  (1) 
/home/calvin/Dropbox/PersonalFolders/Calvin/ZEUS_Converged/rmg_rxn_10693/output/Species/rmg_rxn_10693_r1_ONC=C/rmg_rxn_10693_r1_ONC=C.yml

>  <frequencies_cm1>  (1) 
[258.13684516411996, 308.68472410463994, 322.41182775932, 612.44581973484, 680.82039256608, 774.1770579914801, 870.0813749705999, 989.50511667072, 1011.5412725625999, 1022.6520548103599, 1191.51809081448, 1319.1959488692398, 1382.58509035816, 1435.43340938088, 1488.7143484787598, 1720.13862074808, 3143.3968651566, 3158.0922137413995, 3245.6737445126796, 3519.9823401054, 3819.6438454995596]

>  <ZPE_kJmol>  (1) 
193.04641492915528

>  <E_elec_kJmol>  (1) 
-549069.2957046959

>  <E0_minus_Eelec_plus_ZPE_kJmol>  (1) 
0.0

>  <rxn>  (1) 
rmg_rxn_10693

>  <species_type>  (1) 
r0

>  <species_folder>  (1) 
rmg_rxn_10693_r1_ONC=C

>  <frequencies_cm1_list>  (1) 
[258.13684516411996, 308.68472410463994, 322.41182775932, 612.44581973484, 680.82039256608, 774.1770579914801, 870.0813749705999, 989.50511667072, 1011.5412725625999, 1022.6520548103599, 1191.51809081448, 1319.1959488692398, 1382.58509035816, 1435.43340938088, 1488.7143484787598, 1720.13862074808, 3143.3968651566, 3158.0922137413995, 3245.6737445126796, 3519.9823401054, 3819.6438454995596]

>  <E0_kJmol>  (1) 
-548876

>  <H298_kJmol>  (1) 
-548861

$$$$

     RDKit          3D

 17 16  0  0  0  0  0  0  0  0999 V2000
   -2.2916   -0.1430   -1.2556 H   0  0  0  0  0  0  0  0  0  1  0  0
    2.4568   -0.9834    1.1249 C   0  0  0  0  0  0  0  0  0  2  0  0
    1.1526   -1.5841    0.7117 C   0  0  0  0  0  0  0  0  0  3  0  0
    0.2025   -0.9776    0.0194 C   0  0  0  0  0  0  0  0  0  4  0  0
    0.3731    0.3080   -0.4547 O   0  0  0  0  0  0  0  0  0  5  0  0
   -0.8376    1.0435   -0.5397 N   0  0  0  0  0  0  0  0  0  6  0  0
   -1.6976    0.6506   -1.4794 N   0  0  0  0  0  0  0  0  0  7  0  0
   -1.3900    1.3412    0.7587 C   0  0  0  0  0  0  0  0  0  8  0  0
    2.6261   -1.1304    2.1939 H   0  0  0  0  0  0  0  0  0  9  0  0
    2.4903    0.0835    0.9100 H   0  0  0  0  0  0  0  0  0 10  0  0
    3.2890   -1.4605    0.6008 H   0  0  0  0  0  0  0  0  0 11  0  0
    0.9630   -2.6184    0.9749 H   0  0  0  0  0  0  0  0  0 12  0  0
   -0.7292   -1.4565   -0.2610 H   0  0  0  0  0  0  0  0  0 13  0  0
   -1.1613    0.4304   -2.3140 H   0  0  0  0  0  0  0  0  0 14  0  0
   -1.7941    0.4453    1.2535 H   0  0  0  0  0  0  0  0  0 15  0  0
   -2.1950    2.0581    0.6149 H   0  0  0  0  0  0  0  0  0 16  0  0
   -0.6043    1.7748    1.3728 H   0  0  0  0  0  0  0  0  0 17  0  0
  1  7  1  0
  2 10  1  0
  2  9  1  0
  2 11  1  0
  2  3  1  0
  3  4  1  0
  3 12  1  0
  4 13  1  0
  4  5  1  0
  5  6  1  0
  6  8  1  0
  6  7  1  0
  7 14  1  0
  8 17  1  0
  8 16  1  0
  8 15  1  0
M  END
>  <rmg_smiles>  (2) 
C[CH][CH]ON(N)C

>  <rmg_adjacency_list>  (2) 
1  O u0 p2 c0 {2,S} {7,S}
2  N u0 p1 c0 {1,S} {3,S} {4,S}
3  N u0 p1 c0 {2,S} {16,S} {17,S}
4  C u0 p0 c0 {2,S} {11,S} {12,S} {13,S}
5  C u0 p0 c0 {6,S} {8,S} {9,S} {10,S}
6  C u0 p0 c0 {5,S} {7,S} {14,S}
7  C u0 p0 c0 {1,S} {6,S} {15,S}
8  H u0 p0 c0 {5,S}
9  H u0 p0 c0 {5,S}
10 H u0 p0 c0 {5,S}
11 H u0 p0 c0 {4,S}
12 H u0 p0 c0 {4,S}
13 H u0 p0 c0 {4,S}
14 H u0 p0 c0 {6,S}
15 H u0 p0 c0 {7,S}
16 H u0 p0 c0 {3,S}
17 H u0 p0 c0 {3,S}


>  <multiplicity>  (2) 
1

>  <reaction>  (2) 
rmg_rxn_10693

>  <type>  (2) 
r2h

>  <role_mapnums>  (2) 
{"r2h_a": 7, "r2h_h": 1}

>  <role_mapidx>  (2) 
{"r2h_a": 6, "r2h_h": 0}

>  <ordered_mapped_smiles>  (2) 
[H:1][N:7]([N:6]([O:5][CH:4]([CH:3]([C:2]([H:9])([H:10])[H:11])[H:12])[H:13])[C:8]([H:15])([H:16])[H:17])[H:14]

>  <mol_properties>  (2) 
{"0": {"label": "a_hydrogen", "atom_type": "H0"}, "6": {"label": "acceptor", "atom_type": "N3s"}}

>  <level_of_theory>  (2) 
wb97xd/def2tzvp

>  <lot_method>  (2) 
wb97xd

>  <lot_basis>  (2) 
def2tzvp

>  <spin_multiplicity>  (2) 
1.0

>  <optical_isomers>  (2) 
2.0

>  <modes>  (2) 
IdealGasTranslation(mass=(102.079, 'amu')),         NonlinearRotor(             inertia = ([85.6795, 376.18, 388.876

>  <frequency_value>  (2) 
unknown

>  <frequency_units>  (2) 
unknown

>  <frequency_list>  (2) 
unknown

>  <arkane_path>  (2) 
/home/calvin/Dropbox/PersonalFolders/Calvin/ZEUS_Converged/rmg_rxn_10693/output/Species/rmg_rxn_10693_p2_CC=CONrbr-N-rbrC/arkane/output.py

>  <path_exists>  (2) 
True

>  <E0_value>  (2) 
-900405.0494296006

>  <E0_units>  (2) 
kJ/mol

>  <thermo_class>  (2) 
NASA

>  <Cp0_value>  (2) 
33.257888

>  <Cp0_units>  (2) 
J/(mol*K)

>  <CpInf_value>  (2) 
407.409128

>  <CpInf_units>  (2) 
J/(mol*K)

>  <Tmin_value>  (2) 
10.0

>  <Tmin_units>  (2) 
K

>  <Tmax_value>  (2) 
3000.0

>  <Tmax_units>  (2) 
K

>  <polynomials>  (2) 
[{"name": "polynomial1", "class": "NASAPolynomial", "Tmin_value": 10.0, "Tmin_units": "K", "Tmax_value": 1108.736796573486, "Tmax_units": "K", "coeffs": [3.593482067657345, 0.04527343613148581, -7.853115807860651e-07, -2.043658609457127e-08, 8.18045447415304e-12, -108293714.18687978, 12.85162704751556]}, {"name": "polynomial2", "class": "NASAPolynomial", "Tmin_value": 1108.736796573486, "Tmin_units": "K", "Tmax_value": 3000.0, "Tmax_units": "K", "coeffs": [7.506038002578287, 0.046589931565087575, -2.3444009976697085e-05, 5.741145862751885e-09, -5.527118171710488e-13, -108295530.30298632, -10.705520626468415]}]

>  <H298_value>  (2) 
-215195.9362782153

>  <H298_units>  (2) 
kcal/mol

>  <S298_value>  (2) 
92.63660749241524

>  <S298_units>  (2) 
cal/(mol*K)

>  <Cp_T_value_list>  (2) 
[33.0259983327988, 40.69537554931736, 47.67423133324528, 53.89446290908325, 63.981717362233816, 71.19261681574156, 81.91300293988421, 87.42841994031997, 90.0449470406118]

>  <Cp_T_units>  (2) 
cal/(mol*K)

>  <T_list>  (2) 
[300.0, 400.0, 500.0, 600.0, 800.0, 1000.0, 1500.0, 2000.0, 2400.0]

>  <T_units>  (2) 
K

>  <yaml_path>  (2) 
/home/calvin/Dropbox/PersonalFolders/Calvin/ZEUS_Converged/rmg_rxn_10693/output/Species/rmg_rxn_10693_p2_CC=CONrbr-N-rbrC/rmg_rxn_10693_p2_CC=CONrbr-N-rbrC.yml

>  <frequencies_cm1>  (2) 
[42.90492427935999, 70.94969232623998, 121.85465450339998, 166.71666959895998, 253.87244728039994, 301.92074356444, 373.40606074563993, 419.64833989052, 445.81842094504, 504.72342102, 549.00174236336, 631.06908392268, 758.13578028396, 848.92419319968, 869.8822323963199, 938.1057315505199, 966.4663809221199, 985.6939398181199, 1045.86246519196, 1060.8324931895597, 1129.8319616849199, 1145.91444130436, 1177.50257377636, 1255.0720399510801, 1275.68672988172, 1357.8776771768, 1378.40309629828, 1417.9431977708398, 1431.4368239246398, 1469.8713407606797, 1474.3760831306, 1478.2284618951198, 1482.71260330908, 1665.8688357641197, 1738.5215404497199, 2975.03898606616, 3009.26404090104, 3062.7647235291597, 3097.66960991072, 3105.09968802696, 3145.0998775159596, 3146.5076095065597, 3168.9763854735997, 3405.2006804816, 3560.0443324622797]

>  <ZPE_kJmol>  (2) 
382.271003727177

>  <E_elec_kJmol>  (2) 
-900787.3204333278

>  <E0_minus_Eelec_plus_ZPE_kJmol>  (2) 
0.0

>  <rxn>  (2) 
rmg_rxn_10693

>  <species_type>  (2) 
p1

>  <species_folder>  (2) 
rmg_rxn_10693_p2_CC=CONrbr-N-rbrC

>  <frequencies_cm1_list>  (2) 
[42.90492427935999, 70.94969232623998, 121.85465450339998, 166.71666959895998, 253.87244728039994, 301.92074356444, 373.40606074563993, 419.64833989052, 445.81842094504, 504.72342102, 549.00174236336, 631.06908392268, 758.13578028396, 848.92419319968, 869.8822323963199, 938.1057315505199, 966.4663809221199, 985.6939398181199, 1045.86246519196, 1060.8324931895597, 1129.8319616849199, 1145.91444130436, 1177.50257377636, 1255.0720399510801, 1275.68672988172, 1357.8776771768, 1378.40309629828, 1417.9431977708398, 1431.4368239246398, 1469.8713407606797, 1474.3760831306, 1478.2284618951198, 1482.71260330908, 1665.8688357641197, 1738.5215404497199, 2975.03898606616, 3009.26404090104, 3062.7647235291597, 3097.66960991072, 3105.09968802696, 3145.0998775159596, 3146.5076095065597, 3168.9763854735997, 3405.2006804816, 3560.0443324622797]

>  <E0_kJmol>  (2) 
-900405

>  <H298_kJmol>  (2) 
-900380

$$$$

     RDKit          3D

 25 23  0  0  0  0  0  0  0  0999 V2000
   -1.7629   -0.8291   -1.2044 O   0  0  0  0  0  0  0  0  0  1  0  0
   -2.7959   -0.3661   -0.5085 N   0  0  0  0  0  0  0  0  0  2  0  0
   -2.8580   -0.4674    0.8447 C   0  0  0  0  0  0  0  0  0  3  0  0
   -1.9030   -0.9557    1.6478 C   0  0  0  0  0  0  0  0  0  4  0  0
   -1.0803    0.1447   -1.4751 H   0  0  0  0  0  0  0  0  0  5  0  0
   -3.6112   -0.1178   -1.0437 H   0  0  0  0  0  0  0  0  0  6  0  0
   -3.7841   -0.0720    1.2474 H   0  0  0  0  0  0  0  0  0  7  0  0
   -0.9946   -1.3867    1.2530 H   0  0  0  0  0  0  0  0  0  8  0  0
   -2.0596   -0.9658    2.7155 H   0  0  0  0  0  0  0  0  0  9  0  0
    3.7939   -0.5276    0.8580 C   0  0  0  0  0  0  0  0  0 10  0  0
    2.4897   -1.1283    0.4448 C   0  0  0  0  0  0  0  0  0 11  0  0
    1.5395   -0.5219   -0.2475 C   0  0  0  0  0  0  0  0  0 12  0  0
    1.7101    0.7638   -0.7216 O   0  0  0  0  0  0  0  0  0 13  0  0
    0.4995    1.4993   -0.8065 N   0  0  0  0  0  0  0  0  0 14  0  0
   -0.3605    1.1063   -1.7463 N   0  0  0  0  0  2  0  0  0 15  0  0
   -0.0529    1.7970    0.4918 C   0  0  0  0  0  0  0  0  0 16  0  0
    3.9631   -0.6746    1.9270 H   0  0  0  0  0  0  0  0  0 17  0  0
    3.8274    0.5393    0.6431 H   0  0  0  0  0  0  0  0  0 18  0  0
    4.6261   -1.0048    0.3339 H   0  0  0  0  0  0  0  0  0 19  0  0
    2.3001   -2.1626    0.7080 H   0  0  0  0  0  0  0  0  0 20  0  0
    0.6079   -1.0007   -0.5279 H   0  0  0  0  0  0  0  0  0 21  0  0
    0.1758    0.8862   -2.5809 H   0  0  0  0  0  0  0  0  0 22  0  0
   -0.4570    0.9010    0.9866 H   0  0  0  0  0  0  0  0  0 23  0  0
   -0.8579    2.5139    0.3480 H   0  0  0  0  0  0  0  0  0 24  0  0
    0.7328    2.2306    1.1060 H   0  0  0  0  0  0  0  0  0 25  0  0
  1  2  1  0
  1  5  1  0
  2  6  1  0
  2  3  1  0
  3  4  1  0
  3  7  1  0
  4  9  1  0
  4  8  1  0
 10 18  1  0
 10 11  1  0
 10 19  1  0
 10 17  1  0
 11 12  1  0
 11 20  1  0
 12 13  1  0
 12 21  1  0
 13 14  1  0
 14 15  1  0
 14 16  1  0
 15 22  1  0
 16 23  1  0
 16 24  1  0
 16 25  1  0
M  RAD  1  15   2
M  END
>  <rmg_smiles>  (3) 
C[CH][CH]ON([NH])C.[CH2][CH]NO

>  <rmg_adjacency_list>  (3) 
multiplicity 2
1  O u0 p2 c0 {3,S} {10,S}
2  O u0 p2 c0 {4,S} {24,S}
3  N u0 p1 c0 {1,S} {5,S} {7,S}
4  N u0 p1 c0 {2,S} {9,S} {20,S}
5  N u1 p1 c0 {3,S} {25,S}
6  C u0 p0 c0 {8,S} {12,S} {13,S} {14,S}
7  C u0 p0 c0 {3,S} {15,S} {16,S} {17,S}
8  C u0 p0 c0 {6,S} {10,S} {18,S}
9  C u0 p0 c0 {4,S} {11,S} {19,S}
10 C u0 p0 c0 {1,S} {8,S} {21,S}
11 C u0 p0 c0 {9,S} {22,S} {23,S}
12 H u0 p0 c0 {6,S}
13 H u0 p0 c0 {6,S}
14 H u0 p0 c0 {6,S}
15 H u0 p0 c0 {7,S}
16 H u0 p0 c0 {7,S}
17 H u0 p0 c0 {7,S}
18 H u0 p0 c0 {8,S}
19 H u0 p0 c0 {9,S}
20 H u0 p0 c0 {4,S}
21 H u0 p0 c0 {10,S}
22 H u0 p0 c0 {11,S}
23 H u0 p0 c0 {11,S}
24 H u0 p0 c0 {2,S}
25 H u0 p0 c0 {5,S}


>  <multiplicity>  (3) 
2

>  <reaction>  (3) 
rmg_rxn_10693

>  <type>  (3) 
ts

>  <role_mapnums>  (3) 
{"*2": 5, "*1": 1, "*3": 15, "*0": 2, "*4": 14}

>  <role_mapidx>  (3) 
{"*2": 4, "*1": 0, "*3": 14, "*0": 1, "*4": 13}

>  <ordered_mapped_smiles>  (3) 
[O:1]([N:2]([CH:3]([CH:4]([H:8])[H:9])[H:7])[H:6])[H:5].[C:10]([CH:11]([CH:12]([O:13][N:14]([N:15][H:22])[C:16]([H:23])([H:24])[H:25])[H:21])[H:20])([H:17])([H:18])[H:19]

>  <mol_properties>  (3) 
{"0": {"label": "*1", "atom_type": "O2s"}, "1": {"label": "*0", "atom_type": "N3s"}, "4": {"label": "*2", "atom_type": "H0"}, "13": {"label": "*4", "atom_type": "N3s"}, "14": {"label": "*3", "atom_type": "N3s"}}

>  <level_of_theory>  (3) 
wb97xd/def2tzvp

>  <lot_method>  (3) 
wb97xd

>  <lot_basis>  (3) 
def2tzvp

>  <spin_multiplicity>  (3) 
2.0

>  <optical_isomers>  (3) 
2.0

>  <modes>  (3) 
IdealGasTranslation(mass=(160.109, 'amu')),         NonlinearRotor(             inertia = ([334.537, 828.939, 953.06

>  <frequency_value>  (3) 
-2025.1

>  <frequency_units>  (3) 
cm^-1

>  <frequency_list>  (3) 
unknown

>  <arkane_path>  (3) 
/home/calvin/Dropbox/PersonalFolders/Calvin/ZEUS_Converged/rmg_rxn_10693/output/rxns/TS0/arkane/output.py

>  <path_exists>  (3) 
True

>  <E0_value>  (3) 
-1447610.0

>  <E0_units>  (3) 
kJ/mol

>  <thermo_class>  (3) 
unknown

>  <Cp0_value>  (3) 
unknown

>  <Cp0_units>  (3) 
unknown

>  <CpInf_value>  (3) 
unknown

>  <CpInf_units>  (3) 
unknown

>  <Tmin_value>  (3) 
unknown

>  <Tmin_units>  (3) 
unknown

>  <Tmax_value>  (3) 
unknown

>  <Tmax_units>  (3) 
unknown

>  <polynomials>  (3) 
unknown

>  <H298_value>  (3) 
unknown

>  <H298_units>  (3) 
unknown

>  <S298_value>  (3) 
unknown

>  <S298_units>  (3) 
unknown

>  <Cp_T_value_list>  (3) 
unknown

>  <Cp_T_units>  (3) 
unknown

>  <T_list>  (3) 
unknown

>  <T_units>  (3) 
unknown

>  <yaml_path>  (3) 
unknown

>  <frequencies_cm1>  (3) 
unknown

>  <ZPE_kJmol>  (3) 
unknown

>  <E_elec_kJmol>  (3) 
unknown

>  <E0_minus_Eelec_plus_ZPE_kJmol>  (3) 
unknown

>  <rxn>  (3) 
unknown

>  <species_type>  (3) 
unknown

>  <species_folder>  (3) 
unknown

>  <frequencies_cm1_list>  (3) 
[]

>  <ts_imag_freq_cm1>  (3) 
-2049.6976

>  <ts_freq_out_path>  (3) 
/home/calvin/Dropbox/PersonalFolders/Calvin/ZEUS_Converged/rmg_rxn_10693/output/rxns/TS0/geometry/freq.out

>  <E0_kJmol>  (3) 
-1.44761e+06

>  <H298_kJmol>  (3) 
unknown

$$$$

     RDKit          3D

  8  7  0  0  0  0  0  0  0  0999 V2000
   -1.4471   -1.2797    0.1311 O   0  0  0  0  0  1  0  0  0  1  0  0
   -1.1987   -0.0520    0.0080 N   0  0  0  0  0  0  0  0  0  2  0  0
    0.0713    0.4867   -0.0487 C   0  0  0  0  0  0  0  0  0  3  0  0
    1.1907   -0.2385    0.0210 C   0  0  0  0  0  0  0  0  0  4  0  0
   -1.9901    0.5828   -0.0534 H   0  0  0  0  0  0  0  0  0  5  0  0
    0.0721    1.5643   -0.1562 H   0  0  0  0  0  0  0  0  0  6  0  0
    2.1522    0.2496   -0.0300 H   0  0  0  0  0  0  0  0  0  7  0  0
    1.1496   -1.3131    0.1283 H   0  0  0  0  0  0  0  0  0  8  0  0
  1  2  1  0
  2  3  1  0
  2  5  1  0
  3  4  1  0
  3  6  1  0
  4  8  1  0
  4  7  1  0
M  RAD  1   1   2
M  END
>  <rmg_smiles>  (4) 
[CH2][CH]N[O]

>  <rmg_adjacency_list>  (4) 
multiplicity 2
1 O u1 p2 c0 {2,S}
2 N u0 p1 c0 {1,S} {3,S} {6,S}
3 C u0 p0 c0 {2,S} {4,S} {5,S}
4 C u0 p0 c0 {3,S} {7,S} {8,S}
5 H u0 p0 c0 {3,S}
6 H u0 p0 c0 {2,S}
7 H u0 p0 c0 {4,S}
8 H u0 p0 c0 {4,S}


>  <multiplicity>  (4) 
2

>  <reaction>  (4) 
rmg_rxn_10693

>  <type>  (4) 
r1

>  <role_mapnums>  (4) 
{}

>  <role_mapidx>  (4) 
{}

>  <ordered_mapped_smiles>  (4) 
[O:1][N:2]([CH:3]([CH:4]([H:7])[H:8])[H:6])[H:5]

>  <level_of_theory>  (4) 
wb97xd/def2tzvp

>  <lot_method>  (4) 
wb97xd

>  <lot_basis>  (4) 
def2tzvp

>  <spin_multiplicity>  (4) 
2.0

>  <optical_isomers>  (4) 
1.0

>  <modes>  (4) 
IdealGasTranslation(mass=(58.0293, 'amu')),         NonlinearRotor(             inertia = ([22.4648, 78.3998, 100.865

>  <frequency_value>  (4) 
unknown

>  <frequency_units>  (4) 
unknown

>  <frequency_list>  (4) 
unknown

>  <arkane_path>  (4) 
/home/calvin/Dropbox/PersonalFolders/Calvin/ZEUS_Converged/rmg_rxn_10693/output/Species/rmg_rxn_10693_p1_sbr-O--sbrsbr-NHp-sbr=Csbr-CH2-sbr/arkane/output.py

>  <path_exists>  (4) 
True

>  <E0_value>  (4) 
-547281.8287442868

>  <E0_units>  (4) 
kJ/mol

>  <thermo_class>  (4) 
NASA

>  <Cp0_value>  (4) 
33.257888

>  <Cp0_units>  (4) 
J/(mol*K)

>  <CpInf_value>  (4) 
182.918384

>  <CpInf_units>  (4) 
J/(mol*K)

>  <Tmin_value>  (4) 
10.0

>  <Tmin_units>  (4) 
K

>  <Tmax_value>  (4) 
3000.0

>  <Tmax_units>  (4) 
K

>  <polynomials>  (4) 
[{"name": "polynomial1", "class": "NASAPolynomial", "Tmin_value": 10.0, "Tmin_units": "K", "Tmax_value": 521.3322721890025, "Tmax_units": "K", "coeffs": [3.9666336542732057, 0.002001107071607853, 7.550545535684853e-05, -1.3653426098977972e-07, 7.822700888354665e-11, -65822798.63737235, 8.595253720235199]}, {"name": "polynomial2", "class": "NASAPolynomial", "Tmin_value": 521.3322721890025, "Tmin_units": "K", "Tmax_value": 3000.0, "Tmax_units": "K", "coeffs": [1.3066737633208694, 0.028487324593317837, -1.8187653108451886e-05, 5.638552965410097e-09, -6.73355458665998e-13, -65822603.87912654, 18.90334058471588]}]

>  <H298_value>  (4) 
-130800.10608256572

>  <H298_units>  (4) 
kcal/mol

>  <S298_value>  (4) 
67.74842318633347

>  <S298_units>  (4) 
cal/(mol*K)

>  <Cp_T_value_list>  (4) 
[16.513031204827843, 20.095363557009794, 23.18266451874876, 25.798260516391867, 29.942369422982047, 32.931077493469395, 37.2336829212966, 39.47674522561438, 40.7822646019237]

>  <Cp_T_units>  (4) 
cal/(mol*K)

>  <T_list>  (4) 
[300.0, 400.0, 500.0, 600.0, 800.0, 1000.0, 1500.0, 2000.0, 2400.0]

>  <T_units>  (4) 
K

>  <yaml_path>  (4) 
/home/calvin/Dropbox/PersonalFolders/Calvin/ZEUS_Converged/rmg_rxn_10693/output/Species/rmg_rxn_10693_p1_sbr-O--sbrsbr-NHp-sbr=Csbr-CH2-sbr/rmg_rxn_10693_p1_sbr-O--sbrsbr-NHp-sbr=Csbr-CH2-sbr.yml

>  <frequencies_cm1>  (4) 
[289.1687518252, 301.25464598839994, 529.5613069224399, 657.5481793166, 680.25043278452, 879.47541088836, 955.4311355128799, 978.86128942472, 1085.34076379664, 1288.4730565475597, 1417.6410504167598, 1444.15448073728, 1550.7506938596398, 1620.5467326521198, 3152.7634331330796, 3175.07426843776, 3254.0652005737197, 3446.8077445354797]

>  <ZPE_kJmol>  (4) 
159.74438862677977

>  <E_elec_kJmol>  (4) 
-547441.5731329136

>  <E0_minus_Eelec_plus_ZPE_kJmol>  (4) 
0.0

>  <rxn>  (4) 
rmg_rxn_10693

>  <species_type>  (4) 
p0

>  <species_folder>  (4) 
rmg_rxn_10693_p1_sbr-O--sbrsbr-NHp-sbr=Csbr-CH2-sbr

>  <frequencies_cm1_list>  (4) 
[289.1687518252, 301.25464598839994, 529.5613069224399, 657.5481793166, 680.25043278452, 879.47541088836, 955.4311355128799, 978.86128942472, 1085.34076379664, 1288.4730565475597, 1417.6410504167598, 1444.15448073728, 1550.7506938596398, 1620.5467326521198, 3152.7634331330796, 3175.07426843776, 3254.0652005737197, 3446.8077445354797]

>  <E0_kJmol>  (4) 
-547282

>  <H298_kJmol>  (4) 
-547268

$$$$

     RDKit          3D

 16 15  0  0  0  0  0  0  0  0999 V2000
   -2.7163    0.6711   -0.2082 C   0  0  0  0  0  0  0  0  0  1  0  0
   -2.0604   -0.6699   -0.1371 C   0  0  0  0  0  0  0  0  0  2  0  0
   -1.8776   -1.4967   -1.1546 C   0  0  0  0  0  0  0  0  0  3  0  0
   -2.2450   -1.1612   -2.4322 O   0  0  0  0  0  0  0  0  0  4  0  0
   -2.5108   -2.3329   -3.2086 N   0  0  0  0  0  0  0  0  0  5  0  0
   -2.0229   -2.3050   -4.4233 N   0  0  0  0  0  2  0  0  0  6  0  0
   -3.9082   -2.7128   -3.0828 C   0  0  0  0  0  0  0  0  0  7  0  0
   -3.4812    0.7676    0.5653 H   0  0  0  0  0  0  0  0  0  8  0  0
   -3.1809    0.8365   -1.1792 H   0  0  0  0  0  0  0  0  0  9  0  0
   -1.9897    1.4706   -0.0417 H   0  0  0  0  0  0  0  0  0 10  0  0
   -1.6717   -0.9974    0.8197 H   0  0  0  0  0  0  0  0  0 11  0  0
   -1.3990   -2.4648   -1.0638 H   0  0  0  0  0  0  0  0  0 12  0  0
   -1.1779   -1.7364   -4.3793 H   0  0  0  0  0  0  0  0  0 13  0  0
   -4.5563   -1.9305   -3.4853 H   0  0  0  0  0  0  0  0  0 14  0  0
   -4.1357   -2.8800   -2.0315 H   0  0  0  0  0  0  0  0  0 15  0  0
   -4.0457   -3.6333   -3.6440 H   0  0  0  0  0  0  0  0  0 16  0  0
  1 10  1  0
  1  8  1  0
  1  9  1  0
  1  2  1  0
  2 11  1  0
  2  3  1  0
  3  4  1  0
  3 12  1  0
  4  5  1  0
  5  6  1  0
  5  7  1  0
  6 13  1  0
  7 14  1  0
  7 15  1  0
  7 16  1  0
M  RAD  1   6   2
M  END
>  <rmg_smiles>  (5) 
C[CH][CH]ON([NH])C

>  <rmg_adjacency_list>  (5) 
multiplicity 2
1  O u0 p2 c0 {2,S} {7,S}
2  N u0 p1 c0 {1,S} {3,S} {5,S}
3  N u1 p1 c0 {2,S} {16,S}
4  C u0 p0 c0 {6,S} {8,S} {9,S} {10,S}
5  C u0 p0 c0 {2,S} {11,S} {12,S} {13,S}
6  C u0 p0 c0 {4,S} {7,S} {14,S}
7  C u0 p0 c0 {1,S} {6,S} {15,S}
8  H u0 p0 c0 {4,S}
9  H u0 p0 c0 {4,S}
10 H u0 p0 c0 {4,S}
11 H u0 p0 c0 {5,S}
12 H u0 p0 c0 {5,S}
13 H u0 p0 c0 {5,S}
14 H u0 p0 c0 {6,S}
15 H u0 p0 c0 {7,S}
16 H u0 p0 c0 {3,S}


>  <multiplicity>  (5) 
2

>  <reaction>  (5) 
rmg_rxn_10693

>  <type>  (5) 
r2

>  <role_mapnums>  (5) 
{}

>  <role_mapidx>  (5) 
{}

>  <ordered_mapped_smiles>  (5) 
[C:1]([CH:2]([CH:3]([O:4][N:5]([N:6][H:13])[C:7]([H:14])([H:15])[H:16])[H:12])[H:11])([H:8])([H:9])[H:10]

>  <level_of_theory>  (5) 
wb97xd/def2tzvp

>  <lot_method>  (5) 
wb97xd

>  <lot_basis>  (5) 
def2tzvp

>  <spin_multiplicity>  (5) 
2.0

>  <optical_isomers>  (5) 
2.0

>  <modes>  (5) 
IdealGasTranslation(mass=(101.071, 'amu')),         NonlinearRotor(             inertia = ([82.2482, 367.276, 386.349

>  <frequency_value>  (5) 
unknown

>  <frequency_units>  (5) 
unknown

>  <frequency_list>  (5) 
unknown

>  <arkane_path>  (5) 
/home/calvin/Dropbox/PersonalFolders/Calvin/ZEUS_Converged/rmg_rxn_10693/output/Species/rmg_rxn_10693_r2_CC=CONrbr-sbr-NH-sbr-rbrC/arkane/output.py

>  <path_exists>  (5) 
True

>  <E0_value>  (5) 
-898742.9185377804

>  <E0_units>  (5) 
kJ/mol

>  <thermo_class>  (5) 
NASA

>  <Cp0_value>  (5) 
33.257888

>  <Cp0_units>  (5) 
J/(mol*K)

>  <CpInf_value>  (5) 
382.465712

>  <CpInf_units>  (5) 
J/(mol*K)

>  <Tmin_value>  (5) 
10.0

>  <Tmin_units>  (5) 
K

>  <Tmax_value>  (5) 
3000.0

>  <Tmax_units>  (5) 
K

>  <polynomials>  (5) 
[{"name": "polynomial1", "class": "NASAPolynomial", "Tmin_value": 10.0, "Tmin_units": "K", "Tmax_value": 1230.351550791476, "Tmax_units": "K", "coeffs": [3.636448192617725, 0.046012269057782156, -1.0447598723861432e-05, -9.397618320350448e-09, 4.2997715161361366e-12, -108093806.20736969, 13.356245971953898]}, {"name": "polynomial2", "class": "NASAPolynomial", "Tmin_value": 1230.351550791476, "Tmin_units": "K", "Tmax_value": 3000.0, "Tmax_units": "K", "coeffs": [10.637798077256372, 0.03762876756034826, -1.7756617991574368e-05, 4.0613531266158274e-09, -3.6506325325576807e-13, -108096617.32351352, -26.295285854594052]}]

>  <H298_value>  (5) 
-214798.71695714595

>  <H298_units>  (5) 
kcal/mol

>  <S298_value>  (5) 
93.88909266705956

>  <S298_units>  (5) 
cal/(mol*K)

>  <Cp_T_value_list>  (5) 
[32.353584800793946, 39.50241933237663, 45.9535869024618, 51.687318427953755, 61.025931419689, 67.77024327047224, 77.47619958424356, 82.5061792663907, 84.85559276208323]

>  <Cp_T_units>  (5) 
cal/(mol*K)

>  <T_list>  (5) 
[300.0, 400.0, 500.0, 600.0, 800.0, 1000.0, 1500.0, 2000.0, 2400.0]

>  <T_units>  (5) 
K

>  <yaml_path>  (5) 
/home/calvin/Dropbox/PersonalFolders/Calvin/ZEUS_Converged/rmg_rxn_10693/output/Species/rmg_rxn_10693_r2_CC=CONrbr-sbr-NH-sbr-rbrC/rmg_rxn_10693_r2_CC=CONrbr-sbr-NH-sbr-rbrC.yml

>  <frequencies_cm1>  (5) 
[39.766711988119994, 75.63297631448, 123.26238649399998, 170.50724549560002, 210.75464645612, 275.49658405307997, 409.25172411604, 436.20464149704003, 468.50694044231994, 500.21867865008005, 576.8748357772399, 635.10687129084, 759.24136492048, 839.57822617916, 939.32118795216, 961.2680730348799, 1009.44684204, 1040.7534281138799, 1058.9372052412398, 1116.31086758984, 1136.6302771517198, 1158.60463017572, 1269.5201770643598, 1302.9417946168, 1381.1704913822398, 1418.63676328816, 1428.2162078095598, 1447.1828212633998, 1467.8867820031996, 1473.94346305544, 1477.12974424392, 1484.2920099326798, 1743.06061774624, 3013.6108426086, 3018.15678689044, 3068.4780553153996, 3106.953774063359, 3110.6619461361597, 3147.0088994349203, 3149.9479691518795, 3171.6476427630796, 3452.55541124832]

>  <ZPE_kJmol>  (5) 
347.3638170215182

>  <E_elec_kJmol>  (5) 
-899090.2823548019

>  <E0_minus_Eelec_plus_ZPE_kJmol>  (5) 
0.0

>  <rxn>  (5) 
rmg_rxn_10693

>  <species_type>  (5) 
r1

>  <species_folder>  (5) 
rmg_rxn_10693_r2_CC=CONrbr-sbr-NH-sbr-rbrC

>  <frequencies_cm1_list>  (5) 
[39.766711988119994, 75.63297631448, 123.26238649399998, 170.50724549560002, 210.75464645612, 275.49658405307997, 409.25172411604, 436.20464149704003, 468.50694044231994, 500.21867865008005, 576.8748357772399, 635.10687129084, 759.24136492048, 839.57822617916, 939.32118795216, 961.2680730348799, 1009.44684204, 1040.7534281138799, 1058.9372052412398, 1116.31086758984, 1136.6302771517198, 1158.60463017572, 1269.5201770643598, 1302.9417946168, 1381.1704913822398, 1418.63676328816, 1428.2162078095598, 1447.1828212633998, 1467.8867820031996, 1473.94346305544, 1477.12974424392, 1484.2920099326798, 1743.06061774624, 3013.6108426086, 3018.15678689044, 3068.4780553153996, 3106.953774063359, 3110.6619461361597, 3147.0088994349203, 3149.9479691518795, 3171.6476427630796, 3452.55541124832]

>  <E0_kJmol>  (5) 
-898743

>  <H298_kJmol>  (5) 
-898718

$$$$
