
     RDKit          3D

 10  9  0  0  0  0  0  0  0  0999 V2000
    0.0017    1.3059    1.3537 C   0  0  0  0  0  0  0  0  0  1  0  0
    0.0425    0.2725    0.6310 C   0  0  0  0  0  2  0  0  0  2  0  0
   -0.0419   -0.7958   -0.1485 C   0  0  0  0  0  0  0  0  0  3  0  0
    0.0451   -0.7585   -1.6397 C   0  0  0  0  0  0  0  0  0  4  0  0
   -0.9866    1.7135    1.4766 H   0  0  0  0  0  0  0  0  0  5  0  0
    0.6892    1.9306    1.8969 H   0  0  0  0  0  0  0  0  0  6  0  0
   -0.1703   -1.7628    0.3284 H   0  0  0  0  0  0  0  0  0  7  0  0
    0.8800   -1.3705   -1.9905 H   0  0  0  0  0  0  0  0  0  8  0  0
    0.1765    0.2578   -2.0063 H   0  0  0  0  0  0  0  0  0  9  0  0
   -0.8644   -1.1749   -2.0803 H   0  0  0  0  0  0  0  0  0 10  0  0
  1  5  1  0
  1  6  1  0
  1  2  1  0
  2  3  1  0
  3  4  1  0
  3  7  1  0
  4  8  1  0
  4  9  1  0
  4 10  1  0
M  RAD  1   2   3
M  END
>  <rmg_smiles>  (1) 
[CH2][C][CH]C

>  <rmg_adjacency_list>  (1) 
1  C u0 p0 c0 {2,S} {5,S} {6,S} {7,S}
2  C u0 p0 c0 {1,S} {4,S} {8,S}
3  C u0 p0 c0 {4,S} {9,S} {10,S}
4  C u0 p1 c0 {2,S} {3,S}
5  H u0 p0 c0 {1,S}
6  H u0 p0 c0 {1,S}
7  H u0 p0 c0 {1,S}
8  H u0 p0 c0 {2,S}
9  H u0 p0 c0 {3,S}
10 H u0 p0 c0 {3,S}


>  <multiplicity>  (1) 
1

>  <reaction>  (1) 
rmg_rxn_13993

>  <type>  (1) 
r1h

>  <role_mapnums>  (1) 
{"r1h_a": 1, "r1h_h": 5}

>  <role_mapidx>  (1) 
{"r1h_a": 0, "r1h_h": 4}

>  <ordered_mapped_smiles>  (1) 
[CH:1]([C:2][CH:3]([C:4]([H:8])([H:9])[H:10])[H:7])([H:5])[H:6]

>  <mol_properties>  (1) 
{"0": {"label": "donator", "atom_type": "Cs"}, "4": {"label": "d_hydrogen", "atom_type": "H0"}}

>  <level_of_theory>  (1) 
wb97xd/def2tzvp

>  <lot_method>  (1) 
wb97xd

>  <lot_basis>  (1) 
def2tzvp

>  <spin_multiplicity>  (1) 
1.0

>  <optical_isomers>  (1) 
1.0

>  <modes>  (1) 
IdealGasTranslation(mass=(54.047, 'amu')),         NonlinearRotor(             inertia = ([14.6121, 119.467, 127.49

>  <frequency_value>  (1) 
unknown

>  <frequency_units>  (1) 
unknown

>  <frequency_list>  (1) 
unknown

>  <arkane_path>  (1) 
/home/calvin/Dropbox/PersonalFolders/Calvin/ZEUS_Converged/rmg_rxn_13993/output/Species/rmg_rxn_13993_r2_C=C=CC/arkane/output.py

>  <path_exists>  (1) 
True

>  <E0_value>  (1) 
-409296.6502421279

>  <E0_units>  (1) 
kJ/mol

>  <thermo_class>  (1) 
NASA

>  <Cp0_value>  (1) 
33.257888

>  <Cp0_units>  (1) 
J/(mol*K)

>  <CpInf_value>  (1) 
232.805216

>  <CpInf_units>  (1) 
J/(mol*K)

>  <Tmin_value>  (1) 
10.0

>  <Tmin_units>  (1) 
K

>  <Tmax_value>  (1) 
3000.0

>  <Tmax_units>  (1) 
K

>  <polynomials>  (1) 
[{"name": "polynomial1", "class": "NASAPolynomial", "Tmin_value": 10.0, "Tmin_units": "K", "Tmax_value": 452.8802664009696, "Tmax_units": "K", "coeffs": [3.9021943352433452, 0.007937521032632688, 6.664442489196733e-05, -1.2131953588307993e-07, 6.938885885775227e-11, -49227014.555544384, 8.255511443201872]}, {"name": "polynomial2", "class": "NASAPolynomial", "Tmin_value": 452.8802664009696, "Tmin_units": "K", "Tmax_value": 3000.0, "Tmax_units": "K", "coeffs": [0.958037882717614, 0.033941191741253485, -1.948265019694705e-05, 5.463813645242153e-09, -5.979209978345261e-13, -49226747.88374059, 20.12723627389473]}]

>  <H298_value>  (1) 
-97820.47439749332

>  <H298_units>  (1) 
kcal/mol

>  <S298_value>  (1) 
69.30943774444917

>  <S298_units>  (1) 
cal/(mol*K)

>  <Cp_T_value_list>  (1) 
[19.013335795722274, 23.35407848830737, 27.231838984706652, 30.626214617830076, 36.15654523435027, 40.30546036176962, 46.594544625367064, 49.786664420046236, 51.450781523093035]

>  <Cp_T_units>  (1) 
cal/(mol*K)

>  <T_list>  (1) 
[300.0, 400.0, 500.0, 600.0, 800.0, 1000.0, 1500.0, 2000.0, 2400.0]

>  <T_units>  (1) 
K

>  <yaml_path>  (1) 
/home/calvin/Dropbox/PersonalFolders/Calvin/ZEUS_Converged/rmg_rxn_13993/output/Species/rmg_rxn_13993_r2_C=C=CC/rmg_rxn_13993_r2_C=C=CC.yml

>  <frequencies_cm1>  (1) 
[164.84884959192, 210.28769145436, 340.98015606459995, 540.2944049775999, 574.7186023867599, 878.6239047086799, 884.0282221555199, 895.09093550604, 1017.79709618912, 1055.91573170044, 1088.91159616304, 1146.5530709391198, 1353.77808694076, 1399.01778622892, 1463.354571692, 1470.3726306890399, 1494.8053644576, 2061.4346581373993, 3012.63573069316, 3072.0282867258397, 3106.42501619372, 3110.62074422424, 3124.134971334, 3189.66661224276]

>  <ZPE_kJmol>  (1) 
219.25357474583132

>  <E_elec_kJmol>  (1) 
-409515.9038168737

>  <E0_minus_Eelec_plus_ZPE_kJmol>  (1) 
0.0

>  <rxn>  (1) 
rmg_rxn_13993

>  <species_type>  (1) 
r1

>  <species_folder>  (1) 
rmg_rxn_13993_r2_C=C=CC

>  <frequencies_cm1_list>  (1) 
[164.84884959192, 210.28769145436, 340.98015606459995, 540.2944049775999, 574.7186023867599, 878.6239047086799, 884.0282221555199, 895.09093550604, 1017.79709618912, 1055.91573170044, 1088.91159616304, 1146.5530709391198, 1353.77808694076, 1399.01778622892, 1463.354571692, 1470.3726306890399, 1494.8053644576, 2061.4346581373993, 3012.63573069316, 3072.0282867258397, 3106.42501619372, 3110.62074422424, 3124.134971334, 3189.66661224276]

>  <E0_kJmol>  (1) 
-409297

>  <H298_kJmol>  (1) 
-409281

$$$$

     RDKit          3D

  3  2  0  0  0  0  0  0  0  0999 V2000
   -0.0382    0.0407   -0.0224 S   0  0  0  0  0  0  0  0  0  1  0  0
   -0.1238   -0.7292    1.0708 H   0  0  0  0  0  0  0  0  0  2  0  0
    1.1588   -0.4848   -0.3172 H   0  0  0  0  0  0  0  0  0  3  0  0
  1  2  1  0
  1  3  1  0
M  END
>  <rmg_smiles>  (2) 
S

>  <rmg_adjacency_list>  (2) 
1 S u0 p2 c0 {2,S} {3,S}
2 H u0 p0 c0 {1,S}
3 H u0 p0 c0 {1,S}


>  <multiplicity>  (2) 
1

>  <reaction>  (2) 
rmg_rxn_13993

>  <type>  (2) 
r2h

>  <role_mapnums>  (2) 
{"r2h_a": 1, "r2h_h": 3}

>  <role_mapidx>  (2) 
{"r2h_a": 0, "r2h_h": 2}

>  <ordered_mapped_smiles>  (2) 
[S:1]([H:2])[H:3]

>  <mol_properties>  (2) 
{"0": {"label": "acceptor", "atom_type": "S2s"}, "2": {"label": "a_hydrogen", "atom_type": "H0"}}

>  <level_of_theory>  (2) 
wb97xd/def2tzvp

>  <lot_method>  (2) 
wb97xd

>  <lot_basis>  (2) 
def2tzvp

>  <spin_multiplicity>  (2) 
1.0

>  <optical_isomers>  (2) 
1.0

>  <modes>  (2) 
IdealGasTranslation(mass=(33.9877, 'amu')),         NonlinearRotor(             inertia = ([1.61731, 1.89259, 3.50989

>  <frequency_value>  (2) 
unknown

>  <frequency_units>  (2) 
unknown

>  <frequency_list>  (2) 
unknown

>  <arkane_path>  (2) 
/home/calvin/Dropbox/PersonalFolders/Calvin/ZEUS_Converged/rmg_rxn_13993/output/Species/rmg_rxn_13993_p1_S/arkane/output.py

>  <path_exists>  (2) 
True

>  <E0_value>  (2) 
-1048594.6738581122

>  <E0_units>  (2) 
kJ/mol

>  <thermo_class>  (2) 
NASA

>  <Cp0_value>  (2) 
33.257888

>  <Cp0_units>  (2) 
J/(mol*K)

>  <CpInf_value>  (2) 
58.201304

>  <CpInf_units>  (2) 
J/(mol*K)

>  <Tmin_value>  (2) 
10.0

>  <Tmin_units>  (2) 
K

>  <Tmax_value>  (2) 
3000.0

>  <Tmax_units>  (2) 
K

>  <polynomials>  (2) 
[{"name": "polynomial1", "class": "NASAPolynomial", "Tmin_value": 10.0, "Tmin_units": "K", "Tmax_value": 722.9288268017812, "Tmax_units": "K", "coeffs": [4.009660938491563, -0.0005196234272596184, 2.881379838154061e-06, 4.728812963227016e-10, -1.5218500163024275e-12, -126116809.07141139, 1.89846189048489]}, {"name": "polynomial2", "class": "NASAPolynomial", "Tmin_value": 722.9288268017812, "Tmin_units": "K", "Tmax_value": 3000.0, "Tmax_units": "K", "coeffs": [2.902900171500713, 0.0034944328596204803, -1.0699468360948505e-06, 7.995727514571011e-11, 9.995626241801107e-15, -126116593.92023307, 7.260151892618135]}]

>  <H298_value>  (2) 
-250617.7633042529

>  <H298_units>  (2) 
kcal/mol

>  <S298_value>  (2) 
49.11606881488968

>  <S298_units>  (2) 
cal/(mol*K)

>  <Cp_T_value_list>  (2) 
[8.174451255176049, 8.453849465921135, 8.81164865168788, 9.220825402538221, 10.052706997365094, 10.765371470276838, 12.037757227652213, 12.741107161484456, 13.04323955805687]

>  <Cp_T_units>  (2) 
cal/(mol*K)

>  <T_list>  (2) 
[300.0, 400.0, 500.0, 600.0, 800.0, 1000.0, 1500.0, 2000.0, 2400.0]

>  <T_units>  (2) 
K

>  <yaml_path>  (2) 
/home/calvin/Dropbox/PersonalFolders/Calvin/ZEUS_Converged/rmg_rxn_13993/output/Species/rmg_rxn_13993_p1_S/rmg_rxn_13993_p1_S.yml

>  <frequencies_cm1>  (2) 
[1207.6967082284, 2718.3442078192397, 2731.4189478685203]

>  <ZPE_kJmol>  (2) 
39.82046440783764

>  <E_elec_kJmol>  (2) 
-1048634.49432252

>  <E0_minus_Eelec_plus_ZPE_kJmol>  (2) 
0.0

>  <rxn>  (2) 
rmg_rxn_13993

>  <species_type>  (2) 
p0

>  <species_folder>  (2) 
rmg_rxn_13993_p1_S

>  <frequencies_cm1_list>  (2) 
[1207.6967082284, 2718.3442078192397, 2731.4189478685203]

>  <E0_kJmol>  (2) 
-1.04859e+06

>  <H298_kJmol>  (2) 
-1.04858e+06

$$$$

     RDKit          3D

 12 10  0  0  0  0  0  0  0  0999 V2000
   -1.6878    1.4491    0.9857 S   0  0  0  0  0  1  0  0  0  1  0  0
   -1.7734    0.6791    2.0789 H   0  0  0  0  0  0  0  0  0  2  0  0
    0.9617    0.3199    0.4889 C   0  0  0  0  0  0  0  0  0  3  0  0
    1.0025   -0.7135   -0.2338 C   0  0  0  0  0  0  0  0  0  4  0  0
    0.9181   -1.7818   -1.0132 C   0  0  0  0  0  0  0  0  0  5  0  0
    1.0051   -1.7445   -2.5045 C   0  0  0  0  0  0  0  0  0  6  0  0
   -0.3154    0.8466    0.6477 H   0  0  0  0  0  0  0  0  0  7  0  0
    1.6492    0.9446    1.0322 H   0  0  0  0  0  0  0  0  0  8  0  0
    0.7897   -2.7488   -0.5364 H   0  0  0  0  0  0  0  0  0  9  0  0
    1.8400   -2.3566   -2.8553 H   0  0  0  0  0  0  0  0  0 10  0  0
    1.1364   -0.7282   -2.8710 H   0  0  0  0  0  0  0  0  0 11  0  0
    0.0955   -2.1610   -2.9451 H   0  0  0  0  0  0  0  0  0 12  0  0
  1  2  1  0
  3  4  1  0
  3  7  1  0
  3  8  1  0
  4  5  1  0
  5  6  1  0
  5  9  1  0
  6 11  1  0
  6 12  1  0
  6 10  1  0
M  RAD  1   1   2
M  END
>  <rmg_smiles>  (3) 
[CH2][C][CH]C.[SH]

>  <rmg_adjacency_list>  (3) 
multiplicity 2
1  S u1 p2 c0 {12,S}
2  C u0 p0 c0 {3,S} {6,S} {7,S} {8,S}
3  C u0 p0 c0 {2,S} {5,S} {9,S}
4  C u0 p0 c0 {5,S} {10,S} {11,S}
5  C u0 p1 c0 {3,S} {4,S}
6  H u0 p0 c0 {2,S}
7  H u0 p0 c0 {2,S}
8  H u0 p0 c0 {2,S}
9  H u0 p0 c0 {3,S}
10 H u0 p0 c0 {4,S}
11 H u0 p0 c0 {4,S}
12 H u0 p0 c0 {1,S}


>  <multiplicity>  (3) 
2

>  <reaction>  (3) 
rmg_rxn_13993

>  <type>  (3) 
ts

>  <role_mapnums>  (3) 
{"*2": 7, "*1": 3, "*3": 1, "*0": 4, "*4": 2}

>  <role_mapidx>  (3) 
{"*2": 6, "*1": 2, "*3": 0, "*0": 3, "*4": 1}

>  <ordered_mapped_smiles>  (3) 
[S:1][H:2].[CH:3]([CH2:4][CH:5]([C:6]([H:10])([H:11])[H:12])[H:9])([H:7])[H:8]

>  <mol_properties>  (3) 
{"0": {"label": "*3", "atom_type": "S2s"}, "1": {"label": "*4", "atom_type": "H0"}, "2": {"label": "*1", "atom_type": "Cs"}, "3": {"label": "*0", "atom_type": "C2s"}, "6": {"label": "*2", "atom_type": "H0"}}

>  <level_of_theory>  (3) 
wb97xd/def2tzvp

>  <lot_method>  (3) 
wb97xd

>  <lot_basis>  (3) 
def2tzvp

>  <spin_multiplicity>  (3) 
2.0

>  <optical_isomers>  (3) 
2.0

>  <modes>  (3) 
IdealGasTranslation(mass=(87.0269, 'amu')),         NonlinearRotor(             inertia = ([58.7517, 422.057, 456.081

>  <frequency_value>  (3) 
-1396.74

>  <frequency_units>  (3) 
cm^-1

>  <frequency_list>  (3) 
unknown

>  <arkane_path>  (3) 
/home/calvin/Dropbox/PersonalFolders/Calvin/ZEUS_Converged/rmg_rxn_13993/output/rxns/TS0/arkane/output.py

>  <path_exists>  (3) 
True

>  <E0_value>  (3) 
-1456160.0

>  <E0_units>  (3) 
kJ/mol

>  <thermo_class>  (3) 
unknown

>  <Cp0_value>  (3) 
unknown

>  <Cp0_units>  (3) 
unknown

>  <CpInf_value>  (3) 
unknown

>  <CpInf_units>  (3) 
unknown

>  <Tmin_value>  (3) 
unknown

>  <Tmin_units>  (3) 
unknown

>  <Tmax_value>  (3) 
unknown

>  <Tmax_units>  (3) 
unknown

>  <polynomials>  (3) 
unknown

>  <H298_value>  (3) 
unknown

>  <H298_units>  (3) 
unknown

>  <S298_value>  (3) 
unknown

>  <S298_units>  (3) 
unknown

>  <Cp_T_value_list>  (3) 
unknown

>  <Cp_T_units>  (3) 
unknown

>  <T_list>  (3) 
unknown

>  <T_units>  (3) 
unknown

>  <yaml_path>  (3) 
unknown

>  <frequencies_cm1>  (3) 
unknown

>  <ZPE_kJmol>  (3) 
unknown

>  <E_elec_kJmol>  (3) 
unknown

>  <E0_minus_Eelec_plus_ZPE_kJmol>  (3) 
unknown

>  <rxn>  (3) 
unknown

>  <species_type>  (3) 
unknown

>  <species_folder>  (3) 
unknown

>  <frequencies_cm1_list>  (3) 
[]

>  <ts_imag_freq_cm1>  (3) 
-1413.7035

>  <ts_freq_out_path>  (3) 
/home/calvin/Dropbox/PersonalFolders/Calvin/ZEUS_Converged/rmg_rxn_13993/output/rxns/TS0/geometry/freq.out

>  <E0_kJmol>  (3) 
-1.45616e+06

>  <H298_kJmol>  (3) 
unknown

$$$$

     RDKit          3D

  9  8  0  0  0  0  0  0  0  0999 V2000
    2.3032   -0.0159    0.1474 C   0  0  0  0  0  0  0  0  0  1  0  0
    1.1288    0.2882    0.0537 C   0  0  0  0  0  0  0  0  0  2  0  0
   -0.1975    0.6198   -0.0514 C   0  0  0  0  0  3  0  0  0  3  0  0
   -1.2977   -0.3866   -0.0637 C   0  0  0  0  0  0  0  0  0  4  0  0
    3.3305   -0.2768    0.2290 H   0  0  0  0  0  0  0  0  0  5  0  0
   -0.4545    1.6699   -0.1294 H   0  0  0  0  0  0  0  0  0  6  0  0
   -1.9941   -0.2122    0.7624 H   0  0  0  0  0  0  0  0  0  7  0  0
   -0.9106   -1.4008    0.0205 H   0  0  0  0  0  0  0  0  0  8  0  0
   -1.8810   -0.3144   -0.9870 H   0  0  0  0  0  0  0  0  0  9  0  0
  1  5  1  0
  1  2  1  0
  2  3  1  0
  3  4  1  0
  3  6  1  0
  4  8  1  0
  4  9  1  0
  4  7  1  0
M  RAD  1   3   2
M  END
>  <rmg_smiles>  (4) 
[CH]C[CH]C

>  <rmg_adjacency_list>  (4) 
multiplicity 2
1 C u0 p0 c0 {2,S} {5,S} {6,S} {7,S}
2 C u1 p0 c0 {1,S} {3,S} {8,S}
3 C u0 p1 c0 {2,S} {4,S}
4 C u0 p1 c0 {3,S} {9,S}
5 H u0 p0 c0 {1,S}
6 H u0 p0 c0 {1,S}
7 H u0 p0 c0 {1,S}
8 H u0 p0 c0 {2,S}
9 H u0 p0 c0 {4,S}


>  <multiplicity>  (4) 
2

>  <reaction>  (4) 
rmg_rxn_13993

>  <type>  (4) 
r1

>  <role_mapnums>  (4) 
{}

>  <role_mapidx>  (4) 
{}

>  <ordered_mapped_smiles>  (4) 
[CH2:1]([CH2:2][C:3]([C:4]([H:7])([H:8])[H:9])[H:6])[H:5]

>  <level_of_theory>  (4) 
wb97xd/def2tzvp

>  <lot_method>  (4) 
wb97xd

>  <lot_basis>  (4) 
def2tzvp

>  <spin_multiplicity>  (4) 
2.0

>  <optical_isomers>  (4) 
1.0

>  <modes>  (4) 
IdealGasTranslation(mass=(53.0391, 'amu')),         NonlinearRotor(             inertia = ([13.0163, 113.224, 123.133

>  <frequency_value>  (4) 
unknown

>  <frequency_units>  (4) 
unknown

>  <frequency_list>  (4) 
unknown

>  <arkane_path>  (4) 
/home/calvin/Dropbox/PersonalFolders/Calvin/ZEUS_Converged/rmg_rxn_13993/output/Species/rmg_rxn_13993_p2_CtCsbr-CH-sbrC/arkane/output.py

>  <path_exists>  (4) 
True

>  <E0_value>  (4) 
-407611.0178676695

>  <E0_units>  (4) 
kJ/mol

>  <thermo_class>  (4) 
NASA

>  <Cp0_value>  (4) 
33.257888

>  <Cp0_units>  (4) 
J/(mol*K)

>  <CpInf_value>  (4) 
207.8618

>  <CpInf_units>  (4) 
J/(mol*K)

>  <Tmin_value>  (4) 
10.0

>  <Tmin_units>  (4) 
K

>  <Tmax_value>  (4) 
3000.0

>  <Tmax_units>  (4) 
K

>  <polynomials>  (4) 
[{"name": "polynomial1", "class": "NASAPolynomial", "Tmin_value": 10.0, "Tmin_units": "K", "Tmax_value": 225.11887521318957, "Tmax_units": "K", "coeffs": [3.926630915296947, 0.006749895207816258, 0.00012836532533525932, -4.255246557274593e-07, 4.774973939090027e-10, -49024283.36301313, 9.039132667777825]}, {"name": "polynomial2", "class": "NASAPolynomial", "Tmin_value": 225.11887521318957, "Tmin_units": "K", "Tmax_value": 3000.0, "Tmax_units": "K", "coeffs": [2.6986748332678068, 0.028568074177661083, -1.700823692128483e-05, 4.972064259878094e-09, -5.660420030452739e-13, -49024228.07421419, 13.132307964760544]}]

>  <H298_value>  (4) 
-97417.4250763192

>  <H298_units>  (4) 
kcal/mol

>  <S298_value>  (4) 
72.15097842486317

>  <S298_units>  (4) 
cal/(mol*K)

>  <Cp_T_value_list>  (4) 
[19.60978665647869, 23.26682584091865, 26.463197946296326, 29.246037785772845, 33.74616181148779, 37.09028399063582, 42.12357583735745, 44.755303495765276, 46.19958894045869]

>  <Cp_T_units>  (4) 
cal/(mol*K)

>  <T_list>  (4) 
[300.0, 400.0, 500.0, 600.0, 800.0, 1000.0, 1500.0, 2000.0, 2400.0]

>  <T_units>  (4) 
K

>  <yaml_path>  (4) 
/home/calvin/Dropbox/PersonalFolders/Calvin/ZEUS_Converged/rmg_rxn_13993/output/Species/rmg_rxn_13993_p2_CtCsbr-CH-sbrC/rmg_rxn_13993_p2_CtCsbr-CH-sbrC.yml

>  <frequencies_cm1>  (4) 
[83.48880752056, 211.55808373855996, 392.1460636839199, 478.7318815838, 554.46786267808, 595.8689171723599, 660.0408949877599, 865.1234115695598, 998.98842339764, 1092.3794237496397, 1143.5041294570399, 1380.42198998236, 1394.47184194708, 1461.2464071987597, 1480.32289241772, 2005.2901861610799, 2994.3489487859997, 3043.5921005157197, 3109.5494945143196, 3150.5453968747197, 3427.4428459330793]

>  <ZPE_kJmol>  (4) 
182.57130571804632

>  <E_elec_kJmol>  (4) 
-407793.5891733875

>  <E0_minus_Eelec_plus_ZPE_kJmol>  (4) 
0.0

>  <rxn>  (4) 
rmg_rxn_13993

>  <species_type>  (4) 
p1

>  <species_folder>  (4) 
rmg_rxn_13993_p2_CtCsbr-CH-sbrC

>  <frequencies_cm1_list>  (4) 
[83.48880752056, 211.55808373855996, 392.1460636839199, 478.7318815838, 554.46786267808, 595.8689171723599, 660.0408949877599, 865.1234115695598, 998.98842339764, 1092.3794237496397, 1143.5041294570399, 1380.42198998236, 1394.47184194708, 1461.2464071987597, 1480.32289241772, 2005.2901861610799, 2994.3489487859997, 3043.5921005157197, 3109.5494945143196, 3150.5453968747197, 3427.4428459330793]

>  <E0_kJmol>  (4) 
-407611

>  <H298_kJmol>  (4) 
-407595

$$$$

     RDKit          3D

  2  1  0  0  0  0  0  0  0  0999 V2000
    0.0000    0.0000    0.6715 S   0  0  0  0  0  1  0  0  0  1  0  0
    0.0000    0.0000   -0.6715 H   0  0  0  0  0  0  0  0  0  2  0  0
  1  2  1  0
M  RAD  1   1   2
M  END
>  <rmg_smiles>  (5) 
[SH]

>  <rmg_adjacency_list>  (5) 
multiplicity 2
1 S u1 p2 c0 {2,S}
2 H u0 p0 c0 {1,S}


>  <multiplicity>  (5) 
2

>  <reaction>  (5) 
rmg_rxn_13993

>  <type>  (5) 
r2

>  <role_mapnums>  (5) 
{}

>  <role_mapidx>  (5) 
{}

>  <ordered_mapped_smiles>  (5) 
[S:1][H:2]

>  <level_of_theory>  (5) 
wb97xd/def2tzvp

>  <lot_method>  (5) 
wb97xd

>  <lot_basis>  (5) 
def2tzvp

>  <spin_multiplicity>  (5) 
2.0

>  <optical_isomers>  (5) 
1.0

>  <modes>  (5) 
IdealGasTranslation(mass=(32.9799, 'amu')),         LinearRotor(inertia=(1.76198, 'amu*angstrom^2'), symmetry=1),         HarmonicOscillator(frequencies=([2717.16

>  <frequency_value>  (5) 
unknown

>  <frequency_units>  (5) 
unknown

>  <frequency_list>  (5) 
unknown

>  <arkane_path>  (5) 
/home/calvin/Dropbox/PersonalFolders/Calvin/ZEUS_Converged/rmg_rxn_13993/output/Species/rmg_rxn_13993_r1_sbr-SH-sbr/arkane/output.py

>  <path_exists>  (5) 
True

>  <E0_value>  (5) 
-1046902.932295989

>  <E0_units>  (5) 
kJ/mol

>  <thermo_class>  (5) 
NASA

>  <Cp0_value>  (5) 
29.100652

>  <Cp0_units>  (5) 
J/(mol*K)

>  <CpInf_value>  (5) 
37.415124

>  <CpInf_units>  (5) 
J/(mol*K)

>  <Tmin_value>  (5) 
10.0

>  <Tmin_units>  (5) 
K

>  <Tmax_value>  (5) 
3000.0

>  <Tmax_units>  (5) 
K

>  <polynomials>  (5) 
[{"name": "polynomial1", "class": "NASAPolynomial", "Tmin_value": 10.0, "Tmin_units": "K", "Tmax_value": 748.2052447313665, "Tmax_units": "K", "coeffs": [3.496273380711632, 0.00032003711196013676, -2.3069127962171082e-06, 4.843162975439362e-09, -2.580722186540029e-12, -125913339.09859523, 3.140660788690372]}, {"name": "polynomial2", "class": "NASAPolynomial", "Tmin_value": 748.2052447313665, "Tmin_units": "K", "Tmax_value": 3000.0, "Tmax_units": "K", "coeffs": [3.143810022018713, 0.0006407595494933728, 1.8478762175414366e-07, -1.7006426824758965e-10, 2.7618530619850687e-14, -125913242.58982067, 5.03132271004615]}]

>  <H298_value>  (5) 
-250213.7312002693

>  <H298_units>  (5) 
kcal/mol

>  <S298_value>  (5) 
45.88426249941152

>  <S298_units>  (5) 
cal/(mol*K)

>  <Cp_T_value_list>  (5) 
[6.94434063818852, 6.953390788517184, 7.002247954148481, 7.093271303394767, 7.350520621476138, 7.604863323227885, 8.120865229365412, 8.43740447309461, 8.567558167317882]

>  <Cp_T_units>  (5) 
cal/(mol*K)

>  <T_list>  (5) 
[300.0, 400.0, 500.0, 600.0, 800.0, 1000.0, 1500.0, 2000.0, 2400.0]

>  <T_units>  (5) 
K

>  <yaml_path>  (5) 
/home/calvin/Dropbox/PersonalFolders/Calvin/ZEUS_Converged/rmg_rxn_13993/output/Species/rmg_rxn_13993_r1_sbr-SH-sbr/rmg_rxn_13993_r1_sbr-SH-sbr.yml

>  <frequencies_cm1>  (5) 
[2684.5586400448396]

>  <ZPE_kJmol>  (5) 
16.0572311304594

>  <E_elec_kJmol>  (5) 
-1046918.9895271194

>  <E0_minus_Eelec_plus_ZPE_kJmol>  (5) 
0.0

>  <rxn>  (5) 
rmg_rxn_13993

>  <species_type>  (5) 
r0

>  <species_folder>  (5) 
rmg_rxn_13993_r1_sbr-SH-sbr

>  <frequencies_cm1_list>  (5) 
[2684.5586400448396]

>  <E0_kJmol>  (5) 
-1.0469e+06

>  <H298_kJmol>  (5) 
-1.04689e+06

$$$$
