
     RDKit          3D

 17 16  0  0  0  0  0  0  0  0999 V2000
    1.5701    2.2875    0.0023 C   0  0  0  0  0  0  0  0  0  1  0  0
    1.9986    0.8580    0.0863 C   0  0  0  0  0  0  0  0  0  2  0  0
    1.1962   -0.1741    0.2951 C   0  0  0  0  0  0  0  0  0  3  0  0
   -0.1404    0.0039    0.5364 O   0  0  0  0  0  0  0  0  0  4  0  0
   -0.9232   -1.0336   -0.0850 N   0  0  0  0  0  0  0  0  0  5  0  0
   -2.0494   -1.2405    0.6144 N   0  0  0  0  0  0  0  0  0  6  0  0
   -1.1759   -0.6658   -1.4702 C   0  0  0  0  0  0  0  0  0  7  0  0
    2.0531    2.7812   -0.8432 H   0  0  0  0  0  0  0  0  0  8  0  0
    1.8622    2.8366    0.9016 H   0  0  0  0  0  0  0  0  0  9  0  0
    0.4904    2.3792   -0.1154 H   0  0  0  0  0  0  0  0  0 10  0  0
    3.0550    0.6335   -0.0054 H   0  0  0  0  0  0  0  0  0 11  0  0
    1.5294   -1.2053    0.3305 H   0  0  0  0  0  0  0  0  0 12  0  0
   -2.6018   -0.3863    0.6465 H   0  0  0  0  0  0  0  0  0 13  0  0
   -1.7790   -1.3787    1.5858 H   0  0  0  0  0  0  0  0  0 14  0  0
   -1.7405   -1.4763   -1.9251 H   0  0  0  0  0  0  0  0  0 15  0  0
   -0.2198   -0.5544   -1.9777 H   0  0  0  0  0  0  0  0  0 16  0  0
   -1.7331    0.2734   -1.5352 H   0  0  0  0  0  0  0  0  0 17  0  0
  1 10  1  0
  1  8  1  0
  1  9  1  0
  1  2  1  0
  2 11  1  0
  2  3  1  0
  3  4  1  0
  3 12  1  0
  4  5  1  0
  5  6  1  0
  5  7  1  0
  6 14  1  0
  6 13  1  0
  7 17  1  0
  7 15  1  0
  7 16  1  0
M  END
>  <rmg_smiles>  (1) 
C[CH][CH]ON(N)C

>  <rmg_adjacency_list>  (1) 
1  O u0 p2 c0 {2,S} {7,S}
2  N u0 p1 c0 {1,S} {3,S} {4,S}
3  N u0 p1 c0 {2,S} {16,S} {17,S}
4  C u0 p0 c0 {2,S} {11,S} {12,S} {13,S}
5  C u0 p0 c0 {6,S} {8,S} {9,S} {10,S}
6  C u0 p0 c0 {5,S} {7,S} {14,S}
7  C u0 p0 c0 {1,S} {6,S} {15,S}
8  H u0 p0 c0 {5,S}
9  H u0 p0 c0 {5,S}
10 H u0 p0 c0 {5,S}
11 H u0 p0 c0 {4,S}
12 H u0 p0 c0 {4,S}
13 H u0 p0 c0 {4,S}
14 H u0 p0 c0 {6,S}
15 H u0 p0 c0 {7,S}
16 H u0 p0 c0 {3,S}
17 H u0 p0 c0 {3,S}


>  <multiplicity>  (1) 
1

>  <reaction>  (1) 
rmg_rxn_10664

>  <type>  (1) 
r1h

>  <role_mapnums>  (1) 
{"r1h_a": 6, "r1h_h": 13}

>  <role_mapidx>  (1) 
{"r1h_a": 5, "r1h_h": 12}

>  <ordered_mapped_smiles>  (1) 
[C:1]([CH:2]([CH:3]([O:4][N:5]([N:6]([H:13])[H:14])[C:7]([H:15])([H:16])[H:17])[H:12])[H:11])([H:8])([H:9])[H:10]

>  <mol_properties>  (1) 
{"5": {"label": "donator", "atom_type": "N3s"}, "12": {"label": "d_hydrogen", "atom_type": "H0"}}

>  <level_of_theory>  (1) 
wb97xd/def2tzvp

>  <lot_method>  (1) 
wb97xd

>  <lot_basis>  (1) 
def2tzvp

>  <spin_multiplicity>  (1) 
1.0

>  <optical_isomers>  (1) 
2.0

>  <modes>  (1) 
IdealGasTranslation(mass=(102.079, 'amu')),         NonlinearRotor(             inertia = ([85.6795, 376.18, 388.876

>  <frequency_value>  (1) 
unknown

>  <frequency_units>  (1) 
unknown

>  <frequency_list>  (1) 
unknown

>  <arkane_path>  (1) 
/home/calvin/Dropbox/PersonalFolders/Calvin/ZEUS_Converged/rmg_rxn_10664/output/Species/rmg_rxn_10664_r2_CC=CONrbr-N-rbrC/arkane/output.py

>  <path_exists>  (1) 
True

>  <E0_value>  (1) 
-900405.0494296006

>  <E0_units>  (1) 
kJ/mol

>  <thermo_class>  (1) 
NASA

>  <Cp0_value>  (1) 
33.257888

>  <Cp0_units>  (1) 
J/(mol*K)

>  <CpInf_value>  (1) 
407.409128

>  <CpInf_units>  (1) 
J/(mol*K)

>  <Tmin_value>  (1) 
10.0

>  <Tmin_units>  (1) 
K

>  <Tmax_value>  (1) 
3000.0

>  <Tmax_units>  (1) 
K

>  <polynomials>  (1) 
[{"name": "polynomial1", "class": "NASAPolynomial", "Tmin_value": 10.0, "Tmin_units": "K", "Tmax_value": 1108.736796573486, "Tmax_units": "K", "coeffs": [3.593482067657345, 0.04527343613148581, -7.853115807860651e-07, -2.043658609457127e-08, 8.18045447415304e-12, -108293714.18687978, 12.85162704751556]}, {"name": "polynomial2", "class": "NASAPolynomial", "Tmin_value": 1108.736796573486, "Tmin_units": "K", "Tmax_value": 3000.0, "Tmax_units": "K", "coeffs": [7.506038002578287, 0.046589931565087575, -2.3444009976697085e-05, 5.741145862751885e-09, -5.527118171710488e-13, -108295530.30298632, -10.705520626468415]}]

>  <H298_value>  (1) 
-215195.9362782153

>  <H298_units>  (1) 
kcal/mol

>  <S298_value>  (1) 
92.63660749241524

>  <S298_units>  (1) 
cal/(mol*K)

>  <Cp_T_value_list>  (1) 
[33.0259983327988, 40.69537554931736, 47.67423133324528, 53.89446290908325, 63.981717362233816, 71.19261681574156, 81.91300293988421, 87.42841994031997, 90.0449470406118]

>  <Cp_T_units>  (1) 
cal/(mol*K)

>  <T_list>  (1) 
[300.0, 400.0, 500.0, 600.0, 800.0, 1000.0, 1500.0, 2000.0, 2400.0]

>  <T_units>  (1) 
K

>  <yaml_path>  (1) 
/home/calvin/Dropbox/PersonalFolders/Calvin/ZEUS_Converged/rmg_rxn_10664/output/Species/rmg_rxn_10664_r2_CC=CONrbr-N-rbrC/rmg_rxn_10664_r2_CC=CONrbr-N-rbrC.yml

>  <frequencies_cm1>  (1) 
[42.90492427935999, 70.94969232623998, 121.85465450339998, 166.71666959895998, 253.87244728039994, 301.92074356444, 373.40606074563993, 419.64833989052, 445.81842094504, 504.72342102, 549.00174236336, 631.06908392268, 758.13578028396, 848.92419319968, 869.8822323963199, 938.1057315505199, 966.4663809221199, 985.6939398181199, 1045.86246519196, 1060.8324931895597, 1129.8319616849199, 1145.91444130436, 1177.50257377636, 1255.0720399510801, 1275.68672988172, 1357.8776771768, 1378.40309629828, 1417.9431977708398, 1431.4368239246398, 1469.8713407606797, 1474.3760831306, 1478.2284618951198, 1482.71260330908, 1665.8688357641197, 1738.5215404497199, 2975.03898606616, 3009.26404090104, 3062.7647235291597, 3097.66960991072, 3105.09968802696, 3145.0998775159596, 3146.5076095065597, 3168.9763854735997, 3405.2006804816, 3560.0443324622797]

>  <ZPE_kJmol>  (1) 
382.271003727177

>  <E_elec_kJmol>  (1) 
-900787.3204333278

>  <E0_minus_Eelec_plus_ZPE_kJmol>  (1) 
0.0

>  <rxn>  (1) 
rmg_rxn_10664

>  <species_type>  (1) 
r1

>  <species_folder>  (1) 
rmg_rxn_10664_r2_CC=CONrbr-N-rbrC

>  <frequencies_cm1_list>  (1) 
[42.90492427935999, 70.94969232623998, 121.85465450339998, 166.71666959895998, 253.87244728039994, 301.92074356444, 373.40606074563993, 419.64833989052, 445.81842094504, 504.72342102, 549.00174236336, 631.06908392268, 758.13578028396, 848.92419319968, 869.8822323963199, 938.1057315505199, 966.4663809221199, 985.6939398181199, 1045.86246519196, 1060.8324931895597, 1129.8319616849199, 1145.91444130436, 1177.50257377636, 1255.0720399510801, 1275.68672988172, 1357.8776771768, 1378.40309629828, 1417.9431977708398, 1431.4368239246398, 1469.8713407606797, 1474.3760831306, 1478.2284618951198, 1482.71260330908, 1665.8688357641197, 1738.5215404497199, 2975.03898606616, 3009.26404090104, 3062.7647235291597, 3097.66960991072, 3105.09968802696, 3145.0998775159596, 3146.5076095065597, 3168.9763854735997, 3405.2006804816, 3560.0443324622797]

>  <E0_kJmol>  (1) 
-900405

>  <H298_kJmol>  (1) 
-900380

$$$$

     RDKit          3D

 10  9  0  0  0  0  0  0  0  0999 V2000
   -1.3478   -0.8101   -0.3995 C   0  0  0  0  0  0  0  0  0  1  0  0
   -0.2808   -0.6104    0.6395 C   0  0  0  0  0  0  0  0  0  2  0  0
    0.7078    0.4468    0.4442 C   0  0  0  0  0  0  0  0  0  3  0  0
    0.9226    1.0057   -0.6109 O   0  0  0  0  0  0  0  0  0  4  0  0
   -0.9366   -0.6932   -1.4017 H   0  0  0  0  0  0  0  0  0  5  0  0
   -2.1469   -0.0720   -0.2853 H   0  0  0  0  0  0  0  0  0  6  0  0
   -1.7943   -1.8020   -0.3157 H   0  0  0  0  0  0  0  0  0  7  0  0
   -0.5954   -0.7197    1.6770 H   0  0  0  0  0  0  0  0  0  8  0  0
    1.3094    0.6997    1.3386 H   0  0  0  0  0  0  0  0  0  9  0  0
    0.3152   -1.5189    0.5584 H   0  0  0  0  0  0  0  0  0 10  0  0
  1  5  1  0
  1  7  1  0
  1  6  1  0
  1  2  1  0
  2 10  1  0
  2  8  1  0
  2  3  1  0
  3  4  1  0
  3  9  1  0
M  END
>  <rmg_smiles>  (2) 
CC[CH]O

>  <rmg_adjacency_list>  (2) 
1  O u0 p2 c0 {4,S}
2  C u0 p0 c0 {3,S} {4,S} {5,S} {6,S}
3  C u0 p0 c0 {2,S} {7,S} {8,S} {9,S}
4  C u0 p0 c0 {1,S} {2,S} {10,S}
5  H u0 p0 c0 {2,S}
6  H u0 p0 c0 {2,S}
7  H u0 p0 c0 {3,S}
8  H u0 p0 c0 {3,S}
9  H u0 p0 c0 {3,S}
10 H u0 p0 c0 {4,S}


>  <multiplicity>  (2) 
1

>  <reaction>  (2) 
rmg_rxn_10664

>  <type>  (2) 
r2h

>  <role_mapnums>  (2) 
{"r2h_a": 2, "r2h_h": 10}

>  <role_mapidx>  (2) 
{"r2h_a": 1, "r2h_h": 9}

>  <ordered_mapped_smiles>  (2) 
[C:1]([C:2]([CH:3]([OH:4])[H:9])([H:8])[H:10])([H:5])([H:6])[H:7]

>  <mol_properties>  (2) 
{"1": {"label": "acceptor", "atom_type": "Cs"}, "9": {"label": "a_hydrogen", "atom_type": "H0"}}

>  <level_of_theory>  (2) 
wb97xd/def2tzvp

>  <lot_method>  (2) 
wb97xd

>  <lot_basis>  (2) 
def2tzvp

>  <spin_multiplicity>  (2) 
1.0

>  <optical_isomers>  (2) 
1.0

>  <modes>  (2) 
IdealGasTranslation(mass=(58.0419, 'amu')),         NonlinearRotor(             inertia = ([29.7984, 86.0094, 109.654

>  <frequency_value>  (2) 
unknown

>  <frequency_units>  (2) 
unknown

>  <frequency_list>  (2) 
unknown

>  <arkane_path>  (2) 
/home/calvin/Dropbox/PersonalFolders/Calvin/ZEUS_Converged/rmg_rxn_10664/output/Species/rmg_rxn_10664_p1_CCC=O/arkane/output.py

>  <path_exists>  (2) 
True

>  <E0_value>  (2) 
-506922.5977502898

>  <E0_units>  (2) 
kJ/mol

>  <thermo_class>  (2) 
NASA

>  <Cp0_value>  (2) 
33.257888

>  <Cp0_units>  (2) 
J/(mol*K)

>  <CpInf_value>  (2) 
232.805216

>  <CpInf_units>  (2) 
J/(mol*K)

>  <Tmin_value>  (2) 
10.0

>  <Tmin_units>  (2) 
K

>  <Tmax_value>  (2) 
3000.0

>  <Tmax_units>  (2) 
K

>  <polynomials>  (2) 
[{"name": "polynomial1", "class": "NASAPolynomial", "Tmin_value": 10.0, "Tmin_units": "K", "Tmax_value": 995.1898195947089, "Tmax_units": "K", "coeffs": [3.919274922073676, 0.01190286655933794, 2.8741377441363064e-05, -3.719967863021152e-08, 1.2820649460513628e-11, -60968708.5460655, 8.2981947734565]}, {"name": "polynomial2", "class": "NASAPolynomial", "Tmin_value": 995.1898195947089, "Tmin_units": "K", "Tmax_value": 3000.0, "Tmax_units": "K", "coeffs": [2.274351872072026, 0.029876855889912467, -1.547604229307482e-05, 3.893682143296549e-09, -3.8435914306663724e-13, -60968943.81624351, 13.399106417117805]}]

>  <H298_value>  (2) 
-121153.67271622556

>  <H298_units>  (2) 
kcal/mol

>  <S298_value>  (2) 
69.84440643822009

>  <S298_units>  (2) 
cal/(mol*K)

>  <Cp_T_value_list>  (2) 
[18.235232419838997, 22.3093164128926, 26.245798003241582, 29.876291133548982, 35.851495120144214, 40.11074670434607, 46.62761386139834, 49.92579185294882, 51.490409167619944]

>  <Cp_T_units>  (2) 
cal/(mol*K)

>  <T_list>  (2) 
[300.0, 400.0, 500.0, 600.0, 800.0, 1000.0, 1500.0, 2000.0, 2400.0]

>  <T_units>  (2) 
K

>  <yaml_path>  (2) 
/home/calvin/Dropbox/PersonalFolders/Calvin/ZEUS_Converged/rmg_rxn_10664/output/Species/rmg_rxn_10664_p1_CCC=O/rmg_rxn_10664_p1_CCC=O.yml

>  <frequencies_cm1>  (2) 
[140.17577133716, 231.1427258712, 255.91194192044003, 664.53877037236, 671.2684159859599, 853.7722848356, 903.24204708088, 1002.8064672355599, 1110.1649157284398, 1142.5152835709598, 1274.43007156816, 1362.5060252824799, 1401.2701574138798, 1414.07021805036, 1440.4257077085201, 1481.0027239643998, 1486.2284997929198, 1826.3777506338001, 2861.6925263742396, 3000.3781618969597, 3029.63151936016, 3031.0529853214, 3106.8301683276, 3108.0730926705196]

>  <ZPE_kJmol>  (2) 
220.11000257512663

>  <E_elec_kJmol>  (2) 
-507142.7077528649

>  <E0_minus_Eelec_plus_ZPE_kJmol>  (2) 
0.0

>  <rxn>  (2) 
rmg_rxn_10664

>  <species_type>  (2) 
p0

>  <species_folder>  (2) 
rmg_rxn_10664_p1_CCC=O

>  <frequencies_cm1_list>  (2) 
[140.17577133716, 231.1427258712, 255.91194192044003, 664.53877037236, 671.2684159859599, 853.7722848356, 903.24204708088, 1002.8064672355599, 1110.1649157284398, 1142.5152835709598, 1274.43007156816, 1362.5060252824799, 1401.2701574138798, 1414.07021805036, 1440.4257077085201, 1481.0027239643998, 1486.2284997929198, 1826.3777506338001, 2861.6925263742396, 3000.3781618969597, 3029.63151936016, 3031.0529853214, 3106.8301683276, 3108.0730926705196]

>  <E0_kJmol>  (2) 
-506923

>  <H298_kJmol>  (2) 
-506907

$$$$

     RDKit          3D

 26 24  0  0  0  0  0  0  0  0999 V2000
   -3.4216    0.1983   -0.3235 C   0  0  0  0  0  0  0  0  0  1  0  0
   -2.3545    0.3980    0.7155 C   0  0  0  0  0  0  0  0  0  2  0  0
   -1.3660    1.4552    0.5202 C   0  0  0  0  0  0  0  0  0  3  0  0
   -1.1511    2.0142   -0.5350 O   0  0  0  0  0  1  0  0  0  4  0  0
   -3.0103    0.3152   -1.3257 H   0  0  0  0  0  0  0  0  0  5  0  0
   -4.2206    0.9364   -0.2093 H   0  0  0  0  0  0  0  0  0  6  0  0
   -3.8680   -0.7936   -0.2397 H   0  0  0  0  0  0  0  0  0  7  0  0
   -2.6691    0.2887    1.7529 H   0  0  0  0  0  0  0  0  0  8  0  0
   -0.7643    1.7082    1.4145 H   0  0  0  0  0  0  0  0  0  9  0  0
    2.7010    1.7222   -0.0399 C   0  0  0  0  0  0  0  0  0 10  0  0
    3.1295    0.2927    0.0441 C   0  0  0  0  0  0  0  0  0 11  0  0
    2.3271   -0.7394    0.2529 C   0  0  0  0  0  0  0  0  0 12  0  0
    0.9905   -0.5614    0.4942 O   0  0  0  0  0  0  0  0  0 13  0  0
    0.2077   -1.5988   -0.1272 N   0  0  0  0  0  0  0  0  0 14  0  0
   -0.9185   -1.8058    0.5722 N   0  0  0  0  0  0  0  0  0 15  0  0
   -0.0450   -1.2311   -1.5124 C   0  0  0  0  0  0  0  0  0 16  0  0
    3.1840    2.2159   -0.8853 H   0  0  0  0  0  0  0  0  0 17  0  0
    2.9932    2.2713    0.8594 H   0  0  0  0  0  0  0  0  0 18  0  0
    1.6213    1.8139   -0.1576 H   0  0  0  0  0  0  0  0  0 19  0  0
    4.1859    0.0683   -0.0476 H   0  0  0  0  0  0  0  0  0 20  0  0
    2.6604   -1.7706    0.2883 H   0  0  0  0  0  0  0  0  0 21  0  0
   -1.5872   -0.7715    0.6110 H   0  0  0  0  0  0  0  0  0 22  0  0
   -0.6481   -1.9440    1.5436 H   0  0  0  0  0  0  0  0  0 23  0  0
   -0.6095   -2.0416   -1.9673 H   0  0  0  0  0  0  0  0  0 24  0  0
    0.9112   -1.1197   -2.0199 H   0  0  0  0  0  0  0  0  0 25  0  0
   -0.6022   -0.2919   -1.5774 H   0  0  0  0  0  0  0  0  0 26  0  0
  1  7  1  0
  1  5  1  0
  1  6  1  0
  1  2  1  0
  2  8  1  0
  2  3  1  0
  3  4  1  0
  3  9  1  0
 10 18  1  0
 10 11  1  0
 10 19  1  0
 10 17  1  0
 11 12  1  0
 11 20  1  0
 12 13  1  0
 12 21  1  0
 13 14  1  0
 14 15  1  0
 14 16  1  0
 15 23  1  0
 15 22  1  0
 16 26  1  0
 16 24  1  0
 16 25  1  0
M  RAD  1   4   2
M  END
>  <rmg_smiles>  (3) 
C[CH][CH]ON(N)C.C[CH][CH][O]

>  <rmg_adjacency_list>  (3) 
multiplicity 2
1  O u0 p2 c0 {3,S} {10,S}
2  O u1 p2 c0 {11,S}
3  N u0 p1 c0 {1,S} {4,S} {5,S}
4  N u0 p1 c0 {3,S} {25,S} {26,S}
5  C u0 p0 c0 {3,S} {18,S} {19,S} {20,S}
6  C u0 p0 c0 {9,S} {12,S} {13,S} {14,S}
7  C u0 p0 c0 {8,S} {15,S} {16,S} {17,S}
8  C u0 p0 c0 {7,S} {10,S} {22,S}
9  C u0 p0 c0 {6,S} {11,S} {21,S}
10 C u0 p0 c0 {1,S} {8,S} {23,S}
11 C u0 p0 c0 {2,S} {9,S} {24,S}
12 H u0 p0 c0 {6,S}
13 H u0 p0 c0 {6,S}
14 H u0 p0 c0 {6,S}
15 H u0 p0 c0 {7,S}
16 H u0 p0 c0 {7,S}
17 H u0 p0 c0 {7,S}
18 H u0 p0 c0 {5,S}
19 H u0 p0 c0 {5,S}
20 H u0 p0 c0 {5,S}
21 H u0 p0 c0 {9,S}
22 H u0 p0 c0 {8,S}
23 H u0 p0 c0 {10,S}
24 H u0 p0 c0 {11,S}
25 H u0 p0 c0 {4,S}
26 H u0 p0 c0 {4,S}


>  <multiplicity>  (3) 
2

>  <reaction>  (3) 
rmg_rxn_10664

>  <type>  (3) 
ts

>  <role_mapnums>  (3) 
{"*2": 22, "*1": 15, "*3": 2, "*0": 14, "*4": 3}

>  <role_mapidx>  (3) 
{"*2": 21, "*1": 14, "*3": 1, "*0": 13, "*4": 2}

>  <ordered_mapped_smiles>  (3) 
[C:1]([CH:2]([CH:3]([O:4])[H:9])[H:8])([H:5])([H:6])[H:7].[C:10]([CH:11]([CH:12]([O:13][N:14]([N:15]([H:22])[H:23])[C:16]([H:24])([H:25])[H:26])[H:21])[H:20])([H:17])([H:18])[H:19]

>  <mol_properties>  (3) 
{"1": {"label": "*3", "atom_type": "Cs"}, "2": {"label": "*4", "atom_type": "Cs"}, "13": {"label": "*0", "atom_type": "N3s"}, "14": {"label": "*1", "atom_type": "N3s"}, "21": {"label": "*2", "atom_type": "H0"}}

>  <level_of_theory>  (3) 
wb97xd/def2tzvp

>  <lot_method>  (3) 
wb97xd

>  <lot_basis>  (3) 
def2tzvp

>  <spin_multiplicity>  (3) 
2.0

>  <optical_isomers>  (3) 
2.0

>  <modes>  (3) 
IdealGasTranslation(mass=(159.113, 'amu')),         NonlinearRotor(             inertia = ([345.476, 724.36, 921.686

>  <frequency_value>  (3) 
-1770.41

>  <frequency_units>  (3) 
cm^-1

>  <frequency_list>  (3) 
unknown

>  <arkane_path>  (3) 
/home/calvin/Dropbox/PersonalFolders/Calvin/ZEUS_Converged/rmg_rxn_10664/output/rxns/TS0/arkane/output.py

>  <path_exists>  (3) 
True

>  <E0_value>  (3) 
-1405600.0

>  <E0_units>  (3) 
kJ/mol

>  <thermo_class>  (3) 
unknown

>  <Cp0_value>  (3) 
unknown

>  <Cp0_units>  (3) 
unknown

>  <CpInf_value>  (3) 
unknown

>  <CpInf_units>  (3) 
unknown

>  <Tmin_value>  (3) 
unknown

>  <Tmin_units>  (3) 
unknown

>  <Tmax_value>  (3) 
unknown

>  <Tmax_units>  (3) 
unknown

>  <polynomials>  (3) 
unknown

>  <H298_value>  (3) 
unknown

>  <H298_units>  (3) 
unknown

>  <S298_value>  (3) 
unknown

>  <S298_units>  (3) 
unknown

>  <Cp_T_value_list>  (3) 
unknown

>  <Cp_T_units>  (3) 
unknown

>  <T_list>  (3) 
unknown

>  <T_units>  (3) 
unknown

>  <yaml_path>  (3) 
unknown

>  <frequencies_cm1>  (3) 
unknown

>  <ZPE_kJmol>  (3) 
unknown

>  <E_elec_kJmol>  (3) 
unknown

>  <E0_minus_Eelec_plus_ZPE_kJmol>  (3) 
unknown

>  <rxn>  (3) 
unknown

>  <species_type>  (3) 
unknown

>  <species_folder>  (3) 
unknown

>  <frequencies_cm1_list>  (3) 
[]

>  <ts_imag_freq_cm1>  (3) 
-1791.917

>  <ts_freq_out_path>  (3) 
/home/calvin/Dropbox/PersonalFolders/Calvin/ZEUS_Converged/rmg_rxn_10664/output/rxns/TS0/geometry/freq.out

>  <E0_kJmol>  (3) 
-1.4056e+06

>  <H298_kJmol>  (3) 
unknown

$$$$

     RDKit          3D

 16 15  0  0  0  0  0  0  0  0999 V2000
   -2.7163    0.6711   -0.2082 C   0  0  0  0  0  0  0  0  0  1  0  0
   -2.0604   -0.6699   -0.1371 C   0  0  0  0  0  0  0  0  0  2  0  0
   -1.8776   -1.4967   -1.1546 C   0  0  0  0  0  0  0  0  0  3  0  0
   -2.2450   -1.1612   -2.4322 O   0  0  0  0  0  0  0  0  0  4  0  0
   -2.5108   -2.3329   -3.2086 N   0  0  0  0  0  0  0  0  0  5  0  0
   -2.0229   -2.3050   -4.4233 N   0  0  0  0  0  2  0  0  0  6  0  0
   -3.9082   -2.7128   -3.0828 C   0  0  0  0  0  0  0  0  0  7  0  0
   -3.4812    0.7676    0.5653 H   0  0  0  0  0  0  0  0  0  8  0  0
   -3.1809    0.8365   -1.1792 H   0  0  0  0  0  0  0  0  0  9  0  0
   -1.9897    1.4706   -0.0417 H   0  0  0  0  0  0  0  0  0 10  0  0
   -1.6717   -0.9974    0.8197 H   0  0  0  0  0  0  0  0  0 11  0  0
   -1.3990   -2.4648   -1.0638 H   0  0  0  0  0  0  0  0  0 12  0  0
   -1.1779   -1.7364   -4.3793 H   0  0  0  0  0  0  0  0  0 13  0  0
   -4.5563   -1.9305   -3.4853 H   0  0  0  0  0  0  0  0  0 14  0  0
   -4.1357   -2.8800   -2.0315 H   0  0  0  0  0  0  0  0  0 15  0  0
   -4.0457   -3.6333   -3.6440 H   0  0  0  0  0  0  0  0  0 16  0  0
  1 10  1  0
  1  8  1  0
  1  9  1  0
  1  2  1  0
  2 11  1  0
  2  3  1  0
  3  4  1  0
  3 12  1  0
  4  5  1  0
  5  6  1  0
  5  7  1  0
  6 13  1  0
  7 14  1  0
  7 15  1  0
  7 16  1  0
M  RAD  1   6   2
M  END
>  <rmg_smiles>  (4) 
C[CH][CH]ON([NH])C

>  <rmg_adjacency_list>  (4) 
multiplicity 2
1  O u0 p2 c0 {2,S} {7,S}
2  N u0 p1 c0 {1,S} {3,S} {5,S}
3  N u1 p1 c0 {2,S} {16,S}
4  C u0 p0 c0 {6,S} {8,S} {9,S} {10,S}
5  C u0 p0 c0 {2,S} {11,S} {12,S} {13,S}
6  C u0 p0 c0 {4,S} {7,S} {14,S}
7  C u0 p0 c0 {1,S} {6,S} {15,S}
8  H u0 p0 c0 {4,S}
9  H u0 p0 c0 {4,S}
10 H u0 p0 c0 {4,S}
11 H u0 p0 c0 {5,S}
12 H u0 p0 c0 {5,S}
13 H u0 p0 c0 {5,S}
14 H u0 p0 c0 {6,S}
15 H u0 p0 c0 {7,S}
16 H u0 p0 c0 {3,S}


>  <multiplicity>  (4) 
2

>  <reaction>  (4) 
rmg_rxn_10664

>  <type>  (4) 
r1

>  <role_mapnums>  (4) 
{}

>  <role_mapidx>  (4) 
{}

>  <ordered_mapped_smiles>  (4) 
[C:1]([CH:2]([CH:3]([O:4][N:5]([N:6][H:13])[C:7]([H:14])([H:15])[H:16])[H:12])[H:11])([H:8])([H:9])[H:10]

>  <level_of_theory>  (4) 
wb97xd/def2tzvp

>  <lot_method>  (4) 
wb97xd

>  <lot_basis>  (4) 
def2tzvp

>  <spin_multiplicity>  (4) 
2.0

>  <optical_isomers>  (4) 
2.0

>  <modes>  (4) 
IdealGasTranslation(mass=(101.071, 'amu')),         NonlinearRotor(             inertia = ([82.2482, 367.276, 386.349

>  <frequency_value>  (4) 
unknown

>  <frequency_units>  (4) 
unknown

>  <frequency_list>  (4) 
unknown

>  <arkane_path>  (4) 
/home/calvin/Dropbox/PersonalFolders/Calvin/ZEUS_Converged/rmg_rxn_10664/output/Species/rmg_rxn_10664_p2_CC=CONrbr-sbr-NH-sbr-rbrC/arkane/output.py

>  <path_exists>  (4) 
True

>  <E0_value>  (4) 
-898742.9185377804

>  <E0_units>  (4) 
kJ/mol

>  <thermo_class>  (4) 
NASA

>  <Cp0_value>  (4) 
33.257888

>  <Cp0_units>  (4) 
J/(mol*K)

>  <CpInf_value>  (4) 
382.465712

>  <CpInf_units>  (4) 
J/(mol*K)

>  <Tmin_value>  (4) 
10.0

>  <Tmin_units>  (4) 
K

>  <Tmax_value>  (4) 
3000.0

>  <Tmax_units>  (4) 
K

>  <polynomials>  (4) 
[{"name": "polynomial1", "class": "NASAPolynomial", "Tmin_value": 10.0, "Tmin_units": "K", "Tmax_value": 1230.351550791476, "Tmax_units": "K", "coeffs": [3.636448192617725, 0.046012269057782156, -1.0447598723861432e-05, -9.397618320350448e-09, 4.2997715161361366e-12, -108093806.20736969, 13.356245971953898]}, {"name": "polynomial2", "class": "NASAPolynomial", "Tmin_value": 1230.351550791476, "Tmin_units": "K", "Tmax_value": 3000.0, "Tmax_units": "K", "coeffs": [10.637798077256372, 0.03762876756034826, -1.7756617991574368e-05, 4.0613531266158274e-09, -3.6506325325576807e-13, -108096617.32351352, -26.295285854594052]}]

>  <H298_value>  (4) 
-214798.71695714595

>  <H298_units>  (4) 
kcal/mol

>  <S298_value>  (4) 
93.88909266705956

>  <S298_units>  (4) 
cal/(mol*K)

>  <Cp_T_value_list>  (4) 
[32.353584800793946, 39.50241933237663, 45.9535869024618, 51.687318427953755, 61.025931419689, 67.77024327047224, 77.47619958424356, 82.5061792663907, 84.85559276208323]

>  <Cp_T_units>  (4) 
cal/(mol*K)

>  <T_list>  (4) 
[300.0, 400.0, 500.0, 600.0, 800.0, 1000.0, 1500.0, 2000.0, 2400.0]

>  <T_units>  (4) 
K

>  <yaml_path>  (4) 
/home/calvin/Dropbox/PersonalFolders/Calvin/ZEUS_Converged/rmg_rxn_10664/output/Species/rmg_rxn_10664_p2_CC=CONrbr-sbr-NH-sbr-rbrC/rmg_rxn_10664_p2_CC=CONrbr-sbr-NH-sbr-rbrC.yml

>  <frequencies_cm1>  (4) 
[39.766711988119994, 75.63297631448, 123.26238649399998, 170.50724549560002, 210.75464645612, 275.49658405307997, 409.25172411604, 436.20464149704003, 468.50694044231994, 500.21867865008005, 576.8748357772399, 635.10687129084, 759.24136492048, 839.57822617916, 939.32118795216, 961.2680730348799, 1009.44684204, 1040.7534281138799, 1058.9372052412398, 1116.31086758984, 1136.6302771517198, 1158.60463017572, 1269.5201770643598, 1302.9417946168, 1381.1704913822398, 1418.63676328816, 1428.2162078095598, 1447.1828212633998, 1467.8867820031996, 1473.94346305544, 1477.12974424392, 1484.2920099326798, 1743.06061774624, 3013.6108426086, 3018.15678689044, 3068.4780553153996, 3106.953774063359, 3110.6619461361597, 3147.0088994349203, 3149.9479691518795, 3171.6476427630796, 3452.55541124832]

>  <ZPE_kJmol>  (4) 
347.3638170215182

>  <E_elec_kJmol>  (4) 
-899090.2823548019

>  <E0_minus_Eelec_plus_ZPE_kJmol>  (4) 
0.0

>  <rxn>  (4) 
rmg_rxn_10664

>  <species_type>  (4) 
p1

>  <species_folder>  (4) 
rmg_rxn_10664_p2_CC=CONrbr-sbr-NH-sbr-rbrC

>  <frequencies_cm1_list>  (4) 
[39.766711988119994, 75.63297631448, 123.26238649399998, 170.50724549560002, 210.75464645612, 275.49658405307997, 409.25172411604, 436.20464149704003, 468.50694044231994, 500.21867865008005, 576.8748357772399, 635.10687129084, 759.24136492048, 839.57822617916, 939.32118795216, 961.2680730348799, 1009.44684204, 1040.7534281138799, 1058.9372052412398, 1116.31086758984, 1136.6302771517198, 1158.60463017572, 1269.5201770643598, 1302.9417946168, 1381.1704913822398, 1418.63676328816, 1428.2162078095598, 1447.1828212633998, 1467.8867820031996, 1473.94346305544, 1477.12974424392, 1484.2920099326798, 1743.06061774624, 3013.6108426086, 3018.15678689044, 3068.4780553153996, 3106.953774063359, 3110.6619461361597, 3147.0088994349203, 3149.9479691518795, 3171.6476427630796, 3452.55541124832]

>  <E0_kJmol>  (4) 
-898743

>  <H298_kJmol>  (4) 
-898718

$$$$

     RDKit          3D

  9  8  0  0  0  0  0  0  0  0999 V2000
   -1.1429   -0.0056    0.0357 C   0  0  0  0  0  0  0  0  0  1  0  0
    0.2348   -0.4846   -0.1988 C   0  0  0  0  0  0  0  0  0  2  0  0
    1.3889    0.3067    0.0768 C   0  0  0  0  0  0  0  0  0  3  0  0
    1.3416    1.4450    0.5289 O   0  0  0  0  0  1  0  0  0  4  0  0
   -1.7198   -0.0230   -0.8945 H   0  0  0  0  0  0  0  0  0  5  0  0
   -1.1399    1.0063    0.4362 H   0  0  0  0  0  0  0  0  0  6  0  0
   -1.6667   -0.6673    0.7330 H   0  0  0  0  0  0  0  0  0  7  0  0
    0.3900   -1.4812   -0.5984 H   0  0  0  0  0  0  0  0  0  8  0  0
    2.3646   -0.1624   -0.1407 H   0  0  0  0  0  0  0  0  0  9  0  0
  1  5  1  0
  1  7  1  0
  1  6  1  0
  1  2  1  0
  2  8  1  0
  2  3  1  0
  3  4  1  0
  3  9  1  0
M  RAD  1   4   2
M  END
>  <rmg_smiles>  (5) 
C[CH][CH][O]

>  <rmg_adjacency_list>  (5) 
multiplicity 2
1 O u1 p2 c0 {4,S}
2 C u0 p0 c0 {3,S} {5,S} {6,S} {7,S}
3 C u0 p0 c0 {2,S} {4,S} {8,S}
4 C u0 p0 c0 {1,S} {3,S} {9,S}
5 H u0 p0 c0 {2,S}
6 H u0 p0 c0 {2,S}
7 H u0 p0 c0 {2,S}
8 H u0 p0 c0 {3,S}
9 H u0 p0 c0 {4,S}


>  <multiplicity>  (5) 
2

>  <reaction>  (5) 
rmg_rxn_10664

>  <type>  (5) 
r2

>  <role_mapnums>  (5) 
{}

>  <role_mapidx>  (5) 
{}

>  <ordered_mapped_smiles>  (5) 
[C:1]([CH:2]([CH:3]([O:4])[H:9])[H:8])([H:5])([H:6])[H:7]

>  <level_of_theory>  (5) 
wb97xd/def2tzvp

>  <lot_method>  (5) 
wb97xd

>  <lot_basis>  (5) 
def2tzvp

>  <spin_multiplicity>  (5) 
2.0

>  <optical_isomers>  (5) 
1.0

>  <modes>  (5) 
IdealGasTranslation(mass=(57.034, 'amu')),         NonlinearRotor(             inertia = ([25.424, 86.3649, 108.698

>  <frequency_value>  (5) 
unknown

>  <frequency_units>  (5) 
unknown

>  <frequency_list>  (5) 
unknown

>  <arkane_path>  (5) 
/home/calvin/Dropbox/PersonalFolders/Calvin/ZEUS_Converged/rmg_rxn_10664/output/Species/rmg_rxn_10664_r1_Csbr-CH-sbrC=O/arkane/output.py

>  <path_exists>  (5) 
True

>  <E0_value>  (5) 
-505242.8208271292

>  <E0_units>  (5) 
kJ/mol

>  <thermo_class>  (5) 
NASA

>  <Cp0_value>  (5) 
33.257888

>  <Cp0_units>  (5) 
J/(mol*K)

>  <CpInf_value>  (5) 
207.8618

>  <CpInf_units>  (5) 
J/(mol*K)

>  <Tmin_value>  (5) 
10.0

>  <Tmin_units>  (5) 
K

>  <Tmax_value>  (5) 
3000.0

>  <Tmax_units>  (5) 
K

>  <polynomials>  (5) 
[{"name": "polynomial1", "class": "NASAPolynomial", "Tmin_value": 10.0, "Tmin_units": "K", "Tmax_value": 938.2669973342622, "Tmax_units": "K", "coeffs": [3.9259093685858493, 0.01196019072883362, 2.5341501396672662e-05, -3.6076915984479596e-08, 1.3343593079569793e-11, -60766678.2978354, 9.013077614198304]}, {"name": "polynomial2", "class": "NASAPolynomial", "Tmin_value": 938.2669973342622, "Tmin_units": "K", "Tmax_value": 3000.0, "Tmax_units": "K", "coeffs": [3.018256313827642, 0.026185969735707432, -1.3957659922254684e-05, 3.6102113348048374e-09, -3.6546557740365153e-13, -60766963.82911419, 10.904900936167808]}]

>  <H298_value>  (5) 
-120752.24261767376

>  <H298_units>  (5) 
kcal/mol

>  <S298_value>  (5) 
71.0958225531589

>  <S298_units>  (5) 
cal/(mol*K)

>  <Cp_T_value_list>  (5) 
[17.743186752246846, 21.456463249286237, 24.97072051855182, 28.14218279724017, 33.19981703063751, 36.74605518844461, 42.18197506342012, 44.89854134522886, 46.20404806778213]

>  <Cp_T_units>  (5) 
cal/(mol*K)

>  <T_list>  (5) 
[300.0, 400.0, 500.0, 600.0, 800.0, 1000.0, 1500.0, 2000.0, 2400.0]

>  <T_units>  (5) 
K

>  <yaml_path>  (5) 
/home/calvin/Dropbox/PersonalFolders/Calvin/ZEUS_Converged/rmg_rxn_10664/output/Species/rmg_rxn_10664_r1_Csbr-CH-sbrC=O/rmg_rxn_10664_r1_Csbr-CH-sbrC=O.yml

>  <frequencies_cm1>  (5) 
[96.35753801023998, 270.0098627823999, 301.66666510759995, 649.52067347752, 695.1929928408399, 884.1930298031999, 940.261964941, 1007.2562737229199, 1061.03850274916, 1168.4793550658799, 1375.1962141538397, 1396.95769063292, 1416.5285987949198, 1458.63008579184, 1479.0112982216, 1603.31746648424, 2929.05078537812, 2997.5970328423596, 3046.4006975116, 3120.79074948316, 3151.94626188]

>  <ZPE_kJmol>  (5) 
185.7167300702324

>  <E_elec_kJmol>  (5) 
-505428.5375571994

>  <E0_minus_Eelec_plus_ZPE_kJmol>  (5) 
0.0

>  <rxn>  (5) 
rmg_rxn_10664

>  <species_type>  (5) 
r0

>  <species_folder>  (5) 
rmg_rxn_10664_r1_Csbr-CH-sbrC=O

>  <frequencies_cm1_list>  (5) 
[96.35753801023998, 270.0098627823999, 301.66666510759995, 649.52067347752, 695.1929928408399, 884.1930298031999, 940.261964941, 1007.2562737229199, 1061.03850274916, 1168.4793550658799, 1375.1962141538397, 1396.95769063292, 1416.5285987949198, 1458.63008579184, 1479.0112982216, 1603.31746648424, 2929.05078537812, 2997.5970328423596, 3046.4006975116, 3120.79074948316, 3151.94626188]

>  <E0_kJmol>  (5) 
-505243

>  <H298_kJmol>  (5) 
-505227

$$$$
