
     RDKit          3D

 18 17  0  0  0  0  0  0  0  0999 V2000
    0.2337   -2.2614   -1.2610 C   0  0  0  0  0  0  0  0  0  1  0  0
    0.4793   -1.9118    0.1829 C   0  0  0  0  0  0  0  0  0  2  0  0
    0.8318   -0.4798    0.4604 C   0  0  0  0  0  0  0  0  0  3  0  0
   -0.2763    0.3485    0.1829 O   0  0  0  0  0  0  0  0  0  4  0  0
   -0.0106    1.7128    0.3922 C   0  0  0  0  0  0  0  0  0  5  0  0
   -1.2525    2.5099    0.0666 C   0  0  0  0  0  0  0  0  0  6  0  0
    1.0892   -1.9787   -1.8806 H   0  0  0  0  0  0  0  0  0  7  0  0
   -0.6421   -1.7344   -1.6494 H   0  0  0  0  0  0  0  0  0  8  0  0
    0.0653   -3.3324   -1.3864 H   0  0  0  0  0  0  0  0  0  9  0  0
    1.3675   -2.4678    0.4841 H   0  0  0  0  0  0  0  0  0 10  0  0
   -0.2898   -2.2854    0.8595 H   0  0  0  0  0  0  0  0  0 11  0  0
    1.6866   -0.1762   -0.1643 H   0  0  0  0  0  0  0  0  0 12  0  0
    1.1349   -0.3573    1.5109 H   0  0  0  0  0  0  0  0  0 13  0  0
    0.2910    1.8805    1.4368 H   0  0  0  0  0  0  0  0  0 14  0  0
    0.8292    2.0328   -0.2423 H   0  0  0  0  0  0  0  0  0 15  0  0
   -2.0817    2.2029    0.7049 H   0  0  0  0  0  0  0  0  0 16  0  0
   -1.5435    2.3560   -0.9731 H   0  0  0  0  0  0  0  0  0 17  0  0
   -1.0703    3.5745    0.2221 H   0  0  0  0  0  0  0  0  0 18  0  0
  1  8  1  0
  1  7  1  0
  1  9  1  0
  1  2  1  0
  2 10  1  0
  2 11  1  0
  2  3  1  0
  3  4  1  0
  3 13  1  0
  3 12  1  0
  4  5  1  0
  5  6  1  0
  5 14  1  0
  5 15  1  0
  6 17  1  0
  6 18  1  0
  6 16  1  0
M  END
>  <rmg_smiles>  (1) 
CCCOCC

>  <rmg_adjacency_list>  (1) 
1  O u0 p2 c0 {3,S} {4,S}
2  C u0 p0 c0 {3,S} {5,S} {7,S} {8,S}
3  C u0 p0 c0 {1,S} {2,S} {9,S} {10,S}
4  C u0 p0 c0 {1,S} {6,S} {11,S} {12,S}
5  C u0 p0 c0 {2,S} {13,S} {14,S} {15,S}
6  C u0 p0 c0 {4,S} {16,S} {17,S} {18,S}
7  H u0 p0 c0 {2,S}
8  H u0 p0 c0 {2,S}
9  H u0 p0 c0 {3,S}
10 H u0 p0 c0 {3,S}
11 H u0 p0 c0 {4,S}
12 H u0 p0 c0 {4,S}
13 H u0 p0 c0 {5,S}
14 H u0 p0 c0 {5,S}
15 H u0 p0 c0 {5,S}
16 H u0 p0 c0 {6,S}
17 H u0 p0 c0 {6,S}
18 H u0 p0 c0 {6,S}


>  <multiplicity>  (1) 
1

>  <reaction>  (1) 
rmg_rxn_216

>  <type>  (1) 
r1h

>  <role_mapnums>  (1) 
{"r1h_a": 2, "r1h_h": 10}

>  <role_mapidx>  (1) 
{"r1h_a": 1, "r1h_h": 9}

>  <ordered_mapped_smiles>  (1) 
[C:1]([C:2]([C:3]([O:4][C:5]([C:6]([H:16])([H:17])[H:18])([H:14])[H:15])([H:12])[H:13])([H:10])[H:11])([H:7])([H:8])[H:9]

>  <mol_properties>  (1) 
{"1": {"label": "donator", "atom_type": "Cs"}, "9": {"label": "d_hydrogen", "atom_type": "H0"}}

>  <level_of_theory>  (1) 
wb97xd/def2tzvp

>  <lot_method>  (1) 
wb97xd

>  <lot_basis>  (1) 
def2tzvp

>  <spin_multiplicity>  (1) 
1.0

>  <optical_isomers>  (1) 
2.0

>  <modes>  (1) 
IdealGasTranslation(mass=(88.0888, 'amu')),         NonlinearRotor(             inertia = ([59.5652, 317.445, 349.634

>  <frequency_value>  (1) 
unknown

>  <frequency_units>  (1) 
unknown

>  <frequency_list>  (1) 
unknown

>  <arkane_path>  (1) 
/home/calvin/Dropbox/PersonalFolders/Calvin/ATLAS_Converged/rmg_rxn_216/output/Species/rmg_rxn_216_r2_CCCOCC/arkane/output.py

>  <path_exists>  (1) 
True

>  <E0_value>  (1) 
-716327.3605709573

>  <E0_units>  (1) 
kJ/mol

>  <thermo_class>  (1) 
NASA

>  <Cp0_value>  (1) 
33.257888

>  <Cp0_units>  (1) 
J/(mol*K)

>  <CpInf_value>  (1) 
432.352544

>  <CpInf_units>  (1) 
J/(mol*K)

>  <Tmin_value>  (1) 
10.0

>  <Tmin_units>  (1) 
K

>  <Tmax_value>  (1) 
3000.0

>  <Tmax_units>  (1) 
K

>  <polynomials>  (1) 
[{"name": "polynomial1", "class": "NASAPolynomial", "Tmin_value": 10.0, "Tmin_units": "K", "Tmax_value": 424.14701041358796, "Tmax_units": "K", "coeffs": [3.4707042336928127, 0.05746545203879795, -0.00016719847115372115, 4.780470157694204e-07, -4.3347206706639054e-10, -86154279.58985142, 11.635447004604476]}, {"name": "polynomial2", "class": "NASAPolynomial", "Tmin_value": 424.14701041358796, "Tmin_units": "K", "Tmax_value": 3000.0, "Tmax_units": "K", "coeffs": [-2.8535624465972114, 0.06921008708460846, -3.934323609424939e-05, 1.0841890934368647e-08, -1.163418506360095e-12, -86153312.26572455, 41.80111524234505]}]

>  <H298_value>  (1) 
-171200.6815246165

>  <H298_units>  (1) 
kcal/mol

>  <S298_value>  (1) 
88.37399878129293

>  <S298_units>  (1) 
cal/(mol*K)

>  <Cp_T_value_list>  (1) 
[29.924593767526826, 38.16083070533892, 46.09960348181722, 53.05840207682852, 64.40406715451496, 72.91410593462665, 85.72980278110597, 92.03567805993791, 95.21197800865355]

>  <Cp_T_units>  (1) 
cal/(mol*K)

>  <T_list>  (1) 
[300.0, 400.0, 500.0, 600.0, 800.0, 1000.0, 1500.0, 2000.0, 2400.0]

>  <T_units>  (1) 
K

>  <yaml_path>  (1) 
/home/calvin/Dropbox/PersonalFolders/Calvin/ATLAS_Converged/rmg_rxn_216/output/Species/rmg_rxn_216_r2_CCCOCC/rmg_rxn_216_r2_CCCOCC.yml

>  <frequencies_cm1>  (1) 
[76.60808822992, 85.88538539723999, 152.39213822143998, 171.44115549912, 250.05440344247998, 256.05614861216003, 329.51915756551995, 440.0707542322, 493.7774464199199, 767.98990421816, 823.02879155796, 891.3896304185598, 900.4815189822399, 929.41899512072, 1002.9850088538799, 1082.00340893112, 1102.9065122452, 1152.52734816752, 1174.9617892079598, 1182.44680320676, 1190.2339645596398, 1270.1176047871998, 1295.23017010244, 1305.6473868328799, 1368.30176089256, 1380.4425909383199, 1399.7456866728398, 1405.4521514737598, 1443.92787022172, 1468.7794900948002, 1470.37949767436, 1482.5752636026798, 1487.2448136202797, 1494.6336898246, 1500.58049911172, 1519.49904366832, 2928.8997117010795, 2942.5512785172396, 2962.4655359452395, 2968.54281795344, 3015.14904732028, 3021.7276192568397, 3024.0692612509597, 3058.7338031463196, 3085.2403664815197, 3101.8035350733594, 3104.27564978856, 3105.2988306012394]

>  <ZPE_kJmol>  (1) 
431.0594598774012

>  <E_elec_kJmol>  (1) 
-716758.4200308347

>  <E0_minus_Eelec_plus_ZPE_kJmol>  (1) 
0.0

>  <rxn>  (1) 
rmg_rxn_216

>  <species_type>  (1) 
r1

>  <species_folder>  (1) 
rmg_rxn_216_r2_CCCOCC

>  <frequencies_cm1_list>  (1) 
[76.60808822992, 85.88538539723999, 152.39213822143998, 171.44115549912, 250.05440344247998, 256.05614861216003, 329.51915756551995, 440.0707542322, 493.7774464199199, 767.98990421816, 823.02879155796, 891.3896304185598, 900.4815189822399, 929.41899512072, 1002.9850088538799, 1082.00340893112, 1102.9065122452, 1152.52734816752, 1174.9617892079598, 1182.44680320676, 1190.2339645596398, 1270.1176047871998, 1295.23017010244, 1305.6473868328799, 1368.30176089256, 1380.4425909383199, 1399.7456866728398, 1405.4521514737598, 1443.92787022172, 1468.7794900948002, 1470.37949767436, 1482.5752636026798, 1487.2448136202797, 1494.6336898246, 1500.58049911172, 1519.49904366832, 2928.8997117010795, 2942.5512785172396, 2962.4655359452395, 2968.54281795344, 3015.14904732028, 3021.7276192568397, 3024.0692612509597, 3058.7338031463196, 3085.2403664815197, 3101.8035350733594, 3104.27564978856, 3105.2988306012394]

>  <E0_kJmol>  (1) 
-716327

>  <H298_kJmol>  (1) 
-716304

$$$$

     RDKit          3D

 14 13  0  0  0  0  0  0  0  0999 V2000
   -1.7855   -0.5748    0.4937 C   0  0  0  0  0  0  0  0  0  1  0  0
   -0.6908    0.2902   -0.0724 C   0  0  0  0  0  0  0  0  0  2  0  0
    0.7068   -0.3124    0.0828 C   0  0  0  0  0  0  0  0  0  3  0  0
    1.7996    0.5777   -0.4948 C   0  0  0  0  0  0  0  0  0  4  0  0
   -1.7747   -0.6781    1.5782 H   0  0  0  0  0  0  0  0  0  5  0  0
   -1.9067   -1.5382   -0.0007 H   0  0  0  0  0  0  0  0  0  6  0  0
   -0.7080    1.2714    0.4139 H   0  0  0  0  0  0  0  0  0  7  0  0
   -0.8804    0.4728   -1.1359 H   0  0  0  0  0  0  0  0  0  8  0  0
    0.9012   -0.4954    1.1438 H   0  0  0  0  0  0  0  0  0  9  0  0
    0.7299   -1.2908   -0.4062 H   0  0  0  0  0  0  0  0  0 10  0  0
    1.8132    1.5518   -0.0002 H   0  0  0  0  0  0  0  0  0 11  0  0
    1.6401    0.7509   -1.5617 H   0  0  0  0  0  0  0  0  0 12  0  0
    2.7863    0.1278   -0.3734 H   0  0  0  0  0  0  0  0  0 13  0  0
   -2.7265   -0.0676    0.2833 H   0  0  0  0  0  0  0  0  0 14  0  0
  1  6  1  0
  1  5  1  0
  1 14  1  0
  1  2  1  0
  2  8  1  0
  2  7  1  0
  2  3  1  0
  3  4  1  0
  3  9  1  0
  3 10  1  0
  4 13  1  0
  4 12  1  0
  4 11  1  0
M  END
>  <rmg_smiles>  (2) 
CCCC

>  <rmg_adjacency_list>  (2) 
1  C u0 p0 c0 {2,S} {3,S} {5,S} {6,S}
2  C u0 p0 c0 {1,S} {4,S} {7,S} {8,S}
3  C u0 p0 c0 {1,S} {9,S} {10,S} {14,S}
4  C u0 p0 c0 {2,S} {11,S} {12,S} {13,S}
5  H u0 p0 c0 {1,S}
6  H u0 p0 c0 {1,S}
7  H u0 p0 c0 {2,S}
8  H u0 p0 c0 {2,S}
9  H u0 p0 c0 {3,S}
10 H u0 p0 c0 {3,S}
11 H u0 p0 c0 {4,S}
12 H u0 p0 c0 {4,S}
13 H u0 p0 c0 {4,S}
14 H u0 p0 c0 {3,S}


>  <multiplicity>  (2) 
1

>  <reaction>  (2) 
rmg_rxn_216

>  <type>  (2) 
r2h

>  <role_mapnums>  (2) 
{"r2h_a": 1, "r2h_h": 14}

>  <role_mapidx>  (2) 
{"r2h_a": 0, "r2h_h": 13}

>  <ordered_mapped_smiles>  (2) 
[C:1]([C:2]([C:3]([C:4]([H:11])([H:12])[H:13])([H:9])[H:10])([H:7])[H:8])([H:5])([H:6])[H:14]

>  <mol_properties>  (2) 
{"0": {"label": "acceptor", "atom_type": "Cs"}, "13": {"label": "a_hydrogen", "atom_type": "H0"}}

>  <level_of_theory>  (2) 
wb97xd/def2tzvp

>  <lot_method>  (2) 
wb97xd

>  <lot_basis>  (2) 
def2tzvp

>  <spin_multiplicity>  (2) 
1.0

>  <optical_isomers>  (2) 
1.0

>  <modes>  (2) 
IdealGasTranslation(mass=(58.0782, 'amu')),         NonlinearRotor(             inertia = ([21.4183, 138.436, 147.416

>  <frequency_value>  (2) 
unknown

>  <frequency_units>  (2) 
unknown

>  <frequency_list>  (2) 
unknown

>  <arkane_path>  (2) 
/home/calvin/Dropbox/PersonalFolders/Calvin/ATLAS_Converged/rmg_rxn_216/output/Species/rmg_rxn_216_p1_CCCC/arkane/output.py

>  <path_exists>  (2) 
True

>  <E0_value>  (2) 
-415711.41832898464

>  <E0_units>  (2) 
kJ/mol

>  <thermo_class>  (2) 
NASA

>  <Cp0_value>  (2) 
33.257888

>  <Cp0_units>  (2) 
J/(mol*K)

>  <CpInf_value>  (2) 
332.57888

>  <CpInf_units>  (2) 
J/(mol*K)

>  <Tmin_value>  (2) 
10.0

>  <Tmin_units>  (2) 
K

>  <Tmax_value>  (2) 
3000.0

>  <Tmax_units>  (2) 
K

>  <polynomials>  (2) 
[{"name": "polynomial1", "class": "NASAPolynomial", "Tmin_value": 10.0, "Tmin_units": "K", "Tmax_value": 1023.9313796502983, "Tmax_units": "K", "coeffs": [3.915312463644713, 0.01517541002873624, 4.5084335290994185e-05, -5.4587733214883275e-08, 1.809224737534322e-11, -49998539.27344179, 7.72460687741266]}, {"name": "polynomial2", "class": "NASAPolynomial", "Tmin_value": 1023.9313796502983, "Tmin_units": "K", "Tmax_value": 3000.0, "Tmax_units": "K", "coeffs": [0.8507274705821314, 0.04414377479972052, -2.225156201937229e-05, 5.465003770168202e-09, -5.281559961508407e-13, -49998802.67660282, 18.231114479294114]}]

>  <H298_value>  (2) 
-99353.17132716803

>  <H298_units>  (2) 
kcal/mol

>  <S298_value>  (2) 
71.75555314482726

>  <S298_units>  (2) 
cal/(mol*K)

>  <Cp_T_value_list>  (2) 
[22.25314389791005, 28.155768552285178, 33.94426934374456, 39.3560764236786, 48.4307664337465, 55.005025310469016, 65.12269082747287, 70.35021656578002, 72.83519898707388]

>  <Cp_T_units>  (2) 
cal/(mol*K)

>  <T_list>  (2) 
[300.0, 400.0, 500.0, 600.0, 800.0, 1000.0, 1500.0, 2000.0, 2400.0]

>  <T_units>  (2) 
K

>  <yaml_path>  (2) 
/home/calvin/Dropbox/PersonalFolders/Calvin/ATLAS_Converged/rmg_rxn_216/output/Species/rmg_rxn_216_p1_CCCC/rmg_rxn_216_p1_CCCC.yml

>  <frequencies_cm1>  (2) 
[118.82631397728, 223.14268797339997, 258.52826332736, 261.60467275071994, 428.17026867263996, 734.7330943134, 811.1969758515999, 844.8314699489599, 960.4509017818, 978.6896147917199, 1024.5473427586799, 1072.66430889592, 1166.3643235873199, 1201.37221474868, 1281.9288195375998, 1314.3615912039597, 1324.0509074904799, 1391.1482210521997, 1402.6572884485197, 1403.6804692612, 1476.9512026256, 1478.5306092491999, 1484.4018816978, 1486.1941648663199, 1490.6508383389998, 1497.0371346866, 2996.77299460396, 3004.2511416174398, 3008.4880715598797, 3009.34644472488, 3022.160239332, 3044.19639522388, 3077.24032858372, 3080.7150231556398, 3085.37770618792, 3086.09873964652]

>  <ZPE_kJmol>  (2) 
344.1140654578597

>  <E_elec_kJmol>  (2) 
-416055.5323944425

>  <E0_minus_Eelec_plus_ZPE_kJmol>  (2) 
0.0

>  <rxn>  (2) 
rmg_rxn_216

>  <species_type>  (2) 
p0

>  <species_folder>  (2) 
rmg_rxn_216_p1_CCCC

>  <frequencies_cm1_list>  (2) 
[118.82631397728, 223.14268797339997, 258.52826332736, 261.60467275071994, 428.17026867263996, 734.7330943134, 811.1969758515999, 844.8314699489599, 960.4509017818, 978.6896147917199, 1024.5473427586799, 1072.66430889592, 1166.3643235873199, 1201.37221474868, 1281.9288195375998, 1314.3615912039597, 1324.0509074904799, 1391.1482210521997, 1402.6572884485197, 1403.6804692612, 1476.9512026256, 1478.5306092491999, 1484.4018816978, 1486.1941648663199, 1490.6508383389998, 1497.0371346866, 2996.77299460396, 3004.2511416174398, 3008.4880715598797, 3009.34644472488, 3022.160239332, 3044.19639522388, 3077.24032858372, 3080.7150231556398, 3085.37770618792, 3086.09873964652]

>  <E0_kJmol>  (2) 
-415711

>  <H298_kJmol>  (2) 
-415694

$$$$

     RDKit          3D

 31 29  0  0  0  0  0  0  0  0999 V2000
    0.9500   -2.1896    0.6949 C   0  0  0  0  0  3  0  0  0  1  0  0
    2.0448   -1.3246    0.1287 C   0  0  0  0  0  0  0  0  0  2  0  0
    3.4423   -1.9272    0.2839 C   0  0  0  0  0  0  0  0  0  3  0  0
    4.5351   -1.0371   -0.2936 C   0  0  0  0  0  0  0  0  0  4  0  0
    0.9609   -2.2929    1.7793 H   0  0  0  0  0  0  0  0  0  5  0  0
    0.8288   -3.1530    0.2005 H   0  0  0  0  0  0  0  0  0  6  0  0
    2.0275   -0.3434    0.6150 H   0  0  0  0  0  0  0  0  0  7  0  0
    1.8551   -1.1420   -0.9348 H   0  0  0  0  0  0  0  0  0  8  0  0
    3.6367   -2.1103    1.3449 H   0  0  0  0  0  0  0  0  0  9  0  0
    3.4654   -2.9057   -0.2050 H   0  0  0  0  0  0  0  0  0 10  0  0
    4.5487   -0.0630    0.2010 H   0  0  0  0  0  0  0  0  0 11  0  0
    4.3756   -0.8640   -1.3605 H   0  0  0  0  0  0  0  0  0 12  0  0
    5.5218   -1.4870   -0.1722 H   0  0  0  0  0  0  0  0  0 13  0  0
   -1.5529   -1.2283   -1.3790 C   0  0  0  0  0  0  0  0  0 14  0  0
   -1.3073   -0.8786    0.0650 C   0  0  0  0  0  0  0  0  0 15  0  0
   -0.9548    0.5534    0.3424 C   0  0  0  0  0  0  0  0  0 16  0  0
   -2.0629    1.3816    0.0650 O   0  0  0  0  0  0  0  0  0 17  0  0
   -1.7972    2.7460    0.2742 C   0  0  0  0  0  0  0  0  0 18  0  0
   -3.0390    3.5431   -0.0513 C   0  0  0  0  0  0  0  0  0 19  0  0
   -0.6974   -0.9455   -1.9986 H   0  0  0  0  0  0  0  0  0 20  0  0
   -2.4287   -0.7013   -1.7673 H   0  0  0  0  0  0  0  0  0 21  0  0
   -1.7213   -2.2992   -1.5043 H   0  0  0  0  0  0  0  0  0 22  0  0
   -0.2231   -1.5573    0.4325 H   0  0  0  0  0  0  0  0  0 23  0  0
   -2.0764   -1.2523    0.7415 H   0  0  0  0  0  0  0  0  0 24  0  0
   -0.1000    0.8569   -0.2822 H   0  0  0  0  0  0  0  0  0 25  0  0
   -0.6517    0.6758    1.3930 H   0  0  0  0  0  0  0  0  0 26  0  0
   -1.4955    2.9136    1.3189 H   0  0  0  0  0  0  0  0  0 27  0  0
   -0.9574    3.0659   -0.3603 H   0  0  0  0  0  0  0  0  0 28  0  0
   -3.8683    3.2360    0.5870 H   0  0  0  0  0  0  0  0  0 29  0  0
   -3.3300    3.3892   -1.0910 H   0  0  0  0  0  0  0  0  0 30  0  0
   -2.8569    4.6076    0.1042 H   0  0  0  0  0  0  0  0  0 31  0  0
  1  5  1  0
  1  6  1  0
  1  2  1  0
  2  8  1  0
  2  3  1  0
  2  7  1  0
  3  4  1  0
  3  9  1  0
  3 10  1  0
  4 11  1  0
  4 12  1  0
  4 13  1  0
 14 15  1  0
 14 20  1  0
 14 22  1  0
 14 21  1  0
 15 23  1  0
 15 16  1  0
 15 24  1  0
 16 17  1  0
 16 26  1  0
 16 25  1  0
 17 18  1  0
 18 19  1  0
 18 28  1  0
 18 27  1  0
 19 31  1  0
 19 29  1  0
 19 30  1  0
M  RAD  1   1   2
M  END
>  <rmg_smiles>  (3) 
CCCOCC.[CH2]CCC

>  <rmg_adjacency_list>  (3) 
multiplicity 2
1  O u0 p2 c0 {5,S} {6,S}
2  C u0 p0 c0 {4,S} {7,S} {11,S} {12,S}
3  C u0 p0 c0 {5,S} {8,S} {13,S} {14,S}
4  C u0 p0 c0 {2,S} {10,S} {15,S} {16,S}
5  C u0 p0 c0 {1,S} {3,S} {17,S} {18,S}
6  C u0 p0 c0 {1,S} {9,S} {19,S} {20,S}
7  C u0 p0 c0 {2,S} {21,S} {22,S} {23,S}
8  C u0 p0 c0 {3,S} {24,S} {25,S} {26,S}
9  C u0 p0 c0 {6,S} {27,S} {28,S} {29,S}
10 C u1 p0 c0 {4,S} {30,S} {31,S}
11 H u0 p0 c0 {2,S}
12 H u0 p0 c0 {2,S}
13 H u0 p0 c0 {3,S}
14 H u0 p0 c0 {3,S}
15 H u0 p0 c0 {4,S}
16 H u0 p0 c0 {4,S}
17 H u0 p0 c0 {5,S}
18 H u0 p0 c0 {5,S}
19 H u0 p0 c0 {6,S}
20 H u0 p0 c0 {6,S}
21 H u0 p0 c0 {7,S}
22 H u0 p0 c0 {7,S}
23 H u0 p0 c0 {7,S}
24 H u0 p0 c0 {8,S}
25 H u0 p0 c0 {8,S}
26 H u0 p0 c0 {8,S}
27 H u0 p0 c0 {9,S}
28 H u0 p0 c0 {9,S}
29 H u0 p0 c0 {9,S}
30 H u0 p0 c0 {10,S}
31 H u0 p0 c0 {10,S}


>  <multiplicity>  (3) 
2

>  <reaction>  (3) 
rmg_rxn_216

>  <type>  (3) 
ts

>  <role_mapnums>  (3) 
{"*2": 23, "*1": 15, "*3": 1, "*0": 16, "*4": 2}

>  <role_mapidx>  (3) 
{"*2": 22, "*1": 14, "*3": 0, "*0": 15, "*4": 1}

>  <ordered_mapped_smiles>  (3) 
[C:1]([C:2]([C:3]([C:4]([H:11])([H:12])[H:13])([H:9])[H:10])([H:7])[H:8])([H:5])[H:6].[C:14]([C:15]([C:16]([O:17][C:18]([C:19]([H:29])([H:30])[H:31])([H:27])[H:28])([H:25])[H:26])([H:23])[H:24])([H:20])([H:21])[H:22]

>  <mol_properties>  (3) 
{"0": {"label": "*3", "atom_type": "Cs"}, "1": {"label": "*4", "atom_type": "Cs"}, "14": {"label": "*1", "atom_type": "Cs"}, "15": {"label": "*0", "atom_type": "Cs"}, "22": {"label": "*2", "atom_type": "H0"}}

>  <level_of_theory>  (3) 
wb97xd/def2tzvp

>  <lot_method>  (3) 
wb97xd

>  <lot_basis>  (3) 
def2tzvp

>  <spin_multiplicity>  (3) 
2.0

>  <optical_isomers>  (3) 
2.0

>  <modes>  (3) 
IdealGasTranslation(mass=(145.159, 'amu')),         NonlinearRotor(             inertia = ([271.493, 1270.02, 1433.94

>  <frequency_value>  (3) 
-1710.39

>  <frequency_units>  (3) 
cm^-1

>  <frequency_list>  (3) 
unknown

>  <arkane_path>  (3) 
/home/calvin/Dropbox/PersonalFolders/Calvin/ATLAS_Converged/rmg_rxn_216/output/rxns/TS0/arkane/output.py

>  <path_exists>  (3) 
True

>  <E0_value>  (3) 
-1130250.0

>  <E0_units>  (3) 
kJ/mol

>  <thermo_class>  (3) 
unknown

>  <Cp0_value>  (3) 
unknown

>  <Cp0_units>  (3) 
unknown

>  <CpInf_value>  (3) 
unknown

>  <CpInf_units>  (3) 
unknown

>  <Tmin_value>  (3) 
unknown

>  <Tmin_units>  (3) 
unknown

>  <Tmax_value>  (3) 
unknown

>  <Tmax_units>  (3) 
unknown

>  <polynomials>  (3) 
unknown

>  <H298_value>  (3) 
unknown

>  <H298_units>  (3) 
unknown

>  <S298_value>  (3) 
unknown

>  <S298_units>  (3) 
unknown

>  <Cp_T_value_list>  (3) 
unknown

>  <Cp_T_units>  (3) 
unknown

>  <T_list>  (3) 
unknown

>  <T_units>  (3) 
unknown

>  <yaml_path>  (3) 
unknown

>  <frequencies_cm1>  (3) 
unknown

>  <ZPE_kJmol>  (3) 
unknown

>  <E_elec_kJmol>  (3) 
unknown

>  <E0_minus_Eelec_plus_ZPE_kJmol>  (3) 
unknown

>  <rxn>  (3) 
unknown

>  <species_type>  (3) 
unknown

>  <species_folder>  (3) 
unknown

>  <frequencies_cm1_list>  (3) 
[]

>  <ts_imag_freq_cm1>  (3) 
-1731.1621

>  <ts_freq_out_path>  (3) 
/home/calvin/Dropbox/PersonalFolders/Calvin/ATLAS_Converged/rmg_rxn_216/output/rxns/TS0/geometry/freq.out

>  <E0_kJmol>  (3) 
-1.13025e+06

>  <H298_kJmol>  (3) 
unknown

$$$$

     RDKit          3D

 17 16  0  0  0  0  0  0  0  0999 V2000
    2.3993   -0.7259   -0.8796 C   0  0  0  0  0  0  0  0  0  1  0  0
    1.8173   -0.7170    0.4851 C   0  0  0  0  0  3  0  0  0  2  0  0
    2.6779   -0.5182    1.6852 C   0  0  0  0  0  0  0  0  0  3  0  0
    3.8710   -1.2723    1.6674 O   0  0  0  0  0  0  0  0  0  4  0  0
    3.6589   -2.6587    1.8015 C   0  0  0  0  0  0  0  0  0  5  0  0
    4.9969   -3.3586    1.7556 C   0  0  0  0  0  0  0  0  0  6  0  0
    3.3755   -1.2152   -0.8894 H   0  0  0  0  0  0  0  0  0  7  0  0
    1.7457   -1.2284   -1.5943 H   0  0  0  0  0  0  0  0  0  8  0  0
    2.5578    0.2962   -1.2545 H   0  0  0  0  0  0  0  0  0  9  0  0
    0.7445   -0.6275    0.6059 H   0  0  0  0  0  0  0  0  0 10  0  0
    2.1057   -0.7316    2.5992 H   0  0  0  0  0  0  0  0  0 11  0  0
    3.0103    0.5272    1.7516 H   0  0  0  0  0  0  0  0  0 12  0  0
    3.0050   -3.0235    0.9977 H   0  0  0  0  0  0  0  0  0 13  0  0
    3.1469   -2.8645    2.7531 H   0  0  0  0  0  0  0  0  0 14  0  0
    5.6430   -3.0039    2.5594 H   0  0  0  0  0  0  0  0  0 15  0  0
    4.8641   -4.4360    1.8660 H   0  0  0  0  0  0  0  0  0 16  0  0
    5.4957   -3.1672    0.8046 H   0  0  0  0  0  0  0  0  0 17  0  0
  1  8  1  0
  1  7  1  0
  1  9  1  0
  1  2  1  0
  2 10  1  0
  2  3  1  0
  3 11  1  0
  3  4  1  0
  3 12  1  0
  4  5  1  0
  5 13  1  0
  5  6  1  0
  5 14  1  0
  6 17  1  0
  6 15  1  0
  6 16  1  0
M  RAD  1   2   2
M  END
>  <rmg_smiles>  (4) 
C[CH]COCC

>  <rmg_adjacency_list>  (4) 
multiplicity 2
1  O u0 p2 c0 {2,S} {3,S}
2  C u0 p0 c0 {1,S} {4,S} {7,S} {8,S}
3  C u0 p0 c0 {1,S} {6,S} {9,S} {10,S}
4  C u0 p0 c0 {2,S} {11,S} {12,S} {13,S}
5  C u0 p0 c0 {6,S} {14,S} {15,S} {16,S}
6  C u1 p0 c0 {3,S} {5,S} {17,S}
7  H u0 p0 c0 {2,S}
8  H u0 p0 c0 {2,S}
9  H u0 p0 c0 {3,S}
10 H u0 p0 c0 {3,S}
11 H u0 p0 c0 {4,S}
12 H u0 p0 c0 {4,S}
13 H u0 p0 c0 {4,S}
14 H u0 p0 c0 {5,S}
15 H u0 p0 c0 {5,S}
16 H u0 p0 c0 {5,S}
17 H u0 p0 c0 {6,S}


>  <multiplicity>  (4) 
2

>  <reaction>  (4) 
rmg_rxn_216

>  <type>  (4) 
r1

>  <role_mapnums>  (4) 
{}

>  <role_mapidx>  (4) 
{}

>  <ordered_mapped_smiles>  (4) 
[C:1]([C:2]([C:3]([O:4][C:5]([C:6]([H:15])([H:16])[H:17])([H:13])[H:14])([H:11])[H:12])[H:10])([H:7])([H:8])[H:9]

>  <level_of_theory>  (4) 
wb97xd/def2tzvp

>  <lot_method>  (4) 
wb97xd

>  <lot_basis>  (4) 
def2tzvp

>  <spin_multiplicity>  (4) 
2.0

>  <optical_isomers>  (4) 
2.0

>  <modes>  (4) 
IdealGasTranslation(mass=(87.081, 'amu')),         NonlinearRotor(             inertia = ([77.2255, 257.211, 294.472

>  <frequency_value>  (4) 
unknown

>  <frequency_units>  (4) 
unknown

>  <frequency_list>  (4) 
unknown

>  <arkane_path>  (4) 
/home/calvin/Dropbox/PersonalFolders/Calvin/ATLAS_Converged/rmg_rxn_216/output/Species/rmg_rxn_216_p2_Csbr-CH-sbrCOCC/arkane/output.py

>  <path_exists>  (4) 
True

>  <E0_value>  (4) 
-714606.8253684428

>  <E0_units>  (4) 
kJ/mol

>  <thermo_class>  (4) 
NASA

>  <Cp0_value>  (4) 
33.257888

>  <Cp0_units>  (4) 
J/(mol*K)

>  <CpInf_value>  (4) 
407.409128

>  <CpInf_units>  (4) 
J/(mol*K)

>  <Tmin_value>  (4) 
10.0

>  <Tmin_units>  (4) 
K

>  <Tmax_value>  (4) 
3000.0

>  <Tmax_units>  (4) 
K

>  <polynomials>  (4) 
[{"name": "polynomial1", "class": "NASAPolynomial", "Tmin_value": 10.0, "Tmin_units": "K", "Tmax_value": 417.48366752766907, "Tmax_units": "K", "coeffs": [3.371710260367717, 0.06751515529081918, -0.00021419326134089478, 5.55321486035094e-07, -4.841487901490717e-10, -85947346.52177061, 12.699399549539766]}, {"name": "polynomial2", "class": "NASAPolynomial", "Tmin_value": 417.48366752766907, "Tmin_units": "K", "Tmax_value": 3000.0, "Tmax_units": "K", "coeffs": [-0.983429943910518, 0.06366224875335745, -3.6581500232475296e-05, 1.0182072217773507e-08, -1.102266081168474e-12, -85946585.66515122, 34.66344723069078]}]

>  <H298_value>  (4) 
-170789.2030444093

>  <H298_units>  (4) 
kcal/mol

>  <S298_value>  (4) 
92.32827304571522

>  <S298_units>  (4) 
cal/(mol*K)

>  <Cp_T_value_list>  (4) 
[30.644588740591573, 38.260117272479235, 45.51932326502992, 51.86818248028013, 62.191498797087384, 69.90421091576034, 81.44732642755689, 87.10996617013711, 89.98657049419913]

>  <Cp_T_units>  (4) 
cal/(mol*K)

>  <T_list>  (4) 
[300.0, 400.0, 500.0, 600.0, 800.0, 1000.0, 1500.0, 2000.0, 2400.0]

>  <T_units>  (4) 
K

>  <yaml_path>  (4) 
/home/calvin/Dropbox/PersonalFolders/Calvin/ATLAS_Converged/rmg_rxn_216/output/Species/rmg_rxn_216_p2_Csbr-CH-sbrCOCC/rmg_rxn_216_p2_Csbr-CH-sbrCOCC.yml

>  <frequencies_cm1>  (4) 
[58.486113970439995, 80.89995405491999, 91.01502343127999, 148.7045671046, 233.68351043959998, 268.54032792391996, 295.53444721683996, 386.91342087008, 426.66639888756004, 628.1780831029599, 820.4468050776399, 853.1130542448799, 876.6050110245999, 927.82585452648, 984.0183954000399, 1025.0280317310799, 1086.20600394696, 1127.14010343948, 1146.72474557212, 1165.95917145344, 1177.46823884976, 1286.9897877184399, 1294.8456189245198, 1363.7489496253997, 1371.8863272295998, 1388.0786786141598, 1403.05557359708, 1423.88314007264, 1459.15197667616, 1465.5382730237598, 1469.9674785551601, 1470.4687684835199, 1486.8533954570398, 1514.4861443847199, 2944.5564382306798, 2947.06288787248, 2949.60367244088, 2978.74029115364, 2981.5557551348397, 3022.6203273484402, 3042.07449676, 3090.13652701468, 3099.94258205164, 3102.6756422089998, 3156.8286884425197]

>  <ZPE_kJmol>  (4) 
391.920120724621

>  <E_elec_kJmol>  (4) 
-714998.7454891674

>  <E0_minus_Eelec_plus_ZPE_kJmol>  (4) 
0.0

>  <rxn>  (4) 
rmg_rxn_216

>  <species_type>  (4) 
p1

>  <species_folder>  (4) 
rmg_rxn_216_p2_Csbr-CH-sbrCOCC

>  <frequencies_cm1_list>  (4) 
[58.486113970439995, 80.89995405491999, 91.01502343127999, 148.7045671046, 233.68351043959998, 268.54032792391996, 295.53444721683996, 386.91342087008, 426.66639888756004, 628.1780831029599, 820.4468050776399, 853.1130542448799, 876.6050110245999, 927.82585452648, 984.0183954000399, 1025.0280317310799, 1086.20600394696, 1127.14010343948, 1146.72474557212, 1165.95917145344, 1177.46823884976, 1286.9897877184399, 1294.8456189245198, 1363.7489496253997, 1371.8863272295998, 1388.0786786141598, 1403.05557359708, 1423.88314007264, 1459.15197667616, 1465.5382730237598, 1469.9674785551601, 1470.4687684835199, 1486.8533954570398, 1514.4861443847199, 2944.5564382306798, 2947.06288787248, 2949.60367244088, 2978.74029115364, 2981.5557551348397, 3022.6203273484402, 3042.07449676, 3090.13652701468, 3099.94258205164, 3102.6756422089998, 3156.8286884425197]

>  <E0_kJmol>  (4) 
-714607

>  <H298_kJmol>  (4) 
-714582

$$$$

     RDKit          3D

 13 12  0  0  0  0  0  0  0  0999 V2000
    2.0654   -0.2739   -0.0844 C   0  0  0  0  0  3  0  0  0  1  0  0
    0.6326   -0.4110   -0.4406 C   0  0  0  0  0  0  0  0  0  2  0  0
   -0.3055    0.4151    0.4359 C   0  0  0  0  0  0  0  0  0  3  0  0
   -1.7714    0.2357    0.0671 C   0  0  0  0  0  0  0  0  0  4  0  0
    2.3610    0.0676    0.8995 H   0  0  0  0  0  0  0  0  0  5  0  0
    2.8408   -0.6127   -0.7582 H   0  0  0  0  0  0  0  0  0  6  0  0
    0.3313   -1.4695   -0.3768 H   0  0  0  0  0  0  0  0  0  7  0  0
    0.4826   -0.1432   -1.4940 H   0  0  0  0  0  0  0  0  0  8  0  0
   -0.1518    0.1351    1.4826 H   0  0  0  0  0  0  0  0  0  9  0  0
   -0.0303    1.4705    0.3565 H   0  0  0  0  0  0  0  0  0 10  0  0
   -2.0768   -0.8084    0.1692 H   0  0  0  0  0  0  0  0  0 11  0  0
   -1.9546    0.5339   -0.9679 H   0  0  0  0  0  0  0  0  0 12  0  0
   -2.4194    0.8370    0.7066 H   0  0  0  0  0  0  0  0  0 13  0  0
  1  5  1  0
  1  6  1  0
  1  2  1  0
  2  8  1  0
  2  7  1  0
  2  3  1  0
  3  4  1  0
  3  9  1  0
  3 10  1  0
  4 13  1  0
  4 12  1  0
  4 11  1  0
M  RAD  1   1   2
M  END
>  <rmg_smiles>  (5) 
[CH2]CCC

>  <rmg_adjacency_list>  (5) 
multiplicity 2
1  C u0 p0 c0 {2,S} {3,S} {5,S} {6,S}
2  C u0 p0 c0 {1,S} {4,S} {7,S} {8,S}
3  C u0 p0 c0 {1,S} {9,S} {10,S} {11,S}
4  C u1 p0 c0 {2,S} {12,S} {13,S}
5  H u0 p0 c0 {1,S}
6  H u0 p0 c0 {1,S}
7  H u0 p0 c0 {2,S}
8  H u0 p0 c0 {2,S}
9  H u0 p0 c0 {3,S}
10 H u0 p0 c0 {3,S}
11 H u0 p0 c0 {3,S}
12 H u0 p0 c0 {4,S}
13 H u0 p0 c0 {4,S}


>  <multiplicity>  (5) 
2

>  <reaction>  (5) 
rmg_rxn_216

>  <type>  (5) 
r2

>  <role_mapnums>  (5) 
{}

>  <role_mapidx>  (5) 
{}

>  <ordered_mapped_smiles>  (5) 
[C:1]([C:2]([C:3]([C:4]([H:11])([H:12])[H:13])([H:9])[H:10])([H:7])[H:8])([H:5])[H:6]

>  <level_of_theory>  (5) 
wb97xd/def2tzvp

>  <lot_method>  (5) 
wb97xd

>  <lot_basis>  (5) 
def2tzvp

>  <spin_multiplicity>  (5) 
2.0

>  <optical_isomers>  (5) 
2.0

>  <modes>  (5) 
IdealGasTranslation(mass=(57.0704, 'amu')),         NonlinearRotor(             inertia = ([19.9061, 131.501, 141.822

>  <frequency_value>  (5) 
unknown

>  <frequency_units>  (5) 
unknown

>  <frequency_list>  (5) 
unknown

>  <arkane_path>  (5) 
/home/calvin/Dropbox/PersonalFolders/Calvin/ATLAS_Converged/rmg_rxn_216/output/Species/rmg_rxn_216_r1_sbr-CH2-sbrCCC/arkane/output.py

>  <path_exists>  (5) 
True

>  <E0_value>  (5) 
-413980.515065041

>  <E0_units>  (5) 
kJ/mol

>  <thermo_class>  (5) 
NASA

>  <Cp0_value>  (5) 
33.257888

>  <Cp0_units>  (5) 
J/(mol*K)

>  <CpInf_value>  (5) 
307.635464

>  <CpInf_units>  (5) 
J/(mol*K)

>  <Tmin_value>  (5) 
10.0

>  <Tmin_units>  (5) 
K

>  <Tmax_value>  (5) 
3000.0

>  <Tmax_units>  (5) 
K

>  <polynomials>  (5) 
[{"name": "polynomial1", "class": "NASAPolynomial", "Tmin_value": 10.0, "Tmin_units": "K", "Tmax_value": 1154.93799035051, "Tmax_units": "K", "coeffs": [3.8608583449208367, 0.02312895427514024, 1.718157563784362e-05, -2.653261595233422e-08, 8.598323666501713e-12, -49790358.451797806, 9.98302976614612]}, {"name": "polynomial2", "class": "NASAPolynomial", "Tmin_value": 1154.93799035051, "Tmin_units": "K", "Tmax_value": 3000.0, "Tmax_units": "K", "coeffs": [5.006671859828862, 0.03390757519761412, -1.5970386346220703e-05, 3.659460065945614e-09, -3.3024942479245143e-13, -49791606.659514256, 0.032118084025620754]}]

>  <H298_value>  (5) 
-98939.19157782634

>  <H298_units>  (5) 
kcal/mol

>  <S298_value>  (5) 
78.32957530726806

>  <S298_units>  (5) 
cal/(mol*K)

>  <Cp_T_value_list>  (5) 
[23.248631358892137, 28.583028071211853, 33.66635358076252, 38.36678892872091, 46.296753040816824, 52.13852768190894, 60.835257561392275, 65.44261811889302, 67.61851586744878]

>  <Cp_T_units>  (5) 
cal/(mol*K)

>  <T_list>  (5) 
[300.0, 400.0, 500.0, 600.0, 800.0, 1000.0, 1500.0, 2000.0, 2400.0]

>  <T_units>  (5) 
K

>  <yaml_path>  (5) 
/home/calvin/Dropbox/PersonalFolders/Calvin/ATLAS_Converged/rmg_rxn_216/output/Species/rmg_rxn_216_r1_sbr-CH2-sbrCCC/rmg_rxn_216_r1_sbr-CH2-sbrCCC.yml

>  <frequencies_cm1>  (5) 
[73.35313718823998, 132.16886645403997, 238.64147384063997, 264.99696349879997, 431.39775177304, 467.79277396904, 728.50473862816, 827.3275243682799, 860.37832471344, 963.38310451344, 1040.3208080387199, 1067.46600100868, 1094.96141022996, 1160.5617209919199, 1239.42904739212, 1306.10747484932, 1314.7118074552798, 1388.4151608948398, 1404.06502043912, 1451.2686775288, 1453.0952956239198, 1480.39842925624, 1485.157250083, 1493.0199482744, 2921.4421656435597, 2989.1849758253597, 3008.40566773604, 3009.2159720037994, 3044.3474689009204, 3079.04634572288, 3088.11076634528, 3121.2096355876797, 3223.96720391616]

>  <ZPE_kJmol>  (5) 
304.16171338229066

>  <E_elec_kJmol>  (5) 
-414284.6767784233

>  <E0_minus_Eelec_plus_ZPE_kJmol>  (5) 
0.0

>  <rxn>  (5) 
rmg_rxn_216

>  <species_type>  (5) 
r0

>  <species_folder>  (5) 
rmg_rxn_216_r1_sbr-CH2-sbrCCC

>  <frequencies_cm1_list>  (5) 
[73.35313718823998, 132.16886645403997, 238.64147384063997, 264.99696349879997, 431.39775177304, 467.79277396904, 728.50473862816, 827.3275243682799, 860.37832471344, 963.38310451344, 1040.3208080387199, 1067.46600100868, 1094.96141022996, 1160.5617209919199, 1239.42904739212, 1306.10747484932, 1314.7118074552798, 1388.4151608948398, 1404.06502043912, 1451.2686775288, 1453.0952956239198, 1480.39842925624, 1485.157250083, 1493.0199482744, 2921.4421656435597, 2989.1849758253597, 3008.40566773604, 3009.2159720037994, 3044.3474689009204, 3079.04634572288, 3088.11076634528, 3121.2096355876797, 3223.96720391616]

>  <E0_kJmol>  (5) 
-413981

>  <H298_kJmol>  (5) 
-413962

$$$$
