
     RDKit          3D

 15 14  0  0  0  0  0  0  0  0999 V2000
    2.0946    0.6573    0.3951 C   0  0  0  0  0  0  0  0  0  1  0  0
    0.7311    1.2071    0.0674 C   0  0  0  0  0  0  0  0  0  2  0  0
   -0.6729    0.2712    0.7198 S   0  0  0  0  0  0  0  0  0  3  0  0
   -0.5867   -1.2728   -0.2197 C   0  0  0  0  0  0  0  0  0  4  0  0
   -0.8618   -1.1319   -1.7072 C   0  0  0  0  0  0  0  0  0  5  0  0
    2.3418   -0.1702   -0.2690 H   0  0  0  0  0  0  0  0  0  6  0  0
    2.9037    1.3527    0.1712 H   0  0  0  0  0  0  0  0  0  7  0  0
    2.1825    0.2408    1.3970 H   0  0  0  0  0  0  0  0  0  8  0  0
    0.6051    2.1953    0.5205 H   0  0  0  0  0  0  0  0  0  9  0  0
    0.6141    1.3516   -1.0091 H   0  0  0  0  0  0  0  0  0 10  0  0
    0.3790   -1.7464   -0.0415 H   0  0  0  0  0  0  0  0  0 11  0  0
   -1.3406   -1.9079    0.2485 H   0  0  0  0  0  0  0  0  0 12  0  0
   -0.1245   -0.4896   -2.1912 H   0  0  0  0  0  0  0  0  0 13  0  0
   -1.8487   -0.7019   -1.8810 H   0  0  0  0  0  0  0  0  0 14  0  0
   -0.8173   -2.1084   -2.1952 H   0  0  0  0  0  0  0  0  0 15  0  0
  1  8  1  0
  1  7  1  0
  1  6  1  0
  1  2  1  0
  2 10  1  0
  2  9  1  0
  2  3  1  0
  3  4  1  0
  4  5  1  0
  4 12  1  0
  4 11  1  0
  5 13  1  0
  5 14  1  0
  5 15  1  0
M  END
>  <rmg_smiles>  (1) 
CCSCC

>  <rmg_adjacency_list>  (1) 
1  S u0 p2 c0 {2,S} {3,S}
2  C u0 p0 c0 {1,S} {4,S} {6,S} {7,S}
3  C u0 p0 c0 {1,S} {5,S} {8,S} {9,S}
4  C u0 p0 c0 {2,S} {10,S} {11,S} {12,S}
5  C u0 p0 c0 {3,S} {13,S} {14,S} {15,S}
6  H u0 p0 c0 {2,S}
7  H u0 p0 c0 {2,S}
8  H u0 p0 c0 {3,S}
9  H u0 p0 c0 {3,S}
10 H u0 p0 c0 {4,S}
11 H u0 p0 c0 {4,S}
12 H u0 p0 c0 {4,S}
13 H u0 p0 c0 {5,S}
14 H u0 p0 c0 {5,S}
15 H u0 p0 c0 {5,S}


>  <multiplicity>  (1) 
1

>  <reaction>  (1) 
rmg_rxn_158

>  <type>  (1) 
r1h

>  <role_mapnums>  (1) 
{"r1h_a": 1, "r1h_h": 6}

>  <role_mapidx>  (1) 
{"r1h_a": 0, "r1h_h": 5}

>  <ordered_mapped_smiles>  (1) 
[C:1]([C:2]([S:3][C:4]([C:5]([H:13])([H:14])[H:15])([H:11])[H:12])([H:9])[H:10])([H:6])([H:7])[H:8]

>  <mol_properties>  (1) 
{"0": {"label": "donator", "atom_type": "Cs"}, "5": {"label": "d_hydrogen", "atom_type": "H0"}}

>  <level_of_theory>  (1) 
wb97xd/def2tzvp

>  <lot_method>  (1) 
wb97xd

>  <lot_basis>  (1) 
def2tzvp

>  <spin_multiplicity>  (1) 
1.0

>  <optical_isomers>  (1) 
2.0

>  <modes>  (1) 
IdealGasTranslation(mass=(90.0503, 'amu')),         NonlinearRotor(             inertia = ([97.9259, 182.785, 231.685

>  <frequency_value>  (1) 
unknown

>  <frequency_units>  (1) 
unknown

>  <frequency_list>  (1) 
unknown

>  <arkane_path>  (1) 
/home/calvin/Dropbox/PersonalFolders/Calvin/ATLAS_Converged/rmg_rxn_158/output/Species/rmg_rxn_158_r1_CCSCC/arkane/output.py

>  <path_exists>  (1) 
True

>  <E0_value>  (1) 
-1461176.7123028408

>  <E0_units>  (1) 
kJ/mol

>  <thermo_class>  (1) 
NASA

>  <Cp0_value>  (1) 
33.257888

>  <Cp0_units>  (1) 
J/(mol*K)

>  <CpInf_value>  (1) 
357.522296

>  <CpInf_units>  (1) 
J/(mol*K)

>  <Tmin_value>  (1) 
10.0

>  <Tmin_units>  (1) 
K

>  <Tmax_value>  (1) 
3000.0

>  <Tmax_units>  (1) 
K

>  <polynomials>  (1) 
[{"name": "polynomial1", "class": "NASAPolynomial", "Tmin_value": 10.0, "Tmin_units": "K", "Tmax_value": 1062.740332266501, "Tmax_units": "K", "coeffs": [3.7240768769611408, 0.031177750271788266, 1.590200165997747e-05, -3.1138888238628924e-08, 1.1081299545578661e-11, -175738967.30653694, 10.691637972640313]}, {"name": "polynomial2", "class": "NASAPolynomial", "Tmin_value": 1062.740332266501, "Tmin_units": "K", "Tmax_value": 3000.0, "Tmax_units": "K", "coeffs": [4.272256190616837, 0.04355880957526612, -2.1960566897444118e-05, 5.4018330156847166e-09, -5.231130586129144e-13, -175739899.50439465, 4.175990433518907]}]

>  <H298_value>  (1) 
-349224.4948454063

>  <H298_units>  (1) 
kcal/mol

>  <S298_value>  (1) 
82.77165630085062

>  <S298_units>  (1) 
cal/(mol*K)

>  <Cp_T_value_list>  (1) 
[27.339173580692723, 33.84270235009273, 39.920340825285514, 45.438637568785964, 54.52765007672161, 61.099128237827436, 71.10646466743047, 76.29375194018085, 78.77254304981717]

>  <Cp_T_units>  (1) 
cal/(mol*K)

>  <T_list>  (1) 
[300.0, 400.0, 500.0, 600.0, 800.0, 1000.0, 1500.0, 2000.0, 2400.0]

>  <T_units>  (1) 
K

>  <yaml_path>  (1) 
/home/calvin/Dropbox/PersonalFolders/Calvin/ATLAS_Converged/rmg_rxn_158/output/Species/rmg_rxn_158_r1_CCSCC/rmg_rxn_158_r1_CCSCC.yml

>  <frequencies_cm1>  (1) 
[66.48615186823999, 121.63491097315999, 224.63969077315997, 254.99863287287997, 273.62876404604003, 341.45397805167994, 381.0490154068, 647.6597204558, 701.8333676452798, 742.1151035324, 786.8329119362398, 985.17891591912, 988.88708799192, 1023.0091380469999, 1055.1809642711999, 1060.18699656948, 1093.14852610548, 1263.72444145428, 1273.9013136985197, 1289.2490258887199, 1308.3598460342798, 1399.5396771132398, 1399.8967603498797, 1460.7725852116798, 1462.4000607325202, 1478.53747623452, 1481.2362014652797, 1489.1538355392402, 1493.6723118798, 3015.6091353367196, 3016.10355827976, 3035.3242501904397, 3036.18262335544, 3073.69009717328, 3077.2334615983996, 3086.3528181033594, 3086.8953099436403, 3101.4052499247996, 3104.1520440527997]

>  <ZPE_kJmol>  (1) 
348.0016505911852

>  <E_elec_kJmol>  (1) 
-1461524.713953432

>  <E0_minus_Eelec_plus_ZPE_kJmol>  (1) 
0.0

>  <rxn>  (1) 
rmg_rxn_158

>  <species_type>  (1) 
r0

>  <species_folder>  (1) 
rmg_rxn_158_r1_CCSCC

>  <frequencies_cm1_list>  (1) 
[66.48615186823999, 121.63491097315999, 224.63969077315997, 254.99863287287997, 273.62876404604003, 341.45397805167994, 381.0490154068, 647.6597204558, 701.8333676452798, 742.1151035324, 786.8329119362398, 985.17891591912, 988.88708799192, 1023.0091380469999, 1055.1809642711999, 1060.18699656948, 1093.14852610548, 1263.72444145428, 1273.9013136985197, 1289.2490258887199, 1308.3598460342798, 1399.5396771132398, 1399.8967603498797, 1460.7725852116798, 1462.4000607325202, 1478.53747623452, 1481.2362014652797, 1489.1538355392402, 1493.6723118798, 3015.6091353367196, 3016.10355827976, 3035.3242501904397, 3036.18262335544, 3073.69009717328, 3077.2334615983996, 3086.3528181033594, 3086.8953099436403, 3101.4052499247996, 3104.1520440527997]

>  <E0_kJmol>  (1) 
-1.46118e+06

>  <H298_kJmol>  (1) 
-1.46116e+06

$$$$

     RDKit          3D

 18 17  0  0  0  0  0  0  0  0999 V2000
   -1.5828    3.2802    0.3473 H   0  0  0  0  0  0  0  0  0  1  0  0
   -1.2311    2.4722   -0.2900 C   0  0  0  0  0  0  0  0  0  2  0  0
   -0.8008    1.3942    0.6567 C   0  0  0  0  0  0  0  0  0  3  0  0
   -0.3552    0.2736   -0.0713 O   0  0  0  0  0  0  0  0  0  4  0  0
    0.0659   -0.7873    0.7516 C   0  0  0  0  0  0  0  0  0  5  0  0
    0.5618   -1.9266   -0.1149 C   0  0  0  0  0  0  0  0  0  6  0  0
    1.7831   -1.5584   -0.9467 C   0  0  0  0  0  0  0  0  0  7  0  0
   -0.4205    2.9159   -0.8635 H   0  0  0  0  0  0  0  0  0  8  0  0
   -2.0810    2.2074   -0.9146 H   0  0  0  0  0  0  0  0  0  9  0  0
   -1.6369    1.1028    1.3112 H   0  0  0  0  0  0  0  0  0 10  0  0
    0.0045    1.7603    1.3102 H   0  0  0  0  0  0  0  0  0 11  0  0
    0.8692   -0.4446    1.4226 H   0  0  0  0  0  0  0  0  0 12  0  0
   -0.7682   -1.1238    1.3846 H   0  0  0  0  0  0  0  0  0 13  0  0
   -0.2543   -2.2472   -0.7676 H   0  0  0  0  0  0  0  0  0 14  0  0
    0.7935   -2.7708    0.5405 H   0  0  0  0  0  0  0  0  0 15  0  0
    2.6156   -1.2588   -0.3052 H   0  0  0  0  0  0  0  0  0 16  0  0
    1.5589   -0.7270   -1.6149 H   0  0  0  0  0  0  0  0  0 17  0  0
    2.1146   -2.4032   -1.5523 H   0  0  0  0  0  0  0  0  0 18  0  0
  1  2  1  0
  2  9  1  0
  2  8  1  0
  2  3  1  0
  3 11  1  0
  3  4  1  0
  3 10  1  0
  4  5  1  0
  5 13  1  0
  5 12  1  0
  5  6  1  0
  6 15  1  0
  6 14  1  0
  6  7  1  0
  7 17  1  0
  7 18  1  0
  7 16  1  0
M  END
>  <rmg_smiles>  (2) 
CCCOCC

>  <rmg_adjacency_list>  (2) 
1  O u0 p2 c0 {3,S} {4,S}
2  C u0 p0 c0 {3,S} {5,S} {7,S} {8,S}
3  C u0 p0 c0 {1,S} {2,S} {11,S} {12,S}
4  C u0 p0 c0 {1,S} {6,S} {9,S} {10,S}
5  C u0 p0 c0 {2,S} {16,S} {17,S} {18,S}
6  C u0 p0 c0 {4,S} {13,S} {14,S} {15,S}
7  H u0 p0 c0 {2,S}
8  H u0 p0 c0 {2,S}
9  H u0 p0 c0 {4,S}
10 H u0 p0 c0 {4,S}
11 H u0 p0 c0 {3,S}
12 H u0 p0 c0 {3,S}
13 H u0 p0 c0 {6,S}
14 H u0 p0 c0 {6,S}
15 H u0 p0 c0 {6,S}
16 H u0 p0 c0 {5,S}
17 H u0 p0 c0 {5,S}
18 H u0 p0 c0 {5,S}


>  <multiplicity>  (2) 
1

>  <reaction>  (2) 
rmg_rxn_158

>  <type>  (2) 
r2h

>  <role_mapnums>  (2) 
{"r2h_a": 2, "r2h_h": 1}

>  <role_mapidx>  (2) 
{"r2h_a": 1, "r2h_h": 0}

>  <ordered_mapped_smiles>  (2) 
[H:1][C:2]([C:3]([O:4][C:5]([C:6]([C:7]([H:16])([H:17])[H:18])([H:14])[H:15])([H:12])[H:13])([H:10])[H:11])([H:8])[H:9]

>  <mol_properties>  (2) 
{"0": {"label": "a_hydrogen", "atom_type": "H0"}, "1": {"label": "acceptor", "atom_type": "Cs"}}

>  <level_of_theory>  (2) 
wb97xd/def2tzvp

>  <lot_method>  (2) 
wb97xd

>  <lot_basis>  (2) 
def2tzvp

>  <spin_multiplicity>  (2) 
1.0

>  <optical_isomers>  (2) 
2.0

>  <modes>  (2) 
IdealGasTranslation(mass=(88.0888, 'amu')),         NonlinearRotor(             inertia = ([59.5652, 317.445, 349.634

>  <frequency_value>  (2) 
unknown

>  <frequency_units>  (2) 
unknown

>  <frequency_list>  (2) 
unknown

>  <arkane_path>  (2) 
/home/calvin/Dropbox/PersonalFolders/Calvin/ATLAS_Converged/rmg_rxn_158/output/Species/rmg_rxn_158_p2_CCCOCC/arkane/output.py

>  <path_exists>  (2) 
True

>  <E0_value>  (2) 
-716327.3605709573

>  <E0_units>  (2) 
kJ/mol

>  <thermo_class>  (2) 
NASA

>  <Cp0_value>  (2) 
33.257888

>  <Cp0_units>  (2) 
J/(mol*K)

>  <CpInf_value>  (2) 
432.352544

>  <CpInf_units>  (2) 
J/(mol*K)

>  <Tmin_value>  (2) 
10.0

>  <Tmin_units>  (2) 
K

>  <Tmax_value>  (2) 
3000.0

>  <Tmax_units>  (2) 
K

>  <polynomials>  (2) 
[{"name": "polynomial1", "class": "NASAPolynomial", "Tmin_value": 10.0, "Tmin_units": "K", "Tmax_value": 424.14701041358796, "Tmax_units": "K", "coeffs": [3.4707042336928127, 0.05746545203879795, -0.00016719847115372115, 4.780470157694204e-07, -4.3347206706639054e-10, -86154279.58985142, 11.635447004604476]}, {"name": "polynomial2", "class": "NASAPolynomial", "Tmin_value": 424.14701041358796, "Tmin_units": "K", "Tmax_value": 3000.0, "Tmax_units": "K", "coeffs": [-2.8535624465972114, 0.06921008708460846, -3.934323609424939e-05, 1.0841890934368647e-08, -1.163418506360095e-12, -86153312.26572455, 41.80111524234505]}]

>  <H298_value>  (2) 
-171200.6815246165

>  <H298_units>  (2) 
kcal/mol

>  <S298_value>  (2) 
88.37399878129293

>  <S298_units>  (2) 
cal/(mol*K)

>  <Cp_T_value_list>  (2) 
[29.924593767526826, 38.16083070533892, 46.09960348181722, 53.05840207682852, 64.40406715451496, 72.91410593462665, 85.72980278110597, 92.03567805993791, 95.21197800865355]

>  <Cp_T_units>  (2) 
cal/(mol*K)

>  <T_list>  (2) 
[300.0, 400.0, 500.0, 600.0, 800.0, 1000.0, 1500.0, 2000.0, 2400.0]

>  <T_units>  (2) 
K

>  <yaml_path>  (2) 
/home/calvin/Dropbox/PersonalFolders/Calvin/ATLAS_Converged/rmg_rxn_158/output/Species/rmg_rxn_158_p2_CCCOCC/rmg_rxn_158_p2_CCCOCC.yml

>  <frequencies_cm1>  (2) 
[76.60808822992, 85.88538539723999, 152.39213822143998, 171.44115549912, 250.05440344247998, 256.05614861216003, 329.51915756551995, 440.0707542322, 493.7774464199199, 767.98990421816, 823.02879155796, 891.3896304185598, 900.4815189822399, 929.41899512072, 1002.9850088538799, 1082.00340893112, 1102.9065122452, 1152.52734816752, 1174.9617892079598, 1182.44680320676, 1190.2339645596398, 1270.1176047871998, 1295.23017010244, 1305.6473868328799, 1368.30176089256, 1380.4425909383199, 1399.7456866728398, 1405.4521514737598, 1443.92787022172, 1468.7794900948002, 1470.37949767436, 1482.5752636026798, 1487.2448136202797, 1494.6336898246, 1500.58049911172, 1519.49904366832, 2928.8997117010795, 2942.5512785172396, 2962.4655359452395, 2968.54281795344, 3015.14904732028, 3021.7276192568397, 3024.0692612509597, 3058.7338031463196, 3085.2403664815197, 3101.8035350733594, 3104.27564978856, 3105.2988306012394]

>  <ZPE_kJmol>  (2) 
431.0594598774012

>  <E_elec_kJmol>  (2) 
-716758.4200308347

>  <E0_minus_Eelec_plus_ZPE_kJmol>  (2) 
0.0

>  <rxn>  (2) 
rmg_rxn_158

>  <species_type>  (2) 
p1

>  <species_folder>  (2) 
rmg_rxn_158_p2_CCCOCC

>  <frequencies_cm1_list>  (2) 
[76.60808822992, 85.88538539723999, 152.39213822143998, 171.44115549912, 250.05440344247998, 256.05614861216003, 329.51915756551995, 440.0707542322, 493.7774464199199, 767.98990421816, 823.02879155796, 891.3896304185598, 900.4815189822399, 929.41899512072, 1002.9850088538799, 1082.00340893112, 1102.9065122452, 1152.52734816752, 1174.9617892079598, 1182.44680320676, 1190.2339645596398, 1270.1176047871998, 1295.23017010244, 1305.6473868328799, 1368.30176089256, 1380.4425909383199, 1399.7456866728398, 1405.4521514737598, 1443.92787022172, 1468.7794900948002, 1470.37949767436, 1482.5752636026798, 1487.2448136202797, 1494.6336898246, 1500.58049911172, 1519.49904366832, 2928.8997117010795, 2942.5512785172396, 2962.4655359452395, 2968.54281795344, 3015.14904732028, 3021.7276192568397, 3024.0692612509597, 3058.7338031463196, 3085.2403664815197, 3101.8035350733594, 3104.27564978856, 3105.2988306012394]

>  <E0_kJmol>  (2) 
-716327

>  <H298_kJmol>  (2) 
-716304

$$$$

     RDKit          3D

 32 30  0  0  0  0  0  0  0  0999 V2000
    0.1031    2.5235    0.8716 C   0  0  0  0  0  0  0  0  0  1  0  0
   -1.2605    3.0732    0.5439 C   0  0  0  0  0  0  0  0  0  2  0  0
   -2.6645    2.1374    1.1963 S   0  0  0  0  0  0  0  0  0  3  0  0
   -2.5782    0.5933    0.2568 C   0  0  0  0  0  0  0  0  0  4  0  0
   -2.8534    0.7343   -1.2307 C   0  0  0  0  0  0  0  0  0  5  0  0
    0.4058    1.5099    0.0582 H   0  0  0  0  0  0  0  0  0  6  0  0
    0.9121    3.2188    0.6477 H   0  0  0  0  0  0  0  0  0  7  0  0
    0.1910    2.1069    1.8735 H   0  0  0  0  0  0  0  0  0  8  0  0
   -1.3865    4.0614    0.9970 H   0  0  0  0  0  0  0  0  0  9  0  0
   -1.3774    3.2177   -0.5326 H   0  0  0  0  0  0  0  0  0 10  0  0
   -1.6126    0.1197    0.4350 H   0  0  0  0  0  0  0  0  0 11  0  0
   -3.3321   -0.0417    0.7250 H   0  0  0  0  0  0  0  0  0 12  0  0
   -2.1161    1.3766   -1.7147 H   0  0  0  0  0  0  0  0  0 13  0  0
   -3.8402    1.1642   -1.4045 H   0  0  0  0  0  0  0  0  0 14  0  0
   -2.8088   -0.2422   -1.7187 H   0  0  0  0  0  0  0  0  0 15  0  0
    0.8449    0.5012   -0.7375 C   0  0  0  0  0  3  0  0  0 16  0  0
    1.2752   -0.5768    0.2093 C   0  0  0  0  0  0  0  0  0 17  0  0
    1.7208   -1.6973   -0.5188 O   0  0  0  0  0  0  0  0  0 18  0  0
    2.1419   -2.7583    0.3041 C   0  0  0  0  0  0  0  0  0 19  0  0
    2.6378   -3.8976   -0.5623 C   0  0  0  0  0  0  0  0  0 20  0  0
    3.8591   -3.5294   -1.3942 C   0  0  0  0  0  0  0  0  0 21  0  0
    1.6555    0.9449   -1.3110 H   0  0  0  0  0  0  0  0  0 22  0  0
   -0.0050    0.2364   -1.3621 H   0  0  0  0  0  0  0  0  0 23  0  0
    0.4391   -0.8682    0.8637 H   0  0  0  0  0  0  0  0  0 24  0  0
    2.0805   -0.2106    0.8627 H   0  0  0  0  0  0  0  0  0 25  0  0
    2.9452   -2.4156    0.9751 H   0  0  0  0  0  0  0  0  0 26  0  0
    1.3078   -3.0948    0.9371 H   0  0  0  0  0  0  0  0  0 27  0  0
    1.8217   -4.2182   -1.2151 H   0  0  0  0  0  0  0  0  0 28  0  0
    2.8695   -4.7418    0.0930 H   0  0  0  0  0  0  0  0  0 29  0  0
    4.6916   -3.2298   -0.7527 H   0  0  0  0  0  0  0  0  0 30  0  0
    3.6349   -2.6980   -2.0624 H   0  0  0  0  0  0  0  0  0 31  0  0
    4.1906   -4.3742   -1.9997 H   0  0  0  0  0  0  0  0  0 32  0  0
  1  7  1  0
  1  8  1  0
  1  6  1  0
  1  2  1  0
  2  3  1  0
  2 10  1  0
  2  9  1  0
  3  4  1  0
  4 11  1  0
  4 12  1  0
  4  5  1  0
  5 14  1  0
  5 13  1  0
  5 15  1  0
 16 22  1  0
 16 17  1  0
 16 23  1  0
 17 18  1  0
 17 24  1  0
 17 25  1  0
 18 19  1  0
 19 27  1  0
 19 26  1  0
 19 20  1  0
 20 21  1  0
 20 29  1  0
 20 28  1  0
 21 32  1  0
 21 31  1  0
 21 30  1  0
M  RAD  1  16   2
M  END
>  <rmg_smiles>  (3) 
[CH2]COCCC.CCSCC

>  <rmg_adjacency_list>  (3) 
multiplicity 2
1  S u0 p2 c0 {5,S} {6,S}
2  O u0 p2 c0 {4,S} {7,S}
3  C u0 p0 c0 {4,S} {8,S} {12,S} {13,S}
4  C u0 p0 c0 {2,S} {3,S} {18,S} {19,S}
5  C u0 p0 c0 {1,S} {9,S} {14,S} {15,S}
6  C u0 p0 c0 {1,S} {10,S} {16,S} {17,S}
7  C u0 p0 c0 {2,S} {11,S} {26,S} {27,S}
8  C u0 p0 c0 {3,S} {28,S} {29,S} {30,S}
9  C u0 p0 c0 {5,S} {20,S} {21,S} {22,S}
10 C u0 p0 c0 {6,S} {23,S} {24,S} {25,S}
11 C u1 p0 c0 {7,S} {31,S} {32,S}
12 H u0 p0 c0 {3,S}
13 H u0 p0 c0 {3,S}
14 H u0 p0 c0 {5,S}
15 H u0 p0 c0 {5,S}
16 H u0 p0 c0 {6,S}
17 H u0 p0 c0 {6,S}
18 H u0 p0 c0 {4,S}
19 H u0 p0 c0 {4,S}
20 H u0 p0 c0 {9,S}
21 H u0 p0 c0 {9,S}
22 H u0 p0 c0 {9,S}
23 H u0 p0 c0 {10,S}
24 H u0 p0 c0 {10,S}
25 H u0 p0 c0 {10,S}
26 H u0 p0 c0 {7,S}
27 H u0 p0 c0 {7,S}
28 H u0 p0 c0 {8,S}
29 H u0 p0 c0 {8,S}
30 H u0 p0 c0 {8,S}
31 H u0 p0 c0 {11,S}
32 H u0 p0 c0 {11,S}


>  <multiplicity>  (3) 
2

>  <reaction>  (3) 
rmg_rxn_158

>  <type>  (3) 
ts

>  <role_mapnums>  (3) 
{"*2": 6, "*1": 1, "*3": 16, "*0": 2, "*4": 17}

>  <role_mapidx>  (3) 
{"*2": 5, "*1": 0, "*3": 15, "*0": 1, "*4": 16}

>  <ordered_mapped_smiles>  (3) 
[C:1]([C:2]([S:3][C:4]([C:5]([H:13])([H:14])[H:15])([H:11])[H:12])([H:9])[H:10])([H:6])([H:7])[H:8].[C:16]([C:17]([O:18][C:19]([C:20]([C:21]([H:30])([H:31])[H:32])([H:28])[H:29])([H:26])[H:27])([H:24])[H:25])([H:22])[H:23]

>  <mol_properties>  (3) 
{"0": {"label": "*1", "atom_type": "Cs"}, "1": {"label": "*0", "atom_type": "Cs"}, "5": {"label": "*2", "atom_type": "H0"}, "15": {"label": "*3", "atom_type": "Cs"}, "16": {"label": "*4", "atom_type": "Cs"}}

>  <level_of_theory>  (3) 
wb97xd/def2tzvp

>  <lot_method>  (3) 
wb97xd

>  <lot_basis>  (3) 
def2tzvp

>  <spin_multiplicity>  (3) 
2.0

>  <optical_isomers>  (3) 
2.0

>  <modes>  (3) 
IdealGasTranslation(mass=(177.131, 'amu')),         NonlinearRotor(             inertia = ([289.097, 1859.04, 1968.14

>  <frequency_value>  (3) 
-1736.15

>  <frequency_units>  (3) 
cm^-1

>  <frequency_list>  (3) 
unknown

>  <arkane_path>  (3) 
/home/calvin/Dropbox/PersonalFolders/Calvin/ATLAS_Converged/rmg_rxn_158/output/rxns/TS0/arkane/output.py

>  <path_exists>  (3) 
True

>  <E0_value>  (3) 
-2175710.0

>  <E0_units>  (3) 
kJ/mol

>  <thermo_class>  (3) 
unknown

>  <Cp0_value>  (3) 
unknown

>  <Cp0_units>  (3) 
unknown

>  <CpInf_value>  (3) 
unknown

>  <CpInf_units>  (3) 
unknown

>  <Tmin_value>  (3) 
unknown

>  <Tmin_units>  (3) 
unknown

>  <Tmax_value>  (3) 
unknown

>  <Tmax_units>  (3) 
unknown

>  <polynomials>  (3) 
unknown

>  <H298_value>  (3) 
unknown

>  <H298_units>  (3) 
unknown

>  <S298_value>  (3) 
unknown

>  <S298_units>  (3) 
unknown

>  <Cp_T_value_list>  (3) 
unknown

>  <Cp_T_units>  (3) 
unknown

>  <T_list>  (3) 
unknown

>  <T_units>  (3) 
unknown

>  <yaml_path>  (3) 
unknown

>  <frequencies_cm1>  (3) 
unknown

>  <ZPE_kJmol>  (3) 
unknown

>  <E_elec_kJmol>  (3) 
unknown

>  <E0_minus_Eelec_plus_ZPE_kJmol>  (3) 
unknown

>  <rxn>  (3) 
unknown

>  <species_type>  (3) 
unknown

>  <species_folder>  (3) 
unknown

>  <frequencies_cm1_list>  (3) 
[]

>  <ts_imag_freq_cm1>  (3) 
-1757.2414

>  <ts_freq_out_path>  (3) 
/home/calvin/Dropbox/PersonalFolders/Calvin/ATLAS_Converged/rmg_rxn_158/output/rxns/TS0/geometry/freq.out

>  <E0_kJmol>  (3) 
-2.17571e+06

>  <H298_kJmol>  (3) 
unknown

$$$$

     RDKit          3D

 14 13  0  0  0  0  0  0  0  0999 V2000
    2.5796   -0.5432    0.2329 C   0  0  0  0  0  3  0  0  0  1  0  0
    1.2594    0.0982    0.3029 C   0  0  0  0  0  0  0  0  0  2  0  0
   -0.0483   -1.0244    0.9576 S   0  0  0  0  0  0  0  0  0  3  0  0
   -0.0049   -2.3732   -0.2491 C   0  0  0  0  0  0  0  0  0  4  0  0
   -0.3891   -1.9781   -1.6653 C   0  0  0  0  0  0  0  0  0  5  0  0
    2.9359   -0.9798   -0.6903 H   0  0  0  0  0  0  0  0  0  6  0  0
    3.1327   -0.7454    1.1400 H   0  0  0  0  0  0  0  0  0  7  0  0
    0.9347    0.4858   -0.6621 H   0  0  0  0  0  0  0  0  0  8  0  0
    1.2442    0.9220    1.0193 H   0  0  0  0  0  0  0  0  0  9  0  0
    0.9819   -2.8380   -0.2257 H   0  0  0  0  0  0  0  0  0 10  0  0
   -0.7110   -3.1037    0.1493 H   0  0  0  0  0  0  0  0  0 11  0  0
    0.3274   -1.2737   -2.0913 H   0  0  0  0  0  0  0  0  0 12  0  0
   -0.4075   -2.8581   -2.3121 H   0  0  0  0  0  0  0  0  0 13  0  0
   -1.3749   -1.5123   -1.6865 H   0  0  0  0  0  0  0  0  0 14  0  0
  1  7  1  0
  1  6  1  0
  1  2  1  0
  2  9  1  0
  2  8  1  0
  2  3  1  0
  3  4  1  0
  4  5  1  0
  4 10  1  0
  4 11  1  0
  5 12  1  0
  5 14  1  0
  5 13  1  0
M  RAD  1   1   2
M  END
>  <rmg_smiles>  (4) 
[CH2]CSCC

>  <rmg_adjacency_list>  (4) 
multiplicity 2
1  S u0 p2 c0 {2,S} {3,S}
2  C u0 p0 c0 {1,S} {4,S} {6,S} {7,S}
3  C u0 p0 c0 {1,S} {5,S} {8,S} {9,S}
4  C u0 p0 c0 {2,S} {10,S} {11,S} {12,S}
5  C u1 p0 c0 {3,S} {13,S} {14,S}
6  H u0 p0 c0 {2,S}
7  H u0 p0 c0 {2,S}
8  H u0 p0 c0 {3,S}
9  H u0 p0 c0 {3,S}
10 H u0 p0 c0 {4,S}
11 H u0 p0 c0 {4,S}
12 H u0 p0 c0 {4,S}
13 H u0 p0 c0 {5,S}
14 H u0 p0 c0 {5,S}


>  <multiplicity>  (4) 
2

>  <reaction>  (4) 
rmg_rxn_158

>  <type>  (4) 
r1

>  <role_mapnums>  (4) 
{}

>  <role_mapidx>  (4) 
{}

>  <ordered_mapped_smiles>  (4) 
[C:1]([C:2]([S:3][C:4]([C:5]([H:12])([H:13])[H:14])([H:10])[H:11])([H:8])[H:9])([H:6])[H:7]

>  <level_of_theory>  (4) 
wb97xd/def2tzvp

>  <lot_method>  (4) 
wb97xd

>  <lot_basis>  (4) 
def2tzvp

>  <spin_multiplicity>  (4) 
2.0

>  <optical_isomers>  (4) 
2.0

>  <modes>  (4) 
IdealGasTranslation(mass=(89.0425, 'amu')),         NonlinearRotor(             inertia = ([94.593, 177.437, 223.626

>  <frequency_value>  (4) 
unknown

>  <frequency_units>  (4) 
unknown

>  <frequency_list>  (4) 
unknown

>  <arkane_path>  (4) 
/home/calvin/Dropbox/PersonalFolders/Calvin/ATLAS_Converged/rmg_rxn_158/output/Species/rmg_rxn_158_p1_sbr-CH2-sbrCSCC/arkane/output.py

>  <path_exists>  (4) 
True

>  <E0_value>  (4) 
-1459449.5066336358

>  <E0_units>  (4) 
kJ/mol

>  <thermo_class>  (4) 
NASA

>  <Cp0_value>  (4) 
33.257888

>  <Cp0_units>  (4) 
J/(mol*K)

>  <CpInf_value>  (4) 
332.57888

>  <CpInf_units>  (4) 
J/(mol*K)

>  <Tmin_value>  (4) 
10.0

>  <Tmin_units>  (4) 
K

>  <Tmax_value>  (4) 
3000.0

>  <Tmax_units>  (4) 
K

>  <polynomials>  (4) 
[{"name": "polynomial1", "class": "NASAPolynomial", "Tmin_value": 10.0, "Tmin_units": "K", "Tmax_value": 1031.5071007618787, "Tmax_units": "K", "coeffs": [3.5714943853963943, 0.03773739256401581, -4.950950990783628e-06, -1.3018660382700517e-08, 5.857037102171146e-12, -175531227.33815667, 12.507822262108592]}, {"name": "polynomial2", "class": "NASAPolynomial", "Tmin_value": 1031.5071007618787, "Tmin_units": "K", "Tmax_value": 3000.0, "Tmax_units": "K", "coeffs": [5.15471759391017, 0.04014233483809902, -2.0873295447536622e-05, 5.302404611852929e-09, -5.296040450423311e-13, -175532008.5243079, 2.617170435341213]}]

>  <H298_value>  (4) 
-348811.48362080817

>  <H298_units>  (4) 
kcal/mol

>  <S298_value>  (4) 
86.99508703546594

>  <S298_units>  (4) 
cal/(mol*K)

>  <Cp_T_value_list>  (4) 
[28.10519018607643, 34.16215665606476, 39.62725284783934, 44.470956897945086, 52.31577082579914, 58.01910235786348, 66.80551106767905, 71.32437388511126, 73.51787619359425]

>  <Cp_T_units>  (4) 
cal/(mol*K)

>  <T_list>  (4) 
[300.0, 400.0, 500.0, 600.0, 800.0, 1000.0, 1500.0, 2000.0, 2400.0]

>  <T_units>  (4) 
K

>  <yaml_path>  (4) 
/home/calvin/Dropbox/PersonalFolders/Calvin/ATLAS_Converged/rmg_rxn_158/output/Species/rmg_rxn_158_p1_sbr-CH2-sbrCSCC/rmg_rxn_158_p1_sbr-CH2-sbrCSCC.yml

>  <frequencies_cm1>  (4) 
[55.01828638384, 115.49582609707998, 192.74254396176, 233.70411139555998, 259.89479340604, 323.54488033712, 364.23176835811995, 563.4155445500401, 638.47169409764, 687.12428508984, 740.0206730098, 780.7556299280399, 985.7694766566399, 1009.68031954088, 1055.6959881701998, 1069.5123626340398, 1077.49179957588, 1214.7147672254398, 1255.0102370831999, 1271.8892869997599, 1297.5512111406, 1400.98174403044, 1442.24545881832, 1457.86785042132, 1467.7288413408398, 1480.70744359564, 1491.3787387829198, 3015.89754872016, 3034.4590100401197, 3035.7156683536796, 3075.4068435032796, 3086.44895589784, 3092.5949077592395, 3102.88851875392, 3127.8568773774396, 3233.1826982156]

>  <ZPE_kJmol>  (4) 
309.45664795415496

>  <E_elec_kJmol>  (4) 
-1459758.96328159

>  <E0_minus_Eelec_plus_ZPE_kJmol>  (4) 
0.0

>  <rxn>  (4) 
rmg_rxn_158

>  <species_type>  (4) 
p0

>  <species_folder>  (4) 
rmg_rxn_158_p1_sbr-CH2-sbrCSCC

>  <frequencies_cm1_list>  (4) 
[55.01828638384, 115.49582609707998, 192.74254396176, 233.70411139555998, 259.89479340604, 323.54488033712, 364.23176835811995, 563.4155445500401, 638.47169409764, 687.12428508984, 740.0206730098, 780.7556299280399, 985.7694766566399, 1009.68031954088, 1055.6959881701998, 1069.5123626340398, 1077.49179957588, 1214.7147672254398, 1255.0102370831999, 1271.8892869997599, 1297.5512111406, 1400.98174403044, 1442.24545881832, 1457.86785042132, 1467.7288413408398, 1480.70744359564, 1491.3787387829198, 3015.89754872016, 3034.4590100401197, 3035.7156683536796, 3075.4068435032796, 3086.44895589784, 3092.5949077592395, 3102.88851875392, 3127.8568773774396, 3233.1826982156]

>  <E0_kJmol>  (4) 
-1.45945e+06

>  <H298_kJmol>  (4) 
-1.45943e+06

$$$$

     RDKit          3D

 17 16  0  0  0  0  0  0  0  0999 V2000
    3.3619    0.3511   -1.0290 C   0  0  0  0  0  3  0  0  0  1  0  0
    2.1806    1.0643   -0.5073 C   0  0  0  0  0  0  0  0  0  2  0  0
    1.4028    0.1998    0.2757 O   0  0  0  0  0  0  0  0  0  3  0  0
    0.2433    0.8081    0.7885 C   0  0  0  0  0  0  0  0  0  4  0  0
   -0.5040   -0.1878    1.6510 C   0  0  0  0  0  0  0  0  0  5  0  0
    0.2852   -0.6298    2.8762 C   0  0  0  0  0  0  0  0  0  6  0  0
    4.1174    0.8902   -1.5820 H   0  0  0  0  0  0  0  0  0  7  0  0
    3.4399   -0.7198   -0.9141 H   0  0  0  0  0  0  0  0  0  8  0  0
    1.5724    1.4684   -1.3398 H   0  0  0  0  0  0  0  0  0  9  0  0
    2.4896    1.9442    0.0856 H   0  0  0  0  0  0  0  0  0 10  0  0
    0.5169    1.6937    1.3835 H   0  0  0  0  0  0  0  0  0 11  0  0
   -0.3954    1.1528   -0.0379 H   0  0  0  0  0  0  0  0  0 12  0  0
   -0.7611   -1.0545    1.0367 H   0  0  0  0  0  0  0  0  0 13  0  0
   -1.4466    0.2743    1.9571 H   0  0  0  0  0  0  0  0  0 14  0  0
    0.5263    0.2245    3.5136 H   0  0  0  0  0  0  0  0  0 15  0  0
    1.2220   -1.1033    2.5825 H   0  0  0  0  0  0  0  0  0 16  0  0
   -0.2849   -1.3427    3.4737 H   0  0  0  0  0  0  0  0  0 17  0  0
  1  8  1  0
  1  7  1  0
  1  2  1  0
  2 10  1  0
  2  9  1  0
  2  3  1  0
  3  4  1  0
  4  5  1  0
  4 12  1  0
  4 11  1  0
  5 14  1  0
  5  6  1  0
  5 13  1  0
  6 17  1  0
  6 15  1  0
  6 16  1  0
M  RAD  1   1   2
M  END
>  <rmg_smiles>  (5) 
[CH2]COCCC

>  <rmg_adjacency_list>  (5) 
multiplicity 2
1  O u0 p2 c0 {3,S} {4,S}
2  C u0 p0 c0 {3,S} {5,S} {7,S} {8,S}
3  C u0 p0 c0 {1,S} {2,S} {9,S} {10,S}
4  C u0 p0 c0 {1,S} {6,S} {11,S} {12,S}
5  C u0 p0 c0 {2,S} {13,S} {14,S} {15,S}
6  C u1 p0 c0 {4,S} {16,S} {17,S}
7  H u0 p0 c0 {2,S}
8  H u0 p0 c0 {2,S}
9  H u0 p0 c0 {3,S}
10 H u0 p0 c0 {3,S}
11 H u0 p0 c0 {4,S}
12 H u0 p0 c0 {4,S}
13 H u0 p0 c0 {5,S}
14 H u0 p0 c0 {5,S}
15 H u0 p0 c0 {5,S}
16 H u0 p0 c0 {6,S}
17 H u0 p0 c0 {6,S}


>  <multiplicity>  (5) 
2

>  <reaction>  (5) 
rmg_rxn_158

>  <type>  (5) 
r2

>  <role_mapnums>  (5) 
{}

>  <role_mapidx>  (5) 
{}

>  <ordered_mapped_smiles>  (5) 
[C:1]([C:2]([O:3][C:4]([C:5]([C:6]([H:15])([H:16])[H:17])([H:13])[H:14])([H:11])[H:12])([H:9])[H:10])([H:7])[H:8]

>  <level_of_theory>  (5) 
wb97xd/def2tzvp

>  <lot_method>  (5) 
wb97xd

>  <lot_basis>  (5) 
def2tzvp

>  <spin_multiplicity>  (5) 
2.0

>  <optical_isomers>  (5) 
2.0

>  <modes>  (5) 
IdealGasTranslation(mass=(87.081, 'amu')),         NonlinearRotor(             inertia = ([56.6963, 308.928, 339.863

>  <frequency_value>  (5) 
unknown

>  <frequency_units>  (5) 
unknown

>  <frequency_list>  (5) 
unknown

>  <arkane_path>  (5) 
/home/calvin/Dropbox/PersonalFolders/Calvin/ATLAS_Converged/rmg_rxn_158/output/Species/rmg_rxn_158_r2_sbr-CH2-sbrCOCCC/arkane/output.py

>  <path_exists>  (5) 
True

>  <E0_value>  (5) 
-714592.2874414226

>  <E0_units>  (5) 
kJ/mol

>  <thermo_class>  (5) 
NASA

>  <Cp0_value>  (5) 
33.257888

>  <Cp0_units>  (5) 
J/(mol*K)

>  <CpInf_value>  (5) 
407.409128

>  <CpInf_units>  (5) 
J/(mol*K)

>  <Tmin_value>  (5) 
10.0

>  <Tmin_units>  (5) 
K

>  <Tmax_value>  (5) 
3000.0

>  <Tmax_units>  (5) 
K

>  <polynomials>  (5) 
[{"name": "polynomial1", "class": "NASAPolynomial", "Tmin_value": 10.0, "Tmin_units": "K", "Tmax_value": 421.035855830905, "Tmax_units": "K", "coeffs": [3.3789406813208065, 0.06590596017086366, -0.00019249809040560733, 4.899813308840383e-07, -4.242410627799397e-10, -85945598.19070739, 12.514736539096582]}, {"name": "polynomial2", "class": "NASAPolynomial", "Tmin_value": 421.035855830905, "Tmin_units": "K", "Tmax_value": 3000.0, "Tmax_units": "K", "coeffs": [-0.7031553085295065, 0.06341059745348604, -3.655347709588294e-05, 1.021357311823544e-08, -1.1100139129408708e-12, -85944888.58939976, 33.02208008641289]}]

>  <H298_value>  (5) 
-170785.6861885609

>  <H298_units>  (5) 
kcal/mol

>  <S298_value>  (5) 
92.09384257836304

>  <S298_units>  (5) 
cal/(mol*K)

>  <Cp_T_value_list>  (5) 
[31.038265619376926, 38.63102462361129, 45.847029798195116, 52.15666973937588, 62.409780220359046, 70.06398140589506, 81.51278875283624, 87.14396027312499, 90.01864155696947]

>  <Cp_T_units>  (5) 
cal/(mol*K)

>  <T_list>  (5) 
[300.0, 400.0, 500.0, 600.0, 800.0, 1000.0, 1500.0, 2000.0, 2400.0]

>  <T_units>  (5) 
K

>  <yaml_path>  (5) 
/home/calvin/Dropbox/PersonalFolders/Calvin/ATLAS_Converged/rmg_rxn_158/output/Species/rmg_rxn_158_r2_sbr-CH2-sbrCOCCC/rmg_rxn_158_r2_sbr-CH2-sbrCOCCC.yml

>  <frequencies_cm1>  (5) 
[70.26986077955999, 88.4467709216, 104.549851497, 153.07883675344, 172.60167601819998, 255.52052375720004, 329.3406159472, 414.08608178132, 453.8047248722, 492.96027516683995, 765.9229416368398, 873.5492025571998, 892.37160931932, 924.52970157288, 955.5272733073599, 1010.5936285884401, 1091.5691194818799, 1101.61551900504, 1147.9951378563198, 1175.99183700596, 1193.5163835426, 1228.5654766158798, 1271.8686860438, 1305.08429403664, 1367.51892456608, 1378.9249871825998, 1404.3190988959598, 1420.9784052822797, 1445.0952577261198, 1468.6833523003202, 1476.29197203488, 1483.39930184108, 1494.4551482062798, 1509.4526441451599, 2863.5603463812795, 2892.74503399128, 2932.77955840688, 2965.8028908107603, 3015.3275889386, 3021.99543168432, 3058.9535466765597, 3085.6249176594397, 3105.36750045444, 3142.87497427228, 3256.07036028716]

>  <ZPE_kJmol>  (5) 
390.3630165565436

>  <E_elec_kJmol>  (5) 
-714982.6504579792

>  <E0_minus_Eelec_plus_ZPE_kJmol>  (5) 
0.0

>  <rxn>  (5) 
rmg_rxn_158

>  <species_type>  (5) 
r1

>  <species_folder>  (5) 
rmg_rxn_158_r2_sbr-CH2-sbrCOCCC

>  <frequencies_cm1_list>  (5) 
[70.26986077955999, 88.4467709216, 104.549851497, 153.07883675344, 172.60167601819998, 255.52052375720004, 329.3406159472, 414.08608178132, 453.8047248722, 492.96027516683995, 765.9229416368398, 873.5492025571998, 892.37160931932, 924.52970157288, 955.5272733073599, 1010.5936285884401, 1091.5691194818799, 1101.61551900504, 1147.9951378563198, 1175.99183700596, 1193.5163835426, 1228.5654766158798, 1271.8686860438, 1305.08429403664, 1367.51892456608, 1378.9249871825998, 1404.3190988959598, 1420.9784052822797, 1445.0952577261198, 1468.6833523003202, 1476.29197203488, 1483.39930184108, 1494.4551482062798, 1509.4526441451599, 2863.5603463812795, 2892.74503399128, 2932.77955840688, 2965.8028908107603, 3015.3275889386, 3021.99543168432, 3058.9535466765597, 3085.6249176594397, 3105.36750045444, 3142.87497427228, 3256.07036028716]

>  <E0_kJmol>  (5) 
-714592

>  <H298_kJmol>  (5) 
-714567

$$$$
