
     RDKit          3D

  9  8  0  0  0  0  0  0  0  0999 V2000
    0.1785    0.6545    1.5224 C   0  0  0  0  0  0  0  0  0  1  0  0
    0.2973    0.5623    0.1542 O   0  0  0  0  0  0  0  0  0  2  0  0
   -0.4750   -0.4833   -0.3380 N   0  0  0  0  0  0  0  0  0  3  0  0
   -0.0860   -0.8304   -1.4867 C   0  0  0  0  0  0  0  0  0  4  0  0
    0.8859   -0.0269    1.9929 H   0  0  0  0  0  0  0  0  0  5  0  0
   -0.8028    0.3489    1.8853 H   0  0  0  0  0  0  0  0  0  6  0  0
    0.4852    1.6515    1.8324 H   0  0  0  0  0  0  0  0  0  7  0  0
   -0.6491   -1.6211   -1.9650 H   0  0  0  0  0  0  0  0  0  8  0  0
    0.7696   -0.3787   -1.9807 H   0  0  0  0  0  0  0  0  0  9  0  0
  1  5  1  0
  1  7  1  0
  1  2  1  0
  1  6  1  0
  2  3  1  0
  3  4  1  0
  4  8  1  0
  4  9  1  0
M  END
>  <rmg_smiles>  (1) 
CO[N][CH2]

>  <rmg_adjacency_list>  (1) 
1 O u0 p2 c0 {2,S} {3,S}
2 N u0 p1 c0 {1,S} {4,S}
3 C u0 p0 c0 {1,S} {5,S} {6,S} {7,S}
4 C u0 p0 c0 {2,S} {8,S} {9,S}
5 H u0 p0 c0 {3,S}
6 H u0 p0 c0 {3,S}
7 H u0 p0 c0 {3,S}
8 H u0 p0 c0 {4,S}
9 H u0 p0 c0 {4,S}


>  <multiplicity>  (1) 
1

>  <reaction>  (1) 
rmg_rxn_15644

>  <type>  (1) 
r1h

>  <role_mapnums>  (1) 
{"r1h_a": 1, "r1h_h": 5}

>  <role_mapidx>  (1) 
{"r1h_a": 0, "r1h_h": 4}

>  <ordered_mapped_smiles>  (1) 
[C:1]([O:2][NH:3][CH:4]([H:8])[H:9])([H:5])([H:6])[H:7]

>  <mol_properties>  (1) 
{"0": {"label": "donator", "atom_type": "Cs"}, "4": {"label": "d_hydrogen", "atom_type": "H0"}}

>  <level_of_theory>  (1) 
wb97xd/def2tzvp

>  <lot_method>  (1) 
wb97xd

>  <lot_basis>  (1) 
def2tzvp

>  <spin_multiplicity>  (1) 
1.0

>  <optical_isomers>  (1) 
1.0

>  <modes>  (1) 
IdealGasTranslation(mass=(59.0371, 'amu')),         NonlinearRotor(             inertia = ([11.9742, 101.538, 110.304

>  <frequency_value>  (1) 
unknown

>  <frequency_units>  (1) 
unknown

>  <frequency_list>  (1) 
unknown

>  <arkane_path>  (1) 
/home/calvin/Dropbox/PersonalFolders/Calvin/ZEUS_Converged/rmg_rxn_15644/output/Species/rmg_rxn_15644_r1_CON=C/arkane/output.py

>  <path_exists>  (1) 
True

>  <E0_value>  (1) 
-548882.9200394232

>  <E0_units>  (1) 
kJ/mol

>  <thermo_class>  (1) 
NASA

>  <Cp0_value>  (1) 
33.257888

>  <Cp0_units>  (1) 
J/(mol*K)

>  <CpInf_value>  (1) 
207.8618

>  <CpInf_units>  (1) 
J/(mol*K)

>  <Tmin_value>  (1) 
10.0

>  <Tmin_units>  (1) 
K

>  <Tmax_value>  (1) 
3000.0

>  <Tmax_units>  (1) 
K

>  <polynomials>  (1) 
[{"name": "polynomial1", "class": "NASAPolynomial", "Tmin_value": 10.0, "Tmin_units": "K", "Tmax_value": 1066.0445442103917, "Tmax_units": "K", "coeffs": [3.9488472240731216, 0.012909444164008412, 1.8432835387873368e-05, -2.5565901414715004e-08, 8.632634293818456e-12, -66015370.98001154, 7.906058800048573]}, {"name": "polynomial2", "class": "NASAPolynomial", "Tmin_value": 1066.0445442103917, "Tmin_units": "K", "Tmax_value": 3000.0, "Tmax_units": "K", "coeffs": [4.051174026649639, 0.02340322367340144, -1.163838712217072e-05, 2.8112466199843713e-09, -2.6680947262736413e-13, -66016010.897278614, 4.506810904924114]}]

>  <H298_value>  (1) 
-131182.46582067996

>  <H298_units>  (1) 
kcal/mol

>  <S298_value>  (1) 
69.27397375028742

>  <S298_units>  (1) 
cal/(mol*K)

>  <Cp_T_value_list>  (1) 
[17.607207323409234, 21.157104611048137, 24.5530891366924, 27.67560467885903, 32.827861850696166, 36.480858050170255, 41.94371504002133, 44.76201379304356, 46.08804102499818]

>  <Cp_T_units>  (1) 
cal/(mol*K)

>  <T_list>  (1) 
[300.0, 400.0, 500.0, 600.0, 800.0, 1000.0, 1500.0, 2000.0, 2400.0]

>  <T_units>  (1) 
K

>  <yaml_path>  (1) 
/home/calvin/Dropbox/PersonalFolders/Calvin/ZEUS_Converged/rmg_rxn_15644/output/Species/rmg_rxn_15644_r1_CON=C/rmg_rxn_15644_r1_CON=C.yml

>  <frequencies_cm1>  (1) 
[119.61601728907998, 180.59484693068, 346.29520270228, 574.9726808436, 796.6046320465999, 891.08061607916, 982.9746136314, 1126.32979917172, 1169.7222794088, 1171.7686410341598, 1237.71230106212, 1418.12173938916, 1456.2266409298397, 1467.4060930307999, 1493.1160860688801, 1708.0183916582798, 3005.45973103376, 3077.28153049564, 3083.54422110748, 3121.53925088304, 3213.405780494]

>  <ZPE_kJmol>  (1) 
189.2599943319938

>  <E_elec_kJmol>  (1) 
-549072.1800337551

>  <E0_minus_Eelec_plus_ZPE_kJmol>  (1) 
0.0

>  <rxn>  (1) 
rmg_rxn_15644

>  <species_type>  (1) 
r0

>  <species_folder>  (1) 
rmg_rxn_15644_r1_CON=C

>  <frequencies_cm1_list>  (1) 
[119.61601728907998, 180.59484693068, 346.29520270228, 574.9726808436, 796.6046320465999, 891.08061607916, 982.9746136314, 1126.32979917172, 1169.7222794088, 1171.7686410341598, 1237.71230106212, 1418.12173938916, 1456.2266409298397, 1467.4060930307999, 1493.1160860688801, 1708.0183916582798, 3005.45973103376, 3077.28153049564, 3083.54422110748, 3121.53925088304, 3213.405780494]

>  <E0_kJmol>  (1) 
-548883

>  <H298_kJmol>  (1) 
-548867

$$$$

     RDKit          3D

 14 13  0  0  0  0  0  0  0  0999 V2000
   -1.5866    2.0824    1.1072 H   0  0  0  0  0  0  0  0  0  1  0  0
    1.7376   -1.2945   -0.8602 C   0  0  0  0  0  0  0  0  0  2  0  0
    0.6172   -1.6889   -0.2784 C   0  0  0  0  0  0  0  0  0  3  0  0
   -0.6387   -0.8755   -0.1641 C   0  0  0  0  0  0  0  0  0  4  0  0
   -0.5091    0.4440   -0.6367 O   0  0  0  0  0  0  0  0  0  5  0  0
   -0.0400    1.3584    0.3229 C   0  0  0  0  0  0  0  0  0  6  0  0
   -0.8582    1.5298    1.3997 O   0  0  0  0  0  0  0  0  0  7  0  0
    2.6039   -1.9415   -0.9075 H   0  0  0  0  0  0  0  0  0  8  0  0
    1.8184   -0.3136   -1.3129 H   0  0  0  0  0  0  0  0  0  9  0  0
    0.5563   -2.6814    0.1607 H   0  0  0  0  0  0  0  0  0 10  0  0
   -0.9888   -0.8734    0.8746 H   0  0  0  0  0  0  0  0  0 11  0  0
   -1.4297   -1.3460   -0.7554 H   0  0  0  0  0  0  0  0  0 12  0  0
    0.1209    2.2893   -0.2343 H   0  0  0  0  0  0  0  0  0 13  0  0
    0.9259    1.0224    0.7365 H   0  0  0  0  0  0  0  0  0 14  0  0
  1  7  1  0
  2  9  1  0
  2  8  1  0
  2  3  1  0
  3  4  1  0
  3 10  1  0
  4 11  1  0
  4 12  1  0
  4  5  1  0
  5  6  1  0
  6 14  1  0
  6 13  1  0
  6  7  1  0
M  END
>  <rmg_smiles>  (2) 
[CH2][CH]COCO

>  <rmg_adjacency_list>  (2) 
1  O u0 p2 c0 {3,S} {4,S}
2  O u0 p2 c0 {4,S} {14,S}
3  C u0 p0 c0 {1,S} {5,S} {7,S} {8,S}
4  C u0 p0 c0 {1,S} {2,S} {9,S} {10,S}
5  C u0 p0 c0 {3,S} {6,S} {11,S}
6  C u0 p0 c0 {5,S} {12,S} {13,S}
7  H u0 p0 c0 {3,S}
8  H u0 p0 c0 {3,S}
9  H u0 p0 c0 {4,S}
10 H u0 p0 c0 {4,S}
11 H u0 p0 c0 {5,S}
12 H u0 p0 c0 {6,S}
13 H u0 p0 c0 {6,S}
14 H u0 p0 c0 {2,S}


>  <multiplicity>  (2) 
1

>  <reaction>  (2) 
rmg_rxn_15644

>  <type>  (2) 
r2h

>  <role_mapnums>  (2) 
{"r2h_a": 7, "r2h_h": 1}

>  <role_mapidx>  (2) 
{"r2h_a": 6, "r2h_h": 0}

>  <ordered_mapped_smiles>  (2) 
[H:1][O:7][C:6]([O:5][C:4]([CH:3]([CH:2]([H:8])[H:9])[H:10])([H:11])[H:12])([H:13])[H:14]

>  <mol_properties>  (2) 
{"0": {"label": "a_hydrogen", "atom_type": "H0"}, "6": {"label": "acceptor", "atom_type": "O2s"}}

>  <level_of_theory>  (2) 
wb97xd/def2tzvp

>  <lot_method>  (2) 
wb97xd

>  <lot_basis>  (2) 
def2tzvp

>  <spin_multiplicity>  (2) 
1.0

>  <optical_isomers>  (2) 
2.0

>  <modes>  (2) 
IdealGasTranslation(mass=(88.0524, 'amu')),         NonlinearRotor(             inertia = ([62.4755, 247.019, 267.132

>  <frequency_value>  (2) 
unknown

>  <frequency_units>  (2) 
unknown

>  <frequency_list>  (2) 
unknown

>  <arkane_path>  (2) 
/home/calvin/Dropbox/PersonalFolders/Calvin/ZEUS_Converged/rmg_rxn_15644/output/Species/rmg_rxn_15644_p2_C=CCOCO/arkane/output.py

>  <path_exists>  (2) 
True

>  <E0_value>  (2) 
-807484.8524164247

>  <E0_units>  (2) 
kJ/mol

>  <thermo_class>  (2) 
NASA

>  <Cp0_value>  (2) 
33.257888

>  <Cp0_units>  (2) 
J/(mol*K)

>  <CpInf_value>  (2) 
332.57888

>  <CpInf_units>  (2) 
J/(mol*K)

>  <Tmin_value>  (2) 
10.0

>  <Tmin_units>  (2) 
K

>  <Tmax_value>  (2) 
3000.0

>  <Tmax_units>  (2) 
K

>  <polynomials>  (2) 
[{"name": "polynomial1", "class": "NASAPolynomial", "Tmin_value": 10.0, "Tmin_units": "K", "Tmax_value": 951.0524616383826, "Tmax_units": "K", "coeffs": [3.7830136747009746, 0.02730165264485492, 2.7115848956578007e-05, -4.6900329274322994e-08, 1.7949605140138815e-11, -97117998.47242273, 11.22324422463901]}, {"name": "polynomial2", "class": "NASAPolynomial", "Tmin_value": 951.0524616383826, "Tmin_units": "K", "Tmax_value": 3000.0, "Tmax_units": "K", "coeffs": [3.8273289179743215, 0.04312708482250014, -2.3097861092757227e-05, 6.000746502449904e-09, -6.096905264168253e-13, -97118731.03666244, 7.204653499089413]}]

>  <H298_value>  (2) 
-192988.56033858497

>  <H298_units>  (2) 
kcal/mol

>  <S298_value>  (2) 
82.94001480928443

>  <S298_units>  (2) 
cal/(mol*K)

>  <Cp_T_value_list>  (2) 
[26.41597334783217, 32.78910476176138, 38.69510635792486, 43.96000567879716, 52.298642528855424, 58.12103799453406, 66.99614312701847, 71.42214471276988, 73.55625753975892]

>  <Cp_T_units>  (2) 
cal/(mol*K)

>  <T_list>  (2) 
[300.0, 400.0, 500.0, 600.0, 800.0, 1000.0, 1500.0, 2000.0, 2400.0]

>  <T_units>  (2) 
K

>  <yaml_path>  (2) 
/home/calvin/Dropbox/PersonalFolders/Calvin/ZEUS_Converged/rmg_rxn_15644/output/Species/rmg_rxn_15644_p2_C=CCOCO/rmg_rxn_15644_p2_C=CCOCO.yml

>  <frequencies_cm1>  (2) 
[77.30165374724, 129.47014122328, 172.533006165, 253.86558029507995, 363.03004592712, 386.96148976731996, 559.06187585716, 591.1993671547599, 632.7240273847999, 885.1818756892799, 957.0654780190399, 964.95564415172, 1007.4279483559199, 1029.52590711568, 1057.08311920484, 1080.95276017716, 1096.3622752352398, 1165.6776250553198, 1270.907308099, 1310.55041435136, 1321.207975568, 1376.8442906306398, 1389.3284699424, 1434.01194341964, 1437.9535929933202, 1480.0413460196, 1512.3917138621198, 1719.32831648032, 2998.7369524054798, 3010.3146896549997, 3044.57407941648, 3064.1243866225195, 3120.2551246282, 3133.81055364988, 3215.56201388448, 3829.6490431107995]

>  <ZPE_kJmol>  (2) 
311.5074991336928

>  <E_elec_kJmol>  (2) 
-807796.3599155584

>  <E0_minus_Eelec_plus_ZPE_kJmol>  (2) 
0.0

>  <rxn>  (2) 
rmg_rxn_15644

>  <species_type>  (2) 
p1

>  <species_folder>  (2) 
rmg_rxn_15644_p2_C=CCOCO

>  <frequencies_cm1_list>  (2) 
[77.30165374724, 129.47014122328, 172.533006165, 253.86558029507995, 363.03004592712, 386.96148976731996, 559.06187585716, 591.1993671547599, 632.7240273847999, 885.1818756892799, 957.0654780190399, 964.95564415172, 1007.4279483559199, 1029.52590711568, 1057.08311920484, 1080.95276017716, 1096.3622752352398, 1165.6776250553198, 1270.907308099, 1310.55041435136, 1321.207975568, 1376.8442906306398, 1389.3284699424, 1434.01194341964, 1437.9535929933202, 1480.0413460196, 1512.3917138621198, 1719.32831648032, 2998.7369524054798, 3010.3146896549997, 3044.57407941648, 3064.1243866225195, 3120.2551246282, 3133.81055364988, 3215.56201388448, 3829.6490431107995]

>  <E0_kJmol>  (2) 
-807485

>  <H298_kJmol>  (2) 
-807464

$$$$

     RDKit          3D

 22 20  0  0  0  0  0  0  0  0999 V2000
   -1.5628    2.0962    0.8862 C   0  0  0  0  0  0  0  0  0  1  0  0
   -1.4440    2.0040   -0.4821 O   0  0  0  0  0  0  0  0  0  2  0  0
   -2.2163    0.9584   -0.9743 N   0  0  0  0  0  0  0  0  0  3  0  0
   -1.8273    0.6113   -2.1230 C   0  0  0  0  0  0  0  0  0  4  0  0
   -0.7647    1.3275    1.4170 H   0  0  0  0  0  0  0  0  0  5  0  0
   -2.5441    1.7906    1.2490 H   0  0  0  0  0  0  0  0  0  6  0  0
   -1.2561    3.0932    1.1961 H   0  0  0  0  0  0  0  0  0  7  0  0
   -2.3904   -0.1794   -2.6012 H   0  0  0  0  0  0  0  0  0  8  0  0
   -0.9717    1.0630   -2.6170 H   0  0  0  0  0  0  0  0  0  9  0  0
    2.8372   -2.2601   -0.4389 C   0  0  0  0  0  0  0  0  0 10  0  0
    1.7168   -2.6545    0.1429 C   0  0  0  0  0  0  0  0  0 11  0  0
    0.4609   -1.8411    0.2572 C   0  0  0  0  0  0  0  0  0 12  0  0
    0.5906   -0.5216   -0.2154 O   0  0  0  0  0  0  0  0  0 13  0  0
    1.0596    0.3928    0.7442 C   0  0  0  0  0  0  0  0  0 14  0  0
    0.2414    0.5642    1.8210 O   0  0  0  0  0  1  0  0  0 15  0  0
    3.7035   -2.9071   -0.4862 H   0  0  0  0  0  0  0  0  0 16  0  0
    2.9180   -1.2792   -0.8916 H   0  0  0  0  0  0  0  0  0 17  0  0
    1.6559   -3.6469    0.5820 H   0  0  0  0  0  0  0  0  0 18  0  0
    0.1108   -1.8390    1.2959 H   0  0  0  0  0  0  0  0  0 19  0  0
   -0.3300   -2.3116   -0.3341 H   0  0  0  0  0  0  0  0  0 20  0  0
    1.2205    1.3237    0.1870 H   0  0  0  0  0  0  0  0  0 21  0  0
    2.0255    0.0568    1.1578 H   0  0  0  0  0  0  0  0  0 22  0  0
  1  7  1  0
  1  2  1  0
  1  5  1  0
  1  6  1  0
  2  3  1  0
  3  4  1  0
  4  9  1  0
  4  8  1  0
 10 16  1  0
 10 11  1  0
 10 17  1  0
 11 12  1  0
 11 18  1  0
 12 19  1  0
 12 13  1  0
 12 20  1  0
 13 14  1  0
 14 22  1  0
 14 21  1  0
 14 15  1  0
M  RAD  1  15   2
M  END
>  <rmg_smiles>  (3) 
[CH2][CH]COC[O].CO[N][CH2]

>  <rmg_adjacency_list>  (3) 
multiplicity 2
1  O u0 p2 c0 {5,S} {6,S}
2  O u0 p2 c0 {4,S} {7,S}
3  O u1 p2 c0 {6,S}
4  N u0 p1 c0 {2,S} {10,S}
5  C u0 p0 c0 {1,S} {8,S} {11,S} {12,S}
6  C u0 p0 c0 {1,S} {3,S} {16,S} {17,S}
7  C u0 p0 c0 {2,S} {13,S} {14,S} {15,S}
8  C u0 p0 c0 {5,S} {9,S} {18,S}
9  C u0 p0 c0 {8,S} {19,S} {20,S}
10 C u0 p0 c0 {4,S} {21,S} {22,S}
11 H u0 p0 c0 {5,S}
12 H u0 p0 c0 {5,S}
13 H u0 p0 c0 {7,S}
14 H u0 p0 c0 {7,S}
15 H u0 p0 c0 {7,S}
16 H u0 p0 c0 {6,S}
17 H u0 p0 c0 {6,S}
18 H u0 p0 c0 {8,S}
19 H u0 p0 c0 {9,S}
20 H u0 p0 c0 {9,S}
21 H u0 p0 c0 {10,S}
22 H u0 p0 c0 {10,S}


>  <multiplicity>  (3) 
2

>  <reaction>  (3) 
rmg_rxn_15644

>  <type>  (3) 
ts

>  <role_mapnums>  (3) 
{"*2": 5, "*1": 1, "*3": 15, "*0": 2, "*4": 14}

>  <role_mapidx>  (3) 
{"*2": 4, "*1": 0, "*3": 14, "*0": 1, "*4": 13}

>  <ordered_mapped_smiles>  (3) 
[C:1]([O:2][NH:3][CH:4]([H:8])[H:9])([H:5])([H:6])[H:7].[CH:10]([CH:11]([C:12]([O:13][C:14]([O:15])([H:21])[H:22])([H:19])[H:20])[H:18])([H:16])[H:17]

>  <mol_properties>  (3) 
{"0": {"label": "*1", "atom_type": "Cs"}, "1": {"label": "*0", "atom_type": "O2s"}, "4": {"label": "*2", "atom_type": "H0"}, "13": {"label": "*4", "atom_type": "Cs"}, "14": {"label": "*3", "atom_type": "O2s"}}

>  <level_of_theory>  (3) 
wb97xd/def2tzvp

>  <lot_method>  (3) 
wb97xd

>  <lot_basis>  (3) 
def2tzvp

>  <spin_multiplicity>  (3) 
2.0

>  <optical_isomers>  (3) 
2.0

>  <modes>  (3) 
IdealGasTranslation(mass=(146.082, 'amu')),         NonlinearRotor(             inertia = ([242.868, 728.086, 872.743

>  <frequency_value>  (3) 
-1325.57

>  <frequency_units>  (3) 
cm^-1

>  <frequency_list>  (3) 
unknown

>  <arkane_path>  (3) 
/home/calvin/Dropbox/PersonalFolders/Calvin/ZEUS_Converged/rmg_rxn_15644/output/rxns/TS0/arkane/output.py

>  <path_exists>  (3) 
True

>  <E0_value>  (3) 
-1354610.0

>  <E0_units>  (3) 
kJ/mol

>  <thermo_class>  (3) 
unknown

>  <Cp0_value>  (3) 
unknown

>  <Cp0_units>  (3) 
unknown

>  <CpInf_value>  (3) 
unknown

>  <CpInf_units>  (3) 
unknown

>  <Tmin_value>  (3) 
unknown

>  <Tmin_units>  (3) 
unknown

>  <Tmax_value>  (3) 
unknown

>  <Tmax_units>  (3) 
unknown

>  <polynomials>  (3) 
unknown

>  <H298_value>  (3) 
unknown

>  <H298_units>  (3) 
unknown

>  <S298_value>  (3) 
unknown

>  <S298_units>  (3) 
unknown

>  <Cp_T_value_list>  (3) 
unknown

>  <Cp_T_units>  (3) 
unknown

>  <T_list>  (3) 
unknown

>  <T_units>  (3) 
unknown

>  <yaml_path>  (3) 
unknown

>  <frequencies_cm1>  (3) 
unknown

>  <ZPE_kJmol>  (3) 
unknown

>  <E_elec_kJmol>  (3) 
unknown

>  <E0_minus_Eelec_plus_ZPE_kJmol>  (3) 
unknown

>  <rxn>  (3) 
unknown

>  <species_type>  (3) 
unknown

>  <species_folder>  (3) 
unknown

>  <frequencies_cm1_list>  (3) 
[]

>  <ts_imag_freq_cm1>  (3) 
-1341.6748

>  <ts_freq_out_path>  (3) 
/home/calvin/Dropbox/PersonalFolders/Calvin/ZEUS_Converged/rmg_rxn_15644/output/rxns/TS0/geometry/freq.out

>  <E0_kJmol>  (3) 
-1.35461e+06

>  <H298_kJmol>  (3) 
unknown

$$$$

     RDKit          3D

  8  7  0  0  0  0  0  0  0  0999 V2000
    1.7077   -0.1964   -0.0607 C   0  0  0  0  0  3  0  0  0  1  0  0
    0.4209   -0.4565    0.2808 O   0  0  0  0  0  0  0  0  0  2  0  0
   -0.4607    0.4385   -0.2968 N   0  0  0  0  0  0  0  0  0  3  0  0
   -1.6584    0.1416   -0.0244 C   0  0  0  0  0  0  0  0  0  4  0  0
    2.4163   -0.7685    0.5170 H   0  0  0  0  0  0  0  0  0  5  0  0
    1.9214    0.7645   -0.5045 H   0  0  0  0  0  0  0  0  0  6  0  0
   -2.4185    0.7953   -0.4307 H   0  0  0  0  0  0  0  0  0  7  0  0
   -1.9286   -0.7185    0.5831 H   0  0  0  0  0  0  0  0  0  8  0  0
  1  6  1  0
  1  5  1  0
  1  2  1  0
  2  3  1  0
  3  4  1  0
  4  8  1  0
  4  7  1  0
M  RAD  1   1   2
M  END
>  <rmg_smiles>  (4) 
[CH2]O[N][CH2]

>  <rmg_adjacency_list>  (4) 
multiplicity 2
1 O u0 p2 c0 {2,S} {3,S}
2 N u0 p1 c0 {1,S} {4,S}
3 C u1 p0 c0 {1,S} {5,S} {6,S}
4 C u0 p0 c0 {2,S} {7,S} {8,S}
5 H u0 p0 c0 {3,S}
6 H u0 p0 c0 {3,S}
7 H u0 p0 c0 {4,S}
8 H u0 p0 c0 {4,S}


>  <multiplicity>  (4) 
2

>  <reaction>  (4) 
rmg_rxn_15644

>  <type>  (4) 
r1

>  <role_mapnums>  (4) 
{}

>  <role_mapidx>  (4) 
{}

>  <ordered_mapped_smiles>  (4) 
[C:1]([O:2][NH:3][CH:4]([H:7])[H:8])([H:5])[H:6]

>  <level_of_theory>  (4) 
wb97xd/def2tzvp

>  <lot_method>  (4) 
wb97xd

>  <lot_basis>  (4) 
def2tzvp

>  <spin_multiplicity>  (4) 
2.0

>  <optical_isomers>  (4) 
2.0

>  <modes>  (4) 
IdealGasTranslation(mass=(58.0293, 'amu')),         NonlinearRotor(             inertia = ([10.2741, 95.4529, 105.582

>  <frequency_value>  (4) 
unknown

>  <frequency_units>  (4) 
unknown

>  <frequency_list>  (4) 
unknown

>  <arkane_path>  (4) 
/home/calvin/Dropbox/PersonalFolders/Calvin/ZEUS_Converged/rmg_rxn_15644/output/Species/rmg_rxn_15644_p1_sbr-CH2-sbrON=C/arkane/output.py

>  <path_exists>  (4) 
True

>  <E0_value>  (4) 
-547168.2732446302

>  <E0_units>  (4) 
kJ/mol

>  <thermo_class>  (4) 
NASA

>  <Cp0_value>  (4) 
33.257888

>  <Cp0_units>  (4) 
J/(mol*K)

>  <CpInf_value>  (4) 
182.918384

>  <CpInf_units>  (4) 
J/(mol*K)

>  <Tmin_value>  (4) 
10.0

>  <Tmin_units>  (4) 
K

>  <Tmax_value>  (4) 
3000.0

>  <Tmax_units>  (4) 
K

>  <polynomials>  (4) 
[{"name": "polynomial1", "class": "NASAPolynomial", "Tmin_value": 10.0, "Tmin_units": "K", "Tmax_value": 253.2842427910515, "Tmax_units": "K", "coeffs": [3.956862909385456, 0.0038362890131335746, 0.00011727738047703725, -3.4736244039427427e-07, 3.472729073035136e-10, -65809144.38694886, 9.350338763280796]}, {"name": "polynomial2", "class": "NASAPolynomial", "Tmin_value": 253.2842427910515, "Tmin_units": "K", "Tmax_value": 3000.0, "Tmax_units": "K", "coeffs": [2.5252197328965313, 0.026445761179553072, -1.662161754135038e-05, 5.074735532607581e-09, -5.97403912324656e-13, -65809071.86505469, 14.291183066674913]}]

>  <H298_value>  (4) 
-130772.65860702786

>  <H298_units>  (4) 
kcal/mol

>  <S298_value>  (4) 
71.26914844977757

>  <S298_units>  (4) 
cal/(mol*K)

>  <Cp_T_value_list>  (4) 
[18.0740035969719, 21.369534269323825, 24.223451351766553, 26.683440747612977, 30.598134113509214, 33.438117676478754, 37.554421513360474, 39.68390492467901, 40.91110806828642]

>  <Cp_T_units>  (4) 
cal/(mol*K)

>  <T_list>  (4) 
[300.0, 400.0, 500.0, 600.0, 800.0, 1000.0, 1500.0, 2000.0, 2400.0]

>  <T_units>  (4) 
K

>  <yaml_path>  (4) 
/home/calvin/Dropbox/PersonalFolders/Calvin/ZEUS_Converged/rmg_rxn_15644/output/Species/rmg_rxn_15644_p1_sbr-CH2-sbrON=C/rmg_rxn_15644_p1_sbr-CH2-sbrON=C.yml

>  <frequencies_cm1>  (4) 
[132.13453152744, 273.14807507364, 360.4549264321199, 498.69420790903996, 595.9169860696, 789.3942974605999, 873.74834513148, 993.5360370535599, 1152.01232426852, 1206.54305469464, 1257.0497317232398, 1417.2771001948001, 1437.260027476, 1705.2166616477198, 3090.5210781926, 3134.7719315946797, 3218.94057066192, 3282.16490450316]

>  <ZPE_kJmol>  (4) 
152.0381400376291

>  <E_elec_kJmol>  (4) 
-547320.3113846679

>  <E0_minus_Eelec_plus_ZPE_kJmol>  (4) 
0.0

>  <rxn>  (4) 
rmg_rxn_15644

>  <species_type>  (4) 
p0

>  <species_folder>  (4) 
rmg_rxn_15644_p1_sbr-CH2-sbrON=C

>  <frequencies_cm1_list>  (4) 
[132.13453152744, 273.14807507364, 360.4549264321199, 498.69420790903996, 595.9169860696, 789.3942974605999, 873.74834513148, 993.5360370535599, 1152.01232426852, 1206.54305469464, 1257.0497317232398, 1417.2771001948001, 1437.260027476, 1705.2166616477198, 3090.5210781926, 3134.7719315946797, 3218.94057066192, 3282.16490450316]

>  <E0_kJmol>  (4) 
-547168

>  <H298_kJmol>  (4) 
-547153

$$$$

     RDKit          3D

 13 12  0  0  0  0  0  0  0  0999 V2000
    2.4430   -0.3849    0.0540 C   0  0  0  0  0  0  0  0  0  1  0  0
    1.2567   -0.6322    0.5818 C   0  0  0  0  0  0  0  0  0  2  0  0
    0.0753    0.2775    0.5273 C   0  0  0  0  0  0  0  0  0  3  0  0
    0.3842    1.4616   -0.1714 O   0  0  0  0  0  0  0  0  0  4  0  0
   -0.6866    2.3343   -0.3126 C   0  0  0  0  0  0  0  0  0  5  0  0
   -1.2216    2.8361    0.7984 O   0  0  0  0  0  1  0  0  0  6  0  0
    3.2507   -1.0998    0.1431 H   0  0  0  0  0  0  0  0  0  7  0  0
    2.6411    0.5367   -0.4774 H   0  0  0  0  0  0  0  0  0  8  0  0
    1.0785   -1.5620    1.1139 H   0  0  0  0  0  0  0  0  0  9  0  0
   -0.2540    0.5126    1.5468 H   0  0  0  0  0  0  0  0  0 10  0  0
   -0.7614   -0.2409    0.0324 H   0  0  0  0  0  0  0  0  0 11  0  0
   -1.5299    1.8457   -0.8558 H   0  0  0  0  0  0  0  0  0 12  0  0
   -0.3398    3.1546   -0.9632 H   0  0  0  0  0  0  0  0  0 13  0  0
  1  8  1  0
  1  7  1  0
  1  2  1  0
  2  9  1  0
  2  3  1  0
  3 11  1  0
  3  4  1  0
  3 10  1  0
  4  5  1  0
  5 13  1  0
  5  6  1  0
  5 12  1  0
M  RAD  1   6   2
M  END
>  <rmg_smiles>  (5) 
[CH2][CH]COC[O]

>  <rmg_adjacency_list>  (5) 
multiplicity 2
1  O u0 p2 c0 {3,S} {4,S}
2  O u1 p2 c0 {4,S}
3  C u0 p0 c0 {1,S} {5,S} {7,S} {8,S}
4  C u0 p0 c0 {1,S} {2,S} {9,S} {10,S}
5  C u0 p0 c0 {3,S} {6,S} {11,S}
6  C u0 p0 c0 {5,S} {12,S} {13,S}
7  H u0 p0 c0 {3,S}
8  H u0 p0 c0 {3,S}
9  H u0 p0 c0 {4,S}
10 H u0 p0 c0 {4,S}
11 H u0 p0 c0 {5,S}
12 H u0 p0 c0 {6,S}
13 H u0 p0 c0 {6,S}


>  <multiplicity>  (5) 
2

>  <reaction>  (5) 
rmg_rxn_15644

>  <type>  (5) 
r2

>  <role_mapnums>  (5) 
{}

>  <role_mapidx>  (5) 
{}

>  <ordered_mapped_smiles>  (5) 
[CH:1]([CH:2]([C:3]([O:4][C:5]([O:6])([H:12])[H:13])([H:10])[H:11])[H:9])([H:7])[H:8]

>  <level_of_theory>  (5) 
wb97xd/def2tzvp

>  <lot_method>  (5) 
wb97xd

>  <lot_basis>  (5) 
def2tzvp

>  <spin_multiplicity>  (5) 
2.0

>  <optical_isomers>  (5) 
2.0

>  <modes>  (5) 
IdealGasTranslation(mass=(87.0446, 'amu')),         NonlinearRotor(             inertia = ([43.2701, 281.035, 303.214

>  <frequency_value>  (5) 
unknown

>  <frequency_units>  (5) 
unknown

>  <frequency_list>  (5) 
unknown

>  <arkane_path>  (5) 
/home/calvin/Dropbox/PersonalFolders/Calvin/ZEUS_Converged/rmg_rxn_15644/output/Species/rmg_rxn_15644_r2_C=CCOCsbr-O-sbr/arkane/output.py

>  <path_exists>  (5) 
True

>  <E0_value>  (5) 
-805752.0639491953

>  <E0_units>  (5) 
kJ/mol

>  <thermo_class>  (5) 
NASA

>  <Cp0_value>  (5) 
33.257888

>  <Cp0_units>  (5) 
J/(mol*K)

>  <CpInf_value>  (5) 
307.635464

>  <CpInf_units>  (5) 
J/(mol*K)

>  <Tmin_value>  (5) 
10.0

>  <Tmin_units>  (5) 
K

>  <Tmax_value>  (5) 
3000.0

>  <Tmax_units>  (5) 
K

>  <polynomials>  (5) 
[{"name": "polynomial1", "class": "NASAPolynomial", "Tmin_value": 10.0, "Tmin_units": "K", "Tmax_value": 1110.8015768620794, "Tmax_units": "K", "coeffs": [3.9202118391312752, 0.027294825020104153, 1.6753512074739745e-05, -3.116163751948595e-08, 1.0945960395583141e-11, -96909597.71400224, 11.85312846623316]}, {"name": "polynomial2", "class": "NASAPolynomial", "Tmin_value": 1110.8015768620794, "Tmin_units": "K", "Tmax_value": 3000.0, "Tmax_units": "K", "coeffs": [7.537118238775617, 0.03302300665239599, -1.630485116508982e-05, 3.8770394226038425e-09, -3.6047132707891035e-13, -96911558.17461371, -11.184050222850306]}]

>  <H298_value>  (5) 
-192574.47087869825

>  <H298_units>  (5) 
kcal/mol

>  <S298_value>  (5) 
85.07506560459476

>  <S298_units>  (5) 
cal/(mol*K)

>  <Cp_T_value_list>  (5) 
[25.56297432218494, 31.406955305653604, 36.852585986429666, 41.76323905605712, 49.69412573192994, 55.15068728117495, 62.88680914722946, 66.79498056175008, 68.58447976792732]

>  <Cp_T_units>  (5) 
cal/(mol*K)

>  <T_list>  (5) 
[300.0, 400.0, 500.0, 600.0, 800.0, 1000.0, 1500.0, 2000.0, 2400.0]

>  <T_units>  (5) 
K

>  <yaml_path>  (5) 
/home/calvin/Dropbox/PersonalFolders/Calvin/ZEUS_Converged/rmg_rxn_15644/output/Species/rmg_rxn_15644_r2_C=CCOCsbr-O-sbr/rmg_rxn_15644_r2_C=CCOCsbr-O-sbr.yml

>  <frequencies_cm1>  (5) 
[41.43538942088, 126.51733753568001, 186.47985334991998, 206.13316533576, 313.49161382863997, 541.2214479958, 570.70141597456, 654.9249909243599, 769.1847596638399, 925.45674459108, 961.22000413764, 977.07587324152, 1016.9661909654, 1043.47962128592, 1068.38617704156, 1112.7606361793999, 1168.74716749336, 1212.37999221664, 1265.5167246228, 1314.14871465904, 1317.4311336419998, 1369.91550244276, 1416.02044188124, 1439.09351255644, 1490.4516957647197, 1724.9386434867597, 2794.08018891352, 2936.60446923012, 2938.6645648261197, 3002.2391149186797, 3127.0877750216, 3141.1238930156796, 3222.75861449984]

>  <ZPE_kJmol>  (5) 
271.5322690042694

>  <E_elec_kJmol>  (5) 
-806023.5962181996

>  <E0_minus_Eelec_plus_ZPE_kJmol>  (5) 
0.0

>  <rxn>  (5) 
rmg_rxn_15644

>  <species_type>  (5) 
r1

>  <species_folder>  (5) 
rmg_rxn_15644_r2_C=CCOCsbr-O-sbr

>  <frequencies_cm1_list>  (5) 
[41.43538942088, 126.51733753568001, 186.47985334991998, 206.13316533576, 313.49161382863997, 541.2214479958, 570.70141597456, 654.9249909243599, 769.1847596638399, 925.45674459108, 961.22000413764, 977.07587324152, 1016.9661909654, 1043.47962128592, 1068.38617704156, 1112.7606361793999, 1168.74716749336, 1212.37999221664, 1265.5167246228, 1314.14871465904, 1317.4311336419998, 1369.91550244276, 1416.02044188124, 1439.09351255644, 1490.4516957647197, 1724.9386434867597, 2794.08018891352, 2936.60446923012, 2938.6645648261197, 3002.2391149186797, 3127.0877750216, 3141.1238930156796, 3222.75861449984]

>  <E0_kJmol>  (5) 
-805752

>  <H298_kJmol>  (5) 
-805732

$$$$
