
     RDKit          3D

 10  9  0  0  0  0  0  0  0  0999 V2000
   -1.2179    0.9046    1.1550 C   0  0  0  0  0  0  0  0  0  1  0  0
   -0.4176    0.1068    0.5130 C   0  0  0  0  0  2  0  0  0  2  0  0
    0.3730   -0.7002   -0.1582 C   0  0  0  0  0  0  0  0  0  3  0  0
    1.1133   -0.3373   -1.3646 C   0  0  0  0  0  0  0  0  0  4  0  0
   -2.2824    0.9257    0.9445 H   0  0  0  0  0  0  0  0  0  5  0  0
   -0.8541    1.5763    1.9263 H   0  0  0  0  0  0  0  0  0  6  0  0
    0.5382   -1.6912    0.2561 H   0  0  0  0  0  0  0  0  0  7  0  0
    2.0462    0.0977   -1.0169 H   0  0  0  0  0  0  0  0  0  8  0  0
    0.6814    0.4752   -1.9434 H   0  0  0  0  0  0  0  0  0  9  0  0
    1.4272   -1.1764   -1.9783 H   0  0  0  0  0  0  0  0  0 10  0  0
  1  5  1  0
  1  6  1  0
  1  2  1  0
  2  3  1  0
  3  4  1  0
  3  7  1  0
  4  8  1  0
  4  9  1  0
  4 10  1  0
M  RAD  1   2   3
M  END
>  <rmg_smiles>  (1) 
[CH2][C][CH]C

>  <rmg_adjacency_list>  (1) 
1  C u0 p0 c0 {2,S} {5,S} {6,S} {7,S}
2  C u0 p0 c0 {1,S} {4,S} {8,S}
3  C u0 p0 c0 {4,S} {9,S} {10,S}
4  C u0 p1 c0 {2,S} {3,S}
5  H u0 p0 c0 {1,S}
6  H u0 p0 c0 {1,S}
7  H u0 p0 c0 {1,S}
8  H u0 p0 c0 {2,S}
9  H u0 p0 c0 {3,S}
10 H u0 p0 c0 {3,S}


>  <multiplicity>  (1) 
1

>  <reaction>  (1) 
rmg_rxn_14178

>  <type>  (1) 
r1h

>  <role_mapnums>  (1) 
{"r1h_a": 4, "r1h_h": 8}

>  <role_mapidx>  (1) 
{"r1h_a": 3, "r1h_h": 7}

>  <ordered_mapped_smiles>  (1) 
[CH:1]([C:2][CH:3]([C:4]([H:8])([H:9])[H:10])[H:7])([H:5])[H:6]

>  <mol_properties>  (1) 
{"3": {"label": "donator", "atom_type": "Cs"}, "7": {"label": "d_hydrogen", "atom_type": "H0"}}

>  <level_of_theory>  (1) 
wb97xd/def2tzvp

>  <lot_method>  (1) 
wb97xd

>  <lot_basis>  (1) 
def2tzvp

>  <spin_multiplicity>  (1) 
1.0

>  <optical_isomers>  (1) 
1.0

>  <modes>  (1) 
IdealGasTranslation(mass=(54.047, 'amu')),         NonlinearRotor(             inertia = ([14.6121, 119.467, 127.49

>  <frequency_value>  (1) 
unknown

>  <frequency_units>  (1) 
unknown

>  <frequency_list>  (1) 
unknown

>  <arkane_path>  (1) 
/home/calvin/Dropbox/PersonalFolders/Calvin/ZEUS_Converged/rmg_rxn_14178/output/Species/rmg_rxn_14178_r2_C=C=CC/arkane/output.py

>  <path_exists>  (1) 
True

>  <E0_value>  (1) 
-409296.6502421279

>  <E0_units>  (1) 
kJ/mol

>  <thermo_class>  (1) 
NASA

>  <Cp0_value>  (1) 
33.257888

>  <Cp0_units>  (1) 
J/(mol*K)

>  <CpInf_value>  (1) 
232.805216

>  <CpInf_units>  (1) 
J/(mol*K)

>  <Tmin_value>  (1) 
10.0

>  <Tmin_units>  (1) 
K

>  <Tmax_value>  (1) 
3000.0

>  <Tmax_units>  (1) 
K

>  <polynomials>  (1) 
[{"name": "polynomial1", "class": "NASAPolynomial", "Tmin_value": 10.0, "Tmin_units": "K", "Tmax_value": 452.8802664009696, "Tmax_units": "K", "coeffs": [3.9021943352433452, 0.007937521032632688, 6.664442489196733e-05, -1.2131953588307993e-07, 6.938885885775227e-11, -49227014.555544384, 8.255511443201872]}, {"name": "polynomial2", "class": "NASAPolynomial", "Tmin_value": 452.8802664009696, "Tmin_units": "K", "Tmax_value": 3000.0, "Tmax_units": "K", "coeffs": [0.958037882717614, 0.033941191741253485, -1.948265019694705e-05, 5.463813645242153e-09, -5.979209978345261e-13, -49226747.88374059, 20.12723627389473]}]

>  <H298_value>  (1) 
-97820.47439749332

>  <H298_units>  (1) 
kcal/mol

>  <S298_value>  (1) 
69.30943774444917

>  <S298_units>  (1) 
cal/(mol*K)

>  <Cp_T_value_list>  (1) 
[19.013335795722274, 23.35407848830737, 27.231838984706652, 30.626214617830076, 36.15654523435027, 40.30546036176962, 46.594544625367064, 49.786664420046236, 51.450781523093035]

>  <Cp_T_units>  (1) 
cal/(mol*K)

>  <T_list>  (1) 
[300.0, 400.0, 500.0, 600.0, 800.0, 1000.0, 1500.0, 2000.0, 2400.0]

>  <T_units>  (1) 
K

>  <yaml_path>  (1) 
/home/calvin/Dropbox/PersonalFolders/Calvin/ZEUS_Converged/rmg_rxn_14178/output/Species/rmg_rxn_14178_r2_C=C=CC/rmg_rxn_14178_r2_C=C=CC.yml

>  <frequencies_cm1>  (1) 
[164.84884959192, 210.28769145436, 340.98015606459995, 540.2944049775999, 574.7186023867599, 878.6239047086799, 884.0282221555199, 895.09093550604, 1017.79709618912, 1055.91573170044, 1088.91159616304, 1146.5530709391198, 1353.77808694076, 1399.01778622892, 1463.354571692, 1470.3726306890399, 1494.8053644576, 2061.4346581373993, 3012.63573069316, 3072.0282867258397, 3106.42501619372, 3110.62074422424, 3124.134971334, 3189.66661224276]

>  <ZPE_kJmol>  (1) 
219.25357474583132

>  <E_elec_kJmol>  (1) 
-409515.9038168737

>  <E0_minus_Eelec_plus_ZPE_kJmol>  (1) 
0.0

>  <rxn>  (1) 
rmg_rxn_14178

>  <species_type>  (1) 
r1

>  <species_folder>  (1) 
rmg_rxn_14178_r2_C=C=CC

>  <frequencies_cm1_list>  (1) 
[164.84884959192, 210.28769145436, 340.98015606459995, 540.2944049775999, 574.7186023867599, 878.6239047086799, 884.0282221555199, 895.09093550604, 1017.79709618912, 1055.91573170044, 1088.91159616304, 1146.5530709391198, 1353.77808694076, 1399.01778622892, 1463.354571692, 1470.3726306890399, 1494.8053644576, 2061.4346581373993, 3012.63573069316, 3072.0282867258397, 3106.42501619372, 3110.62074422424, 3124.134971334, 3189.66661224276]

>  <E0_kJmol>  (1) 
-409297

>  <H298_kJmol>  (1) 
-409281

$$$$

     RDKit          3D

 12 11  0  0  0  0  0  0  0  0999 V2000
   -0.0999    1.4625   -1.2959 C   0  0  0  0  0  0  0  0  0  1  0  0
   -0.2330    0.7586    0.0475 C   0  0  0  0  0  0  0  0  0  2  0  0
    0.2161   -0.6773   -0.0154 C   0  0  0  0  0  0  0  0  0  3  0  0
    0.1736   -1.3839    1.1684 O   0  0  0  0  0  0  0  0  0  4  0  0
   -0.4428    2.4955   -1.2333 H   0  0  0  0  0  0  0  0  0  5  0  0
    0.9397    1.4747   -1.6300 H   0  0  0  0  0  0  0  0  0  6  0  0
   -0.6907    0.9595   -2.0638 H   0  0  0  0  0  0  0  0  0  7  0  0
    0.3529    1.2832    0.8111 H   0  0  0  0  0  0  0  0  0  8  0  0
   -1.2775    0.7868    0.3804 H   0  0  0  0  0  0  0  0  0  9  0  0
    1.1824   -0.8396   -0.4921 H   0  0  0  0  0  0  0  0  0 10  0  0
   -0.7099   -1.3001    1.5421 H   0  0  0  0  0  0  0  0  0 11  0  0
   -0.5288   -1.1573   -0.6494 H   0  0  0  0  0  0  0  0  0 12  0  0
  1  5  1  0
  1  7  1  0
  1  6  1  0
  1  2  1  0
  2  9  1  0
  2  8  1  0
  2  3  1  0
  3  4  1  0
  3 12  1  0
  3 10  1  0
  4 11  1  0
M  END
>  <rmg_smiles>  (2) 
CCCO

>  <rmg_adjacency_list>  (2) 
1  O u0 p2 c0 {3,S} {12,S}
2  C u0 p0 c0 {3,S} {4,S} {5,S} {6,S}
3  C u0 p0 c0 {1,S} {2,S} {7,S} {8,S}
4  C u0 p0 c0 {2,S} {9,S} {10,S} {11,S}
5  H u0 p0 c0 {2,S}
6  H u0 p0 c0 {2,S}
7  H u0 p0 c0 {3,S}
8  H u0 p0 c0 {3,S}
9  H u0 p0 c0 {4,S}
10 H u0 p0 c0 {4,S}
11 H u0 p0 c0 {4,S}
12 H u0 p0 c0 {1,S}


>  <multiplicity>  (2) 
1

>  <reaction>  (2) 
rmg_rxn_14178

>  <type>  (2) 
r2h

>  <role_mapnums>  (2) 
{"r2h_a": 3, "r2h_h": 12}

>  <role_mapidx>  (2) 
{"r2h_a": 2, "r2h_h": 11}

>  <ordered_mapped_smiles>  (2) 
[C:1]([C:2]([C:3]([O:4][H:11])([H:10])[H:12])([H:8])[H:9])([H:5])([H:6])[H:7]

>  <mol_properties>  (2) 
{"2": {"label": "acceptor", "atom_type": "Cs"}, "11": {"label": "a_hydrogen", "atom_type": "H0"}}

>  <level_of_theory>  (2) 
wb97xd/def2tzvp

>  <lot_method>  (2) 
wb97xd

>  <lot_basis>  (2) 
def2tzvp

>  <spin_multiplicity>  (2) 
1.0

>  <optical_isomers>  (2) 
2.0

>  <modes>  (2) 
IdealGasTranslation(mass=(60.0575, 'amu')),         NonlinearRotor(             inertia = ([35.1424, 100.065, 117.206

>  <frequency_value>  (2) 
unknown

>  <frequency_units>  (2) 
unknown

>  <frequency_list>  (2) 
unknown

>  <arkane_path>  (2) 
/home/calvin/Dropbox/PersonalFolders/Calvin/ZEUS_Converged/rmg_rxn_14178/output/Species/rmg_rxn_14178_p1_CCCO/arkane/output.py

>  <path_exists>  (2) 
True

>  <E0_value>  (2) 
-510044.1612319261

>  <E0_units>  (2) 
kJ/mol

>  <thermo_class>  (2) 
NASA

>  <Cp0_value>  (2) 
33.257888

>  <Cp0_units>  (2) 
J/(mol*K)

>  <CpInf_value>  (2) 
282.692048

>  <CpInf_units>  (2) 
J/(mol*K)

>  <Tmin_value>  (2) 
10.0

>  <Tmin_units>  (2) 
K

>  <Tmax_value>  (2) 
3000.0

>  <Tmax_units>  (2) 
K

>  <polynomials>  (2) 
[{"name": "polynomial1", "class": "NASAPolynomial", "Tmin_value": 10.0, "Tmin_units": "K", "Tmax_value": 846.6309193938728, "Tmax_units": "K", "coeffs": [3.872097774701738, 0.013345666554551246, 4.415013277136787e-05, -6.075836782335126e-08, 2.3383073067661656e-11, -61344143.92232225, 9.287814408278317]}, {"name": "polynomial2", "class": "NASAPolynomial", "Tmin_value": 846.6309193938728, "Tmin_units": "K", "Tmax_value": 3000.0, "Tmax_units": "K", "coeffs": [0.5209498099841658, 0.039762755770429016, -2.1406145636869936e-05, 5.6291996951626315e-09, -5.806863488298974e-13, -61343955.815359086, 22.65699895976629]}]

>  <H298_value>  (2) 
-121899.45329310188

>  <H298_units>  (2) 
kcal/mol

>  <S298_value>  (2) 
73.11930156339947

>  <S298_units>  (2) 
cal/(mol*K)

>  <Cp_T_value_list>  (2) 
[20.663443471560598, 25.802796904286783, 30.70057248897497, 35.13417722844269, 42.27610612073553, 47.54604838399181, 55.761173617687504, 59.943080131597, 62.009669940758435]

>  <Cp_T_units>  (2) 
cal/(mol*K)

>  <T_list>  (2) 
[300.0, 400.0, 500.0, 600.0, 800.0, 1000.0, 1500.0, 2000.0, 2400.0]

>  <T_units>  (2) 
K

>  <yaml_path>  (2) 
/home/calvin/Dropbox/PersonalFolders/Calvin/ZEUS_Converged/rmg_rxn_14178/output/Species/rmg_rxn_14178_p1_CCCO/rmg_rxn_14178_p1_CCCO.yml

>  <frequencies_cm1>  (2) 
[147.21443129015998, 221.70748804151998, 281.96528422451996, 327.68567248508, 495.52852767651996, 773.66203409248, 866.8264239289199, 907.7811243773999, 991.0089864557999, 1085.4025666645198, 1095.06441500976, 1132.10493382584, 1235.87194899636, 1297.47567430208, 1365.5206318379599, 1374.09062951732, 1401.64784160648, 1415.7594964390798, 1471.3065406925598, 1481.4628119808397, 1492.95814540652, 1498.9667575615201, 2976.8724711465998, 2996.07942908664, 3016.6597840906798, 3038.2633199074, 3059.4823045462003, 3086.4558228831597, 3100.9245609523996, 3838.2877106433593]

>  <ZPE_kJmol>  (2) 
283.9578863328584

>  <E_elec_kJmol>  (2) 
-510328.119118259

>  <E0_minus_Eelec_plus_ZPE_kJmol>  (2) 
0.0

>  <rxn>  (2) 
rmg_rxn_14178

>  <species_type>  (2) 
p0

>  <species_folder>  (2) 
rmg_rxn_14178_p1_CCCO

>  <frequencies_cm1_list>  (2) 
[147.21443129015998, 221.70748804151998, 281.96528422451996, 327.68567248508, 495.52852767651996, 773.66203409248, 866.8264239289199, 907.7811243773999, 991.0089864557999, 1085.4025666645198, 1095.06441500976, 1132.10493382584, 1235.87194899636, 1297.47567430208, 1365.5206318379599, 1374.09062951732, 1401.64784160648, 1415.7594964390798, 1471.3065406925598, 1481.4628119808397, 1492.95814540652, 1498.9667575615201, 2976.8724711465998, 2996.07942908664, 3016.6597840906798, 3038.2633199074, 3059.4823045462003, 3086.4558228831597, 3100.9245609523996, 3838.2877106433593]

>  <E0_kJmol>  (2) 
-510044

>  <H298_kJmol>  (2) 
-510027

$$$$

     RDKit          3D

 21 19  0  0  0  0  0  0  0  0999 V2000
    1.2407    2.1345   -1.2313 C   0  0  0  0  0  0  0  0  0  1  0  0
    1.1076    1.4306    0.1121 C   0  0  0  0  0  0  0  0  0  2  0  0
    1.5568   -0.0053    0.0493 C   0  0  0  0  0  3  0  0  0  3  0  0
    1.5143   -0.7119    1.2331 O   0  0  0  0  0  0  0  0  0  4  0  0
    0.8979    3.1675   -1.1687 H   0  0  0  0  0  0  0  0  0  5  0  0
    2.2803    2.1467   -1.5654 H   0  0  0  0  0  0  0  0  0  6  0  0
    0.6500    1.6315   -1.9991 H   0  0  0  0  0  0  0  0  0  7  0  0
    1.6936    1.9552    0.8757 H   0  0  0  0  0  0  0  0  0  8  0  0
    0.0631    1.4588    0.4450 H   0  0  0  0  0  0  0  0  0  9  0  0
    2.5230   -0.1676   -0.4275 H   0  0  0  0  0  0  0  0  0 10  0  0
    0.6308   -0.6281    1.6067 H   0  0  0  0  0  0  0  0  0 11  0  0
   -2.8638    0.0958    1.3427 C   0  0  0  0  0  0  0  0  0 12  0  0
   -2.0635   -0.7019    0.7007 C   0  0  0  0  0  0  0  0  0 13  0  0
   -1.2729   -1.5090    0.0295 C   0  0  0  0  0  0  0  0  0 14  0  0
   -0.5326   -1.1460   -1.1768 C   0  0  0  0  0  0  0  0  0 15  0  0
   -3.9283    0.1169    1.1322 H   0  0  0  0  0  0  0  0  0 16  0  0
   -2.4999    0.7675    2.1140 H   0  0  0  0  0  0  0  0  0 17  0  0
   -1.1077   -2.5000    0.4439 H   0  0  0  0  0  0  0  0  0 18  0  0
    0.6215   -0.6079   -0.7468 H   0  0  0  0  0  0  0  0  0 19  0  0
   -0.9644   -0.3336   -1.7557 H   0  0  0  0  0  0  0  0  0 20  0  0
   -0.2186   -1.9852   -1.7906 H   0  0  0  0  0  0  0  0  0 21  0  0
  1  7  1  0
  1  5  1  0
  1  6  1  0
  1  2  1  0
  2  8  1  0
  2  3  1  0
  2  9  1  0
  3  4  1  0
  3 10  1  0
  4 11  1  0
 12 17  1  0
 12 16  1  0
 12 13  1  0
 13 14  1  0
 14 15  1  0
 14 18  1  0
 15 20  1  0
 15 19  1  0
 15 21  1  0
M  RAD  1   3   2
M  END
>  <rmg_smiles>  (3) 
CC[CH]O.[CH2]C[CH]C

>  <rmg_adjacency_list>  (3) 
multiplicity 2
1  O u0 p2 c0 {5,S} {21,S}
2  C u0 p0 c0 {3,S} {5,S} {9,S} {10,S}
3  C u0 p0 c0 {2,S} {11,S} {12,S} {13,S}
4  C u0 p0 c0 {6,S} {14,S} {15,S} {16,S}
5  C u1 p0 c0 {1,S} {2,S} {17,S}
6  C u0 p0 c0 {4,S} {8,S} {18,S}
7  C u0 p0 c0 {8,S} {19,S} {20,S}
8  C u0 p1 c0 {6,S} {7,S}
9  H u0 p0 c0 {2,S}
10 H u0 p0 c0 {2,S}
11 H u0 p0 c0 {3,S}
12 H u0 p0 c0 {3,S}
13 H u0 p0 c0 {3,S}
14 H u0 p0 c0 {4,S}
15 H u0 p0 c0 {4,S}
16 H u0 p0 c0 {4,S}
17 H u0 p0 c0 {5,S}
18 H u0 p0 c0 {6,S}
19 H u0 p0 c0 {7,S}
20 H u0 p0 c0 {7,S}
21 H u0 p0 c0 {1,S}


>  <multiplicity>  (3) 
2

>  <reaction>  (3) 
rmg_rxn_14178

>  <type>  (3) 
ts

>  <role_mapnums>  (3) 
{"*2": 19, "*1": 15, "*3": 3, "*0": 14, "*4": 2}

>  <role_mapidx>  (3) 
{"*2": 18, "*1": 14, "*3": 2, "*0": 13, "*4": 1}

>  <ordered_mapped_smiles>  (3) 
[C:1]([C:2]([C:3]([O:4][H:11])[H:10])([H:8])[H:9])([H:5])([H:6])[H:7].[CH:12]([CH2:13][CH:14]([C:15]([H:19])([H:20])[H:21])[H:18])([H:16])[H:17]

>  <mol_properties>  (3) 
{"1": {"label": "*4", "atom_type": "Cs"}, "2": {"label": "*3", "atom_type": "Cs"}, "13": {"label": "*0", "atom_type": "Cs"}, "14": {"label": "*1", "atom_type": "Cs"}, "18": {"label": "*2", "atom_type": "H0"}}

>  <level_of_theory>  (3) 
wb97xd/def2tzvp

>  <lot_method>  (3) 
wb97xd

>  <lot_basis>  (3) 
def2tzvp

>  <spin_multiplicity>  (3) 
2.0

>  <optical_isomers>  (3) 
2.0

>  <modes>  (3) 
IdealGasTranslation(mass=(113.097, 'amu')),         NonlinearRotor(             inertia = ([221.04, 463.013, 500.524

>  <frequency_value>  (3) 
-1716.51

>  <frequency_units>  (3) 
cm^-1

>  <frequency_list>  (3) 
unknown

>  <arkane_path>  (3) 
/home/calvin/Dropbox/PersonalFolders/Calvin/ZEUS_Converged/rmg_rxn_14178/output/rxns/TS0/arkane/output.py

>  <path_exists>  (3) 
True

>  <E0_value>  (3) 
-917594.0

>  <E0_units>  (3) 
kJ/mol

>  <thermo_class>  (3) 
unknown

>  <Cp0_value>  (3) 
unknown

>  <Cp0_units>  (3) 
unknown

>  <CpInf_value>  (3) 
unknown

>  <CpInf_units>  (3) 
unknown

>  <Tmin_value>  (3) 
unknown

>  <Tmin_units>  (3) 
unknown

>  <Tmax_value>  (3) 
unknown

>  <Tmax_units>  (3) 
unknown

>  <polynomials>  (3) 
unknown

>  <H298_value>  (3) 
unknown

>  <H298_units>  (3) 
unknown

>  <S298_value>  (3) 
unknown

>  <S298_units>  (3) 
unknown

>  <Cp_T_value_list>  (3) 
unknown

>  <Cp_T_units>  (3) 
unknown

>  <T_list>  (3) 
unknown

>  <T_units>  (3) 
unknown

>  <yaml_path>  (3) 
unknown

>  <frequencies_cm1>  (3) 
unknown

>  <ZPE_kJmol>  (3) 
unknown

>  <E_elec_kJmol>  (3) 
unknown

>  <E0_minus_Eelec_plus_ZPE_kJmol>  (3) 
unknown

>  <rxn>  (3) 
unknown

>  <species_type>  (3) 
unknown

>  <species_folder>  (3) 
unknown

>  <frequencies_cm1_list>  (3) 
[]

>  <ts_imag_freq_cm1>  (3) 
-1737.354

>  <ts_freq_out_path>  (3) 
/home/calvin/Dropbox/PersonalFolders/Calvin/ZEUS_Converged/rmg_rxn_14178/output/rxns/TS0/geometry/freq.out

>  <E0_kJmol>  (3) 
-917594

>  <H298_kJmol>  (3) 
unknown

$$$$

     RDKit          3D

  9  8  0  0  0  0  0  0  0  0999 V2000
    1.8962   -0.1368   -0.2185 C   0  0  0  0  0  0  0  0  0  1  0  0
    0.6332    0.1497   -0.2267 C   0  0  0  0  0  3  0  0  0  2  0  0
   -0.6783    0.4486   -0.2362 C   0  0  0  0  0  0  0  0  0  3  0  0
   -1.6587   -0.2335    0.4694 C   0  0  0  0  0  0  0  0  0  4  0  0
    2.3273   -0.8311   -0.9354 H   0  0  0  0  0  0  0  0  0  5  0  0
    2.5755    0.3040    0.5069 H   0  0  0  0  0  0  0  0  0  6  0  0
   -0.9764    1.2944   -0.8506 H   0  0  0  0  0  0  0  0  0  7  0  0
   -2.6928    0.0726    0.4065 H   0  0  0  0  0  0  0  0  0  8  0  0
   -1.4099   -1.0807    1.0934 H   0  0  0  0  0  0  0  0  0  9  0  0
  1  5  1  0
  1  6  1  0
  1  2  1  0
  2  3  1  0
  3  4  1  0
  3  7  1  0
  4  8  1  0
  4  9  1  0
M  RAD  1   2   2
M  END
>  <rmg_smiles>  (4) 
[CH2][C][CH][CH2]

>  <rmg_adjacency_list>  (4) 
multiplicity 2
1 C u0 p0 c0 {2,S} {4,S} {5,S}
2 C u0 p0 c0 {1,S} {6,S} {7,S}
3 C u0 p0 c0 {4,S} {8,S} {9,S}
4 C u1 p1 c0 {1,S} {3,S}
5 H u0 p0 c0 {1,S}
6 H u0 p0 c0 {2,S}
7 H u0 p0 c0 {2,S}
8 H u0 p0 c0 {3,S}
9 H u0 p0 c0 {3,S}


>  <multiplicity>  (4) 
2

>  <reaction>  (4) 
rmg_rxn_14178

>  <type>  (4) 
r1

>  <role_mapnums>  (4) 
{}

>  <role_mapidx>  (4) 
{}

>  <ordered_mapped_smiles>  (4) 
[CH:1]([CH:2][CH:3]([CH:4]([H:8])[H:9])[H:7])([H:5])[H:6]

>  <level_of_theory>  (4) 
wb97xd/def2tzvp

>  <lot_method>  (4) 
wb97xd

>  <lot_basis>  (4) 
def2tzvp

>  <spin_multiplicity>  (4) 
2.0

>  <optical_isomers>  (4) 
1.0

>  <modes>  (4) 
IdealGasTranslation(mass=(53.0391, 'amu')),         NonlinearRotor(             inertia = ([12.0347, 113.266, 121.844

>  <frequency_value>  (4) 
unknown

>  <frequency_units>  (4) 
unknown

>  <frequency_list>  (4) 
unknown

>  <arkane_path>  (4) 
/home/calvin/Dropbox/PersonalFolders/Calvin/ZEUS_Converged/rmg_rxn_14178/output/Species/rmg_rxn_14178_p2_C=sbr-C-sbrC=C/arkane/output.py

>  <path_exists>  (4) 
True

>  <E0_value>  (4) 
-407618.7322871182

>  <E0_units>  (4) 
kJ/mol

>  <thermo_class>  (4) 
NASA

>  <Cp0_value>  (4) 
33.257888

>  <Cp0_units>  (4) 
J/(mol*K)

>  <CpInf_value>  (4) 
207.8618

>  <CpInf_units>  (4) 
J/(mol*K)

>  <Tmin_value>  (4) 
10.0

>  <Tmin_units>  (4) 
K

>  <Tmax_value>  (4) 
3000.0

>  <Tmax_units>  (4) 
K

>  <polynomials>  (4) 
[{"name": "polynomial1", "class": "NASAPolynomial", "Tmin_value": 10.0, "Tmin_units": "K", "Tmax_value": 514.1627669615141, "Tmax_units": "K", "coeffs": [3.9420033650092194, 0.003572324131280511, 9.462342675756363e-05, -1.8676284311886954e-07, 1.149785738012023e-10, -49025207.30228202, 8.656389036962679]}, {"name": "polynomial2", "class": "NASAPolynomial", "Tmin_value": 514.1627669615141, "Tmin_units": "K", "Tmax_value": 3000.0, "Tmax_units": "K", "coeffs": [2.029834550148665, 0.030448893080009667, -1.8795396905939947e-05, 5.691011797771398e-09, -6.697030625419615e-13, -49025169.29486995, 15.066930145553966]}]

>  <H298_value>  (4) 
-97419.52666136409

>  <H298_units>  (4) 
kcal/mol

>  <S298_value>  (4) 
69.4719153890684

>  <S298_units>  (4) 
cal/(mol*K)

>  <Cp_T_value_list>  (4) 
[18.71658132650381, 22.855479647781404, 26.28046336634898, 29.16283674573409, 33.78128373497921, 37.16998113185326, 42.18903825802206, 44.829149945703655, 46.30012006236418]

>  <Cp_T_units>  (4) 
cal/(mol*K)

>  <T_list>  (4) 
[300.0, 400.0, 500.0, 600.0, 800.0, 1000.0, 1500.0, 2000.0, 2400.0]

>  <T_units>  (4) 
K

>  <yaml_path>  (4) 
/home/calvin/Dropbox/PersonalFolders/Calvin/ZEUS_Converged/rmg_rxn_14178/output/Species/rmg_rxn_14178_p2_C=sbr-C-sbrC=C/rmg_rxn_14178_p2_C=sbr-C-sbrC=C.yml

>  <frequencies_cm1>  (4) 
[209.8207364526, 213.04821955299997, 498.82468063011993, 525.2763080827599, 574.87654304912, 748.93401995516, 893.7518733686398, 905.4944182658398, 936.5057239709599, 975.15311735192, 1080.3828003955998, 1184.87084902472, 1365.78157728012, 1440.54244645896, 1485.45939743708, 1902.75236136284, 3071.2179824580794, 3118.0576893257994, 3138.67924624176, 3141.52904514956, 3241.1758691280797]

>  <ZPE_kJmol>  (4) 
183.34053407098105

>  <E_elec_kJmol>  (4) 
-407802.0728211892

>  <E0_minus_Eelec_plus_ZPE_kJmol>  (4) 
0.0

>  <rxn>  (4) 
rmg_rxn_14178

>  <species_type>  (4) 
p1

>  <species_folder>  (4) 
rmg_rxn_14178_p2_C=sbr-C-sbrC=C

>  <frequencies_cm1_list>  (4) 
[209.8207364526, 213.04821955299997, 498.82468063011993, 525.2763080827599, 574.87654304912, 748.93401995516, 893.7518733686398, 905.4944182658398, 936.5057239709599, 975.15311735192, 1080.3828003955998, 1184.87084902472, 1365.78157728012, 1440.54244645896, 1485.45939743708, 1902.75236136284, 3071.2179824580794, 3118.0576893257994, 3138.67924624176, 3141.52904514956, 3241.1758691280797]

>  <E0_kJmol>  (4) 
-407619

>  <H298_kJmol>  (4) 
-407603

$$$$

     RDKit          3D

 11 10  0  0  0  0  0  0  0  0999 V2000
   -1.2539    0.3276   -0.3920 C   0  0  0  0  0  0  0  0  0  1  0  0
   -0.2906   -0.4393    0.5264 C   0  0  0  0  0  0  0  0  0  2  0  0
    1.1244   -0.0144    0.4020 C   0  0  0  0  0  3  0  0  0  3  0  0
    1.3877    1.2382    0.8815 O   0  0  0  0  0  0  0  0  0  4  0  0
   -0.9932    0.1784   -1.4417 H   0  0  0  0  0  0  0  0  0  5  0  0
   -2.2818   -0.0101   -0.2464 H   0  0  0  0  0  0  0  0  0  6  0  0
   -1.2124    1.3968   -0.1817 H   0  0  0  0  0  0  0  0  0  7  0  0
   -0.6088   -0.3094    1.5657 H   0  0  0  0  0  0  0  0  0  8  0  0
   -0.3483   -1.5082    0.3078 H   0  0  0  0  0  0  0  0  0  9  0  0
    1.7380   -0.3574   -0.4276 H   0  0  0  0  0  0  0  0  0 10  0  0
    2.2967    1.4723    0.6918 H   0  0  0  0  0  0  0  0  0 11  0  0
  1  5  1  0
  1  7  1  0
  1  6  1  0
  1  2  1  0
  2  9  1  0
  2  8  1  0
  2  3  1  0
  3  4  1  0
  3 10  1  0
  4 11  1  0
M  RAD  1   3   2
M  END
>  <rmg_smiles>  (5) 
CC[CH]O

>  <rmg_adjacency_list>  (5) 
multiplicity 2
1  O u0 p2 c0 {4,S} {11,S}
2  C u0 p0 c0 {3,S} {4,S} {5,S} {6,S}
3  C u0 p0 c0 {2,S} {7,S} {8,S} {9,S}
4  C u1 p0 c0 {1,S} {2,S} {10,S}
5  H u0 p0 c0 {2,S}
6  H u0 p0 c0 {2,S}
7  H u0 p0 c0 {3,S}
8  H u0 p0 c0 {3,S}
9  H u0 p0 c0 {3,S}
10 H u0 p0 c0 {4,S}
11 H u0 p0 c0 {1,S}


>  <multiplicity>  (5) 
2

>  <reaction>  (5) 
rmg_rxn_14178

>  <type>  (5) 
r2

>  <role_mapnums>  (5) 
{}

>  <role_mapidx>  (5) 
{}

>  <ordered_mapped_smiles>  (5) 
[C:1]([C:2]([C:3]([O:4][H:11])[H:10])([H:8])[H:9])([H:5])([H:6])[H:7]

>  <level_of_theory>  (5) 
wb97xd/def2tzvp

>  <lot_method>  (5) 
wb97xd

>  <lot_basis>  (5) 
def2tzvp

>  <spin_multiplicity>  (5) 
2.0

>  <optical_isomers>  (5) 
2.0

>  <modes>  (5) 
IdealGasTranslation(mass=(59.0497, 'amu')),         NonlinearRotor(             inertia = ([30.0564, 102.615, 116.291

>  <frequency_value>  (5) 
unknown

>  <frequency_units>  (5) 
unknown

>  <frequency_list>  (5) 
unknown

>  <arkane_path>  (5) 
/home/calvin/Dropbox/PersonalFolders/Calvin/ZEUS_Converged/rmg_rxn_14178/output/Species/rmg_rxn_14178_r1_CCsbr-CH-sbrO/arkane/output.py

>  <path_exists>  (5) 
True

>  <E0_value>  (5) 
-508343.2143086268

>  <E0_units>  (5) 
kJ/mol

>  <thermo_class>  (5) 
NASA

>  <Cp0_value>  (5) 
33.257888

>  <Cp0_units>  (5) 
J/(mol*K)

>  <CpInf_value>  (5) 
257.748632

>  <CpInf_units>  (5) 
J/(mol*K)

>  <Tmin_value>  (5) 
10.0

>  <Tmin_units>  (5) 
K

>  <Tmax_value>  (5) 
3000.0

>  <Tmax_units>  (5) 
K

>  <polynomials>  (5) 
[{"name": "polynomial1", "class": "NASAPolynomial", "Tmin_value": 10.0, "Tmin_units": "K", "Tmax_value": 494.1704370940899, "Tmax_units": "K", "coeffs": [3.8264159718186814, 0.014665950283367637, 4.719304456748532e-05, -8.635186266296752e-08, 4.603039255811971e-11, -61139564.00263428, 10.13413457192298]}, {"name": "polynomial2", "class": "NASAPolynomial", "Tmin_value": 494.1704370940899, "Tmin_units": "K", "Tmax_value": 3000.0, "Tmax_units": "K", "coeffs": [1.0429113122672762, 0.03719650019854639, -2.1195427188910984e-05, 5.9077204166542246e-09, -6.432122043152193e-13, -61139288.8953433, 21.600934962430497]}]

>  <H298_value>  (5) 
-121492.84708017616

>  <H298_units>  (5) 
kcal/mol

>  <S298_value>  (5) 
74.97437345057202

>  <S298_units>  (5) 
cal/(mol*K)

>  <Cp_T_value_list>  (5) 
[20.895319280252057, 25.626105005090185, 29.88871630336021, 33.62982340877973, 39.736839365131985, 44.33158139057398, 51.33003089835758, 54.89572711290492, 56.74853878391941]

>  <Cp_T_units>  (5) 
cal/(mol*K)

>  <T_list>  (5) 
[300.0, 400.0, 500.0, 600.0, 800.0, 1000.0, 1500.0, 2000.0, 2400.0]

>  <T_units>  (5) 
K

>  <yaml_path>  (5) 
/home/calvin/Dropbox/PersonalFolders/Calvin/ZEUS_Converged/rmg_rxn_14178/output/Species/rmg_rxn_14178_r1_CCsbr-CH-sbrO/rmg_rxn_14178_r1_CCsbr-CH-sbrO.yml

>  <frequencies_cm1>  (5) 
[111.245162184, 221.74182296812, 277.67341839951996, 370.4051881608, 478.1344538609599, 606.1693951523599, 782.27323368376, 883.4719963445999, 996.9832636841999, 1051.8298754350399, 1085.07981835448, 1216.87100061592, 1239.7517957021598, 1312.6723128152398, 1331.6663942103598, 1387.1791035372398, 1443.7081266914797, 1460.35369910716, 1481.7306244083202, 1491.6328172397598, 3008.8176868552396, 3013.3910990783597, 3057.5458146859596, 3085.37770618792, 3099.79837535992, 3107.33832524128, 3862.7616463238396]

>  <ZPE_kJmol>  (5) 
248.01946210813009

>  <E_elec_kJmol>  (5) 
-508591.233770735

>  <E0_minus_Eelec_plus_ZPE_kJmol>  (5) 
0.0

>  <rxn>  (5) 
rmg_rxn_14178

>  <species_type>  (5) 
r0

>  <species_folder>  (5) 
rmg_rxn_14178_r1_CCsbr-CH-sbrO

>  <frequencies_cm1_list>  (5) 
[111.245162184, 221.74182296812, 277.67341839951996, 370.4051881608, 478.1344538609599, 606.1693951523599, 782.27323368376, 883.4719963445999, 996.9832636841999, 1051.8298754350399, 1085.07981835448, 1216.87100061592, 1239.7517957021598, 1312.6723128152398, 1331.6663942103598, 1387.1791035372398, 1443.7081266914797, 1460.35369910716, 1481.7306244083202, 1491.6328172397598, 3008.8176868552396, 3013.3910990783597, 3057.5458146859596, 3085.37770618792, 3099.79837535992, 3107.33832524128, 3862.7616463238396]

>  <E0_kJmol>  (5) 
-508343

>  <H298_kJmol>  (5) 
-508326

$$$$
