
     RDKit          3D

 15 14  0  0  0  0  0  0  0  0999 V2000
   -2.3407   -0.4956    0.3279 C   0  0  0  0  0  0  0  0  0  1  0  0
   -0.9909   -0.7773   -0.3014 C   0  0  0  0  0  0  0  0  0  2  0  0
   -0.0610    0.1937    0.1725 O   0  0  0  0  0  0  0  0  0  3  0  0
    1.2383   -0.0070   -0.3784 C   0  0  0  0  0  0  0  0  0  4  0  0
    2.1626    1.0605    0.1725 C   0  0  0  0  0  0  0  0  0  5  0  0
   -2.6833    0.5113    0.0703 H   0  0  0  0  0  0  0  0  0  6  0  0
   -3.0874   -1.2198   -0.0095 H   0  0  0  0  0  0  0  0  0  7  0  0
   -2.2736   -0.5395    1.4200 H   0  0  0  0  0  0  0  0  0  8  0  0
   -0.6522   -1.7811   -0.0225 H   0  0  0  0  0  0  0  0  0  9  0  0
   -1.0682   -0.7140   -1.3924 H   0  0  0  0  0  0  0  0  0 10  0  0
    1.6088   -0.9998   -0.1005 H   0  0  0  0  0  0  0  0  0 11  0  0
    1.1928    0.0672   -1.4704 H   0  0  0  0  0  0  0  0  0 12  0  0
    2.2044    1.0079    1.2654 H   0  0  0  0  0  0  0  0  0 13  0  0
    3.1745    0.9439   -0.2256 H   0  0  0  0  0  0  0  0  0 14  0  0
    1.7945    2.0593   -0.0845 H   0  0  0  0  0  0  0  0  0 15  0  0
  1  8  1  0
  1  7  1  0
  1  6  1  0
  1  2  1  0
  2 10  1  0
  2  9  1  0
  2  3  1  0
  3  4  1  0
  4  5  1  0
  4 12  1  0
  4 11  1  0
  5 13  1  0
  5 14  1  0
  5 15  1  0
M  END
>  <rmg_smiles>  (1) 
CCOCC

>  <rmg_adjacency_list>  (1) 
1  O u0 p2 c0 {2,S} {3,S}
2  C u0 p0 c0 {1,S} {4,S} {6,S} {7,S}
3  C u0 p0 c0 {1,S} {5,S} {8,S} {9,S}
4  C u0 p0 c0 {2,S} {10,S} {11,S} {12,S}
5  C u0 p0 c0 {3,S} {13,S} {14,S} {15,S}
6  H u0 p0 c0 {2,S}
7  H u0 p0 c0 {2,S}
8  H u0 p0 c0 {3,S}
9  H u0 p0 c0 {3,S}
10 H u0 p0 c0 {4,S}
11 H u0 p0 c0 {4,S}
12 H u0 p0 c0 {4,S}
13 H u0 p0 c0 {5,S}
14 H u0 p0 c0 {5,S}
15 H u0 p0 c0 {5,S}


>  <multiplicity>  (1) 
1

>  <reaction>  (1) 
rmg_rxn_1160

>  <type>  (1) 
r1h

>  <role_mapnums>  (1) 
{"r1h_a": 1, "r1h_h": 6}

>  <role_mapidx>  (1) 
{"r1h_a": 0, "r1h_h": 5}

>  <ordered_mapped_smiles>  (1) 
[C:1]([C:2]([O:3][C:4]([C:5]([H:13])([H:14])[H:15])([H:11])[H:12])([H:9])[H:10])([H:6])([H:7])[H:8]

>  <mol_properties>  (1) 
{"0": {"label": "donator", "atom_type": "Cs"}, "5": {"label": "d_hydrogen", "atom_type": "H0"}}

>  <level_of_theory>  (1) 
wb97xd/def2tzvp

>  <lot_method>  (1) 
wb97xd

>  <lot_basis>  (1) 
def2tzvp

>  <spin_multiplicity>  (1) 
1.0

>  <optical_isomers>  (1) 
1.0

>  <modes>  (1) 
IdealGasTranslation(mass=(74.0732, 'amu')),         NonlinearRotor(             inertia = ([27.8343, 226.657, 241.825

>  <frequency_value>  (1) 
unknown

>  <frequency_units>  (1) 
unknown

>  <frequency_list>  (1) 
unknown

>  <arkane_path>  (1) 
/home/calvin/Dropbox/PersonalFolders/Calvin/ATLAS_Converged/rmg_rxn_1160/output/Species/rmg_rxn_1160_r2_CCOCC/arkane/output.py

>  <path_exists>  (1) 
True

>  <E0_value>  (1) 
-613176.6159750596

>  <E0_units>  (1) 
kJ/mol

>  <thermo_class>  (1) 
NASA

>  <Cp0_value>  (1) 
33.257888

>  <Cp0_units>  (1) 
J/(mol*K)

>  <CpInf_value>  (1) 
357.522296

>  <CpInf_units>  (1) 
J/(mol*K)

>  <Tmin_value>  (1) 
10.0

>  <Tmin_units>  (1) 
K

>  <Tmax_value>  (1) 
3000.0

>  <Tmax_units>  (1) 
K

>  <polynomials>  (1) 
[{"name": "polynomial1", "class": "NASAPolynomial", "Tmin_value": 10.0, "Tmin_units": "K", "Tmax_value": 1066.5454442581204, "Tmax_units": "K", "coeffs": [3.815331855870111, 0.023669911107612487, 3.259120584447607e-05, -4.450498809861444e-08, 1.481371901159717e-11, -73748115.18778351, 8.766931473127967]}, {"name": "polynomial2", "class": "NASAPolynomial", "Tmin_value": 1066.5454442581204, "Tmin_units": "K", "Tmax_value": 3000.0, "Tmax_units": "K", "coeffs": [2.592100500319549, 0.04573989421516626, -2.303557613355627e-05, 5.6345367472765766e-09, -5.415477888090631e-13, -73748848.58651121, 10.085693559884628]}]

>  <H298_value>  (1) 
-146547.97522436522

>  <H298_units>  (1) 
kcal/mol

>  <S298_value>  (1) 
76.78685249812565

>  <S298_units>  (1) 
cal/(mol*K)

>  <Cp_T_value_list>  (1) 
[25.37239458429707, 31.852537951974462, 38.07651162525546, 43.831601516303216, 53.43752862502974, 60.38162667417184, 70.8376945128465, 76.19171050523629, 78.70829770976073]

>  <Cp_T_units>  (1) 
cal/(mol*K)

>  <T_list>  (1) 
[300.0, 400.0, 500.0, 600.0, 800.0, 1000.0, 1500.0, 2000.0, 2400.0]

>  <T_units>  (1) 
K

>  <yaml_path>  (1) 
/home/calvin/Dropbox/PersonalFolders/Calvin/ATLAS_Converged/rmg_rxn_1160/output/Species/rmg_rxn_1160_r2_CCOCC/rmg_rxn_1160_r2_CCOCC.yml

>  <frequencies_cm1>  (1) 
[125.32934907531998, 147.03588967184, 206.92973563287998, 285.69405725328, 292.68464830904, 439.09564231675995, 443.11969571427994, 816.1343382966799, 831.9764734299199, 855.0838790317199, 938.1469334624401, 1045.0178259976, 1093.9176284613197, 1121.87312569904, 1155.5625556789598, 1171.8853797845998, 1186.15497527956, 1281.1528501964399, 1293.00526685876, 1357.9394800446798, 1394.3070342994, 1409.0710527374, 1432.4806056932798, 1470.1185522321998, 1470.3726306890399, 1485.2602548628001, 1492.8345396707598, 1499.4062446219998, 1509.7753924551998, 2972.2372560556, 2980.4021016010793, 2991.430480025, 2991.9935728212395, 3016.02115445592, 3019.1524997618394, 3060.2033380047997, 3060.3887466084398, 3076.67036880216, 3076.9725161562396]

>  <ZPE_kJmol>  (1) 
355.8702224636976

>  <E_elec_kJmol>  (1) 
-613532.4861975233

>  <E0_minus_Eelec_plus_ZPE_kJmol>  (1) 
0.0

>  <rxn>  (1) 
rmg_rxn_1160

>  <species_type>  (1) 
r1

>  <species_folder>  (1) 
rmg_rxn_1160_r2_CCOCC

>  <frequencies_cm1_list>  (1) 
[125.32934907531998, 147.03588967184, 206.92973563287998, 285.69405725328, 292.68464830904, 439.09564231675995, 443.11969571427994, 816.1343382966799, 831.9764734299199, 855.0838790317199, 938.1469334624401, 1045.0178259976, 1093.9176284613197, 1121.87312569904, 1155.5625556789598, 1171.8853797845998, 1186.15497527956, 1281.1528501964399, 1293.00526685876, 1357.9394800446798, 1394.3070342994, 1409.0710527374, 1432.4806056932798, 1470.1185522321998, 1470.3726306890399, 1485.2602548628001, 1492.8345396707598, 1499.4062446219998, 1509.7753924551998, 2972.2372560556, 2980.4021016010793, 2991.430480025, 2991.9935728212395, 3016.02115445592, 3019.1524997618394, 3060.2033380047997, 3060.3887466084398, 3076.67036880216, 3076.9725161562396]

>  <E0_kJmol>  (1) 
-613177

>  <H298_kJmol>  (1) 
-613157

$$$$

     RDKit          3D

  2  1  0  0  0  0  0  0  0  0999 V2000
   -0.0216    0.0635   -0.0163 O   0  0  0  0  0  1  0  0  0  1  0  0
    0.2790   -0.8197    0.2097 H   0  0  0  0  0  0  0  0  0  2  0  0
  1  2  1  0
M  RAD  1   1   2
M  END
>  <rmg_smiles>  (2) 
[OH]

>  <rmg_adjacency_list>  (2) 
multiplicity 2
1 O u1 p2 c0 {2,S}
2 H u0 p0 c0 {1,S}


>  <multiplicity>  (2) 
2

>  <reaction>  (2) 
rmg_rxn_1160

>  <type>  (2) 
r2h

>  <role_mapnums>  (2) 
{"r2h_a": 1, "r2h_h": 2}

>  <role_mapidx>  (2) 
{"r2h_a": 0, "r2h_h": 1}

>  <ordered_mapped_smiles>  (2) 
[O:1][H:2]

>  <mol_properties>  (2) 
{"0": {"label": "acceptor", "atom_type": "O2s"}, "1": {"label": "a_hydrogen", "atom_type": "H0"}}

>  <level_of_theory>  (2) 
wb97xd/def2tzvp

>  <lot_method>  (2) 
wb97xd

>  <lot_basis>  (2) 
def2tzvp

>  <spin_multiplicity>  (2) 
2.0

>  <optical_isomers>  (2) 
1.0

>  <modes>  (2) 
IdealGasTranslation(mass=(17.0027, 'amu')),         LinearRotor(inertia=(0.893962, 'amu*angstrom^2'), symmetry=1),         HarmonicOscillator(frequencies=([3724.63

>  <frequency_value>  (2) 
unknown

>  <frequency_units>  (2) 
unknown

>  <frequency_list>  (2) 
unknown

>  <arkane_path>  (2) 
/home/calvin/Dropbox/PersonalFolders/Calvin/ATLAS_Converged/rmg_rxn_1160/output/Species/rmg_rxn_1160_p1_sbr-OH-sbr/arkane/output.py

>  <path_exists>  (2) 
True

>  <E0_value>  (2) 
-198836.11500662245

>  <E0_units>  (2) 
kJ/mol

>  <thermo_class>  (2) 
NASA

>  <Cp0_value>  (2) 
29.100652

>  <Cp0_units>  (2) 
J/(mol*K)

>  <CpInf_value>  (2) 
37.415124

>  <CpInf_units>  (2) 
J/(mol*K)

>  <Tmin_value>  (2) 
10.0

>  <Tmin_units>  (2) 
K

>  <Tmax_value>  (2) 
3000.0

>  <Tmax_units>  (2) 
K

>  <polynomials>  (2) 
[{"name": "polynomial1", "class": "NASAPolynomial", "Tmin_value": 10.0, "Tmin_units": "K", "Tmax_value": 985.4633103339054, "Tmax_units": "K", "coeffs": [3.496867247333508, 0.00018342449890259614, -9.934008380455364e-07, 1.5607090885398485e-09, -6.057976047375529e-13, -23914460.713281557, 1.4723763541989374]}, {"name": "polynomial2", "class": "NASAPolynomial", "Tmin_value": 985.4633103339054, "Tmin_units": "K", "Tmax_value": 3000.0, "Tmax_units": "K", "coeffs": [3.453605826539838, -0.000298394996284096, 7.406626419620715e-07, -2.893423009710026e-10, 3.527332886378172e-14, -23914420.264604878, 1.842419488011591]}]

>  <H298_value>  (2) 
-47520.896675510776

>  <H298_units>  (2) 
kcal/mol

>  <S298_value>  (2) 
42.56095640204575

>  <S298_units>  (2) 
cal/(mol*K)

>  <Cp_T_value_list>  (2) 
[6.954667739233619, 6.946617902371048, 6.950166451559511, 6.9709205689453935, 7.072028097634187, 7.2370175778306685, 7.699521485448446, 8.086144468717986, 8.29478093025019]

>  <Cp_T_units>  (2) 
cal/(mol*K)

>  <T_list>  (2) 
[300.0, 400.0, 500.0, 600.0, 800.0, 1000.0, 1500.0, 2000.0, 2400.0]

>  <T_units>  (2) 
K

>  <yaml_path>  (2) 
/home/calvin/Dropbox/PersonalFolders/Calvin/ATLAS_Converged/rmg_rxn_1160/output/Species/rmg_rxn_1160_p1_sbr-OH-sbr/rmg_rxn_1160_p1_sbr-OH-sbr.yml

>  <frequencies_cm1>  (2) 
[3724.62536962672]

>  <ZPE_kJmol>  (2) 
22.278213462109388

>  <E_elec_kJmol>  (2) 
-198858.39322008457

>  <E0_minus_Eelec_plus_ZPE_kJmol>  (2) 
0.0

>  <rxn>  (2) 
rmg_rxn_1160

>  <species_type>  (2) 
p0

>  <species_folder>  (2) 
rmg_rxn_1160_p1_sbr-OH-sbr

>  <frequencies_cm1_list>  (2) 
[3724.62536962672]

>  <E0_kJmol>  (2) 
-198836

>  <H298_kJmol>  (2) 
-198827

$$$$

     RDKit          3D

 16 14  0  0  0  0  0  0  0  0999 V2000
   -2.6197    1.5044   -0.2089 O   0  0  0  0  0  1  0  0  0  1  0  0
   -1.8433   -0.7767    0.3748 C   0  0  0  0  0  3  0  0  0  2  0  0
   -0.4935   -1.0584   -0.2546 C   0  0  0  0  0  0  0  0  0  3  0  0
    0.4363   -0.0874    0.2194 O   0  0  0  0  0  0  0  0  0  4  0  0
    1.7356   -0.2881   -0.3315 C   0  0  0  0  0  0  0  0  0  5  0  0
    2.6599    0.7794    0.2193 C   0  0  0  0  0  0  0  0  0  6  0  0
   -2.2548    0.4323    0.0654 H   0  0  0  0  0  0  0  0  0  7  0  0
   -2.5900   -1.5009    0.0374 H   0  0  0  0  0  0  0  0  0  8  0  0
   -1.7763   -0.8206    1.4669 H   0  0  0  0  0  0  0  0  0  9  0  0
   -0.1549   -2.0622    0.0244 H   0  0  0  0  0  0  0  0  0 10  0  0
   -0.5709   -0.9951   -1.3455 H   0  0  0  0  0  0  0  0  0 11  0  0
    2.1061   -1.2809   -0.0536 H   0  0  0  0  0  0  0  0  0 12  0  0
    1.6901   -0.2139   -1.4235 H   0  0  0  0  0  0  0  0  0 13  0  0
    2.7017    0.7268    1.3123 H   0  0  0  0  0  0  0  0  0 14  0  0
    3.6718    0.6628   -0.1787 H   0  0  0  0  0  0  0  0  0 15  0  0
    2.2918    1.7782   -0.0376 H   0  0  0  0  0  0  0  0  0 16  0  0
  1  7  1  0
  2  9  1  0
  2  8  1  0
  2  3  1  0
  3 11  1  0
  3  4  1  0
  3 10  1  0
  4  5  1  0
  5 13  1  0
  5 12  1  0
  5  6  1  0
  6 15  1  0
  6 14  1  0
  6 16  1  0
M  RAD  2   1   2   2   2
M  END
>  <rmg_smiles>  (3) 
[CH2]COCC.[OH]

>  <rmg_adjacency_list>  (3) 
multiplicity 3
1  O u0 p2 c0 {3,S} {4,S}
2  O u1 p2 c0 {16,S}
3  C u0 p0 c0 {1,S} {5,S} {7,S} {8,S}
4  C u0 p0 c0 {1,S} {6,S} {9,S} {10,S}
5  C u0 p0 c0 {3,S} {11,S} {12,S} {13,S}
6  C u1 p0 c0 {4,S} {14,S} {15,S}
7  H u0 p0 c0 {3,S}
8  H u0 p0 c0 {3,S}
9  H u0 p0 c0 {4,S}
10 H u0 p0 c0 {4,S}
11 H u0 p0 c0 {5,S}
12 H u0 p0 c0 {5,S}
13 H u0 p0 c0 {5,S}
14 H u0 p0 c0 {6,S}
15 H u0 p0 c0 {6,S}
16 H u0 p0 c0 {2,S}


>  <multiplicity>  (3) 
3

>  <reaction>  (3) 
rmg_rxn_1160

>  <type>  (3) 
ts

>  <role_mapnums>  (3) 
{"*2": 7, "*1": 2, "*3": 1, "*0": null, "*4": 3}

>  <role_mapidx>  (3) 
{"*2": 6, "*1": 1, "*3": 0, "*4": 2}

>  <ordered_mapped_smiles>  (3) 
[O:1][H:7].[C:2]([C:3]([O:4][C:5]([C:6]([H:14])([H:15])[H:16])([H:12])[H:13])([H:10])[H:11])([H:8])[H:9]

>  <mol_properties>  (3) 
{"0": {"label": "*3", "atom_type": "O2s"}, "1": {"label": "*1", "atom_type": "Cs"}, "2": {"label": "*4", "atom_type": "Cs"}, "6": {"label": "*2", "atom_type": "H0"}}

>  <level_of_theory>  (3) 
wb97xd/def2tzvp

>  <lot_method>  (3) 
wb97xd

>  <lot_basis>  (3) 
def2tzvp

>  <spin_multiplicity>  (3) 
3.0

>  <optical_isomers>  (3) 
2.0

>  <modes>  (3) 
IdealGasTranslation(mass=(90.0681, 'amu')),         NonlinearRotor(             inertia = ([92.651, 340.341, 405.77

>  <frequency_value>  (3) 
-1461.56

>  <frequency_units>  (3) 
cm^-1

>  <frequency_list>  (3) 
unknown

>  <arkane_path>  (3) 
/home/calvin/Dropbox/PersonalFolders/Calvin/ATLAS_Converged/rmg_rxn_1160/output/rxns/TS0/arkane/output.py

>  <path_exists>  (3) 
True

>  <E0_value>  (3) 
-810260.0

>  <E0_units>  (3) 
kJ/mol

>  <thermo_class>  (3) 
unknown

>  <Cp0_value>  (3) 
unknown

>  <Cp0_units>  (3) 
unknown

>  <CpInf_value>  (3) 
unknown

>  <CpInf_units>  (3) 
unknown

>  <Tmin_value>  (3) 
unknown

>  <Tmin_units>  (3) 
unknown

>  <Tmax_value>  (3) 
unknown

>  <Tmax_units>  (3) 
unknown

>  <polynomials>  (3) 
unknown

>  <H298_value>  (3) 
unknown

>  <H298_units>  (3) 
unknown

>  <S298_value>  (3) 
unknown

>  <S298_units>  (3) 
unknown

>  <Cp_T_value_list>  (3) 
unknown

>  <Cp_T_units>  (3) 
unknown

>  <T_list>  (3) 
unknown

>  <T_units>  (3) 
unknown

>  <yaml_path>  (3) 
unknown

>  <frequencies_cm1>  (3) 
unknown

>  <ZPE_kJmol>  (3) 
unknown

>  <E_elec_kJmol>  (3) 
unknown

>  <E0_minus_Eelec_plus_ZPE_kJmol>  (3) 
unknown

>  <rxn>  (3) 
unknown

>  <species_type>  (3) 
unknown

>  <species_folder>  (3) 
unknown

>  <frequencies_cm1_list>  (3) 
[]

>  <ts_imag_freq_cm1>  (3) 
-1479.3147

>  <ts_freq_out_path>  (3) 
/home/calvin/Dropbox/PersonalFolders/Calvin/ATLAS_Converged/rmg_rxn_1160/output/rxns/TS0/geometry/freq.out

>  <E0_kJmol>  (3) 
-810260

>  <H298_kJmol>  (3) 
unknown

$$$$

     RDKit          3D

 14 13  0  0  0  0  0  0  0  0999 V2000
   -2.0613    0.6951   -0.0433 C   0  0  0  0  0  3  0  0  0  1  0  0
   -1.3282   -0.5904    0.0648 C   0  0  0  0  0  0  0  0  0  2  0  0
   -0.0155   -0.4302   -0.4587 O   0  0  0  0  0  0  0  0  0  3  0  0
    0.9094    0.0636    0.5085 C   0  0  0  0  0  0  0  0  0  4  0  0
    2.2605    0.2212   -0.1608 C   0  0  0  0  0  0  0  0  0  5  0  0
   -1.8177    1.3885   -0.8395 H   0  0  0  0  0  0  0  0  0  6  0  0
   -2.9647    0.8516    0.5319 H   0  0  0  0  0  0  0  0  0  7  0  0
   -1.8382   -1.3401   -0.5475 H   0  0  0  0  0  0  0  0  0  8  0  0
   -1.3052   -0.9548    1.0973 H   0  0  0  0  0  0  0  0  0  9  0  0
    0.5731    1.0316    0.8950 H   0  0  0  0  0  0  0  0  0 10  0  0
    0.9886   -0.6470    1.3386 H   0  0  0  0  0  0  0  0  0 11  0  0
    2.1940    0.9163   -1.0043 H   0  0  0  0  0  0  0  0  0 12  0  0
    3.0054    0.5953    0.5471 H   0  0  0  0  0  0  0  0  0 13  0  0
    2.6056   -0.7368   -0.5638 H   0  0  0  0  0  0  0  0  0 14  0  0
  1  7  1  0
  1  6  1  0
  1  2  1  0
  2  9  1  0
  2  8  1  0
  2  3  1  0
  3  4  1  0
  4  5  1  0
  4 10  1  0
  4 11  1  0
  5 12  1  0
  5 14  1  0
  5 13  1  0
M  RAD  1   1   2
M  END
>  <rmg_smiles>  (4) 
[CH2]COCC

>  <rmg_adjacency_list>  (4) 
multiplicity 2
1  O u0 p2 c0 {2,S} {3,S}
2  C u0 p0 c0 {1,S} {4,S} {6,S} {7,S}
3  C u0 p0 c0 {1,S} {5,S} {8,S} {9,S}
4  C u0 p0 c0 {2,S} {10,S} {11,S} {12,S}
5  C u1 p0 c0 {3,S} {13,S} {14,S}
6  H u0 p0 c0 {2,S}
7  H u0 p0 c0 {2,S}
8  H u0 p0 c0 {3,S}
9  H u0 p0 c0 {3,S}
10 H u0 p0 c0 {4,S}
11 H u0 p0 c0 {4,S}
12 H u0 p0 c0 {4,S}
13 H u0 p0 c0 {5,S}
14 H u0 p0 c0 {5,S}


>  <multiplicity>  (4) 
2

>  <reaction>  (4) 
rmg_rxn_1160

>  <type>  (4) 
r1

>  <role_mapnums>  (4) 
{}

>  <role_mapidx>  (4) 
{}

>  <ordered_mapped_smiles>  (4) 
[C:1]([C:2]([O:3][C:4]([C:5]([H:12])([H:13])[H:14])([H:10])[H:11])([H:8])[H:9])([H:6])[H:7]

>  <level_of_theory>  (4) 
wb97xd/def2tzvp

>  <lot_method>  (4) 
wb97xd

>  <lot_basis>  (4) 
def2tzvp

>  <spin_multiplicity>  (4) 
2.0

>  <optical_isomers>  (4) 
2.0

>  <modes>  (4) 
IdealGasTranslation(mass=(73.0653, 'amu')),         NonlinearRotor(             inertia = ([35.7882, 196.242, 205.149

>  <frequency_value>  (4) 
unknown

>  <frequency_units>  (4) 
unknown

>  <frequency_list>  (4) 
unknown

>  <arkane_path>  (4) 
/home/calvin/Dropbox/PersonalFolders/Calvin/ATLAS_Converged/rmg_rxn_1160/output/Species/rmg_rxn_1160_p2_sbr-CH2-sbrCOCC/arkane/output.py

>  <path_exists>  (4) 
True

>  <E0_value>  (4) 
-611439.1504364803

>  <E0_units>  (4) 
kJ/mol

>  <thermo_class>  (4) 
NASA

>  <Cp0_value>  (4) 
33.257888

>  <Cp0_units>  (4) 
J/(mol*K)

>  <CpInf_value>  (4) 
332.57888

>  <CpInf_units>  (4) 
J/(mol*K)

>  <Tmin_value>  (4) 
10.0

>  <Tmin_units>  (4) 
K

>  <Tmax_value>  (4) 
3000.0

>  <Tmax_units>  (4) 
K

>  <polynomials>  (4) 
[{"name": "polynomial1", "class": "NASAPolynomial", "Tmin_value": 10.0, "Tmin_units": "K", "Tmax_value": 1074.8175982446926, "Tmax_units": "K", "coeffs": [3.7596833668971965, 0.0293889257395062, 1.4109347999544835e-05, -2.8517097750700073e-08, 1.0158686749888234e-11, -73539145.73135841, 11.101265056920179]}, {"name": "polynomial2", "class": "NASAPolynomial", "Tmin_value": 1074.8175982446926, "Tmin_units": "K", "Tmax_value": 3000.0, "Tmax_units": "K", "coeffs": [4.859220078825378, 0.03951540358135523, -1.9866113646243433e-05, 4.864415151946727e-09, -4.685574578399818e-13, -73540203.37392431, 1.896737512195145]}]

>  <H298_value>  (4) 
-146132.50378190825

>  <H298_units>  (4) 
kcal/mol

>  <S298_value>  (4) 
82.81362974502095

>  <S298_units>  (4) 
cal/(mol*K)

>  <Cp_T_value_list>  (4) 
[26.14870867273523, 32.208081516834405, 37.85978915538709, 42.98183942634775, 51.39124811751736, 57.42936589480535, 66.52948524942485, 71.22937923929695, 73.46193156527158]

>  <Cp_T_units>  (4) 
cal/(mol*K)

>  <T_list>  (4) 
[300.0, 400.0, 500.0, 600.0, 800.0, 1000.0, 1500.0, 2000.0, 2400.0]

>  <T_units>  (4) 
K

>  <yaml_path>  (4) 
/home/calvin/Dropbox/PersonalFolders/Calvin/ATLAS_Converged/rmg_rxn_1160/output/Species/rmg_rxn_1160_p2_sbr-CH2-sbrCOCC/rmg_rxn_1160_p2_sbr-CH2-sbrCOCC.yml

>  <frequencies_cm1>  (4) 
[89.14033643892, 102.12580567904, 190.15369049612002, 286.79964188979994, 300.7396220894, 405.4474142487599, 475.75847694024, 525.79819896708, 824.4433905338799, 841.87866626136, 869.5732180569199, 977.63896603776, 1038.5628597968, 1095.35969537852, 1110.19925065504, 1134.3504380254801, 1169.12485168596, 1248.19132066044, 1284.7030816068798, 1347.6939379472399, 1386.87695618316, 1416.8238791636797, 1434.78104577548, 1454.0498065833997, 1469.4799225974398, 1490.33495701428, 1503.78738125616, 2977.1677515153597, 2986.7265950807996, 2992.8794139275196, 3020.4366260166794, 3028.18945244296, 3061.9269513201198, 3077.4600721139595, 3115.5512396839995, 3225.1757933324798]

>  <ZPE_kJmol>  (4) 
316.7672335401114

>  <E_elec_kJmol>  (4) 
-611755.9176700204

>  <E0_minus_Eelec_plus_ZPE_kJmol>  (4) 
0.0

>  <rxn>  (4) 
rmg_rxn_1160

>  <species_type>  (4) 
p1

>  <species_folder>  (4) 
rmg_rxn_1160_p2_sbr-CH2-sbrCOCC

>  <frequencies_cm1_list>  (4) 
[89.14033643892, 102.12580567904, 190.15369049612002, 286.79964188979994, 300.7396220894, 405.4474142487599, 475.75847694024, 525.79819896708, 824.4433905338799, 841.87866626136, 869.5732180569199, 977.63896603776, 1038.5628597968, 1095.35969537852, 1110.19925065504, 1134.3504380254801, 1169.12485168596, 1248.19132066044, 1284.7030816068798, 1347.6939379472399, 1386.87695618316, 1416.8238791636797, 1434.78104577548, 1454.0498065833997, 1469.4799225974398, 1490.33495701428, 1503.78738125616, 2977.1677515153597, 2986.7265950807996, 2992.8794139275196, 3020.4366260166794, 3028.18945244296, 3061.9269513201198, 3077.4600721139595, 3115.5512396839995, 3225.1757933324798]

>  <E0_kJmol>  (4) 
-611439

>  <H298_kJmol>  (4) 
-611418

$$$$

     RDKit          3D

  1  0  0  0  0  0  0  0  0  0999 V2000
    0.0000    0.0000    0.0000 O   0  0  0  0  0 15  0  0  0  1  0  0
M  END
>  <rmg_smiles>  (5) 
[O]

>  <rmg_adjacency_list>  (5) 
multiplicity 3
1 O u2 p3 c0


>  <multiplicity>  (5) 
3

>  <reaction>  (5) 
rmg_rxn_1160

>  <type>  (5) 
r2

>  <role_mapnums>  (5) 
{}

>  <role_mapidx>  (5) 
{}

>  <ordered_mapped_smiles>  (5) 
[O:1]

>  <level_of_theory>  (5) 
wb97xd/def2tzvp

>  <lot_method>  (5) 
wb97xd

>  <lot_basis>  (5) 
def2tzvp

>  <spin_multiplicity>  (5) 
3.0

>  <optical_isomers>  (5) 
1.0

>  <modes>  (5) 
IdealGasTranslation(mass=(15.9994, 'amu')),

>  <frequency_value>  (5) 
unknown

>  <frequency_units>  (5) 
unknown

>  <frequency_list>  (5) 
unknown

>  <arkane_path>  (5) 
/home/calvin/Dropbox/PersonalFolders/Calvin/ATLAS_Converged/rmg_rxn_1160/output/Species/rmg_rxn_1160_r1_sbr-O-sbr/arkane/output.py

>  <path_exists>  (5) 
True

>  <E0_value>  (5) 
-197098.59938458708

>  <E0_units>  (5) 
kJ/mol

>  <thermo_class>  (5) 
NASA

>  <Cp0_value>  (5) 
20.78618

>  <Cp0_units>  (5) 
J/(mol*K)

>  <CpInf_value>  (5) 
20.78618

>  <CpInf_units>  (5) 
J/(mol*K)

>  <Tmin_value>  (5) 
10.0

>  <Tmin_units>  (5) 
K

>  <Tmax_value>  (5) 
3000.0

>  <Tmax_units>  (5) 
K

>  <polynomials>  (5) 
[{"name": "polynomial1", "class": "NASAPolynomial", "Tmin_value": 10.0, "Tmin_units": "K", "Tmax_value": 1853.5663026740365, "Tmax_units": "K", "coeffs": [2.500000000000126, -2.814048095438137e-15, 9.047587538332909e-18, -8.591944598242694e-21, 2.4182720553650057e-24, -23705485.977386568, 4.091313385047355]}, {"name": "polynomial2", "class": "NASAPolynomial", "Tmin_value": 1853.5663026740365, "Tmin_units": "K", "Tmax_value": 3000.0, "Tmax_units": "K", "coeffs": [2.500000000696122, -1.3129776766613561e-12, 9.140875080033424e-16, -2.782806647322001e-19, 3.1263265306749967e-23, -23705485.97738686, 4.091313381171202]}]

>  <H298_value>  (5) 
-47106.215373741215

>  <H298_units>  (5) 
kcal/mol

>  <S298_value>  (5) 
36.4335375885593

>  <S298_units>  (5) 
cal/(mol*K)

>  <Cp_T_value_list>  (5) 
[4.968016252389826, 4.968016252389978, 4.968016252390173, 4.96801625239036, 4.968016252390567, 4.968016252390427, 4.968016252389077, 4.968016252391019, 4.968016252390868]

>  <Cp_T_units>  (5) 
cal/(mol*K)

>  <T_list>  (5) 
[300.0, 400.0, 500.0, 600.0, 800.0, 1000.0, 1500.0, 2000.0, 2400.0]

>  <T_units>  (5) 
K

>  <yaml_path>  (5) 
/home/calvin/Dropbox/PersonalFolders/Calvin/ATLAS_Converged/rmg_rxn_1160/output/Species/rmg_rxn_1160_r1_sbr-O-sbr/rmg_rxn_1160_r1_sbr-O-sbr.yml

>  <frequencies_cm1>  (5) 
[]

>  <ZPE_kJmol>  (5) 
unknown

>  <E_elec_kJmol>  (5) 
unknown

>  <E0_minus_Eelec_plus_ZPE_kJmol>  (5) 
unknown

>  <rxn>  (5) 
rmg_rxn_1160

>  <species_type>  (5) 
r0

>  <species_folder>  (5) 
rmg_rxn_1160_r1_sbr-O-sbr

>  <frequencies_cm1_list>  (5) 
[]

>  <E0_kJmol>  (5) 
-197099

>  <H298_kJmol>  (5) 
-197092

$$$$
