
     RDKit          3D

 15 14  0  0  0  0  0  0  0  0999 V2000
   -0.1372   -2.0192   -0.6760 C   0  0  0  0  0  0  0  0  0  1  0  0
   -0.4642   -1.2058    0.5476 C   0  0  0  0  0  0  0  0  0  2  0  0
   -0.8713    0.5149    0.3174 S   0  0  0  0  0  0  0  0  0  3  0  0
    0.5472    1.1333   -0.6336 C   0  0  0  0  0  0  0  0  0  4  0  0
    1.8751    1.0492    0.0988 C   0  0  0  0  0  0  0  0  0  5  0  0
    0.8471   -1.7653   -1.0818 H   0  0  0  0  0  0  0  0  0  6  0  0
   -0.1306   -3.0819   -0.4271 H   0  0  0  0  0  0  0  0  0  7  0  0
   -0.8757   -1.8555   -1.4627 H   0  0  0  0  0  0  0  0  0  8  0  0
   -1.4053   -1.6106    0.9181 H   0  0  0  0  0  0  0  0  0  9  0  0
    0.2081   -1.3779    1.3874 H   0  0  0  0  0  0  0  0  0 10  0  0
    0.5905    0.6073   -1.5884 H   0  0  0  0  0  0  0  0  0 11  0  0
    0.2887    2.1710   -0.8516 H   0  0  0  0  0  0  0  0  0 12  0  0
    2.1371    0.0133    0.3212 H   0  0  0  0  0  0  0  0  0 13  0  0
    1.8347    1.5956    1.0417 H   0  0  0  0  0  0  0  0  0 14  0  0
    2.6755    1.4714   -0.5131 H   0  0  0  0  0  0  0  0  0 15  0  0
  1  8  1  0
  1  7  1  0
  1  6  1  0
  1  2  1  0
  2 10  1  0
  2  9  1  0
  2  3  1  0
  3  4  1  0
  4  5  1  0
  4 12  1  0
  4 11  1  0
  5 13  1  0
  5 14  1  0
  5 15  1  0
M  END
>  <rmg_smiles>  (1) 
CCSCC

>  <rmg_adjacency_list>  (1) 
1  S u0 p2 c0 {2,S} {3,S}
2  C u0 p0 c0 {1,S} {4,S} {6,S} {7,S}
3  C u0 p0 c0 {1,S} {5,S} {8,S} {9,S}
4  C u0 p0 c0 {2,S} {10,S} {11,S} {12,S}
5  C u0 p0 c0 {3,S} {13,S} {14,S} {15,S}
6  H u0 p0 c0 {2,S}
7  H u0 p0 c0 {2,S}
8  H u0 p0 c0 {3,S}
9  H u0 p0 c0 {3,S}
10 H u0 p0 c0 {4,S}
11 H u0 p0 c0 {4,S}
12 H u0 p0 c0 {4,S}
13 H u0 p0 c0 {5,S}
14 H u0 p0 c0 {5,S}
15 H u0 p0 c0 {5,S}


>  <multiplicity>  (1) 
1

>  <reaction>  (1) 
rmg_rxn_259

>  <type>  (1) 
r1h

>  <role_mapnums>  (1) 
{"r1h_a": 2, "r1h_h": 9}

>  <role_mapidx>  (1) 
{"r1h_a": 1, "r1h_h": 8}

>  <ordered_mapped_smiles>  (1) 
[C:1]([C:2]([S:3][C:4]([C:5]([H:13])([H:14])[H:15])([H:11])[H:12])([H:9])[H:10])([H:6])([H:7])[H:8]

>  <mol_properties>  (1) 
{"1": {"label": "donator", "atom_type": "Cs"}, "8": {"label": "d_hydrogen", "atom_type": "H0"}}

>  <level_of_theory>  (1) 
wb97xd/def2tzvp

>  <lot_method>  (1) 
wb97xd

>  <lot_basis>  (1) 
def2tzvp

>  <spin_multiplicity>  (1) 
1.0

>  <optical_isomers>  (1) 
2.0

>  <modes>  (1) 
IdealGasTranslation(mass=(90.0503, 'amu')),         NonlinearRotor(             inertia = ([97.9259, 182.785, 231.685

>  <frequency_value>  (1) 
unknown

>  <frequency_units>  (1) 
unknown

>  <frequency_list>  (1) 
unknown

>  <arkane_path>  (1) 
/home/calvin/Dropbox/PersonalFolders/Calvin/ATLAS_Converged/rmg_rxn_259/output/Species/rmg_rxn_259_r2_CCSCC/arkane/output.py

>  <path_exists>  (1) 
True

>  <E0_value>  (1) 
-1461176.7123028408

>  <E0_units>  (1) 
kJ/mol

>  <thermo_class>  (1) 
NASA

>  <Cp0_value>  (1) 
33.257888

>  <Cp0_units>  (1) 
J/(mol*K)

>  <CpInf_value>  (1) 
357.522296

>  <CpInf_units>  (1) 
J/(mol*K)

>  <Tmin_value>  (1) 
10.0

>  <Tmin_units>  (1) 
K

>  <Tmax_value>  (1) 
3000.0

>  <Tmax_units>  (1) 
K

>  <polynomials>  (1) 
[{"name": "polynomial1", "class": "NASAPolynomial", "Tmin_value": 10.0, "Tmin_units": "K", "Tmax_value": 1062.740332266501, "Tmax_units": "K", "coeffs": [3.7240768769611408, 0.031177750271788266, 1.590200165997747e-05, -3.1138888238628924e-08, 1.1081299545578661e-11, -175738967.30653694, 10.691637972640313]}, {"name": "polynomial2", "class": "NASAPolynomial", "Tmin_value": 1062.740332266501, "Tmin_units": "K", "Tmax_value": 3000.0, "Tmax_units": "K", "coeffs": [4.272256190616837, 0.04355880957526612, -2.1960566897444118e-05, 5.4018330156847166e-09, -5.231130586129144e-13, -175739899.50439465, 4.175990433518907]}]

>  <H298_value>  (1) 
-349224.4948454063

>  <H298_units>  (1) 
kcal/mol

>  <S298_value>  (1) 
82.77165630085062

>  <S298_units>  (1) 
cal/(mol*K)

>  <Cp_T_value_list>  (1) 
[27.339173580692723, 33.84270235009273, 39.920340825285514, 45.438637568785964, 54.52765007672161, 61.099128237827436, 71.10646466743047, 76.29375194018085, 78.77254304981717]

>  <Cp_T_units>  (1) 
cal/(mol*K)

>  <T_list>  (1) 
[300.0, 400.0, 500.0, 600.0, 800.0, 1000.0, 1500.0, 2000.0, 2400.0]

>  <T_units>  (1) 
K

>  <yaml_path>  (1) 
/home/calvin/Dropbox/PersonalFolders/Calvin/ATLAS_Converged/rmg_rxn_259/output/Species/rmg_rxn_259_r2_CCSCC/rmg_rxn_259_r2_CCSCC.yml

>  <frequencies_cm1>  (1) 
[66.48615186823999, 121.63491097315999, 224.63969077315997, 254.99863287287997, 273.62876404604003, 341.45397805167994, 381.0490154068, 647.6597204558, 701.8333676452798, 742.1151035324, 786.8329119362398, 985.17891591912, 988.88708799192, 1023.0091380469999, 1055.1809642711999, 1060.18699656948, 1093.14852610548, 1263.72444145428, 1273.9013136985197, 1289.2490258887199, 1308.3598460342798, 1399.5396771132398, 1399.8967603498797, 1460.7725852116798, 1462.4000607325202, 1478.53747623452, 1481.2362014652797, 1489.1538355392402, 1493.6723118798, 3015.6091353367196, 3016.10355827976, 3035.3242501904397, 3036.18262335544, 3073.69009717328, 3077.2334615983996, 3086.3528181033594, 3086.8953099436403, 3101.4052499247996, 3104.1520440527997]

>  <ZPE_kJmol>  (1) 
348.0016505911852

>  <E_elec_kJmol>  (1) 
-1461524.713953432

>  <E0_minus_Eelec_plus_ZPE_kJmol>  (1) 
0.0

>  <rxn>  (1) 
rmg_rxn_259

>  <species_type>  (1) 
r1

>  <species_folder>  (1) 
rmg_rxn_259_r2_CCSCC

>  <frequencies_cm1_list>  (1) 
[66.48615186823999, 121.63491097315999, 224.63969077315997, 254.99863287287997, 273.62876404604003, 341.45397805167994, 381.0490154068, 647.6597204558, 701.8333676452798, 742.1151035324, 786.8329119362398, 985.17891591912, 988.88708799192, 1023.0091380469999, 1055.1809642711999, 1060.18699656948, 1093.14852610548, 1263.72444145428, 1273.9013136985197, 1289.2490258887199, 1308.3598460342798, 1399.5396771132398, 1399.8967603498797, 1460.7725852116798, 1462.4000607325202, 1478.53747623452, 1481.2362014652797, 1489.1538355392402, 1493.6723118798, 3015.6091353367196, 3016.10355827976, 3035.3242501904397, 3036.18262335544, 3073.69009717328, 3077.2334615983996, 3086.3528181033594, 3086.8953099436403, 3101.4052499247996, 3104.1520440527997]

>  <E0_kJmol>  (1) 
-1.46118e+06

>  <H298_kJmol>  (1) 
-1.46116e+06

$$$$

     RDKit          3D

 14 14  0  0  0  0  0  0  0  0999 V2000
    0.9095    0.9110    0.5593 C   0  0  0  0  0  0  0  0  0  1  0  0
   -0.1151    1.3819   -0.4385 C   0  0  0  0  0  0  0  0  0  2  0  0
   -1.2952    0.4127   -0.4249 C   0  0  0  0  0  0  0  0  0  3  0  0
   -0.8315   -0.9167   -0.5722 O   0  0  0  0  0  0  0  0  0  4  0  0
    0.0765   -1.2503    0.4257 C   0  0  0  0  0  0  0  0  0  5  0  0
    1.2243   -0.4380    0.4079 O   0  0  0  0  0  0  0  0  0  6  0  0
    0.6974    1.1729    1.6027 H   0  0  0  0  0  0  0  0  0  7  0  0
   -0.4406    2.3962   -0.2033 H   0  0  0  0  0  0  0  0  0  8  0  0
    0.3263    1.3914   -1.4381 H   0  0  0  0  0  0  0  0  0  9  0  0
   -1.8529    0.5059    0.5184 H   0  0  0  0  0  0  0  0  0 10  0  0
   -1.9809    0.5984   -1.2506 H   0  0  0  0  0  0  0  0  0 11  0  0
   -0.4062   -1.1681    1.4148 H   0  0  0  0  0  0  0  0  0 12  0  0
    0.4059   -2.2706    0.2431 H   0  0  0  0  0  0  0  0  0 13  0  0
    1.8496    1.4254    0.3271 H   0  0  0  0  0  0  0  0  0 14  0  0
  1  6  1  0
  1  7  1  0
  1 14  1  0
  1  2  1  0
  2  9  1  0
  2  8  1  0
  2  3  1  0
  3 11  1  0
  3  4  1  0
  3 10  1  0
  4  5  1  0
  5 13  1  0
  5  6  1  0
  5 12  1  0
M  END
>  <rmg_smiles>  (2) 
C1COCOC1

>  <rmg_adjacency_list>  (2) 
1  O u0 p2 c0 {5,S} {6,S}
2  O u0 p2 c0 {4,S} {6,S}
3  C u0 p0 c0 {4,S} {5,S} {7,S} {8,S}
4  C u0 p0 c0 {2,S} {3,S} {9,S} {12,S}
5  C u0 p0 c0 {1,S} {3,S} {10,S} {11,S}
6  C u0 p0 c0 {1,S} {2,S} {13,S} {14,S}
7  H u0 p0 c0 {3,S}
8  H u0 p0 c0 {3,S}
9  H u0 p0 c0 {4,S}
10 H u0 p0 c0 {5,S}
11 H u0 p0 c0 {5,S}
12 H u0 p0 c0 {4,S}
13 H u0 p0 c0 {6,S}
14 H u0 p0 c0 {6,S}


>  <multiplicity>  (2) 
1

>  <reaction>  (2) 
rmg_rxn_259

>  <type>  (2) 
r2h

>  <role_mapnums>  (2) 
{"r2h_a": 1, "r2h_h": 14}

>  <role_mapidx>  (2) 
{"r2h_a": 0, "r2h_h": 13}

>  <ordered_mapped_smiles>  (2) 
[C:1]1([H:7])([H:14])[C:2]([H:8])([H:9])[C:3]([H:10])([H:11])[O:4][C:5]([H:12])([H:13])[O:6]1

>  <mol_properties>  (2) 
{"0": {"label": "acceptor", "atom_type": "Cs"}, "13": {"label": "a_hydrogen", "atom_type": "H0"}}

>  <level_of_theory>  (2) 
wb97xd/def2tzvp

>  <lot_method>  (2) 
wb97xd

>  <lot_basis>  (2) 
def2tzvp

>  <spin_multiplicity>  (2) 
1.0

>  <optical_isomers>  (2) 
1.0

>  <modes>  (2) 
IdealGasTranslation(mass=(88.0524, 'amu')),         NonlinearRotor(             inertia = ([100.123, 103.988, 181.806

>  <frequency_value>  (2) 
unknown

>  <frequency_units>  (2) 
unknown

>  <frequency_list>  (2) 
unknown

>  <arkane_path>  (2) 
/home/calvin/Dropbox/PersonalFolders/Calvin/ATLAS_Converged/rmg_rxn_259/output/Species/rmg_rxn_259_p1_C1COCOC1/arkane/output.py

>  <path_exists>  (2) 
True

>  <E0_value>  (2) 
-807534.4862541369

>  <E0_units>  (2) 
kJ/mol

>  <thermo_class>  (2) 
NASA

>  <Cp0_value>  (2) 
33.257888

>  <Cp0_units>  (2) 
J/(mol*K)

>  <CpInf_value>  (2) 
332.57888

>  <CpInf_units>  (2) 
J/(mol*K)

>  <Tmin_value>  (2) 
10.0

>  <Tmin_units>  (2) 
K

>  <Tmax_value>  (2) 
3000.0

>  <Tmax_units>  (2) 
K

>  <polynomials>  (2) 
[{"name": "polynomial1", "class": "NASAPolynomial", "Tmin_value": 10.0, "Tmin_units": "K", "Tmax_value": 635.616554573151, "Tmax_units": "K", "coeffs": [4.089858497697602, -0.00720848048360332, 0.00016188875003168496, -2.401508213073996e-07, 1.1440937882219611e-10, -97123964.81365098, 9.940070949440356]}, {"name": "polynomial2", "class": "NASAPolynomial", "Tmin_value": 635.616554573151, "Tmin_units": "K", "Tmax_value": 3000.0, "Tmax_units": "K", "coeffs": [-3.6233751272420895, 0.05886750722676344, -3.5427870905530145e-05, 1.0209382893823142e-08, -1.1338653155444558e-12, -97123338.5127768, 40.87012283464024]}]

>  <H298_value>  (2) 
-193001.58453999052

>  <H298_units>  (2) 
kcal/mol

>  <S298_value>  (2) 
72.30963326519604

>  <S298_units>  (2) 
cal/(mol*K)

>  <Cp_T_value_list>  (2) 
[21.739931113059615, 29.14813400113705, 35.94765005011551, 41.73053828287379, 50.792135881792035, 57.413930600437965, 66.93239440365458, 71.40703402864166, 73.74460734469625]

>  <Cp_T_units>  (2) 
cal/(mol*K)

>  <T_list>  (2) 
[300.0, 400.0, 500.0, 600.0, 800.0, 1000.0, 1500.0, 2000.0, 2400.0]

>  <T_units>  (2) 
K

>  <yaml_path>  (2) 
/home/calvin/Dropbox/PersonalFolders/Calvin/ATLAS_Converged/rmg_rxn_259/output/Species/rmg_rxn_259_p1_C1COCOC1/rmg_rxn_259_p1_C1COCOC1.yml

>  <frequencies_cm1>  (2) 
[264.26219606955993, 269.44676998615995, 439.22611503784, 466.70779028847994, 494.62208561427997, 656.81341188736, 851.50617968, 900.41284912904, 919.12538412604, 926.80954069912, 1013.8966485273598, 1037.6289497932798, 1094.57685905204, 1112.95291176836, 1188.75069573052, 1216.28730686372, 1226.8487302858798, 1252.366447735, 1315.55644664964, 1328.3633742714399, 1363.72148168412, 1380.93701388136, 1404.8272558096398, 1432.53554157584, 1460.95799381532, 1489.42164796672, 1490.0946125280798, 1506.58911126672, 2894.63345495428, 2944.5289702893997, 2950.530715459079, 3031.06671929204, 3080.8454958767197, 3088.2893079635996, 3091.87387430064, 3110.9160245929997]

>  <ZPE_kJmol>  (2) 
321.1850391352071

>  <E_elec_kJmol>  (2) 
-807855.671293272

>  <E0_minus_Eelec_plus_ZPE_kJmol>  (2) 
0.0

>  <rxn>  (2) 
rmg_rxn_259

>  <species_type>  (2) 
p0

>  <species_folder>  (2) 
rmg_rxn_259_p1_C1COCOC1

>  <frequencies_cm1_list>  (2) 
[264.26219606955993, 269.44676998615995, 439.22611503784, 466.70779028847994, 494.62208561427997, 656.81341188736, 851.50617968, 900.41284912904, 919.12538412604, 926.80954069912, 1013.8966485273598, 1037.6289497932798, 1094.57685905204, 1112.95291176836, 1188.75069573052, 1216.28730686372, 1226.8487302858798, 1252.366447735, 1315.55644664964, 1328.3633742714399, 1363.72148168412, 1380.93701388136, 1404.8272558096398, 1432.53554157584, 1460.95799381532, 1489.42164796672, 1490.0946125280798, 1506.58911126672, 2894.63345495428, 2944.5289702893997, 2950.530715459079, 3031.06671929204, 3080.8454958767197, 3088.2893079635996, 3091.87387430064, 3110.9160245929997]

>  <E0_kJmol>  (2) 
-807534

>  <H298_kJmol>  (2) 
-807519

$$$$

     RDKit          3D

 28 27  0  0  0  0  0  0  0  0999 V2000
   -1.0049   -0.7171    0.7416 C   0  0  0  0  0  3  0  0  0  1  0  0
   -2.0294   -0.2462   -0.2562 C   0  0  0  0  0  0  0  0  0  2  0  0
   -3.2095   -1.2154   -0.2426 C   0  0  0  0  0  0  0  0  0  3  0  0
   -2.7458   -2.5448   -0.3899 O   0  0  0  0  0  0  0  0  0  4  0  0
   -1.8379   -2.8784    0.6080 C   0  0  0  0  0  0  0  0  0  5  0  0
   -0.6900   -2.0661    0.5902 O   0  0  0  0  0  0  0  0  0  6  0  0
   -1.2169   -0.4552    1.7850 H   0  0  0  0  0  0  0  0  0  7  0  0
   -2.3549    0.7681   -0.0210 H   0  0  0  0  0  0  0  0  0  8  0  0
   -1.5880   -0.2367   -1.2558 H   0  0  0  0  0  0  0  0  0  9  0  0
   -3.7672   -1.1222    0.7007 H   0  0  0  0  0  0  0  0  0 10  0  0
   -3.8952   -1.0297   -1.0683 H   0  0  0  0  0  0  0  0  0 11  0  0
   -2.3206   -2.7962    1.5971 H   0  0  0  0  0  0  0  0  0 12  0  0
   -1.5084   -3.8987    0.4254 H   0  0  0  0  0  0  0  0  0 13  0  0
    1.6321   -0.4012   -1.2212 C   0  0  0  0  0  0  0  0  0 14  0  0
    1.3051    0.4121    0.0023 C   0  0  0  0  0  0  0  0  0 15  0  0
    0.8980    2.1329   -0.2278 S   0  0  0  0  0  0  0  0  0 16  0  0
    2.3165    2.7513   -1.1788 C   0  0  0  0  0  0  0  0  0 17  0  0
    3.6444    2.6671   -0.4464 C   0  0  0  0  0  0  0  0  0 18  0  0
    2.6164   -0.1473   -1.6271 H   0  0  0  0  0  0  0  0  0 19  0  0
    1.6387   -1.4639   -0.9723 H   0  0  0  0  0  0  0  0  0 20  0  0
    0.8936   -0.2375   -2.0080 H   0  0  0  0  0  0  0  0  0 21  0  0
    0.1549   -0.0825    0.4552 H   0  0  0  0  0  0  0  0  0 22  0  0
    1.9774    0.2401    0.8421 H   0  0  0  0  0  0  0  0  0 23  0  0
    2.3599    2.2253   -2.1337 H   0  0  0  0  0  0  0  0  0 24  0  0
    2.0581    3.7890   -1.3968 H   0  0  0  0  0  0  0  0  0 25  0  0
    3.9064    1.6312   -0.2241 H   0  0  0  0  0  0  0  0  0 26  0  0
    3.6040    3.2136    0.4964 H   0  0  0  0  0  0  0  0  0 27  0  0
    4.4449    3.0893   -1.0583 H   0  0  0  0  0  0  0  0  0 28  0  0
  1  7  1  0
  1  6  1  0
  1  2  1  0
  2  8  1  0
  2  3  1  0
  2  9  1  0
  3  4  1  0
  3 11  1  0
  3 10  1  0
  4  5  1  0
  5 12  1  0
  5 13  1  0
  5  6  1  0
 14 15  1  0
 14 19  1  0
 14 20  1  0
 14 21  1  0
 15 23  1  0
 15 22  1  0
 15 16  1  0
 16 17  1  0
 17 18  1  0
 17 24  1  0
 17 25  1  0
 18 28  1  0
 18 27  1  0
 18 26  1  0
M  RAD  1   1   2
M  END
>  <rmg_smiles>  (3) 
[CH]1CCOCO1.CCSCC

>  <rmg_adjacency_list>  (3) 
multiplicity 2
1  S u0 p2 c0 {6,S} {7,S}
2  O u0 p2 c0 {5,S} {10,S}
3  O u0 p2 c0 {10,S} {11,S}
4  C u0 p0 c0 {5,S} {11,S} {12,S} {13,S}
5  C u0 p0 c0 {2,S} {4,S} {14,S} {15,S}
6  C u0 p0 c0 {1,S} {8,S} {16,S} {17,S}
7  C u0 p0 c0 {1,S} {9,S} {18,S} {19,S}
8  C u0 p0 c0 {6,S} {20,S} {21,S} {22,S}
9  C u0 p0 c0 {7,S} {23,S} {24,S} {25,S}
10 C u0 p0 c0 {2,S} {3,S} {26,S} {27,S}
11 C u1 p0 c0 {3,S} {4,S} {28,S}
12 H u0 p0 c0 {4,S}
13 H u0 p0 c0 {4,S}
14 H u0 p0 c0 {5,S}
15 H u0 p0 c0 {5,S}
16 H u0 p0 c0 {6,S}
17 H u0 p0 c0 {6,S}
18 H u0 p0 c0 {7,S}
19 H u0 p0 c0 {7,S}
20 H u0 p0 c0 {8,S}
21 H u0 p0 c0 {8,S}
22 H u0 p0 c0 {8,S}
23 H u0 p0 c0 {9,S}
24 H u0 p0 c0 {9,S}
25 H u0 p0 c0 {9,S}
26 H u0 p0 c0 {10,S}
27 H u0 p0 c0 {10,S}
28 H u0 p0 c0 {11,S}


>  <multiplicity>  (3) 
2

>  <reaction>  (3) 
rmg_rxn_259

>  <type>  (3) 
ts

>  <role_mapnums>  (3) 
{"*2": 22, "*1": 15, "*3": 1, "*0": 16, "*4": 6}

>  <role_mapidx>  (3) 
{"*2": 21, "*1": 14, "*3": 0, "*0": 15, "*4": 5}

>  <ordered_mapped_smiles>  (3) 
[C:1]1([H:7])[C:2]([H:8])([H:9])[C:3]([H:10])([H:11])[O:4][C:5]([H:12])([H:13])[O:6]1.[C:14]([C:15]([S:16][C:17]([C:18]([H:26])([H:27])[H:28])([H:24])[H:25])([H:22])[H:23])([H:19])([H:20])[H:21]

>  <mol_properties>  (3) 
{"0": {"label": "*3", "atom_type": "Cs"}, "5": {"label": "*4", "atom_type": "O2s"}, "14": {"label": "*1", "atom_type": "Cs"}, "15": {"label": "*0", "atom_type": "S2s"}, "21": {"label": "*2", "atom_type": "H0"}}

>  <level_of_theory>  (3) 
wb97xd/def2tzvp

>  <lot_method>  (3) 
wb97xd

>  <lot_basis>  (3) 
def2tzvp

>  <spin_multiplicity>  (3) 
2.0

>  <optical_isomers>  (3) 
2.0

>  <modes>  (3) 
IdealGasTranslation(mass=(177.095, 'amu')),         NonlinearRotor(             inertia = ([218.702, 1388.06, 1485.01

>  <frequency_value>  (3) 
-1747.45

>  <frequency_units>  (3) 
cm^-1

>  <frequency_list>  (3) 
unknown

>  <arkane_path>  (3) 
/home/calvin/Dropbox/PersonalFolders/Calvin/ATLAS_Converged/rmg_rxn_259/output/rxns/TS0/arkane/output.py

>  <path_exists>  (3) 
True

>  <E0_value>  (3) 
-2266940.0

>  <E0_units>  (3) 
kJ/mol

>  <thermo_class>  (3) 
unknown

>  <Cp0_value>  (3) 
unknown

>  <Cp0_units>  (3) 
unknown

>  <CpInf_value>  (3) 
unknown

>  <CpInf_units>  (3) 
unknown

>  <Tmin_value>  (3) 
unknown

>  <Tmin_units>  (3) 
unknown

>  <Tmax_value>  (3) 
unknown

>  <Tmax_units>  (3) 
unknown

>  <polynomials>  (3) 
unknown

>  <H298_value>  (3) 
unknown

>  <H298_units>  (3) 
unknown

>  <S298_value>  (3) 
unknown

>  <S298_units>  (3) 
unknown

>  <Cp_T_value_list>  (3) 
unknown

>  <Cp_T_units>  (3) 
unknown

>  <T_list>  (3) 
unknown

>  <T_units>  (3) 
unknown

>  <yaml_path>  (3) 
unknown

>  <frequencies_cm1>  (3) 
unknown

>  <ZPE_kJmol>  (3) 
unknown

>  <E_elec_kJmol>  (3) 
unknown

>  <E0_minus_Eelec_plus_ZPE_kJmol>  (3) 
unknown

>  <rxn>  (3) 
unknown

>  <species_type>  (3) 
unknown

>  <species_folder>  (3) 
unknown

>  <frequencies_cm1_list>  (3) 
[]

>  <ts_imag_freq_cm1>  (3) 
-1768.6772

>  <ts_freq_out_path>  (3) 
/home/calvin/Dropbox/PersonalFolders/Calvin/ATLAS_Converged/rmg_rxn_259/output/rxns/TS0/geometry/freq.out

>  <E0_kJmol>  (3) 
-2.26694e+06

>  <H298_kJmol>  (3) 
unknown

$$$$

     RDKit          3D

 14 13  0  0  0  0  0  0  0  0999 V2000
    2.6194    0.1388   -0.2451 C   0  0  0  0  0  0  0  0  0  1  0  0
    1.2416   -0.4914   -0.3670 C   0  0  0  0  0  0  0  0  0  2  0  0
    0.9567   -1.8675    0.7732 S   0  0  0  0  0  0  0  0  0  3  0  0
    1.9992   -3.0673    0.1320 C   0  0  0  0  0  3  0  0  0  4  0  0
    2.1769   -4.3519    0.8615 C   0  0  0  0  0  0  0  0  0  5  0  0
    3.4009   -0.5920   -0.4552 H   0  0  0  0  0  0  0  0  0  6  0  0
    2.7219    0.9635   -0.9540 H   0  0  0  0  0  0  0  0  0  7  0  0
    2.7821    0.5262    0.7612 H   0  0  0  0  0  0  0  0  0  8  0  0
    1.0587   -0.8507   -1.3815 H   0  0  0  0  0  0  0  0  0  9  0  0
    0.4587    0.2313   -0.1333 H   0  0  0  0  0  0  0  0  0 10  0  0
    2.2677   -2.9922   -0.9152 H   0  0  0  0  0  0  0  0  0 11  0  0
    1.3745   -5.0711    0.6500 H   0  0  0  0  0  0  0  0  0 12  0  0
    3.1173   -4.8269    0.5747 H   0  0  0  0  0  0  0  0  0 13  0  0
    2.1945   -4.1971    1.9428 H   0  0  0  0  0  0  0  0  0 14  0  0
  1  8  1  0
  1  7  1  0
  1  6  1  0
  1  2  1  0
  2 10  1  0
  2  9  1  0
  2  3  1  0
  3  4  1  0
  4  5  1  0
  4 11  1  0
  5 12  1  0
  5 14  1  0
  5 13  1  0
M  RAD  1   4   2
M  END
>  <rmg_smiles>  (4) 
CCS[CH]C

>  <rmg_adjacency_list>  (4) 
multiplicity 2
1  S u0 p2 c0 {2,S} {5,S}
2  C u0 p0 c0 {1,S} {3,S} {6,S} {7,S}
3  C u0 p0 c0 {2,S} {8,S} {9,S} {10,S}
4  C u0 p0 c0 {5,S} {11,S} {12,S} {13,S}
5  C u1 p0 c0 {1,S} {4,S} {14,S}
6  H u0 p0 c0 {2,S}
7  H u0 p0 c0 {2,S}
8  H u0 p0 c0 {3,S}
9  H u0 p0 c0 {3,S}
10 H u0 p0 c0 {3,S}
11 H u0 p0 c0 {4,S}
12 H u0 p0 c0 {4,S}
13 H u0 p0 c0 {4,S}
14 H u0 p0 c0 {5,S}


>  <multiplicity>  (4) 
2

>  <reaction>  (4) 
rmg_rxn_259

>  <type>  (4) 
r1

>  <role_mapnums>  (4) 
{}

>  <role_mapidx>  (4) 
{}

>  <ordered_mapped_smiles>  (4) 
[C:1]([C:2]([S:3][C:4]([C:5]([H:12])([H:13])[H:14])[H:11])([H:9])[H:10])([H:6])([H:7])[H:8]

>  <level_of_theory>  (4) 
wb97xd/def2tzvp

>  <lot_method>  (4) 
wb97xd

>  <lot_basis>  (4) 
def2tzvp

>  <spin_multiplicity>  (4) 
2.0

>  <optical_isomers>  (4) 
2.0

>  <modes>  (4) 
IdealGasTranslation(mass=(89.0425, 'amu')),         NonlinearRotor(             inertia = ([61.1392, 234.583, 269.728

>  <frequency_value>  (4) 
unknown

>  <frequency_units>  (4) 
unknown

>  <frequency_list>  (4) 
unknown

>  <arkane_path>  (4) 
/home/calvin/Dropbox/PersonalFolders/Calvin/ATLAS_Converged/rmg_rxn_259/output/Species/rmg_rxn_259_p2_CCSsbr-CH-sbrC/arkane/output.py

>  <path_exists>  (4) 
True

>  <E0_value>  (4) 
-1459485.5932734755

>  <E0_units>  (4) 
kJ/mol

>  <thermo_class>  (4) 
NASA

>  <Cp0_value>  (4) 
33.257888

>  <Cp0_units>  (4) 
J/(mol*K)

>  <CpInf_value>  (4) 
332.57888

>  <CpInf_units>  (4) 
J/(mol*K)

>  <Tmin_value>  (4) 
10.0

>  <Tmin_units>  (4) 
K

>  <Tmax_value>  (4) 
3000.0

>  <Tmax_units>  (4) 
K

>  <polynomials>  (4) 
[{"name": "polynomial1", "class": "NASAPolynomial", "Tmin_value": 10.0, "Tmin_units": "K", "Tmax_value": 454.73652427014537, "Tmax_units": "K", "coeffs": [3.493929872758391, 0.04996954034356644, -9.706557814371871e-05, 2.0442141353294147e-07, -1.6137135098939988e-10, -175535569.76734895, 12.309949975756851]}, {"name": "polynomial2", "class": "NASAPolynomial", "Tmin_value": 454.73652427014537, "Tmin_units": "K", "Tmax_value": 3000.0, "Tmax_units": "K", "coeffs": [1.385626895078579, 0.048785175139354195, -2.8078373702267293e-05, 7.871486597778785e-09, -8.60198315864174e-13, -175535174.0329356, 23.062818681609528]}]

>  <H298_value>  (4) 
-348819.9985649631

>  <H298_units>  (4) 
kcal/mol

>  <S298_value>  (4) 
87.9960956943955

>  <S298_units>  (4) 
cal/(mol*K)

>  <Cp_T_value_list>  (4) 
[27.74370824131066, 33.58998475979596, 39.12570036512099, 43.99134046831092, 51.90875846619441, 57.83509485748177, 66.76728096321004, 71.24374186653883, 73.55591166534288]

>  <Cp_T_units>  (4) 
cal/(mol*K)

>  <T_list>  (4) 
[300.0, 400.0, 500.0, 600.0, 800.0, 1000.0, 1500.0, 2000.0, 2400.0]

>  <T_units>  (4) 
K

>  <yaml_path>  (4) 
/home/calvin/Dropbox/PersonalFolders/Calvin/ATLAS_Converged/rmg_rxn_259/output/Species/rmg_rxn_259_p2_CCSsbr-CH-sbrC/rmg_rxn_259_p2_CCSsbr-CH-sbrC.yml

>  <frequencies_cm1>  (4) 
[75.52310454936, 94.65452565087999, 130.82293733132, 178.45921449616, 258.28105185583996, 303.93277026320004, 399.92635805147995, 433.28617273604, 673.1087680517201, 749.4147089275599, 777.8920970496, 982.3977868645198, 1001.81075436416, 1020.13873818324, 1056.2934158930398, 1066.42908622536, 1115.65850398444, 1268.2978536774, 1291.53573200028, 1305.242234699, 1399.3061996123597, 1400.4461191754801, 1458.1905987313598, 1459.3785871917198, 1474.98037783876, 1476.0447605633601, 1485.12978214172, 2961.25694652892, 3017.9164424042397, 3034.9122310712396, 3037.7551629937198, 3080.4884126400793, 3082.99486228188, 3091.5030570933595, 3108.8215940703994, 3146.2535310497196]

>  <ZPE_kJmol>  (4) 
310.42196217621137

>  <E_elec_kJmol>  (4) 
-1459796.0152356518

>  <E0_minus_Eelec_plus_ZPE_kJmol>  (4) 
0.0

>  <rxn>  (4) 
rmg_rxn_259

>  <species_type>  (4) 
p1

>  <species_folder>  (4) 
rmg_rxn_259_p2_CCSsbr-CH-sbrC

>  <frequencies_cm1_list>  (4) 
[75.52310454936, 94.65452565087999, 130.82293733132, 178.45921449616, 258.28105185583996, 303.93277026320004, 399.92635805147995, 433.28617273604, 673.1087680517201, 749.4147089275599, 777.8920970496, 982.3977868645198, 1001.81075436416, 1020.13873818324, 1056.2934158930398, 1066.42908622536, 1115.65850398444, 1268.2978536774, 1291.53573200028, 1305.242234699, 1399.3061996123597, 1400.4461191754801, 1458.1905987313598, 1459.3785871917198, 1474.98037783876, 1476.0447605633601, 1485.12978214172, 2961.25694652892, 3017.9164424042397, 3034.9122310712396, 3037.7551629937198, 3080.4884126400793, 3082.99486228188, 3091.5030570933595, 3108.8215940703994, 3146.2535310497196]

>  <E0_kJmol>  (4) 
-1.45949e+06

>  <H298_kJmol>  (4) 
-1.45946e+06

$$$$

     RDKit          3D

 13 13  0  0  0  0  0  0  0  0999 V2000
   -0.9087    1.0135    0.2744 C   0  0  0  0  0  3  0  0  0  1  0  0
   -1.1528   -0.4306   -0.0132 C   0  0  0  0  0  0  0  0  0  2  0  0
    0.1597   -1.1985    0.0580 C   0  0  0  0  0  0  0  0  0  3  0  0
    1.1497   -0.5125   -0.6902 O   0  0  0  0  0  0  0  0  0  4  0  0
    1.3593    0.7608   -0.1866 C   0  0  0  0  0  0  0  0  0  5  0  0
    0.2092    1.5798   -0.2538 O   0  0  0  0  0  0  0  0  0  6  0  0
   -1.7260    1.7182    0.3534 H   0  0  0  0  0  0  0  0  0  7  0  0
   -1.8796   -0.8393    0.6913 H   0  0  0  0  0  0  0  0  0  8  0  0
   -1.5725   -0.5507   -1.0227 H   0  0  0  0  0  0  0  0  0  9  0  0
    0.4914   -1.2968    1.1007 H   0  0  0  0  0  0  0  0  0 10  0  0
    0.0732   -2.1931   -0.3758 H   0  0  0  0  0  0  0  0  0 11  0  0
    1.6805    0.7077    0.8652 H   0  0  0  0  0  0  0  0  0 12  0  0
    2.1167    1.2415   -0.8007 H   0  0  0  0  0  0  0  0  0 13  0  0
  1  6  1  0
  1  7  1  0
  1  2  1  0
  2  9  1  0
  2  8  1  0
  2  3  1  0
  3 11  1  0
  3  4  1  0
  3 10  1  0
  4  5  1  0
  5 13  1  0
  5  6  1  0
  5 12  1  0
M  RAD  1   1   2
M  END
>  <rmg_smiles>  (5) 
[CH]1CCOCO1

>  <rmg_adjacency_list>  (5) 
multiplicity 2
1  O u0 p2 c0 {4,S} {5,S}
2  O u0 p2 c0 {5,S} {6,S}
3  C u0 p0 c0 {4,S} {6,S} {7,S} {8,S}
4  C u0 p0 c0 {1,S} {3,S} {9,S} {10,S}
5  C u0 p0 c0 {1,S} {2,S} {11,S} {12,S}
6  C u1 p0 c0 {2,S} {3,S} {13,S}
7  H u0 p0 c0 {3,S}
8  H u0 p0 c0 {3,S}
9  H u0 p0 c0 {4,S}
10 H u0 p0 c0 {4,S}
11 H u0 p0 c0 {5,S}
12 H u0 p0 c0 {5,S}
13 H u0 p0 c0 {6,S}


>  <multiplicity>  (5) 
2

>  <reaction>  (5) 
rmg_rxn_259

>  <type>  (5) 
r2

>  <role_mapnums>  (5) 
{}

>  <role_mapidx>  (5) 
{}

>  <ordered_mapped_smiles>  (5) 
[C:1]1([H:7])[C:2]([H:8])([H:9])[C:3]([H:10])([H:11])[O:4][C:5]([H:12])([H:13])[O:6]1

>  <level_of_theory>  (5) 
wb97xd/def2tzvp

>  <lot_method>  (5) 
wb97xd

>  <lot_basis>  (5) 
def2tzvp

>  <spin_multiplicity>  (5) 
2.0

>  <optical_isomers>  (5) 
2.0

>  <modes>  (5) 
IdealGasTranslation(mass=(87.0446, 'amu')),         NonlinearRotor(             inertia = ([96.9848, 100.571, 180.326

>  <frequency_value>  (5) 
unknown

>  <frequency_units>  (5) 
unknown

>  <frequency_list>  (5) 
unknown

>  <arkane_path>  (5) 
/home/calvin/Dropbox/PersonalFolders/Calvin/ATLAS_Converged/rmg_rxn_259/output/Species/rmg_rxn_259_r1_sbr-CH-sbr1CCOCO1/arkane/output.py

>  <path_exists>  (5) 
True

>  <E0_value>  (5) 
-805827.3421493819

>  <E0_units>  (5) 
kJ/mol

>  <thermo_class>  (5) 
NASA

>  <Cp0_value>  (5) 
33.257888

>  <Cp0_units>  (5) 
J/(mol*K)

>  <CpInf_value>  (5) 
307.635464

>  <CpInf_units>  (5) 
J/(mol*K)

>  <Tmin_value>  (5) 
10.0

>  <Tmin_units>  (5) 
K

>  <Tmax_value>  (5) 
3000.0

>  <Tmax_units>  (5) 
K

>  <polynomials>  (5) 
[{"name": "polynomial1", "class": "NASAPolynomial", "Tmin_value": 10.0, "Tmin_units": "K", "Tmax_value": 594.5881445366083, "Tmax_units": "K", "coeffs": [4.0448110838926565, -0.004287247298286005, 0.0001561678296055211, -2.5056792670345e-07, 1.28608989510542e-10, -96918641.31425966, 11.310846190181683]}, {"name": "polynomial2", "class": "NASAPolynomial", "Tmin_value": 594.5881445366083, "Tmin_units": "K", "Tmax_value": 3000.0, "Tmax_units": "K", "coeffs": [-2.0223142792396813, 0.05358769196829288, -3.287284368824778e-05, 9.64252563065185e-09, -1.0874709432735165e-12, -96918221.37894577, 34.89119071361758]}]

>  <H298_value>  (5) 
-192593.46110107773

>  <H298_units>  (5) 
kcal/mol

>  <S298_value>  (5) 
75.62180337642914

>  <S298_units>  (5) 
cal/(mol*K)

>  <Cp_T_value_list>  (5) 
[22.038399005889005, 28.959178246137498, 35.09449573071628, 40.21693905885679, 48.29063691328946, 54.14658537653456, 62.464910648605866, 66.37739659151993, 68.47747700545682]

>  <Cp_T_units>  (5) 
cal/(mol*K)

>  <T_list>  (5) 
[300.0, 400.0, 500.0, 600.0, 800.0, 1000.0, 1500.0, 2000.0, 2400.0]

>  <T_units>  (5) 
K

>  <yaml_path>  (5) 
/home/calvin/Dropbox/PersonalFolders/Calvin/ATLAS_Converged/rmg_rxn_259/output/Species/rmg_rxn_259_r1_sbr-CH-sbr1CCOCO1/rmg_rxn_259_r1_sbr-CH-sbr1CCOCO1.yml

>  <frequencies_cm1>  (5) 
[225.5461328354, 251.49647035968, 410.99593838732, 475.95761951452, 495.8306750306, 591.7830609069599, 728.8686888501201, 860.14484721256, 919.0292463315599, 933.8413336668, 1002.5523887787199, 1034.68988007632, 1061.81447209032, 1129.37187366848, 1164.5789074041202, 1229.20410625064, 1259.04115746604, 1263.30555534976, 1323.45347976764, 1354.19010605996, 1364.1609687445998, 1410.3689129628801, 1445.48667588936, 1452.1064497378397, 1489.32551017224, 1505.45605868892, 2941.13667954132, 2947.4199711091196, 2972.12051730516, 3065.6282564076, 3096.83183770168, 3120.1177849217997, 3169.457074446]

>  <ZPE_kJmol>  (5) 
285.28140433887154

>  <E_elec_kJmol>  (5) 
-806112.6235537208

>  <E0_minus_Eelec_plus_ZPE_kJmol>  (5) 
0.0

>  <rxn>  (5) 
rmg_rxn_259

>  <species_type>  (5) 
r0

>  <species_folder>  (5) 
rmg_rxn_259_r1_sbr-CH-sbr1CCOCO1

>  <frequencies_cm1_list>  (5) 
[225.5461328354, 251.49647035968, 410.99593838732, 475.95761951452, 495.8306750306, 591.7830609069599, 728.8686888501201, 860.14484721256, 919.0292463315599, 933.8413336668, 1002.5523887787199, 1034.68988007632, 1061.81447209032, 1129.37187366848, 1164.5789074041202, 1229.20410625064, 1259.04115746604, 1263.30555534976, 1323.45347976764, 1354.19010605996, 1364.1609687445998, 1410.3689129628801, 1445.48667588936, 1452.1064497378397, 1489.32551017224, 1505.45605868892, 2941.13667954132, 2947.4199711091196, 2972.12051730516, 3065.6282564076, 3096.83183770168, 3120.1177849217997, 3169.457074446]

>  <E0_kJmol>  (5) 
-805827

>  <H298_kJmol>  (5) 
-805811

$$$$
