
     RDKit          3D

  9  8  0  0  0  0  0  0  0  0999 V2000
    1.8366   -0.5650   -0.0000 C   0  0  0  0  0  0  0  0  0  1  0  0
    0.5704    0.2305   -0.0000 C   0  0  0  0  0  0  0  0  0  2  0  0
   -0.5819   -0.3554    0.0000 N   0  0  0  0  0  0  0  0  0  3  0  0
   -1.5842    0.6213   -0.0000 O   0  0  0  0  0  0  0  0  0  4  0  0
    2.4204   -0.3003   -0.8852 H   0  0  0  0  0  0  0  0  0  5  0  0
    2.4156   -0.3080    0.8906 H   0  0  0  0  0  0  0  0  0  6  0  0
    1.6264   -1.6372   -0.0052 H   0  0  0  0  0  0  0  0  0  7  0  0
    0.6684    1.3304   -0.0000 H   0  0  0  0  0  0  0  0  0  8  0  0
   -2.3855    0.0925    0.0000 H   0  0  0  0  0  0  0  0  0  9  0  0
  1  5  1  0
  1  7  1  0
  1  6  1  0
  1  2  1  0
  2  3  1  0
  2  8  1  0
  3  4  1  0
  4  9  1  0
M  END
>  <rmg_smiles>  (1) 
C[CH][N]O

>  <rmg_adjacency_list>  (1) 
1 O u0 p2 c0 {2,S} {9,S}
2 N u0 p1 c0 {1,S} {4,S}
3 C u0 p0 c0 {4,S} {5,S} {6,S} {7,S}
4 C u0 p0 c0 {2,S} {3,S} {8,S}
5 H u0 p0 c0 {3,S}
6 H u0 p0 c0 {3,S}
7 H u0 p0 c0 {3,S}
8 H u0 p0 c0 {4,S}
9 H u0 p0 c0 {1,S}


>  <multiplicity>  (1) 
1

>  <reaction>  (1) 
rmg_rxn_1137

>  <type>  (1) 
r1h

>  <role_mapnums>  (1) 
{"r1h_a": 4, "r1h_h": 9}

>  <role_mapidx>  (1) 
{"r1h_a": 3, "r1h_h": 8}

>  <ordered_mapped_smiles>  (1) 
[C:1]([CH:2]([NH:3][O:4][H:9])[H:8])([H:5])([H:6])[H:7]

>  <mol_properties>  (1) 
{"3": {"label": "donator", "atom_type": "O2s"}, "8": {"label": "d_hydrogen", "atom_type": "H0"}}

>  <level_of_theory>  (1) 
wb97xd/def2tzvp

>  <lot_method>  (1) 
wb97xd

>  <lot_basis>  (1) 
def2tzvp

>  <spin_multiplicity>  (1) 
1.0

>  <optical_isomers>  (1) 
1.0

>  <modes>  (1) 
IdealGasTranslation(mass=(59.0371, 'amu')),         NonlinearRotor(             inertia = ([11.3019, 118.929, 127.053

>  <frequency_value>  (1) 
unknown

>  <frequency_units>  (1) 
unknown

>  <frequency_list>  (1) 
unknown

>  <arkane_path>  (1) 
/home/calvin/Dropbox/PersonalFolders/Calvin/ATLAS_Converged/rmg_rxn_1137/output/Species/rmg_rxn_1137_r2_CC=NO/arkane/output.py

>  <path_exists>  (1) 
True

>  <E0_value>  (1) 
-548938.7504061832

>  <E0_units>  (1) 
kJ/mol

>  <thermo_class>  (1) 
NASA

>  <Cp0_value>  (1) 
33.257888

>  <Cp0_units>  (1) 
J/(mol*K)

>  <CpInf_value>  (1) 
207.8618

>  <CpInf_units>  (1) 
J/(mol*K)

>  <Tmin_value>  (1) 
10.0

>  <Tmin_units>  (1) 
K

>  <Tmax_value>  (1) 
3000.0

>  <Tmax_units>  (1) 
K

>  <polynomials>  (1) 
[{"name": "polynomial1", "class": "NASAPolynomial", "Tmin_value": 10.0, "Tmin_units": "K", "Tmax_value": 407.02143224027725, "Tmax_units": "K", "coeffs": [3.970394727050281, 0.0019085019090061344, 8.999188689255638e-05, -1.728425858630876e-07, 1.0893723948583443e-10, -66022080.95706744, 8.07398541508105]}, {"name": "polynomial2", "class": "NASAPolynomial", "Tmin_value": 407.02143224027725, "Tmin_units": "K", "Tmax_value": 3000.0, "Tmax_units": "K", "coeffs": [0.9621874697452232, 0.03146938941944992, -1.8940858254609138e-05, 5.566474909528141e-09, -6.365372247250346e-13, -66021836.05749608, 19.8830293639242]}]

>  <H298_value>  (1) 
-131195.98677395078

>  <H298_units>  (1) 
kcal/mol

>  <S298_value>  (1) 
67.46236987505428

>  <S298_units>  (1) 
cal/(mol*K)

>  <Cp_T_value_list>  (1) 
[17.602390898913953, 21.57980117944682, 25.07396235743919, 28.108987281167522, 32.997284206903835, 36.605647989766695, 41.9573288877991, 44.68181548072574, 46.146015623361606]

>  <Cp_T_units>  (1) 
cal/(mol*K)

>  <T_list>  (1) 
[300.0, 400.0, 500.0, 600.0, 800.0, 1000.0, 1500.0, 2000.0, 2400.0]

>  <T_units>  (1) 
K

>  <yaml_path>  (1) 
/home/calvin/Dropbox/PersonalFolders/Calvin/ATLAS_Converged/rmg_rxn_1137/output/Species/rmg_rxn_1137_r2_CC=NO/rmg_rxn_1137_r2_CC=NO.yml

>  <frequencies_cm1>  (1) 
[249.23723218939998, 315.55170942463997, 336.7226251662, 578.3169026944399, 613.7024780483999, 921.034406045, 937.9889928000799, 1016.85631920028, 1095.7373795711198, 1152.23206779876, 1294.3031270842398, 1388.55936758656, 1450.34850149592, 1467.9211169298, 1474.25934438016, 1641.5322397900397, 2961.4904240297997, 3001.7240910196797, 3077.28153049564, 3094.5176636488395, 3628.274698601799]

>  <ZPE_kJmol>  (1) 
189.59375926129468

>  <E_elec_kJmol>  (1) 
-549128.3441654445

>  <E0_minus_Eelec_plus_ZPE_kJmol>  (1) 
0.0

>  <rxn>  (1) 
rmg_rxn_1137

>  <species_type>  (1) 
r1

>  <species_folder>  (1) 
rmg_rxn_1137_r2_CC=NO

>  <frequencies_cm1_list>  (1) 
[249.23723218939998, 315.55170942463997, 336.7226251662, 578.3169026944399, 613.7024780483999, 921.034406045, 937.9889928000799, 1016.85631920028, 1095.7373795711198, 1152.23206779876, 1294.3031270842398, 1388.55936758656, 1450.34850149592, 1467.9211169298, 1474.25934438016, 1641.5322397900397, 2961.4904240297997, 3001.7240910196797, 3077.28153049564, 3094.5176636488395, 3628.274698601799]

>  <E0_kJmol>  (1) 
-548939

>  <H298_kJmol>  (1) 
-548924

$$$$

     RDKit          3D

  2  1  0  0  0  0  0  0  0  0999 V2000
   -0.0577   -0.0380    0.0000 O   0  0  0  0  0  1  0  0  0  1  0  0
    0.7436    0.4907   -0.0000 H   0  0  0  0  0  0  0  0  0  2  0  0
  1  2  1  0
M  RAD  1   1   2
M  END
>  <rmg_smiles>  (2) 
[OH]

>  <rmg_adjacency_list>  (2) 
multiplicity 2
1 O u1 p2 c0 {2,S}
2 H u0 p0 c0 {1,S}


>  <multiplicity>  (2) 
2

>  <reaction>  (2) 
rmg_rxn_1137

>  <type>  (2) 
r2h

>  <role_mapnums>  (2) 
{"r2h_a": 1, "r2h_h": 2}

>  <role_mapidx>  (2) 
{"r2h_a": 0, "r2h_h": 1}

>  <ordered_mapped_smiles>  (2) 
[O:1][H:2]

>  <mol_properties>  (2) 
{"0": {"label": "acceptor", "atom_type": "O2s"}, "1": {"label": "a_hydrogen", "atom_type": "H0"}}

>  <level_of_theory>  (2) 
wb97xd/def2tzvp

>  <lot_method>  (2) 
wb97xd

>  <lot_basis>  (2) 
def2tzvp

>  <spin_multiplicity>  (2) 
2.0

>  <optical_isomers>  (2) 
1.0

>  <modes>  (2) 
IdealGasTranslation(mass=(17.0027, 'amu')),         LinearRotor(inertia=(0.893962, 'amu*angstrom^2'), symmetry=1),         HarmonicOscillator(frequencies=([3724.63

>  <frequency_value>  (2) 
unknown

>  <frequency_units>  (2) 
unknown

>  <frequency_list>  (2) 
unknown

>  <arkane_path>  (2) 
/home/calvin/Dropbox/PersonalFolders/Calvin/ATLAS_Converged/rmg_rxn_1137/output/Species/rmg_rxn_1137_p1_sbr-OH-sbr/arkane/output.py

>  <path_exists>  (2) 
True

>  <E0_value>  (2) 
-198836.11500662245

>  <E0_units>  (2) 
kJ/mol

>  <thermo_class>  (2) 
NASA

>  <Cp0_value>  (2) 
29.100652

>  <Cp0_units>  (2) 
J/(mol*K)

>  <CpInf_value>  (2) 
37.415124

>  <CpInf_units>  (2) 
J/(mol*K)

>  <Tmin_value>  (2) 
10.0

>  <Tmin_units>  (2) 
K

>  <Tmax_value>  (2) 
3000.0

>  <Tmax_units>  (2) 
K

>  <polynomials>  (2) 
[{"name": "polynomial1", "class": "NASAPolynomial", "Tmin_value": 10.0, "Tmin_units": "K", "Tmax_value": 985.4633103339054, "Tmax_units": "K", "coeffs": [3.496867247333508, 0.00018342449890259614, -9.934008380455364e-07, 1.5607090885398485e-09, -6.057976047375529e-13, -23914460.713281557, 1.4723763541989374]}, {"name": "polynomial2", "class": "NASAPolynomial", "Tmin_value": 985.4633103339054, "Tmin_units": "K", "Tmax_value": 3000.0, "Tmax_units": "K", "coeffs": [3.453605826539838, -0.000298394996284096, 7.406626419620715e-07, -2.893423009710026e-10, 3.527332886378172e-14, -23914420.264604878, 1.842419488011591]}]

>  <H298_value>  (2) 
-47520.896675510776

>  <H298_units>  (2) 
kcal/mol

>  <S298_value>  (2) 
42.56095640204575

>  <S298_units>  (2) 
cal/(mol*K)

>  <Cp_T_value_list>  (2) 
[6.954667739233619, 6.946617902371048, 6.950166451559511, 6.9709205689453935, 7.072028097634187, 7.2370175778306685, 7.699521485448446, 8.086144468717986, 8.29478093025019]

>  <Cp_T_units>  (2) 
cal/(mol*K)

>  <T_list>  (2) 
[300.0, 400.0, 500.0, 600.0, 800.0, 1000.0, 1500.0, 2000.0, 2400.0]

>  <T_units>  (2) 
K

>  <yaml_path>  (2) 
/home/calvin/Dropbox/PersonalFolders/Calvin/ATLAS_Converged/rmg_rxn_1137/output/Species/rmg_rxn_1137_p1_sbr-OH-sbr/rmg_rxn_1137_p1_sbr-OH-sbr.yml

>  <frequencies_cm1>  (2) 
[3724.62536962672]

>  <ZPE_kJmol>  (2) 
22.278213462109388

>  <E_elec_kJmol>  (2) 
-198858.39322008457

>  <E0_minus_Eelec_plus_ZPE_kJmol>  (2) 
0.0

>  <rxn>  (2) 
rmg_rxn_1137

>  <species_type>  (2) 
p0

>  <species_folder>  (2) 
rmg_rxn_1137_p1_sbr-OH-sbr

>  <frequencies_cm1_list>  (2) 
[3724.62536962672]

>  <E0_kJmol>  (2) 
-198836

>  <H298_kJmol>  (2) 
-198827

$$$$

     RDKit          3D

 10  8  0  0  0  0  0  0  0  0999 V2000
   -2.8838   -0.5206    0.0000 O   0  0  0  0  0  1  0  0  0  1  0  0
    2.4868   -0.4204   -0.0000 C   0  0  0  0  0  0  0  0  0  2  0  0
    1.2206    0.3752   -0.0000 C   0  0  0  0  0  0  0  0  0  3  0  0
    0.0683   -0.2107   -0.0000 N   0  0  0  0  0  0  0  0  0  4  0  0
   -0.9340    0.7659   -0.0000 O   0  0  0  0  0  1  0  0  0  5  0  0
    3.0706   -0.1556   -0.8852 H   0  0  0  0  0  0  0  0  0  6  0  0
    3.0658   -0.1633    0.8906 H   0  0  0  0  0  0  0  0  0  7  0  0
    2.2766   -1.4926   -0.0052 H   0  0  0  0  0  0  0  0  0  8  0  0
    1.3186    1.4751   -0.0000 H   0  0  0  0  0  0  0  0  0  9  0  0
   -1.9112    0.1211    0.0000 H   0  0  0  0  0  0  0  0  0 10  0  0
  1 10  1  0
  2  7  1  0
  2  8  1  0
  2  6  1  0
  2  3  1  0
  3  4  1  0
  3  9  1  0
  4  5  1  0
M  RAD  2   1   2   5   2
M  END
>  <rmg_smiles>  (3) 
C[CH][N][O].[OH]

>  <rmg_adjacency_list>  (3) 
multiplicity 3
1  O u1 p2 c0 {3,S}
2  O u1 p2 c0 {10,S}
3  N u0 p1 c0 {1,S} {5,S}
4  C u0 p0 c0 {5,S} {6,S} {7,S} {8,S}
5  C u0 p0 c0 {3,S} {4,S} {9,S}
6  H u0 p0 c0 {4,S}
7  H u0 p0 c0 {4,S}
8  H u0 p0 c0 {4,S}
9  H u0 p0 c0 {5,S}
10 H u0 p0 c0 {2,S}


>  <multiplicity>  (3) 
3

>  <reaction>  (3) 
rmg_rxn_1137

>  <type>  (3) 
ts

>  <role_mapnums>  (3) 
{"*2": 10, "*1": 5, "*3": 1, "*0": null, "*4": 4}

>  <role_mapidx>  (3) 
{"*2": 9, "*1": 4, "*3": 0, "*4": 3}

>  <ordered_mapped_smiles>  (3) 
[O:1][H:10].[C:2]([CH:3]([NH:4][O:5])[H:9])([H:6])([H:7])[H:8]

>  <mol_properties>  (3) 
{"0": {"label": "*3", "atom_type": "O2s"}, "3": {"label": "*4", "atom_type": "N3s"}, "4": {"label": "*1", "atom_type": "O2s"}, "9": {"label": "*2", "atom_type": "H0"}}

>  <level_of_theory>  (3) 
wb97xd/def2tzvp

>  <lot_method>  (3) 
wb97xd

>  <lot_basis>  (3) 
def2tzvp

>  <spin_multiplicity>  (3) 
3.0

>  <optical_isomers>  (3) 
1.0

>  <modes>  (3) 
IdealGasTranslation(mass=(75.032, 'amu')),         NonlinearRotor(             inertia = ([24.2139, 269.58, 290.616

>  <frequency_value>  (3) 
-2617.57

>  <frequency_units>  (3) 
cm^-1

>  <frequency_list>  (3) 
unknown

>  <arkane_path>  (3) 
/home/calvin/Dropbox/PersonalFolders/Calvin/ATLAS_Converged/rmg_rxn_1137/output/rxns/TS0/arkane/output.py

>  <path_exists>  (3) 
True

>  <E0_value>  (3) 
-745995.0

>  <E0_units>  (3) 
kJ/mol

>  <thermo_class>  (3) 
unknown

>  <Cp0_value>  (3) 
unknown

>  <Cp0_units>  (3) 
unknown

>  <CpInf_value>  (3) 
unknown

>  <CpInf_units>  (3) 
unknown

>  <Tmin_value>  (3) 
unknown

>  <Tmin_units>  (3) 
unknown

>  <Tmax_value>  (3) 
unknown

>  <Tmax_units>  (3) 
unknown

>  <polynomials>  (3) 
unknown

>  <H298_value>  (3) 
unknown

>  <H298_units>  (3) 
unknown

>  <S298_value>  (3) 
unknown

>  <S298_units>  (3) 
unknown

>  <Cp_T_value_list>  (3) 
unknown

>  <Cp_T_units>  (3) 
unknown

>  <T_list>  (3) 
unknown

>  <T_units>  (3) 
unknown

>  <yaml_path>  (3) 
unknown

>  <frequencies_cm1>  (3) 
unknown

>  <ZPE_kJmol>  (3) 
unknown

>  <E_elec_kJmol>  (3) 
unknown

>  <E0_minus_Eelec_plus_ZPE_kJmol>  (3) 
unknown

>  <rxn>  (3) 
unknown

>  <species_type>  (3) 
unknown

>  <species_folder>  (3) 
unknown

>  <frequencies_cm1_list>  (3) 
[]

>  <ts_imag_freq_cm1>  (3) 
-2649.3673

>  <ts_freq_out_path>  (3) 
/home/calvin/Dropbox/PersonalFolders/Calvin/ATLAS_Converged/rmg_rxn_1137/output/rxns/TS0/geometry/freq.out

>  <E0_kJmol>  (3) 
-745995

>  <H298_kJmol>  (3) 
unknown

$$$$

     RDKit          3D

  8  7  0  0  0  0  0  0  0  0999 V2000
    1.7659   -0.0837    0.0000 C   0  0  0  0  0  0  0  0  0  1  0  0
    0.3394    0.3690    0.0000 C   0  0  0  0  0  0  0  0  0  2  0  0
   -0.6206   -0.4938    0.0000 N   0  0  0  0  0  0  0  0  0  3  0  0
   -1.8519    0.1033    0.0000 O   0  0  0  0  0  1  0  0  0  4  0  0
    2.2631    0.3151   -0.8879 H   0  0  0  0  0  0  0  0  0  5  0  0
    2.2631    0.3151    0.8879 H   0  0  0  0  0  0  0  0  0  6  0  0
    1.8326   -1.1743   -0.0000 H   0  0  0  0  0  0  0  0  0  7  0  0
    0.1687    1.4621    0.0000 H   0  0  0  0  0  0  0  0  0  8  0  0
  1  5  1  0
  1  7  1  0
  1  6  1  0
  1  2  1  0
  2  3  1  0
  2  8  1  0
  3  4  1  0
M  RAD  1   4   2
M  END
>  <rmg_smiles>  (4) 
C[CH][N][O]

>  <rmg_adjacency_list>  (4) 
multiplicity 2
1 O u1 p2 c0 {2,S}
2 N u0 p1 c0 {1,S} {4,S}
3 C u0 p0 c0 {4,S} {5,S} {6,S} {7,S}
4 C u0 p0 c0 {2,S} {3,S} {8,S}
5 H u0 p0 c0 {3,S}
6 H u0 p0 c0 {3,S}
7 H u0 p0 c0 {3,S}
8 H u0 p0 c0 {4,S}


>  <multiplicity>  (4) 
2

>  <reaction>  (4) 
rmg_rxn_1137

>  <type>  (4) 
r1

>  <role_mapnums>  (4) 
{}

>  <role_mapidx>  (4) 
{}

>  <ordered_mapped_smiles>  (4) 
[C:1]([CH:2]([NH:3][O:4])[H:8])([H:5])([H:6])[H:7]

>  <level_of_theory>  (4) 
wb97xd/def2tzvp

>  <lot_method>  (4) 
wb97xd

>  <lot_basis>  (4) 
def2tzvp

>  <spin_multiplicity>  (4) 
2.0

>  <optical_isomers>  (4) 
1.0

>  <modes>  (4) 
IdealGasTranslation(mass=(58.0293, 'amu')),         NonlinearRotor(             inertia = ([10.6204, 113.661, 121.103

>  <frequency_value>  (4) 
unknown

>  <frequency_units>  (4) 
unknown

>  <frequency_list>  (4) 
unknown

>  <arkane_path>  (4) 
/home/calvin/Dropbox/PersonalFolders/Calvin/ATLAS_Converged/rmg_rxn_1137/output/Species/rmg_rxn_1137_p2_CC=Nsbr-O-sbr/arkane/output.py

>  <path_exists>  (4) 
True

>  <E0_value>  (4) 
-547295.7995371256

>  <E0_units>  (4) 
kJ/mol

>  <thermo_class>  (4) 
NASA

>  <Cp0_value>  (4) 
33.257888

>  <Cp0_units>  (4) 
J/(mol*K)

>  <CpInf_value>  (4) 
182.918384

>  <CpInf_units>  (4) 
J/(mol*K)

>  <Tmin_value>  (4) 
10.0

>  <Tmin_units>  (4) 
K

>  <Tmax_value>  (4) 
3000.0

>  <Tmax_units>  (4) 
K

>  <polynomials>  (4) 
[{"name": "polynomial1", "class": "NASAPolynomial", "Tmin_value": 10.0, "Tmin_units": "K", "Tmax_value": 366.4529270255998, "Tmax_units": "K", "coeffs": [3.9751529449782597, 0.001722892236039436, 8.899855678159527e-05, -1.8781175703603594e-07, 1.310490685681517e-10, -65824480.53335469, 8.653934390949827]}, {"name": "polynomial2", "class": "NASAPolynomial", "Tmin_value": 366.4529270255998, "Tmin_units": "K", "Tmax_value": 3000.0, "Tmax_units": "K", "coeffs": [1.6053959218241927, 0.02760075693320137, -1.697176361198985e-05, 5.055037263879201e-09, -5.830488990540193e-13, -65824306.925604, 17.70668037131602]}]

>  <H298_value>  (4) 
-130803.3828938652

>  <H298_units>  (4) 
kcal/mol

>  <S298_value>  (4) 
68.2953825005497

>  <S298_units>  (4) 
cal/(mol*K)

>  <Cp_T_value_list>  (4) 
[16.87629306681226, 20.346635458106455, 23.366115725339437, 25.977439215734616, 30.152748687277924, 33.1990221897673, 37.61608802496304, 39.80647080628567, 40.98916683567418]

>  <Cp_T_units>  (4) 
cal/(mol*K)

>  <T_list>  (4) 
[300.0, 400.0, 500.0, 600.0, 800.0, 1000.0, 1500.0, 2000.0, 2400.0]

>  <T_units>  (4) 
K

>  <yaml_path>  (4) 
/home/calvin/Dropbox/PersonalFolders/Calvin/ATLAS_Converged/rmg_rxn_1137/output/Species/rmg_rxn_1137_p2_CC=Nsbr-O-sbr/rmg_rxn_1137_p2_CC=Nsbr-O-sbr.yml

>  <frequencies_cm1>  (4) 
[241.41573590992, 321.23070628428, 394.19242530927994, 512.80586274164, 721.7613590439199, 932.49540454408, 965.47753503604, 1077.51926751716, 1134.82426001256, 1346.04586147044, 1396.77228202928, 1460.99919572724, 1464.41208743128, 1611.7569914425198, 2945.74442669104, 3001.7652929316, 3078.2360414551194, 3095.2798990193596]

>  <ZPE_kJmol>  (4) 
153.73653775195262

>  <E_elec_kJmol>  (4) 
-547449.5360748776

>  <E0_minus_Eelec_plus_ZPE_kJmol>  (4) 
0.0

>  <rxn>  (4) 
rmg_rxn_1137

>  <species_type>  (4) 
p1

>  <species_folder>  (4) 
rmg_rxn_1137_p2_CC=Nsbr-O-sbr

>  <frequencies_cm1_list>  (4) 
[241.41573590992, 321.23070628428, 394.19242530927994, 512.80586274164, 721.7613590439199, 932.49540454408, 965.47753503604, 1077.51926751716, 1134.82426001256, 1346.04586147044, 1396.77228202928, 1460.99919572724, 1464.41208743128, 1611.7569914425198, 2945.74442669104, 3001.7652929316, 3078.2360414551194, 3095.2798990193596]

>  <E0_kJmol>  (4) 
-547296

>  <H298_kJmol>  (4) 
-547281

$$$$

     RDKit          3D

  1  0  0  0  0  0  0  0  0  0999 V2000
    0.0000    0.0000    0.0000 O   0  0  0  0  0 15  0  0  0  1  0  0
M  END
>  <rmg_smiles>  (5) 
[O]

>  <rmg_adjacency_list>  (5) 
multiplicity 3
1 O u2 p3 c0


>  <multiplicity>  (5) 
3

>  <reaction>  (5) 
rmg_rxn_1137

>  <type>  (5) 
r2

>  <role_mapnums>  (5) 
{}

>  <role_mapidx>  (5) 
{}

>  <ordered_mapped_smiles>  (5) 
[O:1]

>  <level_of_theory>  (5) 
wb97xd/def2tzvp

>  <lot_method>  (5) 
wb97xd

>  <lot_basis>  (5) 
def2tzvp

>  <spin_multiplicity>  (5) 
3.0

>  <optical_isomers>  (5) 
1.0

>  <modes>  (5) 
IdealGasTranslation(mass=(15.9994, 'amu')),

>  <frequency_value>  (5) 
unknown

>  <frequency_units>  (5) 
unknown

>  <frequency_list>  (5) 
unknown

>  <arkane_path>  (5) 
/home/calvin/Dropbox/PersonalFolders/Calvin/ATLAS_Converged/rmg_rxn_1137/output/Species/rmg_rxn_1137_r1_sbr-O-sbr/arkane/output.py

>  <path_exists>  (5) 
True

>  <E0_value>  (5) 
-197098.59938458708

>  <E0_units>  (5) 
kJ/mol

>  <thermo_class>  (5) 
NASA

>  <Cp0_value>  (5) 
20.78618

>  <Cp0_units>  (5) 
J/(mol*K)

>  <CpInf_value>  (5) 
20.78618

>  <CpInf_units>  (5) 
J/(mol*K)

>  <Tmin_value>  (5) 
10.0

>  <Tmin_units>  (5) 
K

>  <Tmax_value>  (5) 
3000.0

>  <Tmax_units>  (5) 
K

>  <polynomials>  (5) 
[{"name": "polynomial1", "class": "NASAPolynomial", "Tmin_value": 10.0, "Tmin_units": "K", "Tmax_value": 1853.5663026740365, "Tmax_units": "K", "coeffs": [2.500000000000126, -2.814048095438137e-15, 9.047587538332909e-18, -8.591944598242694e-21, 2.4182720553650057e-24, -23705485.977386568, 4.091313385047355]}, {"name": "polynomial2", "class": "NASAPolynomial", "Tmin_value": 1853.5663026740365, "Tmin_units": "K", "Tmax_value": 3000.0, "Tmax_units": "K", "coeffs": [2.500000000696122, -1.3129776766613561e-12, 9.140875080033424e-16, -2.782806647322001e-19, 3.1263265306749967e-23, -23705485.97738686, 4.091313381171202]}]

>  <H298_value>  (5) 
-47106.215373741215

>  <H298_units>  (5) 
kcal/mol

>  <S298_value>  (5) 
36.4335375885593

>  <S298_units>  (5) 
cal/(mol*K)

>  <Cp_T_value_list>  (5) 
[4.968016252389826, 4.968016252389978, 4.968016252390173, 4.96801625239036, 4.968016252390567, 4.968016252390427, 4.968016252389077, 4.968016252391019, 4.968016252390868]

>  <Cp_T_units>  (5) 
cal/(mol*K)

>  <T_list>  (5) 
[300.0, 400.0, 500.0, 600.0, 800.0, 1000.0, 1500.0, 2000.0, 2400.0]

>  <T_units>  (5) 
K

>  <yaml_path>  (5) 
/home/calvin/Dropbox/PersonalFolders/Calvin/ATLAS_Converged/rmg_rxn_1137/output/Species/rmg_rxn_1137_r1_sbr-O-sbr/rmg_rxn_1137_r1_sbr-O-sbr.yml

>  <frequencies_cm1>  (5) 
[]

>  <ZPE_kJmol>  (5) 
unknown

>  <E_elec_kJmol>  (5) 
unknown

>  <E0_minus_Eelec_plus_ZPE_kJmol>  (5) 
unknown

>  <rxn>  (5) 
rmg_rxn_1137

>  <species_type>  (5) 
r0

>  <species_folder>  (5) 
rmg_rxn_1137_r1_sbr-O-sbr

>  <frequencies_cm1_list>  (5) 
[]

>  <E0_kJmol>  (5) 
-197099

>  <H298_kJmol>  (5) 
-197092

$$$$
