
     RDKit          3D

  5  4  0  0  0  0  0  0  0  0999 V2000
    0.9238   -0.5461   -0.1642 N   0  0  0  0  0  0  0  0  0  1  0  0
   -0.2576   -0.2757    0.2490 N   0  0  0  0  0  0  0  0  0  2  0  0
   -0.7457    0.8030   -0.0009 O   0  0  0  0  0  0  0  0  0  3  0  0
    1.3016    0.0249   -0.9116 H   0  0  0  0  0  0  0  0  0  4  0  0
    1.1641   -1.5212   -0.0271 H   0  0  0  0  0  0  0  0  0  5  0  0
  1  5  1  0
  1  2  1  0
  1  4  1  0
  2  3  1  0
M  END
>  <rmg_smiles>  (1) 
N[N][O]

>  <rmg_adjacency_list>  (1) 
1 O u0 p2 c0 {3,S}
2 N u0 p1 c0 {3,S} {4,S} {5,S}
3 N u0 p1 c0 {1,S} {2,S}
4 H u0 p0 c0 {2,S}
5 H u0 p0 c0 {2,S}


>  <multiplicity>  (1) 
1

>  <reaction>  (1) 
rmg_rxn_1561

>  <type>  (1) 
r1h

>  <role_mapnums>  (1) 
{"r1h_a": 1, "r1h_h": 4}

>  <role_mapidx>  (1) 
{"r1h_a": 0, "r1h_h": 3}

>  <ordered_mapped_smiles>  (1) 
[N:1]([NH:2][OH:3])([H:4])[H:5]

>  <mol_properties>  (1) 
{"0": {"label": "donator", "atom_type": "N3s"}, "3": {"label": "d_hydrogen", "atom_type": "H0"}}

>  <level_of_theory>  (1) 
wb97xd/def2tzvp

>  <lot_method>  (1) 
wb97xd

>  <lot_basis>  (1) 
def2tzvp

>  <spin_multiplicity>  (1) 
1.0

>  <optical_isomers>  (1) 
1.0

>  <modes>  (1) 
IdealGasTranslation(mass=(46.0167, 'amu')),         NonlinearRotor(             inertia = ([6.03621, 38.6456, 44.6818

>  <frequency_value>  (1) 
unknown

>  <frequency_units>  (1) 
unknown

>  <frequency_list>  (1) 
unknown

>  <arkane_path>  (1) 
/home/calvin/Dropbox/PersonalFolders/Calvin/ATLAS_Converged/rmg_rxn_1561/output/Species/rmg_rxn_1561_r1_NN=O/arkane/output.py

>  <path_exists>  (1) 
True

>  <E0_value>  (1) 
-487909.5710036975

>  <E0_units>  (1) 
kJ/mol

>  <thermo_class>  (1) 
NASA

>  <Cp0_value>  (1) 
33.257888

>  <Cp0_units>  (1) 
J/(mol*K)

>  <CpInf_value>  (1) 
108.088136

>  <CpInf_units>  (1) 
J/(mol*K)

>  <Tmin_value>  (1) 
10.0

>  <Tmin_units>  (1) 
K

>  <Tmax_value>  (1) 
3000.0

>  <Tmax_units>  (1) 
K

>  <polynomials>  (1) 
[{"name": "polynomial1", "class": "NASAPolynomial", "Tmin_value": 10.0, "Tmin_units": "K", "Tmax_value": 491.3889412835894, "Tmax_units": "K", "coeffs": [3.982254985154104, 0.001109066907410209, 3.807622400219672e-05, -7.34801373598144e-08, 4.5205197130692525e-11, -58681966.3266894, 6.4941530339393]}, {"name": "polynomial2", "class": "NASAPolynomial", "Tmin_value": 491.3889412835894, "Tmin_units": "K", "Tmax_value": 3000.0, "Tmax_units": "K", "coeffs": [2.9404368052929843, 0.012865713030583807, -7.812149749761828e-06, 2.344037732853415e-09, -2.738787635374175e-13, -58681903.491322435, 10.377638282690032]}]

>  <H298_value>  (1) 
-116610.30707517578

>  <H298_units>  (1) 
kcal/mol

>  <S298_value>  (1) 
60.89503268429048

>  <S298_units>  (1) 
cal/(mol*K)

>  <Cp_T_value_list>  (1) 
[12.16971939315822, 13.855999712949458, 15.293825753682395, 16.530196084841165, 18.5231451978899, 19.99956230160783, 22.22945931121974, 23.436130825769936, 24.119725013813046]

>  <Cp_T_units>  (1) 
cal/(mol*K)

>  <T_list>  (1) 
[300.0, 400.0, 500.0, 600.0, 800.0, 1000.0, 1500.0, 2000.0, 2400.0]

>  <T_units>  (1) 
K

>  <yaml_path>  (1) 
/home/calvin/Dropbox/PersonalFolders/Calvin/ATLAS_Converged/rmg_rxn_1561/output/Species/rmg_rxn_1561_r1_NN=O/rmg_rxn_1561_r1_NN=O.yml

>  <frequencies_cm1>  (1) 
[224.96930606852, 638.8425113049199, 713.1638934232799, 1118.09628377304, 1228.5792105865198, 1578.89846668632, 1626.84375819056, 3477.7435134020793, 3702.4793419697194]

>  <ZPE_kJmol>  (1) 
85.59053717638125

>  <E_elec_kJmol>  (1) 
-487995.1615408739

>  <E0_minus_Eelec_plus_ZPE_kJmol>  (1) 
0.0

>  <rxn>  (1) 
rmg_rxn_1561

>  <species_type>  (1) 
r0

>  <species_folder>  (1) 
rmg_rxn_1561_r1_NN=O

>  <frequencies_cm1_list>  (1) 
[224.96930606852, 638.8425113049199, 713.1638934232799, 1118.09628377304, 1228.5792105865198, 1578.89846668632, 1626.84375819056, 3477.7435134020793, 3702.4793419697194]

>  <E0_kJmol>  (1) 
-487910

>  <H298_kJmol>  (1) 
-487898

$$$$

     RDKit          3D

 14 13  0  0  0  0  0  0  0  0999 V2000
    0.2325   -3.1763   -0.0605 H   0  0  0  0  0  0  0  0  0  1  0  0
    0.6019   -2.5528   -0.8765 C   0  0  0  0  0  0  0  0  0  2  0  0
    0.9896   -1.3524   -0.3729 O   0  0  0  0  0  0  0  0  0  3  0  0
   -0.0651   -0.4233   -0.1696 C   0  0  0  0  0  0  0  0  0  4  0  0
    0.5041    0.7644    0.5702 C   0  0  0  0  0  0  0  0  0  5  0  0
   -0.4642    1.9032    0.7136 C   0  0  0  0  0  0  0  0  0  6  0  0
   -1.5598    1.9344    0.2261 O   0  0  0  0  0  0  0  0  0  7  0  0
   -0.2342   -2.5095   -1.5802 H   0  0  0  0  0  0  0  0  0  8  0  0
    1.4648   -3.1055   -1.2448 H   0  0  0  0  0  0  0  0  0  9  0  0
   -0.8668   -0.9034    0.4019 H   0  0  0  0  0  0  0  0  0 10  0  0
   -0.4766   -0.1198   -1.1372 H   0  0  0  0  0  0  0  0  0 11  0  0
    0.8445    0.4766    1.5699 H   0  0  0  0  0  0  0  0  0 12  0  0
    1.3910    1.1519    0.0557 H   0  0  0  0  0  0  0  0  0 13  0  0
   -0.0904    2.7574    1.3149 H   0  0  0  0  0  0  0  0  0 14  0  0
  1  2  1  0
  2  9  1  0
  2  8  1  0
  2  3  1  0
  3  4  1  0
  4  5  1  0
  4 10  1  0
  4 11  1  0
  5 12  1  0
  5  6  1  0
  5 13  1  0
  6 14  1  0
  6  7  1  0
M  END
>  <rmg_smiles>  (2) 
COCC[CH]O

>  <rmg_adjacency_list>  (2) 
1  O u0 p2 c0 {4,S} {5,S}
2  O u0 p2 c0 {6,S}
3  C u0 p0 c0 {4,S} {6,S} {7,S} {8,S}
4  C u0 p0 c0 {1,S} {3,S} {9,S} {10,S}
5  C u0 p0 c0 {1,S} {11,S} {12,S} {13,S}
6  C u0 p0 c0 {2,S} {3,S} {14,S}
7  H u0 p0 c0 {3,S}
8  H u0 p0 c0 {3,S}
9  H u0 p0 c0 {4,S}
10 H u0 p0 c0 {4,S}
11 H u0 p0 c0 {5,S}
12 H u0 p0 c0 {5,S}
13 H u0 p0 c0 {5,S}
14 H u0 p0 c0 {6,S}


>  <multiplicity>  (2) 
1

>  <reaction>  (2) 
rmg_rxn_1561

>  <type>  (2) 
r2h

>  <role_mapnums>  (2) 
{"r2h_a": 2, "r2h_h": 1}

>  <role_mapidx>  (2) 
{"r2h_a": 1, "r2h_h": 0}

>  <ordered_mapped_smiles>  (2) 
[H:1][C:2]([O:3][C:4]([C:5]([CH:6]([OH:7])[H:14])([H:12])[H:13])([H:10])[H:11])([H:8])[H:9]

>  <mol_properties>  (2) 
{"0": {"label": "a_hydrogen", "atom_type": "H0"}, "1": {"label": "acceptor", "atom_type": "Cs"}}

>  <level_of_theory>  (2) 
wb97xd/def2tzvp

>  <lot_method>  (2) 
wb97xd

>  <lot_basis>  (2) 
def2tzvp

>  <spin_multiplicity>  (2) 
1.0

>  <optical_isomers>  (2) 
1.0

>  <modes>  (2) 
IdealGasTranslation(mass=(88.0524, 'amu')),         NonlinearRotor(             inertia = ([42.2252, 321.863, 354.694

>  <frequency_value>  (2) 
unknown

>  <frequency_units>  (2) 
unknown

>  <frequency_list>  (2) 
unknown

>  <arkane_path>  (2) 
/home/calvin/Dropbox/PersonalFolders/Calvin/ATLAS_Converged/rmg_rxn_1561/output/Species/rmg_rxn_1561_p2_COCCC=O/arkane/output.py

>  <path_exists>  (2) 
True

>  <E0_value>  (2) 
-807522.6100537918

>  <E0_units>  (2) 
kJ/mol

>  <thermo_class>  (2) 
NASA

>  <Cp0_value>  (2) 
33.257888

>  <Cp0_units>  (2) 
J/(mol*K)

>  <CpInf_value>  (2) 
332.57888

>  <CpInf_units>  (2) 
J/(mol*K)

>  <Tmin_value>  (2) 
10.0

>  <Tmin_units>  (2) 
K

>  <Tmax_value>  (2) 
3000.0

>  <Tmax_units>  (2) 
K

>  <polynomials>  (2) 
[{"name": "polynomial1", "class": "NASAPolynomial", "Tmin_value": 10.0, "Tmin_units": "K", "Tmax_value": 420.0019224515529, "Tmax_units": "K", "coeffs": [3.4815818573308563, 0.055151573920970684, -0.00018200775594588722, 4.7448423169783095e-07, -4.12494770279479e-10, -97122534.66875465, 10.742579172485241]}, {"name": "polynomial2", "class": "NASAPolynomial", "Tmin_value": 420.0019224515529, "Tmin_units": "K", "Tmax_value": 3000.0, "Tmax_units": "K", "coeffs": [-0.41942294309800837, 0.052523438745747025, -3.0549424334284136e-05, 8.564921267984354e-09, -9.313736988849626e-13, -97121856.11658393, 30.355526575601917]}]

>  <H298_value>  (2) 
-192997.32101247305

>  <H298_units>  (2) 
kcal/mol

>  <S298_value>  (2) 
84.06560586374722

>  <S298_units>  (2) 
cal/(mol*K)

>  <Cp_T_value_list>  (2) 
[26.064642848653246, 32.248576247546794, 38.18883221665576, 43.37309599828628, 51.769601860284695, 58.00285964605727, 67.2094310011681, 71.63312719026082, 73.87017579437332]

>  <Cp_T_units>  (2) 
cal/(mol*K)

>  <T_list>  (2) 
[300.0, 400.0, 500.0, 600.0, 800.0, 1000.0, 1500.0, 2000.0, 2400.0]

>  <T_units>  (2) 
K

>  <yaml_path>  (2) 
/home/calvin/Dropbox/PersonalFolders/Calvin/ATLAS_Converged/rmg_rxn_1561/output/Species/rmg_rxn_1561_p2_COCCC=O/rmg_rxn_1561_p2_COCCC=O.yml

>  <frequencies_cm1>  (2) 
[83.92142759571999, 101.70691957452, 147.16636239292, 174.02314197943997, 230.32555461812, 307.31819402595994, 439.28791790572, 677.99119461424, 694.39642254372, 892.9209681449199, 910.4661156375198, 1006.6107771028398, 1094.1579729475197, 1124.7435255628, 1176.4450580370801, 1178.51888760372, 1225.7912145465998, 1230.8727836834, 1298.89714026332, 1325.85692462964, 1408.7002355301197, 1418.6710982147597, 1449.29785274196, 1473.5383109215597, 1476.52544953576, 1492.4019195956, 1511.0732526806798, 1821.48159010064, 2872.5766981064403, 2954.7951133427996, 2967.9316562599597, 2997.0614079873994, 3007.2108122903596, 3014.4829497442397, 3050.8230360576795, 3104.4610583922]

>  <ZPE_kJmol>  (2) 
307.0961421103297

>  <E_elec_kJmol>  (2) 
-807829.7061959021

>  <E0_minus_Eelec_plus_ZPE_kJmol>  (2) 
0.0

>  <rxn>  (2) 
rmg_rxn_1561

>  <species_type>  (2) 
p1

>  <species_folder>  (2) 
rmg_rxn_1561_p2_COCCC=O

>  <frequencies_cm1_list>  (2) 
[83.92142759571999, 101.70691957452, 147.16636239292, 174.02314197943997, 230.32555461812, 307.31819402595994, 439.28791790572, 677.99119461424, 694.39642254372, 892.9209681449199, 910.4661156375198, 1006.6107771028398, 1094.1579729475197, 1124.7435255628, 1176.4450580370801, 1178.51888760372, 1225.7912145465998, 1230.8727836834, 1298.89714026332, 1325.85692462964, 1408.7002355301197, 1418.6710982147597, 1449.29785274196, 1473.5383109215597, 1476.52544953576, 1492.4019195956, 1511.0732526806798, 1821.48159010064, 2872.5766981064403, 2954.7951133427996, 2967.9316562599597, 2997.0614079873994, 3007.2108122903596, 3014.4829497442397, 3050.8230360576795, 3104.4610583922]

>  <E0_kJmol>  (2) 
-807523

>  <H298_kJmol>  (2) 
-807501

$$$$

     RDKit          3D

 18 16  0  0  0  0  0  0  0  0999 V2000
   -0.2036   -2.5163    0.9219 N   0  0  0  0  0  0  0  0  0  1  0  0
   -1.3849   -2.2458    1.3352 N   0  0  0  0  0  0  0  0  0  2  0  0
   -1.8731   -1.1672    1.0852 O   0  0  0  0  0  0  0  0  0  3  0  0
    0.2878   -1.7737   -0.0500 H   0  0  0  0  0  0  0  0  0  4  0  0
    0.0368   -3.4913    1.0590 H   0  0  0  0  0  0  0  0  0  5  0  0
    0.7379   -1.0139   -1.0443 C   0  0  0  0  0  3  0  0  0  6  0  0
    1.1256    0.1865   -0.5407 O   0  0  0  0  0  0  0  0  0  7  0  0
    0.0709    1.1156   -0.3374 C   0  0  0  0  0  0  0  0  0  8  0  0
    0.6401    2.3033    0.4024 C   0  0  0  0  0  0  0  0  0  9  0  0
   -0.3282    3.4421    0.5457 C   0  0  0  0  0  0  0  0  0 10  0  0
   -1.4238    3.4733    0.0583 O   0  0  0  0  0  0  0  0  0 11  0  0
   -0.0982   -0.9706   -1.7480 H   0  0  0  0  0  0  0  0  0 12  0  0
    1.6009   -1.5667   -1.4126 H   0  0  0  0  0  0  0  0  0 13  0  0
   -0.7307    0.6354    0.2340 H   0  0  0  0  0  0  0  0  0 14  0  0
   -0.3406    1.4190   -1.3051 H   0  0  0  0  0  0  0  0  0 15  0  0
    0.9805    2.0155    1.4020 H   0  0  0  0  0  0  0  0  0 16  0  0
    1.5270    2.6908   -0.1121 H   0  0  0  0  0  0  0  0  0 17  0  0
    0.0457    4.2962    1.1471 H   0  0  0  0  0  0  0  0  0 18  0  0
  1  5  1  0
  1  2  1  0
  1  4  1  0
  2  3  1  0
  6 13  1  0
  6  7  1  0
  6 12  1  0
  7  8  1  0
  8  9  1  0
  8 14  1  0
  8 15  1  0
  9 17  1  0
  9 10  1  0
  9 16  1  0
 10 11  1  0
 10 18  1  0
M  RAD  1   6   2
M  END
>  <rmg_smiles>  (3) 
[CH2]OCC[CH][O].N[N][O]

>  <rmg_adjacency_list>  (3) 
multiplicity 2
1  O u0 p2 c0 {7,S} {9,S}
2  O u0 p2 c0 {8,S}
3  O u0 p2 c0 {5,S}
4  N u0 p1 c0 {5,S} {15,S} {16,S}
5  N u0 p1 c0 {3,S} {4,S}
6  C u0 p0 c0 {7,S} {8,S} {10,S} {11,S}
7  C u0 p0 c0 {1,S} {6,S} {12,S} {13,S}
8  C u0 p0 c0 {2,S} {6,S} {14,S}
9  C u1 p0 c0 {1,S} {17,S} {18,S}
10 H u0 p0 c0 {6,S}
11 H u0 p0 c0 {6,S}
12 H u0 p0 c0 {7,S}
13 H u0 p0 c0 {7,S}
14 H u0 p0 c0 {8,S}
15 H u0 p0 c0 {4,S}
16 H u0 p0 c0 {4,S}
17 H u0 p0 c0 {9,S}
18 H u0 p0 c0 {9,S}


>  <multiplicity>  (3) 
2

>  <reaction>  (3) 
rmg_rxn_1561

>  <type>  (3) 
ts

>  <role_mapnums>  (3) 
{"*2": 4, "*1": 1, "*3": 6, "*0": 2, "*4": 7}

>  <role_mapidx>  (3) 
{"*2": 3, "*1": 0, "*3": 5, "*0": 1, "*4": 6}

>  <ordered_mapped_smiles>  (3) 
[N:1]([NH:2][OH:3])([H:4])[H:5].[C:6]([O:7][C:8]([C:9]([CH:10]([OH:11])[H:18])([H:16])[H:17])([H:14])[H:15])([H:12])[H:13]

>  <mol_properties>  (3) 
{"0": {"label": "*1", "atom_type": "N3s"}, "1": {"label": "*0", "atom_type": "N3s"}, "3": {"label": "*2", "atom_type": "H0"}, "5": {"label": "*3", "atom_type": "Cs"}, "6": {"label": "*4", "atom_type": "O2s"}}

>  <level_of_theory>  (3) 
wb97xd/def2tzvp

>  <lot_method>  (3) 
wb97xd

>  <lot_basis>  (3) 
def2tzvp

>  <spin_multiplicity>  (3) 
2.0

>  <optical_isomers>  (3) 
2.0

>  <modes>  (3) 
IdealGasTranslation(mass=(133.061, 'amu')),         NonlinearRotor(             inertia = ([218.357, 684.137, 834.716

>  <frequency_value>  (3) 
-1884.42

>  <frequency_units>  (3) 
cm^-1

>  <frequency_list>  (3) 
unknown

>  <arkane_path>  (3) 
/home/calvin/Dropbox/PersonalFolders/Calvin/ATLAS_Converged/rmg_rxn_1561/output/rxns/TS0/arkane/output.py

>  <path_exists>  (3) 
True

>  <E0_value>  (3) 
-1293690.0

>  <E0_units>  (3) 
kJ/mol

>  <thermo_class>  (3) 
unknown

>  <Cp0_value>  (3) 
unknown

>  <Cp0_units>  (3) 
unknown

>  <CpInf_value>  (3) 
unknown

>  <CpInf_units>  (3) 
unknown

>  <Tmin_value>  (3) 
unknown

>  <Tmin_units>  (3) 
unknown

>  <Tmax_value>  (3) 
unknown

>  <Tmax_units>  (3) 
unknown

>  <polynomials>  (3) 
unknown

>  <H298_value>  (3) 
unknown

>  <H298_units>  (3) 
unknown

>  <S298_value>  (3) 
unknown

>  <S298_units>  (3) 
unknown

>  <Cp_T_value_list>  (3) 
unknown

>  <Cp_T_units>  (3) 
unknown

>  <T_list>  (3) 
unknown

>  <T_units>  (3) 
unknown

>  <yaml_path>  (3) 
unknown

>  <frequencies_cm1>  (3) 
unknown

>  <ZPE_kJmol>  (3) 
unknown

>  <E_elec_kJmol>  (3) 
unknown

>  <E0_minus_Eelec_plus_ZPE_kJmol>  (3) 
unknown

>  <rxn>  (3) 
unknown

>  <species_type>  (3) 
unknown

>  <species_folder>  (3) 
unknown

>  <frequencies_cm1_list>  (3) 
[]

>  <ts_imag_freq_cm1>  (3) 
-1907.3027

>  <ts_freq_out_path>  (3) 
/home/calvin/Dropbox/PersonalFolders/Calvin/ATLAS_Converged/rmg_rxn_1561/output/rxns/TS0/geometry/freq.out

>  <E0_kJmol>  (3) 
-1.29369e+06

>  <H298_kJmol>  (3) 
unknown

$$$$

     RDKit          3D

  4  3  0  0  0  0  0  0  0  0999 V2000
   -0.8019    0.4189    0.0192 N   0  0  0  0  0  0  0  0  0  1  0  0
    0.3609    0.8266    0.0061 N   0  0  0  0  0  0  0  0  0  2  0  0
    0.8339    1.9183    0.0142 O   0  0  0  0  0  1  0  0  0  3  0  0
   -0.7779   -0.6002    0.0040 H   0  0  0  0  0  0  0  0  0  4  0  0
  1  2  1  0
  1  4  1  0
  2  3  1  0
M  RAD  1   3   2
M  END
>  <rmg_smiles>  (4) 
[NH][N][O]

>  <rmg_adjacency_list>  (4) 
multiplicity 2
1 O u1 p2 c0 {3,S}
2 N u0 p1 c0 {3,S} {4,S}
3 N u0 p1 c0 {1,S} {2,S}
4 H u0 p0 c0 {2,S}


>  <multiplicity>  (4) 
2

>  <reaction>  (4) 
rmg_rxn_1561

>  <type>  (4) 
r1

>  <role_mapnums>  (4) 
{}

>  <role_mapidx>  (4) 
{}

>  <ordered_mapped_smiles>  (4) 
[NH:1]([NH:2][O:3])[H:4]

>  <level_of_theory>  (4) 
wb97xd/def2tzvp

>  <lot_method>  (4) 
wb97xd

>  <lot_basis>  (4) 
def2tzvp

>  <spin_multiplicity>  (4) 
2.0

>  <optical_isomers>  (4) 
1.0

>  <modes>  (4) 
IdealGasTranslation(mass=(45.0089, 'amu')),         NonlinearRotor(             inertia = ([2.57086, 40.1656, 42.7365

>  <frequency_value>  (4) 
unknown

>  <frequency_units>  (4) 
unknown

>  <frequency_list>  (4) 
unknown

>  <arkane_path>  (4) 
/home/calvin/Dropbox/PersonalFolders/Calvin/ATLAS_Converged/rmg_rxn_1561/output/Species/rmg_rxn_1561_p1_sbr-NH-sbrN=O/arkane/output.py

>  <path_exists>  (4) 
True

>  <E0_value>  (4) 
-486262.5359899363

>  <E0_units>  (4) 
kJ/mol

>  <thermo_class>  (4) 
NASA

>  <Cp0_value>  (4) 
33.257888

>  <Cp0_units>  (4) 
J/(mol*K)

>  <CpInf_value>  (4) 
83.14472

>  <CpInf_units>  (4) 
J/(mol*K)

>  <Tmin_value>  (4) 
10.0

>  <Tmin_units>  (4) 
K

>  <Tmax_value>  (4) 
3000.0

>  <Tmax_units>  (4) 
K

>  <polynomials>  (4) 
[{"name": "polynomial1", "class": "NASAPolynomial", "Tmin_value": 10.0, "Tmin_units": "K", "Tmax_value": 676.9921071589606, "Tmax_units": "K", "coeffs": [4.052620261454503, -0.003954731767705262, 3.6687508557980155e-05, -5.192217441285821e-08, 2.3892499392073696e-11, -58483875.09093844, 6.697601255809246]}, {"name": "polynomial2", "class": "NASAPolynomial", "Tmin_value": 676.9921071589606, "Tmin_units": "K", "Tmax_value": 3000.0, "Tmax_units": "K", "coeffs": [2.568708180565944, 0.010096638421347922, -6.1528648012201994e-06, 1.7932353366274705e-09, -2.0078179070337678e-13, -58483795.25224596, 12.38349699742211]}]

>  <H298_value>  (4) 
-116217.0238123498

>  <H298_units>  (4) 
kcal/mol

>  <S298_value>  (4) 
59.269100903572784

>  <S298_units>  (4) 
cal/(mol*K)

>  <Cp_T_value_list>  (4) 
[9.855962067339554, 11.186696308389417, 12.420320683007862, 13.450531461225838, 14.991648229270968, 16.10618021062707, 17.69693128223604, 18.449026156308282, 18.8553435745084]

>  <Cp_T_units>  (4) 
cal/(mol*K)

>  <T_list>  (4) 
[300.0, 400.0, 500.0, 600.0, 800.0, 1000.0, 1500.0, 2000.0, 2400.0]

>  <T_units>  (4) 
K

>  <yaml_path>  (4) 
/home/calvin/Dropbox/PersonalFolders/Calvin/ATLAS_Converged/rmg_rxn_1561/output/Species/rmg_rxn_1561_p1_sbr-NH-sbrN=O/rmg_rxn_1561_p1_sbr-NH-sbrN=O.yml

>  <frequencies_cm1>  (4) 
[669.5654036266, 780.2955419115999, 1274.34766774432, 1377.4211173975198, 1744.5026846634398, 3450.4884486669994]

>  <ZPE_kJmol>  (4) 
55.6061572725318

>  <E_elec_kJmol>  (4) 
-486318.14214720886

>  <E0_minus_Eelec_plus_ZPE_kJmol>  (4) 
0.0

>  <rxn>  (4) 
rmg_rxn_1561

>  <species_type>  (4) 
p0

>  <species_folder>  (4) 
rmg_rxn_1561_p1_sbr-NH-sbrN=O

>  <frequencies_cm1_list>  (4) 
[669.5654036266, 780.2955419115999, 1274.34766774432, 1377.4211173975198, 1744.5026846634398, 3450.4884486669994]

>  <E0_kJmol>  (4) 
-486263

>  <H298_kJmol>  (4) 
-486252

$$$$

     RDKit          3D

 13 12  0  0  0  0  0  0  0  0999 V2000
    2.2389    0.7017    0.3130 C   0  0  0  0  0  3  0  0  0  1  0  0
    0.9433    0.8223   -0.0376 O   0  0  0  0  0  0  0  0  0  2  0  0
    0.4736    2.1521   -0.1615 C   0  0  0  0  0  0  0  0  0  3  0  0
   -0.9782    2.0920   -0.5770 C   0  0  0  0  0  0  0  0  0  4  0  0
   -1.6070    3.4420   -0.7601 C   0  0  0  0  0  0  0  0  0  5  0  0
   -1.0369    4.4869   -0.6064 O   0  0  0  0  0  0  0  0  0  6  0  0
    2.5950   -0.3170    0.3352 H   0  0  0  0  0  0  0  0  0  7  0  0
    2.9060    1.5360    0.1249 H   0  0  0  0  0  0  0  0  0  8  0  0
    1.0668    2.6899   -0.9083 H   0  0  0  0  0  0  0  0  0  9  0  0
    0.5827    2.6771    0.7919 H   0  0  0  0  0  0  0  0  0 10  0  0
   -1.0904    1.5380   -1.5153 H   0  0  0  0  0  0  0  0  0 11  0  0
   -1.5701    1.5405    0.1613 H   0  0  0  0  0  0  0  0  0 12  0  0
   -2.6749    3.4222   -1.0597 H   0  0  0  0  0  0  0  0  0 13  0  0
  1  8  1  0
  1  7  1  0
  1  2  1  0
  2  3  1  0
  3  4  1  0
  3  9  1  0
  3 10  1  0
  4  5  1  0
  4 12  1  0
  4 11  1  0
  5  6  1  0
  5 13  1  0
M  RAD  1   1   2
M  END
>  <rmg_smiles>  (5) 
[CH2]OCC[CH]O

>  <rmg_adjacency_list>  (5) 
multiplicity 2
1  O u0 p2 c0 {4,S} {6,S}
2  O u0 p2 c0 {5,S}
3  C u0 p0 c0 {4,S} {5,S} {7,S} {8,S}
4  C u0 p0 c0 {1,S} {3,S} {9,S} {10,S}
5  C u0 p0 c0 {2,S} {3,S} {11,S}
6  C u1 p0 c0 {1,S} {12,S} {13,S}
7  H u0 p0 c0 {3,S}
8  H u0 p0 c0 {3,S}
9  H u0 p0 c0 {4,S}
10 H u0 p0 c0 {4,S}
11 H u0 p0 c0 {5,S}
12 H u0 p0 c0 {6,S}
13 H u0 p0 c0 {6,S}


>  <multiplicity>  (5) 
2

>  <reaction>  (5) 
rmg_rxn_1561

>  <type>  (5) 
r2

>  <role_mapnums>  (5) 
{}

>  <role_mapidx>  (5) 
{}

>  <ordered_mapped_smiles>  (5) 
[C:1]([O:2][C:3]([C:4]([CH:5]([OH:6])[H:13])([H:11])[H:12])([H:9])[H:10])([H:7])[H:8]

>  <level_of_theory>  (5) 
wb97xd/def2tzvp

>  <lot_method>  (5) 
wb97xd

>  <lot_basis>  (5) 
def2tzvp

>  <spin_multiplicity>  (5) 
2.0

>  <optical_isomers>  (5) 
2.0

>  <modes>  (5) 
IdealGasTranslation(mass=(87.0446, 'amu')),         NonlinearRotor(             inertia = ([39.3973, 312.178, 345.105

>  <frequency_value>  (5) 
unknown

>  <frequency_units>  (5) 
unknown

>  <frequency_list>  (5) 
unknown

>  <arkane_path>  (5) 
/home/calvin/Dropbox/PersonalFolders/Calvin/ATLAS_Converged/rmg_rxn_1561/output/Species/rmg_rxn_1561_r2_sbr-CH2-sbrOCCC=O/arkane/output.py

>  <path_exists>  (5) 
True

>  <E0_value>  (5) 
-805813.0942219706

>  <E0_units>  (5) 
kJ/mol

>  <thermo_class>  (5) 
NASA

>  <Cp0_value>  (5) 
33.257888

>  <Cp0_units>  (5) 
J/(mol*K)

>  <CpInf_value>  (5) 
307.635464

>  <CpInf_units>  (5) 
J/(mol*K)

>  <Tmin_value>  (5) 
10.0

>  <Tmin_units>  (5) 
K

>  <Tmax_value>  (5) 
3000.0

>  <Tmax_units>  (5) 
K

>  <polynomials>  (5) 
[{"name": "polynomial1", "class": "NASAPolynomial", "Tmin_value": 10.0, "Tmin_units": "K", "Tmax_value": 414.6583286272444, "Tmax_units": "K", "coeffs": [3.5213955153033805, 0.04950404286745235, -0.0001162835276888271, 2.774339007469907e-07, -2.4024729419818314e-10, -96916927.6005055, 12.199171526820322]}, {"name": "polynomial2", "class": "NASAPolynomial", "Tmin_value": 414.6583286272444, "Tmin_units": "K", "Tmax_value": 3000.0, "Tmax_units": "K", "coeffs": [1.4929641498880108, 0.047115653256105276, -2.8220538080763198e-05, 8.158176786033852e-09, -9.127599307775052e-13, -96916570.62495346, 22.475574150730193]}]

>  <H298_value>  (5) 
-192588.6710645513

>  <H298_units>  (5) 
kcal/mol

>  <S298_value>  (5) 
87.08637821339352

>  <S298_units>  (5) 
cal/(mol*K)

>  <Cp_T_value_list>  (5) 
[26.731510611051675, 32.43734489698392, 37.674217693248984, 42.22184842456786, 49.53601539300777, 54.913463254006075, 62.76240565191949, 66.57812208990585, 68.58979288190817]

>  <Cp_T_units>  (5) 
cal/(mol*K)

>  <T_list>  (5) 
[300.0, 400.0, 500.0, 600.0, 800.0, 1000.0, 1500.0, 2000.0, 2400.0]

>  <T_units>  (5) 
K

>  <yaml_path>  (5) 
/home/calvin/Dropbox/PersonalFolders/Calvin/ATLAS_Converged/rmg_rxn_1561/output/Species/rmg_rxn_1561_r2_sbr-CH2-sbrOCCC=O/rmg_rxn_1561_r2_sbr-CH2-sbrOCCC=O.yml

>  <frequencies_cm1>  (5) 
[80.60467368615998, 88.38496805372, 151.38955836472002, 173.47378315383997, 276.47169596852, 308.33450785331996, 451.06479772951997, 539.39482990068, 678.3894797627999, 693.0024245237599, 889.8926276188, 911.8875815987599, 1010.22281138116, 1095.8472513362399, 1123.5074682051998, 1202.08638122196, 1221.6229544573598, 1296.50742937196, 1300.0576607823998, 1325.6028461728001, 1408.20581258708, 1416.80327820772, 1451.6738296626797, 1476.58725240364, 1502.1805066912798, 1822.3811651775598, 2879.2926097493996, 3002.54812925808, 3016.6323161493997, 3039.33456961732, 3059.7501169736797, 3097.4567333657997, 3244.59562781744]

>  <ZPE_kJmol>  (5) 
270.56658511886525

>  <E_elec_kJmol>  (5) 
-806083.6608070895

>  <E0_minus_Eelec_plus_ZPE_kJmol>  (5) 
0.0

>  <rxn>  (5) 
rmg_rxn_1561

>  <species_type>  (5) 
r1

>  <species_folder>  (5) 
rmg_rxn_1561_r2_sbr-CH2-sbrOCCC=O

>  <frequencies_cm1_list>  (5) 
[80.60467368615998, 88.38496805372, 151.38955836472002, 173.47378315383997, 276.47169596852, 308.33450785331996, 451.06479772951997, 539.39482990068, 678.3894797627999, 693.0024245237599, 889.8926276188, 911.8875815987599, 1010.22281138116, 1095.8472513362399, 1123.5074682051998, 1202.08638122196, 1221.6229544573598, 1296.50742937196, 1300.0576607823998, 1325.6028461728001, 1408.20581258708, 1416.80327820772, 1451.6738296626797, 1476.58725240364, 1502.1805066912798, 1822.3811651775598, 2879.2926097493996, 3002.54812925808, 3016.6323161493997, 3039.33456961732, 3059.7501169736797, 3097.4567333657997, 3244.59562781744]

>  <E0_kJmol>  (5) 
-805813

>  <H298_kJmol>  (5) 
-805791

$$$$
