
     RDKit          3D

  9  8  0  0  0  0  0  0  0  0999 V2000
   -0.2241   -1.2592    0.2429 C   0  0  0  0  0  0  0  0  0  1  0  0
    0.0307    0.2079    0.4875 C   0  0  0  0  0  0  0  0  0  2  0  0
    0.1119    0.9903   -0.6508 O   0  0  0  0  0  0  0  0  0  3  0  0
   -1.1744   -1.3986   -0.2776 H   0  0  0  0  0  0  0  0  0  4  0  0
    0.5708   -1.6883   -0.3712 H   0  0  0  0  0  0  0  0  0  5  0  0
   -0.2597   -1.8051    1.1873 H   0  0  0  0  0  0  0  0  0  6  0  0
    1.0091    0.2627    0.9663 H   0  0  0  0  0  0  0  0  0  7  0  0
   -0.6767    0.6692    1.1776 H   0  0  0  0  0  0  0  0  0  8  0  0
    0.9227    0.7529   -1.1169 H   0  0  0  0  0  0  0  0  0  9  0  0
  1  5  1  0
  1  4  1  0
  1  6  1  0
  1  2  1  0
  2  7  1  0
  2  8  1  0
  2  3  1  0
  3  9  1  0
M  END
>  <rmg_smiles>  (1) 
CCO

>  <rmg_adjacency_list>  (1) 
1 O u0 p2 c0 {2,S} {9,S}
2 C u0 p0 c0 {1,S} {3,S} {4,S} {5,S}
3 C u0 p0 c0 {2,S} {6,S} {7,S} {8,S}
4 H u0 p0 c0 {2,S}
5 H u0 p0 c0 {2,S}
6 H u0 p0 c0 {3,S}
7 H u0 p0 c0 {3,S}
8 H u0 p0 c0 {3,S}
9 H u0 p0 c0 {1,S}


>  <multiplicity>  (1) 
1

>  <reaction>  (1) 
rmg_rxn_15496

>  <type>  (1) 
r1h

>  <role_mapnums>  (1) 
{"r1h_a": 2, "r1h_h": 7}

>  <role_mapidx>  (1) 
{"r1h_a": 1, "r1h_h": 6}

>  <ordered_mapped_smiles>  (1) 
[C:1]([C:2]([O:3][H:9])([H:7])[H:8])([H:4])([H:5])[H:6]

>  <mol_properties>  (1) 
{"1": {"label": "donator", "atom_type": "Cs"}, "6": {"label": "d_hydrogen", "atom_type": "H0"}}

>  <level_of_theory>  (1) 
wb97xd/def2tzvp

>  <lot_method>  (1) 
wb97xd

>  <lot_basis>  (1) 
def2tzvp

>  <spin_multiplicity>  (1) 
1.0

>  <optical_isomers>  (1) 
2.0

>  <modes>  (1) 
IdealGasTranslation(mass=(46.0419, 'amu')),         NonlinearRotor(             inertia = ([14.5784, 54.5856, 61.8154

>  <frequency_value>  (1) 
unknown

>  <frequency_units>  (1) 
unknown

>  <frequency_list>  (1) 
unknown

>  <arkane_path>  (1) 
/home/calvin/Dropbox/PersonalFolders/Calvin/ZEUS_Converged/rmg_rxn_15496/output/Species/rmg_rxn_15496_r2_CCO/arkane/output.py

>  <path_exists>  (1) 
True

>  <E0_value>  (1) 
-406893.3272689957

>  <E0_units>  (1) 
kJ/mol

>  <thermo_class>  (1) 
NASA

>  <Cp0_value>  (1) 
33.257888

>  <Cp0_units>  (1) 
J/(mol*K)

>  <CpInf_value>  (1) 
207.8618

>  <CpInf_units>  (1) 
J/(mol*K)

>  <Tmin_value>  (1) 
10.0

>  <Tmin_units>  (1) 
K

>  <Tmax_value>  (1) 
3000.0

>  <Tmax_units>  (1) 
K

>  <polynomials>  (1) 
[{"name": "polynomial1", "class": "NASAPolynomial", "Tmin_value": 10.0, "Tmin_units": "K", "Tmax_value": 551.3187644177538, "Tmax_units": "K", "coeffs": [3.9713940621371306, 0.0023957688295192063, 5.809032256050214e-05, -8.561591068586481e-08, 4.0358423418077714e-11, -48937962.79914544, 7.862489799764338]}, {"name": "polynomial2", "class": "NASAPolynomial", "Tmin_value": 551.3187644177538, "Tmin_units": "K", "Tmax_value": 3000.0, "Tmax_units": "K", "coeffs": [0.19952339087951126, 0.02976190624661279, -1.6365982652687387e-05, 4.418171321701085e-09, -4.682193007149357e-13, -48937546.89804419, 23.81365918801819]}]

>  <H298_value>  (1) 
-97246.55405342489

>  <H298_units>  (1) 
kcal/mol

>  <S298_value>  (1) 
65.78744884704368

>  <S298_units>  (1) 
cal/(mol*K)

>  <Cp_T_value_list>  (1) 
[15.765557190227591, 19.430727429073556, 22.877261252275424, 25.95004969734455, 31.01063681206419, 34.86633096617534, 40.85674665583515, 43.94362801037231, 45.51188954534454]

>  <Cp_T_units>  (1) 
cal/(mol*K)

>  <T_list>  (1) 
[300.0, 400.0, 500.0, 600.0, 800.0, 1000.0, 1500.0, 2000.0, 2400.0]

>  <T_units>  (1) 
K

>  <yaml_path>  (1) 
/home/calvin/Dropbox/PersonalFolders/Calvin/ZEUS_Converged/rmg_rxn_15496/output/Species/rmg_rxn_15496_r2_CCO/rmg_rxn_15496_r2_CCO.yml

>  <frequencies_cm1>  (1) 
[261.26819047004, 286.81337586044, 426.24064579772, 804.5016651646, 891.82911747904, 1059.86424825944, 1088.932197119, 1140.44145400432, 1273.9562495810799, 1364.90260315916, 1391.5053042888399, 1416.6247365893998, 1475.59153953224, 1480.8997191846001, 1506.73331795844, 2975.9454281283997, 3008.37133280944, 3061.6454049219997, 3084.9794210393593, 3098.7957955031998, 3839.53063498628]

>  <ZPE_kJmol>  (1) 
208.9839162086533

>  <E_elec_kJmol>  (1) 
-407102.3111852043

>  <E0_minus_Eelec_plus_ZPE_kJmol>  (1) 
0.0

>  <rxn>  (1) 
rmg_rxn_15496

>  <species_type>  (1) 
r1

>  <species_folder>  (1) 
rmg_rxn_15496_r2_CCO

>  <frequencies_cm1_list>  (1) 
[261.26819047004, 286.81337586044, 426.24064579772, 804.5016651646, 891.82911747904, 1059.86424825944, 1088.932197119, 1140.44145400432, 1273.9562495810799, 1364.90260315916, 1391.5053042888399, 1416.6247365893998, 1475.59153953224, 1480.8997191846001, 1506.73331795844, 2975.9454281283997, 3008.37133280944, 3061.6454049219997, 3084.9794210393593, 3098.7957955031998, 3839.53063498628]

>  <E0_kJmol>  (1) 
-406893

>  <H298_kJmol>  (1) 
-406880

$$$$

     RDKit          3D

  6  5  0  0  0  0  0  0  0  0999 V2000
    0.9984    0.0622   -0.4796 O   0  0  0  0  0  0  0  0  0  1  0  0
   -0.3904    0.0066   -0.2980 N   0  0  0  0  0  0  0  0  0  2  0  0
   -0.7648   -0.0825    0.8841 C   0  0  0  0  0  0  0  0  0  3  0  0
    1.0896    0.1446   -1.4318 H   0  0  0  0  0  0  0  0  0  4  0  0
   -0.1457   -0.1221    1.7800 H   0  0  0  0  0  0  0  0  0  5  0  0
   -1.8542   -0.1092    0.8794 H   0  0  0  0  0  0  0  0  0  6  0  0
  1  4  1  0
  1  2  1  0
  2  3  1  0
  3  6  1  0
  3  5  1  0
M  END
>  <rmg_smiles>  (2) 
[CH2][N]O

>  <rmg_adjacency_list>  (2) 
1 O u0 p2 c0 {2,S} {6,S}
2 N u0 p1 c0 {1,S} {3,S}
3 C u0 p0 c0 {2,S} {4,S} {5,S}
4 H u0 p0 c0 {3,S}
5 H u0 p0 c0 {3,S}
6 H u0 p0 c0 {1,S}


>  <multiplicity>  (2) 
1

>  <reaction>  (2) 
rmg_rxn_15496

>  <type>  (2) 
r2h

>  <role_mapnums>  (2) 
{"r2h_a": 3, "r2h_h": 6}

>  <role_mapidx>  (2) 
{"r2h_a": 2, "r2h_h": 5}

>  <ordered_mapped_smiles>  (2) 
[O:1]([NH:2][CH:3]([H:5])[H:6])[H:4]

>  <mol_properties>  (2) 
{"2": {"label": "acceptor", "atom_type": "Cs"}, "5": {"label": "a_hydrogen", "atom_type": "H0"}}

>  <level_of_theory>  (2) 
wb97xd/def2tzvp

>  <lot_method>  (2) 
wb97xd

>  <lot_basis>  (2) 
def2tzvp

>  <spin_multiplicity>  (2) 
1.0

>  <optical_isomers>  (2) 
1.0

>  <modes>  (2) 
IdealGasTranslation(mass=(45.0215, 'amu')),         NonlinearRotor(             inertia = ([7.10552, 42.1368, 49.2423

>  <frequency_value>  (2) 
unknown

>  <frequency_units>  (2) 
unknown

>  <frequency_list>  (2) 
unknown

>  <arkane_path>  (2) 
/home/calvin/Dropbox/PersonalFolders/Calvin/ZEUS_Converged/rmg_rxn_15496/output/Species/rmg_rxn_15496_p1_ON=C/arkane/output.py

>  <path_exists>  (2) 
True

>  <E0_value>  (2) 
-445765.04652910994

>  <E0_units>  (2) 
kJ/mol

>  <thermo_class>  (2) 
NASA

>  <Cp0_value>  (2) 
33.257888

>  <Cp0_units>  (2) 
J/(mol*K)

>  <CpInf_value>  (2) 
133.031552

>  <CpInf_units>  (2) 
J/(mol*K)

>  <Tmin_value>  (2) 
10.0

>  <Tmin_units>  (2) 
K

>  <Tmax_value>  (2) 
3000.0

>  <Tmax_units>  (2) 
K

>  <polynomials>  (2) 
[{"name": "polynomial1", "class": "NASAPolynomial", "Tmin_value": 10.0, "Tmin_units": "K", "Tmax_value": 555.0008285415723, "Tmax_units": "K", "coeffs": [4.0729558966761115, -0.006525504673073184, 8.044401869233928e-05, -1.3643340673050255e-07, 7.605604608176978e-11, -53613151.050707266, 6.598063650688069]}, {"name": "polynomial2", "class": "NASAPolynomial", "Tmin_value": 555.0008285415723, "Tmin_units": "K", "Tmax_value": 3000.0, "Tmax_units": "K", "coeffs": [1.9629419554542669, 0.01794293278685335, -1.0716899102514014e-05, 3.1351804200574135e-09, -3.5588210478784073e-13, -53613059.472560614, 14.250328412630774]}]

>  <H298_value>  (2) 
-106537.6194767193

>  <H298_units>  (2) 
kcal/mol

>  <S298_value>  (2) 
60.36296822828259

>  <S298_units>  (2) 
cal/(mol*K)

>  <Cp_T_value_list>  (2) 
[12.494795700177992, 15.001608210431446, 17.130783734283074, 18.881829280437152, 21.69615330289245, 23.7834318087242, 26.9145239767162, 28.553257692891545, 29.47039525924992]

>  <Cp_T_units>  (2) 
cal/(mol*K)

>  <T_list>  (2) 
[300.0, 400.0, 500.0, 600.0, 800.0, 1000.0, 1500.0, 2000.0, 2400.0]

>  <T_units>  (2) 
K

>  <yaml_path>  (2) 
/home/calvin/Dropbox/PersonalFolders/Calvin/ZEUS_Converged/rmg_rxn_15496/output/Species/rmg_rxn_15496_p1_ON=C/rmg_rxn_15496_p1_ON=C.yml

>  <frequencies_cm1>  (2) 
[438.20980121048, 539.7244451960399, 801.7205361099999, 965.59427378648, 986.4836431299199, 1183.2914424011199, 1353.5034075279598, 1444.4016922088, 1728.97643085492, 3083.6403589019596, 3214.03754314344, 3841.1169085952]

>  <ZPE_kJmol>  (2) 
117.11863122037906

>  <E_elec_kJmol>  (2) 
-445882.1651603303

>  <E0_minus_Eelec_plus_ZPE_kJmol>  (2) 
0.0

>  <rxn>  (2) 
rmg_rxn_15496

>  <species_type>  (2) 
p0

>  <species_folder>  (2) 
rmg_rxn_15496_p1_ON=C

>  <frequencies_cm1_list>  (2) 
[438.20980121048, 539.7244451960399, 801.7205361099999, 965.59427378648, 986.4836431299199, 1183.2914424011199, 1353.5034075279598, 1444.4016922088, 1728.97643085492, 3083.6403589019596, 3214.03754314344, 3841.1169085952]

>  <E0_kJmol>  (2) 
-445765

>  <H298_kJmol>  (2) 
-445753

$$$$

     RDKit          3D

 14 12  0  0  0  0  0  0  0  0999 V2000
    2.7155    0.2953   -0.4771 O   0  0  0  0  0  0  0  0  0  1  0  0
    1.3268    0.2396   -0.2955 N   0  0  0  0  0  0  0  0  0  2  0  0
    0.9523    0.1506    0.8866 C   0  0  0  0  0  3  0  0  0  3  0  0
    2.8067    0.3777   -1.4293 H   0  0  0  0  0  0  0  0  0  4  0  0
    1.5714    0.1110    1.7826 H   0  0  0  0  0  0  0  0  0  5  0  0
   -1.9100   -1.4155    0.0902 C   0  0  0  0  0  0  0  0  0  6  0  0
   -1.6551    0.0516    0.3349 C   0  0  0  0  0  0  0  0  0  7  0  0
   -1.5740    0.8340   -0.8034 O   0  0  0  0  0  0  0  0  0  8  0  0
   -2.8603   -1.5549   -0.4303 H   0  0  0  0  0  0  0  0  0  9  0  0
   -1.1150   -1.8446   -0.5239 H   0  0  0  0  0  0  0  0  0 10  0  0
   -1.9455   -1.9614    1.0346 H   0  0  0  0  0  0  0  0  0 11  0  0
   -0.5411    0.1140    0.8801 H   0  0  0  0  0  0  0  0  0 12  0  0
   -2.3626    0.5129    1.0250 H   0  0  0  0  0  0  0  0  0 13  0  0
   -0.7631    0.5966   -1.2695 H   0  0  0  0  0  0  0  0  0 14  0  0
  1  4  1  0
  1  2  1  0
  2  3  1  0
  3  5  1  0
  6  9  1  0
  6  7  1  0
  6 11  1  0
  6 10  1  0
  7 13  1  0
  7 12  1  0
  7  8  1  0
  8 14  1  0
M  RAD  1   3   2
M  END
>  <rmg_smiles>  (3) 
[CH][N]O.CCO

>  <rmg_adjacency_list>  (3) 
multiplicity 2
1  O u0 p2 c0 {4,S} {12,S}
2  O u0 p2 c0 {3,S} {13,S}
3  N u0 p1 c0 {2,S} {6,S}
4  C u0 p0 c0 {1,S} {5,S} {7,S} {8,S}
5  C u0 p0 c0 {4,S} {9,S} {10,S} {11,S}
6  C u1 p1 c0 {3,S} {14,S}
7  H u0 p0 c0 {4,S}
8  H u0 p0 c0 {4,S}
9  H u0 p0 c0 {5,S}
10 H u0 p0 c0 {5,S}
11 H u0 p0 c0 {5,S}
12 H u0 p0 c0 {1,S}
13 H u0 p0 c0 {2,S}
14 H u0 p0 c0 {6,S}


>  <multiplicity>  (3) 
2

>  <reaction>  (3) 
rmg_rxn_15496

>  <type>  (3) 
ts

>  <role_mapnums>  (3) 
{"*2": 12, "*1": 7, "*3": 3, "*0": 8, "*4": 2}

>  <role_mapidx>  (3) 
{"*2": 11, "*1": 6, "*3": 2, "*0": 7, "*4": 1}

>  <ordered_mapped_smiles>  (3) 
[O:1]([NH:2][CH:3][H:5])[H:4].[C:6]([C:7]([O:8][H:14])([H:12])[H:13])([H:9])([H:10])[H:11]

>  <mol_properties>  (3) 
{"1": {"label": "*4", "atom_type": "N3s"}, "2": {"label": "*3", "atom_type": "C2s"}, "6": {"label": "*1", "atom_type": "Cs"}, "7": {"label": "*0", "atom_type": "O2s"}, "11": {"label": "*2", "atom_type": "H0"}}

>  <level_of_theory>  (3) 
wb97xd/def2tzvp

>  <lot_method>  (3) 
wb97xd

>  <lot_basis>  (3) 
def2tzvp

>  <spin_multiplicity>  (3) 
2.0

>  <optical_isomers>  (3) 
2.0

>  <modes>  (3) 
IdealGasTranslation(mass=(90.0555, 'amu')),         NonlinearRotor(             inertia = ([77.3884, 331.703, 358.422

>  <frequency_value>  (3) 
-1221.78

>  <frequency_units>  (3) 
cm^-1

>  <frequency_list>  (3) 
unknown

>  <arkane_path>  (3) 
/home/calvin/Dropbox/PersonalFolders/Calvin/ZEUS_Converged/rmg_rxn_15496/output/rxns/TS0/arkane/output.py

>  <path_exists>  (3) 
True

>  <E0_value>  (3) 
-850884.0

>  <E0_units>  (3) 
kJ/mol

>  <thermo_class>  (3) 
unknown

>  <Cp0_value>  (3) 
unknown

>  <Cp0_units>  (3) 
unknown

>  <CpInf_value>  (3) 
unknown

>  <CpInf_units>  (3) 
unknown

>  <Tmin_value>  (3) 
unknown

>  <Tmin_units>  (3) 
unknown

>  <Tmax_value>  (3) 
unknown

>  <Tmax_units>  (3) 
unknown

>  <polynomials>  (3) 
unknown

>  <H298_value>  (3) 
unknown

>  <H298_units>  (3) 
unknown

>  <S298_value>  (3) 
unknown

>  <S298_units>  (3) 
unknown

>  <Cp_T_value_list>  (3) 
unknown

>  <Cp_T_units>  (3) 
unknown

>  <T_list>  (3) 
unknown

>  <T_units>  (3) 
unknown

>  <yaml_path>  (3) 
unknown

>  <frequencies_cm1>  (3) 
unknown

>  <ZPE_kJmol>  (3) 
unknown

>  <E_elec_kJmol>  (3) 
unknown

>  <E0_minus_Eelec_plus_ZPE_kJmol>  (3) 
unknown

>  <rxn>  (3) 
unknown

>  <species_type>  (3) 
unknown

>  <species_folder>  (3) 
unknown

>  <frequencies_cm1_list>  (3) 
[]

>  <ts_imag_freq_cm1>  (3) 
-1236.6153

>  <ts_freq_out_path>  (3) 
/home/calvin/Dropbox/PersonalFolders/Calvin/ZEUS_Converged/rmg_rxn_15496/output/rxns/TS0/geometry/freq.out

>  <E0_kJmol>  (3) 
-850884

>  <H298_kJmol>  (3) 
unknown

$$$$

     RDKit          3D

  8  7  0  0  0  0  0  0  0  0999 V2000
   -0.9179    0.2391    0.1982 C   0  0  0  0  0  0  0  0  0  1  0  0
    0.4678   -0.2407    0.0057 C   0  0  0  0  0  3  0  0  0  2  0  0
    0.5690   -1.5483   -0.3772 O   0  0  0  0  0  0  0  0  0  3  0  0
   -1.4185   -0.2635    1.0380 H   0  0  0  0  0  0  0  0  0  4  0  0
   -0.9217    1.3106    0.3990 H   0  0  0  0  0  0  0  0  0  5  0  0
   -1.5211    0.0525   -0.6941 H   0  0  0  0  0  0  0  0  0  6  0  0
    1.2867    0.1607    0.5960 H   0  0  0  0  0  0  0  0  0  7  0  0
    1.4925   -1.7959   -0.4346 H   0  0  0  0  0  0  0  0  0  8  0  0
  1  5  1  0
  1  4  1  0
  1  6  1  0
  1  2  1  0
  2  7  1  0
  2  3  1  0
  3  8  1  0
M  RAD  1   2   2
M  END
>  <rmg_smiles>  (4) 
C[CH]O

>  <rmg_adjacency_list>  (4) 
multiplicity 2
1 O u0 p2 c0 {3,S} {8,S}
2 C u0 p0 c0 {3,S} {4,S} {5,S} {6,S}
3 C u1 p0 c0 {1,S} {2,S} {7,S}
4 H u0 p0 c0 {2,S}
5 H u0 p0 c0 {2,S}
6 H u0 p0 c0 {2,S}
7 H u0 p0 c0 {3,S}
8 H u0 p0 c0 {1,S}


>  <multiplicity>  (4) 
2

>  <reaction>  (4) 
rmg_rxn_15496

>  <type>  (4) 
r1

>  <role_mapnums>  (4) 
{}

>  <role_mapidx>  (4) 
{}

>  <ordered_mapped_smiles>  (4) 
[C:1]([C:2]([O:3][H:8])[H:7])([H:4])([H:5])[H:6]

>  <level_of_theory>  (4) 
wb97xd/def2tzvp

>  <lot_method>  (4) 
wb97xd

>  <lot_basis>  (4) 
def2tzvp

>  <spin_multiplicity>  (4) 
2.0

>  <optical_isomers>  (4) 
2.0

>  <modes>  (4) 
IdealGasTranslation(mass=(45.034, 'amu')),         NonlinearRotor(             inertia = ([10.8338, 53.2179, 60.5982

>  <frequency_value>  (4) 
unknown

>  <frequency_units>  (4) 
unknown

>  <frequency_list>  (4) 
unknown

>  <arkane_path>  (4) 
/home/calvin/Dropbox/PersonalFolders/Calvin/ZEUS_Converged/rmg_rxn_15496/output/Species/rmg_rxn_15496_p2_Csbr-CH-sbrO/arkane/output.py

>  <path_exists>  (4) 
True

>  <E0_value>  (4) 
-405194.8000162545

>  <E0_units>  (4) 
kJ/mol

>  <thermo_class>  (4) 
NASA

>  <Cp0_value>  (4) 
33.257888

>  <Cp0_units>  (4) 
J/(mol*K)

>  <CpInf_value>  (4) 
182.918384

>  <CpInf_units>  (4) 
J/(mol*K)

>  <Tmin_value>  (4) 
10.0

>  <Tmin_units>  (4) 
K

>  <Tmax_value>  (4) 
3000.0

>  <Tmax_units>  (4) 
K

>  <polynomials>  (4) 
[{"name": "polynomial1", "class": "NASAPolynomial", "Tmin_value": 10.0, "Tmin_units": "K", "Tmax_value": 399.2865433149553, "Tmax_units": "K", "coeffs": [3.943839647090331, 0.0040029715203587874, 6.200290875456476e-05, -1.2212092072707224e-07, 7.834511708431171e-11, -48733676.15854827, 8.433363716719372]}, {"name": "polynomial2", "class": "NASAPolynomial", "Tmin_value": 399.2865433149553, "Tmin_units": "K", "Tmax_value": 3000.0, "Tmax_units": "K", "coeffs": [1.9426743057438944, 0.02405051330925395, -1.3310195713217205e-05, 3.626027625575596e-09, -3.876701796208826e-13, -48733516.351914, 16.250594827794952]}]

>  <H298_value>  (4) 
-96840.50777272848

>  <H298_units>  (4) 
kcal/mol

>  <S298_value>  (4) 
67.41584770758325

>  <S298_units>  (4) 
cal/(mol*K)

>  <Cp_T_value_list>  (4) 
[16.021501631989707, 19.18725323429988, 21.997195761729, 24.471040613082454, 28.54084824894239, 31.639008927811634, 36.45682718287369, 38.96597215017236, 40.263622928210694]

>  <Cp_T_units>  (4) 
cal/(mol*K)

>  <T_list>  (4) 
[300.0, 400.0, 500.0, 600.0, 800.0, 1000.0, 1500.0, 2000.0, 2400.0]

>  <T_units>  (4) 
K

>  <yaml_path>  (4) 
/home/calvin/Dropbox/PersonalFolders/Calvin/ZEUS_Converged/rmg_rxn_15496/output/Species/rmg_rxn_15496_p2_Csbr-CH-sbrO/rmg_rxn_15496_p2_Csbr-CH-sbrO.yml

>  <frequencies_cm1>  (4) 
[178.27380589252002, 359.24633701579995, 410.21996904616, 560.5520116716, 930.3872400508399, 1013.14128014216, 1057.07625221952, 1218.6495498138, 1274.169126126, 1382.02886454724, 1444.1819486785598, 1454.19401327512, 1476.1477653431598, 2951.5607632570795, 3038.31138880464, 3095.78805593304, 3116.8490999094797, 3859.56849815004]

>  <ZPE_kJmol>  (4) 
172.38399996000294

>  <E_elec_kJmol>  (4) 
-405367.1840162145

>  <E0_minus_Eelec_plus_ZPE_kJmol>  (4) 
0.0

>  <rxn>  (4) 
rmg_rxn_15496

>  <species_type>  (4) 
p1

>  <species_folder>  (4) 
rmg_rxn_15496_p2_Csbr-CH-sbrO

>  <frequencies_cm1_list>  (4) 
[178.27380589252002, 359.24633701579995, 410.21996904616, 560.5520116716, 930.3872400508399, 1013.14128014216, 1057.07625221952, 1218.6495498138, 1274.169126126, 1382.02886454724, 1444.1819486785598, 1454.19401327512, 1476.1477653431598, 2951.5607632570795, 3038.31138880464, 3095.78805593304, 3116.8490999094797, 3859.56849815004]

>  <E0_kJmol>  (4) 
-405195

>  <H298_kJmol>  (4) 
-405181

$$$$

     RDKit          3D

  5  4  0  0  0  0  0  0  0  0999 V2000
    0.8934    0.3742    0.4948 O   0  0  0  0  0  0  0  0  0  1  0  0
    0.1582   -0.1610   -0.5904 N   0  0  0  0  0  0  0  0  0  2  0  0
   -1.0297   -0.3739   -0.4689 C   0  0  0  0  0  3  0  0  0  3  0  0
    1.7804    0.4382    0.1306 H   0  0  0  0  0  0  0  0  0  4  0  0
   -1.8023   -0.2775    0.2859 H   0  0  0  0  0  0  0  0  0  5  0  0
  1  4  1  0
  1  2  1  0
  2  3  1  0
  3  5  1  0
M  RAD  1   3   2
M  END
>  <rmg_smiles>  (5) 
[CH][N]O

>  <rmg_adjacency_list>  (5) 
multiplicity 2
1 O u0 p2 c0 {2,S} {4,S}
2 N u0 p1 c0 {1,S} {3,S}
3 C u1 p1 c0 {2,S} {5,S}
4 H u0 p0 c0 {1,S}
5 H u0 p0 c0 {3,S}


>  <multiplicity>  (5) 
2

>  <reaction>  (5) 
rmg_rxn_15496

>  <type>  (5) 
r2

>  <role_mapnums>  (5) 
{}

>  <role_mapidx>  (5) 
{}

>  <ordered_mapped_smiles>  (5) 
[O:1]([NH:2][CH:3][H:5])[H:4]

>  <level_of_theory>  (5) 
wb97xd/def2tzvp

>  <lot_method>  (5) 
wb97xd

>  <lot_basis>  (5) 
def2tzvp

>  <spin_multiplicity>  (5) 
2.0

>  <optical_isomers>  (5) 
1.0

>  <modes>  (5) 
IdealGasTranslation(mass=(44.0136, 'amu')),         NonlinearRotor(inertia=([5.8161, 41.482, 47.298

>  <frequency_value>  (5) 
unknown

>  <frequency_units>  (5) 
unknown

>  <frequency_list>  (5) 
unknown

>  <arkane_path>  (5) 
/home/calvin/Dropbox/PersonalFolders/Calvin/ZEUS_Converged/rmg_rxn_15496/output/Species/rmg_rxn_15496_r1_ON=sbr-CH-sbr/arkane/output.py

>  <path_exists>  (5) 
True

>  <E0_value>  (5) 
-444005.3444875403

>  <E0_units>  (5) 
kJ/mol

>  <thermo_class>  (5) 
NASA

>  <Cp0_value>  (5) 
33.257888

>  <Cp0_units>  (5) 
J/(mol*K)

>  <CpInf_value>  (5) 
108.088136

>  <CpInf_units>  (5) 
J/(mol*K)

>  <Tmin_value>  (5) 
10.0

>  <Tmin_units>  (5) 
K

>  <Tmax_value>  (5) 
3000.0

>  <Tmax_units>  (5) 
K

>  <polynomials>  (5) 
[{"name": "polynomial1", "class": "NASAPolynomial", "Tmin_value": 10.0, "Tmin_units": "K", "Tmax_value": 582.3897944984312, "Tmax_units": "K", "coeffs": [3.9652725251487997, 0.0020023225588121428, 4.0599056262928875e-05, -7.75899274364692e-08, 4.4513181050887496e-11, -53401506.385814846, 6.827044892789236]}, {"name": "polynomial2", "class": "NASAPolynomial", "Tmin_value": 582.3897944984312, "Tmin_units": "K", "Tmax_value": 3000.0, "Tmax_units": "K", "coeffs": [3.5772944330084147, 0.012861032030441071, -8.472942585347425e-06, 2.741567682664952e-09, -3.4073253039207466e-13, -53401600.15572128, 7.296045717872725]}]

>  <H298_value>  (5) 
-106116.8465159924

>  <H298_units>  (5) 
kcal/mol

>  <S298_value>  (5) 
62.04111940413777

>  <S298_units>  (5) 
cal/(mol*K)

>  <Cp_T_value_list>  (5) 
[12.888053758950505, 14.776534941782554, 16.29416082392464, 17.47087173516364, 19.290917222749155, 20.599817847495114, 22.5201252902908, 23.62472390428687, 24.312211768096834]

>  <Cp_T_units>  (5) 
cal/(mol*K)

>  <T_list>  (5) 
[300.0, 400.0, 500.0, 600.0, 800.0, 1000.0, 1500.0, 2000.0, 2400.0]

>  <T_units>  (5) 
K

>  <yaml_path>  (5) 
/home/calvin/Dropbox/PersonalFolders/Calvin/ZEUS_Converged/rmg_rxn_15496/output/Species/rmg_rxn_15496_r1_ON=sbr-CH-sbr/rmg_rxn_15496_r1_ON=sbr-CH-sbr.yml

>  <frequencies_cm1>  (5) 
[408.41395190699996, 412.06718809724, 739.15543285948, 761.7272136063199, 904.39570061464, 1348.7789216278, 1755.3113195571198, 3153.319658944, 3818.4558570392]

>  <ZPE_kJmol>  (5) 
79.5614101222066

>  <E_elec_kJmol>  (5) 
-444084.9058976625

>  <E0_minus_Eelec_plus_ZPE_kJmol>  (5) 
0.0

>  <rxn>  (5) 
rmg_rxn_15496

>  <species_type>  (5) 
r0

>  <species_folder>  (5) 
rmg_rxn_15496_r1_ON=sbr-CH-sbr

>  <frequencies_cm1_list>  (5) 
[408.41395190699996, 412.06718809724, 739.15543285948, 761.7272136063199, 904.39570061464, 1348.7789216278, 1755.3113195571198, 3153.319658944, 3818.4558570392]

>  <E0_kJmol>  (5) 
-444005

>  <H298_kJmol>  (5) 
-443993

$$$$
