
     RDKit          3D

  8  7  0  0  0  0  0  0  0  0999 V2000
    0.3080   -0.4952   -1.1307 C   0  0  0  0  0  0  0  0  0  1  0  0
    0.1073   -0.2502    0.3356 C   0  0  0  0  0  0  0  0  0  2  0  0
   -0.4370    0.7884    0.7840 N   0  0  0  0  0  0  0  0  0  3  0  0
    1.3715   -0.6267   -1.3440 H   0  0  0  0  0  0  0  0  0  4  0  0
   -0.1977   -1.4172   -1.4276 H   0  0  0  0  0  0  0  0  0  5  0  0
   -0.0794    0.3362   -1.7167 H   0  0  0  0  0  0  0  0  0  6  0  0
    0.4660   -1.0426    1.0112 H   0  0  0  0  0  0  0  0  0  7  0  0
   -0.4343    0.6932    1.8196 H   0  0  0  0  0  0  0  0  0  8  0  0
  1  5  1  0
  1  4  1  0
  1  6  1  0
  1  2  1  0
  2  3  1  0
  2  7  1  0
  3  8  1  0
M  END
>  <rmg_smiles>  (1) 
C[CH][NH]

>  <rmg_adjacency_list>  (1) 
1 N u0 p1 c0 {3,S} {8,S}
2 C u0 p0 c0 {3,S} {4,S} {5,S} {6,S}
3 C u0 p0 c0 {1,S} {2,S} {7,S}
4 H u0 p0 c0 {2,S}
5 H u0 p0 c0 {2,S}
6 H u0 p0 c0 {2,S}
7 H u0 p0 c0 {3,S}
8 H u0 p0 c0 {1,S}


>  <multiplicity>  (1) 
1

>  <reaction>  (1) 
rmg_rxn_16464

>  <type>  (1) 
r1h

>  <role_mapnums>  (1) 
{"r1h_a": 3, "r1h_h": 8}

>  <role_mapidx>  (1) 
{"r1h_a": 2, "r1h_h": 7}

>  <ordered_mapped_smiles>  (1) 
[C:1]([CH:2]([NH:3][H:8])[H:7])([H:4])([H:5])[H:6]

>  <mol_properties>  (1) 
{"2": {"label": "donator", "atom_type": "N3s"}, "7": {"label": "d_hydrogen", "atom_type": "H0"}}

>  <level_of_theory>  (1) 
wb97xd/def2tzvp

>  <lot_method>  (1) 
wb97xd

>  <lot_basis>  (1) 
def2tzvp

>  <spin_multiplicity>  (1) 
1.0

>  <optical_isomers>  (1) 
1.0

>  <modes>  (1) 
IdealGasTranslation(mass=(43.0422, 'amu')),         NonlinearRotor(             inertia = ([9.32783, 51.3348, 57.5532

>  <frequency_value>  (1) 
unknown

>  <frequency_units>  (1) 
unknown

>  <frequency_list>  (1) 
unknown

>  <arkane_path>  (1) 
/home/calvin/Dropbox/PersonalFolders/Calvin/ZEUS_Converged/rmg_rxn_16464/output/Species/rmg_rxn_16464_r1_CC=N/arkane/output.py

>  <path_exists>  (1) 
True

>  <E0_value>  (1) 
-351535.20335661684

>  <E0_units>  (1) 
kJ/mol

>  <thermo_class>  (1) 
NASA

>  <Cp0_value>  (1) 
33.257888

>  <Cp0_units>  (1) 
J/(mol*K)

>  <CpInf_value>  (1) 
182.918384

>  <CpInf_units>  (1) 
J/(mol*K)

>  <Tmin_value>  (1) 
10.0

>  <Tmin_units>  (1) 
K

>  <Tmax_value>  (1) 
3000.0

>  <Tmax_units>  (1) 
K

>  <polynomials>  (1) 
[{"name": "polynomial1", "class": "NASAPolynomial", "Tmin_value": 10.0, "Tmin_units": "K", "Tmax_value": 834.0183041901832, "Tmax_units": "K", "coeffs": [4.020859284868709, 0.0012406595733239277, 4.4482903010182226e-05, -5.482114439751344e-08, 2.0739201558559772e-11, -42279921.71645892, 6.726586383468645]}, {"name": "polynomial2", "class": "NASAPolynomial", "Tmin_value": 834.0183041901832, "Tmin_units": "K", "Tmax_value": 3000.0, "Tmax_units": "K", "coeffs": [0.8146767610859666, 0.025012560508124084, -1.3369721411120483e-05, 3.4917002293006827e-09, -3.579375529269218e-13, -42279678.881200545, 19.862274208798944]}]

>  <H298_value>  (1) 
-84015.86036687854

>  <H298_units>  (1) 
kcal/mol

>  <S298_value>  (1) 
62.66843297179497

>  <S298_units>  (1) 
cal/(mol*K)

>  <Cp_T_value_list>  (1) 
[14.078036689508782, 17.202765604471058, 20.2803800489589, 23.1023356383003, 27.639649626797436, 30.983090061901617, 36.21499785066487, 38.88468928045463, 40.19916387517873]

>  <Cp_T_units>  (1) 
cal/(mol*K)

>  <T_list>  (1) 
[300.0, 400.0, 500.0, 600.0, 800.0, 1000.0, 1500.0, 2000.0, 2400.0]

>  <T_units>  (1) 
K

>  <yaml_path>  (1) 
/home/calvin/Dropbox/PersonalFolders/Calvin/ZEUS_Converged/rmg_rxn_16464/output/Species/rmg_rxn_16464_r1_CC=N/rmg_rxn_16464_r1_CC=N.yml

>  <frequencies_cm1>  (1) 
[185.42920459596, 489.9250676554, 680.6761858743599, 921.32968641376, 1055.89513074448, 1069.62910138448, 1130.4431233784, 1267.5150173509198, 1378.7876474762, 1425.071128533, 1456.56312321052, 1463.3683056626398, 1737.36788691596, 2989.2124437666403, 3014.6889593038395, 3075.43431144456, 3123.3452680222, 3455.8927661138396]

>  <ZPE_kJmol>  (1) 
178.96482902382195

>  <E_elec_kJmol>  (1) 
-351714.16818564065

>  <E0_minus_Eelec_plus_ZPE_kJmol>  (1) 
0.0

>  <rxn>  (1) 
rmg_rxn_16464

>  <species_type>  (1) 
r0

>  <species_folder>  (1) 
rmg_rxn_16464_r1_CC=N

>  <frequencies_cm1_list>  (1) 
[185.42920459596, 489.9250676554, 680.6761858743599, 921.32968641376, 1055.89513074448, 1069.62910138448, 1130.4431233784, 1267.5150173509198, 1378.7876474762, 1425.071128533, 1456.56312321052, 1463.3683056626398, 1737.36788691596, 2989.2124437666403, 3014.6889593038395, 3075.43431144456, 3123.3452680222, 3455.8927661138396]

>  <E0_kJmol>  (1) 
-351535

>  <H298_kJmol>  (1) 
-351522

$$$$

     RDKit          3D

 18 17  0  0  0  0  0  0  0  0999 V2000
    0.1773    1.9698   -1.3073 H   0  0  0  0  0  0  0  0  0  1  0  0
    1.6674    2.2144    0.1376 C   0  0  0  0  0  0  0  0  0  2  0  0
    0.3242    1.6822   -0.2590 C   0  0  0  0  0  0  0  0  0  3  0  0
    0.2835    0.3067   -0.1870 O   0  0  0  0  0  0  0  0  0  4  0  0
   -1.0031   -0.2506   -0.3819 C   0  0  0  0  0  0  0  0  0  5  0  0
   -0.9023   -1.7599   -0.3324 C   0  0  0  0  0  0  0  0  0  6  0  0
   -0.4254   -2.2882    1.0139 C   0  0  0  0  0  0  0  0  0  7  0  0
    2.4506    1.7659   -0.4759 H   0  0  0  0  0  0  0  0  0  8  0  0
    1.6965    3.2949   -0.0052 H   0  0  0  0  0  0  0  0  0  9  0  0
    1.8878    1.9949    1.1863 H   0  0  0  0  0  0  0  0  0 10  0  0
   -0.5276    2.1562    0.2437 H   0  0  0  0  0  0  0  0  0 11  0  0
   -1.6788    0.1166    0.4031 H   0  0  0  0  0  0  0  0  0 12  0  0
   -1.4016    0.0805   -1.3479 H   0  0  0  0  0  0  0  0  0 13  0  0
   -1.8894   -2.1665   -0.5684 H   0  0  0  0  0  0  0  0  0 14  0  0
   -0.2276   -2.0906   -1.1267 H   0  0  0  0  0  0  0  0  0 15  0  0
   -1.1058   -1.9864    1.8138 H   0  0  0  0  0  0  0  0  0 16  0  0
   -0.3744   -3.3778    1.0112 H   0  0  0  0  0  0  0  0  0 17  0  0
    0.5654   -1.9021    1.2534 H   0  0  0  0  0  0  0  0  0 18  0  0
  1  3  1  0
  2 10  1  0
  2  9  1  0
  2  8  1  0
  2  3  1  0
  3 11  1  0
  3  4  1  0
  4  5  1  0
  5 13  1  0
  5 12  1  0
  5  6  1  0
  6 15  1  0
  6 14  1  0
  6  7  1  0
  7 17  1  0
  7 18  1  0
  7 16  1  0
M  END
>  <rmg_smiles>  (2) 
CCCOCC

>  <rmg_adjacency_list>  (2) 
1  O u0 p2 c0 {3,S} {4,S}
2  C u0 p0 c0 {3,S} {5,S} {7,S} {8,S}
3  C u0 p0 c0 {1,S} {2,S} {11,S} {12,S}
4  C u0 p0 c0 {1,S} {6,S} {9,S} {10,S}
5  C u0 p0 c0 {2,S} {16,S} {17,S} {18,S}
6  C u0 p0 c0 {4,S} {13,S} {14,S} {15,S}
7  H u0 p0 c0 {2,S}
8  H u0 p0 c0 {2,S}
9  H u0 p0 c0 {4,S}
10 H u0 p0 c0 {4,S}
11 H u0 p0 c0 {3,S}
12 H u0 p0 c0 {3,S}
13 H u0 p0 c0 {6,S}
14 H u0 p0 c0 {6,S}
15 H u0 p0 c0 {6,S}
16 H u0 p0 c0 {5,S}
17 H u0 p0 c0 {5,S}
18 H u0 p0 c0 {5,S}


>  <multiplicity>  (2) 
1

>  <reaction>  (2) 
rmg_rxn_16464

>  <type>  (2) 
r2h

>  <role_mapnums>  (2) 
{"r2h_a": 3, "r2h_h": 1}

>  <role_mapidx>  (2) 
{"r2h_a": 2, "r2h_h": 0}

>  <ordered_mapped_smiles>  (2) 
[H:1][C:3]([C:2]([H:8])([H:9])[H:10])([O:4][C:5]([C:6]([C:7]([H:16])([H:17])[H:18])([H:14])[H:15])([H:12])[H:13])[H:11]

>  <mol_properties>  (2) 
{"0": {"label": "a_hydrogen", "atom_type": "H0"}, "2": {"label": "acceptor", "atom_type": "Cs"}}

>  <level_of_theory>  (2) 
wb97xd/def2tzvp

>  <lot_method>  (2) 
wb97xd

>  <lot_basis>  (2) 
def2tzvp

>  <spin_multiplicity>  (2) 
1.0

>  <optical_isomers>  (2) 
2.0

>  <modes>  (2) 
IdealGasTranslation(mass=(88.0888, 'amu')),         NonlinearRotor(             inertia = ([59.5652, 317.445, 349.634

>  <frequency_value>  (2) 
unknown

>  <frequency_units>  (2) 
unknown

>  <frequency_list>  (2) 
unknown

>  <arkane_path>  (2) 
/home/calvin/Dropbox/PersonalFolders/Calvin/ZEUS_Converged/rmg_rxn_16464/output/Species/rmg_rxn_16464_p2_CCCOCC/arkane/output.py

>  <path_exists>  (2) 
True

>  <E0_value>  (2) 
-716327.3605697051

>  <E0_units>  (2) 
kJ/mol

>  <thermo_class>  (2) 
NASA

>  <Cp0_value>  (2) 
33.257888

>  <Cp0_units>  (2) 
J/(mol*K)

>  <CpInf_value>  (2) 
432.352544

>  <CpInf_units>  (2) 
J/(mol*K)

>  <Tmin_value>  (2) 
10.0

>  <Tmin_units>  (2) 
K

>  <Tmax_value>  (2) 
3000.0

>  <Tmax_units>  (2) 
K

>  <polynomials>  (2) 
[{"name": "polynomial1", "class": "NASAPolynomial", "Tmin_value": 10.0, "Tmin_units": "K", "Tmax_value": 424.1471510525553, "Tmax_units": "K", "coeffs": [3.470707395992323, 0.057465092337157006, -0.00016719615574429907, 4.780416785244836e-07, -4.334678348364383e-10, -86154279.58971617, 11.635448459863113]}, {"name": "polynomial2", "class": "NASAPolynomial", "Tmin_value": 424.1471510525553, "Tmin_units": "K", "Tmax_value": 3000.0, "Tmax_units": "K", "coeffs": [-2.8535766592043905, 0.06921012570291063, -3.93432708586682e-05, 1.0841904063530556e-08, -1.1634202736411879e-12, -86153312.26593868, 41.801162441870254]}]

>  <H298_value>  (2) 
-171200.6815305831

>  <H298_units>  (2) 
kcal/mol

>  <S298_value>  (2) 
88.3739517878424

>  <S298_units>  (2) 
cal/(mol*K)

>  <Cp_T_value_list>  (2) 
[29.924581474875136, 38.16082376712961, 46.0995993804801, 53.05840018906718, 64.40406801111835, 72.91410792810673, 85.72980448804608, 92.035679496926, 95.21198017799685]

>  <Cp_T_units>  (2) 
cal/(mol*K)

>  <T_list>  (2) 
[300.0, 400.0, 500.0, 600.0, 800.0, 1000.0, 1500.0, 2000.0, 2400.0]

>  <T_units>  (2) 
K

>  <yaml_path>  (2) 
/home/calvin/Dropbox/PersonalFolders/Calvin/ZEUS_Converged/rmg_rxn_16464/output/Species/rmg_rxn_16464_p2_CCCOCC/rmg_rxn_16464_p2_CCCOCC.yml

>  <frequencies_cm1>  (2) 
[76.60808822992, 85.88538539723999, 152.39213822143998, 171.44115549912, 250.05440344247998, 256.06301559748, 329.51915756551995, 440.0707542322, 493.7774464199199, 767.98990421816, 823.02879155796, 891.3896304185598, 900.4815189822399, 929.41899512072, 1002.9850088538799, 1082.00340893112, 1102.9065122452, 1152.52734816752, 1174.9617892079598, 1182.44680320676, 1190.2339645596398, 1270.1176047871998, 1295.23017010244, 1305.6473868328799, 1368.30176089256, 1380.4425909383199, 1399.7456866728398, 1405.4521514737598, 1443.92787022172, 1468.7794900948002, 1470.37949767436, 1482.5752636026798, 1487.2448136202797, 1494.6336898246, 1500.58049911172, 1519.49904366832, 2928.8997117010795, 2942.5512785172396, 2962.4655359452395, 2968.54281795344, 3015.1421803349594, 3021.7276192568397, 3024.0692612509597, 3058.7338031463196, 3085.2403664815197, 3101.8035350733594, 3104.27564978856, 3105.2988306012394]

>  <ZPE_kJmol>  (2) 
431.0594598774012

>  <E_elec_kJmol>  (2) 
-716758.4200295826

>  <E0_minus_Eelec_plus_ZPE_kJmol>  (2) 
0.0

>  <rxn>  (2) 
rmg_rxn_16464

>  <species_type>  (2) 
p1

>  <species_folder>  (2) 
rmg_rxn_16464_p2_CCCOCC

>  <frequencies_cm1_list>  (2) 
[76.60808822992, 85.88538539723999, 152.39213822143998, 171.44115549912, 250.05440344247998, 256.06301559748, 329.51915756551995, 440.0707542322, 493.7774464199199, 767.98990421816, 823.02879155796, 891.3896304185598, 900.4815189822399, 929.41899512072, 1002.9850088538799, 1082.00340893112, 1102.9065122452, 1152.52734816752, 1174.9617892079598, 1182.44680320676, 1190.2339645596398, 1270.1176047871998, 1295.23017010244, 1305.6473868328799, 1368.30176089256, 1380.4425909383199, 1399.7456866728398, 1405.4521514737598, 1443.92787022172, 1468.7794900948002, 1470.37949767436, 1482.5752636026798, 1487.2448136202797, 1494.6336898246, 1500.58049911172, 1519.49904366832, 2928.8997117010795, 2942.5512785172396, 2962.4655359452395, 2968.54281795344, 3015.1421803349594, 3021.7276192568397, 3024.0692612509597, 3058.7338031463196, 3085.2403664815197, 3101.8035350733594, 3104.27564978856, 3105.2988306012394]

>  <E0_kJmol>  (2) 
-716327

>  <H298_kJmol>  (2) 
-716304

$$$$

     RDKit          3D

 25 23  0  0  0  0  0  0  0  0999 V2000
    0.6326    0.4444   -3.5653 C   0  0  0  0  0  0  0  0  0  1  0  0
    0.4318    0.6894   -2.0989 C   0  0  0  0  0  0  0  0  0  2  0  0
   -0.1124    1.7280   -1.6506 N   0  0  0  0  0  0  0  0  0  3  0  0
    1.6961    0.3129   -3.7786 H   0  0  0  0  0  0  0  0  0  4  0  0
    0.1269   -0.4776   -3.8621 H   0  0  0  0  0  0  0  0  0  5  0  0
    0.2452    1.2758   -4.1513 H   0  0  0  0  0  0  0  0  0  6  0  0
    0.7905   -0.1030   -1.4233 H   0  0  0  0  0  0  0  0  0  7  0  0
   -0.1091    1.6115   -0.3828 H   0  0  0  0  0  0  0  0  0  8  0  0
    1.4139    1.7918    1.2965 C   0  0  0  0  0  0  0  0  0  9  0  0
    0.0707    1.2596    0.8998 C   0  0  0  0  0  3  0  0  0 10  0  0
    0.0300   -0.1160    0.9718 O   0  0  0  0  0  0  0  0  0 11  0  0
   -1.2566   -0.6732    0.7769 C   0  0  0  0  0  0  0  0  0 12  0  0
   -1.1558   -2.1826    0.8264 C   0  0  0  0  0  0  0  0  0 13  0  0
   -0.6789   -2.7109    2.1727 C   0  0  0  0  0  0  0  0  0 14  0  0
    2.1971    1.3432    0.6829 H   0  0  0  0  0  0  0  0  0 15  0  0
    1.4429    2.8722    1.1537 H   0  0  0  0  0  0  0  0  0 16  0  0
    1.6343    1.5723    2.3451 H   0  0  0  0  0  0  0  0  0 17  0  0
   -0.7811    1.7336    1.4026 H   0  0  0  0  0  0  0  0  0 18  0  0
   -1.9323   -0.3060    1.5620 H   0  0  0  0  0  0  0  0  0 19  0  0
   -1.6551   -0.3422   -0.1891 H   0  0  0  0  0  0  0  0  0 20  0  0
   -2.1429   -2.5892    0.5904 H   0  0  0  0  0  0  0  0  0 21  0  0
   -0.4811   -2.5133    0.0321 H   0  0  0  0  0  0  0  0  0 22  0  0
   -1.3593   -2.4091    2.9726 H   0  0  0  0  0  0  0  0  0 23  0  0
   -0.6280   -3.8005    2.1700 H   0  0  0  0  0  0  0  0  0 24  0  0
    0.3119   -2.3248    2.4122 H   0  0  0  0  0  0  0  0  0 25  0  0
  1  4  1  0
  1  5  1  0
  1  6  1  0
  1  2  1  0
  2  3  1  0
  2  7  1  0
  3  8  1  0
  9 17  1  0
  9 16  1  0
  9 15  1  0
  9 10  1  0
 10 18  1  0
 10 11  1  0
 11 12  1  0
 12 19  1  0
 12 20  1  0
 12 13  1  0
 13 21  1  0
 13 14  1  0
 13 22  1  0
 14 24  1  0
 14 25  1  0
 14 23  1  0
M  RAD  1  10   2
M  END
>  <rmg_smiles>  (3) 
C[CH]OCCC.C[CH][NH]

>  <rmg_adjacency_list>  (3) 
multiplicity 2
1  O u0 p2 c0 {4,S} {8,S}
2  N u0 p1 c0 {9,S} {25,S}
3  C u0 p0 c0 {4,S} {5,S} {10,S} {11,S}
4  C u0 p0 c0 {1,S} {3,S} {12,S} {13,S}
5  C u0 p0 c0 {3,S} {14,S} {15,S} {16,S}
6  C u0 p0 c0 {9,S} {17,S} {18,S} {19,S}
7  C u0 p0 c0 {8,S} {20,S} {21,S} {22,S}
8  C u1 p0 c0 {1,S} {7,S} {24,S}
9  C u0 p0 c0 {2,S} {6,S} {23,S}
10 H u0 p0 c0 {3,S}
11 H u0 p0 c0 {3,S}
12 H u0 p0 c0 {4,S}
13 H u0 p0 c0 {4,S}
14 H u0 p0 c0 {5,S}
15 H u0 p0 c0 {5,S}
16 H u0 p0 c0 {5,S}
17 H u0 p0 c0 {6,S}
18 H u0 p0 c0 {6,S}
19 H u0 p0 c0 {6,S}
20 H u0 p0 c0 {7,S}
21 H u0 p0 c0 {7,S}
22 H u0 p0 c0 {7,S}
23 H u0 p0 c0 {9,S}
24 H u0 p0 c0 {8,S}
25 H u0 p0 c0 {2,S}


>  <multiplicity>  (3) 
2

>  <reaction>  (3) 
rmg_rxn_16464

>  <type>  (3) 
ts

>  <role_mapnums>  (3) 
{"*2": 8, "*1": 3, "*3": 10, "*0": 2, "*4": 11}

>  <role_mapidx>  (3) 
{"*2": 7, "*1": 2, "*3": 9, "*0": 1, "*4": 10}

>  <ordered_mapped_smiles>  (3) 
[C:1]([CH:2]([NH:3][H:8])[H:7])([H:4])([H:5])[H:6].[C:9]([C:10]([O:11][C:12]([C:13]([C:14]([H:23])([H:24])[H:25])([H:21])[H:22])([H:19])[H:20])[H:18])([H:15])([H:16])[H:17]

>  <mol_properties>  (3) 
{"1": {"label": "*0", "atom_type": "Cs"}, "2": {"label": "*1", "atom_type": "N3s"}, "7": {"label": "*2", "atom_type": "H0"}, "9": {"label": "*3", "atom_type": "Cs"}, "10": {"label": "*4", "atom_type": "O2s"}}

>  <level_of_theory>  (3) 
wb97xd/def2tzvp

>  <lot_method>  (3) 
wb97xd

>  <lot_basis>  (3) 
def2tzvp

>  <spin_multiplicity>  (3) 
2.0

>  <optical_isomers>  (3) 
2.0

>  <modes>  (3) 
IdealGasTranslation(mass=(130.123, 'amu')),         NonlinearRotor(             inertia = ([281.919, 621.951, 812.18

>  <frequency_value>  (3) 
-1835.61

>  <frequency_units>  (3) 
cm^-1

>  <frequency_list>  (3) 
unknown

>  <arkane_path>  (3) 
/home/calvin/Dropbox/PersonalFolders/Calvin/ZEUS_Converged/rmg_rxn_16464/output/rxns/TS0/arkane/output.py

>  <path_exists>  (3) 
True

>  <E0_value>  (3) 
-1066130.0

>  <E0_units>  (3) 
kJ/mol

>  <thermo_class>  (3) 
unknown

>  <Cp0_value>  (3) 
unknown

>  <Cp0_units>  (3) 
unknown

>  <CpInf_value>  (3) 
unknown

>  <CpInf_units>  (3) 
unknown

>  <Tmin_value>  (3) 
unknown

>  <Tmin_units>  (3) 
unknown

>  <Tmax_value>  (3) 
unknown

>  <Tmax_units>  (3) 
unknown

>  <polynomials>  (3) 
unknown

>  <H298_value>  (3) 
unknown

>  <H298_units>  (3) 
unknown

>  <S298_value>  (3) 
unknown

>  <S298_units>  (3) 
unknown

>  <Cp_T_value_list>  (3) 
unknown

>  <Cp_T_units>  (3) 
unknown

>  <T_list>  (3) 
unknown

>  <T_units>  (3) 
unknown

>  <yaml_path>  (3) 
unknown

>  <frequencies_cm1>  (3) 
unknown

>  <ZPE_kJmol>  (3) 
unknown

>  <E_elec_kJmol>  (3) 
unknown

>  <E0_minus_Eelec_plus_ZPE_kJmol>  (3) 
unknown

>  <rxn>  (3) 
unknown

>  <species_type>  (3) 
unknown

>  <species_folder>  (3) 
unknown

>  <frequencies_cm1_list>  (3) 
[]

>  <ts_imag_freq_cm1>  (3) 
-1857.9029

>  <ts_freq_out_path>  (3) 
/home/calvin/Dropbox/PersonalFolders/Calvin/ZEUS_Converged/rmg_rxn_16464/output/rxns/TS0/geometry/freq.out

>  <E0_kJmol>  (3) 
-1.06613e+06

>  <H298_kJmol>  (3) 
unknown

$$$$

     RDKit          3D

  7  6  0  0  0  0  0  0  0  0999 V2000
   -0.6441   -0.1356    0.0624 C   0  0  0  0  0  0  0  0  0  1  0  0
    0.8523    0.0148   -0.0333 C   0  0  0  0  0  0  0  0  0  2  0  0
    1.6700   -0.6077    0.6603 N   0  0  0  0  0  2  0  0  0  3  0  0
   -1.0940    0.8275    0.3091 H   0  0  0  0  0  0  0  0  0  4  0  0
   -0.9104   -0.8656    0.8237 H   0  0  0  0  0  0  0  0  0  5  0  0
   -1.0427   -0.4545   -0.9022 H   0  0  0  0  0  0  0  0  0  6  0  0
    1.2362    0.7308   -0.7748 H   0  0  0  0  0  0  0  0  0  7  0  0
  1  5  1  0
  1  4  1  0
  1  6  1  0
  1  2  1  0
  2  3  1  0
  2  7  1  0
M  RAD  1   3   2
M  END
>  <rmg_smiles>  (4) 
C[CH][N]

>  <rmg_adjacency_list>  (4) 
multiplicity 2
1 N u1 p2 c0 {3,S}
2 C u0 p0 c0 {3,S} {4,S} {5,S} {6,S}
3 C u0 p0 c0 {1,S} {2,S} {7,S}
4 H u0 p0 c0 {2,S}
5 H u0 p0 c0 {2,S}
6 H u0 p0 c0 {2,S}
7 H u0 p0 c0 {3,S}


>  <multiplicity>  (4) 
2

>  <reaction>  (4) 
rmg_rxn_16464

>  <type>  (4) 
r1

>  <role_mapnums>  (4) 
{}

>  <role_mapidx>  (4) 
{}

>  <ordered_mapped_smiles>  (4) 
[C:1]([CH:2]([NH:3])[H:7])([H:4])([H:5])[H:6]

>  <level_of_theory>  (4) 
wb97xd/def2tzvp

>  <lot_method>  (4) 
wb97xd

>  <lot_basis>  (4) 
def2tzvp

>  <spin_multiplicity>  (4) 
2.0

>  <optical_isomers>  (4) 
1.0

>  <modes>  (4) 
IdealGasTranslation(mass=(42.0344, 'amu')),         NonlinearRotor(             inertia = ([8.81492, 48.174, 53.8511

>  <frequency_value>  (4) 
unknown

>  <frequency_units>  (4) 
unknown

>  <frequency_list>  (4) 
unknown

>  <arkane_path>  (4) 
/home/calvin/Dropbox/PersonalFolders/Calvin/ZEUS_Converged/rmg_rxn_16464/output/Species/rmg_rxn_16464_p1_CC=sbr-N-sbr/arkane/output.py

>  <path_exists>  (4) 
True

>  <E0_value>  (4) 
-349854.82234455534

>  <E0_units>  (4) 
kJ/mol

>  <thermo_class>  (4) 
NASA

>  <Cp0_value>  (4) 
33.257888

>  <Cp0_units>  (4) 
J/(mol*K)

>  <CpInf_value>  (4) 
157.97496800000002

>  <CpInf_units>  (4) 
J/(mol*K)

>  <Tmin_value>  (4) 
10.0

>  <Tmin_units>  (4) 
K

>  <Tmax_value>  (4) 
3000.0

>  <Tmax_units>  (4) 
K

>  <polynomials>  (4) 
[{"name": "polynomial1", "class": "NASAPolynomial", "Tmin_value": 10.0, "Tmin_units": "K", "Tmax_value": 503.5856077016928, "Tmax_units": "K", "coeffs": [3.976811592049577, 0.0012685228752087534, 4.786155959427562e-05, -7.554553197268183e-08, 3.869280929218241e-11, -42077814.38325793, 7.559402827950991]}, {"name": "polynomial2", "class": "NASAPolynomial", "Tmin_value": 503.5856077016928, "Tmin_units": "K", "Tmax_value": 3000.0, "Tmax_units": "K", "coeffs": [1.4688672877735052, 0.02118998940112054, -1.1479594923736429e-05, 3.0156770231218235e-09, -3.096140671693614e-13, -42077561.800061174, 17.93823402033286]}]

>  <H298_value>  (4) 
-83614.2601862362

>  <H298_units>  (4) 
kcal/mol

>  <S298_value>  (4) 
63.84640386523673

>  <S298_units>  (4) 
cal/(mol*K)

>  <Cp_T_value_list>  (4) 
[13.788413560189577, 16.48922778111735, 18.980945997388957, 21.186536551582613, 24.822448324400693, 27.593007553675324, 31.86535612271467, 33.985319854322825, 35.01227851918305]

>  <Cp_T_units>  (4) 
cal/(mol*K)

>  <T_list>  (4) 
[300.0, 400.0, 500.0, 600.0, 800.0, 1000.0, 1500.0, 2000.0, 2400.0]

>  <T_units>  (4) 
K

>  <yaml_path>  (4) 
/home/calvin/Dropbox/PersonalFolders/Calvin/ZEUS_Converged/rmg_rxn_16464/output/Species/rmg_rxn_16464_p1_CC=sbr-N-sbr/rmg_rxn_16464_p1_CC=sbr-N-sbr.yml

>  <frequencies_cm1>  (4) 
[183.94593576684, 430.87586088872, 744.9511684695599, 909.3948659275999, 1050.2642027820798, 1063.7578289358798, 1237.9320445923597, 1377.0846351168398, 1461.72709617116, 1465.6893467008, 1739.36617964408, 2963.10416558, 3026.2186276561197, 3097.525403219, 3131.35217290532]

>  <ZPE_kJmol>  (4) 
142.8532380575317

>  <E_elec_kJmol>  (4) 
-349997.67558261286

>  <E0_minus_Eelec_plus_ZPE_kJmol>  (4) 
0.0

>  <rxn>  (4) 
rmg_rxn_16464

>  <species_type>  (4) 
p0

>  <species_folder>  (4) 
rmg_rxn_16464_p1_CC=sbr-N-sbr

>  <frequencies_cm1_list>  (4) 
[183.94593576684, 430.87586088872, 744.9511684695599, 909.3948659275999, 1050.2642027820798, 1063.7578289358798, 1237.9320445923597, 1377.0846351168398, 1461.72709617116, 1465.6893467008, 1739.36617964408, 2963.10416558, 3026.2186276561197, 3097.525403219, 3131.35217290532]

>  <E0_kJmol>  (4) 
-349855

>  <H298_kJmol>  (4) 
-349842

$$$$

     RDKit          3D

 17 16  0  0  0  0  0  0  0  0999 V2000
   -3.2378    0.0781    0.0468 C   0  0  0  0  0  0  0  0  0  1  0  0
   -1.9072   -0.5430    0.2348 C   0  0  0  0  0  3  0  0  0  2  0  0
   -1.5607   -0.7743    1.5229 O   0  0  0  0  0  0  0  0  0  3  0  0
   -0.2678   -1.3170    1.7206 C   0  0  0  0  0  0  0  0  0  4  0  0
    0.0055   -1.4164    3.2061 C   0  0  0  0  0  0  0  0  0  5  0  0
    0.0347   -0.0632    3.9042 C   0  0  0  0  0  0  0  0  0  6  0  0
   -3.2816    1.0982    0.4537 H   0  0  0  0  0  0  0  0  0  7  0  0
   -3.4818    0.1310   -1.0144 H   0  0  0  0  0  0  0  0  0  8  0  0
   -4.0139   -0.5033    0.5509 H   0  0  0  0  0  0  0  0  0  9  0  0
   -1.0896   -0.3480   -0.4562 H   0  0  0  0  0  0  0  0  0 10  0  0
   -0.2142   -2.3036    1.2476 H   0  0  0  0  0  0  0  0  0 11  0  0
    0.4751   -0.6679    1.2371 H   0  0  0  0  0  0  0  0  0 12  0  0
   -0.7555   -2.0574    3.6583 H   0  0  0  0  0  0  0  0  0 13  0  0
    0.9642   -1.9267    3.3334 H   0  0  0  0  0  0  0  0  0 14  0  0
   -0.9209    0.4499    3.7952 H   0  0  0  0  0  0  0  0  0 15  0  0
    0.2399   -0.1765    4.9695 H   0  0  0  0  0  0  0  0  0 16  0  0
    0.8109    0.5782    3.4796 H   0  0  0  0  0  0  0  0  0 17  0  0
  1  8  1  0
  1  7  1  0
  1  9  1  0
  1  2  1  0
  2 10  1  0
  2  3  1  0
  3  4  1  0
  4  5  1  0
  4 12  1  0
  4 11  1  0
  5 14  1  0
  5  6  1  0
  5 13  1  0
  6 17  1  0
  6 15  1  0
  6 16  1  0
M  RAD  1   2   2
M  END
>  <rmg_smiles>  (5) 
C[CH]OCCC

>  <rmg_adjacency_list>  (5) 
multiplicity 2
1  O u0 p2 c0 {3,S} {6,S}
2  C u0 p0 c0 {3,S} {4,S} {7,S} {8,S}
3  C u0 p0 c0 {1,S} {2,S} {9,S} {10,S}
4  C u0 p0 c0 {2,S} {11,S} {12,S} {13,S}
5  C u0 p0 c0 {6,S} {14,S} {15,S} {16,S}
6  C u1 p0 c0 {1,S} {5,S} {17,S}
7  H u0 p0 c0 {2,S}
8  H u0 p0 c0 {2,S}
9  H u0 p0 c0 {3,S}
10 H u0 p0 c0 {3,S}
11 H u0 p0 c0 {4,S}
12 H u0 p0 c0 {4,S}
13 H u0 p0 c0 {4,S}
14 H u0 p0 c0 {5,S}
15 H u0 p0 c0 {5,S}
16 H u0 p0 c0 {5,S}
17 H u0 p0 c0 {6,S}


>  <multiplicity>  (5) 
2

>  <reaction>  (5) 
rmg_rxn_16464

>  <type>  (5) 
r2

>  <role_mapnums>  (5) 
{}

>  <role_mapidx>  (5) 
{}

>  <ordered_mapped_smiles>  (5) 
[C:1]([C:2]([O:3][C:4]([C:5]([C:6]([H:15])([H:16])[H:17])([H:13])[H:14])([H:11])[H:12])[H:10])([H:7])([H:8])[H:9]

>  <level_of_theory>  (5) 
wb97xd/def2tzvp

>  <lot_method>  (5) 
wb97xd

>  <lot_basis>  (5) 
def2tzvp

>  <spin_multiplicity>  (5) 
2.0

>  <optical_isomers>  (5) 
2.0

>  <modes>  (5) 
IdealGasTranslation(mass=(87.081, 'amu')),         NonlinearRotor(             inertia = ([57.4633, 312.694, 344.444

>  <frequency_value>  (5) 
unknown

>  <frequency_units>  (5) 
unknown

>  <frequency_list>  (5) 
unknown

>  <arkane_path>  (5) 
/home/calvin/Dropbox/PersonalFolders/Calvin/ZEUS_Converged/rmg_rxn_16464/output/Species/rmg_rxn_16464_r2_Csbr-CH-sbrOCCC/arkane/output.py

>  <path_exists>  (5) 
True

>  <E0_value>  (5) 
-714626.8773508471

>  <E0_units>  (5) 
kJ/mol

>  <thermo_class>  (5) 
NASA

>  <Cp0_value>  (5) 
33.257888

>  <Cp0_units>  (5) 
J/(mol*K)

>  <CpInf_value>  (5) 
407.409128

>  <CpInf_units>  (5) 
J/(mol*K)

>  <Tmin_value>  (5) 
10.0

>  <Tmin_units>  (5) 
K

>  <Tmax_value>  (5) 
3000.0

>  <Tmax_units>  (5) 
K

>  <polynomials>  (5) 
[{"name": "polynomial1", "class": "NASAPolynomial", "Tmin_value": 10.0, "Tmin_units": "K", "Tmax_value": 423.5582174304516, "Tmax_units": "K", "coeffs": [3.425317028674424, 0.06108340089002518, -0.00016985724564922192, 4.4412595950856165e-07, -3.895119290886788e-10, -85949758.59070115, 12.50982009188648]}, {"name": "polynomial2", "class": "NASAPolynomial", "Tmin_value": 423.5582174304516, "Tmin_units": "K", "Tmax_value": 3000.0, "Tmax_units": "K", "coeffs": [-1.1025720691955678, 0.063639683523291, -3.652991801983614e-05, 1.0171382643252047e-08, -1.1023140335017426e-12, -85949014.3909022, 34.72172518223911]}]

>  <H298_value>  (5) 
-170794.10215544468

>  <H298_units>  (5) 
kcal/mol

>  <S298_value>  (5) 
91.08322998435024

>  <S298_units>  (5) 
cal/(mol*K)

>  <Cp_T_value_list>  (5) 
[30.40334429316793, 38.02335645060782, 45.283107245559535, 51.63681832782424, 61.973553123016764, 69.70377596309287, 81.30176342290142, 87.02207685876006, 89.9357998438411]

>  <Cp_T_units>  (5) 
cal/(mol*K)

>  <T_list>  (5) 
[300.0, 400.0, 500.0, 600.0, 800.0, 1000.0, 1500.0, 2000.0, 2400.0]

>  <T_units>  (5) 
K

>  <yaml_path>  (5) 
/home/calvin/Dropbox/PersonalFolders/Calvin/ZEUS_Converged/rmg_rxn_16464/output/Species/rmg_rxn_16464_r2_Csbr-CH-sbrOCCC/rmg_rxn_16464_r2_Csbr-CH-sbrOCCC.yml

>  <frequencies_cm1>  (5) 
[62.256088911119996, 80.6184076568, 158.02306618384, 168.50208578215998, 182.09871671576, 251.82608565504, 327.37665814568, 441.4441512962, 492.0607000899199, 558.5605859287999, 768.1066429685999, 888.04540856772, 910.1090324008799, 927.2490277595999, 1010.4082199848, 1016.6709105966398, 1099.15027127516, 1117.79413641896, 1151.8612505914798, 1175.63475376932, 1265.93561072732, 1270.30988037616, 1304.10231513588, 1361.4965784404399, 1376.3567346729199, 1400.64526174976, 1406.7843466258398, 1443.5913879410398, 1453.0266257707199, 1468.7451551681997, 1477.39068968608, 1483.24136117872, 1494.41394629436, 1502.4483191187599, 2953.29811054304, 2963.1797024185194, 3009.8614686238802, 3016.1859621035996, 3027.0563998651596, 3039.68478586864, 3061.08231212576, 3087.3485309747603, 3090.2463987797996, 3104.30311772984, 3105.33316552784]

>  <ZPE_kJmol>  (5) 
394.4918275611198

>  <E_elec_kJmol>  (5) 
-715021.3691784083

>  <E0_minus_Eelec_plus_ZPE_kJmol>  (5) 
0.0

>  <rxn>  (5) 
rmg_rxn_16464

>  <species_type>  (5) 
r1

>  <species_folder>  (5) 
rmg_rxn_16464_r2_Csbr-CH-sbrOCCC

>  <frequencies_cm1_list>  (5) 
[62.256088911119996, 80.6184076568, 158.02306618384, 168.50208578215998, 182.09871671576, 251.82608565504, 327.37665814568, 441.4441512962, 492.0607000899199, 558.5605859287999, 768.1066429685999, 888.04540856772, 910.1090324008799, 927.2490277595999, 1010.4082199848, 1016.6709105966398, 1099.15027127516, 1117.79413641896, 1151.8612505914798, 1175.63475376932, 1265.93561072732, 1270.30988037616, 1304.10231513588, 1361.4965784404399, 1376.3567346729199, 1400.64526174976, 1406.7843466258398, 1443.5913879410398, 1453.0266257707199, 1468.7451551681997, 1477.39068968608, 1483.24136117872, 1494.41394629436, 1502.4483191187599, 2953.29811054304, 2963.1797024185194, 3009.8614686238802, 3016.1859621035996, 3027.0563998651596, 3039.68478586864, 3061.08231212576, 3087.3485309747603, 3090.2463987797996, 3104.30311772984, 3105.33316552784]

>  <E0_kJmol>  (5) 
-714627

>  <H298_kJmol>  (5) 
-714603

$$$$
