
     RDKit          3D

  5  4  0  0  0  0  0  0  0  0999 V2000
    0.1605    0.6644   -0.8232 O   0  0  0  0  0  0  0  0  0  1  0  0
    0.1862   -0.3885   -0.1443 N   0  0  0  0  0  0  0  0  0  2  0  0
   -0.3163   -0.3993    0.9962 N   0  0  0  0  0  0  0  0  0  3  0  0
   -0.3104    1.3693   -0.3728 H   0  0  0  0  0  0  0  0  0  4  0  0
   -0.1793   -1.3397    1.3633 H   0  0  0  0  0  0  0  0  0  5  0  0
  1  2  1  0
  1  4  1  0
  2  3  1  0
  3  5  1  0
M  END
>  <rmg_smiles>  (1) 
[NH][N]O

>  <rmg_adjacency_list>  (1) 
1 O u0 p2 c0 {2,S} {4,S}
2 N u0 p1 c0 {1,S} {3,S}
3 N u0 p1 c0 {2,S} {5,S}
4 H u0 p0 c0 {1,S}
5 H u0 p0 c0 {3,S}


>  <multiplicity>  (1) 
1

>  <reaction>  (1) 
rmg_rxn_10711

>  <type>  (1) 
r1h

>  <role_mapnums>  (1) 
{"r1h_a": 1, "r1h_h": 4}

>  <role_mapidx>  (1) 
{"r1h_a": 0, "r1h_h": 3}

>  <ordered_mapped_smiles>  (1) 
[O:1]([NH:2][NH:3][H:5])[H:4]

>  <mol_properties>  (1) 
{"0": {"label": "donator", "atom_type": "O2s"}, "3": {"label": "d_hydrogen", "atom_type": "H0"}}

>  <level_of_theory>  (1) 
wb97xd/def2tzvp

>  <lot_method>  (1) 
wb97xd

>  <lot_basis>  (1) 
def2tzvp

>  <spin_multiplicity>  (1) 
1.0

>  <optical_isomers>  (1) 
1.0

>  <modes>  (1) 
IdealGasTranslation(mass=(46.0167, 'amu')),         NonlinearRotor(             inertia = ([6.16868, 38.688, 44.8567

>  <frequency_value>  (1) 
unknown

>  <frequency_units>  (1) 
unknown

>  <frequency_list>  (1) 
unknown

>  <arkane_path>  (1) 
/home/calvin/Dropbox/PersonalFolders/Calvin/ZEUS_Converged/rmg_rxn_10711/output/Species/rmg_rxn_10711_r1_ON=N/arkane/output.py

>  <path_exists>  (1) 
True

>  <E0_value>  (1) 
-487897.48952725495

>  <E0_units>  (1) 
kJ/mol

>  <thermo_class>  (1) 
NASA

>  <Cp0_value>  (1) 
33.257888

>  <Cp0_units>  (1) 
J/(mol*K)

>  <CpInf_value>  (1) 
108.088136

>  <CpInf_units>  (1) 
J/(mol*K)

>  <Tmin_value>  (1) 
10.0

>  <Tmin_units>  (1) 
K

>  <Tmax_value>  (1) 
3000.0

>  <Tmax_units>  (1) 
K

>  <polynomials>  (1) 
[{"name": "polynomial1", "class": "NASAPolynomial", "Tmin_value": 10.0, "Tmin_units": "K", "Tmax_value": 644.0086826047727, "Tmax_units": "K", "coeffs": [4.08138141823632, -0.006378394108187734, 5.883791764927125e-05, -8.741423177321787e-08, 4.244205297895341e-11, -58680514.56119486, 6.48324274838311]}, {"name": "polynomial2", "class": "NASAPolynomial", "Tmin_value": 644.0086826047727, "Tmin_units": "K", "Tmax_value": 3000.0, "Tmax_units": "K", "coeffs": [2.110178493788313, 0.01421627322518034, -8.58198853782814e-06, 2.513658736833628e-09, -2.8402409163798285e-13, -58680433.8514888, 13.781159988579471]}]

>  <H298_value>  (1) 
-116607.71730868449

>  <H298_units>  (1) 
kcal/mol

>  <S298_value>  (1) 
59.138454554281225

>  <S298_units>  (1) 
cal/(mol*K)

>  <Cp_T_value_list>  (1) 
[10.824059737348408, 12.789852451102194, 14.561281699941057, 16.006970840742035, 18.205556705718042, 19.820592041666544, 22.198766652777994, 23.408607434783402, 24.090031891492696]

>  <Cp_T_units>  (1) 
cal/(mol*K)

>  <T_list>  (1) 
[300.0, 400.0, 500.0, 600.0, 800.0, 1000.0, 1500.0, 2000.0, 2400.0]

>  <T_units>  (1) 
K

>  <yaml_path>  (1) 
/home/calvin/Dropbox/PersonalFolders/Calvin/ZEUS_Converged/rmg_rxn_10711/output/Species/rmg_rxn_10711_r1_ON=N/rmg_rxn_10711_r1_ON=N.yml

>  <frequencies_cm1>  (1) 
[665.8915664804, 680.689919845, 958.0199889785198, 1002.4837189255198, 1373.0056458367599, 1446.1184385388, 1659.3864016220396, 3426.1587196782393, 3597.3183287792394]

>  <ZPE_kJmol>  (1) 
88.57795098426257

>  <E_elec_kJmol>  (1) 
-487986.0674782392

>  <E0_minus_Eelec_plus_ZPE_kJmol>  (1) 
0.0

>  <rxn>  (1) 
rmg_rxn_10711

>  <species_type>  (1) 
r0

>  <species_folder>  (1) 
rmg_rxn_10711_r1_ON=N

>  <frequencies_cm1_list>  (1) 
[665.8915664804, 680.689919845, 958.0199889785198, 1002.4837189255198, 1373.0056458367599, 1446.1184385388, 1659.3864016220396, 3426.1587196782393, 3597.3183287792394]

>  <E0_kJmol>  (1) 
-487897

>  <H298_kJmol>  (1) 
-487887

$$$$

     RDKit          3D

 17 16  0  0  0  0  0  0  0  0999 V2000
    2.9309    0.0695   -1.0708 H   0  0  0  0  0  0  0  0  0  1  0  0
   -2.3630   -0.2529    1.6286 C   0  0  0  0  0  0  0  0  0  2  0  0
   -1.5557   -1.2849    0.9098 C   0  0  0  0  0  0  0  0  0  3  0  0
   -0.4069   -1.0793    0.2893 C   0  0  0  0  0  0  0  0  0  4  0  0
    0.1973    0.1621    0.2984 O   0  0  0  0  0  0  0  0  0  5  0  0
    1.0116    0.3170   -0.8235 N   0  0  0  0  0  0  0  0  0  6  0  0
    2.2988    0.5606   -0.4418 N   0  0  0  0  0  0  0  0  0  7  0  0
    0.4599    1.3172   -1.7196 C   0  0  0  0  0  0  0  0  0  8  0  0
   -1.9693    0.7493    1.4656 H   0  0  0  0  0  0  0  0  0  9  0  0
   -2.3675   -0.4426    2.7049 H   0  0  0  0  0  0  0  0  0 10  0  0
   -3.4025   -0.2770    1.2950 H   0  0  0  0  0  0  0  0  0 11  0  0
   -1.9208   -2.3049    0.9051 H   0  0  0  0  0  0  0  0  0 12  0  0
    0.1642   -1.8432   -0.2223 H   0  0  0  0  0  0  0  0  0 13  0  0
    2.4301    0.1406    0.4762 H   0  0  0  0  0  0  0  0  0 14  0  0
    0.3807    2.2894   -1.2252 H   0  0  0  0  0  0  0  0  0 15  0  0
   -0.5197    0.9771   -2.0482 H   0  0  0  0  0  0  0  0  0 16  0  0
    1.1247    1.3930   -2.5781 H   0  0  0  0  0  0  0  0  0 17  0  0
  1  7  1  0
  2 10  1  0
  2  9  1  0
  2 11  1  0
  2  3  1  0
  3  4  1  0
  3 12  1  0
  4 13  1  0
  4  5  1  0
  5  6  1  0
  6  8  1  0
  6  7  1  0
  7 14  1  0
  8 17  1  0
  8 16  1  0
  8 15  1  0
M  END
>  <rmg_smiles>  (2) 
C[CH][CH]ON(N)C

>  <rmg_adjacency_list>  (2) 
1  O u0 p2 c0 {2,S} {7,S}
2  N u0 p1 c0 {1,S} {3,S} {4,S}
3  N u0 p1 c0 {2,S} {16,S} {17,S}
4  C u0 p0 c0 {2,S} {11,S} {12,S} {13,S}
5  C u0 p0 c0 {6,S} {8,S} {9,S} {10,S}
6  C u0 p0 c0 {5,S} {7,S} {14,S}
7  C u0 p0 c0 {1,S} {6,S} {15,S}
8  H u0 p0 c0 {5,S}
9  H u0 p0 c0 {5,S}
10 H u0 p0 c0 {5,S}
11 H u0 p0 c0 {4,S}
12 H u0 p0 c0 {4,S}
13 H u0 p0 c0 {4,S}
14 H u0 p0 c0 {6,S}
15 H u0 p0 c0 {7,S}
16 H u0 p0 c0 {3,S}
17 H u0 p0 c0 {3,S}


>  <multiplicity>  (2) 
1

>  <reaction>  (2) 
rmg_rxn_10711

>  <type>  (2) 
r2h

>  <role_mapnums>  (2) 
{"r2h_a": 7, "r2h_h": 1}

>  <role_mapidx>  (2) 
{"r2h_a": 6, "r2h_h": 0}

>  <ordered_mapped_smiles>  (2) 
[H:1][N:7]([N:6]([O:5][CH:4]([CH:3]([C:2]([H:9])([H:10])[H:11])[H:12])[H:13])[C:8]([H:15])([H:16])[H:17])[H:14]

>  <mol_properties>  (2) 
{"0": {"label": "a_hydrogen", "atom_type": "H0"}, "6": {"label": "acceptor", "atom_type": "N3s"}}

>  <level_of_theory>  (2) 
wb97xd/def2tzvp

>  <lot_method>  (2) 
wb97xd

>  <lot_basis>  (2) 
def2tzvp

>  <spin_multiplicity>  (2) 
1.0

>  <optical_isomers>  (2) 
2.0

>  <modes>  (2) 
IdealGasTranslation(mass=(102.079, 'amu')),         NonlinearRotor(             inertia = ([85.6795, 376.18, 388.876

>  <frequency_value>  (2) 
unknown

>  <frequency_units>  (2) 
unknown

>  <frequency_list>  (2) 
unknown

>  <arkane_path>  (2) 
/home/calvin/Dropbox/PersonalFolders/Calvin/ZEUS_Converged/rmg_rxn_10711/output/Species/rmg_rxn_10711_p2_CC=CONrbr-N-rbrC/arkane/output.py

>  <path_exists>  (2) 
True

>  <E0_value>  (2) 
-900405.0494296006

>  <E0_units>  (2) 
kJ/mol

>  <thermo_class>  (2) 
NASA

>  <Cp0_value>  (2) 
33.257888

>  <Cp0_units>  (2) 
J/(mol*K)

>  <CpInf_value>  (2) 
407.409128

>  <CpInf_units>  (2) 
J/(mol*K)

>  <Tmin_value>  (2) 
10.0

>  <Tmin_units>  (2) 
K

>  <Tmax_value>  (2) 
3000.0

>  <Tmax_units>  (2) 
K

>  <polynomials>  (2) 
[{"name": "polynomial1", "class": "NASAPolynomial", "Tmin_value": 10.0, "Tmin_units": "K", "Tmax_value": 1108.736796573486, "Tmax_units": "K", "coeffs": [3.593482067657345, 0.04527343613148581, -7.853115807860651e-07, -2.043658609457127e-08, 8.18045447415304e-12, -108293714.18687978, 12.85162704751556]}, {"name": "polynomial2", "class": "NASAPolynomial", "Tmin_value": 1108.736796573486, "Tmin_units": "K", "Tmax_value": 3000.0, "Tmax_units": "K", "coeffs": [7.506038002578287, 0.046589931565087575, -2.3444009976697085e-05, 5.741145862751885e-09, -5.527118171710488e-13, -108295530.30298632, -10.705520626468415]}]

>  <H298_value>  (2) 
-215195.9362782153

>  <H298_units>  (2) 
kcal/mol

>  <S298_value>  (2) 
92.63660749241524

>  <S298_units>  (2) 
cal/(mol*K)

>  <Cp_T_value_list>  (2) 
[33.0259983327988, 40.69537554931736, 47.67423133324528, 53.89446290908325, 63.981717362233816, 71.19261681574156, 81.91300293988421, 87.42841994031997, 90.0449470406118]

>  <Cp_T_units>  (2) 
cal/(mol*K)

>  <T_list>  (2) 
[300.0, 400.0, 500.0, 600.0, 800.0, 1000.0, 1500.0, 2000.0, 2400.0]

>  <T_units>  (2) 
K

>  <yaml_path>  (2) 
/home/calvin/Dropbox/PersonalFolders/Calvin/ZEUS_Converged/rmg_rxn_10711/output/Species/rmg_rxn_10711_p2_CC=CONrbr-N-rbrC/rmg_rxn_10711_p2_CC=CONrbr-N-rbrC.yml

>  <frequencies_cm1>  (2) 
[42.90492427935999, 70.94969232623998, 121.85465450339998, 166.71666959895998, 253.87244728039994, 301.92074356444, 373.40606074563993, 419.64833989052, 445.81842094504, 504.72342102, 549.00174236336, 631.06908392268, 758.13578028396, 848.92419319968, 869.8822323963199, 938.1057315505199, 966.4663809221199, 985.6939398181199, 1045.86246519196, 1060.8324931895597, 1129.8319616849199, 1145.91444130436, 1177.50257377636, 1255.0720399510801, 1275.68672988172, 1357.8776771768, 1378.40309629828, 1417.9431977708398, 1431.4368239246398, 1469.8713407606797, 1474.3760831306, 1478.2284618951198, 1482.71260330908, 1665.8688357641197, 1738.5215404497199, 2975.03898606616, 3009.26404090104, 3062.7647235291597, 3097.66960991072, 3105.09968802696, 3145.0998775159596, 3146.5076095065597, 3168.9763854735997, 3405.2006804816, 3560.0443324622797]

>  <ZPE_kJmol>  (2) 
382.271003727177

>  <E_elec_kJmol>  (2) 
-900787.3204333278

>  <E0_minus_Eelec_plus_ZPE_kJmol>  (2) 
0.0

>  <rxn>  (2) 
rmg_rxn_10711

>  <species_type>  (2) 
p1

>  <species_folder>  (2) 
rmg_rxn_10711_p2_CC=CONrbr-N-rbrC

>  <frequencies_cm1_list>  (2) 
[42.90492427935999, 70.94969232623998, 121.85465450339998, 166.71666959895998, 253.87244728039994, 301.92074356444, 373.40606074563993, 419.64833989052, 445.81842094504, 504.72342102, 549.00174236336, 631.06908392268, 758.13578028396, 848.92419319968, 869.8822323963199, 938.1057315505199, 966.4663809221199, 985.6939398181199, 1045.86246519196, 1060.8324931895597, 1129.8319616849199, 1145.91444130436, 1177.50257377636, 1255.0720399510801, 1275.68672988172, 1357.8776771768, 1378.40309629828, 1417.9431977708398, 1431.4368239246398, 1469.8713407606797, 1474.3760831306, 1478.2284618951198, 1482.71260330908, 1665.8688357641197, 1738.5215404497199, 2975.03898606616, 3009.26404090104, 3062.7647235291597, 3097.66960991072, 3105.09968802696, 3145.0998775159596, 3146.5076095065597, 3168.9763854735997, 3405.2006804816, 3560.0443324622797]

>  <E0_kJmol>  (2) 
-900405

>  <H298_kJmol>  (2) 
-900380

$$$$

     RDKit          3D

 21 19  0  0  0  0  0  0  0  0999 V2000
    2.8819   -0.5083   -1.6812 O   0  0  0  0  0  1  0  0  0  1  0  0
    2.9076   -1.5612   -1.0023 N   0  0  0  0  0  0  0  0  0  2  0  0
    2.4051   -1.5720    0.1382 N   0  0  0  0  0  0  0  0  0  3  0  0
    2.1618    0.5697   -0.9924 H   0  0  0  0  0  0  0  0  0  4  0  0
    2.5421   -2.5124    0.5053 H   0  0  0  0  0  0  0  0  0  5  0  0
   -3.1828    0.2867    1.7575 C   0  0  0  0  0  0  0  0  0  6  0  0
   -2.3755   -0.7454    1.0387 C   0  0  0  0  0  0  0  0  0  7  0  0
   -1.2267   -0.5397    0.4182 C   0  0  0  0  0  0  0  0  0  8  0  0
   -0.6225    0.7017    0.4273 O   0  0  0  0  0  0  0  0  0  9  0  0
    0.1918    0.8566   -0.6946 N   0  0  0  0  0  0  0  0  0 10  0  0
    1.4790    1.1001   -0.3129 N   0  0  0  0  0  0  0  0  0 11  0  0
   -0.3599    1.8568   -1.5907 C   0  0  0  0  0  0  0  0  0 12  0  0
   -2.7892    1.2889    1.5945 H   0  0  0  0  0  0  0  0  0 13  0  0
   -3.1873    0.0970    2.8338 H   0  0  0  0  0  0  0  0  0 14  0  0
   -4.2224    0.2626    1.4239 H   0  0  0  0  0  0  0  0  0 15  0  0
   -2.7406   -1.7653    1.0340 H   0  0  0  0  0  0  0  0  0 16  0  0
   -0.6556   -1.3036   -0.0934 H   0  0  0  0  0  0  0  0  0 17  0  0
    1.6102    0.6802    0.6051 H   0  0  0  0  0  0  0  0  0 18  0  0
   -0.4391    2.8290   -1.0963 H   0  0  0  0  0  0  0  0  0 19  0  0
   -1.3395    1.5167   -1.9193 H   0  0  0  0  0  0  0  0  0 20  0  0
    0.3049    1.9326   -2.4492 H   0  0  0  0  0  0  0  0  0 21  0  0
  1  2  1  0
  2  3  1  0
  3  5  1  0
  4 11  1  0
  6  7  1  0
  6 15  1  0
  6 13  1  0
  6 14  1  0
  7  8  1  0
  7 16  1  0
  8 17  1  0
  8  9  1  0
  9 10  1  0
 10 12  1  0
 10 11  1  0
 11 18  1  0
 12 19  1  0
 12 20  1  0
 12 21  1  0
M  RAD  1   1   2
M  END
>  <rmg_smiles>  (3) 
C[CH][CH]ON(N)C.[NH][N][O]

>  <rmg_adjacency_list>  (3) 
multiplicity 2
1  O u0 p2 c0 {3,S} {10,S}
2  O u1 p2 c0 {5,S}
3  N u0 p1 c0 {1,S} {4,S} {7,S}
4  N u0 p1 c0 {3,S} {19,S} {20,S}
5  N u0 p1 c0 {2,S} {6,S}
6  N u0 p1 c0 {5,S} {21,S}
7  C u0 p0 c0 {3,S} {14,S} {15,S} {16,S}
8  C u0 p0 c0 {9,S} {11,S} {12,S} {13,S}
9  C u0 p0 c0 {8,S} {10,S} {17,S}
10 C u0 p0 c0 {1,S} {9,S} {18,S}
11 H u0 p0 c0 {8,S}
12 H u0 p0 c0 {8,S}
13 H u0 p0 c0 {8,S}
14 H u0 p0 c0 {7,S}
15 H u0 p0 c0 {7,S}
16 H u0 p0 c0 {7,S}
17 H u0 p0 c0 {9,S}
18 H u0 p0 c0 {10,S}
19 H u0 p0 c0 {4,S}
20 H u0 p0 c0 {4,S}
21 H u0 p0 c0 {6,S}


>  <multiplicity>  (3) 
2

>  <reaction>  (3) 
rmg_rxn_10711

>  <type>  (3) 
ts

>  <role_mapnums>  (3) 
{"*2": 4, "*1": 1, "*3": 11, "*0": 10, "*4": 2}

>  <role_mapidx>  (3) 
{"*2": 3, "*1": 0, "*3": 10, "*0": 9, "*4": 1}

>  <ordered_mapped_smiles>  (3) 
[O:1][NH:2][NH:3][H:5].[H:4][N:11]([N:10]([O:9][CH:8]([CH:7]([C:6]([H:13])([H:14])[H:15])[H:16])[H:17])[C:12]([H:19])([H:20])[H:21])[H:18]

>  <mol_properties>  (3) 
{"0": {"label": "*1", "atom_type": "O2s"}, "1": {"label": "*4", "atom_type": "N3s"}, "3": {"label": "*2", "atom_type": "H0"}, "9": {"label": "*0", "atom_type": "N3s"}, "10": {"label": "*3", "atom_type": "N3s"}}

>  <level_of_theory>  (3) 
wb97xd/def2tzvp

>  <lot_method>  (3) 
wb97xd

>  <lot_basis>  (3) 
def2tzvp

>  <spin_multiplicity>  (3) 
2.0

>  <optical_isomers>  (3) 
2.0

>  <modes>  (3) 
IdealGasTranslation(mass=(147.088, 'amu')),         NonlinearRotor(             inertia = ([245.952, 782.32, 954.482

>  <frequency_value>  (3) 
-850.802

>  <frequency_units>  (3) 
cm^-1

>  <frequency_list>  (3) 
unknown

>  <arkane_path>  (3) 
/home/calvin/Dropbox/PersonalFolders/Calvin/ZEUS_Converged/rmg_rxn_10711/output/rxns/TS0/arkane/output.py

>  <path_exists>  (3) 
True

>  <E0_value>  (3) 
-1386610.0

>  <E0_units>  (3) 
kJ/mol

>  <thermo_class>  (3) 
unknown

>  <Cp0_value>  (3) 
unknown

>  <Cp0_units>  (3) 
unknown

>  <CpInf_value>  (3) 
unknown

>  <CpInf_units>  (3) 
unknown

>  <Tmin_value>  (3) 
unknown

>  <Tmin_units>  (3) 
unknown

>  <Tmax_value>  (3) 
unknown

>  <Tmax_units>  (3) 
unknown

>  <polynomials>  (3) 
unknown

>  <H298_value>  (3) 
unknown

>  <H298_units>  (3) 
unknown

>  <S298_value>  (3) 
unknown

>  <S298_units>  (3) 
unknown

>  <Cp_T_value_list>  (3) 
unknown

>  <Cp_T_units>  (3) 
unknown

>  <T_list>  (3) 
unknown

>  <T_units>  (3) 
unknown

>  <yaml_path>  (3) 
unknown

>  <frequencies_cm1>  (3) 
unknown

>  <ZPE_kJmol>  (3) 
unknown

>  <E_elec_kJmol>  (3) 
unknown

>  <E0_minus_Eelec_plus_ZPE_kJmol>  (3) 
unknown

>  <rxn>  (3) 
unknown

>  <species_type>  (3) 
unknown

>  <species_folder>  (3) 
unknown

>  <frequencies_cm1_list>  (3) 
[]

>  <ts_imag_freq_cm1>  (3) 
-861.136

>  <ts_freq_out_path>  (3) 
/home/calvin/Dropbox/PersonalFolders/Calvin/ZEUS_Converged/rmg_rxn_10711/output/rxns/TS0/geometry/freq.out

>  <E0_kJmol>  (3) 
-1.38661e+06

>  <H298_kJmol>  (3) 
unknown

$$$$

     RDKit          3D

  4  3  0  0  0  0  0  0  0  0999 V2000
   -0.8019    0.4189    0.0192 N   0  0  0  0  0  0  0  0  0  1  0  0
    0.3609    0.8266    0.0061 N   0  0  0  0  0  0  0  0  0  2  0  0
    0.8339    1.9183    0.0142 O   0  0  0  0  0  1  0  0  0  3  0  0
   -0.7779   -0.6002    0.0040 H   0  0  0  0  0  0  0  0  0  4  0  0
  1  2  1  0
  1  4  1  0
  2  3  1  0
M  RAD  1   3   2
M  END
>  <rmg_smiles>  (4) 
[NH][N][O]

>  <rmg_adjacency_list>  (4) 
multiplicity 2
1 O u1 p2 c0 {3,S}
2 N u0 p1 c0 {3,S} {4,S}
3 N u0 p1 c0 {1,S} {2,S}
4 H u0 p0 c0 {2,S}


>  <multiplicity>  (4) 
2

>  <reaction>  (4) 
rmg_rxn_10711

>  <type>  (4) 
r1

>  <role_mapnums>  (4) 
{}

>  <role_mapidx>  (4) 
{}

>  <ordered_mapped_smiles>  (4) 
[NH:1]([NH:2][O:3])[H:4]

>  <level_of_theory>  (4) 
wb97xd/def2tzvp

>  <lot_method>  (4) 
wb97xd

>  <lot_basis>  (4) 
def2tzvp

>  <spin_multiplicity>  (4) 
2.0

>  <optical_isomers>  (4) 
1.0

>  <modes>  (4) 
IdealGasTranslation(mass=(45.0089, 'amu')),         NonlinearRotor(             inertia = ([2.57086, 40.1656, 42.7365

>  <frequency_value>  (4) 
unknown

>  <frequency_units>  (4) 
unknown

>  <frequency_list>  (4) 
unknown

>  <arkane_path>  (4) 
/home/calvin/Dropbox/PersonalFolders/Calvin/ZEUS_Converged/rmg_rxn_10711/output/Species/rmg_rxn_10711_p1_sbr-NH-sbrN=O/arkane/output.py

>  <path_exists>  (4) 
True

>  <E0_value>  (4) 
-486262.5359899479

>  <E0_units>  (4) 
kJ/mol

>  <thermo_class>  (4) 
NASA

>  <Cp0_value>  (4) 
33.257888

>  <Cp0_units>  (4) 
J/(mol*K)

>  <CpInf_value>  (4) 
83.14472

>  <CpInf_units>  (4) 
J/(mol*K)

>  <Tmin_value>  (4) 
10.0

>  <Tmin_units>  (4) 
K

>  <Tmax_value>  (4) 
3000.0

>  <Tmax_units>  (4) 
K

>  <polynomials>  (4) 
[{"name": "polynomial1", "class": "NASAPolynomial", "Tmin_value": 10.0, "Tmin_units": "K", "Tmax_value": 676.9856828961979, "Tmax_units": "K", "coeffs": [4.05262098728093, -0.003954761701332615, 3.668773832280585e-05, -5.192271787176588e-08, 2.3892887036343525e-11, -58483875.09096317, 6.697599868614398]}, {"name": "polynomial2", "class": "NASAPolynomial", "Tmin_value": 676.9856828961979, "Tmin_units": "K", "Tmax_value": 3000.0, "Tmax_units": "K", "coeffs": [2.5686754735862305, 0.010096727867614426, -6.15294855442235e-06, 1.7932676730687612e-09, -2.007861946186529e-13, -58483795.243655, 12.383665575958386]}]

>  <H298_value>  (4) 
-116217.0238123498

>  <H298_units>  (4) 
kcal/mol

>  <S298_value>  (4) 
59.26910090357278

>  <S298_units>  (4) 
cal/(mol*K)

>  <Cp_T_value_list>  (4) 
[9.855963838140484, 11.186697614124812, 12.420319680705775, 13.450528147679378, 14.991648230062587, 16.106182036096136, 17.69693100081476, 18.44902496722473, 18.85534447519077]

>  <Cp_T_units>  (4) 
cal/(mol*K)

>  <T_list>  (4) 
[300.0, 400.0, 500.0, 600.0, 800.0, 1000.0, 1500.0, 2000.0, 2400.0]

>  <T_units>  (4) 
K

>  <yaml_path>  (4) 
/home/calvin/Dropbox/PersonalFolders/Calvin/ZEUS_Converged/rmg_rxn_10711/output/Species/rmg_rxn_10711_p1_sbr-NH-sbrN=O/rmg_rxn_10711_p1_sbr-NH-sbrN=O.yml

>  <frequencies_cm1>  (4) 
[669.5654036266, 780.2955419115999, 1274.34766774432, 1377.4211173975198, 1744.5026846634398, 3450.4884486669994]

>  <ZPE_kJmol>  (4) 
55.6061572725318

>  <E_elec_kJmol>  (4) 
-486318.1421472204

>  <E0_minus_Eelec_plus_ZPE_kJmol>  (4) 
0.0

>  <rxn>  (4) 
rmg_rxn_10711

>  <species_type>  (4) 
p0

>  <species_folder>  (4) 
rmg_rxn_10711_p1_sbr-NH-sbrN=O

>  <frequencies_cm1_list>  (4) 
[669.5654036266, 780.2955419115999, 1274.34766774432, 1377.4211173975198, 1744.5026846634398, 3450.4884486669994]

>  <E0_kJmol>  (4) 
-486263

>  <H298_kJmol>  (4) 
-486252

$$$$

     RDKit          3D

 16 15  0  0  0  0  0  0  0  0999 V2000
   -2.7163    0.6711   -0.2082 C   0  0  0  0  0  0  0  0  0  1  0  0
   -2.0604   -0.6699   -0.1371 C   0  0  0  0  0  0  0  0  0  2  0  0
   -1.8776   -1.4967   -1.1546 C   0  0  0  0  0  0  0  0  0  3  0  0
   -2.2450   -1.1612   -2.4322 O   0  0  0  0  0  0  0  0  0  4  0  0
   -2.5108   -2.3329   -3.2086 N   0  0  0  0  0  0  0  0  0  5  0  0
   -2.0229   -2.3050   -4.4233 N   0  0  0  0  0  2  0  0  0  6  0  0
   -3.9082   -2.7128   -3.0828 C   0  0  0  0  0  0  0  0  0  7  0  0
   -3.4812    0.7676    0.5653 H   0  0  0  0  0  0  0  0  0  8  0  0
   -3.1809    0.8365   -1.1792 H   0  0  0  0  0  0  0  0  0  9  0  0
   -1.9897    1.4706   -0.0417 H   0  0  0  0  0  0  0  0  0 10  0  0
   -1.6717   -0.9974    0.8197 H   0  0  0  0  0  0  0  0  0 11  0  0
   -1.3990   -2.4648   -1.0638 H   0  0  0  0  0  0  0  0  0 12  0  0
   -1.1779   -1.7364   -4.3793 H   0  0  0  0  0  0  0  0  0 13  0  0
   -4.5563   -1.9305   -3.4853 H   0  0  0  0  0  0  0  0  0 14  0  0
   -4.1357   -2.8800   -2.0315 H   0  0  0  0  0  0  0  0  0 15  0  0
   -4.0457   -3.6333   -3.6440 H   0  0  0  0  0  0  0  0  0 16  0  0
  1 10  1  0
  1  8  1  0
  1  9  1  0
  1  2  1  0
  2 11  1  0
  2  3  1  0
  3  4  1  0
  3 12  1  0
  4  5  1  0
  5  6  1  0
  5  7  1  0
  6 13  1  0
  7 14  1  0
  7 15  1  0
  7 16  1  0
M  RAD  1   6   2
M  END
>  <rmg_smiles>  (5) 
C[CH][CH]ON([NH])C

>  <rmg_adjacency_list>  (5) 
multiplicity 2
1  O u0 p2 c0 {2,S} {7,S}
2  N u0 p1 c0 {1,S} {3,S} {5,S}
3  N u1 p1 c0 {2,S} {16,S}
4  C u0 p0 c0 {6,S} {8,S} {9,S} {10,S}
5  C u0 p0 c0 {2,S} {11,S} {12,S} {13,S}
6  C u0 p0 c0 {4,S} {7,S} {14,S}
7  C u0 p0 c0 {1,S} {6,S} {15,S}
8  H u0 p0 c0 {4,S}
9  H u0 p0 c0 {4,S}
10 H u0 p0 c0 {4,S}
11 H u0 p0 c0 {5,S}
12 H u0 p0 c0 {5,S}
13 H u0 p0 c0 {5,S}
14 H u0 p0 c0 {6,S}
15 H u0 p0 c0 {7,S}
16 H u0 p0 c0 {3,S}


>  <multiplicity>  (5) 
2

>  <reaction>  (5) 
rmg_rxn_10711

>  <type>  (5) 
r2

>  <role_mapnums>  (5) 
{}

>  <role_mapidx>  (5) 
{}

>  <ordered_mapped_smiles>  (5) 
[C:1]([CH:2]([CH:3]([O:4][N:5]([N:6][H:13])[C:7]([H:14])([H:15])[H:16])[H:12])[H:11])([H:8])([H:9])[H:10]

>  <level_of_theory>  (5) 
wb97xd/def2tzvp

>  <lot_method>  (5) 
wb97xd

>  <lot_basis>  (5) 
def2tzvp

>  <spin_multiplicity>  (5) 
2.0

>  <optical_isomers>  (5) 
2.0

>  <modes>  (5) 
IdealGasTranslation(mass=(101.071, 'amu')),         NonlinearRotor(             inertia = ([82.2482, 367.276, 386.349

>  <frequency_value>  (5) 
unknown

>  <frequency_units>  (5) 
unknown

>  <frequency_list>  (5) 
unknown

>  <arkane_path>  (5) 
/home/calvin/Dropbox/PersonalFolders/Calvin/ZEUS_Converged/rmg_rxn_10711/output/Species/rmg_rxn_10711_r2_CC=CONrbr-sbr-NH-sbr-rbrC/arkane/output.py

>  <path_exists>  (5) 
True

>  <E0_value>  (5) 
-898742.9185377804

>  <E0_units>  (5) 
kJ/mol

>  <thermo_class>  (5) 
NASA

>  <Cp0_value>  (5) 
33.257888

>  <Cp0_units>  (5) 
J/(mol*K)

>  <CpInf_value>  (5) 
382.465712

>  <CpInf_units>  (5) 
J/(mol*K)

>  <Tmin_value>  (5) 
10.0

>  <Tmin_units>  (5) 
K

>  <Tmax_value>  (5) 
3000.0

>  <Tmax_units>  (5) 
K

>  <polynomials>  (5) 
[{"name": "polynomial1", "class": "NASAPolynomial", "Tmin_value": 10.0, "Tmin_units": "K", "Tmax_value": 1230.351550791476, "Tmax_units": "K", "coeffs": [3.636448192617725, 0.046012269057782156, -1.0447598723861432e-05, -9.397618320350448e-09, 4.2997715161361366e-12, -108093806.20736969, 13.356245971953898]}, {"name": "polynomial2", "class": "NASAPolynomial", "Tmin_value": 1230.351550791476, "Tmin_units": "K", "Tmax_value": 3000.0, "Tmax_units": "K", "coeffs": [10.637798077256372, 0.03762876756034826, -1.7756617991574368e-05, 4.0613531266158274e-09, -3.6506325325576807e-13, -108096617.32351352, -26.295285854594052]}]

>  <H298_value>  (5) 
-214798.71695714595

>  <H298_units>  (5) 
kcal/mol

>  <S298_value>  (5) 
93.88909266705956

>  <S298_units>  (5) 
cal/(mol*K)

>  <Cp_T_value_list>  (5) 
[32.353584800793946, 39.50241933237663, 45.9535869024618, 51.687318427953755, 61.025931419689, 67.77024327047224, 77.47619958424356, 82.5061792663907, 84.85559276208323]

>  <Cp_T_units>  (5) 
cal/(mol*K)

>  <T_list>  (5) 
[300.0, 400.0, 500.0, 600.0, 800.0, 1000.0, 1500.0, 2000.0, 2400.0]

>  <T_units>  (5) 
K

>  <yaml_path>  (5) 
/home/calvin/Dropbox/PersonalFolders/Calvin/ZEUS_Converged/rmg_rxn_10711/output/Species/rmg_rxn_10711_r2_CC=CONrbr-sbr-NH-sbr-rbrC/rmg_rxn_10711_r2_CC=CONrbr-sbr-NH-sbr-rbrC.yml

>  <frequencies_cm1>  (5) 
[39.766711988119994, 75.63297631448, 123.26238649399998, 170.50724549560002, 210.75464645612, 275.49658405307997, 409.25172411604, 436.20464149704003, 468.50694044231994, 500.21867865008005, 576.8748357772399, 635.10687129084, 759.24136492048, 839.57822617916, 939.32118795216, 961.2680730348799, 1009.44684204, 1040.7534281138799, 1058.9372052412398, 1116.31086758984, 1136.6302771517198, 1158.60463017572, 1269.5201770643598, 1302.9417946168, 1381.1704913822398, 1418.63676328816, 1428.2162078095598, 1447.1828212633998, 1467.8867820031996, 1473.94346305544, 1477.12974424392, 1484.2920099326798, 1743.06061774624, 3013.6108426086, 3018.15678689044, 3068.4780553153996, 3106.953774063359, 3110.6619461361597, 3147.0088994349203, 3149.9479691518795, 3171.6476427630796, 3452.55541124832]

>  <ZPE_kJmol>  (5) 
347.3638170215182

>  <E_elec_kJmol>  (5) 
-899090.2823548019

>  <E0_minus_Eelec_plus_ZPE_kJmol>  (5) 
0.0

>  <rxn>  (5) 
rmg_rxn_10711

>  <species_type>  (5) 
r1

>  <species_folder>  (5) 
rmg_rxn_10711_r2_CC=CONrbr-sbr-NH-sbr-rbrC

>  <frequencies_cm1_list>  (5) 
[39.766711988119994, 75.63297631448, 123.26238649399998, 170.50724549560002, 210.75464645612, 275.49658405307997, 409.25172411604, 436.20464149704003, 468.50694044231994, 500.21867865008005, 576.8748357772399, 635.10687129084, 759.24136492048, 839.57822617916, 939.32118795216, 961.2680730348799, 1009.44684204, 1040.7534281138799, 1058.9372052412398, 1116.31086758984, 1136.6302771517198, 1158.60463017572, 1269.5201770643598, 1302.9417946168, 1381.1704913822398, 1418.63676328816, 1428.2162078095598, 1447.1828212633998, 1467.8867820031996, 1473.94346305544, 1477.12974424392, 1484.2920099326798, 1743.06061774624, 3013.6108426086, 3018.15678689044, 3068.4780553153996, 3106.953774063359, 3110.6619461361597, 3147.0088994349203, 3149.9479691518795, 3171.6476427630796, 3452.55541124832]

>  <E0_kJmol>  (5) 
-898743

>  <H298_kJmol>  (5) 
-898718

$$$$
