
     RDKit          3D

 18 17  0  0  0  0  0  0  0  0999 V2000
    1.7470   -1.0692   -1.5849 C   0  0  0  0  0  0  0  0  0  1  0  0
    1.2742   -1.5008   -0.2214 C   0  0  0  0  0  0  0  0  0  2  0  0
    0.7348   -0.4118    0.6608 C   0  0  0  0  0  0  0  0  0  3  0  0
   -0.4491    0.1097    0.1011 O   0  0  0  0  0  0  0  0  0  4  0  0
   -1.0062    1.1534    0.8615 C   0  0  0  0  0  0  0  0  0  5  0  0
   -2.2624    1.6410    0.1779 C   0  0  0  0  0  0  0  0  0  6  0  0
    2.4936   -0.2745   -1.5054 H   0  0  0  0  0  0  0  0  0  7  0  0
    0.9159   -0.6820   -2.1801 H   0  0  0  0  0  0  0  0  0  8  0  0
    2.1942   -1.9007   -2.1324 H   0  0  0  0  0  0  0  0  0  9  0  0
    2.1520   -1.8568    0.3185 H   0  0  0  0  0  0  0  0  0 10  0  0
    0.6216   -2.3740   -0.2443 H   0  0  0  0  0  0  0  0  0 11  0  0
    1.4825    0.3906    0.7644 H   0  0  0  0  0  0  0  0  0 12  0  0
    0.5328   -0.8028    1.6686 H   0  0  0  0  0  0  0  0  0 13  0  0
   -1.2341    0.7969    1.8768 H   0  0  0  0  0  0  0  0  0 14  0  0
   -0.2794    1.9729    0.9613 H   0  0  0  0  0  0  0  0  0 15  0  0
   -2.9889    0.8324    0.0913 H   0  0  0  0  0  0  0  0  0 16  0  0
   -2.0348    2.0079   -0.8235 H   0  0  0  0  0  0  0  0  0 17  0  0
   -2.7135    2.4529    0.7506 H   0  0  0  0  0  0  0  0  0 18  0  0
  1  8  1  0
  1  7  1  0
  1  9  1  0
  1  2  1  0
  2 10  1  0
  2 11  1  0
  2  3  1  0
  3  4  1  0
  3 13  1  0
  3 12  1  0
  4  5  1  0
  5  6  1  0
  5 14  1  0
  5 15  1  0
  6 17  1  0
  6 18  1  0
  6 16  1  0
M  END
>  <rmg_smiles>  (1) 
CCCOCC

>  <rmg_adjacency_list>  (1) 
1  O u0 p2 c0 {3,S} {4,S}
2  C u0 p0 c0 {3,S} {5,S} {7,S} {8,S}
3  C u0 p0 c0 {1,S} {2,S} {9,S} {10,S}
4  C u0 p0 c0 {1,S} {6,S} {11,S} {12,S}
5  C u0 p0 c0 {2,S} {13,S} {14,S} {15,S}
6  C u0 p0 c0 {4,S} {16,S} {17,S} {18,S}
7  H u0 p0 c0 {2,S}
8  H u0 p0 c0 {2,S}
9  H u0 p0 c0 {3,S}
10 H u0 p0 c0 {3,S}
11 H u0 p0 c0 {4,S}
12 H u0 p0 c0 {4,S}
13 H u0 p0 c0 {5,S}
14 H u0 p0 c0 {5,S}
15 H u0 p0 c0 {5,S}
16 H u0 p0 c0 {6,S}
17 H u0 p0 c0 {6,S}
18 H u0 p0 c0 {6,S}


>  <multiplicity>  (1) 
1

>  <reaction>  (1) 
rmg_rxn_224

>  <type>  (1) 
r1h

>  <role_mapnums>  (1) 
{"r1h_a": 2, "r1h_h": 10}

>  <role_mapidx>  (1) 
{"r1h_a": 1, "r1h_h": 9}

>  <ordered_mapped_smiles>  (1) 
[C:1]([C:2]([C:3]([O:4][C:5]([C:6]([H:16])([H:17])[H:18])([H:14])[H:15])([H:12])[H:13])([H:10])[H:11])([H:7])([H:8])[H:9]

>  <mol_properties>  (1) 
{"1": {"label": "donator", "atom_type": "Cs"}, "9": {"label": "d_hydrogen", "atom_type": "H0"}}

>  <level_of_theory>  (1) 
wb97xd/def2tzvp

>  <lot_method>  (1) 
wb97xd

>  <lot_basis>  (1) 
def2tzvp

>  <spin_multiplicity>  (1) 
1.0

>  <optical_isomers>  (1) 
2.0

>  <modes>  (1) 
IdealGasTranslation(mass=(88.0888, 'amu')),         NonlinearRotor(             inertia = ([59.5652, 317.445, 349.634

>  <frequency_value>  (1) 
unknown

>  <frequency_units>  (1) 
unknown

>  <frequency_list>  (1) 
unknown

>  <arkane_path>  (1) 
/home/calvin/Dropbox/PersonalFolders/Calvin/ATLAS_Converged/rmg_rxn_224/output/Species/rmg_rxn_224_r2_CCCOCC/arkane/output.py

>  <path_exists>  (1) 
True

>  <E0_value>  (1) 
-716327.3605709573

>  <E0_units>  (1) 
kJ/mol

>  <thermo_class>  (1) 
NASA

>  <Cp0_value>  (1) 
33.257888

>  <Cp0_units>  (1) 
J/(mol*K)

>  <CpInf_value>  (1) 
432.352544

>  <CpInf_units>  (1) 
J/(mol*K)

>  <Tmin_value>  (1) 
10.0

>  <Tmin_units>  (1) 
K

>  <Tmax_value>  (1) 
3000.0

>  <Tmax_units>  (1) 
K

>  <polynomials>  (1) 
[{"name": "polynomial1", "class": "NASAPolynomial", "Tmin_value": 10.0, "Tmin_units": "K", "Tmax_value": 424.14701041358796, "Tmax_units": "K", "coeffs": [3.4707042336928127, 0.05746545203879795, -0.00016719847115372115, 4.780470157694204e-07, -4.3347206706639054e-10, -86154279.58985142, 11.635447004604476]}, {"name": "polynomial2", "class": "NASAPolynomial", "Tmin_value": 424.14701041358796, "Tmin_units": "K", "Tmax_value": 3000.0, "Tmax_units": "K", "coeffs": [-2.8535624465972114, 0.06921008708460846, -3.934323609424939e-05, 1.0841890934368647e-08, -1.163418506360095e-12, -86153312.26572455, 41.80111524234505]}]

>  <H298_value>  (1) 
-171200.6815246165

>  <H298_units>  (1) 
kcal/mol

>  <S298_value>  (1) 
88.37399878129293

>  <S298_units>  (1) 
cal/(mol*K)

>  <Cp_T_value_list>  (1) 
[29.924593767526826, 38.16083070533892, 46.09960348181722, 53.05840207682852, 64.40406715451496, 72.91410593462665, 85.72980278110597, 92.03567805993791, 95.21197800865355]

>  <Cp_T_units>  (1) 
cal/(mol*K)

>  <T_list>  (1) 
[300.0, 400.0, 500.0, 600.0, 800.0, 1000.0, 1500.0, 2000.0, 2400.0]

>  <T_units>  (1) 
K

>  <yaml_path>  (1) 
/home/calvin/Dropbox/PersonalFolders/Calvin/ATLAS_Converged/rmg_rxn_224/output/Species/rmg_rxn_224_r2_CCCOCC/rmg_rxn_224_r2_CCCOCC.yml

>  <frequencies_cm1>  (1) 
[76.60808822992, 85.88538539723999, 152.39213822143998, 171.44115549912, 250.05440344247998, 256.05614861216003, 329.51915756551995, 440.0707542322, 493.7774464199199, 767.98990421816, 823.02879155796, 891.3896304185598, 900.4815189822399, 929.41899512072, 1002.9850088538799, 1082.00340893112, 1102.9065122452, 1152.52734816752, 1174.9617892079598, 1182.44680320676, 1190.2339645596398, 1270.1176047871998, 1295.23017010244, 1305.6473868328799, 1368.30176089256, 1380.4425909383199, 1399.7456866728398, 1405.4521514737598, 1443.92787022172, 1468.7794900948002, 1470.37949767436, 1482.5752636026798, 1487.2448136202797, 1494.6336898246, 1500.58049911172, 1519.49904366832, 2928.8997117010795, 2942.5512785172396, 2962.4655359452395, 2968.54281795344, 3015.14904732028, 3021.7276192568397, 3024.0692612509597, 3058.7338031463196, 3085.2403664815197, 3101.8035350733594, 3104.27564978856, 3105.2988306012394]

>  <ZPE_kJmol>  (1) 
431.0594598774012

>  <E_elec_kJmol>  (1) 
-716758.4200308347

>  <E0_minus_Eelec_plus_ZPE_kJmol>  (1) 
0.0

>  <rxn>  (1) 
rmg_rxn_224

>  <species_type>  (1) 
r1

>  <species_folder>  (1) 
rmg_rxn_224_r2_CCCOCC

>  <frequencies_cm1_list>  (1) 
[76.60808822992, 85.88538539723999, 152.39213822143998, 171.44115549912, 250.05440344247998, 256.05614861216003, 329.51915756551995, 440.0707542322, 493.7774464199199, 767.98990421816, 823.02879155796, 891.3896304185598, 900.4815189822399, 929.41899512072, 1002.9850088538799, 1082.00340893112, 1102.9065122452, 1152.52734816752, 1174.9617892079598, 1182.44680320676, 1190.2339645596398, 1270.1176047871998, 1295.23017010244, 1305.6473868328799, 1368.30176089256, 1380.4425909383199, 1399.7456866728398, 1405.4521514737598, 1443.92787022172, 1468.7794900948002, 1470.37949767436, 1482.5752636026798, 1487.2448136202797, 1494.6336898246, 1500.58049911172, 1519.49904366832, 2928.8997117010795, 2942.5512785172396, 2962.4655359452395, 2968.54281795344, 3015.14904732028, 3021.7276192568397, 3024.0692612509597, 3058.7338031463196, 3085.2403664815197, 3101.8035350733594, 3104.27564978856, 3105.2988306012394]

>  <E0_kJmol>  (1) 
-716327

>  <H298_kJmol>  (1) 
-716304

$$$$

     RDKit          3D

 18 17  0  0  0  0  0  0  0  0999 V2000
   -2.3713    1.2902    0.6549 C   0  0  0  0  0  0  0  0  0  1  0  0
   -1.4635    0.8245   -0.4406 C   0  0  0  0  0  0  0  0  0  2  0  0
   -0.2502    0.3619    0.1099 O   0  0  0  0  0  0  0  0  0  3  0  0
    0.6593   -0.0896   -0.8634 C   0  0  0  0  0  0  0  0  0  4  0  0
    1.9099   -0.6038   -0.1802 C   0  0  0  0  0  0  0  0  0  5  0  0
    1.6510   -1.8092    0.7138 C   0  0  0  0  0  0  0  0  0  6  0  0
   -2.7020    0.5062    1.3322 H   0  0  0  0  0  0  0  0  0  7  0  0
   -2.0279    2.1784    1.1808 H   0  0  0  0  0  0  0  0  0  8  0  0
   -1.2630    1.6454   -1.1447 H   0  0  0  0  0  0  0  0  0  9  0  0
   -1.9418    0.0164   -1.0141 H   0  0  0  0  0  0  0  0  0 10  0  0
    0.1993   -0.8909   -1.4632 H   0  0  0  0  0  0  0  0  0 11  0  0
    0.9102    0.7309   -1.5515 H   0  0  0  0  0  0  0  0  0 12  0  0
    2.3458    0.2103    0.4045 H   0  0  0  0  0  0  0  0  0 13  0  0
    2.6359   -0.8604   -0.9568 H   0  0  0  0  0  0  0  0  0 14  0  0
    1.2364   -2.6400    0.1373 H   0  0  0  0  0  0  0  0  0 15  0  0
    0.9398   -1.5600    1.5013 H   0  0  0  0  0  0  0  0  0 16  0  0
    2.5731   -2.1550    1.1833 H   0  0  0  0  0  0  0  0  0 17  0  0
   -3.2823    1.6084    0.1531 H   0  0  0  0  0  0  0  0  0 18  0  0
  1  8  1  0
  1  7  1  0
  1 18  1  0
  1  2  1  0
  2 10  1  0
  2  9  1  0
  2  3  1  0
  3  4  1  0
  4  5  1  0
  4 12  1  0
  4 11  1  0
  5 14  1  0
  5  6  1  0
  5 13  1  0
  6 17  1  0
  6 15  1  0
  6 16  1  0
M  END
>  <rmg_smiles>  (2) 
CCCOCC

>  <rmg_adjacency_list>  (2) 
1  O u0 p2 c0 {3,S} {4,S}
2  C u0 p0 c0 {3,S} {5,S} {7,S} {8,S}
3  C u0 p0 c0 {1,S} {2,S} {11,S} {12,S}
4  C u0 p0 c0 {1,S} {6,S} {9,S} {10,S}
5  C u0 p0 c0 {2,S} {15,S} {16,S} {17,S}
6  C u0 p0 c0 {4,S} {13,S} {14,S} {18,S}
7  H u0 p0 c0 {2,S}
8  H u0 p0 c0 {2,S}
9  H u0 p0 c0 {4,S}
10 H u0 p0 c0 {4,S}
11 H u0 p0 c0 {3,S}
12 H u0 p0 c0 {3,S}
13 H u0 p0 c0 {6,S}
14 H u0 p0 c0 {6,S}
15 H u0 p0 c0 {5,S}
16 H u0 p0 c0 {5,S}
17 H u0 p0 c0 {5,S}
18 H u0 p0 c0 {6,S}


>  <multiplicity>  (2) 
1

>  <reaction>  (2) 
rmg_rxn_224

>  <type>  (2) 
r2h

>  <role_mapnums>  (2) 
{"r2h_a": 1, "r2h_h": 18}

>  <role_mapidx>  (2) 
{"r2h_a": 0, "r2h_h": 17}

>  <ordered_mapped_smiles>  (2) 
[C:1]([C:2]([O:3][C:4]([C:5]([C:6]([H:15])([H:16])[H:17])([H:13])[H:14])([H:11])[H:12])([H:9])[H:10])([H:7])([H:8])[H:18]

>  <mol_properties>  (2) 
{"0": {"label": "acceptor", "atom_type": "Cs"}, "17": {"label": "a_hydrogen", "atom_type": "H0"}}

>  <level_of_theory>  (2) 
wb97xd/def2tzvp

>  <lot_method>  (2) 
wb97xd

>  <lot_basis>  (2) 
def2tzvp

>  <spin_multiplicity>  (2) 
1.0

>  <optical_isomers>  (2) 
2.0

>  <modes>  (2) 
IdealGasTranslation(mass=(88.0888, 'amu')),         NonlinearRotor(             inertia = ([59.5652, 317.445, 349.634

>  <frequency_value>  (2) 
unknown

>  <frequency_units>  (2) 
unknown

>  <frequency_list>  (2) 
unknown

>  <arkane_path>  (2) 
/home/calvin/Dropbox/PersonalFolders/Calvin/ATLAS_Converged/rmg_rxn_224/output/Species/rmg_rxn_224_p2_CCCOCC/arkane/output.py

>  <path_exists>  (2) 
True

>  <E0_value>  (2) 
-716327.3605709573

>  <E0_units>  (2) 
kJ/mol

>  <thermo_class>  (2) 
NASA

>  <Cp0_value>  (2) 
33.257888

>  <Cp0_units>  (2) 
J/(mol*K)

>  <CpInf_value>  (2) 
432.352544

>  <CpInf_units>  (2) 
J/(mol*K)

>  <Tmin_value>  (2) 
10.0

>  <Tmin_units>  (2) 
K

>  <Tmax_value>  (2) 
3000.0

>  <Tmax_units>  (2) 
K

>  <polynomials>  (2) 
[{"name": "polynomial1", "class": "NASAPolynomial", "Tmin_value": 10.0, "Tmin_units": "K", "Tmax_value": 424.14701041358796, "Tmax_units": "K", "coeffs": [3.4707042336928127, 0.05746545203879795, -0.00016719847115372115, 4.780470157694204e-07, -4.3347206706639054e-10, -86154279.58985142, 11.635447004604476]}, {"name": "polynomial2", "class": "NASAPolynomial", "Tmin_value": 424.14701041358796, "Tmin_units": "K", "Tmax_value": 3000.0, "Tmax_units": "K", "coeffs": [-2.8535624465972114, 0.06921008708460846, -3.934323609424939e-05, 1.0841890934368647e-08, -1.163418506360095e-12, -86153312.26572455, 41.80111524234505]}]

>  <H298_value>  (2) 
-171200.6815246165

>  <H298_units>  (2) 
kcal/mol

>  <S298_value>  (2) 
88.37399878129293

>  <S298_units>  (2) 
cal/(mol*K)

>  <Cp_T_value_list>  (2) 
[29.924593767526826, 38.16083070533892, 46.09960348181722, 53.05840207682852, 64.40406715451496, 72.91410593462665, 85.72980278110597, 92.03567805993791, 95.21197800865355]

>  <Cp_T_units>  (2) 
cal/(mol*K)

>  <T_list>  (2) 
[300.0, 400.0, 500.0, 600.0, 800.0, 1000.0, 1500.0, 2000.0, 2400.0]

>  <T_units>  (2) 
K

>  <yaml_path>  (2) 
/home/calvin/Dropbox/PersonalFolders/Calvin/ATLAS_Converged/rmg_rxn_224/output/Species/rmg_rxn_224_p2_CCCOCC/rmg_rxn_224_p2_CCCOCC.yml

>  <frequencies_cm1>  (2) 
[76.60808822992, 85.88538539723999, 152.39213822143998, 171.44115549912, 250.05440344247998, 256.05614861216003, 329.51915756551995, 440.0707542322, 493.7774464199199, 767.98990421816, 823.02879155796, 891.3896304185598, 900.4815189822399, 929.41899512072, 1002.9850088538799, 1082.00340893112, 1102.9065122452, 1152.52734816752, 1174.9617892079598, 1182.44680320676, 1190.2339645596398, 1270.1176047871998, 1295.23017010244, 1305.6473868328799, 1368.30176089256, 1380.4425909383199, 1399.7456866728398, 1405.4521514737598, 1443.92787022172, 1468.7794900948002, 1470.37949767436, 1482.5752636026798, 1487.2448136202797, 1494.6336898246, 1500.58049911172, 1519.49904366832, 2928.8997117010795, 2942.5512785172396, 2962.4655359452395, 2968.54281795344, 3015.14904732028, 3021.7276192568397, 3024.0692612509597, 3058.7338031463196, 3085.2403664815197, 3101.8035350733594, 3104.27564978856, 3105.2988306012394]

>  <ZPE_kJmol>  (2) 
431.0594598774012

>  <E_elec_kJmol>  (2) 
-716758.4200308347

>  <E0_minus_Eelec_plus_ZPE_kJmol>  (2) 
0.0

>  <rxn>  (2) 
rmg_rxn_224

>  <species_type>  (2) 
p1

>  <species_folder>  (2) 
rmg_rxn_224_p2_CCCOCC

>  <frequencies_cm1_list>  (2) 
[76.60808822992, 85.88538539723999, 152.39213822143998, 171.44115549912, 250.05440344247998, 256.05614861216003, 329.51915756551995, 440.0707542322, 493.7774464199199, 767.98990421816, 823.02879155796, 891.3896304185598, 900.4815189822399, 929.41899512072, 1002.9850088538799, 1082.00340893112, 1102.9065122452, 1152.52734816752, 1174.9617892079598, 1182.44680320676, 1190.2339645596398, 1270.1176047871998, 1295.23017010244, 1305.6473868328799, 1368.30176089256, 1380.4425909383199, 1399.7456866728398, 1405.4521514737598, 1443.92787022172, 1468.7794900948002, 1470.37949767436, 1482.5752636026798, 1487.2448136202797, 1494.6336898246, 1500.58049911172, 1519.49904366832, 2928.8997117010795, 2942.5512785172396, 2962.4655359452395, 2968.54281795344, 3015.14904732028, 3021.7276192568397, 3024.0692612509597, 3058.7338031463196, 3085.2403664815197, 3101.8035350733594, 3104.27564978856, 3105.2988306012394]

>  <E0_kJmol>  (2) 
-716327

>  <H298_kJmol>  (2) 
-716304

$$$$

     RDKit          3D

 35 33  0  0  0  0  0  0  0  0999 V2000
    0.5699   -0.5111    0.8445 C   0  0  0  0  0  3  0  0  0  1  0  0
    1.4777   -0.9768   -0.2510 C   0  0  0  0  0  0  0  0  0  2  0  0
    2.6910   -1.4394    0.2995 O   0  0  0  0  0  0  0  0  0  3  0  0
    3.6005   -1.8909   -0.6738 C   0  0  0  0  0  0  0  0  0  4  0  0
    4.8511   -2.4052    0.0094 C   0  0  0  0  0  0  0  0  0  5  0  0
    4.5922   -3.6105    0.9034 C   0  0  0  0  0  0  0  0  0  6  0  0
    0.2392   -1.2951    1.5218 H   0  0  0  0  0  0  0  0  0  7  0  0
    0.9133    0.3770    1.3704 H   0  0  0  0  0  0  0  0  0  8  0  0
    1.6782   -0.1559   -0.9551 H   0  0  0  0  0  0  0  0  0  9  0  0
    0.9994   -1.7849   -0.8245 H   0  0  0  0  0  0  0  0  0 10  0  0
    3.1405   -2.6923   -1.2736 H   0  0  0  0  0  0  0  0  0 11  0  0
    3.8514   -1.0704   -1.3619 H   0  0  0  0  0  0  0  0  0 12  0  0
    5.2870   -1.5910    0.5941 H   0  0  0  0  0  0  0  0  0 13  0  0
    5.5771   -2.6617   -0.7672 H   0  0  0  0  0  0  0  0  0 14  0  0
    4.1776   -4.4413    0.3269 H   0  0  0  0  0  0  0  0  0 15  0  0
    3.8810   -3.3613    1.6909 H   0  0  0  0  0  0  0  0  0 16  0  0
    5.5143   -3.9563    1.3729 H   0  0  0  0  0  0  0  0  0 17  0  0
   -1.1682    0.7523   -1.8050 C   0  0  0  0  0  0  0  0  0 18  0  0
   -1.6411    0.3207   -0.4416 C   0  0  0  0  0  0  0  0  0 19  0  0
   -2.1804    1.4097    0.4406 C   0  0  0  0  0  0  0  0  0 20  0  0
   -3.3644    1.9312   -0.1190 O   0  0  0  0  0  0  0  0  0 21  0  0
   -3.9215    2.9749    0.6413 C   0  0  0  0  0  0  0  0  0 22  0  0
   -5.1777    3.4625   -0.0422 C   0  0  0  0  0  0  0  0  0 23  0  0
   -0.4217    1.5470   -1.7256 H   0  0  0  0  0  0  0  0  0 24  0  0
   -1.9993    1.1395   -2.4003 H   0  0  0  0  0  0  0  0  0 25  0  0
   -0.7211   -0.0792   -2.3526 H   0  0  0  0  0  0  0  0  0 26  0  0
   -0.5808   -0.1093    0.2106 H   0  0  0  0  0  0  0  0  0 27  0  0
   -2.2937   -0.5525   -0.4644 H   0  0  0  0  0  0  0  0  0 28  0  0
   -1.4327    2.2121    0.5443 H   0  0  0  0  0  0  0  0  0 29  0  0
   -2.3825    1.0187    1.4485 H   0  0  0  0  0  0  0  0  0 30  0  0
   -4.1494    2.6184    1.6567 H   0  0  0  0  0  0  0  0  0 31  0  0
   -3.1947    3.7944    0.7411 H   0  0  0  0  0  0  0  0  0 32  0  0
   -5.9042    2.6538   -0.1289 H   0  0  0  0  0  0  0  0  0 33  0  0
   -4.9501    3.8294   -1.0437 H   0  0  0  0  0  0  0  0  0 34  0  0
   -5.6288    4.2744    0.5304 H   0  0  0  0  0  0  0  0  0 35  0  0
  1  7  1  0
  1  8  1  0
  1  2  1  0
  2  3  1  0
  2 10  1  0
  2  9  1  0
  3  4  1  0
  4 11  1  0
  4 12  1  0
  4  5  1  0
  5 14  1  0
  5 13  1  0
  5  6  1  0
  6 16  1  0
  6 17  1  0
  6 15  1  0
 18 19  1  0
 18 24  1  0
 18 25  1  0
 18 26  1  0
 19 27  1  0
 19 28  1  0
 19 20  1  0
 20 30  1  0
 20 21  1  0
 20 29  1  0
 21 22  1  0
 22 32  1  0
 22 23  1  0
 22 31  1  0
 23 34  1  0
 23 33  1  0
 23 35  1  0
M  RAD  1   1   2
M  END
>  <rmg_smiles>  (3) 
CCCOCC.[CH2]COCCC

>  <rmg_adjacency_list>  (3) 
multiplicity 2
1  O u0 p2 c0 {6,S} {7,S}
2  O u0 p2 c0 {5,S} {8,S}
3  C u0 p0 c0 {5,S} {9,S} {13,S} {14,S}
4  C u0 p0 c0 {6,S} {10,S} {15,S} {16,S}
5  C u0 p0 c0 {2,S} {3,S} {17,S} {18,S}
6  C u0 p0 c0 {1,S} {4,S} {19,S} {20,S}
7  C u0 p0 c0 {1,S} {11,S} {21,S} {22,S}
8  C u0 p0 c0 {2,S} {12,S} {23,S} {24,S}
9  C u0 p0 c0 {3,S} {25,S} {26,S} {27,S}
10 C u0 p0 c0 {4,S} {28,S} {29,S} {30,S}
11 C u0 p0 c0 {7,S} {31,S} {32,S} {33,S}
12 C u1 p0 c0 {8,S} {34,S} {35,S}
13 H u0 p0 c0 {3,S}
14 H u0 p0 c0 {3,S}
15 H u0 p0 c0 {4,S}
16 H u0 p0 c0 {4,S}
17 H u0 p0 c0 {5,S}
18 H u0 p0 c0 {5,S}
19 H u0 p0 c0 {6,S}
20 H u0 p0 c0 {6,S}
21 H u0 p0 c0 {7,S}
22 H u0 p0 c0 {7,S}
23 H u0 p0 c0 {8,S}
24 H u0 p0 c0 {8,S}
25 H u0 p0 c0 {9,S}
26 H u0 p0 c0 {9,S}
27 H u0 p0 c0 {9,S}
28 H u0 p0 c0 {10,S}
29 H u0 p0 c0 {10,S}
30 H u0 p0 c0 {10,S}
31 H u0 p0 c0 {11,S}
32 H u0 p0 c0 {11,S}
33 H u0 p0 c0 {11,S}
34 H u0 p0 c0 {12,S}
35 H u0 p0 c0 {12,S}


>  <multiplicity>  (3) 
2

>  <reaction>  (3) 
rmg_rxn_224

>  <type>  (3) 
ts

>  <role_mapnums>  (3) 
{"*2": 27, "*1": 19, "*3": 1, "*0": 20, "*4": 2}

>  <role_mapidx>  (3) 
{"*2": 26, "*1": 18, "*3": 0, "*0": 19, "*4": 1}

>  <ordered_mapped_smiles>  (3) 
[C:1]([C:2]([O:3][C:4]([C:5]([C:6]([H:15])([H:16])[H:17])([H:13])[H:14])([H:11])[H:12])([H:9])[H:10])([H:7])[H:8].[C:18]([C:19]([C:20]([O:21][C:22]([C:23]([H:33])([H:34])[H:35])([H:31])[H:32])([H:29])[H:30])([H:27])[H:28])([H:24])([H:25])[H:26]

>  <mol_properties>  (3) 
{"0": {"label": "*3", "atom_type": "Cs"}, "1": {"label": "*4", "atom_type": "Cs"}, "18": {"label": "*1", "atom_type": "Cs"}, "19": {"label": "*0", "atom_type": "Cs"}, "26": {"label": "*2", "atom_type": "H0"}}

>  <level_of_theory>  (3) 
wb97xd/def2tzvp

>  <lot_method>  (3) 
wb97xd

>  <lot_basis>  (3) 
def2tzvp

>  <spin_multiplicity>  (3) 
2.0

>  <optical_isomers>  (3) 
2.0

>  <modes>  (3) 
IdealGasTranslation(mass=(175.17, 'amu')),         NonlinearRotor(             inertia = ([148.773, 2720.75, 2794.31

>  <frequency_value>  (3) 
-1684.66

>  <frequency_units>  (3) 
cm^-1

>  <frequency_list>  (3) 
unknown

>  <arkane_path>  (3) 
/home/calvin/Dropbox/PersonalFolders/Calvin/ATLAS_Converged/rmg_rxn_224/output/rxns/TS0/arkane/output.py

>  <path_exists>  (3) 
True

>  <E0_value>  (3) 
-1430860.0

>  <E0_units>  (3) 
kJ/mol

>  <thermo_class>  (3) 
unknown

>  <Cp0_value>  (3) 
unknown

>  <Cp0_units>  (3) 
unknown

>  <CpInf_value>  (3) 
unknown

>  <CpInf_units>  (3) 
unknown

>  <Tmin_value>  (3) 
unknown

>  <Tmin_units>  (3) 
unknown

>  <Tmax_value>  (3) 
unknown

>  <Tmax_units>  (3) 
unknown

>  <polynomials>  (3) 
unknown

>  <H298_value>  (3) 
unknown

>  <H298_units>  (3) 
unknown

>  <S298_value>  (3) 
unknown

>  <S298_units>  (3) 
unknown

>  <Cp_T_value_list>  (3) 
unknown

>  <Cp_T_units>  (3) 
unknown

>  <T_list>  (3) 
unknown

>  <T_units>  (3) 
unknown

>  <yaml_path>  (3) 
unknown

>  <frequencies_cm1>  (3) 
unknown

>  <ZPE_kJmol>  (3) 
unknown

>  <E_elec_kJmol>  (3) 
unknown

>  <E0_minus_Eelec_plus_ZPE_kJmol>  (3) 
unknown

>  <rxn>  (3) 
unknown

>  <species_type>  (3) 
unknown

>  <species_folder>  (3) 
unknown

>  <frequencies_cm1_list>  (3) 
[]

>  <ts_imag_freq_cm1>  (3) 
-1705.1183

>  <ts_freq_out_path>  (3) 
/home/calvin/Dropbox/PersonalFolders/Calvin/ATLAS_Converged/rmg_rxn_224/output/rxns/TS0/geometry/freq.out

>  <E0_kJmol>  (3) 
-1.43086e+06

>  <H298_kJmol>  (3) 
unknown

$$$$

     RDKit          3D

 17 16  0  0  0  0  0  0  0  0999 V2000
    2.3993   -0.7259   -0.8796 C   0  0  0  0  0  0  0  0  0  1  0  0
    1.8173   -0.7170    0.4851 C   0  0  0  0  0  3  0  0  0  2  0  0
    2.6779   -0.5182    1.6852 C   0  0  0  0  0  0  0  0  0  3  0  0
    3.8710   -1.2723    1.6674 O   0  0  0  0  0  0  0  0  0  4  0  0
    3.6589   -2.6587    1.8015 C   0  0  0  0  0  0  0  0  0  5  0  0
    4.9969   -3.3586    1.7556 C   0  0  0  0  0  0  0  0  0  6  0  0
    3.3755   -1.2152   -0.8894 H   0  0  0  0  0  0  0  0  0  7  0  0
    1.7457   -1.2284   -1.5943 H   0  0  0  0  0  0  0  0  0  8  0  0
    2.5578    0.2962   -1.2545 H   0  0  0  0  0  0  0  0  0  9  0  0
    0.7445   -0.6275    0.6059 H   0  0  0  0  0  0  0  0  0 10  0  0
    2.1057   -0.7316    2.5992 H   0  0  0  0  0  0  0  0  0 11  0  0
    3.0103    0.5272    1.7516 H   0  0  0  0  0  0  0  0  0 12  0  0
    3.0050   -3.0235    0.9977 H   0  0  0  0  0  0  0  0  0 13  0  0
    3.1469   -2.8645    2.7531 H   0  0  0  0  0  0  0  0  0 14  0  0
    5.6430   -3.0039    2.5594 H   0  0  0  0  0  0  0  0  0 15  0  0
    4.8641   -4.4360    1.8660 H   0  0  0  0  0  0  0  0  0 16  0  0
    5.4957   -3.1672    0.8046 H   0  0  0  0  0  0  0  0  0 17  0  0
  1  8  1  0
  1  7  1  0
  1  9  1  0
  1  2  1  0
  2 10  1  0
  2  3  1  0
  3 11  1  0
  3  4  1  0
  3 12  1  0
  4  5  1  0
  5 13  1  0
  5  6  1  0
  5 14  1  0
  6 17  1  0
  6 15  1  0
  6 16  1  0
M  RAD  1   2   2
M  END
>  <rmg_smiles>  (4) 
C[CH]COCC

>  <rmg_adjacency_list>  (4) 
multiplicity 2
1  O u0 p2 c0 {2,S} {3,S}
2  C u0 p0 c0 {1,S} {4,S} {7,S} {8,S}
3  C u0 p0 c0 {1,S} {6,S} {9,S} {10,S}
4  C u0 p0 c0 {2,S} {11,S} {12,S} {13,S}
5  C u0 p0 c0 {6,S} {14,S} {15,S} {16,S}
6  C u1 p0 c0 {3,S} {5,S} {17,S}
7  H u0 p0 c0 {2,S}
8  H u0 p0 c0 {2,S}
9  H u0 p0 c0 {3,S}
10 H u0 p0 c0 {3,S}
11 H u0 p0 c0 {4,S}
12 H u0 p0 c0 {4,S}
13 H u0 p0 c0 {4,S}
14 H u0 p0 c0 {5,S}
15 H u0 p0 c0 {5,S}
16 H u0 p0 c0 {5,S}
17 H u0 p0 c0 {6,S}


>  <multiplicity>  (4) 
2

>  <reaction>  (4) 
rmg_rxn_224

>  <type>  (4) 
r1

>  <role_mapnums>  (4) 
{}

>  <role_mapidx>  (4) 
{}

>  <ordered_mapped_smiles>  (4) 
[C:1]([C:2]([C:3]([O:4][C:5]([C:6]([H:15])([H:16])[H:17])([H:13])[H:14])([H:11])[H:12])[H:10])([H:7])([H:8])[H:9]

>  <level_of_theory>  (4) 
wb97xd/def2tzvp

>  <lot_method>  (4) 
wb97xd

>  <lot_basis>  (4) 
def2tzvp

>  <spin_multiplicity>  (4) 
2.0

>  <optical_isomers>  (4) 
2.0

>  <modes>  (4) 
IdealGasTranslation(mass=(87.081, 'amu')),         NonlinearRotor(             inertia = ([77.2255, 257.211, 294.472

>  <frequency_value>  (4) 
unknown

>  <frequency_units>  (4) 
unknown

>  <frequency_list>  (4) 
unknown

>  <arkane_path>  (4) 
/home/calvin/Dropbox/PersonalFolders/Calvin/ATLAS_Converged/rmg_rxn_224/output/Species/rmg_rxn_224_p1_Csbr-CH-sbrCOCC/arkane/output.py

>  <path_exists>  (4) 
True

>  <E0_value>  (4) 
-714606.8253684428

>  <E0_units>  (4) 
kJ/mol

>  <thermo_class>  (4) 
NASA

>  <Cp0_value>  (4) 
33.257888

>  <Cp0_units>  (4) 
J/(mol*K)

>  <CpInf_value>  (4) 
407.409128

>  <CpInf_units>  (4) 
J/(mol*K)

>  <Tmin_value>  (4) 
10.0

>  <Tmin_units>  (4) 
K

>  <Tmax_value>  (4) 
3000.0

>  <Tmax_units>  (4) 
K

>  <polynomials>  (4) 
[{"name": "polynomial1", "class": "NASAPolynomial", "Tmin_value": 10.0, "Tmin_units": "K", "Tmax_value": 417.48366752766907, "Tmax_units": "K", "coeffs": [3.371710260367717, 0.06751515529081918, -0.00021419326134089478, 5.55321486035094e-07, -4.841487901490717e-10, -85947346.52177061, 12.699399549539766]}, {"name": "polynomial2", "class": "NASAPolynomial", "Tmin_value": 417.48366752766907, "Tmin_units": "K", "Tmax_value": 3000.0, "Tmax_units": "K", "coeffs": [-0.983429943910518, 0.06366224875335745, -3.6581500232475296e-05, 1.0182072217773507e-08, -1.102266081168474e-12, -85946585.66515122, 34.66344723069078]}]

>  <H298_value>  (4) 
-170789.2030444093

>  <H298_units>  (4) 
kcal/mol

>  <S298_value>  (4) 
92.32827304571522

>  <S298_units>  (4) 
cal/(mol*K)

>  <Cp_T_value_list>  (4) 
[30.644588740591573, 38.260117272479235, 45.51932326502992, 51.86818248028013, 62.191498797087384, 69.90421091576034, 81.44732642755689, 87.10996617013711, 89.98657049419913]

>  <Cp_T_units>  (4) 
cal/(mol*K)

>  <T_list>  (4) 
[300.0, 400.0, 500.0, 600.0, 800.0, 1000.0, 1500.0, 2000.0, 2400.0]

>  <T_units>  (4) 
K

>  <yaml_path>  (4) 
/home/calvin/Dropbox/PersonalFolders/Calvin/ATLAS_Converged/rmg_rxn_224/output/Species/rmg_rxn_224_p1_Csbr-CH-sbrCOCC/rmg_rxn_224_p1_Csbr-CH-sbrCOCC.yml

>  <frequencies_cm1>  (4) 
[58.486113970439995, 80.89995405491999, 91.01502343127999, 148.7045671046, 233.68351043959998, 268.54032792391996, 295.53444721683996, 386.91342087008, 426.66639888756004, 628.1780831029599, 820.4468050776399, 853.1130542448799, 876.6050110245999, 927.82585452648, 984.0183954000399, 1025.0280317310799, 1086.20600394696, 1127.14010343948, 1146.72474557212, 1165.95917145344, 1177.46823884976, 1286.9897877184399, 1294.8456189245198, 1363.7489496253997, 1371.8863272295998, 1388.0786786141598, 1403.05557359708, 1423.88314007264, 1459.15197667616, 1465.5382730237598, 1469.9674785551601, 1470.4687684835199, 1486.8533954570398, 1514.4861443847199, 2944.5564382306798, 2947.06288787248, 2949.60367244088, 2978.74029115364, 2981.5557551348397, 3022.6203273484402, 3042.07449676, 3090.13652701468, 3099.94258205164, 3102.6756422089998, 3156.8286884425197]

>  <ZPE_kJmol>  (4) 
391.920120724621

>  <E_elec_kJmol>  (4) 
-714998.7454891674

>  <E0_minus_Eelec_plus_ZPE_kJmol>  (4) 
0.0

>  <rxn>  (4) 
rmg_rxn_224

>  <species_type>  (4) 
p0

>  <species_folder>  (4) 
rmg_rxn_224_p1_Csbr-CH-sbrCOCC

>  <frequencies_cm1_list>  (4) 
[58.486113970439995, 80.89995405491999, 91.01502343127999, 148.7045671046, 233.68351043959998, 268.54032792391996, 295.53444721683996, 386.91342087008, 426.66639888756004, 628.1780831029599, 820.4468050776399, 853.1130542448799, 876.6050110245999, 927.82585452648, 984.0183954000399, 1025.0280317310799, 1086.20600394696, 1127.14010343948, 1146.72474557212, 1165.95917145344, 1177.46823884976, 1286.9897877184399, 1294.8456189245198, 1363.7489496253997, 1371.8863272295998, 1388.0786786141598, 1403.05557359708, 1423.88314007264, 1459.15197667616, 1465.5382730237598, 1469.9674785551601, 1470.4687684835199, 1486.8533954570398, 1514.4861443847199, 2944.5564382306798, 2947.06288787248, 2949.60367244088, 2978.74029115364, 2981.5557551348397, 3022.6203273484402, 3042.07449676, 3090.13652701468, 3099.94258205164, 3102.6756422089998, 3156.8286884425197]

>  <E0_kJmol>  (4) 
-714607

>  <H298_kJmol>  (4) 
-714582

$$$$

     RDKit          3D

 17 16  0  0  0  0  0  0  0  0999 V2000
    3.3619    0.3511   -1.0290 C   0  0  0  0  0  3  0  0  0  1  0  0
    2.1806    1.0643   -0.5073 C   0  0  0  0  0  0  0  0  0  2  0  0
    1.4028    0.1998    0.2757 O   0  0  0  0  0  0  0  0  0  3  0  0
    0.2433    0.8081    0.7885 C   0  0  0  0  0  0  0  0  0  4  0  0
   -0.5040   -0.1878    1.6510 C   0  0  0  0  0  0  0  0  0  5  0  0
    0.2852   -0.6298    2.8762 C   0  0  0  0  0  0  0  0  0  6  0  0
    4.1174    0.8902   -1.5820 H   0  0  0  0  0  0  0  0  0  7  0  0
    3.4399   -0.7198   -0.9141 H   0  0  0  0  0  0  0  0  0  8  0  0
    1.5724    1.4684   -1.3398 H   0  0  0  0  0  0  0  0  0  9  0  0
    2.4896    1.9442    0.0856 H   0  0  0  0  0  0  0  0  0 10  0  0
    0.5169    1.6937    1.3835 H   0  0  0  0  0  0  0  0  0 11  0  0
   -0.3954    1.1528   -0.0379 H   0  0  0  0  0  0  0  0  0 12  0  0
   -0.7611   -1.0545    1.0367 H   0  0  0  0  0  0  0  0  0 13  0  0
   -1.4466    0.2743    1.9571 H   0  0  0  0  0  0  0  0  0 14  0  0
    0.5263    0.2245    3.5136 H   0  0  0  0  0  0  0  0  0 15  0  0
    1.2220   -1.1033    2.5825 H   0  0  0  0  0  0  0  0  0 16  0  0
   -0.2849   -1.3427    3.4737 H   0  0  0  0  0  0  0  0  0 17  0  0
  1  8  1  0
  1  7  1  0
  1  2  1  0
  2 10  1  0
  2  9  1  0
  2  3  1  0
  3  4  1  0
  4  5  1  0
  4 12  1  0
  4 11  1  0
  5 14  1  0
  5  6  1  0
  5 13  1  0
  6 17  1  0
  6 15  1  0
  6 16  1  0
M  RAD  1   1   2
M  END
>  <rmg_smiles>  (5) 
[CH2]COCCC

>  <rmg_adjacency_list>  (5) 
multiplicity 2
1  O u0 p2 c0 {3,S} {4,S}
2  C u0 p0 c0 {3,S} {5,S} {7,S} {8,S}
3  C u0 p0 c0 {1,S} {2,S} {9,S} {10,S}
4  C u0 p0 c0 {1,S} {6,S} {11,S} {12,S}
5  C u0 p0 c0 {2,S} {13,S} {14,S} {15,S}
6  C u1 p0 c0 {4,S} {16,S} {17,S}
7  H u0 p0 c0 {2,S}
8  H u0 p0 c0 {2,S}
9  H u0 p0 c0 {3,S}
10 H u0 p0 c0 {3,S}
11 H u0 p0 c0 {4,S}
12 H u0 p0 c0 {4,S}
13 H u0 p0 c0 {5,S}
14 H u0 p0 c0 {5,S}
15 H u0 p0 c0 {5,S}
16 H u0 p0 c0 {6,S}
17 H u0 p0 c0 {6,S}


>  <multiplicity>  (5) 
2

>  <reaction>  (5) 
rmg_rxn_224

>  <type>  (5) 
r2

>  <role_mapnums>  (5) 
{}

>  <role_mapidx>  (5) 
{}

>  <ordered_mapped_smiles>  (5) 
[C:1]([C:2]([O:3][C:4]([C:5]([C:6]([H:15])([H:16])[H:17])([H:13])[H:14])([H:11])[H:12])([H:9])[H:10])([H:7])[H:8]

>  <level_of_theory>  (5) 
wb97xd/def2tzvp

>  <lot_method>  (5) 
wb97xd

>  <lot_basis>  (5) 
def2tzvp

>  <spin_multiplicity>  (5) 
2.0

>  <optical_isomers>  (5) 
2.0

>  <modes>  (5) 
IdealGasTranslation(mass=(87.081, 'amu')),         NonlinearRotor(             inertia = ([56.6963, 308.928, 339.863

>  <frequency_value>  (5) 
unknown

>  <frequency_units>  (5) 
unknown

>  <frequency_list>  (5) 
unknown

>  <arkane_path>  (5) 
/home/calvin/Dropbox/PersonalFolders/Calvin/ATLAS_Converged/rmg_rxn_224/output/Species/rmg_rxn_224_r1_sbr-CH2-sbrCOCCC/arkane/output.py

>  <path_exists>  (5) 
True

>  <E0_value>  (5) 
-714592.2874414226

>  <E0_units>  (5) 
kJ/mol

>  <thermo_class>  (5) 
NASA

>  <Cp0_value>  (5) 
33.257888

>  <Cp0_units>  (5) 
J/(mol*K)

>  <CpInf_value>  (5) 
407.409128

>  <CpInf_units>  (5) 
J/(mol*K)

>  <Tmin_value>  (5) 
10.0

>  <Tmin_units>  (5) 
K

>  <Tmax_value>  (5) 
3000.0

>  <Tmax_units>  (5) 
K

>  <polynomials>  (5) 
[{"name": "polynomial1", "class": "NASAPolynomial", "Tmin_value": 10.0, "Tmin_units": "K", "Tmax_value": 421.035855830905, "Tmax_units": "K", "coeffs": [3.3789406813208065, 0.06590596017086366, -0.00019249809040560733, 4.899813308840383e-07, -4.242410627799397e-10, -85945598.19070739, 12.514736539096582]}, {"name": "polynomial2", "class": "NASAPolynomial", "Tmin_value": 421.035855830905, "Tmin_units": "K", "Tmax_value": 3000.0, "Tmax_units": "K", "coeffs": [-0.7031553085295065, 0.06341059745348604, -3.655347709588294e-05, 1.021357311823544e-08, -1.1100139129408708e-12, -85944888.58939976, 33.02208008641289]}]

>  <H298_value>  (5) 
-170785.6861885609

>  <H298_units>  (5) 
kcal/mol

>  <S298_value>  (5) 
92.09384257836304

>  <S298_units>  (5) 
cal/(mol*K)

>  <Cp_T_value_list>  (5) 
[31.038265619376926, 38.63102462361129, 45.847029798195116, 52.15666973937588, 62.409780220359046, 70.06398140589506, 81.51278875283624, 87.14396027312499, 90.01864155696947]

>  <Cp_T_units>  (5) 
cal/(mol*K)

>  <T_list>  (5) 
[300.0, 400.0, 500.0, 600.0, 800.0, 1000.0, 1500.0, 2000.0, 2400.0]

>  <T_units>  (5) 
K

>  <yaml_path>  (5) 
/home/calvin/Dropbox/PersonalFolders/Calvin/ATLAS_Converged/rmg_rxn_224/output/Species/rmg_rxn_224_r1_sbr-CH2-sbrCOCCC/rmg_rxn_224_r1_sbr-CH2-sbrCOCCC.yml

>  <frequencies_cm1>  (5) 
[70.26986077955999, 88.4467709216, 104.549851497, 153.07883675344, 172.60167601819998, 255.52052375720004, 329.3406159472, 414.08608178132, 453.8047248722, 492.96027516683995, 765.9229416368398, 873.5492025571998, 892.37160931932, 924.52970157288, 955.5272733073599, 1010.5936285884401, 1091.5691194818799, 1101.61551900504, 1147.9951378563198, 1175.99183700596, 1193.5163835426, 1228.5654766158798, 1271.8686860438, 1305.08429403664, 1367.51892456608, 1378.9249871825998, 1404.3190988959598, 1420.9784052822797, 1445.0952577261198, 1468.6833523003202, 1476.29197203488, 1483.39930184108, 1494.4551482062798, 1509.4526441451599, 2863.5603463812795, 2892.74503399128, 2932.77955840688, 2965.8028908107603, 3015.3275889386, 3021.99543168432, 3058.9535466765597, 3085.6249176594397, 3105.36750045444, 3142.87497427228, 3256.07036028716]

>  <ZPE_kJmol>  (5) 
390.3630165565436

>  <E_elec_kJmol>  (5) 
-714982.6504579792

>  <E0_minus_Eelec_plus_ZPE_kJmol>  (5) 
0.0

>  <rxn>  (5) 
rmg_rxn_224

>  <species_type>  (5) 
r0

>  <species_folder>  (5) 
rmg_rxn_224_r1_sbr-CH2-sbrCOCCC

>  <frequencies_cm1_list>  (5) 
[70.26986077955999, 88.4467709216, 104.549851497, 153.07883675344, 172.60167601819998, 255.52052375720004, 329.3406159472, 414.08608178132, 453.8047248722, 492.96027516683995, 765.9229416368398, 873.5492025571998, 892.37160931932, 924.52970157288, 955.5272733073599, 1010.5936285884401, 1091.5691194818799, 1101.61551900504, 1147.9951378563198, 1175.99183700596, 1193.5163835426, 1228.5654766158798, 1271.8686860438, 1305.08429403664, 1367.51892456608, 1378.9249871825998, 1404.3190988959598, 1420.9784052822797, 1445.0952577261198, 1468.6833523003202, 1476.29197203488, 1483.39930184108, 1494.4551482062798, 1509.4526441451599, 2863.5603463812795, 2892.74503399128, 2932.77955840688, 2965.8028908107603, 3015.3275889386, 3021.99543168432, 3058.9535466765597, 3085.6249176594397, 3105.36750045444, 3142.87497427228, 3256.07036028716]

>  <E0_kJmol>  (5) 
-714592

>  <H298_kJmol>  (5) 
-714567

$$$$
