
     RDKit          3D

  4  3  0  0  0  0  0  0  0  0999 V2000
    0.1885   -0.3944   -0.4976 N   0  0  0  0  0  1  0  0  0  1  0  0
   -0.1392    0.2815    0.3642 N   0  0  0  0  0  0  0  0  0  2  0  0
   -0.0267    1.3690    0.5228 H   0  0  0  0  0  0  0  0  0  3  0  0
   -0.6686    0.0925    1.3152 H   0  0  0  0  0  0  0  0  0  4  0  0
  1  2  1  0
  2  4  1  0
  2  3  1  0
M  RAD  1   1   3
M  END
>  <rmg_smiles>  (1) 
[N]N

>  <rmg_adjacency_list>  (1) 
multiplicity 3
1 N u0 p1 c0 {2,S} {3,S} {4,S}
2 N u2 p2 c0 {1,S}
3 H u0 p0 c0 {1,S}
4 H u0 p0 c0 {1,S}


>  <multiplicity>  (1) 
3

>  <reaction>  (1) 
rmg_rxn_2919

>  <type>  (1) 
r1h

>  <role_mapnums>  (1) 
{"r1h_a": 2, "r1h_h": 3}

>  <role_mapidx>  (1) 
{"r1h_a": 1, "r1h_h": 2}

>  <ordered_mapped_smiles>  (1) 
[N:1][N:2]([H:3])[H:4]

>  <mol_properties>  (1) 
{"1": {"label": "donator", "atom_type": "N3s"}, "2": {"label": "d_hydrogen", "atom_type": "H0"}}

>  <level_of_theory>  (1) 
wb97xd/def2tzvp

>  <lot_method>  (1) 
wb97xd

>  <lot_basis>  (1) 
def2tzvp

>  <spin_multiplicity>  (1) 
1.0

>  <optical_isomers>  (1) 
1.0

>  <modes>  (1) 
IdealGasTranslation(mass=(30.0218, 'amu')),         NonlinearRotor(             inertia = ([1.50487, 12.8196, 14.3245

>  <frequency_value>  (1) 
unknown

>  <frequency_units>  (1) 
unknown

>  <frequency_list>  (1) 
unknown

>  <arkane_path>  (1) 
/home/calvin/Dropbox/PersonalFolders/Calvin/ATLAS_Converged/rmg_rxn_2919/output/Species/rmg_rxn_2919_r2_sbr-N--sbr=sbr-NH2p-sbr/arkane/output.py

>  <path_exists>  (1) 
True

>  <E0_value>  (1) 
-290343.3270485401

>  <E0_units>  (1) 
kJ/mol

>  <thermo_class>  (1) 
NASA

>  <Cp0_value>  (1) 
33.257888

>  <Cp0_units>  (1) 
J/(mol*K)

>  <CpInf_value>  (1) 
83.14472

>  <CpInf_units>  (1) 
J/(mol*K)

>  <Tmin_value>  (1) 
10.0

>  <Tmin_units>  (1) 
K

>  <Tmax_value>  (1) 
3000.0

>  <Tmax_units>  (1) 
K

>  <polynomials>  (1) 
[{"name": "polynomial1", "class": "NASAPolynomial", "Tmin_value": 10.0, "Tmin_units": "K", "Tmax_value": 577.0352788228766, "Tmax_units": "K", "coeffs": [4.030380616883505, -0.0019008598181167807, 1.0187467908882844e-05, 3.717216651212043e-10, -6.798489056365619e-12, -34920237.462823294, 3.3598125163770898]}, {"name": "polynomial2", "class": "NASAPolynomial", "Tmin_value": 577.0352788228766, "Tmin_units": "K", "Tmax_value": 3000.0, "Tmax_units": "K", "coeffs": [1.6902957918737762, 0.00897339188718852, -4.180120064908528e-06, 9.119764219151677e-10, -7.497973682805337e-14, -34919878.378046975, 14.134047186729246]}]

>  <H298_value>  (1) 
-69391.33019595109

>  <H298_units>  (1) 
kcal/mol

>  <S298_value>  (1) 
52.058910218705954

>  <S298_units>  (1) 
cal/(mol*K)

>  <Cp_T_value_list>  (1) 
[8.60850604271585, 9.438794532280511, 10.429609544008756, 11.439865399950794, 13.17508508242361, 14.547472966118054, 16.77887670927768, 17.910165370145137, 18.418342151972396]

>  <Cp_T_units>  (1) 
cal/(mol*K)

>  <T_list>  (1) 
[300.0, 400.0, 500.0, 600.0, 800.0, 1000.0, 1500.0, 2000.0, 2400.0]

>  <T_units>  (1) 
K

>  <yaml_path>  (1) 
/home/calvin/Dropbox/PersonalFolders/Calvin/ATLAS_Converged/rmg_rxn_2919/output/Species/rmg_rxn_2919_r2_sbr-N--sbr=sbr-NH2p-sbr/rmg_rxn_2919_r2_sbr-N--sbr=sbr-NH2p-sbr.yml

>  <frequencies_cm1>  (1) 
[1006.61764408816, 1332.88871759732, 1618.42483418824, 1727.50689599644, 3066.9329836183997, 3077.02058505348]

>  <ZPE_kJmol>  (1) 
70.75549522094992

>  <E_elec_kJmol>  (1) 
-290414.08254376106

>  <E0_minus_Eelec_plus_ZPE_kJmol>  (1) 
0.0

>  <rxn>  (1) 
rmg_rxn_2919

>  <species_type>  (1) 
r1

>  <species_folder>  (1) 
rmg_rxn_2919_r2_sbr-N--sbr=sbr-NH2p-sbr

>  <frequencies_cm1_list>  (1) 
[1006.61764408816, 1332.88871759732, 1618.42483418824, 1727.50689599644, 3066.9329836183997, 3077.02058505348]

>  <E0_kJmol>  (1) 
-290343

>  <H298_kJmol>  (1) 
-290333

$$$$

     RDKit          3D

  3  2  0  0  0  0  0  0  0  0999 V2000
    0.2503    0.4455   -0.3270 N   0  0  0  0  0  0  0  0  0  1  0  0
   -0.2621   -0.3693    0.3760 O   0  0  0  0  0  0  0  0  0  2  0  0
    0.5693   -0.1252   -1.1359 H   0  0  0  0  0  0  0  0  0  3  0  0
  1  3  1  0
  1  2  1  0
M  END
>  <rmg_smiles>  (2) 
[NH][O]

>  <rmg_adjacency_list>  (2) 
1 O u0 p2 c0 {2,S}
2 N u0 p1 c0 {1,S} {3,S}
3 H u0 p0 c0 {2,S}


>  <multiplicity>  (2) 
1

>  <reaction>  (2) 
rmg_rxn_2919

>  <type>  (2) 
r2h

>  <role_mapnums>  (2) 
{"r2h_a": 1, "r2h_h": 3}

>  <role_mapidx>  (2) 
{"r2h_a": 0, "r2h_h": 2}

>  <ordered_mapped_smiles>  (2) 
[NH:1]([OH:2])[H:3]

>  <mol_properties>  (2) 
{"0": {"label": "acceptor", "atom_type": "N3s"}, "2": {"label": "a_hydrogen", "atom_type": "H0"}}

>  <level_of_theory>  (2) 
wb97xd/def2tzvp

>  <lot_method>  (2) 
wb97xd

>  <lot_basis>  (2) 
def2tzvp

>  <spin_multiplicity>  (2) 
1.0

>  <optical_isomers>  (2) 
1.0

>  <modes>  (2) 
IdealGasTranslation(mass=(31.0058, 'amu')),         NonlinearRotor(             inertia = ([0.894997, 11.6018, 12.4968

>  <frequency_value>  (2) 
unknown

>  <frequency_units>  (2) 
unknown

>  <frequency_list>  (2) 
unknown

>  <arkane_path>  (2) 
/home/calvin/Dropbox/PersonalFolders/Calvin/ATLAS_Converged/rmg_rxn_2919/output/Species/rmg_rxn_2919_p1_N=O/arkane/output.py

>  <path_exists>  (2) 
True

>  <E0_value>  (2) 
-342549.8942768721

>  <E0_units>  (2) 
kJ/mol

>  <thermo_class>  (2) 
NASA

>  <Cp0_value>  (2) 
33.257888

>  <Cp0_units>  (2) 
J/(mol*K)

>  <CpInf_value>  (2) 
58.201304

>  <CpInf_units>  (2) 
J/(mol*K)

>  <Tmin_value>  (2) 
10.0

>  <Tmin_units>  (2) 
K

>  <Tmax_value>  (2) 
3000.0

>  <Tmax_units>  (2) 
K

>  <polynomials>  (2) 
[{"name": "polynomial1", "class": "NASAPolynomial", "Tmin_value": 10.0, "Tmin_units": "K", "Tmax_value": 671.7035683460227, "Tmax_units": "K", "coeffs": [4.015397317465916, -0.0008611623196567181, 2.7881895948404837e-06, 3.1572614316441516e-09, -3.856509378623432e-12, -41199236.778277814, 3.7404406180568657]}, {"name": "polynomial2", "class": "NASAPolynomial", "Tmin_value": 671.7035683460227, "Tmin_units": "K", "Tmax_value": 3000.0, "Tmax_units": "K", "coeffs": [2.5318336423252847, 0.004599422101218795, -1.8713112431566604e-06, 3.036396350118557e-10, -1.1135938546781076e-14, -41198961.3591478, 10.874001344432743]}]

>  <H298_value>  (2) 
-81869.03163411531

>  <H298_units>  (2) 
kcal/mol

>  <S298_value>  (2) 
52.668835486753125

>  <S298_units>  (2) 
cal/(mol*K)

>  <Cp_T_value_list>  (2) 
[8.07202091900091, 8.38676819468166, 8.814233368891006, 9.30929347479349, 10.263194936258623, 11.033861153006823, 12.298671151995416, 12.90963850443875, 13.15479935344093]

>  <Cp_T_units>  (2) 
cal/(mol*K)

>  <T_list>  (2) 
[300.0, 400.0, 500.0, 600.0, 800.0, 1000.0, 1500.0, 2000.0, 2400.0]

>  <T_units>  (2) 
K

>  <yaml_path>  (2) 
/home/calvin/Dropbox/PersonalFolders/Calvin/ATLAS_Converged/rmg_rxn_2919/output/Species/rmg_rxn_2919_p1_N=O/rmg_rxn_2919_p1_N=O.yml

>  <frequencies_cm1>  (2) 
[1568.4194470879997, 1706.1986405484797, 2886.20079698132]

>  <ZPE_kJmol>  (2) 
36.84989081913098

>  <E_elec_kJmol>  (2) 
-342586.7441676912

>  <E0_minus_Eelec_plus_ZPE_kJmol>  (2) 
0.0

>  <rxn>  (2) 
rmg_rxn_2919

>  <species_type>  (2) 
p0

>  <species_folder>  (2) 
rmg_rxn_2919_p1_N=O

>  <frequencies_cm1_list>  (2) 
[1568.4194470879997, 1706.1986405484797, 2886.20079698132]

>  <E0_kJmol>  (2) 
-342550

>  <H298_kJmol>  (2) 
-342540

$$$$

     RDKit          3D

  6  4  0  0  0  0  0  0  0  0999 V2000
    0.0050    1.0385    0.7027 N   0  0  0  0  0  2  0  0  0  1  0  0
   -0.5074    0.2237    1.4058 O   0  0  0  0  0  0  0  0  0  2  0  0
    0.6416   -1.6059   -1.4299 N   0  0  0  0  0  1  0  0  0  3  0  0
    0.3139   -0.9299   -0.5681 N   0  0  0  0  0  0  0  0  0  4  0  0
    0.4375    0.2648   -0.3939 H   0  0  0  0  0  0  0  0  0  5  0  0
   -0.2155   -1.1189    0.3829 H   0  0  0  0  0  0  0  0  0  6  0  0
  1  2  1  0
  3  4  1  0
  4  5  1  0
  4  6  1  0
M  RAD  2   1   2   3   3
M  END
>  <rmg_smiles>  (3) 
[N][O].[N]N

>  <rmg_adjacency_list>  (3) 
multiplicity 4
1 O u0 p2 c0 {4,S}
2 N u0 p1 c0 {3,S} {5,S} {6,S}
3 N u2 p2 c0 {2,S}
4 N u1 p2 c0 {1,S}
5 H u0 p0 c0 {2,S}
6 H u0 p0 c0 {2,S}


>  <multiplicity>  (3) 
4

>  <reaction>  (3) 
rmg_rxn_2919

>  <type>  (3) 
ts

>  <role_mapnums>  (3) 
{"*2": 5, "*1": 4, "*3": 1, "*0": 3, "*4": 2}

>  <role_mapidx>  (3) 
{"*2": 4, "*1": 3, "*3": 0, "*0": 2, "*4": 1}

>  <ordered_mapped_smiles>  (3) 
[NH:1][OH:2].[N:3][N:4]([H:5])[H:6]

>  <mol_properties>  (3) 
{"0": {"label": "*3", "atom_type": "N1s"}, "1": {"label": "*4", "atom_type": "O2s"}, "2": {"label": "*0", "atom_type": "N1s"}, "3": {"label": "*1", "atom_type": "N3s"}, "4": {"label": "*2", "atom_type": "H0"}}

>  <level_of_theory>  (3) 
wb97xd/def2tzvp

>  <lot_method>  (3) 
wb97xd

>  <lot_basis>  (3) 
def2tzvp

>  <spin_multiplicity>  (3) 
2.0

>  <optical_isomers>  (3) 
1.0

>  <modes>  (3) 
IdealGasTranslation(mass=(60.0198, 'amu')),         NonlinearRotor(             inertia = ([12.0207, 130.536, 142.557

>  <frequency_value>  (3) 
-949.863

>  <frequency_units>  (3) 
cm^-1

>  <frequency_list>  (3) 
unknown

>  <arkane_path>  (3) 
/home/calvin/Dropbox/PersonalFolders/Calvin/ATLAS_Converged/rmg_rxn_2919/output/rxns/TS0/arkane/output.py

>  <path_exists>  (3) 
True

>  <E0_value>  (3) 
-631370.0

>  <E0_units>  (3) 
kJ/mol

>  <thermo_class>  (3) 
unknown

>  <Cp0_value>  (3) 
unknown

>  <Cp0_units>  (3) 
unknown

>  <CpInf_value>  (3) 
unknown

>  <CpInf_units>  (3) 
unknown

>  <Tmin_value>  (3) 
unknown

>  <Tmin_units>  (3) 
unknown

>  <Tmax_value>  (3) 
unknown

>  <Tmax_units>  (3) 
unknown

>  <polynomials>  (3) 
unknown

>  <H298_value>  (3) 
unknown

>  <H298_units>  (3) 
unknown

>  <S298_value>  (3) 
unknown

>  <S298_units>  (3) 
unknown

>  <Cp_T_value_list>  (3) 
unknown

>  <Cp_T_units>  (3) 
unknown

>  <T_list>  (3) 
unknown

>  <T_units>  (3) 
unknown

>  <yaml_path>  (3) 
unknown

>  <frequencies_cm1>  (3) 
unknown

>  <ZPE_kJmol>  (3) 
unknown

>  <E_elec_kJmol>  (3) 
unknown

>  <E0_minus_Eelec_plus_ZPE_kJmol>  (3) 
unknown

>  <rxn>  (3) 
unknown

>  <species_type>  (3) 
unknown

>  <species_folder>  (3) 
unknown

>  <frequencies_cm1_list>  (3) 
[]

>  <ts_imag_freq_cm1>  (3) 
-961.3996

>  <ts_freq_out_path>  (3) 
/home/calvin/Dropbox/PersonalFolders/Calvin/ATLAS_Converged/rmg_rxn_2919/output/rxns/TS0/geometry/freq.out

>  <E0_kJmol>  (3) 
-631370

>  <H298_kJmol>  (3) 
unknown

$$$$

     RDKit          3D

  3  2  0  0  0  0  0  0  0  0999 V2000
    0.9800   -0.1288    0.0000 N   0  0  0  0  0  2  0  0  0  1  0  0
   -0.0686    0.3788    0.0000 N   0  0  0  0  0  0  0  0  0  2  0  0
   -0.9114   -0.2499    0.0000 H   0  0  0  0  0  0  0  0  0  3  0  0
  1  2  1  0
  2  3  1  0
M  RAD  1   1   2
M  END
>  <rmg_smiles>  (4) 
[N][NH]

>  <rmg_adjacency_list>  (4) 
multiplicity 2
1 N u0 p1 c0 {2,S} {3,S}
2 N u1 p2 c0 {1,S}
3 H u0 p0 c0 {1,S}


>  <multiplicity>  (4) 
2

>  <reaction>  (4) 
rmg_rxn_2919

>  <type>  (4) 
r1

>  <role_mapnums>  (4) 
{}

>  <role_mapidx>  (4) 
{}

>  <ordered_mapped_smiles>  (4) 
[NH:1][NH:2][H:3]

>  <level_of_theory>  (4) 
wb97xd/def2tzvp

>  <lot_method>  (4) 
wb97xd

>  <lot_basis>  (4) 
def2tzvp

>  <spin_multiplicity>  (4) 
2.0

>  <optical_isomers>  (4) 
1.0

>  <modes>  (4) 
IdealGasTranslation(mass=(29.014, 'amu')),         NonlinearRotor(             inertia = ([0.751904, 10.7047, 11.4566

>  <frequency_value>  (4) 
unknown

>  <frequency_units>  (4) 
unknown

>  <frequency_list>  (4) 
unknown

>  <arkane_path>  (4) 
/home/calvin/Dropbox/PersonalFolders/Calvin/ATLAS_Converged/rmg_rxn_2919/output/Species/rmg_rxn_2919_p2_sbr-N-sbr=N/arkane/output.py

>  <path_exists>  (4) 
True

>  <E0_value>  (4) 
-288863.5627165924

>  <E0_units>  (4) 
kJ/mol

>  <thermo_class>  (4) 
NASA

>  <Cp0_value>  (4) 
33.257888

>  <Cp0_units>  (4) 
J/(mol*K)

>  <CpInf_value>  (4) 
58.201304

>  <CpInf_units>  (4) 
J/(mol*K)

>  <Tmin_value>  (4) 
10.0

>  <Tmin_units>  (4) 
K

>  <Tmax_value>  (4) 
3000.0

>  <Tmax_units>  (4) 
K

>  <polynomials>  (4) 
[{"name": "polynomial1", "class": "NASAPolynomial", "Tmin_value": 10.0, "Tmin_units": "K", "Tmax_value": 614.9458980902605, "Tmax_units": "K", "coeffs": [4.013959775431003, -0.0008380595132197441, 4.626107853077776e-06, 5.365778606997546e-11, -2.6593819271876066e-12, -34742262.37901297, 4.131930148142208]}, {"name": "polynomial2", "class": "NASAPolynomial", "Tmin_value": 614.9458980902605, "Tmin_units": "K", "Tmax_value": 3000.0, "Tmax_units": "K", "coeffs": [2.8043651700732757, 0.004451400813017837, -1.9865385387605477e-06, 4.038620545496972e-10, -2.971869250987761e-14, -34742064.85762452, 9.775806249013405]}]

>  <H298_value>  (4) 
-69037.6677676479

>  <H298_units>  (4) 
kcal/mol

>  <S298_value>  (4) 
53.556668246643774

>  <S298_units>  (4) 
cal/(mol*K)

>  <Cp_T_value_list>  (4) 
[8.264393193629319, 8.652827982625906, 9.12515852559691, 9.624949393764455, 10.50975045034507, 11.21454315372466, 12.369045396122171, 12.949452309541892, 13.199540837224339]

>  <Cp_T_units>  (4) 
cal/(mol*K)

>  <T_list>  (4) 
[300.0, 400.0, 500.0, 600.0, 800.0, 1000.0, 1500.0, 2000.0, 2400.0]

>  <T_units>  (4) 
K

>  <yaml_path>  (4) 
/home/calvin/Dropbox/PersonalFolders/Calvin/ATLAS_Converged/rmg_rxn_2919/output/Species/rmg_rxn_2919_p2_sbr-N-sbr=N/rmg_rxn_2919_p2_sbr-N-sbr=N.yml

>  <frequencies_cm1>  (4) 
[1111.88852904376, 1899.923163411, 2882.6574325562]

>  <ZPE_kJmol>  (4) 
35.256765011501805

>  <E_elec_kJmol>  (4) 
-288898.8194816039

>  <E0_minus_Eelec_plus_ZPE_kJmol>  (4) 
0.0

>  <rxn>  (4) 
rmg_rxn_2919

>  <species_type>  (4) 
p1

>  <species_folder>  (4) 
rmg_rxn_2919_p2_sbr-N-sbr=N

>  <frequencies_cm1_list>  (4) 
[1111.88852904376, 1899.923163411, 2882.6574325562]

>  <E0_kJmol>  (4) 
-288864

>  <H298_kJmol>  (4) 
-288854

$$$$

     RDKit          3D

  2  1  0  0  0  0  0  0  0  0999 V2000
    0.0000    0.0000    0.5699 N   0  0  0  0  0  2  0  0  0  1  0  0
    0.0000    0.0000   -0.5699 O   0  0  0  0  0  0  0  0  0  2  0  0
  1  2  1  0
M  RAD  1   1   2
M  END
>  <rmg_smiles>  (5) 
[N]=O

>  <rmg_adjacency_list>  (5) 
multiplicity 2
1 N u1 p2 c0 {2,S}
2 O u0 p2 c0 {1,S}


>  <multiplicity>  (5) 
2

>  <reaction>  (5) 
rmg_rxn_2919

>  <type>  (5) 
r2

>  <role_mapnums>  (5) 
{}

>  <role_mapidx>  (5) 
{}

>  <ordered_mapped_smiles>  (5) 
[NH:1][OH:2]

>  <level_of_theory>  (5) 
wb97xd/def2tzvp

>  <lot_method>  (5) 
wb97xd

>  <lot_basis>  (5) 
def2tzvp

>  <spin_multiplicity>  (5) 
2.0

>  <optical_isomers>  (5) 
1.0

>  <modes>  (5) 
IdealGasTranslation(mass=(29.998, 'amu')),         LinearRotor(inertia=(9.70079, 'amu*angstrom^2'), symmetry=1),         HarmonicOscillator(frequencies=([2034.32

>  <frequency_value>  (5) 
unknown

>  <frequency_units>  (5) 
unknown

>  <frequency_list>  (5) 
unknown

>  <arkane_path>  (5) 
/home/calvin/Dropbox/PersonalFolders/Calvin/ATLAS_Converged/rmg_rxn_2919/output/Species/rmg_rxn_2919_r1_sbr-N-sbr=O/arkane/output.py

>  <path_exists>  (5) 
True

>  <E0_value>  (5) 
-341044.6317811924

>  <E0_units>  (5) 
kJ/mol

>  <thermo_class>  (5) 
NASA

>  <Cp0_value>  (5) 
29.100652

>  <Cp0_units>  (5) 
J/(mol*K)

>  <CpInf_value>  (5) 
37.415124

>  <CpInf_units>  (5) 
J/(mol*K)

>  <Tmin_value>  (5) 
10.0

>  <Tmin_units>  (5) 
K

>  <Tmax_value>  (5) 
3000.0

>  <Tmax_units>  (5) 
K

>  <polynomials>  (5) 
[{"name": "polynomial1", "class": "NASAPolynomial", "Tmin_value": 10.0, "Tmin_units": "K", "Tmax_value": 720.3138643760603, "Tmax_units": "K", "coeffs": [3.505451677336064, -0.00028953210299893214, 6.077025119860231e-07, 1.5112348759071728e-09, -1.3872630628454572e-12, -41018195.02857665, 4.731882697322634]}, {"name": "polynomial2", "class": "NASAPolynomial", "Tmin_value": 720.3138643760603, "Tmin_units": "K", "Tmax_value": 3000.0, "Tmax_units": "K", "coeffs": [2.922952781623477, 0.001616659587859859, -5.952907480043382e-07, 6.416589639706871e-11, 3.635908475569635e-15, -41018076.64733901, 7.590238585995561]}]

>  <H298_value>  (5) 
-81509.5582027967

>  <H298_units>  (5) 
kcal/mol

>  <S298_value>  (5) 
48.9927224470057

>  <S298_units>  (5) 
cal/(mol*K)

>  <Cp_T_value_list>  (5) 
[6.96088983576959, 7.0507603601981605, 7.18337725411879, 7.34698612783888, 7.689766968620922, 7.972917755483923, 8.432720061896857, 8.637612984744813, 8.707384760249072]

>  <Cp_T_units>  (5) 
cal/(mol*K)

>  <T_list>  (5) 
[300.0, 400.0, 500.0, 600.0, 800.0, 1000.0, 1500.0, 2000.0, 2400.0]

>  <T_units>  (5) 
K

>  <yaml_path>  (5) 
/home/calvin/Dropbox/PersonalFolders/Calvin/ATLAS_Converged/rmg_rxn_2919/output/Species/rmg_rxn_2919_r1_sbr-N-sbr=O/rmg_rxn_2919_r1_sbr-N-sbr=O.yml

>  <frequencies_cm1>  (5) 
[2009.90480029612]

>  <ZPE_kJmol>  (5) 
12.021903879155191

>  <E_elec_kJmol>  (5) 
-341056.6536850716

>  <E0_minus_Eelec_plus_ZPE_kJmol>  (5) 
0.0

>  <rxn>  (5) 
rmg_rxn_2919

>  <species_type>  (5) 
r0

>  <species_folder>  (5) 
rmg_rxn_2919_r1_sbr-N-sbr=O

>  <frequencies_cm1_list>  (5) 
[2009.90480029612]

>  <E0_kJmol>  (5) 
-341045

>  <H298_kJmol>  (5) 
-341036

$$$$
