
     RDKit          3D

  8  7  0  0  0  0  0  0  0  0999 V2000
    0.4521    0.6058    0.0225 C   0  0  0  0  0  0  0  0  0  1  0  0
   -0.4183   -0.6222   -0.0227 C   0  0  0  0  0  0  0  0  0  2  0  0
    1.5270    0.3516    0.0152 H   0  0  0  0  0  0  0  0  0  3  0  0
    0.2740    1.2594   -0.8469 H   0  0  0  0  0  0  0  0  0  4  0  0
    0.2703    1.1966    0.9347 H   0  0  0  0  0  0  0  0  0  5  0  0
   -1.4503   -0.2460   -0.0158 H   0  0  0  0  0  0  0  0  0  6  0  0
   -0.3638   -1.2039   -0.9528 H   0  0  0  0  0  0  0  0  0  7  0  0
   -0.3721   -1.2667    0.8656 H   0  0  0  0  0  0  0  0  0  8  0  0
  1  5  1  0
  1  4  1  0
  1  3  1  0
  1  2  1  0
  2  7  1  0
  2  8  1  0
  2  6  1  0
M  END
>  <rmg_smiles>  (1) 
CC

>  <rmg_adjacency_list>  (1) 
1 C u0 p0 c0 {2,S} {3,S} {4,S} {5,S}
2 C u0 p0 c0 {1,S} {6,S} {7,S} {8,S}
3 H u0 p0 c0 {1,S}
4 H u0 p0 c0 {1,S}
5 H u0 p0 c0 {1,S}
6 H u0 p0 c0 {2,S}
7 H u0 p0 c0 {2,S}
8 H u0 p0 c0 {2,S}


>  <multiplicity>  (1) 
1

>  <reaction>  (1) 
rmg_rxn_16796

>  <type>  (1) 
r1h

>  <role_mapnums>  (1) 
{"r1h_a": 2, "r1h_h": 6}

>  <role_mapidx>  (1) 
{"r1h_a": 1, "r1h_h": 5}

>  <ordered_mapped_smiles>  (1) 
[C:1]([C:2]([H:6])([H:7])[H:8])([H:3])([H:4])[H:5]

>  <mol_properties>  (1) 
{"1": {"label": "donator", "atom_type": "Cs"}, "5": {"label": "d_hydrogen", "atom_type": "H0"}}

>  <level_of_theory>  (1) 
wb97xd/def2tzvp

>  <lot_method>  (1) 
wb97xd

>  <lot_basis>  (1) 
def2tzvp

>  <spin_multiplicity>  (1) 
1.0

>  <optical_isomers>  (1) 
1.0

>  <modes>  (1) 
IdealGasTranslation(mass=(30.0469, 'amu')),         NonlinearRotor(             inertia = ([6.34494, 24.7545, 24.7545

>  <frequency_value>  (1) 
unknown

>  <frequency_units>  (1) 
unknown

>  <frequency_list>  (1) 
unknown

>  <arkane_path>  (1) 
/home/calvin/Dropbox/PersonalFolders/Calvin/ZEUS_Converged/rmg_rxn_16796/output/Species/rmg_rxn_16796_r2_CC/arkane/output.py

>  <path_exists>  (1) 
True

>  <E0_value>  (1) 
-209408.1564033932

>  <E0_units>  (1) 
kJ/mol

>  <thermo_class>  (1) 
NASA

>  <Cp0_value>  (1) 
33.257888

>  <Cp0_units>  (1) 
J/(mol*K)

>  <CpInf_value>  (1) 
182.918384

>  <CpInf_units>  (1) 
J/(mol*K)

>  <Tmin_value>  (1) 
10.0

>  <Tmin_units>  (1) 
K

>  <Tmax_value>  (1) 
3000.0

>  <Tmax_units>  (1) 
K

>  <polynomials>  (1) 
[{"name": "polynomial1", "class": "NASAPolynomial", "Tmin_value": 10.0, "Tmin_units": "K", "Tmax_value": 777.092000219486, "Tmax_units": "K", "coeffs": [4.079129018490698, -0.0050724893345107875, 5.632305298299482e-05, -6.417864999414732e-08, 2.3824387390055374e-11, -25185986.121718537, 3.496941860952132]}, {"name": "polynomial2", "class": "NASAPolynomial", "Tmin_value": 777.092000219486, "Tmin_units": "K", "Tmax_value": 3000.0, "Tmax_units": "K", "coeffs": [-1.2484710973664233, 0.026841133380950143, -1.3946579762645854e-05, 3.54155915939166e-09, -3.542655304590802e-13, -25185293.694668185, 26.98357539687793]}]

>  <H298_value>  (1) 
-50047.02919344602

>  <H298_units>  (1) 
kcal/mol

>  <S298_value>  (1) 
54.06436480878596

>  <S298_units>  (1) 
cal/(mol*K)

>  <Cp_T_value_list>  (1) 
[12.095352897564013, 15.031811190445914, 18.06438385592952, 20.939168468099503, 25.767700687032494, 29.476981516148573, 35.35780373286453, 38.376338570056184, 39.82914935078907]

>  <Cp_T_units>  (1) 
cal/(mol*K)

>  <T_list>  (1) 
[300.0, 400.0, 500.0, 600.0, 800.0, 1000.0, 1500.0, 2000.0, 2400.0]

>  <T_units>  (1) 
K

>  <yaml_path>  (1) 
/home/calvin/Dropbox/PersonalFolders/Calvin/ZEUS_Converged/rmg_rxn_16796/output/Species/rmg_rxn_16796_r2_CC/rmg_rxn_16796_r2_CC.yml

>  <frequencies_cm1>  (1) 
[365.30301806804, 843.5885456060399, 843.60227957668, 1034.9027566212399, 1227.6315666123598, 1227.6315666123598, 1396.4357997486, 1420.14063307324, 1491.3169359150397, 1491.3169359150397, 1493.12982003952, 1493.12982003952, 2988.43647442548, 2989.1918428106796, 3049.23676244876, 3049.2436294340796, 3074.3699287199597, 3074.37679570528]

>  <ZPE_kJmol>  (1) 
194.7101464362022

>  <E_elec_kJmol>  (1) 
-209602.8665498294

>  <E0_minus_Eelec_plus_ZPE_kJmol>  (1) 
0.0

>  <rxn>  (1) 
rmg_rxn_16796

>  <species_type>  (1) 
r1

>  <species_folder>  (1) 
rmg_rxn_16796_r2_CC

>  <frequencies_cm1_list>  (1) 
[365.30301806804, 843.5885456060399, 843.60227957668, 1034.9027566212399, 1227.6315666123598, 1227.6315666123598, 1396.4357997486, 1420.14063307324, 1491.3169359150397, 1491.3169359150397, 1493.12982003952, 1493.12982003952, 2988.43647442548, 2989.1918428106796, 3049.23676244876, 3049.2436294340796, 3074.3699287199597, 3074.37679570528]

>  <E0_kJmol>  (1) 
-209408

>  <H298_kJmol>  (1) 
-209397

$$$$

     RDKit          3D

  8  7  0  0  0  0  0  0  0  0999 V2000
    0.3403    1.1604   -0.0110 N   0  0  0  0  0  0  0  0  0  1  0  0
   -0.7713   -1.0162    0.0152 C   0  0  0  0  0  0  0  0  0  2  0  0
    0.4031   -0.0941   -0.0043 C   0  0  0  0  0  0  0  0  0  3  0  0
   -0.7257   -1.6648    0.9037 H   0  0  0  0  0  0  0  0  0  4  0  0
   -1.7127   -0.4474    0.0225 H   0  0  0  0  0  0  0  0  0  5  0  0
   -0.7454   -1.6757   -0.8661 H   0  0  0  0  0  0  0  0  0  6  0  0
    1.3677   -0.6017   -0.0120 H   0  0  0  0  0  0  0  0  0  7  0  0
    1.2700    1.5930   -0.0239 H   0  0  0  0  0  0  0  0  0  8  0  0
  1  8  1  0
  1  3  1  0
  2  5  1  0
  2  6  1  0
  2  3  1  0
  2  4  1  0
  3  7  1  0
M  END
>  <rmg_smiles>  (2) 
C[CH][NH]

>  <rmg_adjacency_list>  (2) 
1 N u0 p1 c0 {3,S} {8,S}
2 C u0 p0 c0 {3,S} {4,S} {5,S} {6,S}
3 C u0 p0 c0 {1,S} {2,S} {7,S}
4 H u0 p0 c0 {2,S}
5 H u0 p0 c0 {2,S}
6 H u0 p0 c0 {2,S}
7 H u0 p0 c0 {3,S}
8 H u0 p0 c0 {1,S}


>  <multiplicity>  (2) 
1

>  <reaction>  (2) 
rmg_rxn_16796

>  <type>  (2) 
r2h

>  <role_mapnums>  (2) 
{"r2h_a": 3, "r2h_h": 7}

>  <role_mapidx>  (2) 
{"r2h_a": 2, "r2h_h": 6}

>  <ordered_mapped_smiles>  (2) 
[NH:1]([CH:3]([C:2]([H:4])([H:5])[H:6])[H:7])[H:8]

>  <mol_properties>  (2) 
{"2": {"label": "acceptor", "atom_type": "Cs"}, "6": {"label": "a_hydrogen", "atom_type": "H0"}}

>  <level_of_theory>  (2) 
wb97xd/def2tzvp

>  <lot_method>  (2) 
wb97xd

>  <lot_basis>  (2) 
def2tzvp

>  <spin_multiplicity>  (2) 
1.0

>  <optical_isomers>  (2) 
2.0

>  <modes>  (2) 
IdealGasTranslation(mass=(43.0422, 'amu')),         NonlinearRotor(             inertia = ([9.58574, 51.8782, 58.2459

>  <frequency_value>  (2) 
unknown

>  <frequency_units>  (2) 
unknown

>  <frequency_list>  (2) 
unknown

>  <arkane_path>  (2) 
/home/calvin/Dropbox/PersonalFolders/Calvin/ZEUS_Converged/rmg_rxn_16796/output/Species/rmg_rxn_16796_p2_CC=N/arkane/output.py

>  <path_exists>  (2) 
True

>  <E0_value>  (2) 
-351532.73105076194

>  <E0_units>  (2) 
kJ/mol

>  <thermo_class>  (2) 
NASA

>  <Cp0_value>  (2) 
33.257888

>  <Cp0_units>  (2) 
J/(mol*K)

>  <CpInf_value>  (2) 
182.918384

>  <CpInf_units>  (2) 
J/(mol*K)

>  <Tmin_value>  (2) 
10.0

>  <Tmin_units>  (2) 
K

>  <Tmax_value>  (2) 
3000.0

>  <Tmax_units>  (2) 
K

>  <polynomials>  (2) 
[{"name": "polynomial1", "class": "NASAPolynomial", "Tmin_value": 10.0, "Tmin_units": "K", "Tmax_value": 595.5373651451594, "Tmax_units": "K", "coeffs": [4.030703313481149, -0.00229058814131209, 6.377490274321222e-05, -8.93766559780865e-08, 4.0934862340445074e-11, -42279622.021195926, 7.585695917242757]}, {"name": "polynomial2", "class": "NASAPolynomial", "Tmin_value": 595.5373651451594, "Tmin_units": "K", "Tmax_value": 3000.0, "Tmax_units": "K", "coeffs": [-0.11565217745608042, 0.027337056045592743, -1.5327895767727505e-05, 4.187529468154553e-09, -4.469900950756201e-13, -42279159.691402115, 25.175708204040994]}]

>  <H298_value>  (2) 
-84015.34890439233

>  <H298_units>  (2) 
kcal/mol

>  <S298_value>  (2) 
63.57157650832207

>  <S298_units>  (2) 
cal/(mol*K)

>  <Cp_T_value_list>  (2) 
[13.913765714474152, 17.18194181639411, 20.300271898294582, 23.081632876583395, 27.63224015948139, 31.06808077557062, 36.31061676624832, 38.93985005203162, 40.26666894785372]

>  <Cp_T_units>  (2) 
cal/(mol*K)

>  <T_list>  (2) 
[300.0, 400.0, 500.0, 600.0, 800.0, 1000.0, 1500.0, 2000.0, 2400.0]

>  <T_units>  (2) 
K

>  <yaml_path>  (2) 
/home/calvin/Dropbox/PersonalFolders/Calvin/ZEUS_Converged/rmg_rxn_16796/output/Species/rmg_rxn_16796_p2_CC=N/rmg_rxn_16796_p2_CC=N.yml

>  <frequencies_cm1>  (2) 
[234.89896684124, 508.23245051851995, 714.5510244579199, 916.92108183832, 1068.95613682312, 1083.47981077492, 1139.4045392209998, 1281.18718512304, 1373.1841874550798, 1414.5234390814799, 1449.02317332916, 1470.9357234852798, 1633.2506554941199, 2948.45001890712, 3002.78847374428, 3084.88328324488, 3091.9562781244804, 3362.8176470865596]

>  <ZPE_kJmol>  (2) 
178.12068223241255

>  <E_elec_kJmol>  (2) 
-351710.8517329944

>  <E0_minus_Eelec_plus_ZPE_kJmol>  (2) 
0.0

>  <rxn>  (2) 
rmg_rxn_16796

>  <species_type>  (2) 
p1

>  <species_folder>  (2) 
rmg_rxn_16796_p2_CC=N

>  <frequencies_cm1_list>  (2) 
[234.89896684124, 508.23245051851995, 714.5510244579199, 916.92108183832, 1068.95613682312, 1083.47981077492, 1139.4045392209998, 1281.18718512304, 1373.1841874550798, 1414.5234390814799, 1449.02317332916, 1470.9357234852798, 1633.2506554941199, 2948.45001890712, 3002.78847374428, 3084.88328324488, 3091.9562781244804, 3362.8176470865596]

>  <E0_kJmol>  (2) 
-351533

>  <H298_kJmol>  (2) 
-351520

$$$$

     RDKit          3D

 15 13  0  0  0  0  0  0  0  0999 V2000
   -1.0637    1.4244   -0.0117 N   0  0  0  0  0  0  0  0  0  1  0  0
   -2.1753   -0.7522    0.0145 C   0  0  0  0  0  0  0  0  0  2  0  0
    2.3539    0.3037    0.0220 C   0  0  0  0  0  0  0  0  0  3  0  0
   -1.0010    0.1700   -0.0050 C   0  0  0  0  0  0  0  0  0  4  0  0
    1.4835   -0.9243   -0.0231 C   0  0  0  0  0  3  0  0  0  5  0  0
   -2.1298   -1.4008    0.9030 H   0  0  0  0  0  0  0  0  0  6  0  0
   -3.1167   -0.1833    0.0217 H   0  0  0  0  0  0  0  0  0  7  0  0
   -2.1495   -1.4116   -0.8668 H   0  0  0  0  0  0  0  0  0  8  0  0
    3.4288    0.0496    0.0147 H   0  0  0  0  0  0  0  0  0  9  0  0
    2.1758    0.9573   -0.8473 H   0  0  0  0  0  0  0  0  0 10  0  0
    2.1721    0.8946    0.9342 H   0  0  0  0  0  0  0  0  0 11  0  0
    0.1648   -0.4435   -0.0143 H   0  0  0  0  0  0  0  0  0 12  0  0
    1.5380   -1.5059   -0.9533 H   0  0  0  0  0  0  0  0  0 13  0  0
    1.5297   -1.5687    0.8651 H   0  0  0  0  0  0  0  0  0 14  0  0
   -0.1340    1.8571   -0.0246 H   0  0  0  0  0  0  0  0  0 15  0  0
  1 15  1  0
  1  4  1  0
  2  8  1  0
  2  7  1  0
  2  6  1  0
  2  4  1  0
  3 11  1  0
  3  5  1  0
  3  9  1  0
  3 10  1  0
  4 12  1  0
  5 14  1  0
  5 13  1  0
M  RAD  1   5   2
M  END
>  <rmg_smiles>  (3) 
C[CH][NH].[CH2]C

>  <rmg_adjacency_list>  (3) 
multiplicity 2
1  N u0 p1 c0 {4,S} {15,S}
2  C u0 p0 c0 {4,S} {6,S} {7,S} {8,S}
3  C u0 p0 c0 {5,S} {9,S} {10,S} {11,S}
4  C u0 p0 c0 {1,S} {2,S} {12,S}
5  C u1 p0 c0 {3,S} {13,S} {14,S}
6  H u0 p0 c0 {2,S}
7  H u0 p0 c0 {2,S}
8  H u0 p0 c0 {2,S}
9  H u0 p0 c0 {3,S}
10 H u0 p0 c0 {3,S}
11 H u0 p0 c0 {3,S}
12 H u0 p0 c0 {4,S}
13 H u0 p0 c0 {5,S}
14 H u0 p0 c0 {5,S}
15 H u0 p0 c0 {1,S}


>  <multiplicity>  (3) 
2

>  <reaction>  (3) 
rmg_rxn_16796

>  <type>  (3) 
ts

>  <role_mapnums>  (3) 
{"*2": 12, "*1": 4, "*3": 5, "*0": 1, "*4": 3}

>  <role_mapidx>  (3) 
{"*2": 11, "*1": 3, "*3": 4, "*0": 0, "*4": 2}

>  <ordered_mapped_smiles>  (3) 
[NH:1]([CH:4]([C:2]([H:6])([H:7])[H:8])[H:12])[H:15].[C:3]([C:5]([H:13])[H:14])([H:9])([H:10])[H:11]

>  <mol_properties>  (3) 
{"0": {"label": "*0", "atom_type": "N3s"}, "2": {"label": "*4", "atom_type": "Cs"}, "3": {"label": "*1", "atom_type": "Cs"}, "4": {"label": "*3", "atom_type": "Cs"}, "11": {"label": "*2", "atom_type": "H0"}}

>  <level_of_theory>  (3) 
wb97xd/def2tzvp

>  <lot_method>  (3) 
wb97xd

>  <lot_basis>  (3) 
def2tzvp

>  <spin_multiplicity>  (3) 
2.0

>  <optical_isomers>  (3) 
2.0

>  <modes>  (3) 
IdealGasTranslation(mass=(72.0813, 'amu')),         NonlinearRotor(             inertia = ([65.6735, 227.632, 283.564

>  <frequency_value>  (3) 
-1732.19

>  <frequency_units>  (3) 
cm^-1

>  <frequency_list>  (3) 
unknown

>  <arkane_path>  (3) 
/home/calvin/Dropbox/PersonalFolders/Calvin/ZEUS_Converged/rmg_rxn_16796/output/rxns/TS0/arkane/output.py

>  <path_exists>  (3) 
True

>  <E0_value>  (3) 
-559171.0

>  <E0_units>  (3) 
kJ/mol

>  <thermo_class>  (3) 
unknown

>  <Cp0_value>  (3) 
unknown

>  <Cp0_units>  (3) 
unknown

>  <CpInf_value>  (3) 
unknown

>  <CpInf_units>  (3) 
unknown

>  <Tmin_value>  (3) 
unknown

>  <Tmin_units>  (3) 
unknown

>  <Tmax_value>  (3) 
unknown

>  <Tmax_units>  (3) 
unknown

>  <polynomials>  (3) 
unknown

>  <H298_value>  (3) 
unknown

>  <H298_units>  (3) 
unknown

>  <S298_value>  (3) 
unknown

>  <S298_units>  (3) 
unknown

>  <Cp_T_value_list>  (3) 
unknown

>  <Cp_T_units>  (3) 
unknown

>  <T_list>  (3) 
unknown

>  <T_units>  (3) 
unknown

>  <yaml_path>  (3) 
unknown

>  <frequencies_cm1>  (3) 
unknown

>  <ZPE_kJmol>  (3) 
unknown

>  <E_elec_kJmol>  (3) 
unknown

>  <E0_minus_Eelec_plus_ZPE_kJmol>  (3) 
unknown

>  <rxn>  (3) 
unknown

>  <species_type>  (3) 
unknown

>  <species_folder>  (3) 
unknown

>  <frequencies_cm1_list>  (3) 
[]

>  <ts_imag_freq_cm1>  (3) 
-1753.2279

>  <ts_freq_out_path>  (3) 
/home/calvin/Dropbox/PersonalFolders/Calvin/ZEUS_Converged/rmg_rxn_16796/output/rxns/TS0/geometry/freq.out

>  <E0_kJmol>  (3) 
-559171

>  <H298_kJmol>  (3) 
unknown

$$$$

     RDKit          3D

  7  6  0  0  0  0  0  0  0  0999 V2000
   -0.0078   -0.6953    0.0000 C   0  0  0  0  0  0  0  0  0  1  0  0
   -0.0078    0.7882    0.0000 C   0  0  0  0  0  3  0  0  0  2  0  0
   -0.5233   -1.0752    0.8864 H   0  0  0  0  0  0  0  0  0  3  0  0
    1.0176   -1.0743    0.0000 H   0  0  0  0  0  0  0  0  0  4  0  0
   -0.5233   -1.0752   -0.8864 H   0  0  0  0  0  0  0  0  0  5  0  0
    0.0615    1.3335    0.9338 H   0  0  0  0  0  0  0  0  0  6  0  0
    0.0615    1.3335   -0.9338 H   0  0  0  0  0  0  0  0  0  7  0  0
  1  5  1  0
  1  4  1  0
  1  3  1  0
  1  2  1  0
  2  7  1  0
  2  6  1  0
M  RAD  1   2   2
M  END
>  <rmg_smiles>  (4) 
C[CH2]

>  <rmg_adjacency_list>  (4) 
multiplicity 2
1 C u0 p0 c0 {2,S} {3,S} {4,S} {5,S}
2 C u1 p0 c0 {1,S} {6,S} {7,S}
3 H u0 p0 c0 {1,S}
4 H u0 p0 c0 {1,S}
5 H u0 p0 c0 {1,S}
6 H u0 p0 c0 {2,S}
7 H u0 p0 c0 {2,S}


>  <multiplicity>  (4) 
2

>  <reaction>  (4) 
rmg_rxn_16796

>  <type>  (4) 
r1

>  <role_mapnums>  (4) 
{}

>  <role_mapidx>  (4) 
{}

>  <ordered_mapped_smiles>  (4) 
[C:1]([C:2]([H:6])[H:7])([H:3])([H:4])[H:5]

>  <level_of_theory>  (4) 
wb97xd/def2tzvp

>  <lot_method>  (4) 
wb97xd

>  <lot_basis>  (4) 
def2tzvp

>  <spin_multiplicity>  (4) 
2.0

>  <optical_isomers>  (4) 
1.0

>  <modes>  (4) 
IdealGasTranslation(mass=(29.0391, 'amu')),         NonlinearRotor(             inertia = ([4.94411, 21.9286, 23.6677

>  <frequency_value>  (4) 
unknown

>  <frequency_units>  (4) 
unknown

>  <frequency_list>  (4) 
unknown

>  <arkane_path>  (4) 
/home/calvin/Dropbox/PersonalFolders/Calvin/ZEUS_Converged/rmg_rxn_16796/output/Species/rmg_rxn_16796_p1_Csbr-CH2-sbr/arkane/output.py

>  <path_exists>  (4) 
True

>  <E0_value>  (4) 
-207678.1896399768

>  <E0_units>  (4) 
kJ/mol

>  <thermo_class>  (4) 
NASA

>  <Cp0_value>  (4) 
33.257888

>  <Cp0_units>  (4) 
J/(mol*K)

>  <CpInf_value>  (4) 
157.97496800000002

>  <CpInf_units>  (4) 
J/(mol*K)

>  <Tmin_value>  (4) 
10.0

>  <Tmin_units>  (4) 
K

>  <Tmax_value>  (4) 
3000.0

>  <Tmax_units>  (4) 
K

>  <polynomials>  (4) 
[{"name": "polynomial1", "class": "NASAPolynomial", "Tmin_value": 10.0, "Tmin_units": "K", "Tmax_value": 522.6756429179903, "Tmax_units": "K", "coeffs": [3.9743678336254993, 0.001394229058755063, 4.092490701716942e-05, -6.17544812531168e-08, 3.0383206003284785e-11, -24977915.12775351, 5.945968057814046]}, {"name": "polynomial2", "class": "NASAPolynomial", "Tmin_value": 522.6756429179903, "Tmin_units": "K", "Tmax_value": 3000.0, "Tmax_units": "K", "coeffs": [1.691412657912917, 0.01886580389404252, -9.216669960767057e-06, 2.2015353025317823e-09, -2.0796428256989723e-13, -24977676.48255377, 15.47870257097293]}]

>  <H298_value>  (4) 
-49633.294901700014

>  <H298_units>  (4) 
kcal/mol

>  <S298_value>  (4) 
60.28408381539421

>  <S298_units>  (4) 
cal/(mol*K)

>  <Cp_T_value_list>  (4) 
[13.224086553696777, 15.709995831944449, 18.048503644176765, 20.15320159708419, 23.702188741908497, 26.49764520139, 31.059985053866015, 33.466931198369664, 34.60837619054188]

>  <Cp_T_units>  (4) 
cal/(mol*K)

>  <T_list>  (4) 
[300.0, 400.0, 500.0, 600.0, 800.0, 1000.0, 1500.0, 2000.0, 2400.0]

>  <T_units>  (4) 
K

>  <yaml_path>  (4) 
/home/calvin/Dropbox/PersonalFolders/Calvin/ZEUS_Converged/rmg_rxn_16796/output/Species/rmg_rxn_16796_p1_Csbr-CH2-sbr/rmg_rxn_16796_p1_Csbr-CH2-sbr.yml

>  <frequencies_cm1>  (4) 
[183.47211377976, 475.75847694024, 821.64852750864, 975.90848573712, 1066.3260814455598, 1190.8451262531198, 1373.5550046623598, 1453.5828515816397, 1457.9983231423998, 1472.625001874, 2983.79439234916, 3051.4822666483997, 3068.0248342842797, 3105.4293033223203, 3213.17230299312]

>  <ZPE_kJmol>  (4) 
154.8783046119953

>  <E_elec_kJmol>  (4) 
-207833.0679445888

>  <E0_minus_Eelec_plus_ZPE_kJmol>  (4) 
0.0

>  <rxn>  (4) 
rmg_rxn_16796

>  <species_type>  (4) 
p0

>  <species_folder>  (4) 
rmg_rxn_16796_p1_Csbr-CH2-sbr

>  <frequencies_cm1_list>  (4) 
[183.47211377976, 475.75847694024, 821.64852750864, 975.90848573712, 1066.3260814455598, 1190.8451262531198, 1373.5550046623598, 1453.5828515816397, 1457.9983231423998, 1472.625001874, 2983.79439234916, 3051.4822666483997, 3068.0248342842797, 3105.4293033223203, 3213.17230299312]

>  <E0_kJmol>  (4) 
-207678

>  <H298_kJmol>  (4) 
-207666

$$$$

     RDKit          3D

  7  6  0  0  0  0  0  0  0  0999 V2000
   -1.2010    0.1038   -0.0002 C   0  0  0  0  0  0  0  0  0  1  0  0
    0.1886   -0.4250   -0.0003 C   0  0  0  0  0  3  0  0  0  2  0  0
    1.3309    0.0272    0.0001 N   0  0  0  0  0  0  0  0  0  3  0  0
   -1.7355   -0.2512    0.8930 H   0  0  0  0  0  0  0  0  0  4  0  0
   -1.2181    1.2094   -0.0132 H   0  0  0  0  0  0  0  0  0  5  0  0
   -1.7468   -0.2736   -0.8772 H   0  0  0  0  0  0  0  0  0  6  0  0
    1.4589    1.0518   -0.0003 H   0  0  0  0  0  0  0  0  0  7  0  0
  1  5  1  0
  1  4  1  0
  1  6  1  0
  1  2  1  0
  2  3  1  0
  3  7  1  0
M  RAD  1   2   2
M  END
>  <rmg_smiles>  (5) 
C[C][NH]

>  <rmg_adjacency_list>  (5) 
multiplicity 2
1 N u0 p1 c0 {3,S} {7,S}
2 C u0 p0 c0 {3,S} {4,S} {5,S} {6,S}
3 C u1 p1 c0 {1,S} {2,S}
4 H u0 p0 c0 {2,S}
5 H u0 p0 c0 {2,S}
6 H u0 p0 c0 {2,S}
7 H u0 p0 c0 {1,S}


>  <multiplicity>  (5) 
2

>  <reaction>  (5) 
rmg_rxn_16796

>  <type>  (5) 
r2

>  <role_mapnums>  (5) 
{}

>  <role_mapidx>  (5) 
{}

>  <ordered_mapped_smiles>  (5) 
[C:1]([CH:2][NH:3][H:7])([H:4])([H:5])[H:6]

>  <level_of_theory>  (5) 
wb97xd/def2tzvp

>  <lot_method>  (5) 
wb97xd

>  <lot_basis>  (5) 
def2tzvp

>  <spin_multiplicity>  (5) 
2.0

>  <optical_isomers>  (5) 
2.0

>  <modes>  (5) 
IdealGasTranslation(mass=(42.0344, 'amu')),         NonlinearRotor(             inertia = ([6.52903, 53.6371, 57.0074

>  <frequency_value>  (5) 
unknown

>  <frequency_units>  (5) 
unknown

>  <frequency_list>  (5) 
unknown

>  <arkane_path>  (5) 
/home/calvin/Dropbox/PersonalFolders/Calvin/ZEUS_Converged/rmg_rxn_16796/output/Species/rmg_rxn_16796_r1_Csbr-C-sbr=N/arkane/output.py

>  <path_exists>  (5) 
True

>  <E0_value>  (5) 
-349811.510605644

>  <E0_units>  (5) 
kJ/mol

>  <thermo_class>  (5) 
NASA

>  <Cp0_value>  (5) 
33.257888

>  <Cp0_units>  (5) 
J/(mol*K)

>  <CpInf_value>  (5) 
157.97496800000002

>  <CpInf_units>  (5) 
J/(mol*K)

>  <Tmin_value>  (5) 
10.0

>  <Tmin_units>  (5) 
K

>  <Tmax_value>  (5) 
3000.0

>  <Tmax_units>  (5) 
K

>  <polynomials>  (5) 
[{"name": "polynomial1", "class": "NASAPolynomial", "Tmin_value": 10.0, "Tmin_units": "K", "Tmax_value": 421.70720798911213, "Tmax_units": "K", "coeffs": [4.00483553571699, -0.0022573354786762866, 7.325703566240704e-05, -1.3189755763984632e-07, 7.984149867165401e-11, -42072605.17071024, 8.076544306969483]}, {"name": "polynomial2", "class": "NASAPolynomial", "Tmin_value": 421.70720798911213, "Tmin_units": "K", "Tmax_value": 3000.0, "Tmax_units": "K", "coeffs": [1.4681616533743833, 0.02180357645132904, -1.2326612908788062e-05, 3.3990766130784968e-09, -3.659046066610018e-13, -42072391.22322883, 18.124262429510075]}]

>  <H298_value>  (5) 
-83603.94009155394

>  <H298_units>  (5) 
kcal/mol

>  <S298_value>  (5) 
64.51755204889155

>  <S298_units>  (5) 
cal/(mol*K)

>  <Cp_T_value_list>  (5) 
[13.922865914350803, 16.743259499214652, 19.256651381375, 21.460848904722745, 25.063529222957815, 27.77776307277125, 31.910837783851893, 33.995145822610446, 35.063172111185395]

>  <Cp_T_units>  (5) 
cal/(mol*K)

>  <T_list>  (5) 
[300.0, 400.0, 500.0, 600.0, 800.0, 1000.0, 1500.0, 2000.0, 2400.0]

>  <T_units>  (5) 
K

>  <yaml_path>  (5) 
/home/calvin/Dropbox/PersonalFolders/Calvin/ZEUS_Converged/rmg_rxn_16796/output/Species/rmg_rxn_16796_r1_Csbr-C-sbr=N/rmg_rxn_16796_r1_Csbr-C-sbr=N.yml

>  <frequencies_cm1>  (5) 
[272.59184926271996, 434.13767891572, 686.93200950088, 892.99650498344, 952.3753270454799, 1049.9208535160801, 1071.5793252153599, 1389.39027281028, 1454.99745055756, 1463.25843389752, 1857.38905633892, 2900.31245181392, 2997.1987476937993, 3022.37998286224, 3220.16289404888]

>  <ZPE_kJmol>  (5) 
141.5518998523827

>  <E_elec_kJmol>  (5) 
-349953.06250549643

>  <E0_minus_Eelec_plus_ZPE_kJmol>  (5) 
0.0

>  <rxn>  (5) 
rmg_rxn_16796

>  <species_type>  (5) 
r0

>  <species_folder>  (5) 
rmg_rxn_16796_r1_Csbr-C-sbr=N

>  <frequencies_cm1_list>  (5) 
[272.59184926271996, 434.13767891572, 686.93200950088, 892.99650498344, 952.3753270454799, 1049.9208535160801, 1071.5793252153599, 1389.39027281028, 1454.99745055756, 1463.25843389752, 1857.38905633892, 2900.31245181392, 2997.1987476937993, 3022.37998286224, 3220.16289404888]

>  <E0_kJmol>  (5) 
-349812

>  <H298_kJmol>  (5) 
-349799

$$$$
