
     RDKit          3D

  9  8  0  0  0  0  0  0  0  0999 V2000
    0.3041    1.0552    1.2740 C   0  0  0  0  0  0  0  0  0  1  0  0
    0.1673    0.6240   -0.0422 O   0  0  0  0  0  0  0  0  0  2  0  0
   -0.2514   -0.6885   -0.0742 N   0  0  0  0  0  0  0  0  0  3  0  0
   -0.2898   -1.1388   -1.2540 C   0  0  0  0  0  0  0  0  0  4  0  0
    1.1549    0.5405    1.7179 H   0  0  0  0  0  0  0  0  0  5  0  0
   -0.5571    0.8038    1.8941 H   0  0  0  0  0  0  0  0  0  6  0  0
    0.5337    2.1177    1.2540 H   0  0  0  0  0  0  0  0  0  7  0  0
   -0.6197   -2.1625   -1.3699 H   0  0  0  0  0  0  0  0  0  8  0  0
   -0.0089   -0.5426   -2.1192 H   0  0  0  0  0  0  0  0  0  9  0  0
  1  5  1  0
  1  7  1  0
  1  2  1  0
  1  6  1  0
  2  3  1  0
  3  4  1  0
  4  8  1  0
  4  9  1  0
M  END
>  <rmg_smiles>  (1) 
CO[N][CH2]

>  <rmg_adjacency_list>  (1) 
1 O u0 p2 c0 {2,S} {3,S}
2 N u0 p1 c0 {1,S} {4,S}
3 C u0 p0 c0 {1,S} {5,S} {6,S} {7,S}
4 C u0 p0 c0 {2,S} {8,S} {9,S}
5 H u0 p0 c0 {3,S}
6 H u0 p0 c0 {3,S}
7 H u0 p0 c0 {3,S}
8 H u0 p0 c0 {4,S}
9 H u0 p0 c0 {4,S}


>  <multiplicity>  (1) 
1

>  <reaction>  (1) 
rmg_rxn_15628

>  <type>  (1) 
r1h

>  <role_mapnums>  (1) 
{"r1h_a": 1, "r1h_h": 5}

>  <role_mapidx>  (1) 
{"r1h_a": 0, "r1h_h": 4}

>  <ordered_mapped_smiles>  (1) 
[C:1]([O:2][NH:3][CH:4]([H:8])[H:9])([H:5])([H:6])[H:7]

>  <mol_properties>  (1) 
{"0": {"label": "donator", "atom_type": "Cs"}, "4": {"label": "d_hydrogen", "atom_type": "H0"}}

>  <level_of_theory>  (1) 
wb97xd/def2tzvp

>  <lot_method>  (1) 
wb97xd

>  <lot_basis>  (1) 
def2tzvp

>  <spin_multiplicity>  (1) 
1.0

>  <optical_isomers>  (1) 
1.0

>  <modes>  (1) 
IdealGasTranslation(mass=(59.0371, 'amu')),         NonlinearRotor(             inertia = ([11.9742, 101.538, 110.304

>  <frequency_value>  (1) 
unknown

>  <frequency_units>  (1) 
unknown

>  <frequency_list>  (1) 
unknown

>  <arkane_path>  (1) 
/home/calvin/Dropbox/PersonalFolders/Calvin/ZEUS_Converged/rmg_rxn_15628/output/Species/rmg_rxn_15628_r1_CON=C/arkane/output.py

>  <path_exists>  (1) 
True

>  <E0_value>  (1) 
-548882.9200394232

>  <E0_units>  (1) 
kJ/mol

>  <thermo_class>  (1) 
NASA

>  <Cp0_value>  (1) 
33.257888

>  <Cp0_units>  (1) 
J/(mol*K)

>  <CpInf_value>  (1) 
207.8618

>  <CpInf_units>  (1) 
J/(mol*K)

>  <Tmin_value>  (1) 
10.0

>  <Tmin_units>  (1) 
K

>  <Tmax_value>  (1) 
3000.0

>  <Tmax_units>  (1) 
K

>  <polynomials>  (1) 
[{"name": "polynomial1", "class": "NASAPolynomial", "Tmin_value": 10.0, "Tmin_units": "K", "Tmax_value": 1066.0445442103917, "Tmax_units": "K", "coeffs": [3.9488472240731216, 0.012909444164008412, 1.8432835387873368e-05, -2.5565901414715004e-08, 8.632634293818456e-12, -66015370.98001154, 7.906058800048573]}, {"name": "polynomial2", "class": "NASAPolynomial", "Tmin_value": 1066.0445442103917, "Tmin_units": "K", "Tmax_value": 3000.0, "Tmax_units": "K", "coeffs": [4.051174026649639, 0.02340322367340144, -1.163838712217072e-05, 2.8112466199843713e-09, -2.6680947262736413e-13, -66016010.897278614, 4.506810904924114]}]

>  <H298_value>  (1) 
-131182.46582067996

>  <H298_units>  (1) 
kcal/mol

>  <S298_value>  (1) 
69.27397375028742

>  <S298_units>  (1) 
cal/(mol*K)

>  <Cp_T_value_list>  (1) 
[17.607207323409234, 21.157104611048137, 24.5530891366924, 27.67560467885903, 32.827861850696166, 36.480858050170255, 41.94371504002133, 44.76201379304356, 46.08804102499818]

>  <Cp_T_units>  (1) 
cal/(mol*K)

>  <T_list>  (1) 
[300.0, 400.0, 500.0, 600.0, 800.0, 1000.0, 1500.0, 2000.0, 2400.0]

>  <T_units>  (1) 
K

>  <yaml_path>  (1) 
/home/calvin/Dropbox/PersonalFolders/Calvin/ZEUS_Converged/rmg_rxn_15628/output/Species/rmg_rxn_15628_r1_CON=C/rmg_rxn_15628_r1_CON=C.yml

>  <frequencies_cm1>  (1) 
[119.61601728907998, 180.59484693068, 346.29520270228, 574.9726808436, 796.6046320465999, 891.08061607916, 982.9746136314, 1126.32979917172, 1169.7222794088, 1171.7686410341598, 1237.71230106212, 1418.12173938916, 1456.2266409298397, 1467.4060930307999, 1493.1160860688801, 1708.0183916582798, 3005.45973103376, 3077.28153049564, 3083.54422110748, 3121.53925088304, 3213.405780494]

>  <ZPE_kJmol>  (1) 
189.2599943319938

>  <E_elec_kJmol>  (1) 
-549072.1800337551

>  <E0_minus_Eelec_plus_ZPE_kJmol>  (1) 
0.0

>  <rxn>  (1) 
rmg_rxn_15628

>  <species_type>  (1) 
r0

>  <species_folder>  (1) 
rmg_rxn_15628_r1_CON=C

>  <frequencies_cm1_list>  (1) 
[119.61601728907998, 180.59484693068, 346.29520270228, 574.9726808436, 796.6046320465999, 891.08061607916, 982.9746136314, 1126.32979917172, 1169.7222794088, 1171.7686410341598, 1237.71230106212, 1418.12173938916, 1456.2266409298397, 1467.4060930307999, 1493.1160860688801, 1708.0183916582798, 3005.45973103376, 3077.28153049564, 3083.54422110748, 3121.53925088304, 3213.405780494]

>  <E0_kJmol>  (1) 
-548883

>  <H298_kJmol>  (1) 
-548867

$$$$

     RDKit          3D

 12 11  0  0  0  0  0  0  0  0999 V2000
   -1.3568    0.5497   -0.0524 H   0  0  0  0  0  0  0  0  0  1  0  0
   -0.9525   -0.9186    1.4620 C   0  0  0  0  0  0  0  0  0  2  0  0
   -0.5381   -0.0628    0.3254 C   0  0  0  0  0  0  0  0  0  3  0  0
    0.6141    0.0381   -0.3020 C   0  0  0  0  0  0  0  0  0  4  0  0
    0.9073    0.9284   -1.4714 C   0  0  0  0  0  0  0  0  0  5  0  0
   -1.7844   -1.5656    1.1727 H   0  0  0  0  0  0  0  0  0  6  0  0
   -1.2902   -0.3164    2.3093 H   0  0  0  0  0  0  0  0  0  7  0  0
   -0.1267   -1.5517    1.8020 H   0  0  0  0  0  0  0  0  0  8  0  0
    1.4446   -0.5817    0.0461 H   0  0  0  0  0  0  0  0  0  9  0  0
    1.6929    1.6483   -1.2270 H   0  0  0  0  0  0  0  0  0 10  0  0
    1.2646    0.3428   -2.3222 H   0  0  0  0  0  0  0  0  0 11  0  0
    0.0214    1.4777   -1.7883 H   0  0  0  0  0  0  0  0  0 12  0  0
  1  3  1  0
  2  7  1  0
  2  8  1  0
  2  6  1  0
  2  3  1  0
  3  4  1  0
  4  5  1  0
  4  9  1  0
  5 11  1  0
  5 12  1  0
  5 10  1  0
M  END
>  <rmg_smiles>  (2) 
C[CH][CH]C

>  <rmg_adjacency_list>  (2) 
1  C u0 p0 c0 {3,S} {5,S} {6,S} {7,S}
2  C u0 p0 c0 {4,S} {8,S} {9,S} {10,S}
3  C u0 p0 c0 {1,S} {4,S} {11,S}
4  C u0 p0 c0 {2,S} {3,S} {12,S}
5  H u0 p0 c0 {1,S}
6  H u0 p0 c0 {1,S}
7  H u0 p0 c0 {1,S}
8  H u0 p0 c0 {2,S}
9  H u0 p0 c0 {2,S}
10 H u0 p0 c0 {2,S}
11 H u0 p0 c0 {3,S}
12 H u0 p0 c0 {4,S}


>  <multiplicity>  (2) 
1

>  <reaction>  (2) 
rmg_rxn_15628

>  <type>  (2) 
r2h

>  <role_mapnums>  (2) 
{"r2h_a": 3, "r2h_h": 1}

>  <role_mapidx>  (2) 
{"r2h_a": 2, "r2h_h": 0}

>  <ordered_mapped_smiles>  (2) 
[H:1][CH:3]([C:2]([H:6])([H:7])[H:8])[CH:4]([C:5]([H:10])([H:11])[H:12])[H:9]

>  <mol_properties>  (2) 
{"0": {"label": "a_hydrogen", "atom_type": "H0"}, "2": {"label": "acceptor", "atom_type": "Cs"}}

>  <level_of_theory>  (2) 
wb97xd/def2tzvp

>  <lot_method>  (2) 
wb97xd

>  <lot_basis>  (2) 
def2tzvp

>  <spin_multiplicity>  (2) 
1.0

>  <optical_isomers>  (2) 
1.0

>  <modes>  (2) 
IdealGasTranslation(mass=(56.0626, 'amu')),         NonlinearRotor(             inertia = ([14.4223, 134.785, 142.994

>  <frequency_value>  (2) 
unknown

>  <frequency_units>  (2) 
unknown

>  <frequency_list>  (2) 
unknown

>  <arkane_path>  (2) 
/home/calvin/Dropbox/PersonalFolders/Calvin/ZEUS_Converged/rmg_rxn_15628/output/Species/rmg_rxn_15628_p2_CC=CC/arkane/output.py

>  <path_exists>  (2) 
True

>  <E0_value>  (2) 
-412530.5319289978

>  <E0_units>  (2) 
kJ/mol

>  <thermo_class>  (2) 
NASA

>  <Cp0_value>  (2) 
33.257888

>  <Cp0_units>  (2) 
J/(mol*K)

>  <CpInf_value>  (2) 
282.692048

>  <CpInf_units>  (2) 
J/(mol*K)

>  <Tmin_value>  (2) 
10.0

>  <Tmin_units>  (2) 
K

>  <Tmax_value>  (2) 
3000.0

>  <Tmax_units>  (2) 
K

>  <polynomials>  (2) 
[{"name": "polynomial1", "class": "NASAPolynomial", "Tmin_value": 10.0, "Tmin_units": "K", "Tmax_value": 876.4151793103639, "Tmax_units": "K", "coeffs": [3.836788272182408, 0.014889587435409546, 3.7274955648961565e-05, -5.101536984889056e-08, 1.898660163782093e-11, -49615962.11470969, 7.625359233598847]}, {"name": "polynomial2", "class": "NASAPolynomial", "Tmin_value": 876.4151793103639, "Tmin_units": "K", "Tmax_value": 3000.0, "Tmax_units": "K", "coeffs": [0.3502455878869962, 0.03999070538188781, -2.1412112367124883e-05, 5.588800386741688e-09, -5.722178435958081e-13, -49615703.86404788, 21.972776258802444]}]

>  <H298_value>  (2) 
-98593.10529459675

>  <H298_units>  (2) 
kcal/mol

>  <S298_value>  (2) 
69.87712883966964

>  <S298_units>  (2) 
cal/(mol*K)

>  <Cp_T_value_list>  (2) 
[20.736076559626078, 25.789348905580418, 30.622975929798006, 35.036176405226485, 42.25093637997557, 47.58449656905523, 55.8889891378311, 60.08939754250635, 62.137827111249685]

>  <Cp_T_units>  (2) 
cal/(mol*K)

>  <T_list>  (2) 
[300.0, 400.0, 500.0, 600.0, 800.0, 1000.0, 1500.0, 2000.0, 2400.0]

>  <T_units>  (2) 
K

>  <yaml_path>  (2) 
/home/calvin/Dropbox/PersonalFolders/Calvin/ZEUS_Converged/rmg_rxn_15628/output/Species/rmg_rxn_15628_p2_CC=CC/rmg_rxn_15628_p2_CC=CC.yml

>  <frequencies_cm1>  (2) 
[173.71412764003998, 224.62595680252, 244.76682474607998, 285.68032328264, 504.75775594659996, 762.6473896391999, 875.3689536669999, 983.46216958912, 998.1231832473198, 1061.07283767576, 1070.0823224156, 1077.9793555336, 1162.59434864664, 1322.2860922632399, 1329.1736785391997, 1403.0281056558, 1403.75600609972, 1465.77861750996, 1466.2661734676797, 1476.07222850464, 1483.9623946373201, 1752.5645254291198, 3004.79363345772, 3005.3017903714, 3061.49433124496, 3061.9063503641596, 3086.38028604464, 3087.26612715092, 3105.2850966305996, 3110.86108871044]

>  <ZPE_kJmol>  (2) 
281.4278693072432

>  <E_elec_kJmol>  (2) 
-412811.959798305

>  <E0_minus_Eelec_plus_ZPE_kJmol>  (2) 
0.0

>  <rxn>  (2) 
rmg_rxn_15628

>  <species_type>  (2) 
p1

>  <species_folder>  (2) 
rmg_rxn_15628_p2_CC=CC

>  <frequencies_cm1_list>  (2) 
[173.71412764003998, 224.62595680252, 244.76682474607998, 285.68032328264, 504.75775594659996, 762.6473896391999, 875.3689536669999, 983.46216958912, 998.1231832473198, 1061.07283767576, 1070.0823224156, 1077.9793555336, 1162.59434864664, 1322.2860922632399, 1329.1736785391997, 1403.0281056558, 1403.75600609972, 1465.77861750996, 1466.2661734676797, 1476.07222850464, 1483.9623946373201, 1752.5645254291198, 3004.79363345772, 3005.3017903714, 3061.49433124496, 3061.9063503641596, 3086.38028604464, 3087.26612715092, 3105.2850966305996, 3110.86108871044]

>  <E0_kJmol>  (2) 
-412531

>  <H298_kJmol>  (2) 
-412514

$$$$

     RDKit          3D

 20 18  0  0  0  0  0  0  0  0999 V2000
   -1.1357    1.1685    0.3516 C   0  0  0  0  0  0  0  0  0  1  0  0
   -1.2725    0.7374   -0.9646 O   0  0  0  0  0  0  0  0  0  2  0  0
   -1.6911   -0.5752   -0.9966 N   0  0  0  0  0  0  0  0  0  3  0  0
   -1.7296   -1.0255   -2.1764 C   0  0  0  0  0  0  0  0  0  4  0  0
   -0.1217    0.5550    0.8807 H   0  0  0  0  0  0  0  0  0  5  0  0
   -1.9969    0.9171    0.9717 H   0  0  0  0  0  0  0  0  0  6  0  0
   -0.9061    2.2310    0.3316 H   0  0  0  0  0  0  0  0  0  7  0  0
   -2.0595   -2.0491   -2.2923 H   0  0  0  0  0  0  0  0  0  8  0  0
   -1.4487   -0.4293   -3.0416 H   0  0  0  0  0  0  0  0  0  9  0  0
    0.5136   -1.0862    2.5018 C   0  0  0  0  0  0  0  0  0 10  0  0
    0.9280   -0.2304    1.3653 C   0  0  0  0  0  3  0  0  0 11  0  0
    2.0802   -0.1295    0.7378 C   0  0  0  0  0  0  0  0  0 12  0  0
    2.3735    0.7608   -0.4316 C   0  0  0  0  0  0  0  0  0 13  0  0
   -0.3182   -1.7333    2.2125 H   0  0  0  0  0  0  0  0  0 14  0  0
    0.1760   -0.4840    3.3491 H   0  0  0  0  0  0  0  0  0 15  0  0
    1.3394   -1.7193    2.8418 H   0  0  0  0  0  0  0  0  0 16  0  0
    2.9108   -0.7493    1.0859 H   0  0  0  0  0  0  0  0  0 17  0  0
    3.1590    1.4807   -0.1872 H   0  0  0  0  0  0  0  0  0 18  0  0
    2.7308    0.1752   -1.2824 H   0  0  0  0  0  0  0  0  0 19  0  0
    1.4876    1.3101   -0.7485 H   0  0  0  0  0  0  0  0  0 20  0  0
  1  5  1  0
  1  7  1  0
  1  2  1  0
  1  6  1  0
  2  3  1  0
  3  4  1  0
  4  8  1  0
  4  9  1  0
 10 16  1  0
 10 14  1  0
 10 11  1  0
 10 15  1  0
 11 12  1  0
 12 17  1  0
 12 13  1  0
 13 19  1  0
 13 20  1  0
 13 18  1  0
M  RAD  1  11   2
M  END
>  <rmg_smiles>  (3) 
CO[N][CH2].C[CH][C]C

>  <rmg_adjacency_list>  (3) 
multiplicity 2
1  O u0 p2 c0 {2,S} {5,S}
2  N u0 p1 c0 {1,S} {7,S}
3  C u0 p0 c0 {6,S} {9,S} {10,S} {11,S}
4  C u0 p0 c0 {8,S} {15,S} {16,S} {17,S}
5  C u0 p0 c0 {1,S} {12,S} {13,S} {14,S}
6  C u0 p0 c0 {3,S} {8,S} {18,S}
7  C u0 p0 c0 {2,S} {19,S} {20,S}
8  C u1 p1 c0 {4,S} {6,S}
9  H u0 p0 c0 {3,S}
10 H u0 p0 c0 {3,S}
11 H u0 p0 c0 {3,S}
12 H u0 p0 c0 {5,S}
13 H u0 p0 c0 {5,S}
14 H u0 p0 c0 {5,S}
15 H u0 p0 c0 {4,S}
16 H u0 p0 c0 {4,S}
17 H u0 p0 c0 {4,S}
18 H u0 p0 c0 {6,S}
19 H u0 p0 c0 {7,S}
20 H u0 p0 c0 {7,S}


>  <multiplicity>  (3) 
2

>  <reaction>  (3) 
rmg_rxn_15628

>  <type>  (3) 
ts

>  <role_mapnums>  (3) 
{"*2": 5, "*1": 1, "*3": 11, "*0": 2, "*4": 12}

>  <role_mapidx>  (3) 
{"*2": 4, "*1": 0, "*3": 10, "*0": 1, "*4": 11}

>  <ordered_mapped_smiles>  (3) 
[C:1]([O:2][NH:3][CH:4]([H:8])[H:9])([H:5])([H:6])[H:7].[C:10]([CH:11][CH:12]([C:13]([H:18])([H:19])[H:20])[H:17])([H:14])([H:15])[H:16]

>  <mol_properties>  (3) 
{"0": {"label": "*1", "atom_type": "Cs"}, "1": {"label": "*0", "atom_type": "O2s"}, "4": {"label": "*2", "atom_type": "H0"}, "10": {"label": "*3", "atom_type": "C2s"}, "11": {"label": "*4", "atom_type": "Cs"}}

>  <level_of_theory>  (3) 
wb97xd/def2tzvp

>  <lot_method>  (3) 
wb97xd

>  <lot_basis>  (3) 
def2tzvp

>  <spin_multiplicity>  (3) 
2.0

>  <optical_isomers>  (3) 
2.0

>  <modes>  (3) 
IdealGasTranslation(mass=(114.092, 'amu')),         NonlinearRotor(             inertia = ([218.488, 471.66, 539.739

>  <frequency_value>  (3) 
-1666.1

>  <frequency_units>  (3) 
cm^-1

>  <frequency_list>  (3) 
unknown

>  <arkane_path>  (3) 
/home/calvin/Dropbox/PersonalFolders/Calvin/ZEUS_Converged/rmg_rxn_15628/output/rxns/TS0/arkane/output.py

>  <path_exists>  (3) 
True

>  <E0_value>  (3) 
-959626.0

>  <E0_units>  (3) 
kJ/mol

>  <thermo_class>  (3) 
unknown

>  <Cp0_value>  (3) 
unknown

>  <Cp0_units>  (3) 
unknown

>  <CpInf_value>  (3) 
unknown

>  <CpInf_units>  (3) 
unknown

>  <Tmin_value>  (3) 
unknown

>  <Tmin_units>  (3) 
unknown

>  <Tmax_value>  (3) 
unknown

>  <Tmax_units>  (3) 
unknown

>  <polynomials>  (3) 
unknown

>  <H298_value>  (3) 
unknown

>  <H298_units>  (3) 
unknown

>  <S298_value>  (3) 
unknown

>  <S298_units>  (3) 
unknown

>  <Cp_T_value_list>  (3) 
unknown

>  <Cp_T_units>  (3) 
unknown

>  <T_list>  (3) 
unknown

>  <T_units>  (3) 
unknown

>  <yaml_path>  (3) 
unknown

>  <frequencies_cm1>  (3) 
unknown

>  <ZPE_kJmol>  (3) 
unknown

>  <E_elec_kJmol>  (3) 
unknown

>  <E0_minus_Eelec_plus_ZPE_kJmol>  (3) 
unknown

>  <rxn>  (3) 
unknown

>  <species_type>  (3) 
unknown

>  <species_folder>  (3) 
unknown

>  <frequencies_cm1_list>  (3) 
[]

>  <ts_imag_freq_cm1>  (3) 
-1686.3396

>  <ts_freq_out_path>  (3) 
/home/calvin/Dropbox/PersonalFolders/Calvin/ZEUS_Converged/rmg_rxn_15628/output/rxns/TS0/geometry/freq.out

>  <E0_kJmol>  (3) 
-959626

>  <H298_kJmol>  (3) 
unknown

$$$$

     RDKit          3D

  8  7  0  0  0  0  0  0  0  0999 V2000
    1.7077   -0.1964   -0.0607 C   0  0  0  0  0  3  0  0  0  1  0  0
    0.4209   -0.4565    0.2808 O   0  0  0  0  0  0  0  0  0  2  0  0
   -0.4607    0.4385   -0.2968 N   0  0  0  0  0  0  0  0  0  3  0  0
   -1.6584    0.1416   -0.0244 C   0  0  0  0  0  0  0  0  0  4  0  0
    2.4163   -0.7685    0.5170 H   0  0  0  0  0  0  0  0  0  5  0  0
    1.9214    0.7645   -0.5045 H   0  0  0  0  0  0  0  0  0  6  0  0
   -2.4185    0.7953   -0.4307 H   0  0  0  0  0  0  0  0  0  7  0  0
   -1.9286   -0.7185    0.5831 H   0  0  0  0  0  0  0  0  0  8  0  0
  1  6  1  0
  1  5  1  0
  1  2  1  0
  2  3  1  0
  3  4  1  0
  4  8  1  0
  4  7  1  0
M  RAD  1   1   2
M  END
>  <rmg_smiles>  (4) 
[CH2]O[N][CH2]

>  <rmg_adjacency_list>  (4) 
multiplicity 2
1 O u0 p2 c0 {2,S} {3,S}
2 N u0 p1 c0 {1,S} {4,S}
3 C u1 p0 c0 {1,S} {5,S} {6,S}
4 C u0 p0 c0 {2,S} {7,S} {8,S}
5 H u0 p0 c0 {3,S}
6 H u0 p0 c0 {3,S}
7 H u0 p0 c0 {4,S}
8 H u0 p0 c0 {4,S}


>  <multiplicity>  (4) 
2

>  <reaction>  (4) 
rmg_rxn_15628

>  <type>  (4) 
r1

>  <role_mapnums>  (4) 
{}

>  <role_mapidx>  (4) 
{}

>  <ordered_mapped_smiles>  (4) 
[C:1]([O:2][NH:3][CH:4]([H:7])[H:8])([H:5])[H:6]

>  <level_of_theory>  (4) 
wb97xd/def2tzvp

>  <lot_method>  (4) 
wb97xd

>  <lot_basis>  (4) 
def2tzvp

>  <spin_multiplicity>  (4) 
2.0

>  <optical_isomers>  (4) 
2.0

>  <modes>  (4) 
IdealGasTranslation(mass=(58.0293, 'amu')),         NonlinearRotor(             inertia = ([10.2741, 95.4529, 105.582

>  <frequency_value>  (4) 
unknown

>  <frequency_units>  (4) 
unknown

>  <frequency_list>  (4) 
unknown

>  <arkane_path>  (4) 
/home/calvin/Dropbox/PersonalFolders/Calvin/ZEUS_Converged/rmg_rxn_15628/output/Species/rmg_rxn_15628_p1_sbr-CH2-sbrON=C/arkane/output.py

>  <path_exists>  (4) 
True

>  <E0_value>  (4) 
-547168.2732446302

>  <E0_units>  (4) 
kJ/mol

>  <thermo_class>  (4) 
NASA

>  <Cp0_value>  (4) 
33.257888

>  <Cp0_units>  (4) 
J/(mol*K)

>  <CpInf_value>  (4) 
182.918384

>  <CpInf_units>  (4) 
J/(mol*K)

>  <Tmin_value>  (4) 
10.0

>  <Tmin_units>  (4) 
K

>  <Tmax_value>  (4) 
3000.0

>  <Tmax_units>  (4) 
K

>  <polynomials>  (4) 
[{"name": "polynomial1", "class": "NASAPolynomial", "Tmin_value": 10.0, "Tmin_units": "K", "Tmax_value": 253.2842427910515, "Tmax_units": "K", "coeffs": [3.956862909385456, 0.0038362890131335746, 0.00011727738047703725, -3.4736244039427427e-07, 3.472729073035136e-10, -65809144.38694886, 9.350338763280796]}, {"name": "polynomial2", "class": "NASAPolynomial", "Tmin_value": 253.2842427910515, "Tmin_units": "K", "Tmax_value": 3000.0, "Tmax_units": "K", "coeffs": [2.5252197328965313, 0.026445761179553072, -1.662161754135038e-05, 5.074735532607581e-09, -5.97403912324656e-13, -65809071.86505469, 14.291183066674913]}]

>  <H298_value>  (4) 
-130772.65860702786

>  <H298_units>  (4) 
kcal/mol

>  <S298_value>  (4) 
71.26914844977757

>  <S298_units>  (4) 
cal/(mol*K)

>  <Cp_T_value_list>  (4) 
[18.0740035969719, 21.369534269323825, 24.223451351766553, 26.683440747612977, 30.598134113509214, 33.438117676478754, 37.554421513360474, 39.68390492467901, 40.91110806828642]

>  <Cp_T_units>  (4) 
cal/(mol*K)

>  <T_list>  (4) 
[300.0, 400.0, 500.0, 600.0, 800.0, 1000.0, 1500.0, 2000.0, 2400.0]

>  <T_units>  (4) 
K

>  <yaml_path>  (4) 
/home/calvin/Dropbox/PersonalFolders/Calvin/ZEUS_Converged/rmg_rxn_15628/output/Species/rmg_rxn_15628_p1_sbr-CH2-sbrON=C/rmg_rxn_15628_p1_sbr-CH2-sbrON=C.yml

>  <frequencies_cm1>  (4) 
[132.13453152744, 273.14807507364, 360.4549264321199, 498.69420790903996, 595.9169860696, 789.3942974605999, 873.74834513148, 993.5360370535599, 1152.01232426852, 1206.54305469464, 1257.0497317232398, 1417.2771001948001, 1437.260027476, 1705.2166616477198, 3090.5210781926, 3134.7719315946797, 3218.94057066192, 3282.16490450316]

>  <ZPE_kJmol>  (4) 
152.0381400376291

>  <E_elec_kJmol>  (4) 
-547320.3113846679

>  <E0_minus_Eelec_plus_ZPE_kJmol>  (4) 
0.0

>  <rxn>  (4) 
rmg_rxn_15628

>  <species_type>  (4) 
p0

>  <species_folder>  (4) 
rmg_rxn_15628_p1_sbr-CH2-sbrON=C

>  <frequencies_cm1_list>  (4) 
[132.13453152744, 273.14807507364, 360.4549264321199, 498.69420790903996, 595.9169860696, 789.3942974605999, 873.74834513148, 993.5360370535599, 1152.01232426852, 1206.54305469464, 1257.0497317232398, 1417.2771001948001, 1437.260027476, 1705.2166616477198, 3090.5210781926, 3134.7719315946797, 3218.94057066192, 3282.16490450316]

>  <E0_kJmol>  (4) 
-547168

>  <H298_kJmol>  (4) 
-547153

$$$$

     RDKit          3D

 11 10  0  0  0  0  0  0  0  0999 V2000
   -1.8197    0.8251    0.1297 C   0  0  0  0  0  0  0  0  0  1  0  0
   -0.8629    0.2537   -0.8237 C   0  0  0  0  0  3  0  0  0  2  0  0
    0.3308   -0.2746   -0.8374 C   0  0  0  0  0  0  0  0  0  3  0  0
    1.0596   -0.7855   -2.0466 C   0  0  0  0  0  0  0  0  0  4  0  0
   -2.7576    0.2657    0.1344 H   0  0  0  0  0  0  0  0  0  5  0  0
   -2.0537    1.8630   -0.1163 H   0  0  0  0  0  0  0  0  0  6  0  0
   -1.4082    0.8035    1.1478 H   0  0  0  0  0  0  0  0  0  7  0  0
    0.8635   -0.3596    0.1165 H   0  0  0  0  0  0  0  0  0  8  0  0
    2.0033   -0.2520   -2.1835 H   0  0  0  0  0  0  0  0  0  9  0  0
    1.3011   -1.8452   -1.9334 H   0  0  0  0  0  0  0  0  0 10  0  0
    0.4599   -0.6627   -2.9476 H   0  0  0  0  0  0  0  0  0 11  0  0
  1  5  1  0
  1  7  1  0
  1  6  1  0
  1  2  1  0
  2  3  1  0
  3  4  1  0
  3  8  1  0
  4  9  1  0
  4 10  1  0
  4 11  1  0
M  RAD  1   2   2
M  END
>  <rmg_smiles>  (5) 
C[C][CH]C

>  <rmg_adjacency_list>  (5) 
multiplicity 2
1  C u0 p0 c0 {3,S} {5,S} {6,S} {7,S}
2  C u0 p0 c0 {4,S} {8,S} {9,S} {10,S}
3  C u0 p0 c0 {1,S} {4,S} {11,S}
4  C u1 p1 c0 {2,S} {3,S}
5  H u0 p0 c0 {1,S}
6  H u0 p0 c0 {1,S}
7  H u0 p0 c0 {1,S}
8  H u0 p0 c0 {2,S}
9  H u0 p0 c0 {2,S}
10 H u0 p0 c0 {2,S}
11 H u0 p0 c0 {3,S}


>  <multiplicity>  (5) 
2

>  <reaction>  (5) 
rmg_rxn_15628

>  <type>  (5) 
r2

>  <role_mapnums>  (5) 
{}

>  <role_mapidx>  (5) 
{}

>  <ordered_mapped_smiles>  (5) 
[C:1]([CH:2][CH:3]([C:4]([H:9])([H:10])[H:11])[H:8])([H:5])([H:6])[H:7]

>  <level_of_theory>  (5) 
wb97xd/def2tzvp

>  <lot_method>  (5) 
wb97xd

>  <lot_basis>  (5) 
def2tzvp

>  <spin_multiplicity>  (5) 
2.0

>  <optical_isomers>  (5) 
1.0

>  <modes>  (5) 
IdealGasTranslation(mass=(55.0548, 'amu')),         NonlinearRotor(             inertia = ([11.8126, 138.151, 143.711

>  <frequency_value>  (5) 
unknown

>  <frequency_units>  (5) 
unknown

>  <frequency_list>  (5) 
unknown

>  <arkane_path>  (5) 
/home/calvin/Dropbox/PersonalFolders/Calvin/ZEUS_Converged/rmg_rxn_15628/output/Species/rmg_rxn_15628_r2_Csbr-C-sbr=CC/arkane/output.py

>  <path_exists>  (5) 
True

>  <E0_value>  (5) 
-410771.8179696713

>  <E0_units>  (5) 
kJ/mol

>  <thermo_class>  (5) 
NASA

>  <Cp0_value>  (5) 
33.257888

>  <Cp0_units>  (5) 
J/(mol*K)

>  <CpInf_value>  (5) 
257.748632

>  <CpInf_units>  (5) 
J/(mol*K)

>  <Tmin_value>  (5) 
10.0

>  <Tmin_units>  (5) 
K

>  <Tmax_value>  (5) 
3000.0

>  <Tmax_units>  (5) 
K

>  <polynomials>  (5) 
[{"name": "polynomial1", "class": "NASAPolynomial", "Tmin_value": 10.0, "Tmin_units": "K", "Tmax_value": 1169.5590750464423, "Tmax_units": "K", "coeffs": [3.8025570364059162, 0.020806796947452907, 9.379950572357792e-06, -1.7411707656727616e-08, 5.700270813482892e-12, -49404437.37709184, 8.875695509992985]}, {"name": "polynomial2", "class": "NASAPolynomial", "Tmin_value": 1169.5590750464423, "Tmin_units": "K", "Tmax_value": 3000.0, "Tmax_units": "K", "coeffs": [4.435877399651603, 0.028779843481140824, -1.384945385702537e-05, 3.2417171834370724e-09, -2.9894127540492477e-13, -49405278.96325537, 2.756538301562529]}]

>  <H298_value>  (5) 
-98172.62986372456

>  <H298_units>  (5) 
kcal/mol

>  <S298_value>  (5) 
73.55402161572245

>  <S298_units>  (5) 
cal/(mol*K)

>  <Cp_T_value_list>  (5) 
[20.795813498222827, 25.153355523277998, 29.273035451121807, 33.06958757421692, 39.488176958624926, 44.27072354665603, 51.4125629099703, 55.14185252826214, 56.89370587275111]

>  <Cp_T_units>  (5) 
cal/(mol*K)

>  <T_list>  (5) 
[300.0, 400.0, 500.0, 600.0, 800.0, 1000.0, 1500.0, 2000.0, 2400.0]

>  <T_units>  (5) 
K

>  <yaml_path>  (5) 
/home/calvin/Dropbox/PersonalFolders/Calvin/ZEUS_Converged/rmg_rxn_15628/output/Species/rmg_rxn_15628_r2_Csbr-C-sbr=CC/rmg_rxn_15628_r2_Csbr-C-sbr=CC.yml

>  <frequencies_cm1>  (5) 
[151.30028755555998, 191.52708756012, 214.20874007207996, 243.3316248142, 461.02879342884, 742.4584527984, 841.36364236236, 980.0218099438, 1041.6049342935598, 1057.79728567812, 1065.3097676181999, 1111.54517977776, 1285.6919274929598, 1385.08467301464, 1395.48815577444, 1443.3647774254798, 1462.4755975710398, 1470.2490249532798, 1476.0928294606, 1778.4118581736, 2964.53936551188, 3003.24856176072, 3011.5026781153597, 3049.7449193624398, 3067.9286964897997, 3076.6841027727996, 3106.4181492084]

>  <ZPE_kJmol>  (5) 
245.7036033819704

>  <E_elec_kJmol>  (5) 
-411017.5215730533

>  <E0_minus_Eelec_plus_ZPE_kJmol>  (5) 
0.0

>  <rxn>  (5) 
rmg_rxn_15628

>  <species_type>  (5) 
r1

>  <species_folder>  (5) 
rmg_rxn_15628_r2_Csbr-C-sbr=CC

>  <frequencies_cm1_list>  (5) 
[151.30028755555998, 191.52708756012, 214.20874007207996, 243.3316248142, 461.02879342884, 742.4584527984, 841.36364236236, 980.0218099438, 1041.6049342935598, 1057.79728567812, 1065.3097676181999, 1111.54517977776, 1285.6919274929598, 1385.08467301464, 1395.48815577444, 1443.3647774254798, 1462.4755975710398, 1470.2490249532798, 1476.0928294606, 1778.4118581736, 2964.53936551188, 3003.24856176072, 3011.5026781153597, 3049.7449193624398, 3067.9286964897997, 3076.6841027727996, 3106.4181492084]

>  <E0_kJmol>  (5) 
-410772

>  <H298_kJmol>  (5) 
-410754

$$$$
