
     RDKit          3D

 12 11  0  0  0  0  0  0  0  0999 V2000
   -0.8038    1.3719   -0.5934 C   0  0  0  0  0  0  0  0  0  1  0  0
    0.5510    0.6826    0.3005 S   0  0  0  0  0  0  0  0  0  2  0  0
    0.4851   -1.0466   -0.2292 C   0  0  0  0  0  0  0  0  0  3  0  0
   -0.7510   -1.8072    0.2213 C   0  0  0  0  0  0  0  0  0  4  0  0
   -1.7613    1.1610   -0.1190 H   0  0  0  0  0  0  0  0  0  5  0  0
   -0.9025    0.9828   -1.6069 H   0  0  0  0  0  0  0  0  0  6  0  0
   -0.7296    2.4578   -0.5914 H   0  0  0  0  0  0  0  0  0  7  0  0
    1.3886   -1.4906    0.1919 H   0  0  0  0  0  0  0  0  0  8  0  0
    0.5881   -1.0731   -1.3160 H   0  0  0  0  0  0  0  0  0  9  0  0
   -0.6755   -2.8539   -0.0818 H   0  0  0  0  0  0  0  0  0 10  0  0
   -1.6577   -1.3947   -0.2216 H   0  0  0  0  0  0  0  0  0 11  0  0
   -0.8579   -1.7698    1.3061 H   0  0  0  0  0  0  0  0  0 12  0  0
  1  5  1  0
  1  7  1  0
  1  2  1  0
  1  6  1  0
  2  3  1  0
  3  4  1  0
  3  9  1  0
  3  8  1  0
  4 12  1  0
  4 10  1  0
  4 11  1  0
M  END
>  <rmg_smiles>  (1) 
CSCC

>  <rmg_adjacency_list>  (1) 
1  S u0 p2 c0 {2,S} {4,S}
2  C u0 p0 c0 {1,S} {3,S} {5,S} {6,S}
3  C u0 p0 c0 {2,S} {7,S} {8,S} {9,S}
4  C u0 p0 c0 {1,S} {10,S} {11,S} {12,S}
5  H u0 p0 c0 {2,S}
6  H u0 p0 c0 {2,S}
7  H u0 p0 c0 {3,S}
8  H u0 p0 c0 {3,S}
9  H u0 p0 c0 {3,S}
10 H u0 p0 c0 {4,S}
11 H u0 p0 c0 {4,S}
12 H u0 p0 c0 {4,S}


>  <multiplicity>  (1) 
1

>  <reaction>  (1) 
rmg_rxn_15395

>  <type>  (1) 
r1h

>  <role_mapnums>  (1) 
{"r1h_a": 1, "r1h_h": 5}

>  <role_mapidx>  (1) 
{"r1h_a": 0, "r1h_h": 4}

>  <ordered_mapped_smiles>  (1) 
[C:1]([S:2][C:3]([C:4]([H:10])([H:11])[H:12])([H:8])[H:9])([H:5])([H:6])[H:7]

>  <mol_properties>  (1) 
{"0": {"label": "donator", "atom_type": "Cs"}, "4": {"label": "d_hydrogen", "atom_type": "H0"}}

>  <level_of_theory>  (1) 
wb97xd/def2tzvp

>  <lot_method>  (1) 
wb97xd

>  <lot_basis>  (1) 
def2tzvp

>  <spin_multiplicity>  (1) 
1.0

>  <optical_isomers>  (1) 
2.0

>  <modes>  (1) 
IdealGasTranslation(mass=(76.0347, 'amu')),         NonlinearRotor(             inertia = ([52.0964, 128.386, 157.856

>  <frequency_value>  (1) 
unknown

>  <frequency_units>  (1) 
unknown

>  <frequency_list>  (1) 
unknown

>  <arkane_path>  (1) 
/home/calvin/Dropbox/PersonalFolders/Calvin/ZEUS_Converged/rmg_rxn_15395/output/Species/rmg_rxn_15395_r2_CSCC/arkane/output.py

>  <path_exists>  (1) 
True

>  <E0_value>  (1) 
-1358024.382384707

>  <E0_units>  (1) 
kJ/mol

>  <thermo_class>  (1) 
NASA

>  <Cp0_value>  (1) 
33.257888

>  <Cp0_units>  (1) 
J/(mol*K)

>  <CpInf_value>  (1) 
282.692048

>  <CpInf_units>  (1) 
J/(mol*K)

>  <Tmin_value>  (1) 
10.0

>  <Tmin_units>  (1) 
K

>  <Tmax_value>  (1) 
3000.0

>  <Tmax_units>  (1) 
K

>  <polynomials>  (1) 
[{"name": "polynomial1", "class": "NASAPolynomial", "Tmin_value": 10.0, "Tmin_units": "K", "Tmax_value": 1066.2668866007684, "Tmax_units": "K", "coeffs": [3.793891230256719, 0.02301010100204071, 1.3424933532968856e-05, -2.439668573123584e-08, 8.539069592907902e-12, -163332607.18697146, 10.299389824596966]}, {"name": "polynomial2", "class": "NASAPolynomial", "Tmin_value": 1066.2668866007684, "Tmin_units": "K", "Tmax_value": 3000.0, "Tmax_units": "K", "coeffs": [3.8792179157527102, 0.03360306068829365, -1.6829238311357225e-05, 4.1180070097392094e-09, -3.9711678273721025e-13, -163333245.74945265, 6.973205796720211]}]

>  <H298_value>  (1) 
-324571.1940810462

>  <H298_units>  (1) 
kcal/mol

>  <S298_value>  (1) 
77.83544863665438

>  <S298_units>  (1) 
cal/(mol*K)

>  <Cp_T_value_list>  (1) 
[22.486476602776577, 27.42967620969081, 32.07208461613054, 36.30607836893156, 43.32195483624624, 48.430824927463995, 56.24965397469871, 60.32875481971757, 62.28322095073424]

>  <Cp_T_units>  (1) 
cal/(mol*K)

>  <T_list>  (1) 
[300.0, 400.0, 500.0, 600.0, 800.0, 1000.0, 1500.0, 2000.0, 2400.0]

>  <T_units>  (1) 
K

>  <yaml_path>  (1) 
/home/calvin/Dropbox/PersonalFolders/Calvin/ZEUS_Converged/rmg_rxn_15395/output/Species/rmg_rxn_15395_r2_CSCC/rmg_rxn_15395_r2_CSCC.yml

>  <frequencies_cm1>  (1) 
[86.86049731268, 173.63172381619998, 227.43455379839997, 277.98929972423997, 356.053188842, 666.01517221616, 740.88591316012, 758.5958683004, 952.29292322164, 966.1504995974, 986.7445885720799, 1060.0221889218, 1079.9089784085197, 1272.4729807519598, 1296.60356716644, 1348.6278479507598, 1400.27444454248, 1452.28499135616, 1457.8541164506798, 1470.393231645, 1480.8997191846001, 1487.8971772256798, 3015.3687908505194, 3018.78854953988, 3025.31218559388, 3073.71756511456, 3086.881575973, 3099.52369594712, 3104.7151368490404, 3118.41477256244]

>  <ZPE_kJmol>  (1) 
272.4054138316235

>  <E_elec_kJmol>  (1) 
-1358296.7877985386

>  <E0_minus_Eelec_plus_ZPE_kJmol>  (1) 
0.0

>  <rxn>  (1) 
rmg_rxn_15395

>  <species_type>  (1) 
r1

>  <species_folder>  (1) 
rmg_rxn_15395_r2_CSCC

>  <frequencies_cm1_list>  (1) 
[86.86049731268, 173.63172381619998, 227.43455379839997, 277.98929972423997, 356.053188842, 666.01517221616, 740.88591316012, 758.5958683004, 952.29292322164, 966.1504995974, 986.7445885720799, 1060.0221889218, 1079.9089784085197, 1272.4729807519598, 1296.60356716644, 1348.6278479507598, 1400.27444454248, 1452.28499135616, 1457.8541164506798, 1470.393231645, 1480.8997191846001, 1487.8971772256798, 3015.3687908505194, 3018.78854953988, 3025.31218559388, 3073.71756511456, 3086.881575973, 3099.52369594712, 3104.7151368490404, 3118.41477256244]

>  <E0_kJmol>  (1) 
-1.35802e+06

>  <H298_kJmol>  (1) 
-1.35801e+06

$$$$

     RDKit          3D

  6  5  0  0  0  0  0  0  0  0999 V2000
   -1.0432   -0.3682    0.0694 O   0  0  0  0  0  0  0  0  0  1  0  0
    0.2555   -0.1290   -0.4081 N   0  0  0  0  0  0  0  0  0  2  0  0
    0.9595    0.5655    0.3422 C   0  0  0  0  0  0  0  0  0  3  0  0
   -1.4280   -0.9064   -0.6262 H   0  0  0  0  0  0  0  0  0  4  0  0
    0.6949    1.0054    1.3040 H   0  0  0  0  0  0  0  0  0  5  0  0
    1.9627    0.7412   -0.0468 H   0  0  0  0  0  0  0  0  0  6  0  0
  1  4  1  0
  1  2  1  0
  2  3  1  0
  3  6  1  0
  3  5  1  0
M  END
>  <rmg_smiles>  (2) 
[CH2][N]O

>  <rmg_adjacency_list>  (2) 
1 O u0 p2 c0 {2,S} {6,S}
2 N u0 p1 c0 {1,S} {3,S}
3 C u0 p0 c0 {2,S} {4,S} {5,S}
4 H u0 p0 c0 {3,S}
5 H u0 p0 c0 {3,S}
6 H u0 p0 c0 {1,S}


>  <multiplicity>  (2) 
1

>  <reaction>  (2) 
rmg_rxn_15395

>  <type>  (2) 
r2h

>  <role_mapnums>  (2) 
{"r2h_a": 3, "r2h_h": 6}

>  <role_mapidx>  (2) 
{"r2h_a": 2, "r2h_h": 5}

>  <ordered_mapped_smiles>  (2) 
[O:1]([NH:2][CH:3]([H:5])[H:6])[H:4]

>  <mol_properties>  (2) 
{"2": {"label": "acceptor", "atom_type": "Cs"}, "5": {"label": "a_hydrogen", "atom_type": "H0"}}

>  <level_of_theory>  (2) 
wb97xd/def2tzvp

>  <lot_method>  (2) 
wb97xd

>  <lot_basis>  (2) 
def2tzvp

>  <spin_multiplicity>  (2) 
1.0

>  <optical_isomers>  (2) 
1.0

>  <modes>  (2) 
IdealGasTranslation(mass=(45.0215, 'amu')),         NonlinearRotor(             inertia = ([7.10552, 42.1368, 49.2423

>  <frequency_value>  (2) 
unknown

>  <frequency_units>  (2) 
unknown

>  <frequency_list>  (2) 
unknown

>  <arkane_path>  (2) 
/home/calvin/Dropbox/PersonalFolders/Calvin/ZEUS_Converged/rmg_rxn_15395/output/Species/rmg_rxn_15395_p1_ON=C/arkane/output.py

>  <path_exists>  (2) 
True

>  <E0_value>  (2) 
-445765.04652910994

>  <E0_units>  (2) 
kJ/mol

>  <thermo_class>  (2) 
NASA

>  <Cp0_value>  (2) 
33.257888

>  <Cp0_units>  (2) 
J/(mol*K)

>  <CpInf_value>  (2) 
133.031552

>  <CpInf_units>  (2) 
J/(mol*K)

>  <Tmin_value>  (2) 
10.0

>  <Tmin_units>  (2) 
K

>  <Tmax_value>  (2) 
3000.0

>  <Tmax_units>  (2) 
K

>  <polynomials>  (2) 
[{"name": "polynomial1", "class": "NASAPolynomial", "Tmin_value": 10.0, "Tmin_units": "K", "Tmax_value": 555.0008285415723, "Tmax_units": "K", "coeffs": [4.0729558966761115, -0.006525504673073184, 8.044401869233928e-05, -1.3643340673050255e-07, 7.605604608176978e-11, -53613151.050707266, 6.598063650688069]}, {"name": "polynomial2", "class": "NASAPolynomial", "Tmin_value": 555.0008285415723, "Tmin_units": "K", "Tmax_value": 3000.0, "Tmax_units": "K", "coeffs": [1.9629419554542669, 0.01794293278685335, -1.0716899102514014e-05, 3.1351804200574135e-09, -3.5588210478784073e-13, -53613059.472560614, 14.250328412630774]}]

>  <H298_value>  (2) 
-106537.6194767193

>  <H298_units>  (2) 
kcal/mol

>  <S298_value>  (2) 
60.36296822828259

>  <S298_units>  (2) 
cal/(mol*K)

>  <Cp_T_value_list>  (2) 
[12.494795700177992, 15.001608210431446, 17.130783734283074, 18.881829280437152, 21.69615330289245, 23.7834318087242, 26.9145239767162, 28.553257692891545, 29.47039525924992]

>  <Cp_T_units>  (2) 
cal/(mol*K)

>  <T_list>  (2) 
[300.0, 400.0, 500.0, 600.0, 800.0, 1000.0, 1500.0, 2000.0, 2400.0]

>  <T_units>  (2) 
K

>  <yaml_path>  (2) 
/home/calvin/Dropbox/PersonalFolders/Calvin/ZEUS_Converged/rmg_rxn_15395/output/Species/rmg_rxn_15395_p1_ON=C/rmg_rxn_15395_p1_ON=C.yml

>  <frequencies_cm1>  (2) 
[438.20980121048, 539.7244451960399, 801.7205361099999, 965.59427378648, 986.4836431299199, 1183.2914424011199, 1353.5034075279598, 1444.4016922088, 1728.97643085492, 3083.6403589019596, 3214.03754314344, 3841.1169085952]

>  <ZPE_kJmol>  (2) 
117.11863122037906

>  <E_elec_kJmol>  (2) 
-445882.1651603303

>  <E0_minus_Eelec_plus_ZPE_kJmol>  (2) 
0.0

>  <rxn>  (2) 
rmg_rxn_15395

>  <species_type>  (2) 
p0

>  <species_folder>  (2) 
rmg_rxn_15395_p1_ON=C

>  <frequencies_cm1_list>  (2) 
[438.20980121048, 539.7244451960399, 801.7205361099999, 965.59427378648, 986.4836431299199, 1183.2914424011199, 1353.5034075279598, 1444.4016922088, 1728.97643085492, 3083.6403589019596, 3214.03754314344, 3841.1169085952]

>  <E0_kJmol>  (2) 
-445765

>  <H298_kJmol>  (2) 
-445753

$$$$

     RDKit          3D

 17 15  0  0  0  0  0  0  0  0999 V2000
   -3.7102   -0.0917    0.0919 O   0  0  0  0  0  0  0  0  0  1  0  0
   -2.4115    0.1475   -0.3856 N   0  0  0  0  0  0  0  0  0  2  0  0
   -1.7075    0.8420    0.3647 C   0  0  0  0  0  3  0  0  0  3  0  0
   -4.0950   -0.6299   -0.6037 H   0  0  0  0  0  0  0  0  0  4  0  0
   -1.9721    1.2819    1.3265 H   0  0  0  0  0  0  0  0  0  5  0  0
    0.7396    1.3198   -0.7018 C   0  0  0  0  0  0  0  0  0  6  0  0
    2.0944    0.6305    0.1922 S   0  0  0  0  0  0  0  0  0  7  0  0
    2.0285   -1.0987   -0.3376 C   0  0  0  0  0  0  0  0  0  8  0  0
    0.7924   -1.8593    0.1130 C   0  0  0  0  0  0  0  0  0  9  0  0
   -0.3521    1.0793   -0.1609 H   0  0  0  0  0  0  0  0  0 10  0  0
    0.6409    0.9307   -1.7153 H   0  0  0  0  0  0  0  0  0 11  0  0
    0.8138    2.4057   -0.6998 H   0  0  0  0  0  0  0  0  0 12  0  0
    2.9320   -1.5427    0.0836 H   0  0  0  0  0  0  0  0  0 13  0  0
    2.1316   -1.1252   -1.4243 H   0  0  0  0  0  0  0  0  0 14  0  0
    0.8679   -2.9060   -0.1901 H   0  0  0  0  0  0  0  0  0 15  0  0
   -0.1143   -1.4468   -0.3300 H   0  0  0  0  0  0  0  0  0 16  0  0
    0.6855   -1.8219    1.1978 H   0  0  0  0  0  0  0  0  0 17  0  0
  1  4  1  0
  1  2  1  0
  2  3  1  0
  3  5  1  0
  6 11  1  0
  6  7  1  0
  6 12  1  0
  6 10  1  0
  7  8  1  0
  8  9  1  0
  8 14  1  0
  8 13  1  0
  9 16  1  0
  9 17  1  0
  9 15  1  0
M  RAD  1   3   2
M  END
>  <rmg_smiles>  (3) 
CSCC.[CH][N]O

>  <rmg_adjacency_list>  (3) 
multiplicity 2
1  S u0 p2 c0 {4,S} {6,S}
2  O u0 p2 c0 {3,S} {16,S}
3  N u0 p1 c0 {2,S} {7,S}
4  C u0 p0 c0 {1,S} {5,S} {8,S} {9,S}
5  C u0 p0 c0 {4,S} {10,S} {11,S} {12,S}
6  C u0 p0 c0 {1,S} {13,S} {14,S} {15,S}
7  C u1 p1 c0 {3,S} {17,S}
8  H u0 p0 c0 {4,S}
9  H u0 p0 c0 {4,S}
10 H u0 p0 c0 {5,S}
11 H u0 p0 c0 {5,S}
12 H u0 p0 c0 {5,S}
13 H u0 p0 c0 {6,S}
14 H u0 p0 c0 {6,S}
15 H u0 p0 c0 {6,S}
16 H u0 p0 c0 {2,S}
17 H u0 p0 c0 {7,S}


>  <multiplicity>  (3) 
2

>  <reaction>  (3) 
rmg_rxn_15395

>  <type>  (3) 
ts

>  <role_mapnums>  (3) 
{"*2": 10, "*1": 6, "*3": 3, "*0": 7, "*4": 2}

>  <role_mapidx>  (3) 
{"*2": 9, "*1": 5, "*3": 2, "*0": 6, "*4": 1}

>  <ordered_mapped_smiles>  (3) 
[O:1]([NH:2][CH:3][H:5])[H:4].[C:6]([S:7][C:8]([C:9]([H:15])([H:16])[H:17])([H:13])[H:14])([H:10])([H:11])[H:12]

>  <mol_properties>  (3) 
{"1": {"label": "*4", "atom_type": "N3s"}, "2": {"label": "*3", "atom_type": "C2s"}, "5": {"label": "*1", "atom_type": "Cs"}, "6": {"label": "*0", "atom_type": "S2s"}, "9": {"label": "*2", "atom_type": "H0"}}

>  <level_of_theory>  (3) 
wb97xd/def2tzvp

>  <lot_method>  (3) 
wb97xd

>  <lot_basis>  (3) 
def2tzvp

>  <spin_multiplicity>  (3) 
2.0

>  <optical_isomers>  (3) 
2.0

>  <modes>  (3) 
IdealGasTranslation(mass=(120.048, 'amu')),         NonlinearRotor(             inertia = ([146.364, 598.492, 702.579

>  <frequency_value>  (3) 
-1403.72

>  <frequency_units>  (3) 
cm^-1

>  <frequency_list>  (3) 
unknown

>  <arkane_path>  (3) 
/home/calvin/Dropbox/PersonalFolders/Calvin/ZEUS_Converged/rmg_rxn_15395/output/rxns/TS0/arkane/output.py

>  <path_exists>  (3) 
True

>  <E0_value>  (3) 
-1802010.0

>  <E0_units>  (3) 
kJ/mol

>  <thermo_class>  (3) 
unknown

>  <Cp0_value>  (3) 
unknown

>  <Cp0_units>  (3) 
unknown

>  <CpInf_value>  (3) 
unknown

>  <CpInf_units>  (3) 
unknown

>  <Tmin_value>  (3) 
unknown

>  <Tmin_units>  (3) 
unknown

>  <Tmax_value>  (3) 
unknown

>  <Tmax_units>  (3) 
unknown

>  <polynomials>  (3) 
unknown

>  <H298_value>  (3) 
unknown

>  <H298_units>  (3) 
unknown

>  <S298_value>  (3) 
unknown

>  <S298_units>  (3) 
unknown

>  <Cp_T_value_list>  (3) 
unknown

>  <Cp_T_units>  (3) 
unknown

>  <T_list>  (3) 
unknown

>  <T_units>  (3) 
unknown

>  <yaml_path>  (3) 
unknown

>  <frequencies_cm1>  (3) 
unknown

>  <ZPE_kJmol>  (3) 
unknown

>  <E_elec_kJmol>  (3) 
unknown

>  <E0_minus_Eelec_plus_ZPE_kJmol>  (3) 
unknown

>  <rxn>  (3) 
unknown

>  <species_type>  (3) 
unknown

>  <species_folder>  (3) 
unknown

>  <frequencies_cm1_list>  (3) 
[]

>  <ts_imag_freq_cm1>  (3) 
-1420.7656

>  <ts_freq_out_path>  (3) 
/home/calvin/Dropbox/PersonalFolders/Calvin/ZEUS_Converged/rmg_rxn_15395/output/rxns/TS0/geometry/freq.out

>  <E0_kJmol>  (3) 
-1.80201e+06

>  <H298_kJmol>  (3) 
unknown

$$$$

     RDKit          3D

 11 10  0  0  0  0  0  0  0  0999 V2000
    2.2312    0.7411   -0.3115 C   0  0  0  0  0  3  0  0  0  1  0  0
    0.6426    1.1039   -0.7896 S   0  0  0  0  0  0  0  0  0  2  0  0
    0.9085    2.4168   -2.0061 C   0  0  0  0  0  0  0  0  0  3  0  0
    1.5570    1.9429   -3.2967 C   0  0  0  0  0  0  0  0  0  4  0  0
    2.3707   -0.0938    0.3575 H   0  0  0  0  0  0  0  0  0  5  0  0
    3.0432    1.4267   -0.5066 H   0  0  0  0  0  0  0  0  0  6  0  0
    1.4997    3.2005   -1.5289 H   0  0  0  0  0  0  0  0  0  7  0  0
   -0.0844    2.8269   -2.1951 H   0  0  0  0  0  0  0  0  0  8  0  0
    0.9451    1.1830   -3.7838 H   0  0  0  0  0  0  0  0  0  9  0  0
    1.6803    2.7812   -3.9857 H   0  0  0  0  0  0  0  0  0 10  0  0
    2.5399    1.5119   -3.1043 H   0  0  0  0  0  0  0  0  0 11  0  0
  1  5  1  0
  1  2  1  0
  1  6  1  0
  2  3  1  0
  3  4  1  0
  3  7  1  0
  3  8  1  0
  4  9  1  0
  4 10  1  0
  4 11  1  0
M  RAD  1   1   2
M  END
>  <rmg_smiles>  (4) 
[CH2]SCC

>  <rmg_adjacency_list>  (4) 
multiplicity 2
1  S u0 p2 c0 {2,S} {4,S}
2  C u0 p0 c0 {1,S} {3,S} {5,S} {6,S}
3  C u0 p0 c0 {2,S} {7,S} {8,S} {9,S}
4  C u1 p0 c0 {1,S} {10,S} {11,S}
5  H u0 p0 c0 {2,S}
6  H u0 p0 c0 {2,S}
7  H u0 p0 c0 {3,S}
8  H u0 p0 c0 {3,S}
9  H u0 p0 c0 {3,S}
10 H u0 p0 c0 {4,S}
11 H u0 p0 c0 {4,S}


>  <multiplicity>  (4) 
2

>  <reaction>  (4) 
rmg_rxn_15395

>  <type>  (4) 
r1

>  <role_mapnums>  (4) 
{}

>  <role_mapidx>  (4) 
{}

>  <ordered_mapped_smiles>  (4) 
[C:1]([S:2][C:3]([C:4]([H:9])([H:10])[H:11])([H:7])[H:8])([H:5])[H:6]

>  <level_of_theory>  (4) 
wb97xd/def2tzvp

>  <lot_method>  (4) 
wb97xd

>  <lot_basis>  (4) 
def2tzvp

>  <spin_multiplicity>  (4) 
2.0

>  <optical_isomers>  (4) 
2.0

>  <modes>  (4) 
IdealGasTranslation(mass=(75.0268, 'amu')),         NonlinearRotor(             inertia = ([46.1764, 125.175, 150.124

>  <frequency_value>  (4) 
unknown

>  <frequency_units>  (4) 
unknown

>  <frequency_list>  (4) 
unknown

>  <arkane_path>  (4) 
/home/calvin/Dropbox/PersonalFolders/Calvin/ZEUS_Converged/rmg_rxn_15395/output/Species/rmg_rxn_15395_p2_sbr-CH2-sbrSCC/arkane/output.py

>  <path_exists>  (4) 
True

>  <E0_value>  (4) 
-1356326.8288123896

>  <E0_units>  (4) 
kJ/mol

>  <thermo_class>  (4) 
NASA

>  <Cp0_value>  (4) 
33.257888

>  <Cp0_units>  (4) 
J/(mol*K)

>  <CpInf_value>  (4) 
257.748632

>  <CpInf_units>  (4) 
J/(mol*K)

>  <Tmin_value>  (4) 
10.0

>  <Tmin_units>  (4) 
K

>  <Tmax_value>  (4) 
3000.0

>  <Tmax_units>  (4) 
K

>  <polynomials>  (4) 
[{"name": "polynomial1", "class": "NASAPolynomial", "Tmin_value": 10.0, "Tmin_units": "K", "Tmax_value": 163.4952719794926, "Tmax_units": "K", "coeffs": [3.883538247503255, 0.01179820100591988, 0.00018609888055023916, -8.31094861987815e-07, 1.2781346604440654e-09, -163128450.9547263, 10.667747993420798]}, {"name": "polynomial2", "class": "NASAPolynomial", "Tmin_value": 163.4952719794926, "Tmin_units": "K", "Tmax_value": 3000.0, "Tmax_units": "K", "coeffs": [2.9698126223997274, 0.034152568096448364, -1.898910515491112e-05, 5.1540054819204435e-09, -5.461073910105782e-13, -163128421.07619694, 13.42123244691365]}]

>  <H298_value>  (4) 
-324165.39987096534

>  <H298_units>  (4) 
kcal/mol

>  <S298_value>  (4) 
78.93031498606308

>  <S298_units>  (4) 
cal/(mol*K)

>  <Cp_T_value_list>  (4) 
[23.133663592843007, 27.638980218249042, 31.61434770996463, 35.10949804308513, 40.84505239603056, 45.191408126281466, 51.87260374384918, 55.269883871257925, 57.01130427189042]

>  <Cp_T_units>  (4) 
cal/(mol*K)

>  <T_list>  (4) 
[300.0, 400.0, 500.0, 600.0, 800.0, 1000.0, 1500.0, 2000.0, 2400.0]

>  <T_units>  (4) 
K

>  <yaml_path>  (4) 
/home/calvin/Dropbox/PersonalFolders/Calvin/ZEUS_Converged/rmg_rxn_15395/output/Species/rmg_rxn_15395_p2_sbr-CH2-sbrSCC/rmg_rxn_15395_p2_sbr-CH2-sbrSCC.yml

>  <frequencies_cm1>  (4) 
[110.60653254923999, 205.67307731931996, 220.086879506, 285.94813571012, 367.82320168047994, 369.88329727648, 670.6023184099199, 763.8628460408399, 854.34224461716, 913.1854418242399, 983.7231150312799, 1058.73119568164, 1076.4068158953198, 1269.6918516973599, 1295.3263078969198, 1396.0581155559998, 1402.33454013848, 1458.69188865972, 1476.6353213008802, 1485.0748462591598, 3018.4589342445192, 3035.15257555744, 3083.1459359589203, 3092.3408293024, 3109.00013568872, 3136.8045592493995, 3260.19741846448]

>  <ZPE_kJmol>  (4) 
235.6631361203891

>  <E_elec_kJmol>  (4) 
-1356562.49194851

>  <E0_minus_Eelec_plus_ZPE_kJmol>  (4) 
0.0

>  <rxn>  (4) 
rmg_rxn_15395

>  <species_type>  (4) 
p1

>  <species_folder>  (4) 
rmg_rxn_15395_p2_sbr-CH2-sbrSCC

>  <frequencies_cm1_list>  (4) 
[110.60653254923999, 205.67307731931996, 220.086879506, 285.94813571012, 367.82320168047994, 369.88329727648, 670.6023184099199, 763.8628460408399, 854.34224461716, 913.1854418242399, 983.7231150312799, 1058.73119568164, 1076.4068158953198, 1269.6918516973599, 1295.3263078969198, 1396.0581155559998, 1402.33454013848, 1458.69188865972, 1476.6353213008802, 1485.0748462591598, 3018.4589342445192, 3035.15257555744, 3083.1459359589203, 3092.3408293024, 3109.00013568872, 3136.8045592493995, 3260.19741846448]

>  <E0_kJmol>  (4) 
-1.35633e+06

>  <H298_kJmol>  (4) 
-1.35631e+06

$$$$

     RDKit          3D

  5  4  0  0  0  0  0  0  0  0999 V2000
    0.8934    0.3742    0.4948 O   0  0  0  0  0  0  0  0  0  1  0  0
    0.1582   -0.1610   -0.5904 N   0  0  0  0  0  0  0  0  0  2  0  0
   -1.0297   -0.3739   -0.4689 C   0  0  0  0  0  3  0  0  0  3  0  0
    1.7804    0.4382    0.1306 H   0  0  0  0  0  0  0  0  0  4  0  0
   -1.8023   -0.2775    0.2859 H   0  0  0  0  0  0  0  0  0  5  0  0
  1  4  1  0
  1  2  1  0
  2  3  1  0
  3  5  1  0
M  RAD  1   3   2
M  END
>  <rmg_smiles>  (5) 
[CH][N]O

>  <rmg_adjacency_list>  (5) 
multiplicity 2
1 O u0 p2 c0 {2,S} {4,S}
2 N u0 p1 c0 {1,S} {3,S}
3 C u1 p1 c0 {2,S} {5,S}
4 H u0 p0 c0 {1,S}
5 H u0 p0 c0 {3,S}


>  <multiplicity>  (5) 
2

>  <reaction>  (5) 
rmg_rxn_15395

>  <type>  (5) 
r2

>  <role_mapnums>  (5) 
{}

>  <role_mapidx>  (5) 
{}

>  <ordered_mapped_smiles>  (5) 
[O:1]([NH:2][CH:3][H:5])[H:4]

>  <level_of_theory>  (5) 
wb97xd/def2tzvp

>  <lot_method>  (5) 
wb97xd

>  <lot_basis>  (5) 
def2tzvp

>  <spin_multiplicity>  (5) 
2.0

>  <optical_isomers>  (5) 
1.0

>  <modes>  (5) 
IdealGasTranslation(mass=(44.0136, 'amu')),         NonlinearRotor(inertia=([5.8161, 41.482, 47.298

>  <frequency_value>  (5) 
unknown

>  <frequency_units>  (5) 
unknown

>  <frequency_list>  (5) 
unknown

>  <arkane_path>  (5) 
/home/calvin/Dropbox/PersonalFolders/Calvin/ZEUS_Converged/rmg_rxn_15395/output/Species/rmg_rxn_15395_r1_ON=sbr-CH-sbr/arkane/output.py

>  <path_exists>  (5) 
True

>  <E0_value>  (5) 
-444005.3444875403

>  <E0_units>  (5) 
kJ/mol

>  <thermo_class>  (5) 
NASA

>  <Cp0_value>  (5) 
33.257888

>  <Cp0_units>  (5) 
J/(mol*K)

>  <CpInf_value>  (5) 
108.088136

>  <CpInf_units>  (5) 
J/(mol*K)

>  <Tmin_value>  (5) 
10.0

>  <Tmin_units>  (5) 
K

>  <Tmax_value>  (5) 
3000.0

>  <Tmax_units>  (5) 
K

>  <polynomials>  (5) 
[{"name": "polynomial1", "class": "NASAPolynomial", "Tmin_value": 10.0, "Tmin_units": "K", "Tmax_value": 582.3897944984312, "Tmax_units": "K", "coeffs": [3.9652725251487997, 0.0020023225588121428, 4.0599056262928875e-05, -7.75899274364692e-08, 4.4513181050887496e-11, -53401506.385814846, 6.827044892789236]}, {"name": "polynomial2", "class": "NASAPolynomial", "Tmin_value": 582.3897944984312, "Tmin_units": "K", "Tmax_value": 3000.0, "Tmax_units": "K", "coeffs": [3.5772944330084147, 0.012861032030441071, -8.472942585347425e-06, 2.741567682664952e-09, -3.4073253039207466e-13, -53401600.15572128, 7.296045717872725]}]

>  <H298_value>  (5) 
-106116.8465159924

>  <H298_units>  (5) 
kcal/mol

>  <S298_value>  (5) 
62.04111940413777

>  <S298_units>  (5) 
cal/(mol*K)

>  <Cp_T_value_list>  (5) 
[12.888053758950505, 14.776534941782554, 16.29416082392464, 17.47087173516364, 19.290917222749155, 20.599817847495114, 22.5201252902908, 23.62472390428687, 24.312211768096834]

>  <Cp_T_units>  (5) 
cal/(mol*K)

>  <T_list>  (5) 
[300.0, 400.0, 500.0, 600.0, 800.0, 1000.0, 1500.0, 2000.0, 2400.0]

>  <T_units>  (5) 
K

>  <yaml_path>  (5) 
/home/calvin/Dropbox/PersonalFolders/Calvin/ZEUS_Converged/rmg_rxn_15395/output/Species/rmg_rxn_15395_r1_ON=sbr-CH-sbr/rmg_rxn_15395_r1_ON=sbr-CH-sbr.yml

>  <frequencies_cm1>  (5) 
[408.41395190699996, 412.06718809724, 739.15543285948, 761.7272136063199, 904.39570061464, 1348.7789216278, 1755.3113195571198, 3153.319658944, 3818.4558570392]

>  <ZPE_kJmol>  (5) 
79.5614101222066

>  <E_elec_kJmol>  (5) 
-444084.9058976625

>  <E0_minus_Eelec_plus_ZPE_kJmol>  (5) 
0.0

>  <rxn>  (5) 
rmg_rxn_15395

>  <species_type>  (5) 
r0

>  <species_folder>  (5) 
rmg_rxn_15395_r1_ON=sbr-CH-sbr

>  <frequencies_cm1_list>  (5) 
[408.41395190699996, 412.06718809724, 739.15543285948, 761.7272136063199, 904.39570061464, 1348.7789216278, 1755.3113195571198, 3153.319658944, 3818.4558570392]

>  <E0_kJmol>  (5) 
-444005

>  <H298_kJmol>  (5) 
-443993

$$$$
