
     RDKit          3D

 10  9  0  0  0  0  0  0  0  0999 V2000
   -0.1645    0.3660    1.8447 C   0  0  0  0  0  0  0  0  0  1  0  0
   -0.1282   -0.1129    0.6632 C   0  0  0  0  0  2  0  0  0  2  0  0
   -0.2057   -0.5166   -0.5879 C   0  0  0  0  0  0  0  0  0  3  0  0
    0.4636    0.1728   -1.7391 C   0  0  0  0  0  0  0  0  0  4  0  0
   -0.9710    1.0581    2.0339 H   0  0  0  0  0  0  0  0  0  5  0  0
    0.4797    0.2051    2.6960 H   0  0  0  0  0  0  0  0  0  6  0  0
   -0.7825   -1.4111   -0.8025 H   0  0  0  0  0  0  0  0  0  7  0  0
    1.1559   -0.5000   -2.2516 H   0  0  0  0  0  0  0  0  0  8  0  0
    1.0217    1.0466   -1.4042 H   0  0  0  0  0  0  0  0  0  9  0  0
   -0.2756    0.4976   -2.4765 H   0  0  0  0  0  0  0  0  0 10  0  0
  1  5  1  0
  1  6  1  0
  1  2  1  0
  2  3  1  0
  3  4  1  0
  3  7  1  0
  4  8  1  0
  4  9  1  0
  4 10  1  0
M  RAD  1   2   3
M  END
>  <rmg_smiles>  (1) 
[CH2][C][CH]C

>  <rmg_adjacency_list>  (1) 
1  C u0 p0 c0 {2,S} {5,S} {6,S} {7,S}
2  C u0 p0 c0 {1,S} {4,S} {8,S}
3  C u0 p0 c0 {4,S} {9,S} {10,S}
4  C u0 p1 c0 {2,S} {3,S}
5  H u0 p0 c0 {1,S}
6  H u0 p0 c0 {1,S}
7  H u0 p0 c0 {1,S}
8  H u0 p0 c0 {2,S}
9  H u0 p0 c0 {3,S}
10 H u0 p0 c0 {3,S}


>  <multiplicity>  (1) 
1

>  <reaction>  (1) 
rmg_rxn_14053

>  <type>  (1) 
r1h

>  <role_mapnums>  (1) 
{"r1h_a": 1, "r1h_h": 5}

>  <role_mapidx>  (1) 
{"r1h_a": 0, "r1h_h": 4}

>  <ordered_mapped_smiles>  (1) 
[CH:1]([C:2][CH:3]([C:4]([H:8])([H:9])[H:10])[H:7])([H:5])[H:6]

>  <mol_properties>  (1) 
{"0": {"label": "donator", "atom_type": "Cs"}, "4": {"label": "d_hydrogen", "atom_type": "H0"}}

>  <level_of_theory>  (1) 
wb97xd/def2tzvp

>  <lot_method>  (1) 
wb97xd

>  <lot_basis>  (1) 
def2tzvp

>  <spin_multiplicity>  (1) 
1.0

>  <optical_isomers>  (1) 
1.0

>  <modes>  (1) 
IdealGasTranslation(mass=(54.047, 'amu')),         NonlinearRotor(             inertia = ([14.6121, 119.467, 127.49

>  <frequency_value>  (1) 
unknown

>  <frequency_units>  (1) 
unknown

>  <frequency_list>  (1) 
unknown

>  <arkane_path>  (1) 
/home/calvin/Dropbox/PersonalFolders/Calvin/ZEUS_Converged/rmg_rxn_14053/output/Species/rmg_rxn_14053_r1_C=C=CC/arkane/output.py

>  <path_exists>  (1) 
True

>  <E0_value>  (1) 
-409296.6502421279

>  <E0_units>  (1) 
kJ/mol

>  <thermo_class>  (1) 
NASA

>  <Cp0_value>  (1) 
33.257888

>  <Cp0_units>  (1) 
J/(mol*K)

>  <CpInf_value>  (1) 
232.805216

>  <CpInf_units>  (1) 
J/(mol*K)

>  <Tmin_value>  (1) 
10.0

>  <Tmin_units>  (1) 
K

>  <Tmax_value>  (1) 
3000.0

>  <Tmax_units>  (1) 
K

>  <polynomials>  (1) 
[{"name": "polynomial1", "class": "NASAPolynomial", "Tmin_value": 10.0, "Tmin_units": "K", "Tmax_value": 452.8802664009696, "Tmax_units": "K", "coeffs": [3.9021943352433452, 0.007937521032632688, 6.664442489196733e-05, -1.2131953588307993e-07, 6.938885885775227e-11, -49227014.555544384, 8.255511443201872]}, {"name": "polynomial2", "class": "NASAPolynomial", "Tmin_value": 452.8802664009696, "Tmin_units": "K", "Tmax_value": 3000.0, "Tmax_units": "K", "coeffs": [0.958037882717614, 0.033941191741253485, -1.948265019694705e-05, 5.463813645242153e-09, -5.979209978345261e-13, -49226747.88374059, 20.12723627389473]}]

>  <H298_value>  (1) 
-97820.47439749332

>  <H298_units>  (1) 
kcal/mol

>  <S298_value>  (1) 
69.30943774444917

>  <S298_units>  (1) 
cal/(mol*K)

>  <Cp_T_value_list>  (1) 
[19.013335795722274, 23.35407848830737, 27.231838984706652, 30.626214617830076, 36.15654523435027, 40.30546036176962, 46.594544625367064, 49.786664420046236, 51.450781523093035]

>  <Cp_T_units>  (1) 
cal/(mol*K)

>  <T_list>  (1) 
[300.0, 400.0, 500.0, 600.0, 800.0, 1000.0, 1500.0, 2000.0, 2400.0]

>  <T_units>  (1) 
K

>  <yaml_path>  (1) 
/home/calvin/Dropbox/PersonalFolders/Calvin/ZEUS_Converged/rmg_rxn_14053/output/Species/rmg_rxn_14053_r1_C=C=CC/rmg_rxn_14053_r1_C=C=CC.yml

>  <frequencies_cm1>  (1) 
[164.84884959192, 210.28769145436, 340.98015606459995, 540.2944049775999, 574.7186023867599, 878.6239047086799, 884.0282221555199, 895.09093550604, 1017.79709618912, 1055.91573170044, 1088.91159616304, 1146.5530709391198, 1353.77808694076, 1399.01778622892, 1463.354571692, 1470.3726306890399, 1494.8053644576, 2061.4346581373993, 3012.63573069316, 3072.0282867258397, 3106.42501619372, 3110.62074422424, 3124.134971334, 3189.66661224276]

>  <ZPE_kJmol>  (1) 
219.25357474583132

>  <E_elec_kJmol>  (1) 
-409515.9038168737

>  <E0_minus_Eelec_plus_ZPE_kJmol>  (1) 
0.0

>  <rxn>  (1) 
rmg_rxn_14053

>  <species_type>  (1) 
r0

>  <species_folder>  (1) 
rmg_rxn_14053_r1_C=C=CC

>  <frequencies_cm1_list>  (1) 
[164.84884959192, 210.28769145436, 340.98015606459995, 540.2944049775999, 574.7186023867599, 878.6239047086799, 884.0282221555199, 895.09093550604, 1017.79709618912, 1055.91573170044, 1088.91159616304, 1146.5530709391198, 1353.77808694076, 1399.01778622892, 1463.354571692, 1470.3726306890399, 1494.8053644576, 2061.4346581373993, 3012.63573069316, 3072.0282867258397, 3106.42501619372, 3110.62074422424, 3124.134971334, 3189.66661224276]

>  <E0_kJmol>  (1) 
-409297

>  <H298_kJmol>  (1) 
-409281

$$$$

     RDKit          3D

 15 14  0  0  0  0  0  0  0  0999 V2000
    1.2599   -0.4851    0.5470 H   0  0  0  0  0  0  0  0  0  1  0  0
   -1.1511   -1.7682    0.3261 C   0  0  0  0  0  0  0  0  0  2  0  0
   -0.7515   -0.5545    1.1577 C   0  0  0  0  0  0  0  0  0  3  0  0
    0.4105    0.2092    0.5862 C   0  0  0  0  0  0  0  0  0  4  0  0
    0.1822    0.6098   -0.7074 O   0  0  0  0  0  0  0  0  0  5  0  0
    1.1889    1.4362   -1.2416 C   0  0  0  0  0  0  0  0  0  6  0  0
   -0.3178   -2.4668    0.2367 H   0  0  0  0  0  0  0  0  0  7  0  0
   -1.9900   -2.2909    0.7875 H   0  0  0  0  0  0  0  0  0  8  0  0
   -1.4461   -1.4685   -0.6793 H   0  0  0  0  0  0  0  0  0  9  0  0
   -0.4770   -0.8637    2.1697 H   0  0  0  0  0  0  0  0  0 10  0  0
   -1.6059    0.1250    1.2584 H   0  0  0  0  0  0  0  0  0 11  0  0
    0.7777    1.0233    1.2245 H   0  0  0  0  0  0  0  0  0 12  0  0
    2.1532    0.9191   -1.2536 H   0  0  0  0  0  0  0  0  0 13  0  0
    1.2864    2.3605   -0.6594 H   0  0  0  0  0  0  0  0  0 14  0  0
    0.8971    1.6826   -2.2607 H   0  0  0  0  0  0  0  0  0 15  0  0
  1  4  1  0
  2  9  1  0
  2  7  1  0
  2  8  1  0
  2  3  1  0
  3  4  1  0
  3 11  1  0
  3 10  1  0
  4 12  1  0
  4  5  1  0
  5  6  1  0
  6 15  1  0
  6 14  1  0
  6 13  1  0
M  END
>  <rmg_smiles>  (2) 
CCCOC

>  <rmg_adjacency_list>  (2) 
1  O u0 p2 c0 {3,S} {5,S}
2  C u0 p0 c0 {3,S} {4,S} {6,S} {7,S}
3  C u0 p0 c0 {1,S} {2,S} {8,S} {9,S}
4  C u0 p0 c0 {2,S} {10,S} {11,S} {12,S}
5  C u0 p0 c0 {1,S} {13,S} {14,S} {15,S}
6  H u0 p0 c0 {2,S}
7  H u0 p0 c0 {2,S}
8  H u0 p0 c0 {3,S}
9  H u0 p0 c0 {3,S}
10 H u0 p0 c0 {4,S}
11 H u0 p0 c0 {4,S}
12 H u0 p0 c0 {4,S}
13 H u0 p0 c0 {5,S}
14 H u0 p0 c0 {5,S}
15 H u0 p0 c0 {5,S}


>  <multiplicity>  (2) 
1

>  <reaction>  (2) 
rmg_rxn_14053

>  <type>  (2) 
r2h

>  <role_mapnums>  (2) 
{"r2h_a": 4, "r2h_h": 1}

>  <role_mapidx>  (2) 
{"r2h_a": 3, "r2h_h": 0}

>  <ordered_mapped_smiles>  (2) 
[H:1][C:4]([C:3]([C:2]([H:7])([H:8])[H:9])([H:10])[H:11])([O:5][C:6]([H:13])([H:14])[H:15])[H:12]

>  <mol_properties>  (2) 
{"0": {"label": "a_hydrogen", "atom_type": "H0"}, "3": {"label": "acceptor", "atom_type": "Cs"}}

>  <level_of_theory>  (2) 
wb97xd/def2tzvp

>  <lot_method>  (2) 
wb97xd

>  <lot_basis>  (2) 
def2tzvp

>  <spin_multiplicity>  (2) 
1.0

>  <optical_isomers>  (2) 
2.0

>  <modes>  (2) 
IdealGasTranslation(mass=(74.0732, 'amu')),         NonlinearRotor(             inertia = ([40.784, 192.218, 211.735

>  <frequency_value>  (2) 
unknown

>  <frequency_units>  (2) 
unknown

>  <frequency_list>  (2) 
unknown

>  <arkane_path>  (2) 
/home/calvin/Dropbox/PersonalFolders/Calvin/ZEUS_Converged/rmg_rxn_14053/output/Species/rmg_rxn_14053_p2_CCCOC/arkane/output.py

>  <path_exists>  (2) 
True

>  <E0_value>  (2) 
-613163.1274359095

>  <E0_units>  (2) 
kJ/mol

>  <thermo_class>  (2) 
NASA

>  <Cp0_value>  (2) 
33.257888

>  <Cp0_units>  (2) 
J/(mol*K)

>  <CpInf_value>  (2) 
357.522296

>  <CpInf_units>  (2) 
J/(mol*K)

>  <Tmin_value>  (2) 
10.0

>  <Tmin_units>  (2) 
K

>  <Tmax_value>  (2) 
3000.0

>  <Tmax_units>  (2) 
K

>  <polynomials>  (2) 
[{"name": "polynomial1", "class": "NASAPolynomial", "Tmin_value": 10.0, "Tmin_units": "K", "Tmax_value": 456.12560324554056, "Tmax_units": "K", "coeffs": [3.62223196701835, 0.03879795217402279, -8.359648491421e-05, 2.4522721819815076e-07, -2.187140949836333e-10, -73746489.62884024, 10.515609438787227]}, {"name": "polynomial2", "class": "NASAPolynomial", "Tmin_value": 456.12560324554056, "Tmin_units": "K", "Tmax_value": 3000.0, "Tmax_units": "K", "coeffs": [-2.20935170520275, 0.056485006605310945, -3.174876766111153e-05, 8.65420390010314e-09, -9.198389746305381e-13, -73745609.6450763, 37.88661603232218]}]

>  <H298_value>  (2) 
-146544.64412500645

>  <H298_units>  (2) 
kcal/mol

>  <S298_value>  (2) 
80.94634663649457

>  <S298_units>  (2) 
cal/(mol*K)

>  <Cp_T_value_list>  (2) 
[25.013931424396034, 31.51994949570118, 37.99587562842776, 43.72290058989096, 53.08549647523409, 60.13535702830284, 70.81347633831932, 76.07383878332065, 78.6922399009724]

>  <Cp_T_units>  (2) 
cal/(mol*K)

>  <T_list>  (2) 
[300.0, 400.0, 500.0, 600.0, 800.0, 1000.0, 1500.0, 2000.0, 2400.0]

>  <T_units>  (2) 
K

>  <yaml_path>  (2) 
/home/calvin/Dropbox/PersonalFolders/Calvin/ZEUS_Converged/rmg_rxn_14053/output/Species/rmg_rxn_14053_p2_CCCOC/rmg_rxn_14053_p2_CCCOC.yml

>  <frequencies_cm1>  (2) 
[91.63991909539999, 126.96369158147998, 202.90568223536002, 229.57705321824, 300.01172164547995, 354.24717170284, 509.22129640459997, 764.38473692516, 888.9449836446399, 924.72884414716, 957.6835066978399, 1072.9458552940398, 1116.4482072962398, 1154.8689901616399, 1177.001283848, 1188.20133690492, 1229.14230338276, 1271.07211574668, 1307.65941353164, 1369.5858871474, 1403.3027850685999, 1415.972372984, 1467.6807724436, 1468.93743075716, 1475.31686011944, 1481.9915698504797, 1490.39675988216, 1494.07059702836, 1510.75737135596, 2928.3984217727198, 2950.9908034755194, 2962.18398954712, 2998.10518975604, 3014.75762915704, 3020.7181724148, 3057.78615917216, 3085.0343569219203, 3099.33828734348, 3104.91427942332]

>  <ZPE_kJmol>  (2) 
356.89332738911673

>  <E_elec_kJmol>  (2) 
-613520.0207632986

>  <E0_minus_Eelec_plus_ZPE_kJmol>  (2) 
0.0

>  <rxn>  (2) 
rmg_rxn_14053

>  <species_type>  (2) 
p1

>  <species_folder>  (2) 
rmg_rxn_14053_p2_CCCOC

>  <frequencies_cm1_list>  (2) 
[91.63991909539999, 126.96369158147998, 202.90568223536002, 229.57705321824, 300.01172164547995, 354.24717170284, 509.22129640459997, 764.38473692516, 888.9449836446399, 924.72884414716, 957.6835066978399, 1072.9458552940398, 1116.4482072962398, 1154.8689901616399, 1177.001283848, 1188.20133690492, 1229.14230338276, 1271.07211574668, 1307.65941353164, 1369.5858871474, 1403.3027850685999, 1415.972372984, 1467.6807724436, 1468.93743075716, 1475.31686011944, 1481.9915698504797, 1490.39675988216, 1494.07059702836, 1510.75737135596, 2928.3984217727198, 2950.9908034755194, 2962.18398954712, 2998.10518975604, 3014.75762915704, 3020.7181724148, 3057.78615917216, 3085.0343569219203, 3099.33828734348, 3104.91427942332]

>  <E0_kJmol>  (2) 
-613163

>  <H298_kJmol>  (2) 
-613143

$$$$

     RDKit          3D

 24 22  0  0  0  0  0  0  0  0999 V2000
    1.3446   -0.7936    0.9045 C   0  0  0  0  0  0  0  0  0  1  0  0
    1.3809   -1.2725   -0.2770 C   0  0  0  0  0  0  0  0  0  2  0  0
    1.3034   -1.6762   -1.5280 C   0  0  0  0  0  3  0  0  0  3  0  0
    1.9726   -0.9868   -2.6792 C   0  0  0  0  0  0  0  0  0  4  0  0
    0.3239    0.0822    1.1439 H   0  0  0  0  0  0  0  0  0  5  0  0
    1.9887   -0.9545    1.7558 H   0  0  0  0  0  0  0  0  0  6  0  0
    0.7266   -2.5707   -1.7427 H   0  0  0  0  0  0  0  0  0  7  0  0
    2.6650   -1.6596   -3.1918 H   0  0  0  0  0  0  0  0  0  8  0  0
    2.5308   -0.1130   -2.3443 H   0  0  0  0  0  0  0  0  0  9  0  0
    1.2335   -0.6620   -3.4167 H   0  0  0  0  0  0  0  0  0 10  0  0
   -2.2690   -1.0523    0.9314 C   0  0  0  0  0  0  0  0  0 11  0  0
   -1.8694    0.1614    1.7630 C   0  0  0  0  0  0  0  0  0 12  0  0
   -0.7074    0.9251    1.1914 C   0  0  0  0  0  0  0  0  0 13  0  0
   -0.9357    1.3257   -0.1021 O   0  0  0  0  0  0  0  0  0 14  0  0
    0.0710    2.1522   -0.6364 C   0  0  0  0  0  0  0  0  0 15  0  0
   -1.4356   -1.7509    0.8419 H   0  0  0  0  0  0  0  0  0 16  0  0
   -3.1079   -1.5749    1.3927 H   0  0  0  0  0  0  0  0  0 17  0  0
   -2.5640   -0.7526   -0.0740 H   0  0  0  0  0  0  0  0  0 18  0  0
   -1.5949   -0.1478    2.7750 H   0  0  0  0  0  0  0  0  0 19  0  0
   -2.7238    0.8409    1.8637 H   0  0  0  0  0  0  0  0  0 20  0  0
   -0.3402    1.7392    1.8297 H   0  0  0  0  0  0  0  0  0 21  0  0
    1.0353    1.6350   -0.6484 H   0  0  0  0  0  0  0  0  0 22  0  0
    0.1685    3.0765   -0.0542 H   0  0  0  0  0  0  0  0  0 23  0  0
   -0.2208    2.3985   -1.6555 H   0  0  0  0  0  0  0  0  0 24  0  0
  1  6  1  0
  1  2  1  0
  2  3  1  0
  3  4  1  0
  3  7  1  0
  4 10  1  0
  4  9  1  0
  4  8  1  0
  5 13  1  0
 11 17  1  0
 11 12  1  0
 11 16  1  0
 11 18  1  0
 12 19  1  0
 12 20  1  0
 12 13  1  0
 13 21  1  0
 13 14  1  0
 14 15  1  0
 15 23  1  0
 15 22  1  0
 15 24  1  0
M  RAD  1   3   2
M  END
>  <rmg_smiles>  (3) 
CCCOC.[CH]C[CH]C

>  <rmg_adjacency_list>  (3) 
multiplicity 2
1  O u0 p2 c0 {3,S} {6,S}
2  C u0 p0 c0 {3,S} {4,S} {10,S} {11,S}
3  C u0 p0 c0 {1,S} {2,S} {12,S} {13,S}
4  C u0 p0 c0 {2,S} {14,S} {15,S} {16,S}
5  C u0 p0 c0 {7,S} {17,S} {18,S} {19,S}
6  C u0 p0 c0 {1,S} {20,S} {21,S} {22,S}
7  C u1 p0 c0 {5,S} {8,S} {23,S}
8  C u0 p1 c0 {7,S} {9,S}
9  C u0 p1 c0 {8,S} {24,S}
10 H u0 p0 c0 {2,S}
11 H u0 p0 c0 {2,S}
12 H u0 p0 c0 {3,S}
13 H u0 p0 c0 {3,S}
14 H u0 p0 c0 {4,S}
15 H u0 p0 c0 {4,S}
16 H u0 p0 c0 {4,S}
17 H u0 p0 c0 {5,S}
18 H u0 p0 c0 {5,S}
19 H u0 p0 c0 {5,S}
20 H u0 p0 c0 {6,S}
21 H u0 p0 c0 {6,S}
22 H u0 p0 c0 {6,S}
23 H u0 p0 c0 {7,S}
24 H u0 p0 c0 {9,S}


>  <multiplicity>  (3) 
2

>  <reaction>  (3) 
rmg_rxn_14053

>  <type>  (3) 
ts

>  <role_mapnums>  (3) 
{"*2": 5, "*1": 1, "*3": 13, "*0": 14, "*4": 2}

>  <role_mapidx>  (3) 
{"*2": 4, "*1": 0, "*3": 12, "*0": 13, "*4": 1}

>  <ordered_mapped_smiles>  (3) 
[CH2:1]([CH2:2][C:3]([C:4]([H:8])([H:9])[H:10])[H:7])[H:6].[H:5][C:13]([C:12]([C:11]([H:16])([H:17])[H:18])([H:19])[H:20])([O:14][C:15]([H:22])([H:23])[H:24])[H:21]

>  <mol_properties>  (3) 
{"0": {"label": "*1", "atom_type": "C2s"}, "1": {"label": "*4", "atom_type": "C2s"}, "4": {"label": "*2", "atom_type": "H0"}, "12": {"label": "*3", "atom_type": "Cs"}, "13": {"label": "*0", "atom_type": "O2s"}}

>  <level_of_theory>  (3) 
wb97xd/def2tzvp

>  <lot_method>  (3) 
wb97xd

>  <lot_basis>  (3) 
def2tzvp

>  <spin_multiplicity>  (3) 
2.0

>  <optical_isomers>  (3) 
2.0

>  <modes>  (3) 
IdealGasTranslation(mass=(127.112, 'amu')),         NonlinearRotor(             inertia = ([265.988, 566.162, 673.39

>  <frequency_value>  (3) 
-1665.36

>  <frequency_units>  (3) 
cm^-1

>  <frequency_list>  (3) 
unknown

>  <arkane_path>  (3) 
/home/calvin/Dropbox/PersonalFolders/Calvin/ZEUS_Converged/rmg_rxn_14053/output/rxns/TS0/arkane/output.py

>  <path_exists>  (3) 
True

>  <E0_value>  (3) 
-1020710.0

>  <E0_units>  (3) 
kJ/mol

>  <thermo_class>  (3) 
unknown

>  <Cp0_value>  (3) 
unknown

>  <Cp0_units>  (3) 
unknown

>  <CpInf_value>  (3) 
unknown

>  <CpInf_units>  (3) 
unknown

>  <Tmin_value>  (3) 
unknown

>  <Tmin_units>  (3) 
unknown

>  <Tmax_value>  (3) 
unknown

>  <Tmax_units>  (3) 
unknown

>  <polynomials>  (3) 
unknown

>  <H298_value>  (3) 
unknown

>  <H298_units>  (3) 
unknown

>  <S298_value>  (3) 
unknown

>  <S298_units>  (3) 
unknown

>  <Cp_T_value_list>  (3) 
unknown

>  <Cp_T_units>  (3) 
unknown

>  <T_list>  (3) 
unknown

>  <T_units>  (3) 
unknown

>  <yaml_path>  (3) 
unknown

>  <frequencies_cm1>  (3) 
unknown

>  <ZPE_kJmol>  (3) 
unknown

>  <E_elec_kJmol>  (3) 
unknown

>  <E0_minus_Eelec_plus_ZPE_kJmol>  (3) 
unknown

>  <rxn>  (3) 
unknown

>  <species_type>  (3) 
unknown

>  <species_folder>  (3) 
unknown

>  <frequencies_cm1_list>  (3) 
[]

>  <ts_imag_freq_cm1>  (3) 
-1685.5849

>  <ts_freq_out_path>  (3) 
/home/calvin/Dropbox/PersonalFolders/Calvin/ZEUS_Converged/rmg_rxn_14053/output/rxns/TS0/geometry/freq.out

>  <E0_kJmol>  (3) 
-1.02071e+06

>  <H298_kJmol>  (3) 
unknown

$$$$

     RDKit          3D

  9  8  0  0  0  0  0  0  0  0999 V2000
    2.3032   -0.0159    0.1474 C   0  0  0  0  0  0  0  0  0  1  0  0
    1.1288    0.2882    0.0537 C   0  0  0  0  0  0  0  0  0  2  0  0
   -0.1975    0.6198   -0.0514 C   0  0  0  0  0  3  0  0  0  3  0  0
   -1.2977   -0.3866   -0.0637 C   0  0  0  0  0  0  0  0  0  4  0  0
    3.3305   -0.2768    0.2290 H   0  0  0  0  0  0  0  0  0  5  0  0
   -0.4545    1.6699   -0.1294 H   0  0  0  0  0  0  0  0  0  6  0  0
   -1.9941   -0.2122    0.7624 H   0  0  0  0  0  0  0  0  0  7  0  0
   -0.9106   -1.4008    0.0205 H   0  0  0  0  0  0  0  0  0  8  0  0
   -1.8810   -0.3144   -0.9870 H   0  0  0  0  0  0  0  0  0  9  0  0
  1  5  1  0
  1  2  1  0
  2  3  1  0
  3  4  1  0
  3  6  1  0
  4  8  1  0
  4  9  1  0
  4  7  1  0
M  RAD  1   3   2
M  END
>  <rmg_smiles>  (4) 
[CH]C[CH]C

>  <rmg_adjacency_list>  (4) 
multiplicity 2
1 C u0 p0 c0 {2,S} {5,S} {6,S} {7,S}
2 C u1 p0 c0 {1,S} {3,S} {8,S}
3 C u0 p1 c0 {2,S} {4,S}
4 C u0 p1 c0 {3,S} {9,S}
5 H u0 p0 c0 {1,S}
6 H u0 p0 c0 {1,S}
7 H u0 p0 c0 {1,S}
8 H u0 p0 c0 {2,S}
9 H u0 p0 c0 {4,S}


>  <multiplicity>  (4) 
2

>  <reaction>  (4) 
rmg_rxn_14053

>  <type>  (4) 
r1

>  <role_mapnums>  (4) 
{}

>  <role_mapidx>  (4) 
{}

>  <ordered_mapped_smiles>  (4) 
[CH2:1]([CH2:2][C:3]([C:4]([H:7])([H:8])[H:9])[H:6])[H:5]

>  <level_of_theory>  (4) 
wb97xd/def2tzvp

>  <lot_method>  (4) 
wb97xd

>  <lot_basis>  (4) 
def2tzvp

>  <spin_multiplicity>  (4) 
2.0

>  <optical_isomers>  (4) 
1.0

>  <modes>  (4) 
IdealGasTranslation(mass=(53.0391, 'amu')),         NonlinearRotor(             inertia = ([13.0163, 113.224, 123.133

>  <frequency_value>  (4) 
unknown

>  <frequency_units>  (4) 
unknown

>  <frequency_list>  (4) 
unknown

>  <arkane_path>  (4) 
/home/calvin/Dropbox/PersonalFolders/Calvin/ZEUS_Converged/rmg_rxn_14053/output/Species/rmg_rxn_14053_p1_CtCsbr-CH-sbrC/arkane/output.py

>  <path_exists>  (4) 
True

>  <E0_value>  (4) 
-407611.0178676695

>  <E0_units>  (4) 
kJ/mol

>  <thermo_class>  (4) 
NASA

>  <Cp0_value>  (4) 
33.257888

>  <Cp0_units>  (4) 
J/(mol*K)

>  <CpInf_value>  (4) 
207.8618

>  <CpInf_units>  (4) 
J/(mol*K)

>  <Tmin_value>  (4) 
10.0

>  <Tmin_units>  (4) 
K

>  <Tmax_value>  (4) 
3000.0

>  <Tmax_units>  (4) 
K

>  <polynomials>  (4) 
[{"name": "polynomial1", "class": "NASAPolynomial", "Tmin_value": 10.0, "Tmin_units": "K", "Tmax_value": 225.11887521318957, "Tmax_units": "K", "coeffs": [3.926630915296947, 0.006749895207816258, 0.00012836532533525932, -4.255246557274593e-07, 4.774973939090027e-10, -49024283.36301313, 9.039132667777825]}, {"name": "polynomial2", "class": "NASAPolynomial", "Tmin_value": 225.11887521318957, "Tmin_units": "K", "Tmax_value": 3000.0, "Tmax_units": "K", "coeffs": [2.6986748332678068, 0.028568074177661083, -1.700823692128483e-05, 4.972064259878094e-09, -5.660420030452739e-13, -49024228.07421419, 13.132307964760544]}]

>  <H298_value>  (4) 
-97417.4250763192

>  <H298_units>  (4) 
kcal/mol

>  <S298_value>  (4) 
72.15097842486317

>  <S298_units>  (4) 
cal/(mol*K)

>  <Cp_T_value_list>  (4) 
[19.60978665647869, 23.26682584091865, 26.463197946296326, 29.246037785772845, 33.74616181148779, 37.09028399063582, 42.12357583735745, 44.755303495765276, 46.19958894045869]

>  <Cp_T_units>  (4) 
cal/(mol*K)

>  <T_list>  (4) 
[300.0, 400.0, 500.0, 600.0, 800.0, 1000.0, 1500.0, 2000.0, 2400.0]

>  <T_units>  (4) 
K

>  <yaml_path>  (4) 
/home/calvin/Dropbox/PersonalFolders/Calvin/ZEUS_Converged/rmg_rxn_14053/output/Species/rmg_rxn_14053_p1_CtCsbr-CH-sbrC/rmg_rxn_14053_p1_CtCsbr-CH-sbrC.yml

>  <frequencies_cm1>  (4) 
[83.48880752056, 211.55808373855996, 392.1460636839199, 478.7318815838, 554.46786267808, 595.8689171723599, 660.0408949877599, 865.1234115695598, 998.98842339764, 1092.3794237496397, 1143.5041294570399, 1380.42198998236, 1394.47184194708, 1461.2464071987597, 1480.32289241772, 2005.2901861610799, 2994.3489487859997, 3043.5921005157197, 3109.5494945143196, 3150.5453968747197, 3427.4428459330793]

>  <ZPE_kJmol>  (4) 
182.57130571804632

>  <E_elec_kJmol>  (4) 
-407793.5891733875

>  <E0_minus_Eelec_plus_ZPE_kJmol>  (4) 
0.0

>  <rxn>  (4) 
rmg_rxn_14053

>  <species_type>  (4) 
p0

>  <species_folder>  (4) 
rmg_rxn_14053_p1_CtCsbr-CH-sbrC

>  <frequencies_cm1_list>  (4) 
[83.48880752056, 211.55808373855996, 392.1460636839199, 478.7318815838, 554.46786267808, 595.8689171723599, 660.0408949877599, 865.1234115695598, 998.98842339764, 1092.3794237496397, 1143.5041294570399, 1380.42198998236, 1394.47184194708, 1461.2464071987597, 1480.32289241772, 2005.2901861610799, 2994.3489487859997, 3043.5921005157197, 3109.5494945143196, 3150.5453968747197, 3427.4428459330793]

>  <E0_kJmol>  (4) 
-407611

>  <H298_kJmol>  (4) 
-407595

$$$$

     RDKit          3D

 14 13  0  0  0  0  0  0  0  0999 V2000
   -2.1206   -0.4411   -0.0870 C   0  0  0  0  0  0  0  0  0  1  0  0
   -1.0997    0.6970   -0.0676 C   0  0  0  0  0  0  0  0  0  2  0  0
    0.2802    0.2544    0.2554 C   0  0  0  0  0  3  0  0  0  3  0  0
    0.4226   -0.3691    1.4498 O   0  0  0  0  0  0  0  0  0  4  0  0
    1.7390   -0.7527    1.7712 C   0  0  0  0  0  0  0  0  0  5  0  0
   -2.1607   -0.9402    0.8813 H   0  0  0  0  0  0  0  0  0  6  0  0
   -3.1178   -0.0616   -0.3157 H   0  0  0  0  0  0  0  0  0  7  0  0
   -1.8556   -1.1862   -0.8390 H   0  0  0  0  0  0  0  0  0  8  0  0
   -1.4302    1.4562    0.6577 H   0  0  0  0  0  0  0  0  0  9  0  0
   -1.0732    1.1931   -1.0403 H   0  0  0  0  0  0  0  0  0 10  0  0
    1.1485    0.8011   -0.1074 H   0  0  0  0  0  0  0  0  0 11  0  0
    2.4055    0.1169    1.7924 H   0  0  0  0  0  0  0  0  0 12  0  0
    2.1218   -1.4782    1.0472 H   0  0  0  0  0  0  0  0  0 13  0  0
    1.7107   -1.2066    2.7598 H   0  0  0  0  0  0  0  0  0 14  0  0
  1  8  1  0
  1  7  1  0
  1  6  1  0
  1  2  1  0
  2 10  1  0
  2  9  1  0
  2  3  1  0
  3 11  1  0
  3  4  1  0
  4  5  1  0
  5 13  1  0
  5 12  1  0
  5 14  1  0
M  RAD  1   3   2
M  END
>  <rmg_smiles>  (5) 
CC[CH]OC

>  <rmg_adjacency_list>  (5) 
multiplicity 2
1  O u0 p2 c0 {4,S} {5,S}
2  C u0 p0 c0 {3,S} {5,S} {6,S} {7,S}
3  C u0 p0 c0 {2,S} {8,S} {9,S} {10,S}
4  C u0 p0 c0 {1,S} {11,S} {12,S} {13,S}
5  C u1 p0 c0 {1,S} {2,S} {14,S}
6  H u0 p0 c0 {2,S}
7  H u0 p0 c0 {2,S}
8  H u0 p0 c0 {3,S}
9  H u0 p0 c0 {3,S}
10 H u0 p0 c0 {3,S}
11 H u0 p0 c0 {4,S}
12 H u0 p0 c0 {4,S}
13 H u0 p0 c0 {4,S}
14 H u0 p0 c0 {5,S}


>  <multiplicity>  (5) 
2

>  <reaction>  (5) 
rmg_rxn_14053

>  <type>  (5) 
r2

>  <role_mapnums>  (5) 
{}

>  <role_mapidx>  (5) 
{}

>  <ordered_mapped_smiles>  (5) 
[C:1]([C:2]([C:3]([O:4][C:5]([H:12])([H:13])[H:14])[H:11])([H:9])[H:10])([H:6])([H:7])[H:8]

>  <level_of_theory>  (5) 
wb97xd/def2tzvp

>  <lot_method>  (5) 
wb97xd

>  <lot_basis>  (5) 
def2tzvp

>  <spin_multiplicity>  (5) 
2.0

>  <optical_isomers>  (5) 
2.0

>  <modes>  (5) 
IdealGasTranslation(mass=(73.0653, 'amu')),         NonlinearRotor(             inertia = ([36.5505, 193.631, 214.206

>  <frequency_value>  (5) 
unknown

>  <frequency_units>  (5) 
unknown

>  <frequency_list>  (5) 
unknown

>  <arkane_path>  (5) 
/home/calvin/Dropbox/PersonalFolders/Calvin/ZEUS_Converged/rmg_rxn_14053/output/Species/rmg_rxn_14053_r2_CCsbr-CH-sbrOC/arkane/output.py

>  <path_exists>  (5) 
True

>  <E0_value>  (5) 
-611460.2320107684

>  <E0_units>  (5) 
kJ/mol

>  <thermo_class>  (5) 
NASA

>  <Cp0_value>  (5) 
33.257888

>  <Cp0_units>  (5) 
J/(mol*K)

>  <CpInf_value>  (5) 
332.57888

>  <CpInf_units>  (5) 
J/(mol*K)

>  <Tmin_value>  (5) 
10.0

>  <Tmin_units>  (5) 
K

>  <Tmax_value>  (5) 
3000.0

>  <Tmax_units>  (5) 
K

>  <polynomials>  (5) 
[{"name": "polynomial1", "class": "NASAPolynomial", "Tmin_value": 10.0, "Tmin_units": "K", "Tmax_value": 435.0249914343594, "Tmax_units": "K", "coeffs": [3.5748997769968582, 0.04456225085243294, -0.00011060153262596783, 2.906972870802414e-07, -2.537395864844816e-10, -73541677.92732623, 11.29151099210435]}, {"name": "polynomial2", "class": "NASAPolynomial", "Tmin_value": 435.0249914343594, "Tmin_units": "K", "Tmax_value": 3000.0, "Tmax_units": "K", "coeffs": [-0.3158801278921604, 0.0505741967895192, -2.870506782997602e-05, 7.920296742157473e-09, -8.521798204557643e-13, -73541057.77978773, 30.060720524041276]}]

>  <H298_value>  (5) 
-146137.48834692518

>  <H298_units>  (5) 
kcal/mol

>  <S298_value>  (5) 
83.64293597203434

>  <S298_units>  (5) 
cal/(mol*K)

>  <Cp_T_value_list>  (5) 
[25.402407438688297, 31.422599177355014, 37.22380999317273, 42.3178706905547, 50.63078839989438, 56.876564091302626, 66.32471325417191, 71.02224156644306, 73.4032398181671]

>  <Cp_T_units>  (5) 
cal/(mol*K)

>  <T_list>  (5) 
[300.0, 400.0, 500.0, 600.0, 800.0, 1000.0, 1500.0, 2000.0, 2400.0]

>  <T_units>  (5) 
K

>  <yaml_path>  (5) 
/home/calvin/Dropbox/PersonalFolders/Calvin/ZEUS_Converged/rmg_rxn_14053/output/Species/rmg_rxn_14053_r2_CCsbr-CH-sbrOC/rmg_rxn_14053_r2_CCsbr-CH-sbrOC.yml

>  <frequencies_cm1>  (5) 
[77.10937815828001, 106.33526768019999, 184.94164863824, 202.89194826471999, 288.22797483636, 355.44889413384, 480.19454945696, 623.9548871311599, 771.49206673136, 897.74159183956, 976.33423882696, 1065.3784374713998, 1093.89016052004, 1124.3246394582798, 1168.6441627135598, 1189.03910911396, 1261.78108460872, 1305.53064808244, 1354.4785194434, 1389.0881254561998, 1407.3131044954798, 1457.8815843919601, 1475.99669166612, 1479.06623410416, 1481.8267622028, 1489.4285149520397, 1494.8122314429197, 2938.6233629142002, 2981.19180491288, 3019.4065782186794, 3043.4753617652796, 3052.2239010629596, 3091.5373920199595, 3094.6618703405597, 3103.2387350052395, 3115.5718406399596]

>  <ZPE_kJmol>  (5) 
320.8569834509436

>  <E_elec_kJmol>  (5) 
-611781.0889942193

>  <E0_minus_Eelec_plus_ZPE_kJmol>  (5) 
0.0

>  <rxn>  (5) 
rmg_rxn_14053

>  <species_type>  (5) 
r1

>  <species_folder>  (5) 
rmg_rxn_14053_r2_CCsbr-CH-sbrOC

>  <frequencies_cm1_list>  (5) 
[77.10937815828001, 106.33526768019999, 184.94164863824, 202.89194826471999, 288.22797483636, 355.44889413384, 480.19454945696, 623.9548871311599, 771.49206673136, 897.74159183956, 976.33423882696, 1065.3784374713998, 1093.89016052004, 1124.3246394582798, 1168.6441627135598, 1189.03910911396, 1261.78108460872, 1305.53064808244, 1354.4785194434, 1389.0881254561998, 1407.3131044954798, 1457.8815843919601, 1475.99669166612, 1479.06623410416, 1481.8267622028, 1489.4285149520397, 1494.8122314429197, 2938.6233629142002, 2981.19180491288, 3019.4065782186794, 3043.4753617652796, 3052.2239010629596, 3091.5373920199595, 3094.6618703405597, 3103.2387350052395, 3115.5718406399596]

>  <E0_kJmol>  (5) 
-611460

>  <H298_kJmol>  (5) 
-611439

$$$$
