
     RDKit          3D

 18 17  0  0  0  0  0  0  0  0999 V2000
   -0.7069   -2.0038   -1.3942 C   0  0  0  0  0  0  0  0  0  1  0  0
   -1.0706   -1.6905    0.0511 C   0  0  0  0  0  0  0  0  0  2  0  0
   -0.0580   -0.8062    0.7464 C   0  0  0  0  0  0  0  0  0  3  0  0
   -0.0055    0.4420    0.0846 O   0  0  0  0  0  0  0  0  0  4  0  0
    0.8703    1.3427    0.6509 C   0  0  0  0  0  0  0  0  0  5  0  0
    0.9182    2.6194   -0.1361 C   0  0  0  0  0  0  0  0  0  6  0  0
    0.2570   -2.5158   -1.4516 H   0  0  0  0  0  0  0  0  0  7  0  0
   -0.6352   -1.0884   -1.9817 H   0  0  0  0  0  0  0  0  0  8  0  0
   -1.4561   -2.6477   -1.8575 H   0  0  0  0  0  0  0  0  0  9  0  0
   -1.1550   -2.6166    0.6267 H   0  0  0  0  0  0  0  0  0 10  0  0
   -2.0457   -1.1991    0.0964 H   0  0  0  0  0  0  0  0  0 11  0  0
    0.9387   -1.2720    0.7253 H   0  0  0  0  0  0  0  0  0 12  0  0
   -0.3339   -0.6532    1.7951 H   0  0  0  0  0  0  0  0  0 13  0  0
    0.4993    1.6028    1.6515 H   0  0  0  0  0  0  0  0  0 14  0  0
    1.8551    0.8995    0.8513 H   0  0  0  0  0  0  0  0  0 15  0  0
   -0.0788    3.0572   -0.2065 H   0  0  0  0  0  0  0  0  0 16  0  0
    1.2871    2.4447   -1.1501 H   0  0  0  0  0  0  0  0  0 17  0  0
    1.5798    3.3366    0.3521 H   0  0  0  0  0  0  0  0  0 18  0  0
  1  8  1  0
  1  7  1  0
  1  9  1  0
  1  2  1  0
  2 10  1  0
  2 11  1  0
  2  3  1  0
  3  4  1  0
  3 13  1  0
  3 12  1  0
  4  5  1  0
  5  6  1  0
  5 14  1  0
  5 15  1  0
  6 17  1  0
  6 18  1  0
  6 16  1  0
M  END
>  <rmg_smiles>  (1) 
CCCOCC

>  <rmg_adjacency_list>  (1) 
1  O u0 p2 c0 {3,S} {4,S}
2  C u0 p0 c0 {3,S} {5,S} {7,S} {8,S}
3  C u0 p0 c0 {1,S} {2,S} {9,S} {10,S}
4  C u0 p0 c0 {1,S} {6,S} {11,S} {12,S}
5  C u0 p0 c0 {2,S} {13,S} {14,S} {15,S}
6  C u0 p0 c0 {4,S} {16,S} {17,S} {18,S}
7  H u0 p0 c0 {2,S}
8  H u0 p0 c0 {2,S}
9  H u0 p0 c0 {3,S}
10 H u0 p0 c0 {3,S}
11 H u0 p0 c0 {4,S}
12 H u0 p0 c0 {4,S}
13 H u0 p0 c0 {5,S}
14 H u0 p0 c0 {5,S}
15 H u0 p0 c0 {5,S}
16 H u0 p0 c0 {6,S}
17 H u0 p0 c0 {6,S}
18 H u0 p0 c0 {6,S}


>  <multiplicity>  (1) 
1

>  <reaction>  (1) 
rmg_rxn_280

>  <type>  (1) 
r1h

>  <role_mapnums>  (1) 
{"r1h_a": 5, "r1h_h": 14}

>  <role_mapidx>  (1) 
{"r1h_a": 4, "r1h_h": 13}

>  <ordered_mapped_smiles>  (1) 
[C:1]([C:2]([C:3]([O:4][C:5]([C:6]([H:16])([H:17])[H:18])([H:14])[H:15])([H:12])[H:13])([H:10])[H:11])([H:7])([H:8])[H:9]

>  <mol_properties>  (1) 
{"4": {"label": "donator", "atom_type": "Cs"}, "13": {"label": "d_hydrogen", "atom_type": "H0"}}

>  <level_of_theory>  (1) 
wb97xd/def2tzvp

>  <lot_method>  (1) 
wb97xd

>  <lot_basis>  (1) 
def2tzvp

>  <spin_multiplicity>  (1) 
1.0

>  <optical_isomers>  (1) 
2.0

>  <modes>  (1) 
IdealGasTranslation(mass=(88.0888, 'amu')),         NonlinearRotor(             inertia = ([59.5652, 317.445, 349.634

>  <frequency_value>  (1) 
unknown

>  <frequency_units>  (1) 
unknown

>  <frequency_list>  (1) 
unknown

>  <arkane_path>  (1) 
/home/calvin/Dropbox/PersonalFolders/Calvin/ATLAS_Converged/rmg_rxn_280/output/Species/rmg_rxn_280_r2_CCCOCC/arkane/output.py

>  <path_exists>  (1) 
True

>  <E0_value>  (1) 
-716327.3605709573

>  <E0_units>  (1) 
kJ/mol

>  <thermo_class>  (1) 
NASA

>  <Cp0_value>  (1) 
33.257888

>  <Cp0_units>  (1) 
J/(mol*K)

>  <CpInf_value>  (1) 
432.352544

>  <CpInf_units>  (1) 
J/(mol*K)

>  <Tmin_value>  (1) 
10.0

>  <Tmin_units>  (1) 
K

>  <Tmax_value>  (1) 
3000.0

>  <Tmax_units>  (1) 
K

>  <polynomials>  (1) 
[{"name": "polynomial1", "class": "NASAPolynomial", "Tmin_value": 10.0, "Tmin_units": "K", "Tmax_value": 424.14701041358796, "Tmax_units": "K", "coeffs": [3.4707042336928127, 0.05746545203879795, -0.00016719847115372115, 4.780470157694204e-07, -4.3347206706639054e-10, -86154279.58985142, 11.635447004604476]}, {"name": "polynomial2", "class": "NASAPolynomial", "Tmin_value": 424.14701041358796, "Tmin_units": "K", "Tmax_value": 3000.0, "Tmax_units": "K", "coeffs": [-2.8535624465972114, 0.06921008708460846, -3.934323609424939e-05, 1.0841890934368647e-08, -1.163418506360095e-12, -86153312.26572455, 41.80111524234505]}]

>  <H298_value>  (1) 
-171200.6815246165

>  <H298_units>  (1) 
kcal/mol

>  <S298_value>  (1) 
88.37399878129293

>  <S298_units>  (1) 
cal/(mol*K)

>  <Cp_T_value_list>  (1) 
[29.924593767526826, 38.16083070533892, 46.09960348181722, 53.05840207682852, 64.40406715451496, 72.91410593462665, 85.72980278110597, 92.03567805993791, 95.21197800865355]

>  <Cp_T_units>  (1) 
cal/(mol*K)

>  <T_list>  (1) 
[300.0, 400.0, 500.0, 600.0, 800.0, 1000.0, 1500.0, 2000.0, 2400.0]

>  <T_units>  (1) 
K

>  <yaml_path>  (1) 
/home/calvin/Dropbox/PersonalFolders/Calvin/ATLAS_Converged/rmg_rxn_280/output/Species/rmg_rxn_280_r2_CCCOCC/rmg_rxn_280_r2_CCCOCC.yml

>  <frequencies_cm1>  (1) 
[76.60808822992, 85.88538539723999, 152.39213822143998, 171.44115549912, 250.05440344247998, 256.05614861216003, 329.51915756551995, 440.0707542322, 493.7774464199199, 767.98990421816, 823.02879155796, 891.3896304185598, 900.4815189822399, 929.41899512072, 1002.9850088538799, 1082.00340893112, 1102.9065122452, 1152.52734816752, 1174.9617892079598, 1182.44680320676, 1190.2339645596398, 1270.1176047871998, 1295.23017010244, 1305.6473868328799, 1368.30176089256, 1380.4425909383199, 1399.7456866728398, 1405.4521514737598, 1443.92787022172, 1468.7794900948002, 1470.37949767436, 1482.5752636026798, 1487.2448136202797, 1494.6336898246, 1500.58049911172, 1519.49904366832, 2928.8997117010795, 2942.5512785172396, 2962.4655359452395, 2968.54281795344, 3015.14904732028, 3021.7276192568397, 3024.0692612509597, 3058.7338031463196, 3085.2403664815197, 3101.8035350733594, 3104.27564978856, 3105.2988306012394]

>  <ZPE_kJmol>  (1) 
431.0594598774012

>  <E_elec_kJmol>  (1) 
-716758.4200308347

>  <E0_minus_Eelec_plus_ZPE_kJmol>  (1) 
0.0

>  <rxn>  (1) 
rmg_rxn_280

>  <species_type>  (1) 
r1

>  <species_folder>  (1) 
rmg_rxn_280_r2_CCCOCC

>  <frequencies_cm1_list>  (1) 
[76.60808822992, 85.88538539723999, 152.39213822143998, 171.44115549912, 250.05440344247998, 256.05614861216003, 329.51915756551995, 440.0707542322, 493.7774464199199, 767.98990421816, 823.02879155796, 891.3896304185598, 900.4815189822399, 929.41899512072, 1002.9850088538799, 1082.00340893112, 1102.9065122452, 1152.52734816752, 1174.9617892079598, 1182.44680320676, 1190.2339645596398, 1270.1176047871998, 1295.23017010244, 1305.6473868328799, 1368.30176089256, 1380.4425909383199, 1399.7456866728398, 1405.4521514737598, 1443.92787022172, 1468.7794900948002, 1470.37949767436, 1482.5752636026798, 1487.2448136202797, 1494.6336898246, 1500.58049911172, 1519.49904366832, 2928.8997117010795, 2942.5512785172396, 2962.4655359452395, 2968.54281795344, 3015.14904732028, 3021.7276192568397, 3024.0692612509597, 3058.7338031463196, 3085.2403664815197, 3101.8035350733594, 3104.27564978856, 3105.2988306012394]

>  <E0_kJmol>  (1) 
-716327

>  <H298_kJmol>  (1) 
-716304

$$$$

     RDKit          3D

 14 14  0  0  0  0  0  0  0  0999 V2000
    0.7151    0.5901   -0.9247 C   0  0  0  0  0  0  0  0  0  1  0  0
   -0.6258    0.3644   -1.1473 O   0  0  0  0  0  0  0  0  0  2  0  0
   -1.3788    0.3589    0.0583 C   0  0  0  0  0  0  0  0  0  3  0  0
   -0.7978   -0.6529    1.0336 C   0  0  0  0  0  0  0  0  0  4  0  0
    0.6918   -0.3867    1.1851 C   0  0  0  0  0  0  0  0  0  5  0  0
    1.3122   -0.3355   -0.0928 O   0  0  0  0  0  0  0  0  0  6  0  0
    0.9205    1.6271   -0.6128 H   0  0  0  0  0  0  0  0  0  7  0  0
   -1.3637    1.3655    0.5007 H   0  0  0  0  0  0  0  0  0  8  0  0
   -2.4050    0.1193   -0.2171 H   0  0  0  0  0  0  0  0  0  9  0  0
   -1.2983   -0.5800    2.0018 H   0  0  0  0  0  0  0  0  0 10  0  0
   -0.9496   -1.6620    0.6447 H   0  0  0  0  0  0  0  0  0 11  0  0
    1.1937   -1.1758    1.7436 H   0  0  0  0  0  0  0  0  0 12  0  0
    0.8564    0.5668    1.7074 H   0  0  0  0  0  0  0  0  0 13  0  0
    1.1833    0.4121   -1.9065 H   0  0  0  0  0  0  0  0  0 14  0  0
  1  6  1  0
  1  7  1  0
  1  2  1  0
  1 14  1  0
  2  3  1  0
  3  4  1  0
  3  9  1  0
  3  8  1  0
  4  5  1  0
  4 10  1  0
  4 11  1  0
  5  6  1  0
  5 12  1  0
  5 13  1  0
M  END
>  <rmg_smiles>  (2) 
C1COCOC1

>  <rmg_adjacency_list>  (2) 
1  O u0 p2 c0 {4,S} {6,S}
2  O u0 p2 c0 {5,S} {6,S}
3  C u0 p0 c0 {4,S} {5,S} {7,S} {8,S}
4  C u0 p0 c0 {1,S} {3,S} {9,S} {10,S}
5  C u0 p0 c0 {2,S} {3,S} {11,S} {12,S}
6  C u0 p0 c0 {1,S} {2,S} {13,S} {14,S}
7  H u0 p0 c0 {3,S}
8  H u0 p0 c0 {3,S}
9  H u0 p0 c0 {4,S}
10 H u0 p0 c0 {4,S}
11 H u0 p0 c0 {5,S}
12 H u0 p0 c0 {5,S}
13 H u0 p0 c0 {6,S}
14 H u0 p0 c0 {6,S}


>  <multiplicity>  (2) 
1

>  <reaction>  (2) 
rmg_rxn_280

>  <type>  (2) 
r2h

>  <role_mapnums>  (2) 
{"r2h_a": 1, "r2h_h": 14}

>  <role_mapidx>  (2) 
{"r2h_a": 0, "r2h_h": 13}

>  <ordered_mapped_smiles>  (2) 
[C:1]1([H:7])([H:14])[O:2][C:3]([H:8])([H:9])[C:4]([H:10])([H:11])[C:5]([H:12])([H:13])[O:6]1

>  <mol_properties>  (2) 
{"0": {"label": "acceptor", "atom_type": "Cs"}, "13": {"label": "a_hydrogen", "atom_type": "H0"}}

>  <level_of_theory>  (2) 
wb97xd/def2tzvp

>  <lot_method>  (2) 
wb97xd

>  <lot_basis>  (2) 
def2tzvp

>  <spin_multiplicity>  (2) 
1.0

>  <optical_isomers>  (2) 
1.0

>  <modes>  (2) 
IdealGasTranslation(mass=(88.0524, 'amu')),         NonlinearRotor(             inertia = ([100.123, 103.988, 181.806

>  <frequency_value>  (2) 
unknown

>  <frequency_units>  (2) 
unknown

>  <frequency_list>  (2) 
unknown

>  <arkane_path>  (2) 
/home/calvin/Dropbox/PersonalFolders/Calvin/ATLAS_Converged/rmg_rxn_280/output/Species/rmg_rxn_280_p1_C1COCOC1/arkane/output.py

>  <path_exists>  (2) 
True

>  <E0_value>  (2) 
-807534.4862541369

>  <E0_units>  (2) 
kJ/mol

>  <thermo_class>  (2) 
NASA

>  <Cp0_value>  (2) 
33.257888

>  <Cp0_units>  (2) 
J/(mol*K)

>  <CpInf_value>  (2) 
332.57888

>  <CpInf_units>  (2) 
J/(mol*K)

>  <Tmin_value>  (2) 
10.0

>  <Tmin_units>  (2) 
K

>  <Tmax_value>  (2) 
3000.0

>  <Tmax_units>  (2) 
K

>  <polynomials>  (2) 
[{"name": "polynomial1", "class": "NASAPolynomial", "Tmin_value": 10.0, "Tmin_units": "K", "Tmax_value": 635.616554573151, "Tmax_units": "K", "coeffs": [4.089858497697602, -0.00720848048360332, 0.00016188875003168496, -2.401508213073996e-07, 1.1440937882219611e-10, -97123964.81365098, 9.940070949440356]}, {"name": "polynomial2", "class": "NASAPolynomial", "Tmin_value": 635.616554573151, "Tmin_units": "K", "Tmax_value": 3000.0, "Tmax_units": "K", "coeffs": [-3.6233751272420895, 0.05886750722676344, -3.5427870905530145e-05, 1.0209382893823142e-08, -1.1338653155444558e-12, -97123338.5127768, 40.87012283464024]}]

>  <H298_value>  (2) 
-193001.58453999052

>  <H298_units>  (2) 
kcal/mol

>  <S298_value>  (2) 
72.30963326519604

>  <S298_units>  (2) 
cal/(mol*K)

>  <Cp_T_value_list>  (2) 
[21.739931113059615, 29.14813400113705, 35.94765005011551, 41.73053828287379, 50.792135881792035, 57.413930600437965, 66.93239440365458, 71.40703402864166, 73.74460734469625]

>  <Cp_T_units>  (2) 
cal/(mol*K)

>  <T_list>  (2) 
[300.0, 400.0, 500.0, 600.0, 800.0, 1000.0, 1500.0, 2000.0, 2400.0]

>  <T_units>  (2) 
K

>  <yaml_path>  (2) 
/home/calvin/Dropbox/PersonalFolders/Calvin/ATLAS_Converged/rmg_rxn_280/output/Species/rmg_rxn_280_p1_C1COCOC1/rmg_rxn_280_p1_C1COCOC1.yml

>  <frequencies_cm1>  (2) 
[264.26219606955993, 269.44676998615995, 439.22611503784, 466.70779028847994, 494.62208561427997, 656.81341188736, 851.50617968, 900.41284912904, 919.12538412604, 926.80954069912, 1013.8966485273598, 1037.6289497932798, 1094.57685905204, 1112.95291176836, 1188.75069573052, 1216.28730686372, 1226.8487302858798, 1252.366447735, 1315.55644664964, 1328.3633742714399, 1363.72148168412, 1380.93701388136, 1404.8272558096398, 1432.53554157584, 1460.95799381532, 1489.42164796672, 1490.0946125280798, 1506.58911126672, 2894.63345495428, 2944.5289702893997, 2950.530715459079, 3031.06671929204, 3080.8454958767197, 3088.2893079635996, 3091.87387430064, 3110.9160245929997]

>  <ZPE_kJmol>  (2) 
321.1850391352071

>  <E_elec_kJmol>  (2) 
-807855.671293272

>  <E0_minus_Eelec_plus_ZPE_kJmol>  (2) 
0.0

>  <rxn>  (2) 
rmg_rxn_280

>  <species_type>  (2) 
p0

>  <species_folder>  (2) 
rmg_rxn_280_p1_C1COCOC1

>  <frequencies_cm1_list>  (2) 
[264.26219606955993, 269.44676998615995, 439.22611503784, 466.70779028847994, 494.62208561427997, 656.81341188736, 851.50617968, 900.41284912904, 919.12538412604, 926.80954069912, 1013.8966485273598, 1037.6289497932798, 1094.57685905204, 1112.95291176836, 1188.75069573052, 1216.28730686372, 1226.8487302858798, 1252.366447735, 1315.55644664964, 1328.3633742714399, 1363.72148168412, 1380.93701388136, 1404.8272558096398, 1432.53554157584, 1460.95799381532, 1489.42164796672, 1490.0946125280798, 1506.58911126672, 2894.63345495428, 2944.5289702893997, 2950.530715459079, 3031.06671929204, 3080.8454958767197, 3088.2893079635996, 3091.87387430064, 3110.9160245929997]

>  <E0_kJmol>  (2) 
-807534

>  <H298_kJmol>  (2) 
-807519

$$$$

     RDKit          3D

 31 30  0  0  0  0  0  0  0  0999 V2000
    0.3146    1.2151    1.0790 C   0  0  0  0  0  3  0  0  0  1  0  0
   -1.0263    0.9895    0.8564 O   0  0  0  0  0  0  0  0  0  2  0  0
   -1.7792    0.9839    2.0620 C   0  0  0  0  0  0  0  0  0  3  0  0
   -1.1982   -0.0278    3.0373 C   0  0  0  0  0  0  0  0  0  4  0  0
    0.2913    0.2383    3.1888 C   0  0  0  0  0  0  0  0  0  5  0  0
    0.9117    0.2895    1.9109 O   0  0  0  0  0  0  0  0  0  6  0  0
    0.5201    2.2521    1.3909 H   0  0  0  0  0  0  0  0  0  7  0  0
   -1.7642    1.9905    2.5044 H   0  0  0  0  0  0  0  0  0  8  0  0
   -2.8054    0.7444    1.7866 H   0  0  0  0  0  0  0  0  0  9  0  0
   -1.6988    0.0451    4.0055 H   0  0  0  0  0  0  0  0  0 10  0  0
   -1.3501   -1.0369    2.6484 H   0  0  0  0  0  0  0  0  0 11  0  0
    0.7932   -0.5508    3.7474 H   0  0  0  0  0  0  0  0  0 12  0  0
    0.4560    1.1919    3.7112 H   0  0  0  0  0  0  0  0  0 13  0  0
   -0.2217   -2.6675   -3.4111 C   0  0  0  0  0  0  0  0  0 14  0  0
   -0.5854   -2.3542   -1.9658 C   0  0  0  0  0  0  0  0  0 15  0  0
    0.4272   -1.4698   -1.2705 C   0  0  0  0  0  0  0  0  0 16  0  0
    0.4797   -0.2216   -1.9323 O   0  0  0  0  0  0  0  0  0 17  0  0
    1.3555    0.6791   -1.3660 C   0  0  0  0  0  0  0  0  0 18  0  0
    1.4034    1.9557   -2.1530 C   0  0  0  0  0  0  0  0  0 19  0  0
    0.7422   -3.1794   -3.4685 H   0  0  0  0  0  0  0  0  0 20  0  0
   -0.1500   -1.7521   -3.9987 H   0  0  0  0  0  0  0  0  0 21  0  0
   -0.9709   -3.3113   -3.8744 H   0  0  0  0  0  0  0  0  0 22  0  0
   -0.6698   -3.2803   -1.3902 H   0  0  0  0  0  0  0  0  0 23  0  0
   -1.5605   -1.8628   -1.9205 H   0  0  0  0  0  0  0  0  0 24  0  0
    1.4239   -1.9357   -1.2916 H   0  0  0  0  0  0  0  0  0 25  0  0
    0.1513   -1.3168   -0.2218 H   0  0  0  0  0  0  0  0  0 26  0  0
    0.9178    0.9859   -0.1857 H   0  0  0  0  0  0  0  0  0 27  0  0
    2.3403    0.2359   -1.1657 H   0  0  0  0  0  0  0  0  0 28  0  0
    0.4064    2.3936   -2.2234 H   0  0  0  0  0  0  0  0  0 29  0  0
    1.7723    1.7810   -3.1670 H   0  0  0  0  0  0  0  0  0 30  0  0
    2.0650    2.6729   -1.6648 H   0  0  0  0  0  0  0  0  0 31  0  0
  1  7  1  0
  1  2  1  0
  1  6  1  0
  2  3  1  0
  3  4  1  0
  3  8  1  0
  3  9  1  0
  4 10  1  0
  4 11  1  0
  4  5  1  0
  5 12  1  0
  5 13  1  0
  5  6  1  0
 14 15  1  0
 14 20  1  0
 14 22  1  0
 14 21  1  0
 15 23  1  0
 15 16  1  0
 15 24  1  0
 16 17  1  0
 16 26  1  0
 16 25  1  0
 17 18  1  0
 18 19  1  0
 18 28  1  0
 18 27  1  0
 19 31  1  0
 19 29  1  0
 19 30  1  0
M  RAD  1   1   2
M  END
>  <rmg_smiles>  (3) 
CCCOCC.[CH]1OCCCO1

>  <rmg_adjacency_list>  (3) 
multiplicity 2
1  O u0 p2 c0 {6,S} {9,S}
2  O u0 p2 c0 {7,S} {12,S}
3  O u0 p2 c0 {8,S} {12,S}
4  C u0 p0 c0 {7,S} {8,S} {13,S} {14,S}
5  C u0 p0 c0 {6,S} {10,S} {15,S} {16,S}
6  C u0 p0 c0 {1,S} {5,S} {21,S} {22,S}
7  C u0 p0 c0 {2,S} {4,S} {17,S} {18,S}
8  C u0 p0 c0 {3,S} {4,S} {19,S} {20,S}
9  C u0 p0 c0 {1,S} {11,S} {23,S} {24,S}
10 C u0 p0 c0 {5,S} {25,S} {26,S} {27,S}
11 C u0 p0 c0 {9,S} {28,S} {29,S} {30,S}
12 C u1 p0 c0 {2,S} {3,S} {31,S}
13 H u0 p0 c0 {4,S}
14 H u0 p0 c0 {4,S}
15 H u0 p0 c0 {5,S}
16 H u0 p0 c0 {5,S}
17 H u0 p0 c0 {7,S}
18 H u0 p0 c0 {7,S}
19 H u0 p0 c0 {8,S}
20 H u0 p0 c0 {8,S}
21 H u0 p0 c0 {6,S}
22 H u0 p0 c0 {6,S}
23 H u0 p0 c0 {9,S}
24 H u0 p0 c0 {9,S}
25 H u0 p0 c0 {10,S}
26 H u0 p0 c0 {10,S}
27 H u0 p0 c0 {10,S}
28 H u0 p0 c0 {11,S}
29 H u0 p0 c0 {11,S}
30 H u0 p0 c0 {11,S}
31 H u0 p0 c0 {12,S}


>  <multiplicity>  (3) 
2

>  <reaction>  (3) 
rmg_rxn_280

>  <type>  (3) 
ts

>  <role_mapnums>  (3) 
{"*2": 27, "*1": 18, "*3": 1, "*0": 17, "*4": 2}

>  <role_mapidx>  (3) 
{"*2": 26, "*1": 17, "*3": 0, "*0": 16, "*4": 1}

>  <ordered_mapped_smiles>  (3) 
[C:1]1([H:7])[O:2][C:3]([H:8])([H:9])[C:4]([H:10])([H:11])[C:5]([H:12])([H:13])[O:6]1.[C:14]([C:15]([C:16]([O:17][C:18]([C:19]([H:29])([H:30])[H:31])([H:27])[H:28])([H:25])[H:26])([H:23])[H:24])([H:20])([H:21])[H:22]

>  <mol_properties>  (3) 
{"0": {"label": "*3", "atom_type": "Cs"}, "1": {"label": "*4", "atom_type": "O2s"}, "16": {"label": "*0", "atom_type": "O2s"}, "17": {"label": "*1", "atom_type": "Cs"}, "26": {"label": "*2", "atom_type": "H0"}}

>  <level_of_theory>  (3) 
wb97xd/def2tzvp

>  <lot_method>  (3) 
wb97xd

>  <lot_basis>  (3) 
def2tzvp

>  <spin_multiplicity>  (3) 
2.0

>  <optical_isomers>  (3) 
2.0

>  <modes>  (3) 
IdealGasTranslation(mass=(175.133, 'amu')),         NonlinearRotor(             inertia = ([418.752, 1064.9, 1267.57

>  <frequency_value>  (3) 
-1691.08

>  <frequency_units>  (3) 
cm^-1

>  <frequency_list>  (3) 
unknown

>  <arkane_path>  (3) 
/home/calvin/Dropbox/PersonalFolders/Calvin/ATLAS_Converged/rmg_rxn_280/output/rxns/TS0/arkane/output.py

>  <path_exists>  (3) 
True

>  <E0_value>  (3) 
-1522090.0

>  <E0_units>  (3) 
kJ/mol

>  <thermo_class>  (3) 
unknown

>  <Cp0_value>  (3) 
unknown

>  <Cp0_units>  (3) 
unknown

>  <CpInf_value>  (3) 
unknown

>  <CpInf_units>  (3) 
unknown

>  <Tmin_value>  (3) 
unknown

>  <Tmin_units>  (3) 
unknown

>  <Tmax_value>  (3) 
unknown

>  <Tmax_units>  (3) 
unknown

>  <polynomials>  (3) 
unknown

>  <H298_value>  (3) 
unknown

>  <H298_units>  (3) 
unknown

>  <S298_value>  (3) 
unknown

>  <S298_units>  (3) 
unknown

>  <Cp_T_value_list>  (3) 
unknown

>  <Cp_T_units>  (3) 
unknown

>  <T_list>  (3) 
unknown

>  <T_units>  (3) 
unknown

>  <yaml_path>  (3) 
unknown

>  <frequencies_cm1>  (3) 
unknown

>  <ZPE_kJmol>  (3) 
unknown

>  <E_elec_kJmol>  (3) 
unknown

>  <E0_minus_Eelec_plus_ZPE_kJmol>  (3) 
unknown

>  <rxn>  (3) 
unknown

>  <species_type>  (3) 
unknown

>  <species_folder>  (3) 
unknown

>  <frequencies_cm1_list>  (3) 
[]

>  <ts_imag_freq_cm1>  (3) 
-1711.6217

>  <ts_freq_out_path>  (3) 
/home/calvin/Dropbox/PersonalFolders/Calvin/ATLAS_Converged/rmg_rxn_280/output/rxns/TS0/geometry/freq.out

>  <E0_kJmol>  (3) 
-1.52209e+06

>  <H298_kJmol>  (3) 
unknown

$$$$

     RDKit          3D

 17 16  0  0  0  0  0  0  0  0999 V2000
   -3.2378    0.0781    0.0468 C   0  0  0  0  0  0  0  0  0  1  0  0
   -1.9072   -0.5430    0.2348 C   0  0  0  0  0  3  0  0  0  2  0  0
   -1.5607   -0.7743    1.5229 O   0  0  0  0  0  0  0  0  0  3  0  0
   -0.2678   -1.3170    1.7206 C   0  0  0  0  0  0  0  0  0  4  0  0
    0.0055   -1.4164    3.2061 C   0  0  0  0  0  0  0  0  0  5  0  0
    0.0347   -0.0632    3.9042 C   0  0  0  0  0  0  0  0  0  6  0  0
   -3.2816    1.0982    0.4537 H   0  0  0  0  0  0  0  0  0  7  0  0
   -3.4818    0.1310   -1.0144 H   0  0  0  0  0  0  0  0  0  8  0  0
   -4.0139   -0.5033    0.5509 H   0  0  0  0  0  0  0  0  0  9  0  0
   -1.0896   -0.3480   -0.4562 H   0  0  0  0  0  0  0  0  0 10  0  0
   -0.2142   -2.3036    1.2476 H   0  0  0  0  0  0  0  0  0 11  0  0
    0.4751   -0.6679    1.2371 H   0  0  0  0  0  0  0  0  0 12  0  0
   -0.7555   -2.0574    3.6583 H   0  0  0  0  0  0  0  0  0 13  0  0
    0.9642   -1.9267    3.3334 H   0  0  0  0  0  0  0  0  0 14  0  0
   -0.9209    0.4499    3.7952 H   0  0  0  0  0  0  0  0  0 15  0  0
    0.2399   -0.1765    4.9695 H   0  0  0  0  0  0  0  0  0 16  0  0
    0.8109    0.5782    3.4796 H   0  0  0  0  0  0  0  0  0 17  0  0
  1  8  1  0
  1  7  1  0
  1  9  1  0
  1  2  1  0
  2 10  1  0
  2  3  1  0
  3  4  1  0
  4  5  1  0
  4 12  1  0
  4 11  1  0
  5 14  1  0
  5  6  1  0
  5 13  1  0
  6 17  1  0
  6 15  1  0
  6 16  1  0
M  RAD  1   2   2
M  END
>  <rmg_smiles>  (4) 
C[CH]OCCC

>  <rmg_adjacency_list>  (4) 
multiplicity 2
1  O u0 p2 c0 {3,S} {6,S}
2  C u0 p0 c0 {3,S} {4,S} {7,S} {8,S}
3  C u0 p0 c0 {1,S} {2,S} {9,S} {10,S}
4  C u0 p0 c0 {2,S} {11,S} {12,S} {13,S}
5  C u0 p0 c0 {6,S} {14,S} {15,S} {16,S}
6  C u1 p0 c0 {1,S} {5,S} {17,S}
7  H u0 p0 c0 {2,S}
8  H u0 p0 c0 {2,S}
9  H u0 p0 c0 {3,S}
10 H u0 p0 c0 {3,S}
11 H u0 p0 c0 {4,S}
12 H u0 p0 c0 {4,S}
13 H u0 p0 c0 {4,S}
14 H u0 p0 c0 {5,S}
15 H u0 p0 c0 {5,S}
16 H u0 p0 c0 {5,S}
17 H u0 p0 c0 {6,S}


>  <multiplicity>  (4) 
2

>  <reaction>  (4) 
rmg_rxn_280

>  <type>  (4) 
r1

>  <role_mapnums>  (4) 
{}

>  <role_mapidx>  (4) 
{}

>  <ordered_mapped_smiles>  (4) 
[C:1]([C:2]([O:3][C:4]([C:5]([C:6]([H:15])([H:16])[H:17])([H:13])[H:14])([H:11])[H:12])[H:10])([H:7])([H:8])[H:9]

>  <level_of_theory>  (4) 
wb97xd/def2tzvp

>  <lot_method>  (4) 
wb97xd

>  <lot_basis>  (4) 
def2tzvp

>  <spin_multiplicity>  (4) 
2.0

>  <optical_isomers>  (4) 
2.0

>  <modes>  (4) 
IdealGasTranslation(mass=(87.081, 'amu')),         NonlinearRotor(             inertia = ([57.4633, 312.694, 344.444

>  <frequency_value>  (4) 
unknown

>  <frequency_units>  (4) 
unknown

>  <frequency_list>  (4) 
unknown

>  <arkane_path>  (4) 
/home/calvin/Dropbox/PersonalFolders/Calvin/ATLAS_Converged/rmg_rxn_280/output/Species/rmg_rxn_280_p2_Csbr-CH-sbrOCCC/arkane/output.py

>  <path_exists>  (4) 
True

>  <E0_value>  (4) 
-714626.8773508471

>  <E0_units>  (4) 
kJ/mol

>  <thermo_class>  (4) 
NASA

>  <Cp0_value>  (4) 
33.257888

>  <Cp0_units>  (4) 
J/(mol*K)

>  <CpInf_value>  (4) 
407.409128

>  <CpInf_units>  (4) 
J/(mol*K)

>  <Tmin_value>  (4) 
10.0

>  <Tmin_units>  (4) 
K

>  <Tmax_value>  (4) 
3000.0

>  <Tmax_units>  (4) 
K

>  <polynomials>  (4) 
[{"name": "polynomial1", "class": "NASAPolynomial", "Tmin_value": 10.0, "Tmin_units": "K", "Tmax_value": 423.5582142761537, "Tmax_units": "K", "coeffs": [3.4253170232731796, 0.06108340118024817, -0.00016985724888107358, 4.441259709240837e-07, -3.8951194144019444e-10, -85949758.59070063, 12.50982010332502]}, {"name": "polynomial2", "class": "NASAPolynomial", "Tmin_value": 423.5582142761537, "Tmin_units": "K", "Tmax_value": 3000.0, "Tmax_units": "K", "coeffs": [-1.1025720144815276, 0.06363968334653308, -3.6529917834006736e-05, 1.0171382565296658e-08, -1.1023140222110514e-12, -85949014.39091305, 34.72172491292814]}]

>  <H298_value>  (4) 
-170794.10215544468

>  <H298_units>  (4) 
kcal/mol

>  <S298_value>  (4) 
91.08322998435028

>  <S298_units>  (4) 
cal/(mol*K)

>  <Cp_T_value_list>  (4) 
[30.403344291122735, 38.02335646647825, 45.283107253018876, 51.63681832818749, 61.97355311695585, 69.70377595737135, 81.30176342638504, 87.02207686178811, 89.93579983949942]

>  <Cp_T_units>  (4) 
cal/(mol*K)

>  <T_list>  (4) 
[300.0, 400.0, 500.0, 600.0, 800.0, 1000.0, 1500.0, 2000.0, 2400.0]

>  <T_units>  (4) 
K

>  <yaml_path>  (4) 
/home/calvin/Dropbox/PersonalFolders/Calvin/ATLAS_Converged/rmg_rxn_280/output/Species/rmg_rxn_280_p2_Csbr-CH-sbrOCCC/rmg_rxn_280_p2_Csbr-CH-sbrOCCC.yml

>  <frequencies_cm1>  (4) 
[62.256088911119996, 80.6184076568, 158.02306618384, 168.50208578215998, 182.09871671576, 251.82608565504, 327.37665814568, 441.4441512962, 492.0607000899199, 558.5605859287999, 768.1066429685999, 888.04540856772, 910.1090324008799, 927.2490277595999, 1010.4082199848, 1016.6709105966398, 1099.15027127516, 1117.79413641896, 1151.8612505914798, 1175.63475376932, 1265.93561072732, 1270.30988037616, 1304.10231513588, 1361.4965784404399, 1376.3567346729199, 1400.64526174976, 1406.7843466258398, 1443.5913879410398, 1453.0266257707199, 1468.7451551681997, 1477.39068968608, 1483.24136117872, 1494.41394629436, 1502.4483191187599, 2953.29811054304, 2963.1797024185194, 3009.8614686238802, 3016.1859621035996, 3027.0563998651596, 3039.68478586864, 3061.08231212576, 3087.3485309747603, 3090.2463987797996, 3104.30311772984, 3105.33316552784]

>  <ZPE_kJmol>  (4) 
394.4918275611198

>  <E_elec_kJmol>  (4) 
-715021.3691784083

>  <E0_minus_Eelec_plus_ZPE_kJmol>  (4) 
0.0

>  <rxn>  (4) 
rmg_rxn_280

>  <species_type>  (4) 
p1

>  <species_folder>  (4) 
rmg_rxn_280_p2_Csbr-CH-sbrOCCC

>  <frequencies_cm1_list>  (4) 
[62.256088911119996, 80.6184076568, 158.02306618384, 168.50208578215998, 182.09871671576, 251.82608565504, 327.37665814568, 441.4441512962, 492.0607000899199, 558.5605859287999, 768.1066429685999, 888.04540856772, 910.1090324008799, 927.2490277595999, 1010.4082199848, 1016.6709105966398, 1099.15027127516, 1117.79413641896, 1151.8612505914798, 1175.63475376932, 1265.93561072732, 1270.30988037616, 1304.10231513588, 1361.4965784404399, 1376.3567346729199, 1400.64526174976, 1406.7843466258398, 1443.5913879410398, 1453.0266257707199, 1468.7451551681997, 1477.39068968608, 1483.24136117872, 1494.41394629436, 1502.4483191187599, 2953.29811054304, 2963.1797024185194, 3009.8614686238802, 3016.1859621035996, 3027.0563998651596, 3039.68478586864, 3061.08231212576, 3087.3485309747603, 3090.2463987797996, 3104.30311772984, 3105.33316552784]

>  <E0_kJmol>  (4) 
-714627

>  <H298_kJmol>  (4) 
-714603

$$$$

     RDKit          3D

 13 13  0  0  0  0  0  0  0  0999 V2000
    0.5794    1.5990    0.2108 C   0  0  0  0  0  3  0  0  0  1  0  0
    1.4528    0.6621   -0.2496 O   0  0  0  0  0  0  0  0  0  2  0  0
    1.0751   -0.6763    0.0423 C   0  0  0  0  0  0  0  0  0  3  0  0
   -0.3579   -0.9282   -0.3924 C   0  0  0  0  0  0  0  0  0  4  0  0
   -1.2426    0.1393    0.2269 C   0  0  0  0  0  0  0  0  0  5  0  0
   -0.7410    1.4341   -0.0749 O   0  0  0  0  0  0  0  0  0  6  0  0
    0.9183    2.6078    0.0084 H   0  0  0  0  0  0  0  0  0  7  0  0
    1.1839   -0.8508    1.1199 H   0  0  0  0  0  0  0  0  0  8  0  0
    1.7816   -1.3130   -0.4874 H   0  0  0  0  0  0  0  0  0  9  0  0
   -0.6818   -1.9210   -0.0736 H   0  0  0  0  0  0  0  0  0 10  0  0
   -0.4271   -0.8785   -1.4810 H   0  0  0  0  0  0  0  0  0 11  0  0
   -1.2832    0.0173    1.3164 H   0  0  0  0  0  0  0  0  0 12  0  0
   -2.2575    0.1083   -0.1657 H   0  0  0  0  0  0  0  0  0 13  0  0
  1  6  1  0
  1  7  1  0
  1  2  1  0
  2  3  1  0
  3  4  1  0
  3  9  1  0
  3  8  1  0
  4  5  1  0
  4 10  1  0
  4 11  1  0
  5  6  1  0
  5 12  1  0
  5 13  1  0
M  RAD  1   1   2
M  END
>  <rmg_smiles>  (5) 
[CH]1OCCCO1

>  <rmg_adjacency_list>  (5) 
multiplicity 2
1  O u0 p2 c0 {4,S} {6,S}
2  O u0 p2 c0 {5,S} {6,S}
3  C u0 p0 c0 {4,S} {5,S} {7,S} {8,S}
4  C u0 p0 c0 {1,S} {3,S} {9,S} {10,S}
5  C u0 p0 c0 {2,S} {3,S} {11,S} {12,S}
6  C u1 p0 c0 {1,S} {2,S} {13,S}
7  H u0 p0 c0 {3,S}
8  H u0 p0 c0 {3,S}
9  H u0 p0 c0 {4,S}
10 H u0 p0 c0 {4,S}
11 H u0 p0 c0 {5,S}
12 H u0 p0 c0 {5,S}
13 H u0 p0 c0 {6,S}


>  <multiplicity>  (5) 
2

>  <reaction>  (5) 
rmg_rxn_280

>  <type>  (5) 
r2

>  <role_mapnums>  (5) 
{}

>  <role_mapidx>  (5) 
{}

>  <ordered_mapped_smiles>  (5) 
[C:1]1([H:7])[O:2][C:3]([H:8])([H:9])[C:4]([H:10])([H:11])[C:5]([H:12])([H:13])[O:6]1

>  <level_of_theory>  (5) 
wb97xd/def2tzvp

>  <lot_method>  (5) 
wb97xd

>  <lot_basis>  (5) 
def2tzvp

>  <spin_multiplicity>  (5) 
2.0

>  <optical_isomers>  (5) 
1.0

>  <modes>  (5) 
IdealGasTranslation(mass=(87.0446, 'amu')),         NonlinearRotor(             inertia = ([96.7564, 101.33, 180.793

>  <frequency_value>  (5) 
unknown

>  <frequency_units>  (5) 
unknown

>  <frequency_list>  (5) 
unknown

>  <arkane_path>  (5) 
/home/calvin/Dropbox/PersonalFolders/Calvin/ATLAS_Converged/rmg_rxn_280/output/Species/rmg_rxn_280_r1_sbr-CH-sbr1OCCCO1/arkane/output.py

>  <path_exists>  (5) 
True

>  <E0_value>  (5) 
-805829.6077087377

>  <E0_units>  (5) 
kJ/mol

>  <thermo_class>  (5) 
NASA

>  <Cp0_value>  (5) 
33.257888

>  <Cp0_units>  (5) 
J/(mol*K)

>  <CpInf_value>  (5) 
307.635464

>  <CpInf_units>  (5) 
J/(mol*K)

>  <Tmin_value>  (5) 
10.0

>  <Tmin_units>  (5) 
K

>  <Tmax_value>  (5) 
3000.0

>  <Tmax_units>  (5) 
K

>  <polynomials>  (5) 
[{"name": "polynomial1", "class": "NASAPolynomial", "Tmin_value": 10.0, "Tmin_units": "K", "Tmax_value": 608.112492343142, "Tmax_units": "K", "coeffs": [4.052680972350976, -0.0047882923899246685, 0.00015490339112890275, -2.438945344349935e-07, 1.2271144192742085e-10, -96918914.0547554, 10.641162980593737]}, {"name": "polynomial2", "class": "NASAPolynomial", "Tmin_value": 608.112492343142, "Tmin_units": "K", "Tmax_value": 3000.0, "Tmax_units": "K", "coeffs": [-2.1801652399204463, 0.053800847786724684, -3.3006657387032914e-05, 9.678351907920253e-09, -1.0905566594576255e-12, -96918481.26165283, 34.93650323250774]}]

>  <H298_value>  (5) 
-192594.04417056424

>  <H298_units>  (5) 
kcal/mol

>  <S298_value>  (5) 
74.06569612686815

>  <S298_units>  (5) 
cal/(mol*K)

>  <Cp_T_value_list>  (5) 
[21.79231995372727, 28.72322049116149, 34.90931795869405, 40.07621166157428, 48.17957605835906, 54.05563435308073, 62.397532807122666, 66.31866398847424, 68.42946986859195]

>  <Cp_T_units>  (5) 
cal/(mol*K)

>  <T_list>  (5) 
[300.0, 400.0, 500.0, 600.0, 800.0, 1000.0, 1500.0, 2000.0, 2400.0]

>  <T_units>  (5) 
K

>  <yaml_path>  (5) 
/home/calvin/Dropbox/PersonalFolders/Calvin/ATLAS_Converged/rmg_rxn_280/output/Species/rmg_rxn_280_r1_sbr-CH-sbr1OCCCO1/rmg_rxn_280_r1_sbr-CH-sbr1OCCCO1.yml

>  <frequencies_cm1>  (5) 
[221.38473973147995, 259.92912833264, 404.37616453883993, 465.21765447404, 498.2203859219599, 675.711355488, 843.04605376576, 891.5750390221999, 897.2334349258798, 928.91083820704, 951.5993577043199, 1041.5293974550398, 1054.4736647832399, 1157.30676995024, 1159.53167319392, 1231.5732161860399, 1233.0290170738797, 1266.9931264665997, 1307.989028827, 1348.11969103708, 1377.30437864708, 1407.0796269946, 1418.3758178459998, 1462.8532817636399, 1490.6165034123997, 1500.0792091833598, 2984.3712191160403, 2988.60128207316, 3033.3465584182795, 3083.9562402266797, 3096.46788747972, 3099.4824940352, 3160.91454470792]

>  <ZPE_kJmol>  (5) 
286.7521305046946

>  <E_elec_kJmol>  (5) 
-806116.3598392424

>  <E0_minus_Eelec_plus_ZPE_kJmol>  (5) 
0.0

>  <rxn>  (5) 
rmg_rxn_280

>  <species_type>  (5) 
r0

>  <species_folder>  (5) 
rmg_rxn_280_r1_sbr-CH-sbr1OCCCO1

>  <frequencies_cm1_list>  (5) 
[221.38473973147995, 259.92912833264, 404.37616453883993, 465.21765447404, 498.2203859219599, 675.711355488, 843.04605376576, 891.5750390221999, 897.2334349258798, 928.91083820704, 951.5993577043199, 1041.5293974550398, 1054.4736647832399, 1157.30676995024, 1159.53167319392, 1231.5732161860399, 1233.0290170738797, 1266.9931264665997, 1307.989028827, 1348.11969103708, 1377.30437864708, 1407.0796269946, 1418.3758178459998, 1462.8532817636399, 1490.6165034123997, 1500.0792091833598, 2984.3712191160403, 2988.60128207316, 3033.3465584182795, 3083.9562402266797, 3096.46788747972, 3099.4824940352, 3160.91454470792]

>  <E0_kJmol>  (5) 
-805830

>  <H298_kJmol>  (5) 
-805813

$$$$
