
     RDKit          3D

 10  9  0  0  0  0  0  0  0  0999 V2000
    0.5383    1.9380    0.3797 C   0  0  0  0  0  0  0  0  0  1  0  0
   -0.5667   -1.9090   -0.3751 C   0  0  0  0  0  0  0  0  0  2  0  0
    0.1934    0.5508    0.1094 C   0  0  0  0  0  2  0  0  0  3  0  0
   -0.0992   -0.5968   -0.1154 C   0  0  0  0  0  2  0  0  0  4  0  0
   -1.6500   -1.8159   -0.3904 H   0  0  0  0  0  0  0  0  0  5  0  0
    1.0705    2.3808   -0.4641 H   0  0  0  0  0  0  0  0  0  6  0  0
   -0.3629    2.5289    0.5595 H   0  0  0  0  0  0  0  0  0  7  0  0
    1.1752    2.0196    1.2623 H   0  0  0  0  0  0  0  0  0  8  0  0
   -0.3410   -2.3014   -1.3637 H   0  0  0  0  0  0  0  0  0  9  0  0
   -0.3951   -2.6342    0.4170 H   0  0  0  0  0  0  0  0  0 10  0  0
  1  3  1  0
  1  8  1  0
  1  7  1  0
  1  6  1  0
  2 10  1  0
  2  9  1  0
  2  5  1  0
  2  4  1  0
  3  4  1  0
M  RAD  2   3   3   4   3
M  END
>  <rmg_smiles>  (1) 
C[C][C]C

>  <rmg_adjacency_list>  (1) 
1  C u0 p0 c0 {3,S} {6,S} {7,S} {8,S}
2  C u0 p0 c0 {4,S} {5,S} {9,S} {10,S}
3  C u0 p1 c0 {1,S} {4,S}
4  C u0 p1 c0 {2,S} {3,S}
5  H u0 p0 c0 {2,S}
6  H u0 p0 c0 {1,S}
7  H u0 p0 c0 {1,S}
8  H u0 p0 c0 {1,S}
9  H u0 p0 c0 {2,S}
10 H u0 p0 c0 {2,S}


>  <multiplicity>  (1) 
1

>  <reaction>  (1) 
rmg_rxn_14153

>  <type>  (1) 
r1h

>  <role_mapnums>  (1) 
{"r1h_a": 2, "r1h_h": 5}

>  <role_mapidx>  (1) 
{"r1h_a": 1, "r1h_h": 4}

>  <ordered_mapped_smiles>  (1) 
[C:1]([C:3][C:4][C:2]([H:5])([H:9])[H:10])([H:6])([H:7])[H:8]

>  <mol_properties>  (1) 
{"1": {"label": "donator", "atom_type": "Cs"}, "4": {"label": "d_hydrogen", "atom_type": "H0"}}

>  <level_of_theory>  (1) 
wb97xd/def2tzvp

>  <lot_method>  (1) 
wb97xd

>  <lot_basis>  (1) 
def2tzvp

>  <spin_multiplicity>  (1) 
1.0

>  <optical_isomers>  (1) 
1.0

>  <modes>  (1) 
IdealGasTranslation(mass=(54.047, 'amu')),         NonlinearRotor(             inertia = ([6.28528, 149.436, 149.436

>  <frequency_value>  (1) 
unknown

>  <frequency_units>  (1) 
unknown

>  <frequency_list>  (1) 
unknown

>  <arkane_path>  (1) 
/home/calvin/Dropbox/PersonalFolders/Calvin/ZEUS_Converged/rmg_rxn_14153/output/Species/rmg_rxn_14153_r2_CCtCC/arkane/output.py

>  <path_exists>  (1) 
True

>  <E0_value>  (1) 
-409307.6748811053

>  <E0_units>  (1) 
kJ/mol

>  <thermo_class>  (1) 
NASA

>  <Cp0_value>  (1) 
33.257888

>  <Cp0_units>  (1) 
J/(mol*K)

>  <CpInf_value>  (1) 
232.805216

>  <CpInf_units>  (1) 
J/(mol*K)

>  <Tmin_value>  (1) 
10.0

>  <Tmin_units>  (1) 
K

>  <Tmax_value>  (1) 
3000.0

>  <Tmax_units>  (1) 
K

>  <polynomials>  (1) 
[{"name": "polynomial1", "class": "NASAPolynomial", "Tmin_value": 10.0, "Tmin_units": "K", "Tmax_value": 462.2508181687535, "Tmax_units": "K", "coeffs": [3.6904823877419424, 0.03130595228053132, -7.808162023126595e-05, 1.8294595166307937e-07, -1.460726158204395e-10, -49228341.8744647, 7.415326580259814]}, {"name": "polynomial2", "class": "NASAPolynomial", "Tmin_value": 462.2508181687535, "Tmin_units": "K", "Tmax_value": 3000.0, "Tmax_units": "K", "coeffs": [1.3579815201647287, 0.03206427638806696, -1.7506692030219324e-05, 4.67244463119894e-09, -4.889178835914915e-13, -49227918.69606717, 19.113293049995615]}]

>  <H298_value>  (1) 
-97822.721650196

>  <H298_units>  (1) 
kcal/mol

>  <S298_value>  (1) 
70.80090486961815

>  <S298_units>  (1) 
cal/(mol*K)

>  <Cp_T_value_list>  (1) 
[19.497028981455287, 23.22823025684923, 26.960321138801756, 30.2850717961582, 35.76405470544827, 39.94104752894896, 46.41854634275779, 49.71322385243493, 51.35826176519843]

>  <Cp_T_units>  (1) 
cal/(mol*K)

>  <T_list>  (1) 
[300.0, 400.0, 500.0, 600.0, 800.0, 1000.0, 1500.0, 2000.0, 2400.0]

>  <T_units>  (1) 
K

>  <yaml_path>  (1) 
/home/calvin/Dropbox/PersonalFolders/Calvin/ZEUS_Converged/rmg_rxn_14153/output/Species/rmg_rxn_14153_r2_CCtCC/rmg_rxn_14153_r2_CCtCC.yml

>  <frequencies_cm1>  (1) 
[23.34088310268, 201.9237033346, 202.7134066464, 412.0877890532, 412.76762059988, 722.18024514844, 1040.6916252459998, 1041.24785105692, 1054.89255088776, 1055.48311162528, 1163.45958879696, 1403.98261661528, 1405.0676002958398, 1467.77691023808, 1467.9348509004399, 1467.99665376832, 1468.13399347472, 2368.77345311932, 3017.1130051217997, 3017.67609791804, 3086.20174442632, 3086.66183244276, 3087.1631223711197, 3087.6506783288396]

>  <ZPE_kJmol>  (1) 
219.89116187326653

>  <E_elec_kJmol>  (1) 
-409527.56604297855

>  <E0_minus_Eelec_plus_ZPE_kJmol>  (1) 
0.0

>  <rxn>  (1) 
rmg_rxn_14153

>  <species_type>  (1) 
r1

>  <species_folder>  (1) 
rmg_rxn_14153_r2_CCtCC

>  <frequencies_cm1_list>  (1) 
[23.34088310268, 201.9237033346, 202.7134066464, 412.0877890532, 412.76762059988, 722.18024514844, 1040.6916252459998, 1041.24785105692, 1054.89255088776, 1055.48311162528, 1163.45958879696, 1403.98261661528, 1405.0676002958398, 1467.77691023808, 1467.9348509004399, 1467.99665376832, 1468.13399347472, 2368.77345311932, 3017.1130051217997, 3017.67609791804, 3086.20174442632, 3086.66183244276, 3087.1631223711197, 3087.6506783288396]

>  <E0_kJmol>  (1) 
-409308

>  <H298_kJmol>  (1) 
-409290

$$$$

     RDKit          3D

 10  9  0  0  0  0  0  0  0  0999 V2000
    0.0760   -1.7723    0.1883 C   0  0  0  0  0  0  0  0  0  1  0  0
   -0.0978   -0.4157    0.6902 C   0  0  0  0  0  0  0  0  0  2  0  0
    0.0074    1.7252   -0.7990 C   0  0  0  0  0  0  0  0  0  3  0  0
   -0.0533    0.6636   -0.0546 C   0  0  0  0  0  2  0  0  0  4  0  0
   -0.1221   -1.9083   -0.8715 H   0  0  0  0  0  0  0  0  0  5  0  0
   -0.3492   -2.5572    0.8080 H   0  0  0  0  0  0  0  0  0  6  0  0
    1.1438   -1.9680    0.2388 H   0  0  0  0  0  0  0  0  0  7  0  0
   -0.1937   -0.2790    1.7636 H   0  0  0  0  0  0  0  0  0  8  0  0
   -0.8844    2.1747   -1.2225 H   0  0  0  0  0  0  0  0  0  9  0  0
    0.9606    2.1930   -1.0243 H   0  0  0  0  0  0  0  0  0 10  0  0
  1  5  1  0
  1  7  1  0
  1  6  1  0
  1  2  1  0
  2  8  1  0
  2  4  1  0
  3  4  1  0
  3  9  1  0
  3 10  1  0
M  RAD  1   4   3
M  END
>  <rmg_smiles>  (2) 
[CH2][C][CH]C

>  <rmg_adjacency_list>  (2) 
1  C u0 p0 c0 {2,S} {5,S} {6,S} {7,S}
2  C u0 p0 c0 {1,S} {4,S} {8,S}
3  C u0 p0 c0 {4,S} {9,S} {10,S}
4  C u0 p1 c0 {2,S} {3,S}
5  H u0 p0 c0 {1,S}
6  H u0 p0 c0 {1,S}
7  H u0 p0 c0 {1,S}
8  H u0 p0 c0 {2,S}
9  H u0 p0 c0 {3,S}
10 H u0 p0 c0 {3,S}


>  <multiplicity>  (2) 
1

>  <reaction>  (2) 
rmg_rxn_14153

>  <type>  (2) 
r2h

>  <role_mapnums>  (2) 
{"r2h_a": 1, "r2h_h": 7}

>  <role_mapidx>  (2) 
{"r2h_a": 0, "r2h_h": 6}

>  <ordered_mapped_smiles>  (2) 
[C:1]([CH:2]([C:4][CH:3]([H:9])[H:10])[H:8])([H:5])([H:6])[H:7]

>  <mol_properties>  (2) 
{"0": {"label": "acceptor", "atom_type": "Cs"}, "6": {"label": "a_hydrogen", "atom_type": "H0"}}

>  <level_of_theory>  (2) 
wb97xd/def2tzvp

>  <lot_method>  (2) 
wb97xd

>  <lot_basis>  (2) 
def2tzvp

>  <spin_multiplicity>  (2) 
1.0

>  <optical_isomers>  (2) 
1.0

>  <modes>  (2) 
IdealGasTranslation(mass=(54.047, 'amu')),         NonlinearRotor(             inertia = ([14.6121, 119.467, 127.49

>  <frequency_value>  (2) 
unknown

>  <frequency_units>  (2) 
unknown

>  <frequency_list>  (2) 
unknown

>  <arkane_path>  (2) 
/home/calvin/Dropbox/PersonalFolders/Calvin/ZEUS_Converged/rmg_rxn_14153/output/Species/rmg_rxn_14153_p2_C=C=CC/arkane/output.py

>  <path_exists>  (2) 
True

>  <E0_value>  (2) 
-409296.6502421279

>  <E0_units>  (2) 
kJ/mol

>  <thermo_class>  (2) 
NASA

>  <Cp0_value>  (2) 
33.257888

>  <Cp0_units>  (2) 
J/(mol*K)

>  <CpInf_value>  (2) 
232.805216

>  <CpInf_units>  (2) 
J/(mol*K)

>  <Tmin_value>  (2) 
10.0

>  <Tmin_units>  (2) 
K

>  <Tmax_value>  (2) 
3000.0

>  <Tmax_units>  (2) 
K

>  <polynomials>  (2) 
[{"name": "polynomial1", "class": "NASAPolynomial", "Tmin_value": 10.0, "Tmin_units": "K", "Tmax_value": 452.8802664009696, "Tmax_units": "K", "coeffs": [3.9021943352433452, 0.007937521032632688, 6.664442489196733e-05, -1.2131953588307993e-07, 6.938885885775227e-11, -49227014.555544384, 8.255511443201872]}, {"name": "polynomial2", "class": "NASAPolynomial", "Tmin_value": 452.8802664009696, "Tmin_units": "K", "Tmax_value": 3000.0, "Tmax_units": "K", "coeffs": [0.958037882717614, 0.033941191741253485, -1.948265019694705e-05, 5.463813645242153e-09, -5.979209978345261e-13, -49226747.88374059, 20.12723627389473]}]

>  <H298_value>  (2) 
-97820.47439749332

>  <H298_units>  (2) 
kcal/mol

>  <S298_value>  (2) 
69.30943774444917

>  <S298_units>  (2) 
cal/(mol*K)

>  <Cp_T_value_list>  (2) 
[19.013335795722274, 23.35407848830737, 27.231838984706652, 30.626214617830076, 36.15654523435027, 40.30546036176962, 46.594544625367064, 49.786664420046236, 51.450781523093035]

>  <Cp_T_units>  (2) 
cal/(mol*K)

>  <T_list>  (2) 
[300.0, 400.0, 500.0, 600.0, 800.0, 1000.0, 1500.0, 2000.0, 2400.0]

>  <T_units>  (2) 
K

>  <yaml_path>  (2) 
/home/calvin/Dropbox/PersonalFolders/Calvin/ZEUS_Converged/rmg_rxn_14153/output/Species/rmg_rxn_14153_p2_C=C=CC/rmg_rxn_14153_p2_C=C=CC.yml

>  <frequencies_cm1>  (2) 
[164.84884959192, 210.28769145436, 340.98015606459995, 540.2944049775999, 574.7186023867599, 878.6239047086799, 884.0282221555199, 895.09093550604, 1017.79709618912, 1055.91573170044, 1088.91159616304, 1146.5530709391198, 1353.77808694076, 1399.01778622892, 1463.354571692, 1470.3726306890399, 1494.8053644576, 2061.4346581373993, 3012.63573069316, 3072.0282867258397, 3106.42501619372, 3110.62074422424, 3124.134971334, 3189.66661224276]

>  <ZPE_kJmol>  (2) 
219.25357474583132

>  <E_elec_kJmol>  (2) 
-409515.9038168737

>  <E0_minus_Eelec_plus_ZPE_kJmol>  (2) 
0.0

>  <rxn>  (2) 
rmg_rxn_14153

>  <species_type>  (2) 
p1

>  <species_folder>  (2) 
rmg_rxn_14153_p2_C=C=CC

>  <frequencies_cm1_list>  (2) 
[164.84884959192, 210.28769145436, 340.98015606459995, 540.2944049775999, 574.7186023867599, 878.6239047086799, 884.0282221555199, 895.09093550604, 1017.79709618912, 1055.91573170044, 1088.91159616304, 1146.5530709391198, 1353.77808694076, 1399.01778622892, 1463.354571692, 1470.3726306890399, 1494.8053644576, 2061.4346581373993, 3012.63573069316, 3072.0282867258397, 3106.42501619372, 3110.62074422424, 3124.134971334, 3189.66661224276]

>  <E0_kJmol>  (2) 
-409297

>  <H298_kJmol>  (2) 
-409281

$$$$

     RDKit          3D

 19 17  0  0  0  0  0  0  0  0999 V2000
   -1.6008   -1.6559   -0.1245 C   0  0  0  0  0  0  0  0  0  1  0  0
    2.1847    1.8323    0.7119 C   0  0  0  0  0  0  0  0  0  2  0  0
   -1.7746   -0.2993    0.3774 C   0  0  0  0  0  0  0  0  0  3  0  0
   -1.6695    1.8416   -1.1118 C   0  0  0  0  0  0  0  0  0  4  0  0
    1.0798   -2.0147   -0.0429 C   0  0  0  0  0  0  0  0  0  5  0  0
   -1.7301    0.7800   -0.3674 C   0  0  0  0  0  0  0  0  0  6  0  0
    1.8398    0.4452    0.4416 C   0  0  0  0  0  3  0  0  0  7  0  0
    1.5473   -0.7024    0.2168 C   0  0  0  0  0  0  0  0  0  8  0  0
   -1.7989   -1.7919   -1.1842 H   0  0  0  0  0  0  0  0  0  9  0  0
   -2.0260   -2.4408    0.4952 H   0  0  0  0  0  0  0  0  0 10  0  0
   -0.2829   -1.8975   -0.0622 H   0  0  0  0  0  0  0  0  0 11  0  0
    2.7169    2.2752   -0.1319 H   0  0  0  0  0  0  0  0  0 12  0  0
    1.2835    2.4232    0.8917 H   0  0  0  0  0  0  0  0  0 13  0  0
    2.8217    1.9140    1.5945 H   0  0  0  0  0  0  0  0  0 14  0  0
   -1.8705   -0.1626    1.4508 H   0  0  0  0  0  0  0  0  0 15  0  0
   -2.5613    2.2911   -1.5353 H   0  0  0  0  0  0  0  0  0 16  0  0
   -0.7162    2.3094   -1.3371 H   0  0  0  0  0  0  0  0  0 17  0  0
    1.3055   -2.4070   -1.0315 H   0  0  0  0  0  0  0  0  0 18  0  0
    1.2513   -2.7398    0.7492 H   0  0  0  0  0  0  0  0  0 19  0  0
  1 10  1  0
  1 11  1  0
  1  3  1  0
  1  9  1  0
  2 12  1  0
  2  7  1  0
  2 13  1  0
  2 14  1  0
  3 15  1  0
  3  6  1  0
  4 16  1  0
  4  6  1  0
  4 17  1  0
  5 19  1  0
  5 18  1  0
  5  8  1  0
  7  8  1  0
M  RAD  1   7   2
M  END
>  <rmg_smiles>  (3) 
[CH2]C[CH]C.[CH2]C[C]C

>  <rmg_adjacency_list>  (3) 
multiplicity 2
1  C u0 p0 c0 {3,S} {9,S} {10,S} {11,S}
2  C u0 p0 c0 {7,S} {12,S} {13,S} {14,S}
3  C u0 p0 c0 {1,S} {6,S} {15,S}
4  C u0 p0 c0 {6,S} {16,S} {17,S}
5  C u0 p0 c0 {8,S} {18,S} {19,S}
6  C u0 p1 c0 {3,S} {4,S}
7  C u1 p1 c0 {2,S} {8,S}
8  C u0 p1 c0 {5,S} {7,S}
9  H u0 p0 c0 {1,S}
10 H u0 p0 c0 {1,S}
11 H u0 p0 c0 {1,S}
12 H u0 p0 c0 {2,S}
13 H u0 p0 c0 {2,S}
14 H u0 p0 c0 {2,S}
15 H u0 p0 c0 {3,S}
16 H u0 p0 c0 {4,S}
17 H u0 p0 c0 {4,S}
18 H u0 p0 c0 {5,S}
19 H u0 p0 c0 {5,S}


>  <multiplicity>  (3) 
2

>  <reaction>  (3) 
rmg_rxn_14153

>  <type>  (3) 
ts

>  <role_mapnums>  (3) 
{"*2": 11, "*1": 1, "*3": 5, "*0": 3, "*4": 8}

>  <role_mapidx>  (3) 
{"*2": 10, "*1": 0, "*3": 4, "*0": 2, "*4": 7}

>  <ordered_mapped_smiles>  (3) 
[C:1]([CH:3]([CH2:6][CH:4]([H:16])[H:17])[H:15])([H:9])([H:10])[H:11].[C:2]([CH:7][CH2:8][CH:5]([H:18])[H:19])([H:12])([H:13])[H:14]

>  <mol_properties>  (3) 
{"0": {"label": "*1", "atom_type": "Cs"}, "2": {"label": "*0", "atom_type": "Cs"}, "4": {"label": "*3", "atom_type": "Cs"}, "7": {"label": "*4", "atom_type": "C2s"}, "10": {"label": "*2", "atom_type": "H0"}}

>  <level_of_theory>  (3) 
wb97xd/def2tzvp

>  <lot_method>  (3) 
wb97xd

>  <lot_basis>  (3) 
def2tzvp

>  <spin_multiplicity>  (3) 
2.0

>  <optical_isomers>  (3) 
2.0

>  <modes>  (3) 
IdealGasTranslation(mass=(107.086, 'amu')),         NonlinearRotor(             inertia = ([255.871, 357.783, 563.128

>  <frequency_value>  (3) 
-1810.39

>  <frequency_units>  (3) 
cm^-1

>  <frequency_list>  (3) 
unknown

>  <arkane_path>  (3) 
/home/calvin/Dropbox/PersonalFolders/Calvin/ZEUS_Converged/rmg_rxn_14153/output/rxns/TS0/arkane/output.py

>  <path_exists>  (3) 
True

>  <E0_value>  (3) 
-816849.0

>  <E0_units>  (3) 
kJ/mol

>  <thermo_class>  (3) 
unknown

>  <Cp0_value>  (3) 
unknown

>  <Cp0_units>  (3) 
unknown

>  <CpInf_value>  (3) 
unknown

>  <CpInf_units>  (3) 
unknown

>  <Tmin_value>  (3) 
unknown

>  <Tmin_units>  (3) 
unknown

>  <Tmax_value>  (3) 
unknown

>  <Tmax_units>  (3) 
unknown

>  <polynomials>  (3) 
unknown

>  <H298_value>  (3) 
unknown

>  <H298_units>  (3) 
unknown

>  <S298_value>  (3) 
unknown

>  <S298_units>  (3) 
unknown

>  <Cp_T_value_list>  (3) 
unknown

>  <Cp_T_units>  (3) 
unknown

>  <T_list>  (3) 
unknown

>  <T_units>  (3) 
unknown

>  <yaml_path>  (3) 
unknown

>  <frequencies_cm1>  (3) 
unknown

>  <ZPE_kJmol>  (3) 
unknown

>  <E_elec_kJmol>  (3) 
unknown

>  <E0_minus_Eelec_plus_ZPE_kJmol>  (3) 
unknown

>  <rxn>  (3) 
unknown

>  <species_type>  (3) 
unknown

>  <species_folder>  (3) 
unknown

>  <frequencies_cm1_list>  (3) 
[]

>  <ts_imag_freq_cm1>  (3) 
-1832.3752

>  <ts_freq_out_path>  (3) 
/home/calvin/Dropbox/PersonalFolders/Calvin/ZEUS_Converged/rmg_rxn_14153/output/rxns/TS0/geometry/freq.out

>  <E0_kJmol>  (3) 
-816849

>  <H298_kJmol>  (3) 
unknown

$$$$

     RDKit          3D

  9  8  0  0  0  0  0  0  0  0999 V2000
    2.2285    0.1429   -0.1875 C   0  0  0  0  0  0  0  0  0  1  0  0
    0.8689    0.0588   -0.0734 C   0  0  0  0  0  0  0  0  0  2  0  0
   -0.3436   -0.0148    0.0282 C   0  0  0  0  0  3  0  0  0  3  0  0
   -1.7876   -0.1130    0.1500 C   0  0  0  0  0  0  0  0  0  4  0  0
    2.8646    0.0330    0.6803 H   0  0  0  0  0  0  0  0  0  5  0  0
    2.6934    0.3211   -1.1477 H   0  0  0  0  0  0  0  0  0  6  0  0
   -2.1322    0.3380    1.0826 H   0  0  0  0  0  0  0  0  0  7  0  0
   -2.1068   -1.1583    0.1470 H   0  0  0  0  0  0  0  0  0  8  0  0
   -2.2854    0.3923   -0.6795 H   0  0  0  0  0  0  0  0  0  9  0  0
  1  5  1  0
  1  6  1  0
  1  2  1  0
  2  3  1  0
  3  4  1  0
  4  8  1  0
  4  9  1  0
  4  7  1  0
M  RAD  1   3   2
M  END
>  <rmg_smiles>  (4) 
[CH2]C[C]C

>  <rmg_adjacency_list>  (4) 
multiplicity 2
1 C u0 p0 c0 {3,S} {5,S} {6,S} {7,S}
2 C u0 p0 c0 {4,S} {8,S} {9,S}
3 C u1 p1 c0 {1,S} {4,S}
4 C u0 p1 c0 {2,S} {3,S}
5 H u0 p0 c0 {1,S}
6 H u0 p0 c0 {1,S}
7 H u0 p0 c0 {1,S}
8 H u0 p0 c0 {2,S}
9 H u0 p0 c0 {2,S}


>  <multiplicity>  (4) 
2

>  <reaction>  (4) 
rmg_rxn_14153

>  <type>  (4) 
r1

>  <role_mapnums>  (4) 
{}

>  <role_mapidx>  (4) 
{}

>  <ordered_mapped_smiles>  (4) 
[CH:1]([CH2:2][CH:3][C:4]([H:7])([H:8])[H:9])([H:5])[H:6]

>  <level_of_theory>  (4) 
wb97xd/def2tzvp

>  <lot_method>  (4) 
wb97xd

>  <lot_basis>  (4) 
def2tzvp

>  <spin_multiplicity>  (4) 
2.0

>  <optical_isomers>  (4) 
2.0

>  <modes>  (4) 
IdealGasTranslation(mass=(53.0391, 'amu')),         NonlinearRotor(             inertia = ([4.88746, 139.242, 140.992

>  <frequency_value>  (4) 
unknown

>  <frequency_units>  (4) 
unknown

>  <frequency_list>  (4) 
unknown

>  <arkane_path>  (4) 
/home/calvin/Dropbox/PersonalFolders/Calvin/ZEUS_Converged/rmg_rxn_14153/output/Species/rmg_rxn_14153_p1_sbr-CH2-sbrCtCC/arkane/output.py

>  <path_exists>  (4) 
True

>  <E0_value>  (4) 
-407625.4064849041

>  <E0_units>  (4) 
kJ/mol

>  <thermo_class>  (4) 
NASA

>  <Cp0_value>  (4) 
33.257888

>  <Cp0_units>  (4) 
J/(mol*K)

>  <CpInf_value>  (4) 
207.8618

>  <CpInf_units>  (4) 
J/(mol*K)

>  <Tmin_value>  (4) 
10.0

>  <Tmin_units>  (4) 
K

>  <Tmax_value>  (4) 
3000.0

>  <Tmax_units>  (4) 
K

>  <polynomials>  (4) 
[{"name": "polynomial1", "class": "NASAPolynomial", "Tmin_value": 10.0, "Tmin_units": "K", "Tmax_value": 502.0268159976515, "Tmax_units": "K", "coeffs": [3.687270830426517, 0.029053628934412008, -4.470123428186127e-05, 7.503439468745092e-08, -5.158529094876398e-11, -49026010.75493378, 10.46372665339021]}, {"name": "polynomial2", "class": "NASAPolynomial", "Tmin_value": 502.0268159976515, "Tmin_units": "K", "Tmax_value": 3000.0, "Tmax_units": "K", "coeffs": [2.898462070883104, 0.02729908073702909, -1.54375900595206e-05, 4.274702323061024e-09, -4.631616133105543e-13, -49025830.24365362, 14.734719774038638]}]

>  <H298_value>  (4) 
-97420.5979578768

>  <H298_units>  (4) 
kcal/mol

>  <S298_value>  (4) 
76.91244568160063

>  <S298_units>  (4) 
cal/(mol*K)

>  <Cp_T_value_list>  (4) 
[19.848886680568814, 23.127392893703846, 26.219193390336713, 28.980799697634083, 33.49755626219656, 36.90539253248215, 42.11858387906473, 44.77831245492002, 46.14816382733488]

>  <Cp_T_units>  (4) 
cal/(mol*K)

>  <T_list>  (4) 
[300.0, 400.0, 500.0, 600.0, 800.0, 1000.0, 1500.0, 2000.0, 2400.0]

>  <T_units>  (4) 
K

>  <yaml_path>  (4) 
/home/calvin/Dropbox/PersonalFolders/Calvin/ZEUS_Converged/rmg_rxn_14153/output/Species/rmg_rxn_14153_p1_sbr-CH2-sbrCtCC/rmg_rxn_14153_p1_sbr-CH2-sbrCtCC.yml

>  <frequencies_cm1>  (4) 
[24.18552229704, 186.74766577739996, 206.32544092471997, 398.28514856, 428.84323323399997, 670.45124473288, 768.8002084859199, 1023.53102893132, 1025.11730254024, 1044.32426048028, 1244.297739984, 1401.51050190008, 1455.78715386936, 1460.16829050352, 1460.7931861676398, 2137.33544687936, 3007.2588811876003, 3071.0325738544398, 3085.0961597897995, 3128.557309880079, 3222.30539346872]

>  <ZPE_kJmol>  (4) 
182.1360065892337

>  <E_elec_kJmol>  (4) 
-407807.5424914933

>  <E0_minus_Eelec_plus_ZPE_kJmol>  (4) 
0.0

>  <rxn>  (4) 
rmg_rxn_14153

>  <species_type>  (4) 
p0

>  <species_folder>  (4) 
rmg_rxn_14153_p1_sbr-CH2-sbrCtCC

>  <frequencies_cm1_list>  (4) 
[24.18552229704, 186.74766577739996, 206.32544092471997, 398.28514856, 428.84323323399997, 670.45124473288, 768.8002084859199, 1023.53102893132, 1025.11730254024, 1044.32426048028, 1244.297739984, 1401.51050190008, 1455.78715386936, 1460.16829050352, 1460.7931861676398, 2137.33544687936, 3007.2588811876003, 3071.0325738544398, 3085.0961597897995, 3128.557309880079, 3222.30539346872]

>  <E0_kJmol>  (4) 
-407625

>  <H298_kJmol>  (4) 
-407608

$$$$

     RDKit          3D

  9  8  0  0  0  0  0  0  0  0999 V2000
    1.8962   -0.1368   -0.2185 C   0  0  0  0  0  0  0  0  0  1  0  0
    0.6332    0.1497   -0.2267 C   0  0  0  0  0  3  0  0  0  2  0  0
   -0.6783    0.4486   -0.2362 C   0  0  0  0  0  0  0  0  0  3  0  0
   -1.6587   -0.2335    0.4694 C   0  0  0  0  0  0  0  0  0  4  0  0
    2.3273   -0.8311   -0.9354 H   0  0  0  0  0  0  0  0  0  5  0  0
    2.5755    0.3040    0.5069 H   0  0  0  0  0  0  0  0  0  6  0  0
   -0.9764    1.2944   -0.8506 H   0  0  0  0  0  0  0  0  0  7  0  0
   -2.6928    0.0726    0.4065 H   0  0  0  0  0  0  0  0  0  8  0  0
   -1.4099   -1.0807    1.0934 H   0  0  0  0  0  0  0  0  0  9  0  0
  1  5  1  0
  1  6  1  0
  1  2  1  0
  2  3  1  0
  3  4  1  0
  3  7  1  0
  4  8  1  0
  4  9  1  0
M  RAD  1   2   2
M  END
>  <rmg_smiles>  (5) 
[CH2][C][CH][CH2]

>  <rmg_adjacency_list>  (5) 
multiplicity 2
1 C u0 p0 c0 {2,S} {4,S} {5,S}
2 C u0 p0 c0 {1,S} {6,S} {7,S}
3 C u0 p0 c0 {4,S} {8,S} {9,S}
4 C u1 p1 c0 {1,S} {3,S}
5 H u0 p0 c0 {1,S}
6 H u0 p0 c0 {2,S}
7 H u0 p0 c0 {2,S}
8 H u0 p0 c0 {3,S}
9 H u0 p0 c0 {3,S}


>  <multiplicity>  (5) 
2

>  <reaction>  (5) 
rmg_rxn_14153

>  <type>  (5) 
r2

>  <role_mapnums>  (5) 
{}

>  <role_mapidx>  (5) 
{}

>  <ordered_mapped_smiles>  (5) 
[CH:1]([CH:2][CH:3]([CH:4]([H:8])[H:9])[H:7])([H:5])[H:6]

>  <level_of_theory>  (5) 
wb97xd/def2tzvp

>  <lot_method>  (5) 
wb97xd

>  <lot_basis>  (5) 
def2tzvp

>  <spin_multiplicity>  (5) 
2.0

>  <optical_isomers>  (5) 
1.0

>  <modes>  (5) 
IdealGasTranslation(mass=(53.0391, 'amu')),         NonlinearRotor(             inertia = ([12.0347, 113.266, 121.844

>  <frequency_value>  (5) 
unknown

>  <frequency_units>  (5) 
unknown

>  <frequency_list>  (5) 
unknown

>  <arkane_path>  (5) 
/home/calvin/Dropbox/PersonalFolders/Calvin/ZEUS_Converged/rmg_rxn_14153/output/Species/rmg_rxn_14153_r1_C=sbr-C-sbrC=C/arkane/output.py

>  <path_exists>  (5) 
True

>  <E0_value>  (5) 
-407618.7322871182

>  <E0_units>  (5) 
kJ/mol

>  <thermo_class>  (5) 
NASA

>  <Cp0_value>  (5) 
33.257888

>  <Cp0_units>  (5) 
J/(mol*K)

>  <CpInf_value>  (5) 
207.8618

>  <CpInf_units>  (5) 
J/(mol*K)

>  <Tmin_value>  (5) 
10.0

>  <Tmin_units>  (5) 
K

>  <Tmax_value>  (5) 
3000.0

>  <Tmax_units>  (5) 
K

>  <polynomials>  (5) 
[{"name": "polynomial1", "class": "NASAPolynomial", "Tmin_value": 10.0, "Tmin_units": "K", "Tmax_value": 514.1627669615141, "Tmax_units": "K", "coeffs": [3.9420033650092194, 0.003572324131280511, 9.462342675756363e-05, -1.8676284311886954e-07, 1.149785738012023e-10, -49025207.30228202, 8.656389036962679]}, {"name": "polynomial2", "class": "NASAPolynomial", "Tmin_value": 514.1627669615141, "Tmin_units": "K", "Tmax_value": 3000.0, "Tmax_units": "K", "coeffs": [2.029834550148665, 0.030448893080009667, -1.8795396905939947e-05, 5.691011797771398e-09, -6.697030625419615e-13, -49025169.29486995, 15.066930145553966]}]

>  <H298_value>  (5) 
-97419.52666136409

>  <H298_units>  (5) 
kcal/mol

>  <S298_value>  (5) 
69.4719153890684

>  <S298_units>  (5) 
cal/(mol*K)

>  <Cp_T_value_list>  (5) 
[18.71658132650381, 22.855479647781404, 26.28046336634898, 29.16283674573409, 33.78128373497921, 37.16998113185326, 42.18903825802206, 44.829149945703655, 46.30012006236418]

>  <Cp_T_units>  (5) 
cal/(mol*K)

>  <T_list>  (5) 
[300.0, 400.0, 500.0, 600.0, 800.0, 1000.0, 1500.0, 2000.0, 2400.0]

>  <T_units>  (5) 
K

>  <yaml_path>  (5) 
/home/calvin/Dropbox/PersonalFolders/Calvin/ZEUS_Converged/rmg_rxn_14153/output/Species/rmg_rxn_14153_r1_C=sbr-C-sbrC=C/rmg_rxn_14153_r1_C=sbr-C-sbrC=C.yml

>  <frequencies_cm1>  (5) 
[209.8207364526, 213.04821955299997, 498.82468063011993, 525.2763080827599, 574.87654304912, 748.93401995516, 893.7518733686398, 905.4944182658398, 936.5057239709599, 975.15311735192, 1080.3828003955998, 1184.87084902472, 1365.78157728012, 1440.54244645896, 1485.45939743708, 1902.75236136284, 3071.2179824580794, 3118.0576893257994, 3138.67924624176, 3141.52904514956, 3241.1758691280797]

>  <ZPE_kJmol>  (5) 
183.34053407098105

>  <E_elec_kJmol>  (5) 
-407802.0728211892

>  <E0_minus_Eelec_plus_ZPE_kJmol>  (5) 
0.0

>  <rxn>  (5) 
rmg_rxn_14153

>  <species_type>  (5) 
r0

>  <species_folder>  (5) 
rmg_rxn_14153_r1_C=sbr-C-sbrC=C

>  <frequencies_cm1_list>  (5) 
[209.8207364526, 213.04821955299997, 498.82468063011993, 525.2763080827599, 574.87654304912, 748.93401995516, 893.7518733686398, 905.4944182658398, 936.5057239709599, 975.15311735192, 1080.3828003955998, 1184.87084902472, 1365.78157728012, 1440.54244645896, 1485.45939743708, 1902.75236136284, 3071.2179824580794, 3118.0576893257994, 3138.67924624176, 3141.52904514956, 3241.1758691280797]

>  <E0_kJmol>  (5) 
-407619

>  <H298_kJmol>  (5) 
-407603

$$$$
