
     RDKit          3D

 13 12  0  0  0  0  0  0  0  0999 V2000
    1.3924    0.3217    0.9542 N   0  0  0  0  0  0  0  0  0  1  0  0
    0.6045    1.0825    0.2505 N   0  0  0  0  0  0  0  0  0  2  0  0
   -0.5632    0.7850   -0.2597 C   0  0  0  0  0  0  0  0  0  3  0  0
   -1.1484   -0.5669   -0.0650 C   0  0  0  0  0  0  0  0  0  4  0  0
   -0.4604   -1.6532   -0.9001 C   0  0  0  0  0  0  0  0  0  5  0  0
    2.1721    0.9724    1.1785 H   0  0  0  0  0  0  0  0  0  6  0  0
    0.9492    2.0345    0.0717 H   0  0  0  0  0  0  0  0  0  7  0  0
   -1.0428    1.5700   -0.8241 H   0  0  0  0  0  0  0  0  0  8  0  0
   -2.2123   -0.5294   -0.3045 H   0  0  0  0  0  0  0  0  0  9  0  0
   -1.0584   -0.8323    0.9948 H   0  0  0  0  0  0  0  0  0 10  0  0
    0.6024   -1.6968   -0.6600 H   0  0  0  0  0  0  0  0  0 11  0  0
   -0.5674   -1.4508   -1.9672 H   0  0  0  0  0  0  0  0  0 12  0  0
   -0.8970   -2.6316   -0.6929 H   0  0  0  0  0  0  0  0  0 13  0  0
  1  2  1  0
  1  6  1  0
  2  3  1  0
  2  7  1  0
  3  4  1  0
  3  8  1  0
  4  5  1  0
  4  9  1  0
  4 10  1  0
  5 11  1  0
  5 12  1  0
  5 13  1  0
M  END
>  <rmg_smiles>  (1) 
CC[CH]N[NH]

>  <rmg_adjacency_list>  (1) 
1  N u0 p1 c0 {2,S} {5,S} {12,S}
2  N u0 p1 c0 {1,S} {13,S}
3  C u0 p0 c0 {4,S} {5,S} {6,S} {7,S}
4  C u0 p0 c0 {3,S} {8,S} {9,S} {10,S}
5  C u0 p0 c0 {1,S} {3,S} {11,S}
6  H u0 p0 c0 {3,S}
7  H u0 p0 c0 {3,S}
8  H u0 p0 c0 {4,S}
9  H u0 p0 c0 {4,S}
10 H u0 p0 c0 {4,S}
11 H u0 p0 c0 {5,S}
12 H u0 p0 c0 {1,S}
13 H u0 p0 c0 {2,S}


>  <multiplicity>  (1) 
1

>  <reaction>  (1) 
rmg_rxn_2504

>  <type>  (1) 
r1h

>  <role_mapnums>  (1) 
{"r1h_a": 1, "r1h_h": 6}

>  <role_mapidx>  (1) 
{"r1h_a": 0, "r1h_h": 5}

>  <ordered_mapped_smiles>  (1) 
[NH:1]([N:2]([CH:3]([C:4]([C:5]([H:11])([H:12])[H:13])([H:9])[H:10])[H:8])[H:7])[H:6]

>  <mol_properties>  (1) 
{"0": {"label": "donator", "atom_type": "N3s"}, "5": {"label": "d_hydrogen", "atom_type": "H0"}}

>  <level_of_theory>  (1) 
wb97xd/def2tzvp

>  <lot_method>  (1) 
wb97xd

>  <lot_basis>  (1) 
def2tzvp

>  <spin_multiplicity>  (1) 
1.0

>  <optical_isomers>  (1) 
2.0

>  <modes>  (1) 
IdealGasTranslation(mass=(72.0687, 'amu')),         NonlinearRotor(             inertia = ([54.1798, 139.96, 170.595

>  <frequency_value>  (1) 
unknown

>  <frequency_units>  (1) 
unknown

>  <frequency_list>  (1) 
unknown

>  <arkane_path>  (1) 
/home/calvin/Dropbox/PersonalFolders/Calvin/ATLAS_Converged/rmg_rxn_2504/output/Species/rmg_rxn_2504_r1_sbr-NH--sbrsbr-NHp-sbr=CCC/arkane/output.py

>  <path_exists>  (1) 
True

>  <E0_value>  (1) 
-599821.0790306241

>  <E0_units>  (1) 
kJ/mol

>  <thermo_class>  (1) 
NASA

>  <Cp0_value>  (1) 
33.257888

>  <Cp0_units>  (1) 
J/(mol*K)

>  <CpInf_value>  (1) 
307.635464

>  <CpInf_units>  (1) 
J/(mol*K)

>  <Tmin_value>  (1) 
10.0

>  <Tmin_units>  (1) 
K

>  <Tmax_value>  (1) 
3000.0

>  <Tmax_units>  (1) 
K

>  <polynomials>  (1) 
[{"name": "polynomial1", "class": "NASAPolynomial", "Tmin_value": 10.0, "Tmin_units": "K", "Tmax_value": 474.6231797693429, "Tmax_units": "K", "coeffs": [3.8638570608205893, 0.011851664100845052, 8.535183248356616e-05, -1.5102840869398888e-07, 8.283926919915231e-11, -72141810.5279526, 10.255638797858218]}, {"name": "polynomial2", "class": "NASAPolynomial", "Tmin_value": 474.6231797693429, "Tmin_units": "K", "Tmax_value": 3000.0, "Tmax_units": "K", "coeffs": [-0.3841679981826946, 0.0476529853258206, -2.7794975472350653e-05, 7.90055087775941e-09, -8.741425402721546e-13, -72141407.28659089, 27.584121834613498]}]

>  <H298_value>  (1) 
-143356.35915651103

>  <H298_units>  (1) 
kcal/mol

>  <S298_value>  (1) 
76.35056231702549

>  <S298_units>  (1) 
cal/(mol*K)

>  <Cp_T_value_list>  (1) 
[23.238894115627907, 29.24310099040242, 34.630085382629034, 39.33608129606988, 46.97054530373929, 52.6614694600426, 61.19727172557593, 65.49838020782562, 67.76215559981173]

>  <Cp_T_units>  (1) 
cal/(mol*K)

>  <T_list>  (1) 
[300.0, 400.0, 500.0, 600.0, 800.0, 1000.0, 1500.0, 2000.0, 2400.0]

>  <T_units>  (1) 
K

>  <yaml_path>  (1) 
/home/calvin/Dropbox/PersonalFolders/Calvin/ATLAS_Converged/rmg_rxn_2504/output/Species/rmg_rxn_2504_r1_sbr-NH--sbrsbr-NHp-sbr=CCC/rmg_rxn_2504_r1_sbr-NH--sbrsbr-NHp-sbr=CCC.yml

>  <frequencies_cm1>  (1) 
[136.9620222074, 209.61472689299998, 254.75142140136, 308.30703991204, 470.95158721624, 604.68612632324, 687.9689242841999, 696.4839860809999, 805.7651904634799, 897.4737794120799, 920.54685008728, 1021.0932491427199, 1079.8334415699999, 1128.5341014594399, 1155.17113751572, 1288.91941059336, 1343.4638749901198, 1373.9807577522, 1387.87266905456, 1398.0289403428399, 1456.3021777683598, 1482.71260330908, 1494.942704164, 1535.7257299794799, 1699.6338025825598, 3005.54900184292, 3019.50958299848, 3066.781909941359, 3090.2738667210792, 3110.49713848848, 3206.03750524564, 3439.3227305366795, 3491.6972275723197]

>  <ZPE_kJmol>  (1) 
300.67784169839894

>  <E_elec_kJmol>  (1) 
-600121.7568723225

>  <E0_minus_Eelec_plus_ZPE_kJmol>  (1) 
0.0

>  <rxn>  (1) 
rmg_rxn_2504

>  <species_type>  (1) 
r0

>  <species_folder>  (1) 
rmg_rxn_2504_r1_sbr-NH--sbrsbr-NHp-sbr=CCC

>  <frequencies_cm1_list>  (1) 
[136.9620222074, 209.61472689299998, 254.75142140136, 308.30703991204, 470.95158721624, 604.68612632324, 687.9689242841999, 696.4839860809999, 805.7651904634799, 897.4737794120799, 920.54685008728, 1021.0932491427199, 1079.8334415699999, 1128.5341014594399, 1155.17113751572, 1288.91941059336, 1343.4638749901198, 1373.9807577522, 1387.87266905456, 1398.0289403428399, 1456.3021777683598, 1482.71260330908, 1494.942704164, 1535.7257299794799, 1699.6338025825598, 3005.54900184292, 3019.50958299848, 3066.781909941359, 3090.2738667210792, 3110.49713848848, 3206.03750524564, 3439.3227305366795, 3491.6972275723197]

>  <E0_kJmol>  (1) 
-599821

>  <H298_kJmol>  (1) 
-599803

$$$$

     RDKit          3D

 18 17  0  0  0  0  0  0  0  0999 V2000
   -0.1865   -1.5370    0.7079 H   0  0  0  0  0  0  0  0  0  1  0  0
   -1.3077    0.5221    2.1635 C   0  0  0  0  0  0  0  0  0  2  0  0
    0.1539    0.1208    1.9961 C   0  0  0  0  0  0  0  0  0  3  0  0
    0.4387   -0.6386    0.7296 C   0  0  0  0  0  0  0  0  0  4  0  0
    0.0825    0.0906   -0.4035 O   0  0  0  0  0  0  0  0  0  5  0  0
    0.6383   -0.4134   -1.6096 C   0  0  0  0  0  0  0  0  0  6  0  0
    0.0373    0.3376   -2.7730 C   0  0  0  0  0  0  0  0  0  7  0  0
   -1.9490   -0.3602    2.1967 H   0  0  0  0  0  0  0  0  0  8  0  0
   -1.4503    1.0796    3.0898 H   0  0  0  0  0  0  0  0  0  9  0  0
   -1.6364    1.1576    1.3395 H   0  0  0  0  0  0  0  0  0 10  0  0
    0.7888    1.0143    2.0256 H   0  0  0  0  0  0  0  0  0 11  0  0
    0.4623   -0.5124    2.8314 H   0  0  0  0  0  0  0  0  0 12  0  0
    1.4604   -1.0256    0.6608 H   0  0  0  0  0  0  0  0  0 13  0  0
    1.7265   -0.2848   -1.5792 H   0  0  0  0  0  0  0  0  0 14  0  0
    0.4291   -1.4869   -1.6845 H   0  0  0  0  0  0  0  0  0 15  0  0
    0.2258    1.4076   -2.6811 H   0  0  0  0  0  0  0  0  0 16  0  0
    0.4745   -0.0131   -3.7085 H   0  0  0  0  0  0  0  0  0 17  0  0
   -1.0413    0.1783   -2.8223 H   0  0  0  0  0  0  0  0  0 18  0  0
  1  4  1  0
  2 10  1  0
  2  9  1  0
  2  8  1  0
  2  3  1  0
  3  4  1  0
  3 11  1  0
  3 12  1  0
  4 13  1  0
  4  5  1  0
  5  6  1  0
  6 15  1  0
  6 14  1  0
  6  7  1  0
  7 17  1  0
  7 18  1  0
  7 16  1  0
M  END
>  <rmg_smiles>  (2) 
CCCOCC

>  <rmg_adjacency_list>  (2) 
1  O u0 p2 c0 {3,S} {4,S}
2  C u0 p0 c0 {3,S} {5,S} {7,S} {8,S}
3  C u0 p0 c0 {1,S} {2,S} {9,S} {10,S}
4  C u0 p0 c0 {1,S} {6,S} {11,S} {12,S}
5  C u0 p0 c0 {2,S} {13,S} {14,S} {15,S}
6  C u0 p0 c0 {4,S} {16,S} {17,S} {18,S}
7  H u0 p0 c0 {2,S}
8  H u0 p0 c0 {2,S}
9  H u0 p0 c0 {3,S}
10 H u0 p0 c0 {3,S}
11 H u0 p0 c0 {4,S}
12 H u0 p0 c0 {4,S}
13 H u0 p0 c0 {5,S}
14 H u0 p0 c0 {5,S}
15 H u0 p0 c0 {5,S}
16 H u0 p0 c0 {6,S}
17 H u0 p0 c0 {6,S}
18 H u0 p0 c0 {6,S}


>  <multiplicity>  (2) 
1

>  <reaction>  (2) 
rmg_rxn_2504

>  <type>  (2) 
r2h

>  <role_mapnums>  (2) 
{"r2h_a": 4, "r2h_h": 1}

>  <role_mapidx>  (2) 
{"r2h_a": 3, "r2h_h": 0}

>  <ordered_mapped_smiles>  (2) 
[H:1][C:4]([C:3]([C:2]([H:8])([H:9])[H:10])([H:11])[H:12])([O:5][C:6]([C:7]([H:16])([H:17])[H:18])([H:14])[H:15])[H:13]

>  <mol_properties>  (2) 
{"0": {"label": "a_hydrogen", "atom_type": "H0"}, "3": {"label": "acceptor", "atom_type": "Cs"}}

>  <level_of_theory>  (2) 
wb97xd/def2tzvp

>  <lot_method>  (2) 
wb97xd

>  <lot_basis>  (2) 
def2tzvp

>  <spin_multiplicity>  (2) 
1.0

>  <optical_isomers>  (2) 
2.0

>  <modes>  (2) 
IdealGasTranslation(mass=(88.0888, 'amu')),         NonlinearRotor(             inertia = ([59.5652, 317.445, 349.634

>  <frequency_value>  (2) 
unknown

>  <frequency_units>  (2) 
unknown

>  <frequency_list>  (2) 
unknown

>  <arkane_path>  (2) 
/home/calvin/Dropbox/PersonalFolders/Calvin/ATLAS_Converged/rmg_rxn_2504/output/Species/rmg_rxn_2504_p2_CCCOCC/arkane/output.py

>  <path_exists>  (2) 
True

>  <E0_value>  (2) 
-716327.3605702724

>  <E0_units>  (2) 
kJ/mol

>  <thermo_class>  (2) 
NASA

>  <Cp0_value>  (2) 
33.257888

>  <Cp0_units>  (2) 
J/(mol*K)

>  <CpInf_value>  (2) 
432.352544

>  <CpInf_units>  (2) 
J/(mol*K)

>  <Tmin_value>  (2) 
10.0

>  <Tmin_units>  (2) 
K

>  <Tmax_value>  (2) 
3000.0

>  <Tmax_units>  (2) 
K

>  <polynomials>  (2) 
[{"name": "polynomial1", "class": "NASAPolynomial", "Tmin_value": 10.0, "Tmin_units": "K", "Tmax_value": 424.1487709891037, "Tmax_units": "K", "coeffs": [3.4707084786491995, 0.057464738152213826, -0.0001671925787330027, 4.780304010182817e-07, -4.334566574510194e-10, -86154279.58986011, 11.635446080981957]}, {"name": "polynomial2", "class": "NASAPolynomial", "Tmin_value": 424.1487709891037, "Tmin_units": "K", "Tmax_value": 3000.0, "Tmax_units": "K", "coeffs": [-2.85358363623064, 0.06921013261769612, -3.934327298207484e-05, 1.0841904253679292e-08, -1.1634202823264001e-12, -86153312.26467238, 41.801181201036826]}]

>  <H298_value>  (2) 
-171200.68153252028

>  <H298_units>  (2) 
kcal/mol

>  <S298_value>  (2) 
88.37391129649659

>  <S298_units>  (2) 
cal/(mol*K)

>  <Cp_T_value_list>  (2) 
[29.92458704371342, 38.160816039195176, 46.09959137748405, 53.05839312924818, 64.40406262503477, 72.91410394537954, 85.72980292862587, 92.03567898252707, 95.21197963767214]

>  <Cp_T_units>  (2) 
cal/(mol*K)

>  <T_list>  (2) 
[300.0, 400.0, 500.0, 600.0, 800.0, 1000.0, 1500.0, 2000.0, 2400.0]

>  <T_units>  (2) 
K

>  <yaml_path>  (2) 
/home/calvin/Dropbox/PersonalFolders/Calvin/ATLAS_Converged/rmg_rxn_2504/output/Species/rmg_rxn_2504_p2_CCCOCC/rmg_rxn_2504_p2_CCCOCC.yml

>  <frequencies_cm1>  (2) 
[76.60808822992, 85.88538539723999, 152.39900520676, 171.44115549912, 250.05440344247998, 256.05614861216003, 329.51915756551995, 440.0707542322, 493.7774464199199, 767.98990421816, 823.02879155796, 891.3896304185598, 900.4815189822399, 929.41899512072, 1002.9850088538799, 1082.01027591644, 1102.9065122452, 1152.52734816752, 1174.9617892079598, 1182.44680320676, 1190.2339645596398, 1270.1176047871998, 1295.23017010244, 1305.6473868328799, 1368.30176089256, 1380.4425909383199, 1399.7456866728398, 1405.4521514737598, 1443.92787022172, 1468.7794900948002, 1470.37949767436, 1482.5752636026798, 1487.2448136202797, 1494.6336898246, 1500.58049911172, 1519.49904366832, 2928.8997117010795, 2942.5512785172396, 2962.4655359452395, 2968.54281795344, 3015.14904732028, 3021.7276192568397, 3024.0692612509597, 3058.7338031463196, 3085.2403664815197, 3101.79666808804, 3104.27564978856, 3105.2988306012394]

>  <ZPE_kJmol>  (2) 
431.0595009511065

>  <E_elec_kJmol>  (2) 
-716758.4200712235

>  <E0_minus_Eelec_plus_ZPE_kJmol>  (2) 
0.0

>  <rxn>  (2) 
rmg_rxn_2504

>  <species_type>  (2) 
p1

>  <species_folder>  (2) 
rmg_rxn_2504_p2_CCCOCC

>  <frequencies_cm1_list>  (2) 
[76.60808822992, 85.88538539723999, 152.39900520676, 171.44115549912, 250.05440344247998, 256.05614861216003, 329.51915756551995, 440.0707542322, 493.7774464199199, 767.98990421816, 823.02879155796, 891.3896304185598, 900.4815189822399, 929.41899512072, 1002.9850088538799, 1082.01027591644, 1102.9065122452, 1152.52734816752, 1174.9617892079598, 1182.44680320676, 1190.2339645596398, 1270.1176047871998, 1295.23017010244, 1305.6473868328799, 1368.30176089256, 1380.4425909383199, 1399.7456866728398, 1405.4521514737598, 1443.92787022172, 1468.7794900948002, 1470.37949767436, 1482.5752636026798, 1487.2448136202797, 1494.6336898246, 1500.58049911172, 1519.49904366832, 2928.8997117010795, 2942.5512785172396, 2962.4655359452395, 2968.54281795344, 3015.14904732028, 3021.7276192568397, 3024.0692612509597, 3058.7338031463196, 3085.2403664815197, 3101.79666808804, 3104.27564978856, 3105.2988306012394]

>  <E0_kJmol>  (2) 
-716327

>  <H298_kJmol>  (2) 
-716304

$$$$

     RDKit          3D

 30 28  0  0  0  0  0  0  0  0999 V2000
   -0.0764   -1.2228    0.6583 N   0  0  0  0  0  0  0  0  0  1  0  0
   -0.8643   -0.4621   -0.0454 N   0  0  0  0  0  0  0  0  0  2  0  0
   -2.0320   -0.7595   -0.5556 C   0  0  0  0  0  0  0  0  0  3  0  0
   -2.6172   -2.1114   -0.3609 C   0  0  0  0  0  0  0  0  0  4  0  0
   -1.9292   -3.1977   -1.1959 C   0  0  0  0  0  0  0  0  0  5  0  0
    0.8722   -0.4312    0.9311 H   0  0  0  0  0  0  0  0  0  6  0  0
   -0.5196    0.4900   -0.2242 H   0  0  0  0  0  0  0  0  0  7  0  0
   -2.5116    0.0255   -1.1200 H   0  0  0  0  0  0  0  0  0  8  0  0
   -3.6811   -2.0740   -0.6004 H   0  0  0  0  0  0  0  0  0  9  0  0
   -2.5272   -2.3768    0.6990 H   0  0  0  0  0  0  0  0  0 10  0  0
   -0.8664   -3.2414   -0.9559 H   0  0  0  0  0  0  0  0  0 11  0  0
   -2.0362   -2.9953   -2.2631 H   0  0  0  0  0  0  0  0  0 12  0  0
   -2.3658   -4.1762   -0.9888 H   0  0  0  0  0  0  0  0  0 13  0  0
   -0.1066    1.8324    2.3917 C   0  0  0  0  0  0  0  0  0 14  0  0
    1.3550    1.4312    2.2242 C   0  0  0  0  0  0  0  0  0 15  0  0
    1.6398    0.6717    0.9577 C   0  0  0  0  0  3  0  0  0 16  0  0
    1.2836    1.4009   -0.1754 O   0  0  0  0  0  0  0  0  0 17  0  0
    1.8394    0.8970   -1.3814 C   0  0  0  0  0  0  0  0  0 18  0  0
    1.2384    1.6480   -2.5448 C   0  0  0  0  0  0  0  0  0 19  0  0
   -0.7479    0.9501    2.4248 H   0  0  0  0  0  0  0  0  0 20  0  0
   -0.2492    2.3900    3.3180 H   0  0  0  0  0  0  0  0  0 21  0  0
   -0.4353    2.4680    1.5677 H   0  0  0  0  0  0  0  0  0 22  0  0
    1.9899    2.3246    2.2537 H   0  0  0  0  0  0  0  0  0 23  0  0
    1.6634    0.7979    3.0595 H   0  0  0  0  0  0  0  0  0 24  0  0
    2.6615    0.2848    0.8889 H   0  0  0  0  0  0  0  0  0 25  0  0
    2.9276    1.0255   -1.3510 H   0  0  0  0  0  0  0  0  0 26  0  0
    1.6302   -0.1765   -1.4563 H   0  0  0  0  0  0  0  0  0 27  0  0
    1.4269    2.7180   -2.4529 H   0  0  0  0  0  0  0  0  0 28  0  0
    1.6756    1.2972   -3.4804 H   0  0  0  0  0  0  0  0  0 29  0  0
    0.1598    1.4886   -2.5941 H   0  0  0  0  0  0  0  0  0 30  0  0
  1  2  1  0
  1  6  1  0
  2  7  1  0
  2  3  1  0
  3  4  1  0
  3  8  1  0
  4 10  1  0
  4  9  1  0
  4  5  1  0
  5 12  1  0
  5 11  1  0
  5 13  1  0
 14 15  1  0
 14 20  1  0
 14 22  1  0
 14 21  1  0
 15 23  1  0
 15 16  1  0
 15 24  1  0
 16 17  1  0
 16 25  1  0
 17 18  1  0
 18 19  1  0
 18 27  1  0
 18 26  1  0
 19 28  1  0
 19 29  1  0
 19 30  1  0
M  RAD  1  16   2
M  END
>  <rmg_smiles>  (3) 
CCO[CH]CC.CC[CH]N[NH]

>  <rmg_adjacency_list>  (3) 
multiplicity 2
1  O u0 p2 c0 {6,S} {11,S}
2  N u0 p1 c0 {3,S} {10,S} {29,S}
3  N u0 p1 c0 {2,S} {30,S}
4  C u0 p0 c0 {7,S} {10,S} {12,S} {13,S}
5  C u0 p0 c0 {8,S} {11,S} {14,S} {15,S}
6  C u0 p0 c0 {1,S} {9,S} {16,S} {17,S}
7  C u0 p0 c0 {4,S} {18,S} {19,S} {20,S}
8  C u0 p0 c0 {5,S} {21,S} {22,S} {23,S}
9  C u0 p0 c0 {6,S} {24,S} {25,S} {26,S}
10 C u0 p0 c0 {2,S} {4,S} {27,S}
11 C u1 p0 c0 {1,S} {5,S} {28,S}
12 H u0 p0 c0 {4,S}
13 H u0 p0 c0 {4,S}
14 H u0 p0 c0 {5,S}
15 H u0 p0 c0 {5,S}
16 H u0 p0 c0 {6,S}
17 H u0 p0 c0 {6,S}
18 H u0 p0 c0 {7,S}
19 H u0 p0 c0 {7,S}
20 H u0 p0 c0 {7,S}
21 H u0 p0 c0 {8,S}
22 H u0 p0 c0 {8,S}
23 H u0 p0 c0 {8,S}
24 H u0 p0 c0 {9,S}
25 H u0 p0 c0 {9,S}
26 H u0 p0 c0 {9,S}
27 H u0 p0 c0 {10,S}
28 H u0 p0 c0 {11,S}
29 H u0 p0 c0 {2,S}
30 H u0 p0 c0 {3,S}


>  <multiplicity>  (3) 
2

>  <reaction>  (3) 
rmg_rxn_2504

>  <type>  (3) 
ts

>  <role_mapnums>  (3) 
{"*2": 6, "*1": 1, "*3": 16, "*0": 2, "*4": 17}

>  <role_mapidx>  (3) 
{"*2": 5, "*1": 0, "*3": 15, "*0": 1, "*4": 16}

>  <ordered_mapped_smiles>  (3) 
[NH:1]([N:2]([CH:3]([C:4]([C:5]([H:11])([H:12])[H:13])([H:9])[H:10])[H:8])[H:7])[H:6].[C:14]([C:15]([C:16]([O:17][C:18]([C:19]([H:28])([H:29])[H:30])([H:26])[H:27])[H:25])([H:23])[H:24])([H:20])([H:21])[H:22]

>  <mol_properties>  (3) 
{"0": {"label": "*1", "atom_type": "N3s"}, "1": {"label": "*0", "atom_type": "N3s"}, "5": {"label": "*2", "atom_type": "H0"}, "15": {"label": "*3", "atom_type": "Cs"}, "16": {"label": "*4", "atom_type": "O2s"}}

>  <level_of_theory>  (3) 
wb97xd/def2tzvp

>  <lot_method>  (3) 
wb97xd

>  <lot_basis>  (3) 
def2tzvp

>  <spin_multiplicity>  (3) 
2.0

>  <optical_isomers>  (3) 
2.0

>  <modes>  (3) 
IdealGasTranslation(mass=(159.15, 'amu')),         NonlinearRotor(             inertia = ([413.943, 841.625, 1081.07

>  <frequency_value>  (3) 
-1826.23

>  <frequency_units>  (3) 
cm^-1

>  <frequency_list>  (3) 
unknown

>  <arkane_path>  (3) 
/home/calvin/Dropbox/PersonalFolders/Calvin/ATLAS_Converged/rmg_rxn_2504/output/rxns/TS0/arkane/output.py

>  <path_exists>  (3) 
True

>  <E0_value>  (3) 
-1314420.0

>  <E0_units>  (3) 
kJ/mol

>  <thermo_class>  (3) 
unknown

>  <Cp0_value>  (3) 
unknown

>  <Cp0_units>  (3) 
unknown

>  <CpInf_value>  (3) 
unknown

>  <CpInf_units>  (3) 
unknown

>  <Tmin_value>  (3) 
unknown

>  <Tmin_units>  (3) 
unknown

>  <Tmax_value>  (3) 
unknown

>  <Tmax_units>  (3) 
unknown

>  <polynomials>  (3) 
unknown

>  <H298_value>  (3) 
unknown

>  <H298_units>  (3) 
unknown

>  <S298_value>  (3) 
unknown

>  <S298_units>  (3) 
unknown

>  <Cp_T_value_list>  (3) 
unknown

>  <Cp_T_units>  (3) 
unknown

>  <T_list>  (3) 
unknown

>  <T_units>  (3) 
unknown

>  <yaml_path>  (3) 
unknown

>  <frequencies_cm1>  (3) 
unknown

>  <ZPE_kJmol>  (3) 
unknown

>  <E_elec_kJmol>  (3) 
unknown

>  <E0_minus_Eelec_plus_ZPE_kJmol>  (3) 
unknown

>  <rxn>  (3) 
unknown

>  <species_type>  (3) 
unknown

>  <species_folder>  (3) 
unknown

>  <frequencies_cm1_list>  (3) 
[]

>  <ts_imag_freq_cm1>  (3) 
-1848.4155

>  <ts_freq_out_path>  (3) 
/home/calvin/Dropbox/PersonalFolders/Calvin/ATLAS_Converged/rmg_rxn_2504/output/rxns/TS0/geometry/freq.out

>  <E0_kJmol>  (3) 
-1.31442e+06

>  <H298_kJmol>  (3) 
unknown

$$$$

     RDKit          3D

 12 11  0  0  0  0  0  0  0  0999 V2000
    1.5035    1.1817    1.1766 N   0  0  0  0  0  2  0  0  0  1  0  0
    1.5580   -0.0511    0.8125 N   0  0  0  0  0  0  0  0  0  2  0  0
    0.8483   -0.7137   -0.0804 C   0  0  0  0  0  0  0  0  0  3  0  0
   -0.2212   -0.0125   -0.8376 C   0  0  0  0  0  0  0  0  0  4  0  0
   -1.4527    0.3302    0.0094 C   0  0  0  0  0  0  0  0  0  5  0  0
    2.2746   -0.5859    1.3051 H   0  0  0  0  0  0  0  0  0  6  0  0
    1.0804   -1.7613   -0.1832 H   0  0  0  0  0  0  0  0  0  7  0  0
    0.1929    0.9174   -1.2475 H   0  0  0  0  0  0  0  0  0  8  0  0
   -0.5138   -0.6336   -1.6852 H   0  0  0  0  0  0  0  0  0  9  0  0
   -1.1741    0.9508    0.8624 H   0  0  0  0  0  0  0  0  0 10  0  0
   -2.1844    0.8814   -0.5832 H   0  0  0  0  0  0  0  0  0 11  0  0
   -1.9295   -0.5758    0.3866 H   0  0  0  0  0  0  0  0  0 12  0  0
  1  2  1  0
  2  6  1  0
  2  3  1  0
  3  4  1  0
  3  7  1  0
  4  8  1  0
  4  5  1  0
  4  9  1  0
  5 11  1  0
  5 12  1  0
  5 10  1  0
M  RAD  1   1   2
M  END
>  <rmg_smiles>  (4) 
CC[CH]N[N]

>  <rmg_adjacency_list>  (4) 
multiplicity 2
1  N u0 p1 c0 {2,S} {5,S} {12,S}
2  N u1 p2 c0 {1,S}
3  C u0 p0 c0 {4,S} {5,S} {6,S} {7,S}
4  C u0 p0 c0 {3,S} {8,S} {9,S} {10,S}
5  C u0 p0 c0 {1,S} {3,S} {11,S}
6  H u0 p0 c0 {3,S}
7  H u0 p0 c0 {3,S}
8  H u0 p0 c0 {4,S}
9  H u0 p0 c0 {4,S}
10 H u0 p0 c0 {4,S}
11 H u0 p0 c0 {5,S}
12 H u0 p0 c0 {1,S}


>  <multiplicity>  (4) 
2

>  <reaction>  (4) 
rmg_rxn_2504

>  <type>  (4) 
r1

>  <role_mapnums>  (4) 
{}

>  <role_mapidx>  (4) 
{}

>  <ordered_mapped_smiles>  (4) 
[NH:1][N:2]([CH:3]([C:4]([C:5]([H:10])([H:11])[H:12])([H:8])[H:9])[H:7])[H:6]

>  <level_of_theory>  (4) 
wb97xd/def2tzvp

>  <lot_method>  (4) 
wb97xd

>  <lot_basis>  (4) 
def2tzvp

>  <spin_multiplicity>  (4) 
2.0

>  <optical_isomers>  (4) 
2.0

>  <modes>  (4) 
IdealGasTranslation(mass=(71.0609, 'amu')),         NonlinearRotor(             inertia = ([53.0503, 135.065, 165.702

>  <frequency_value>  (4) 
unknown

>  <frequency_units>  (4) 
unknown

>  <frequency_list>  (4) 
unknown

>  <arkane_path>  (4) 
/home/calvin/Dropbox/PersonalFolders/Calvin/ATLAS_Converged/rmg_rxn_2504/output/Species/rmg_rxn_2504_p1_sbr-N--sbrsbr-NHp-sbr=CCC/arkane/output.py

>  <path_exists>  (4) 
True

>  <E0_value>  (4) 
-598127.5170669089

>  <E0_units>  (4) 
kJ/mol

>  <thermo_class>  (4) 
NASA

>  <Cp0_value>  (4) 
33.257888

>  <Cp0_units>  (4) 
J/(mol*K)

>  <CpInf_value>  (4) 
282.692048

>  <CpInf_units>  (4) 
J/(mol*K)

>  <Tmin_value>  (4) 
10.0

>  <Tmin_units>  (4) 
K

>  <Tmax_value>  (4) 
3000.0

>  <Tmax_units>  (4) 
K

>  <polynomials>  (4) 
[{"name": "polynomial1", "class": "NASAPolynomial", "Tmin_value": 10.0, "Tmin_units": "K", "Tmax_value": 739.4895250296513, "Tmax_units": "K", "coeffs": [3.821239069491589, 0.016802024456063384, 4.763173208537436e-05, -7.712038008353281e-08, 3.416814986021657e-11, -71938122.51556718, 10.943751803951708]}, {"name": "polynomial2", "class": "NASAPolynomial", "Tmin_value": 739.4895250296513, "Tmin_units": "K", "Tmax_value": 3000.0, "Tmax_units": "K", "coeffs": [1.2981452469412513, 0.041135822504546816, -2.3403425161581037e-05, 6.460698893370968e-09, -6.945292760518023e-13, -71938041.535481, 20.37921013610036]}]

>  <H298_value>  (4) 
-142951.59456715654

>  <H298_units>  (4) 
kcal/mol

>  <S298_value>  (4) 
77.94365445150869

>  <S298_units>  (4) 
cal/(mol*K)

>  <Cp_T_value_list>  (4) 
[22.541308693165234, 28.023837054010304, 33.03859216093623, 37.39936032089474, 44.21933851224046, 49.276187700535466, 56.899637430660036, 60.66784923081606, 62.57768380715403]

>  <Cp_T_units>  (4) 
cal/(mol*K)

>  <T_list>  (4) 
[300.0, 400.0, 500.0, 600.0, 800.0, 1000.0, 1500.0, 2000.0, 2400.0]

>  <T_units>  (4) 
K

>  <yaml_path>  (4) 
/home/calvin/Dropbox/PersonalFolders/Calvin/ATLAS_Converged/rmg_rxn_2504/output/Species/rmg_rxn_2504_p1_sbr-N--sbrsbr-NHp-sbr=CCC/rmg_rxn_2504_p1_sbr-N--sbrsbr-NHp-sbr=CCC.yml

>  <frequencies_cm1>  (4) 
[108.841717322, 198.86102788187998, 256.05614861216003, 294.31212382987997, 511.21958913272005, 575.24049327108, 667.51904200124, 801.3153839761201, 827.2863224563599, 887.88060092004, 1013.14128014216, 1072.9046533821202, 1121.7838548898799, 1135.2019442051599, 1287.1133934542, 1337.173716437, 1345.67504426316, 1400.50792204336, 1452.9854238588, 1475.6464754148, 1488.28859538892, 1496.5701796848398, 1535.3961146841198, 2981.79609962104, 3018.47266821516, 3067.0977912660796, 3094.04384166176, 3099.5786318296796, 3217.4298338915196, 3404.9603359954]

>  <ZPE_kJmol>  (4) 
264.22106731273334

>  <E_elec_kJmol>  (4) 
-598391.7381342216

>  <E0_minus_Eelec_plus_ZPE_kJmol>  (4) 
0.0

>  <rxn>  (4) 
rmg_rxn_2504

>  <species_type>  (4) 
p0

>  <species_folder>  (4) 
rmg_rxn_2504_p1_sbr-N--sbrsbr-NHp-sbr=CCC

>  <frequencies_cm1_list>  (4) 
[108.841717322, 198.86102788187998, 256.05614861216003, 294.31212382987997, 511.21958913272005, 575.24049327108, 667.51904200124, 801.3153839761201, 827.2863224563599, 887.88060092004, 1013.14128014216, 1072.9046533821202, 1121.7838548898799, 1135.2019442051599, 1287.1133934542, 1337.173716437, 1345.67504426316, 1400.50792204336, 1452.9854238588, 1475.6464754148, 1488.28859538892, 1496.5701796848398, 1535.3961146841198, 2981.79609962104, 3018.47266821516, 3067.0977912660796, 3094.04384166176, 3099.5786318296796, 3217.4298338915196, 3404.9603359954]

>  <E0_kJmol>  (4) 
-598128

>  <H298_kJmol>  (4) 
-598109

$$$$

     RDKit          3D

 17 16  0  0  0  0  0  0  0  0999 V2000
   -2.5196    0.7765    0.6863 C   0  0  0  0  0  0  0  0  0  1  0  0
   -1.7832    0.2264   -0.5439 C   0  0  0  0  0  0  0  0  0  2  0  0
   -0.5364   -0.5090   -0.2164 C   0  0  0  0  0  3  0  0  0  3  0  0
   -0.7195   -1.6896    0.4220 O   0  0  0  0  0  0  0  0  0  4  0  0
    0.4618   -2.3470    0.8423 C   0  0  0  0  0  0  0  0  0  5  0  0
    0.0797   -3.6206    1.5573 C   0  0  0  0  0  0  0  0  0  6  0  0
   -1.8902    1.4809    1.2340 H   0  0  0  0  0  0  0  0  0  7  0  0
   -3.4347    1.2951    0.3937 H   0  0  0  0  0  0  0  0  0  8  0  0
   -2.7882   -0.0345    1.3642 H   0  0  0  0  0  0  0  0  0  9  0  0
   -2.4551   -0.4399   -1.0937 H   0  0  0  0  0  0  0  0  0 10  0  0
   -1.5294    1.0480   -1.2176 H   0  0  0  0  0  0  0  0  0 11  0  0
    0.3864    0.0229    0.0104 H   0  0  0  0  0  0  0  0  0 12  0  0
    1.0871   -2.5604   -0.0319 H   0  0  0  0  0  0  0  0  0 13  0  0
    1.0283   -1.6824    1.5065 H   0  0  0  0  0  0  0  0  0 14  0  0
   -0.4799   -4.2803    0.8934 H   0  0  0  0  0  0  0  0  0 15  0  0
    0.9764   -4.1449    1.8908 H   0  0  0  0  0  0  0  0  0 16  0  0
   -0.5383   -3.4025    2.4289 H   0  0  0  0  0  0  0  0  0 17  0  0
  1  8  1  0
  1  7  1  0
  1  9  1  0
  1  2  1  0
  2 10  1  0
  2 11  1  0
  2  3  1  0
  3  4  1  0
  3 12  1  0
  4  5  1  0
  5 13  1  0
  5 14  1  0
  5  6  1  0
  6 17  1  0
  6 15  1  0
  6 16  1  0
M  RAD  1   3   2
M  END
>  <rmg_smiles>  (5) 
CC[CH]OCC

>  <rmg_adjacency_list>  (5) 
multiplicity 2
1  O u0 p2 c0 {3,S} {6,S}
2  C u0 p0 c0 {4,S} {6,S} {7,S} {8,S}
3  C u0 p0 c0 {1,S} {5,S} {9,S} {10,S}
4  C u0 p0 c0 {2,S} {11,S} {12,S} {13,S}
5  C u0 p0 c0 {3,S} {14,S} {15,S} {16,S}
6  C u1 p0 c0 {1,S} {2,S} {17,S}
7  H u0 p0 c0 {2,S}
8  H u0 p0 c0 {2,S}
9  H u0 p0 c0 {3,S}
10 H u0 p0 c0 {3,S}
11 H u0 p0 c0 {4,S}
12 H u0 p0 c0 {4,S}
13 H u0 p0 c0 {4,S}
14 H u0 p0 c0 {5,S}
15 H u0 p0 c0 {5,S}
16 H u0 p0 c0 {5,S}
17 H u0 p0 c0 {6,S}


>  <multiplicity>  (5) 
2

>  <reaction>  (5) 
rmg_rxn_2504

>  <type>  (5) 
r2

>  <role_mapnums>  (5) 
{}

>  <role_mapidx>  (5) 
{}

>  <ordered_mapped_smiles>  (5) 
[C:1]([C:2]([C:3]([O:4][C:5]([C:6]([H:15])([H:16])[H:17])([H:13])[H:14])[H:12])([H:10])[H:11])([H:7])([H:8])[H:9]

>  <level_of_theory>  (5) 
wb97xd/def2tzvp

>  <lot_method>  (5) 
wb97xd

>  <lot_basis>  (5) 
def2tzvp

>  <spin_multiplicity>  (5) 
2.0

>  <optical_isomers>  (5) 
2.0

>  <modes>  (5) 
IdealGasTranslation(mass=(87.081, 'amu')),         NonlinearRotor(             inertia = ([54.0033, 326.681, 352.519

>  <frequency_value>  (5) 
unknown

>  <frequency_units>  (5) 
unknown

>  <frequency_list>  (5) 
unknown

>  <arkane_path>  (5) 
/home/calvin/Dropbox/PersonalFolders/Calvin/ATLAS_Converged/rmg_rxn_2504/output/Species/rmg_rxn_2504_r2_CCsbr-CH-sbrOCC/arkane/output.py

>  <path_exists>  (5) 
True

>  <E0_value>  (5) 
-714624.8903617096

>  <E0_units>  (5) 
kJ/mol

>  <thermo_class>  (5) 
NASA

>  <Cp0_value>  (5) 
33.257888

>  <Cp0_units>  (5) 
J/(mol*K)

>  <CpInf_value>  (5) 
407.409128

>  <CpInf_units>  (5) 
J/(mol*K)

>  <Tmin_value>  (5) 
10.0

>  <Tmin_units>  (5) 
K

>  <Tmax_value>  (5) 
3000.0

>  <Tmax_units>  (5) 
K

>  <polynomials>  (5) 
[{"name": "polynomial1", "class": "NASAPolynomial", "Tmin_value": 10.0, "Tmin_units": "K", "Tmax_value": 423.9450105165479, "Tmax_units": "K", "coeffs": [3.436479720932025, 0.059794617793838926, -0.0001609236017151507, 4.2283646839595666e-07, -3.724775610982622e-10, -85949519.65284508, 12.643159933436046]}, {"name": "polynomial2", "class": "NASAPolynomial", "Tmin_value": 423.9450105165479, "Tmin_units": "K", "Tmax_value": 3000.0, "Tmax_units": "K", "coeffs": [-1.1117445110649813, 0.06368296261081857, -3.660328613407335e-05, 1.020692796919455e-08, -1.1077392943430387e-12, -85948783.31654571, 34.81876031020617]}]

>  <H298_value>  (5) 
-170793.64533920397

>  <H298_units>  (5) 
kcal/mol

>  <S298_value>  (5) 
91.19319033321688

>  <S298_units>  (5) 
cal/(mol*K)

>  <Cp_T_value_list>  (5) 
[30.386885927297985, 38.020544300203966, 45.27958822134647, 51.63156647115753, 61.96256835238167, 69.6856101066738, 81.26831481163491, 86.98525732104876, 89.9029681757296]

>  <Cp_T_units>  (5) 
cal/(mol*K)

>  <T_list>  (5) 
[300.0, 400.0, 500.0, 600.0, 800.0, 1000.0, 1500.0, 2000.0, 2400.0]

>  <T_units>  (5) 
K

>  <yaml_path>  (5) 
/home/calvin/Dropbox/PersonalFolders/Calvin/ATLAS_Converged/rmg_rxn_2504/output/Species/rmg_rxn_2504_r2_CCsbr-CH-sbrOCC/rmg_rxn_2504_r2_CCsbr-CH-sbrOCC.yml

>  <frequencies_cm1>  (5) 
[54.48952851419999, 82.85704487112, 127.80146379052002, 170.38363975983998, 246.99859497507998, 250.43895462039995, 310.97143021619996, 438.9033667278, 491.6418139854, 605.5238985322799, 772.5633164412799, 819.403023309, 898.5106941954, 905.0823991466399, 1001.87255723204, 1052.16635771572, 1097.2069144296, 1121.5503773889998, 1171.49396162136, 1174.68024280984, 1255.65573370328, 1288.36318478244, 1294.21385627508, 1330.6706813389599, 1376.8580246012798, 1387.8520680986, 1405.8641705929597, 1448.5974202393202, 1460.0240838118, 1470.9013885586799, 1481.4353440395598, 1487.3203504587998, 1491.1589952526797, 1509.26723554152, 2975.12825687532, 3009.95073943304, 3012.71126753168, 3014.66835834788, 3025.43579132964, 3056.8385151979996, 3084.32019044864, 3088.30304193424, 3099.2284155783595, 3103.8086947867996, 3106.4799520762795]

>  <ZPE_kJmol>  (5) 
395.1242394016867

>  <E_elec_kJmol>  (5) 
-715020.0146011113

>  <E0_minus_Eelec_plus_ZPE_kJmol>  (5) 
0.0

>  <rxn>  (5) 
rmg_rxn_2504

>  <species_type>  (5) 
r1

>  <species_folder>  (5) 
rmg_rxn_2504_r2_CCsbr-CH-sbrOCC

>  <frequencies_cm1_list>  (5) 
[54.48952851419999, 82.85704487112, 127.80146379052002, 170.38363975983998, 246.99859497507998, 250.43895462039995, 310.97143021619996, 438.9033667278, 491.6418139854, 605.5238985322799, 772.5633164412799, 819.403023309, 898.5106941954, 905.0823991466399, 1001.87255723204, 1052.16635771572, 1097.2069144296, 1121.5503773889998, 1171.49396162136, 1174.68024280984, 1255.65573370328, 1288.36318478244, 1294.21385627508, 1330.6706813389599, 1376.8580246012798, 1387.8520680986, 1405.8641705929597, 1448.5974202393202, 1460.0240838118, 1470.9013885586799, 1481.4353440395598, 1487.3203504587998, 1491.1589952526797, 1509.26723554152, 2975.12825687532, 3009.95073943304, 3012.71126753168, 3014.66835834788, 3025.43579132964, 3056.8385151979996, 3084.32019044864, 3088.30304193424, 3099.2284155783595, 3103.8086947867996, 3106.4799520762795]

>  <E0_kJmol>  (5) 
-714625

>  <H298_kJmol>  (5) 
-714601

$$$$
