
     RDKit          3D

  9  9  0  0  0  0  0  0  0  0999 V2000
   -0.5659   -1.2975    0.6481 C   0  0  0  0  0  0  0  0  0  1  0  0
   -0.4295    0.1411    0.2501 C   0  0  0  0  0  0  0  0  0  2  0  0
    0.8286    0.8059    0.1653 N   0  0  0  0  0  0  0  0  0  3  0  0
    0.1057    0.4302   -1.0114 O   0  0  0  0  0  0  0  0  0  4  0  0
   -0.6077   -1.3797    1.7363 H   0  0  0  0  0  0  0  0  0  5  0  0
   -1.4955   -1.7038    0.2458 H   0  0  0  0  0  0  0  0  0  6  0  0
    0.2727   -1.8833    0.2757 H   0  0  0  0  0  0  0  0  0  7  0  0
   -1.2581    0.7877    0.5391 H   0  0  0  0  0  0  0  0  0  8  0  0
    1.5779    0.0892    0.2454 H   0  0  0  0  0  0  0  0  0  9  0  0
  1  5  1  0
  1  7  1  0
  1  6  1  0
  1  2  1  0
  2  4  1  0
  2  3  1  0
  2  8  1  0
  3  9  1  0
  3  4  1  0
M  END
>  <rmg_smiles>  (1) 
CC1NO1

>  <rmg_adjacency_list>  (1) 
1 O u0 p2 c0 {2,S} {3,S}
2 N u0 p1 c0 {1,S} {3,S} {9,S}
3 C u0 p0 c0 {1,S} {2,S} {4,S} {5,S}
4 C u0 p0 c0 {3,S} {6,S} {7,S} {8,S}
5 H u0 p0 c0 {3,S}
6 H u0 p0 c0 {4,S}
7 H u0 p0 c0 {4,S}
8 H u0 p0 c0 {4,S}
9 H u0 p0 c0 {2,S}


>  <multiplicity>  (1) 
1

>  <reaction>  (1) 
rmg_rxn_10661

>  <type>  (1) 
r1h

>  <role_mapnums>  (1) 
{"r1h_a": 3, "r1h_h": 9}

>  <role_mapidx>  (1) 
{"r1h_a": 2, "r1h_h": 8}

>  <ordered_mapped_smiles>  (1) 
[C:1]([C:2]1([H:8])[N:3]([H:9])[O:4]1)([H:5])([H:6])[H:7]

>  <mol_properties>  (1) 
{"2": {"label": "donator", "atom_type": "N3s"}, "8": {"label": "d_hydrogen", "atom_type": "H0"}}

>  <level_of_theory>  (1) 
wb97xd/def2tzvp

>  <lot_method>  (1) 
wb97xd

>  <lot_basis>  (1) 
def2tzvp

>  <spin_multiplicity>  (1) 
1.0

>  <optical_isomers>  (1) 
2.0

>  <modes>  (1) 
IdealGasTranslation(mass=(59.0371, 'amu')),         NonlinearRotor(             inertia = ([26.7838, 71.4813, 82.1467

>  <frequency_value>  (1) 
unknown

>  <frequency_units>  (1) 
unknown

>  <frequency_list>  (1) 
unknown

>  <arkane_path>  (1) 
/home/calvin/Dropbox/PersonalFolders/Calvin/ZEUS_Converged/rmg_rxn_10661/output/Species/rmg_rxn_10661_r1_CC1NO1/arkane/output.py

>  <path_exists>  (1) 
True

>  <E0_value>  (1) 
-548864.5742260589

>  <E0_units>  (1) 
kJ/mol

>  <thermo_class>  (1) 
NASA

>  <Cp0_value>  (1) 
33.257888

>  <Cp0_units>  (1) 
J/(mol*K)

>  <CpInf_value>  (1) 
207.8618

>  <CpInf_units>  (1) 
J/(mol*K)

>  <Tmin_value>  (1) 
10.0

>  <Tmin_units>  (1) 
K

>  <Tmax_value>  (1) 
3000.0

>  <Tmax_units>  (1) 
K

>  <polynomials>  (1) 
[{"name": "polynomial1", "class": "NASAPolynomial", "Tmin_value": 10.0, "Tmin_units": "K", "Tmax_value": 579.1032023564536, "Tmax_units": "K", "coeffs": [4.0166088171788665, -0.0016044037342157643, 8.660571354843975e-05, -1.359185288654033e-07, 6.880557229770487e-11, -66013159.76365993, 8.912935475829386]}, {"name": "polynomial2", "class": "NASAPolynomial", "Tmin_value": 579.1032023564536, "Tmin_units": "K", "Tmax_value": 3000.0, "Tmax_units": "K", "coeffs": [-0.04858164856923329, 0.03293942863289486, -1.9614867068158536e-05, 5.639792606053445e-09, -6.271939988533442e-13, -66012797.329610676, 25.36849885792513]}]

>  <H298_value>  (1) 
-131178.49329622858

>  <H298_units>  (1) 
kcal/mol

>  <S298_value>  (1) 
67.76369119756436

>  <S298_units>  (1) 
cal/(mol*K)

>  <Cp_T_value_list>  (1) 
[16.3295251828302, 20.457095214615418, 24.196956649284317, 27.404838028515023, 32.55068390441077, 36.34318213487999, 41.902714845484894, 44.62082262956933, 46.063673487093155]

>  <Cp_T_units>  (1) 
cal/(mol*K)

>  <T_list>  (1) 
[300.0, 400.0, 500.0, 600.0, 800.0, 1000.0, 1500.0, 2000.0, 2400.0]

>  <T_units>  (1) 
K

>  <yaml_path>  (1) 
/home/calvin/Dropbox/PersonalFolders/Calvin/ZEUS_Converged/rmg_rxn_10661/output/Species/rmg_rxn_10661_r1_CC1NO1/rmg_rxn_10661_r1_CC1NO1.yml

>  <frequencies_cm1>  (1) 
[205.92715577616, 388.21814808088, 439.6999370249199, 779.72558213004, 878.1844176481999, 942.2121887718798, 1011.1979232965999, 1063.70289305332, 1176.10170877108, 1226.8555972712, 1303.6284931488, 1344.02010080104, 1392.4186133364, 1456.2472418858, 1469.23957811124, 1494.1942027641198, 3024.87956551872, 3064.99649375816, 3098.0678950592796, 3125.2405559705194, 3405.2281484228797]

>  <ZPE_kJmol>  (1) 
193.1370645967614

>  <E_elec_kJmol>  (1) 
-549057.7112906557

>  <E0_minus_Eelec_plus_ZPE_kJmol>  (1) 
0.0

>  <rxn>  (1) 
rmg_rxn_10661

>  <species_type>  (1) 
r0

>  <species_folder>  (1) 
rmg_rxn_10661_r1_CC1NO1

>  <frequencies_cm1_list>  (1) 
[205.92715577616, 388.21814808088, 439.6999370249199, 779.72558213004, 878.1844176481999, 942.2121887718798, 1011.1979232965999, 1063.70289305332, 1176.10170877108, 1226.8555972712, 1303.6284931488, 1344.02010080104, 1392.4186133364, 1456.2472418858, 1469.23957811124, 1494.1942027641198, 3024.87956551872, 3064.99649375816, 3098.0678950592796, 3125.2405559705194, 3405.2281484228797]

>  <E0_kJmol>  (1) 
-548865

>  <H298_kJmol>  (1) 
-548851

$$$$

     RDKit          3D

 17 16  0  0  0  0  0  0  0  0999 V2000
   -2.9345   -0.0998    0.3947 H   0  0  0  0  0  0  0  0  0  1  0  0
    3.1283   -0.1082    0.3175 C   0  0  0  0  0  0  0  0  0  2  0  0
    1.6448   -0.2111    0.1492 C   0  0  0  0  0  0  0  0  0  3  0  0
    0.8163    0.7556    0.5145 C   0  0  0  0  0  0  0  0  0  4  0  0
   -0.5432    0.7921    0.4166 O   0  0  0  0  0  0  0  0  0  5  0  0
   -1.0989   -0.3767   -0.2091 N   0  0  0  0  0  0  0  0  0  6  0  0
   -2.1970   -0.7995    0.4388 N   0  0  0  0  0  0  0  0  0  7  0  0
   -1.3341   -0.0747   -1.6108 C   0  0  0  0  0  0  0  0  0  8  0  0
    3.5091   -0.9103    0.9548 H   0  0  0  0  0  0  0  0  0  9  0  0
    3.6425   -0.1919   -0.6433 H   0  0  0  0  0  0  0  0  0 10  0  0
    3.4154    0.8431    0.7687 H   0  0  0  0  0  0  0  0  0 11  0  0
    1.2427   -1.1209   -0.2794 H   0  0  0  0  0  0  0  0  0 12  0  0
    1.1579    1.6860    0.9543 H   0  0  0  0  0  0  0  0  0 13  0  0
   -1.9544   -0.8673    1.4246 H   0  0  0  0  0  0  0  0  0 14  0  0
   -2.0422    0.7502   -1.7253 H   0  0  0  0  0  0  0  0  0 15  0  0
   -1.7356   -0.9718   -2.0762 H   0  0  0  0  0  0  0  0  0 16  0  0
   -0.3818    0.1849   -2.0693 H   0  0  0  0  0  0  0  0  0 17  0  0
  1  7  1  0
  2 10  1  0
  2  9  1  0
  2 11  1  0
  2  3  1  0
  3  4  1  0
  3 12  1  0
  4 13  1  0
  4  5  1  0
  5  6  1  0
  6  8  1  0
  6  7  1  0
  7 14  1  0
  8 17  1  0
  8 16  1  0
  8 15  1  0
M  END
>  <rmg_smiles>  (2) 
C[CH][CH]ON(N)C

>  <rmg_adjacency_list>  (2) 
1  O u0 p2 c0 {2,S} {7,S}
2  N u0 p1 c0 {1,S} {3,S} {4,S}
3  N u0 p1 c0 {2,S} {16,S} {17,S}
4  C u0 p0 c0 {2,S} {11,S} {12,S} {13,S}
5  C u0 p0 c0 {6,S} {8,S} {9,S} {10,S}
6  C u0 p0 c0 {5,S} {7,S} {14,S}
7  C u0 p0 c0 {1,S} {6,S} {15,S}
8  H u0 p0 c0 {5,S}
9  H u0 p0 c0 {5,S}
10 H u0 p0 c0 {5,S}
11 H u0 p0 c0 {4,S}
12 H u0 p0 c0 {4,S}
13 H u0 p0 c0 {4,S}
14 H u0 p0 c0 {6,S}
15 H u0 p0 c0 {7,S}
16 H u0 p0 c0 {3,S}
17 H u0 p0 c0 {3,S}


>  <multiplicity>  (2) 
1

>  <reaction>  (2) 
rmg_rxn_10661

>  <type>  (2) 
r2h

>  <role_mapnums>  (2) 
{"r2h_a": 7, "r2h_h": 1}

>  <role_mapidx>  (2) 
{"r2h_a": 6, "r2h_h": 0}

>  <ordered_mapped_smiles>  (2) 
[H:1][N:7]([N:6]([O:5][CH:4]([CH:3]([C:2]([H:9])([H:10])[H:11])[H:12])[H:13])[C:8]([H:15])([H:16])[H:17])[H:14]

>  <mol_properties>  (2) 
{"0": {"label": "a_hydrogen", "atom_type": "H0"}, "6": {"label": "acceptor", "atom_type": "N3s"}}

>  <level_of_theory>  (2) 
wb97xd/def2tzvp

>  <lot_method>  (2) 
wb97xd

>  <lot_basis>  (2) 
def2tzvp

>  <spin_multiplicity>  (2) 
1.0

>  <optical_isomers>  (2) 
2.0

>  <modes>  (2) 
IdealGasTranslation(mass=(102.079, 'amu')),         NonlinearRotor(             inertia = ([85.6795, 376.18, 388.876

>  <frequency_value>  (2) 
unknown

>  <frequency_units>  (2) 
unknown

>  <frequency_list>  (2) 
unknown

>  <arkane_path>  (2) 
/home/calvin/Dropbox/PersonalFolders/Calvin/ZEUS_Converged/rmg_rxn_10661/output/Species/rmg_rxn_10661_p2_CC=CONrbr-N-rbrC/arkane/output.py

>  <path_exists>  (2) 
True

>  <E0_value>  (2) 
-900405.0494296006

>  <E0_units>  (2) 
kJ/mol

>  <thermo_class>  (2) 
NASA

>  <Cp0_value>  (2) 
33.257888

>  <Cp0_units>  (2) 
J/(mol*K)

>  <CpInf_value>  (2) 
407.409128

>  <CpInf_units>  (2) 
J/(mol*K)

>  <Tmin_value>  (2) 
10.0

>  <Tmin_units>  (2) 
K

>  <Tmax_value>  (2) 
3000.0

>  <Tmax_units>  (2) 
K

>  <polynomials>  (2) 
[{"name": "polynomial1", "class": "NASAPolynomial", "Tmin_value": 10.0, "Tmin_units": "K", "Tmax_value": 1108.736796573486, "Tmax_units": "K", "coeffs": [3.593482067657345, 0.04527343613148581, -7.853115807860651e-07, -2.043658609457127e-08, 8.18045447415304e-12, -108293714.18687978, 12.85162704751556]}, {"name": "polynomial2", "class": "NASAPolynomial", "Tmin_value": 1108.736796573486, "Tmin_units": "K", "Tmax_value": 3000.0, "Tmax_units": "K", "coeffs": [7.506038002578287, 0.046589931565087575, -2.3444009976697085e-05, 5.741145862751885e-09, -5.527118171710488e-13, -108295530.30298632, -10.705520626468415]}]

>  <H298_value>  (2) 
-215195.9362782153

>  <H298_units>  (2) 
kcal/mol

>  <S298_value>  (2) 
92.63660749241524

>  <S298_units>  (2) 
cal/(mol*K)

>  <Cp_T_value_list>  (2) 
[33.0259983327988, 40.69537554931736, 47.67423133324528, 53.89446290908325, 63.981717362233816, 71.19261681574156, 81.91300293988421, 87.42841994031997, 90.0449470406118]

>  <Cp_T_units>  (2) 
cal/(mol*K)

>  <T_list>  (2) 
[300.0, 400.0, 500.0, 600.0, 800.0, 1000.0, 1500.0, 2000.0, 2400.0]

>  <T_units>  (2) 
K

>  <yaml_path>  (2) 
/home/calvin/Dropbox/PersonalFolders/Calvin/ZEUS_Converged/rmg_rxn_10661/output/Species/rmg_rxn_10661_p2_CC=CONrbr-N-rbrC/rmg_rxn_10661_p2_CC=CONrbr-N-rbrC.yml

>  <frequencies_cm1>  (2) 
[42.90492427935999, 70.94969232623998, 121.85465450339998, 166.71666959895998, 253.87244728039994, 301.92074356444, 373.40606074563993, 419.64833989052, 445.81842094504, 504.72342102, 549.00174236336, 631.06908392268, 758.13578028396, 848.92419319968, 869.8822323963199, 938.1057315505199, 966.4663809221199, 985.6939398181199, 1045.86246519196, 1060.8324931895597, 1129.8319616849199, 1145.91444130436, 1177.50257377636, 1255.0720399510801, 1275.68672988172, 1357.8776771768, 1378.40309629828, 1417.9431977708398, 1431.4368239246398, 1469.8713407606797, 1474.3760831306, 1478.2284618951198, 1482.71260330908, 1665.8688357641197, 1738.5215404497199, 2975.03898606616, 3009.26404090104, 3062.7647235291597, 3097.66960991072, 3105.09968802696, 3145.0998775159596, 3146.5076095065597, 3168.9763854735997, 3405.2006804816, 3560.0443324622797]

>  <ZPE_kJmol>  (2) 
382.271003727177

>  <E_elec_kJmol>  (2) 
-900787.3204333278

>  <E0_minus_Eelec_plus_ZPE_kJmol>  (2) 
0.0

>  <rxn>  (2) 
rmg_rxn_10661

>  <species_type>  (2) 
p1

>  <species_folder>  (2) 
rmg_rxn_10661_p2_CC=CONrbr-N-rbrC

>  <frequencies_cm1_list>  (2) 
[42.90492427935999, 70.94969232623998, 121.85465450339998, 166.71666959895998, 253.87244728039994, 301.92074356444, 373.40606074563993, 419.64833989052, 445.81842094504, 504.72342102, 549.00174236336, 631.06908392268, 758.13578028396, 848.92419319968, 869.8822323963199, 938.1057315505199, 966.4663809221199, 985.6939398181199, 1045.86246519196, 1060.8324931895597, 1129.8319616849199, 1145.91444130436, 1177.50257377636, 1255.0720399510801, 1275.68672988172, 1357.8776771768, 1378.40309629828, 1417.9431977708398, 1431.4368239246398, 1469.8713407606797, 1474.3760831306, 1478.2284618951198, 1482.71260330908, 1665.8688357641197, 1738.5215404497199, 2975.03898606616, 3009.26404090104, 3062.7647235291597, 3097.66960991072, 3105.09968802696, 3145.0998775159596, 3146.5076095065597, 3168.9763854735997, 3405.2006804816, 3560.0443324622797]

>  <E0_kJmol>  (2) 
-900405

>  <H298_kJmol>  (2) 
-900380

$$$$

     RDKit          3D

 25 24  0  0  0  0  0  0  0  0999 V2000
   -3.6657   -1.2502    0.6750 C   0  0  0  0  0  0  0  0  0  1  0  0
   -3.5293    0.1884    0.2770 C   0  0  0  0  0  0  0  0  0  2  0  0
   -2.2712    0.8531    0.1922 N   0  0  0  0  0  2  0  0  0  3  0  0
   -2.9941    0.4774   -0.9845 O   0  0  0  0  0  0  0  0  0  4  0  0
   -3.7075   -1.3324    1.7632 H   0  0  0  0  0  0  0  0  0  5  0  0
   -4.5953   -1.6565    0.2727 H   0  0  0  0  0  0  0  0  0  6  0  0
   -2.8271   -1.8361    0.3027 H   0  0  0  0  0  0  0  0  0  7  0  0
   -4.3579    0.8349    0.5660 H   0  0  0  0  0  0  0  0  0  8  0  0
   -1.3482   -0.0297    0.2909 H   0  0  0  0  0  0  0  0  0  9  0  0
    4.8860   -0.2008    0.2240 C   0  0  0  0  0  0  0  0  0 10  0  0
    3.4025   -0.3037    0.0557 C   0  0  0  0  0  0  0  0  0 11  0  0
    2.5740    0.6630    0.4210 C   0  0  0  0  0  0  0  0  0 12  0  0
    1.2146    0.6995    0.3230 O   0  0  0  0  0  0  0  0  0 13  0  0
    0.6588   -0.4693   -0.3026 N   0  0  0  0  0  0  0  0  0 14  0  0
   -0.4393   -0.8921    0.3452 N   0  0  0  0  0  0  0  0  0 15  0  0
    0.4237   -0.1673   -1.7043 C   0  0  0  0  0  0  0  0  0 16  0  0
    5.2668   -1.0029    0.8612 H   0  0  0  0  0  0  0  0  0 17  0  0
    5.4003   -0.2845   -0.7368 H   0  0  0  0  0  0  0  0  0 18  0  0
    5.1731    0.7505    0.6752 H   0  0  0  0  0  0  0  0  0 19  0  0
    3.0004   -1.2135   -0.3729 H   0  0  0  0  0  0  0  0  0 20  0  0
    2.9157    1.5934    0.8607 H   0  0  0  0  0  0  0  0  0 21  0  0
   -0.1966   -0.9599    1.3311 H   0  0  0  0  0  0  0  0  0 22  0  0
   -0.2845    0.6576   -1.8188 H   0  0  0  0  0  0  0  0  0 23  0  0
    0.0221   -1.0644   -2.1697 H   0  0  0  0  0  0  0  0  0 24  0  0
    1.3759    0.0923   -2.1629 H   0  0  0  0  0  0  0  0  0 25  0  0
  1  7  1  0
  1  5  1  0
  1  6  1  0
  1  2  1  0
  2  4  1  0
  2  8  1  0
  2  3  1  0
  3  4  1  0
  9 15  1  0
 10 18  1  0
 10 11  1  0
 10 19  1  0
 10 17  1  0
 11 12  1  0
 11 20  1  0
 12 13  1  0
 12 21  1  0
 13 14  1  0
 14 15  1  0
 14 16  1  0
 15 22  1  0
 16 23  1  0
 16 24  1  0
 16 25  1  0
M  RAD  1   3   2
M  END
>  <rmg_smiles>  (3) 
CC1[N]O1.C[CH][CH]ON(N)C

>  <rmg_adjacency_list>  (3) 
multiplicity 2
1  O u0 p2 c0 {5,S} {6,S}
2  O u0 p2 c0 {3,S} {11,S}
3  N u0 p1 c0 {2,S} {4,S} {8,S}
4  N u0 p1 c0 {3,S} {24,S} {25,S}
5  N u1 p1 c0 {1,S} {6,S}
6  C u0 p0 c0 {1,S} {5,S} {7,S} {12,S}
7  C u0 p0 c0 {6,S} {13,S} {14,S} {15,S}
8  C u0 p0 c0 {3,S} {19,S} {20,S} {21,S}
9  C u0 p0 c0 {10,S} {16,S} {17,S} {18,S}
10 C u0 p0 c0 {9,S} {11,S} {22,S}
11 C u0 p0 c0 {2,S} {10,S} {23,S}
12 H u0 p0 c0 {6,S}
13 H u0 p0 c0 {7,S}
14 H u0 p0 c0 {7,S}
15 H u0 p0 c0 {7,S}
16 H u0 p0 c0 {9,S}
17 H u0 p0 c0 {9,S}
18 H u0 p0 c0 {9,S}
19 H u0 p0 c0 {8,S}
20 H u0 p0 c0 {8,S}
21 H u0 p0 c0 {8,S}
22 H u0 p0 c0 {10,S}
23 H u0 p0 c0 {11,S}
24 H u0 p0 c0 {4,S}
25 H u0 p0 c0 {4,S}


>  <multiplicity>  (3) 
2

>  <reaction>  (3) 
rmg_rxn_10661

>  <type>  (3) 
ts

>  <role_mapnums>  (3) 
{"*2": 9, "*1": 3, "*3": 15, "*0": 14, "*4": 4}

>  <role_mapidx>  (3) 
{"*2": 8, "*1": 2, "*3": 14, "*0": 13, "*4": 3}

>  <ordered_mapped_smiles>  (3) 
[C:1]([C:2]1([H:8])[N:3][O:4]1)([H:5])([H:6])[H:7].[H:9][N:15]([N:14]([O:13][CH:12]([CH:11]([C:10]([H:17])([H:18])[H:19])[H:20])[H:21])[C:16]([H:23])([H:24])[H:25])[H:22]

>  <mol_properties>  (3) 
{"2": {"label": "*1", "atom_type": "N3s"}, "3": {"label": "*4", "atom_type": "O2s"}, "8": {"label": "*2", "atom_type": "H0"}, "13": {"label": "*0", "atom_type": "N3s"}, "14": {"label": "*3", "atom_type": "N3s"}}

>  <level_of_theory>  (3) 
wb97xd/def2tzvp

>  <lot_method>  (3) 
wb97xd

>  <lot_basis>  (3) 
def2tzvp

>  <spin_multiplicity>  (3) 
2.0

>  <optical_isomers>  (3) 
2.0

>  <modes>  (3) 
IdealGasTranslation(mass=(160.109, 'amu')),         NonlinearRotor(             inertia = ([163.588, 1306.09, 1326.21

>  <frequency_value>  (3) 
-2224.33

>  <frequency_units>  (3) 
cm^-1

>  <frequency_list>  (3) 
unknown

>  <arkane_path>  (3) 
/home/calvin/Dropbox/PersonalFolders/Calvin/ZEUS_Converged/rmg_rxn_10661/output/rxns/TS0/arkane/output.py

>  <path_exists>  (3) 
True

>  <E0_value>  (3) 
-1447560.0

>  <E0_units>  (3) 
kJ/mol

>  <thermo_class>  (3) 
unknown

>  <Cp0_value>  (3) 
unknown

>  <Cp0_units>  (3) 
unknown

>  <CpInf_value>  (3) 
unknown

>  <CpInf_units>  (3) 
unknown

>  <Tmin_value>  (3) 
unknown

>  <Tmin_units>  (3) 
unknown

>  <Tmax_value>  (3) 
unknown

>  <Tmax_units>  (3) 
unknown

>  <polynomials>  (3) 
unknown

>  <H298_value>  (3) 
unknown

>  <H298_units>  (3) 
unknown

>  <S298_value>  (3) 
unknown

>  <S298_units>  (3) 
unknown

>  <Cp_T_value_list>  (3) 
unknown

>  <Cp_T_units>  (3) 
unknown

>  <T_list>  (3) 
unknown

>  <T_units>  (3) 
unknown

>  <yaml_path>  (3) 
unknown

>  <frequencies_cm1>  (3) 
unknown

>  <ZPE_kJmol>  (3) 
unknown

>  <E_elec_kJmol>  (3) 
unknown

>  <E0_minus_Eelec_plus_ZPE_kJmol>  (3) 
unknown

>  <rxn>  (3) 
unknown

>  <species_type>  (3) 
unknown

>  <species_folder>  (3) 
unknown

>  <frequencies_cm1_list>  (3) 
[]

>  <ts_imag_freq_cm1>  (3) 
-2251.3504

>  <ts_freq_out_path>  (3) 
/home/calvin/Dropbox/PersonalFolders/Calvin/ZEUS_Converged/rmg_rxn_10661/output/rxns/TS0/geometry/freq.out

>  <E0_kJmol>  (3) 
-1.44756e+06

>  <H298_kJmol>  (3) 
unknown

$$$$

     RDKit          3D

  8  8  0  0  0  0  0  0  0  0999 V2000
    0.8505    0.0495    0.0350 C   0  0  0  0  0  0  0  0  0  1  0  0
   -0.6272   -0.1047    0.2018 C   0  0  0  0  0  0  0  0  0  2  0  0
   -1.5230    0.8104   -0.4133 N   0  0  0  0  0  2  0  0  0  3  0  0
   -1.3933   -0.4445   -0.9420 O   0  0  0  0  0  0  0  0  0  4  0  0
    1.2510    0.6524    0.8519 H   0  0  0  0  0  0  0  0  0  5  0  0
    1.0765    0.5398   -0.9109 H   0  0  0  0  0  0  0  0  0  6  0  0
    1.3406   -0.9252    0.0594 H   0  0  0  0  0  0  0  0  0  7  0  0
   -0.9751   -0.5778    1.1183 H   0  0  0  0  0  0  0  0  0  8  0  0
  1  5  1  0
  1  7  1  0
  1  6  1  0
  1  2  1  0
  2  4  1  0
  2  3  1  0
  2  8  1  0
  3  4  1  0
M  RAD  1   3   2
M  END
>  <rmg_smiles>  (4) 
CC1[N]O1

>  <rmg_adjacency_list>  (4) 
multiplicity 2
1 O u0 p2 c0 {2,S} {3,S}
2 N u1 p1 c0 {1,S} {3,S}
3 C u0 p0 c0 {1,S} {2,S} {4,S} {5,S}
4 C u0 p0 c0 {3,S} {6,S} {7,S} {8,S}
5 H u0 p0 c0 {3,S}
6 H u0 p0 c0 {4,S}
7 H u0 p0 c0 {4,S}
8 H u0 p0 c0 {4,S}


>  <multiplicity>  (4) 
2

>  <reaction>  (4) 
rmg_rxn_10661

>  <type>  (4) 
r1

>  <role_mapnums>  (4) 
{}

>  <role_mapidx>  (4) 
{}

>  <ordered_mapped_smiles>  (4) 
[C:1]([C:2]1([H:8])[N:3][O:4]1)([H:5])([H:6])[H:7]

>  <level_of_theory>  (4) 
wb97xd/def2tzvp

>  <lot_method>  (4) 
wb97xd

>  <lot_basis>  (4) 
def2tzvp

>  <spin_multiplicity>  (4) 
2.0

>  <optical_isomers>  (4) 
2.0

>  <modes>  (4) 
IdealGasTranslation(mass=(58.0293, 'amu')),         NonlinearRotor(             inertia = ([23.4146, 70.9581, 78.7064

>  <frequency_value>  (4) 
unknown

>  <frequency_units>  (4) 
unknown

>  <frequency_list>  (4) 
unknown

>  <arkane_path>  (4) 
/home/calvin/Dropbox/PersonalFolders/Calvin/ZEUS_Converged/rmg_rxn_10661/output/Species/rmg_rxn_10661_p1_CC1sbr-N-sbrO1/arkane/output.py

>  <path_exists>  (4) 
True

>  <E0_value>  (4) 
-547227.3621526395

>  <E0_units>  (4) 
kJ/mol

>  <thermo_class>  (4) 
NASA

>  <Cp0_value>  (4) 
33.257888

>  <Cp0_units>  (4) 
J/(mol*K)

>  <CpInf_value>  (4) 
182.918384

>  <CpInf_units>  (4) 
J/(mol*K)

>  <Tmin_value>  (4) 
10.0

>  <Tmin_units>  (4) 
K

>  <Tmax_value>  (4) 
3000.0

>  <Tmax_units>  (4) 
K

>  <polynomials>  (4) 
[{"name": "polynomial1", "class": "NASAPolynomial", "Tmin_value": 10.0, "Tmin_units": "K", "Tmax_value": 452.90313759142083, "Tmax_units": "K", "coeffs": [3.993903921577576, 0.0001955042069371399, 7.708643812387396e-05, -1.3413115389579475e-07, 7.629046883715244e-11, -65816248.71742715, 9.533991906529156]}, {"name": "polynomial2", "class": "NASAPolynomial", "Tmin_value": 452.90313759142083, "Tmin_units": "K", "Tmax_value": 3000.0, "Tmax_units": "K", "coeffs": [0.7597120819655714, 0.028759613302334033, -1.751698626413621e-05, 5.12375475034405e-09, -5.77505449262592e-13, -65815955.76246551, 22.575367203758603]}]

>  <H298_value>  (4) 
-130787.19788886789

>  <H298_units>  (4) 
kcal/mol

>  <S298_value>  (4) 
69.0274070004217

>  <S298_units>  (4) 
cal/(mol*K)

>  <Cp_T_value_list>  (4) 
[15.871314083797705, 19.424104661675273, 22.58390123471835, 25.319497469568212, 29.69551772518269, 32.885462492343336, 37.46870681090042, 39.666518565610055, 40.84799143796752]

>  <Cp_T_units>  (4) 
cal/(mol*K)

>  <T_list>  (4) 
[300.0, 400.0, 500.0, 600.0, 800.0, 1000.0, 1500.0, 2000.0, 2400.0]

>  <T_units>  (4) 
K

>  <yaml_path>  (4) 
/home/calvin/Dropbox/PersonalFolders/Calvin/ZEUS_Converged/rmg_rxn_10661/output/Species/rmg_rxn_10661_p1_CC1sbr-N-sbrO1/rmg_rxn_10661_p1_CC1sbr-N-sbrO1.yml

>  <frequencies_cm1>  (4) 
[180.01802016379997, 387.26363712140005, 441.6844957824, 820.21332757676, 862.3560164855999, 1008.71894159608, 1015.5103900775598, 1116.79155656224, 1170.3265741169598, 1313.1667357582799, 1395.7353672459599, 1444.9167161078, 1469.4593216414798, 1489.84053407124, 3025.02377221044, 3091.09790495948, 3098.1777668243994, 3123.06372162408]

>  <ZPE_kJmol>  (4) 
158.22630447874113

>  <E_elec_kJmol>  (4) 
-547385.5884571183

>  <E0_minus_Eelec_plus_ZPE_kJmol>  (4) 
0.0

>  <rxn>  (4) 
rmg_rxn_10661

>  <species_type>  (4) 
p0

>  <species_folder>  (4) 
rmg_rxn_10661_p1_CC1sbr-N-sbrO1

>  <frequencies_cm1_list>  (4) 
[180.01802016379997, 387.26363712140005, 441.6844957824, 820.21332757676, 862.3560164855999, 1008.71894159608, 1015.5103900775598, 1116.79155656224, 1170.3265741169598, 1313.1667357582799, 1395.7353672459599, 1444.9167161078, 1469.4593216414798, 1489.84053407124, 3025.02377221044, 3091.09790495948, 3098.1777668243994, 3123.06372162408]

>  <E0_kJmol>  (4) 
-547227

>  <H298_kJmol>  (4) 
-547214

$$$$

     RDKit          3D

 16 15  0  0  0  0  0  0  0  0999 V2000
   -2.7163    0.6711   -0.2082 C   0  0  0  0  0  0  0  0  0  1  0  0
   -2.0604   -0.6699   -0.1371 C   0  0  0  0  0  0  0  0  0  2  0  0
   -1.8776   -1.4967   -1.1546 C   0  0  0  0  0  0  0  0  0  3  0  0
   -2.2450   -1.1612   -2.4322 O   0  0  0  0  0  0  0  0  0  4  0  0
   -2.5108   -2.3329   -3.2086 N   0  0  0  0  0  0  0  0  0  5  0  0
   -2.0229   -2.3050   -4.4233 N   0  0  0  0  0  2  0  0  0  6  0  0
   -3.9082   -2.7128   -3.0828 C   0  0  0  0  0  0  0  0  0  7  0  0
   -3.4812    0.7676    0.5653 H   0  0  0  0  0  0  0  0  0  8  0  0
   -3.1809    0.8365   -1.1792 H   0  0  0  0  0  0  0  0  0  9  0  0
   -1.9897    1.4706   -0.0417 H   0  0  0  0  0  0  0  0  0 10  0  0
   -1.6717   -0.9974    0.8197 H   0  0  0  0  0  0  0  0  0 11  0  0
   -1.3990   -2.4648   -1.0638 H   0  0  0  0  0  0  0  0  0 12  0  0
   -1.1779   -1.7364   -4.3793 H   0  0  0  0  0  0  0  0  0 13  0  0
   -4.5563   -1.9305   -3.4853 H   0  0  0  0  0  0  0  0  0 14  0  0
   -4.1357   -2.8800   -2.0315 H   0  0  0  0  0  0  0  0  0 15  0  0
   -4.0457   -3.6333   -3.6440 H   0  0  0  0  0  0  0  0  0 16  0  0
  1 10  1  0
  1  8  1  0
  1  9  1  0
  1  2  1  0
  2 11  1  0
  2  3  1  0
  3  4  1  0
  3 12  1  0
  4  5  1  0
  5  6  1  0
  5  7  1  0
  6 13  1  0
  7 14  1  0
  7 15  1  0
  7 16  1  0
M  RAD  1   6   2
M  END
>  <rmg_smiles>  (5) 
C[CH][CH]ON([NH])C

>  <rmg_adjacency_list>  (5) 
multiplicity 2
1  O u0 p2 c0 {2,S} {7,S}
2  N u0 p1 c0 {1,S} {3,S} {5,S}
3  N u1 p1 c0 {2,S} {16,S}
4  C u0 p0 c0 {6,S} {8,S} {9,S} {10,S}
5  C u0 p0 c0 {2,S} {11,S} {12,S} {13,S}
6  C u0 p0 c0 {4,S} {7,S} {14,S}
7  C u0 p0 c0 {1,S} {6,S} {15,S}
8  H u0 p0 c0 {4,S}
9  H u0 p0 c0 {4,S}
10 H u0 p0 c0 {4,S}
11 H u0 p0 c0 {5,S}
12 H u0 p0 c0 {5,S}
13 H u0 p0 c0 {5,S}
14 H u0 p0 c0 {6,S}
15 H u0 p0 c0 {7,S}
16 H u0 p0 c0 {3,S}


>  <multiplicity>  (5) 
2

>  <reaction>  (5) 
rmg_rxn_10661

>  <type>  (5) 
r2

>  <role_mapnums>  (5) 
{}

>  <role_mapidx>  (5) 
{}

>  <ordered_mapped_smiles>  (5) 
[C:1]([CH:2]([CH:3]([O:4][N:5]([N:6][H:13])[C:7]([H:14])([H:15])[H:16])[H:12])[H:11])([H:8])([H:9])[H:10]

>  <level_of_theory>  (5) 
wb97xd/def2tzvp

>  <lot_method>  (5) 
wb97xd

>  <lot_basis>  (5) 
def2tzvp

>  <spin_multiplicity>  (5) 
2.0

>  <optical_isomers>  (5) 
2.0

>  <modes>  (5) 
IdealGasTranslation(mass=(101.071, 'amu')),         NonlinearRotor(             inertia = ([82.2482, 367.276, 386.349

>  <frequency_value>  (5) 
unknown

>  <frequency_units>  (5) 
unknown

>  <frequency_list>  (5) 
unknown

>  <arkane_path>  (5) 
/home/calvin/Dropbox/PersonalFolders/Calvin/ZEUS_Converged/rmg_rxn_10661/output/Species/rmg_rxn_10661_r2_CC=CONrbr-sbr-NH-sbr-rbrC/arkane/output.py

>  <path_exists>  (5) 
True

>  <E0_value>  (5) 
-898742.9185379538

>  <E0_units>  (5) 
kJ/mol

>  <thermo_class>  (5) 
NASA

>  <Cp0_value>  (5) 
33.257888

>  <Cp0_units>  (5) 
J/(mol*K)

>  <CpInf_value>  (5) 
382.465712

>  <CpInf_units>  (5) 
J/(mol*K)

>  <Tmin_value>  (5) 
10.0

>  <Tmin_units>  (5) 
K

>  <Tmax_value>  (5) 
3000.0

>  <Tmax_units>  (5) 
K

>  <polynomials>  (5) 
[{"name": "polynomial1", "class": "NASAPolynomial", "Tmin_value": 10.0, "Tmin_units": "K", "Tmax_value": 1230.3472949169695, "Tmax_units": "K", "coeffs": [3.6364475231756046, 0.04601226900129711, -1.0447555598908227e-05, -9.397698188465058e-09, 4.2998077544836165e-12, -108093806.2073487, 13.356248752428224]}, {"name": "polynomial2", "class": "NASAPolynomial", "Tmin_value": 1230.3472949169695, "Tmin_units": "K", "Tmax_value": 3000.0, "Tmax_units": "K", "coeffs": [10.637608490990464, 0.03762916917718073, -1.775692675502755e-05, 4.061454965423361e-09, -3.650754676341201e-13, -108096617.25339198, -26.294251832019942]}]

>  <H298_value>  (5) 
-214798.7169570288

>  <H298_units>  (5) 
kcal/mol

>  <S298_value>  (5) 
93.88909312712664

>  <S298_units>  (5) 
cal/(mol*K)

>  <Cp_T_value_list>  (5) 
[32.353587447653005, 39.5024233546788, 45.9535916020781, 51.68732293220983, 61.02593308117714, 67.77024082473554, 77.47619956814351, 82.5061750415756, 84.8555895677637]

>  <Cp_T_units>  (5) 
cal/(mol*K)

>  <T_list>  (5) 
[300.0, 400.0, 500.0, 600.0, 800.0, 1000.0, 1500.0, 2000.0, 2400.0]

>  <T_units>  (5) 
K

>  <yaml_path>  (5) 
/home/calvin/Dropbox/PersonalFolders/Calvin/ZEUS_Converged/rmg_rxn_10661/output/Species/rmg_rxn_10661_r2_CC=CONrbr-sbr-NH-sbr-rbrC/rmg_rxn_10661_r2_CC=CONrbr-sbr-NH-sbr-rbrC.yml

>  <frequencies_cm1>  (5) 
[39.766711988119994, 75.63297631448, 123.26238649399998, 170.50724549560002, 210.75464645612, 275.49658405307997, 409.25172411604, 436.20464149704003, 468.50694044231994, 500.21867865008005, 576.8748357772399, 635.10687129084, 759.24136492048, 839.57822617916, 939.32118795216, 961.2680730348799, 1009.44684204, 1040.7534281138799, 1058.9372052412398, 1116.31086758984, 1136.6302771517198, 1158.60463017572, 1269.5201770643598, 1302.9417946168, 1381.1704913822398, 1418.63676328816, 1428.2093408242401, 1447.1828212633998, 1467.8867820031996, 1473.94346305544, 1477.12974424392, 1484.2920099326798, 1743.06061774624, 3013.6108426086, 3018.1636538757602, 3068.4780553153996, 3106.96064104868, 3110.6619461361597, 3147.0088994349203, 3149.9479691518795, 3171.6476427630796, 3452.55541124832]

>  <ZPE_kJmol>  (5) 
347.36385809522346

>  <E_elec_kJmol>  (5) 
-899090.282396049

>  <E0_minus_Eelec_plus_ZPE_kJmol>  (5) 
0.0

>  <rxn>  (5) 
rmg_rxn_10661

>  <species_type>  (5) 
r1

>  <species_folder>  (5) 
rmg_rxn_10661_r2_CC=CONrbr-sbr-NH-sbr-rbrC

>  <frequencies_cm1_list>  (5) 
[39.766711988119994, 75.63297631448, 123.26238649399998, 170.50724549560002, 210.75464645612, 275.49658405307997, 409.25172411604, 436.20464149704003, 468.50694044231994, 500.21867865008005, 576.8748357772399, 635.10687129084, 759.24136492048, 839.57822617916, 939.32118795216, 961.2680730348799, 1009.44684204, 1040.7534281138799, 1058.9372052412398, 1116.31086758984, 1136.6302771517198, 1158.60463017572, 1269.5201770643598, 1302.9417946168, 1381.1704913822398, 1418.63676328816, 1428.2093408242401, 1447.1828212633998, 1467.8867820031996, 1473.94346305544, 1477.12974424392, 1484.2920099326798, 1743.06061774624, 3013.6108426086, 3018.1636538757602, 3068.4780553153996, 3106.96064104868, 3110.6619461361597, 3147.0088994349203, 3149.9479691518795, 3171.6476427630796, 3452.55541124832]

>  <E0_kJmol>  (5) 
-898743

>  <H298_kJmol>  (5) 
-898718

$$$$
