
     RDKit          3D

 10  9  0  0  0  0  0  0  0  0999 V2000
    1.2050   -1.4533   -0.2664 C   0  0  0  0  0  0  0  0  0  1  0  0
    0.2210   -0.6242   -0.1009 C   0  0  0  0  0  2  0  0  0  2  0  0
   -0.7653    0.2070    0.0651 C   0  0  0  0  0  0  0  0  0  3  0  0
   -0.6188    1.6774    0.2721 C   0  0  0  0  0  0  0  0  0  4  0  0
    1.6670   -1.9394    0.5849 H   0  0  0  0  0  0  0  0  0  5  0  0
    1.5827   -1.6714   -1.2585 H   0  0  0  0  0  0  0  0  0  6  0  0
   -1.7814   -0.1876    0.0553 H   0  0  0  0  0  0  0  0  0  7  0  0
   -1.1398    2.2205   -0.5222 H   0  0  0  0  0  0  0  0  0  8  0  0
    0.4309    1.9880    0.2693 H   0  0  0  0  0  0  0  0  0  9  0  0
   -1.0596    1.9656    1.2313 H   0  0  0  0  0  0  0  0  0 10  0  0
  1  5  1  0
  1  6  1  0
  1  2  1  0
  2  3  1  0
  3  4  1  0
  3  7  1  0
  4  8  1  0
  4  9  1  0
  4 10  1  0
M  RAD  1   2   3
M  END
>  <rmg_smiles>  (1) 
[CH2][C][CH]C

>  <rmg_adjacency_list>  (1) 
1  C u0 p0 c0 {2,S} {5,S} {6,S} {7,S}
2  C u0 p0 c0 {1,S} {4,S} {8,S}
3  C u0 p0 c0 {4,S} {9,S} {10,S}
4  C u0 p1 c0 {2,S} {3,S}
5  H u0 p0 c0 {1,S}
6  H u0 p0 c0 {1,S}
7  H u0 p0 c0 {1,S}
8  H u0 p0 c0 {2,S}
9  H u0 p0 c0 {3,S}
10 H u0 p0 c0 {3,S}


>  <multiplicity>  (1) 
1

>  <reaction>  (1) 
rmg_rxn_16807

>  <type>  (1) 
r1h

>  <role_mapnums>  (1) 
{"r1h_a": 3, "r1h_h": 7}

>  <role_mapidx>  (1) 
{"r1h_a": 2, "r1h_h": 6}

>  <ordered_mapped_smiles>  (1) 
[CH:1]([C:2][CH:3]([C:4]([H:8])([H:9])[H:10])[H:7])([H:5])[H:6]

>  <mol_properties>  (1) 
{"2": {"label": "donator", "atom_type": "Cs"}, "6": {"label": "d_hydrogen", "atom_type": "H0"}}

>  <level_of_theory>  (1) 
wb97xd/def2tzvp

>  <lot_method>  (1) 
wb97xd

>  <lot_basis>  (1) 
def2tzvp

>  <spin_multiplicity>  (1) 
1.0

>  <optical_isomers>  (1) 
1.0

>  <modes>  (1) 
IdealGasTranslation(mass=(54.047, 'amu')),         NonlinearRotor(             inertia = ([14.4765, 119.159, 126.96

>  <frequency_value>  (1) 
unknown

>  <frequency_units>  (1) 
unknown

>  <frequency_list>  (1) 
unknown

>  <arkane_path>  (1) 
/home/calvin/Dropbox/PersonalFolders/Calvin/ZEUS_Converged/rmg_rxn_16807/output/Species/rmg_rxn_16807_r2_C=C=CC/arkane/output.py

>  <path_exists>  (1) 
True

>  <E0_value>  (1) 
-409295.803988148

>  <E0_units>  (1) 
kJ/mol

>  <thermo_class>  (1) 
NASA

>  <Cp0_value>  (1) 
33.257888

>  <Cp0_units>  (1) 
J/(mol*K)

>  <CpInf_value>  (1) 
232.805216

>  <CpInf_units>  (1) 
J/(mol*K)

>  <Tmin_value>  (1) 
10.0

>  <Tmin_units>  (1) 
K

>  <Tmax_value>  (1) 
3000.0

>  <Tmax_units>  (1) 
K

>  <polynomials>  (1) 
[{"name": "polynomial1", "class": "NASAPolynomial", "Tmin_value": 10.0, "Tmin_units": "K", "Tmax_value": 378.3338810114521, "Tmax_units": "K", "coeffs": [3.956788291646404, 0.0028758748884973595, 0.00010222157511154379, -2.0822145200867456e-07, 1.4048133398099896e-10, -49226913.492635585, 8.267336820593142]}, {"name": "polynomial2", "class": "NASAPolynomial", "Tmin_value": 378.3338810114521, "Tmin_units": "K", "Tmax_value": 3000.0, "Tmax_units": "K", "coeffs": [1.0662090645095545, 0.03343521113532414, -1.893143893726876e-05, 5.251083928678167e-09, -5.712549624407654e-13, -49226694.75887327, 19.403301870301277]}]

>  <H298_value>  (1) 
-97820.33827014855

>  <H298_units>  (1) 
kcal/mol

>  <S298_value>  (1) 
68.84793061803599

>  <S298_units>  (1) 
cal/(mol*K)

>  <Cp_T_value_list>  (1) 
[18.948832952661355, 23.315314670745117, 27.16836583327544, 30.547769981270978, 36.07341382159731, 40.24055452980178, 46.60738122015404, 49.83808108793718, 51.47608668501352]

>  <Cp_T_units>  (1) 
cal/(mol*K)

>  <T_list>  (1) 
[300.0, 400.0, 500.0, 600.0, 800.0, 1000.0, 1500.0, 2000.0, 2400.0]

>  <T_units>  (1) 
K

>  <yaml_path>  (1) 
/home/calvin/Dropbox/PersonalFolders/Calvin/ZEUS_Converged/rmg_rxn_16807/output/Species/rmg_rxn_16807_r2_C=C=CC/rmg_rxn_16807_r2_C=C=CC.yml

>  <frequencies_cm1>  (1) 
[200.28936082843998, 216.24823471212002, 340.54066900412, 547.08585345908, 575.89285687648, 877.2436406593599, 895.3724819041599, 896.74587896816, 1021.29925870232, 1068.82566410204, 1095.1811537602, 1158.02093642352, 1357.5137269548397, 1407.4229762606, 1462.1185143343998, 1477.7271719667597, 1497.33241505536, 2069.4690309618, 2987.76350986412, 3057.5458146859596, 3064.7561492719597, 3109.8516418684, 3124.4783205999997, 3194.5765067465595]

>  <ZPE_kJmol>  (1) 
219.53455996381652

>  <E_elec_kJmol>  (1) 
-409515.3385481118

>  <E0_minus_Eelec_plus_ZPE_kJmol>  (1) 
0.0

>  <rxn>  (1) 
rmg_rxn_16807

>  <species_type>  (1) 
r1

>  <species_folder>  (1) 
rmg_rxn_16807_r2_C=C=CC

>  <frequencies_cm1_list>  (1) 
[200.28936082843998, 216.24823471212002, 340.54066900412, 547.08585345908, 575.89285687648, 877.2436406593599, 895.3724819041599, 896.74587896816, 1021.29925870232, 1068.82566410204, 1095.1811537602, 1158.02093642352, 1357.5137269548397, 1407.4229762606, 1462.1185143343998, 1477.7271719667597, 1497.33241505536, 2069.4690309618, 2987.76350986412, 3057.5458146859596, 3064.7561492719597, 3109.8516418684, 3124.4783205999997, 3194.5765067465595]

>  <E0_kJmol>  (1) 
-409296

>  <H298_kJmol>  (1) 
-409280

$$$$

     RDKit          3D

  8  7  0  0  0  0  0  0  0  0999 V2000
   -0.5066    0.3889   -1.0993 C   0  0  0  0  0  0  0  0  0  1  0  0
    0.4287   -0.1349   -0.0578 C   0  0  0  0  0  0  0  0  0  2  0  0
    0.0469   -0.3082    1.1618 N   0  0  0  0  0  0  0  0  0  3  0  0
   -0.6502   -0.3408   -1.8998 H   0  0  0  0  0  0  0  0  0  4  0  0
   -1.4677    0.6146   -0.6303 H   0  0  0  0  0  0  0  0  0  5  0  0
   -0.0939    1.3125   -1.5130 H   0  0  0  0  0  0  0  0  0  6  0  0
    0.8246   -0.6724    1.7245 H   0  0  0  0  0  0  0  0  0  7  0  0
    1.4448    0.2596   -0.0481 H   0  0  0  0  0  0  0  0  0  8  0  0
  1  5  1  0
  1  4  1  0
  1  6  1  0
  1  2  1  0
  2  3  1  0
  2  8  1  0
  3  7  1  0
M  END
>  <rmg_smiles>  (2) 
C[CH][NH]

>  <rmg_adjacency_list>  (2) 
1 N u0 p1 c0 {3,S} {8,S}
2 C u0 p0 c0 {3,S} {4,S} {5,S} {6,S}
3 C u0 p0 c0 {1,S} {2,S} {7,S}
4 H u0 p0 c0 {2,S}
5 H u0 p0 c0 {2,S}
6 H u0 p0 c0 {2,S}
7 H u0 p0 c0 {3,S}
8 H u0 p0 c0 {1,S}


>  <multiplicity>  (2) 
1

>  <reaction>  (2) 
rmg_rxn_16807

>  <type>  (2) 
r2h

>  <role_mapnums>  (2) 
{"r2h_a": 2, "r2h_h": 8}

>  <role_mapidx>  (2) 
{"r2h_a": 1, "r2h_h": 7}

>  <ordered_mapped_smiles>  (2) 
[C:1]([CH:2]([NH:3][H:7])[H:8])([H:4])([H:5])[H:6]

>  <mol_properties>  (2) 
{"1": {"label": "acceptor", "atom_type": "Cs"}, "7": {"label": "a_hydrogen", "atom_type": "H0"}}

>  <level_of_theory>  (2) 
wb97xd/def2tzvp

>  <lot_method>  (2) 
wb97xd

>  <lot_basis>  (2) 
def2tzvp

>  <spin_multiplicity>  (2) 
1.0

>  <optical_isomers>  (2) 
2.0

>  <modes>  (2) 
IdealGasTranslation(mass=(43.0422, 'amu')),         NonlinearRotor(             inertia = ([9.58574, 51.8782, 58.2459

>  <frequency_value>  (2) 
unknown

>  <frequency_units>  (2) 
unknown

>  <frequency_list>  (2) 
unknown

>  <arkane_path>  (2) 
/home/calvin/Dropbox/PersonalFolders/Calvin/ZEUS_Converged/rmg_rxn_16807/output/Species/rmg_rxn_16807_p1_CC=N/arkane/output.py

>  <path_exists>  (2) 
True

>  <E0_value>  (2) 
-351532.73105076194

>  <E0_units>  (2) 
kJ/mol

>  <thermo_class>  (2) 
NASA

>  <Cp0_value>  (2) 
33.257888

>  <Cp0_units>  (2) 
J/(mol*K)

>  <CpInf_value>  (2) 
182.918384

>  <CpInf_units>  (2) 
J/(mol*K)

>  <Tmin_value>  (2) 
10.0

>  <Tmin_units>  (2) 
K

>  <Tmax_value>  (2) 
3000.0

>  <Tmax_units>  (2) 
K

>  <polynomials>  (2) 
[{"name": "polynomial1", "class": "NASAPolynomial", "Tmin_value": 10.0, "Tmin_units": "K", "Tmax_value": 595.5373651451594, "Tmax_units": "K", "coeffs": [4.030703313481149, -0.00229058814131209, 6.377490274321222e-05, -8.93766559780865e-08, 4.0934862340445074e-11, -42279622.021195926, 7.585695917242757]}, {"name": "polynomial2", "class": "NASAPolynomial", "Tmin_value": 595.5373651451594, "Tmin_units": "K", "Tmax_value": 3000.0, "Tmax_units": "K", "coeffs": [-0.11565217745608042, 0.027337056045592743, -1.5327895767727505e-05, 4.187529468154553e-09, -4.469900950756201e-13, -42279159.691402115, 25.175708204040994]}]

>  <H298_value>  (2) 
-84015.34890439233

>  <H298_units>  (2) 
kcal/mol

>  <S298_value>  (2) 
63.57157650832207

>  <S298_units>  (2) 
cal/(mol*K)

>  <Cp_T_value_list>  (2) 
[13.913765714474152, 17.18194181639411, 20.300271898294582, 23.081632876583395, 27.63224015948139, 31.06808077557062, 36.31061676624832, 38.93985005203162, 40.26666894785372]

>  <Cp_T_units>  (2) 
cal/(mol*K)

>  <T_list>  (2) 
[300.0, 400.0, 500.0, 600.0, 800.0, 1000.0, 1500.0, 2000.0, 2400.0]

>  <T_units>  (2) 
K

>  <yaml_path>  (2) 
/home/calvin/Dropbox/PersonalFolders/Calvin/ZEUS_Converged/rmg_rxn_16807/output/Species/rmg_rxn_16807_p1_CC=N/rmg_rxn_16807_p1_CC=N.yml

>  <frequencies_cm1>  (2) 
[234.89896684124, 508.23245051851995, 714.5510244579199, 916.92108183832, 1068.95613682312, 1083.47981077492, 1139.4045392209998, 1281.18718512304, 1373.1841874550798, 1414.5234390814799, 1449.02317332916, 1470.9357234852798, 1633.2506554941199, 2948.45001890712, 3002.78847374428, 3084.88328324488, 3091.9562781244804, 3362.8176470865596]

>  <ZPE_kJmol>  (2) 
178.12068223241255

>  <E_elec_kJmol>  (2) 
-351710.8517329944

>  <E0_minus_Eelec_plus_ZPE_kJmol>  (2) 
0.0

>  <rxn>  (2) 
rmg_rxn_16807

>  <species_type>  (2) 
p0

>  <species_folder>  (2) 
rmg_rxn_16807_p1_CC=N

>  <frequencies_cm1_list>  (2) 
[234.89896684124, 508.23245051851995, 714.5510244579199, 916.92108183832, 1068.95613682312, 1083.47981077492, 1139.4045392209998, 1281.18718512304, 1373.1841874550798, 1414.5234390814799, 1449.02317332916, 1470.9357234852798, 1633.2506554941199, 2948.45001890712, 3002.78847374428, 3084.88328324488, 3091.9562781244804, 3362.8176470865596]

>  <E0_kJmol>  (2) 
-351533

>  <H298_kJmol>  (2) 
-351520

$$$$

     RDKit          3D

 17 15  0  0  0  0  0  0  0  0999 V2000
   -2.5351    0.0174   -1.0251 C   0  0  0  0  0  0  0  0  0  1  0  0
   -1.5997   -0.5064    0.0164 C   0  0  0  0  0  3  0  0  0  2  0  0
   -1.9816   -0.6797    1.2360 N   0  0  0  0  0  0  0  0  0  3  0  0
   -2.6787   -0.7123   -1.8255 H   0  0  0  0  0  0  0  0  0  4  0  0
   -3.4962    0.2431   -0.5561 H   0  0  0  0  0  0  0  0  0  5  0  0
   -2.1224    0.9410   -1.4388 H   0  0  0  0  0  0  0  0  0  6  0  0
   -1.2039   -1.0439    1.7987 H   0  0  0  0  0  0  0  0  0  7  0  0
    2.8193   -1.2158   -0.2916 C   0  0  0  0  0  0  0  0  0  8  0  0
    1.8353   -0.3867   -0.1261 C   0  0  0  0  0  0  0  0  0  9  0  0
    0.8490    0.4445    0.0399 C   0  0  0  0  0  0  0  0  0 10  0  0
    0.9955    1.9149    0.2469 C   0  0  0  0  0  0  0  0  0 11  0  0
    3.2813   -1.7019    0.5597 H   0  0  0  0  0  0  0  0  0 12  0  0
    3.1970   -1.4339   -1.2837 H   0  0  0  0  0  0  0  0  0 13  0  0
   -0.3661   -0.0274    0.0282 H   0  0  0  0  0  0  0  0  0 14  0  0
    0.4745    2.4580   -0.5474 H   0  0  0  0  0  0  0  0  0 15  0  0
    2.0452    2.2254    0.2441 H   0  0  0  0  0  0  0  0  0 16  0  0
    0.5547    2.2030    1.2061 H   0  0  0  0  0  0  0  0  0 17  0  0
  1  5  1  0
  1  4  1  0
  1  6  1  0
  1  2  1  0
  2  3  1  0
  3  7  1  0
  8  9  1  0
  8 13  1  0
  8 12  1  0
  9 10  1  0
 10 14  1  0
 10 11  1  0
 11 16  1  0
 11 15  1  0
 11 17  1  0
M  RAD  1   2   2
M  END
>  <rmg_smiles>  (3) 
[CH2][C][CH]C.C[C][NH]

>  <rmg_adjacency_list>  (3) 
multiplicity 2
1  N u0 p1 c0 {7,S} {17,S}
2  C u0 p0 c0 {4,S} {8,S} {9,S} {10,S}
3  C u0 p0 c0 {7,S} {11,S} {12,S} {13,S}
4  C u0 p0 c0 {2,S} {6,S} {14,S}
5  C u0 p0 c0 {6,S} {15,S} {16,S}
6  C u0 p1 c0 {4,S} {5,S}
7  C u1 p1 c0 {1,S} {3,S}
8  H u0 p0 c0 {2,S}
9  H u0 p0 c0 {2,S}
10 H u0 p0 c0 {2,S}
11 H u0 p0 c0 {3,S}
12 H u0 p0 c0 {3,S}
13 H u0 p0 c0 {3,S}
14 H u0 p0 c0 {4,S}
15 H u0 p0 c0 {5,S}
16 H u0 p0 c0 {5,S}
17 H u0 p0 c0 {1,S}


>  <multiplicity>  (3) 
2

>  <reaction>  (3) 
rmg_rxn_16807

>  <type>  (3) 
ts

>  <role_mapnums>  (3) 
{"*2": 14, "*1": 10, "*3": 2, "*0": 9, "*4": 3}

>  <role_mapidx>  (3) 
{"*2": 13, "*1": 9, "*3": 1, "*0": 8, "*4": 2}

>  <ordered_mapped_smiles>  (3) 
[C:1]([CH:2][NH:3][H:7])([H:4])([H:5])[H:6].[CH:8]([CH2:9][CH:10]([C:11]([H:15])([H:16])[H:17])[H:14])([H:12])[H:13]

>  <mol_properties>  (3) 
{"1": {"label": "*3", "atom_type": "C2s"}, "2": {"label": "*4", "atom_type": "N3s"}, "8": {"label": "*0", "atom_type": "C2s"}, "9": {"label": "*1", "atom_type": "Cs"}, "13": {"label": "*2", "atom_type": "H0"}}

>  <level_of_theory>  (3) 
wb97xd/def2tzvp

>  <lot_method>  (3) 
wb97xd

>  <lot_basis>  (3) 
def2tzvp

>  <spin_multiplicity>  (3) 
2.0

>  <optical_isomers>  (3) 
2.0

>  <modes>  (3) 
IdealGasTranslation(mass=(96.0813, 'amu')),         NonlinearRotor(             inertia = ([147.48, 419.53, 469.757

>  <frequency_value>  (3) 
-1515.37

>  <frequency_units>  (3) 
cm^-1

>  <frequency_list>  (3) 
unknown

>  <arkane_path>  (3) 
/home/calvin/Dropbox/PersonalFolders/Calvin/ZEUS_Converged/rmg_rxn_16807/output/rxns/TS0/arkane/output.py

>  <path_exists>  (3) 
True

>  <E0_value>  (3) 
-759034.0

>  <E0_units>  (3) 
kJ/mol

>  <thermo_class>  (3) 
unknown

>  <Cp0_value>  (3) 
unknown

>  <Cp0_units>  (3) 
unknown

>  <CpInf_value>  (3) 
unknown

>  <CpInf_units>  (3) 
unknown

>  <Tmin_value>  (3) 
unknown

>  <Tmin_units>  (3) 
unknown

>  <Tmax_value>  (3) 
unknown

>  <Tmax_units>  (3) 
unknown

>  <polynomials>  (3) 
unknown

>  <H298_value>  (3) 
unknown

>  <H298_units>  (3) 
unknown

>  <S298_value>  (3) 
unknown

>  <S298_units>  (3) 
unknown

>  <Cp_T_value_list>  (3) 
unknown

>  <Cp_T_units>  (3) 
unknown

>  <T_list>  (3) 
unknown

>  <T_units>  (3) 
unknown

>  <yaml_path>  (3) 
unknown

>  <frequencies_cm1>  (3) 
unknown

>  <ZPE_kJmol>  (3) 
unknown

>  <E_elec_kJmol>  (3) 
unknown

>  <E0_minus_Eelec_plus_ZPE_kJmol>  (3) 
unknown

>  <rxn>  (3) 
unknown

>  <species_type>  (3) 
unknown

>  <species_folder>  (3) 
unknown

>  <frequencies_cm1_list>  (3) 
[]

>  <ts_imag_freq_cm1>  (3) 
-1533.7721

>  <ts_freq_out_path>  (3) 
/home/calvin/Dropbox/PersonalFolders/Calvin/ZEUS_Converged/rmg_rxn_16807/output/rxns/TS0/geometry/freq.out

>  <E0_kJmol>  (3) 
-759034

>  <H298_kJmol>  (3) 
unknown

$$$$

     RDKit          3D

  9  8  0  0  0  0  0  0  0  0999 V2000
   -2.1012    0.0000    0.0000 C   0  0  0  0  0  0  0  0  0  1  0  0
   -0.6874   -0.0000    0.0000 C   0  0  0  0  0  0  0  0  0  2  0  0
    0.5127   -0.0000    0.0000 C   0  0  0  0  0  3  0  0  0  3  0  0
    1.9753    0.0000    0.0000 C   0  0  0  0  0  0  0  0  0  4  0  0
   -2.6452   -0.9363    0.0000 H   0  0  0  0  0  0  0  0  0  5  0  0
   -2.6452    0.9363    0.0000 H   0  0  0  0  0  0  0  0  0  6  0  0
    2.3644   -0.6202   -0.8130 H   0  0  0  0  0  0  0  0  0  7  0  0
    2.3645   -0.3940    0.9437 H   0  0  0  0  0  0  0  0  0  8  0  0
    2.3644    1.0142   -0.1306 H   0  0  0  0  0  0  0  0  0  9  0  0
  1  5  1  0
  1  6  1  0
  1  2  1  0
  2  3  1  0
  3  4  1  0
  4  8  1  0
  4  9  1  0
  4  7  1  0
M  RAD  1   3   2
M  END
>  <rmg_smiles>  (4) 
[CH2]C[C]C

>  <rmg_adjacency_list>  (4) 
multiplicity 2
1 C u0 p0 c0 {3,S} {5,S} {6,S} {7,S}
2 C u0 p0 c0 {4,S} {8,S} {9,S}
3 C u1 p1 c0 {1,S} {4,S}
4 C u0 p1 c0 {2,S} {3,S}
5 H u0 p0 c0 {1,S}
6 H u0 p0 c0 {1,S}
7 H u0 p0 c0 {1,S}
8 H u0 p0 c0 {2,S}
9 H u0 p0 c0 {2,S}


>  <multiplicity>  (4) 
2

>  <reaction>  (4) 
rmg_rxn_16807

>  <type>  (4) 
r1

>  <role_mapnums>  (4) 
{}

>  <role_mapidx>  (4) 
{}

>  <ordered_mapped_smiles>  (4) 
[CH:1]([CH2:2][CH:3][C:4]([H:7])([H:8])[H:9])([H:5])[H:6]

>  <level_of_theory>  (4) 
wb97xd/def2tzvp

>  <lot_method>  (4) 
wb97xd

>  <lot_basis>  (4) 
def2tzvp

>  <spin_multiplicity>  (4) 
2.0

>  <optical_isomers>  (4) 
2.0

>  <modes>  (4) 
IdealGasTranslation(mass=(53.0391, 'amu')),         NonlinearRotor(             inertia = ([4.92862, 141.151, 142.917

>  <frequency_value>  (4) 
unknown

>  <frequency_units>  (4) 
unknown

>  <frequency_list>  (4) 
unknown

>  <arkane_path>  (4) 
/home/calvin/Dropbox/PersonalFolders/Calvin/ZEUS_Converged/rmg_rxn_16807/output/Species/rmg_rxn_16807_p2_sbr-CH2-sbrCtCC/arkane/output.py

>  <path_exists>  (4) 
True

>  <E0_value>  (4) 
-407620.0033975131

>  <E0_units>  (4) 
kJ/mol

>  <thermo_class>  (4) 
NASA

>  <Cp0_value>  (4) 
33.257888

>  <Cp0_units>  (4) 
J/(mol*K)

>  <CpInf_value>  (4) 
207.8618

>  <CpInf_units>  (4) 
J/(mol*K)

>  <Tmin_value>  (4) 
10.0

>  <Tmin_units>  (4) 
K

>  <Tmax_value>  (4) 
3000.0

>  <Tmax_units>  (4) 
K

>  <polynomials>  (4) 
[{"name": "polynomial1", "class": "NASAPolynomial", "Tmin_value": 10.0, "Tmin_units": "K", "Tmax_value": 245.84595194255434, "Tmax_units": "K", "coeffs": [3.9354444503861887, 0.006141494206478007, 0.00017101736772522354, -6.686089390458935e-07, 8.553290059782112e-10, -49025363.68546975, 9.03681196110223]}, {"name": "polynomial2", "class": "NASAPolynomial", "Tmin_value": 245.84595194255434, "Tmin_units": "K", "Tmax_value": 3000.0, "Tmax_units": "K", "coeffs": [3.318221924607803, 0.0263892934377049, -1.4789054385763142e-05, 4.097661503070868e-09, -4.479904178737164e-13, -49025364.17789022, 10.521322358527469]}]

>  <H298_value>  (4) 
-97419.4725219053

>  <H298_units>  (4) 
kcal/mol

>  <S298_value>  (4) 
72.86718958404663

>  <S298_units>  (4) 
cal/(mol*K)

>  <Cp_T_value_list>  (4) 
[19.893930638936695, 23.366512753787923, 26.429475518401574, 29.122061635959106, 33.54239174898248, 36.89871274371303, 42.10581723012409, 44.819528145482, 46.20334333419924]

>  <Cp_T_units>  (4) 
cal/(mol*K)

>  <T_list>  (4) 
[300.0, 400.0, 500.0, 600.0, 800.0, 1000.0, 1500.0, 2000.0, 2400.0]

>  <T_units>  (4) 
K

>  <yaml_path>  (4) 
/home/calvin/Dropbox/PersonalFolders/Calvin/ZEUS_Converged/rmg_rxn_16807/output/Species/rmg_rxn_16807_p2_sbr-CH2-sbrCtCC/rmg_rxn_16807_p2_sbr-CH2-sbrCtCC.yml

>  <frequencies_cm1>  (4) 
[150.33890961076, 229.75559483655996, 248.87328196744, 378.18548252836, 412.6577488347599, 633.94635077176, 734.2730062969599, 1028.89414446624, 1034.96455948912, 1051.3217185213598, 1149.2449291845599, 1402.56115065404, 1433.4488506233997, 1464.3296836074398, 1466.0670308933998, 2234.2148757739196, 2991.8837010561197, 3059.8187868268797, 3063.06000389792, 3116.6499573352003, 3222.16805376232]

>  <ZPE_kJmol>  (4) 
182.4703876241142

>  <E_elec_kJmol>  (4) 
-407802.4737851372

>  <E0_minus_Eelec_plus_ZPE_kJmol>  (4) 
0.0

>  <rxn>  (4) 
rmg_rxn_16807

>  <species_type>  (4) 
p1

>  <species_folder>  (4) 
rmg_rxn_16807_p2_sbr-CH2-sbrCtCC

>  <frequencies_cm1_list>  (4) 
[150.33890961076, 229.75559483655996, 248.87328196744, 378.18548252836, 412.6577488347599, 633.94635077176, 734.2730062969599, 1028.89414446624, 1034.96455948912, 1051.3217185213598, 1149.2449291845599, 1402.56115065404, 1433.4488506233997, 1464.3296836074398, 1466.0670308933998, 2234.2148757739196, 2991.8837010561197, 3059.8187868268797, 3063.06000389792, 3116.6499573352003, 3222.16805376232]

>  <E0_kJmol>  (4) 
-407620

>  <H298_kJmol>  (4) 
-407603

$$$$

     RDKit          3D

  7  6  0  0  0  0  0  0  0  0999 V2000
   -1.2010    0.1038   -0.0002 C   0  0  0  0  0  0  0  0  0  1  0  0
    0.1886   -0.4250   -0.0003 C   0  0  0  0  0  3  0  0  0  2  0  0
    1.3309    0.0272    0.0001 N   0  0  0  0  0  0  0  0  0  3  0  0
   -1.7355   -0.2512    0.8930 H   0  0  0  0  0  0  0  0  0  4  0  0
   -1.2181    1.2094   -0.0132 H   0  0  0  0  0  0  0  0  0  5  0  0
   -1.7468   -0.2736   -0.8772 H   0  0  0  0  0  0  0  0  0  6  0  0
    1.4589    1.0518   -0.0003 H   0  0  0  0  0  0  0  0  0  7  0  0
  1  5  1  0
  1  4  1  0
  1  6  1  0
  1  2  1  0
  2  3  1  0
  3  7  1  0
M  RAD  1   2   2
M  END
>  <rmg_smiles>  (5) 
C[C][NH]

>  <rmg_adjacency_list>  (5) 
multiplicity 2
1 N u0 p1 c0 {3,S} {7,S}
2 C u0 p0 c0 {3,S} {4,S} {5,S} {6,S}
3 C u1 p1 c0 {1,S} {2,S}
4 H u0 p0 c0 {2,S}
5 H u0 p0 c0 {2,S}
6 H u0 p0 c0 {2,S}
7 H u0 p0 c0 {1,S}


>  <multiplicity>  (5) 
2

>  <reaction>  (5) 
rmg_rxn_16807

>  <type>  (5) 
r2

>  <role_mapnums>  (5) 
{}

>  <role_mapidx>  (5) 
{}

>  <ordered_mapped_smiles>  (5) 
[C:1]([CH:2][NH:3][H:7])([H:4])([H:5])[H:6]

>  <level_of_theory>  (5) 
wb97xd/def2tzvp

>  <lot_method>  (5) 
wb97xd

>  <lot_basis>  (5) 
def2tzvp

>  <spin_multiplicity>  (5) 
2.0

>  <optical_isomers>  (5) 
2.0

>  <modes>  (5) 
IdealGasTranslation(mass=(42.0344, 'amu')),         NonlinearRotor(             inertia = ([6.52903, 53.6371, 57.0074

>  <frequency_value>  (5) 
unknown

>  <frequency_units>  (5) 
unknown

>  <frequency_list>  (5) 
unknown

>  <arkane_path>  (5) 
/home/calvin/Dropbox/PersonalFolders/Calvin/ZEUS_Converged/rmg_rxn_16807/output/Species/rmg_rxn_16807_r1_Csbr-C-sbr=N/arkane/output.py

>  <path_exists>  (5) 
True

>  <E0_value>  (5) 
-349811.51063825097

>  <E0_units>  (5) 
kJ/mol

>  <thermo_class>  (5) 
NASA

>  <Cp0_value>  (5) 
33.257888

>  <Cp0_units>  (5) 
J/(mol*K)

>  <CpInf_value>  (5) 
157.97496800000002

>  <CpInf_units>  (5) 
J/(mol*K)

>  <Tmin_value>  (5) 
10.0

>  <Tmin_units>  (5) 
K

>  <Tmax_value>  (5) 
3000.0

>  <Tmax_units>  (5) 
K

>  <polynomials>  (5) 
[{"name": "polynomial1", "class": "NASAPolynomial", "Tmin_value": 10.0, "Tmin_units": "K", "Tmax_value": 421.7158252063883, "Tmax_units": "K", "coeffs": [4.004829933042664, -0.002256909650364884, 7.325482382772258e-05, -1.3189318648642703e-07, 7.983842149499761e-11, -42072605.1745296, 8.076548017273746]}, {"name": "polynomial2", "class": "NASAPolynomial", "Tmin_value": 421.7158252063883, "Tmin_units": "K", "Tmax_value": 3000.0, "Tmax_units": "K", "coeffs": [1.4681932755119964, 0.0218035064748278, -1.2326553534023376e-05, 3.3990547364419676e-09, -3.659017051426523e-13, -42072391.228918746, 18.12413373941947]}]

>  <H298_value>  (5) 
-83603.9400894093

>  <H298_units>  (5) 
kcal/mol

>  <S298_value>  (5) 
64.51761756775637

>  <S298_units>  (5) 
cal/(mol*K)

>  <Cp_T_value_list>  (5) 
[13.922898060811892, 16.743282974476834, 19.25666911588841, 21.46086214316544, 25.06353643335781, 27.777767137170674, 31.91083998149293, 33.99514697398842, 35.06317115726873]

>  <Cp_T_units>  (5) 
cal/(mol*K)

>  <T_list>  (5) 
[300.0, 400.0, 500.0, 600.0, 800.0, 1000.0, 1500.0, 2000.0, 2400.0]

>  <T_units>  (5) 
K

>  <yaml_path>  (5) 
/home/calvin/Dropbox/PersonalFolders/Calvin/ZEUS_Converged/rmg_rxn_16807/output/Species/rmg_rxn_16807_r1_Csbr-C-sbr=N/rmg_rxn_16807_r1_Csbr-C-sbr=N.yml

>  <frequencies_cm1>  (5) 
[272.5849822774, 434.1308119304, 686.93200950088, 892.99650498344, 952.3753270454799, 1049.9208535160801, 1071.5793252153599, 1389.39027281028, 1454.99058357224, 1463.25843389752, 1857.38905633892, 2900.31245181392, 2997.1987476937993, 3022.38684984756, 3220.16289404888]

>  <ZPE_kJmol>  (5) 
141.55181770497208

>  <E_elec_kJmol>  (5) 
-349953.06245595595

>  <E0_minus_Eelec_plus_ZPE_kJmol>  (5) 
0.0

>  <rxn>  (5) 
rmg_rxn_16807

>  <species_type>  (5) 
r0

>  <species_folder>  (5) 
rmg_rxn_16807_r1_Csbr-C-sbr=N

>  <frequencies_cm1_list>  (5) 
[272.5849822774, 434.1308119304, 686.93200950088, 892.99650498344, 952.3753270454799, 1049.9208535160801, 1071.5793252153599, 1389.39027281028, 1454.99058357224, 1463.25843389752, 1857.38905633892, 2900.31245181392, 2997.1987476937993, 3022.38684984756, 3220.16289404888]

>  <E0_kJmol>  (5) 
-349812

>  <H298_kJmol>  (5) 
-349799

$$$$
