
     RDKit          3D

  6  5  0  0  0  0  0  0  0  0999 V2000
    0.2405    0.9889    0.5543 C   0  0  0  0  0  0  0  0  0  1  0  0
    0.2935   -0.3626    0.1819 N   0  0  0  0  0  0  0  0  0  2  0  0
   -0.4524   -0.6805   -0.7230 O   0  0  0  0  0  0  0  0  0  3  0  0
   -0.5934    1.0757    1.2484 H   0  0  0  0  0  0  0  0  0  4  0  0
   -0.0592    1.6792   -0.2356 H   0  0  0  0  0  0  0  0  0  5  0  0
    1.0816    1.2869    1.1732 H   0  0  0  0  0  0  0  0  0  6  0  0
  1  5  1  0
  1  2  1  0
  1  4  1  0
  1  6  1  0
  2  3  1  0
M  END
>  <rmg_smiles>  (1) 
C[N][O]

>  <rmg_adjacency_list>  (1) 
1 O u0 p2 c0 {2,S}
2 N u0 p1 c0 {1,S} {3,S}
3 C u0 p0 c0 {2,S} {4,S} {5,S} {6,S}
4 H u0 p0 c0 {3,S}
5 H u0 p0 c0 {3,S}
6 H u0 p0 c0 {3,S}


>  <multiplicity>  (1) 
1

>  <reaction>  (1) 
rmg_rxn_605

>  <type>  (1) 
r1h

>  <role_mapnums>  (1) 
{"r1h_a": 1, "r1h_h": 4}

>  <role_mapidx>  (1) 
{"r1h_a": 0, "r1h_h": 3}

>  <ordered_mapped_smiles>  (1) 
[C:1]([NH:2][OH:3])([H:4])([H:5])[H:6]

>  <mol_properties>  (1) 
{"0": {"label": "donator", "atom_type": "Cs"}, "3": {"label": "d_hydrogen", "atom_type": "H0"}}

>  <level_of_theory>  (1) 
wb97xd/def2tzvp

>  <lot_method>  (1) 
wb97xd

>  <lot_basis>  (1) 
def2tzvp

>  <spin_multiplicity>  (1) 
1.0

>  <optical_isomers>  (1) 
1.0

>  <modes>  (1) 
IdealGasTranslation(mass=(45.0215, 'amu')),         NonlinearRotor(             inertia = ([8.07699, 43.5338, 48.4889

>  <frequency_value>  (1) 
unknown

>  <frequency_units>  (1) 
unknown

>  <frequency_list>  (1) 
unknown

>  <arkane_path>  (1) 
/home/calvin/Dropbox/PersonalFolders/Calvin/ATLAS_Converged/rmg_rxn_605/output/Species/rmg_rxn_605_r1_CN=O/arkane/output.py

>  <path_exists>  (1) 
True

>  <E0_value>  (1) 
-445718.776356613

>  <E0_units>  (1) 
kJ/mol

>  <thermo_class>  (1) 
NASA

>  <Cp0_value>  (1) 
33.257888

>  <Cp0_units>  (1) 
J/(mol*K)

>  <CpInf_value>  (1) 
133.031552

>  <CpInf_units>  (1) 
J/(mol*K)

>  <Tmin_value>  (1) 
10.0

>  <Tmin_units>  (1) 
K

>  <Tmax_value>  (1) 
3000.0

>  <Tmax_units>  (1) 
K

>  <polynomials>  (1) 
[{"name": "polynomial1", "class": "NASAPolynomial", "Tmin_value": 10.0, "Tmin_units": "K", "Tmax_value": 511.90687785810604, "Tmax_units": "K", "coeffs": [3.9789352478099715, 0.001161265651303563, 3.748997662509957e-05, -5.8505700772999076e-08, 2.9515965803367326e-11, -53607585.080265164, 6.986782485664598]}, {"name": "polynomial2", "class": "NASAPolynomial", "Tmin_value": 511.90687785810604, "Tmin_units": "K", "Tmax_value": 3000.0, "Tmax_units": "K", "coeffs": [1.9343545091495096, 0.0171365636524948, -9.318546376811868e-06, 2.45056971641056e-09, -2.5158502413706336e-13, -53607375.74155318, 15.481740257492172]}]

>  <H298_value>  (1) 
-106526.42729706276

>  <H298_units>  (1) 
kcal/mol

>  <S298_value>  (1) 
62.01661564600373

>  <S298_units>  (1) 
cal/(mol*K)

>  <Cp_T_value_list>  (1) 
[12.640299105229849, 14.810812294003128, 16.818915965173034, 18.596941456685723, 21.524185210914364, 23.74981328654779, 27.164107834916802, 28.83932173030383, 29.643096991481094]

>  <Cp_T_units>  (1) 
cal/(mol*K)

>  <T_list>  (1) 
[300.0, 400.0, 500.0, 600.0, 800.0, 1000.0, 1500.0, 2000.0, 2400.0]

>  <T_units>  (1) 
K

>  <yaml_path>  (1) 
/home/calvin/Dropbox/PersonalFolders/Calvin/ATLAS_Converged/rmg_rxn_605/output/Species/rmg_rxn_605_r1_CN=O/rmg_rxn_605_r1_CN=O.yml

>  <frequencies_cm1>  (1) 
[159.67800964595997, 581.79159726636, 871.00155100348, 967.4689607788398, 1152.46554529964, 1368.8854546447599, 1439.8214130003598, 1441.90210955232, 1701.8724397968801, 3006.5378477289996, 3098.8369974151196, 3119.62336197876]

>  <ZPE_kJmol>  (1) 
113.10626417033984

>  <E_elec_kJmol>  (1) 
-445831.88262078335

>  <E0_minus_Eelec_plus_ZPE_kJmol>  (1) 
0.0

>  <rxn>  (1) 
rmg_rxn_605

>  <species_type>  (1) 
r0

>  <species_folder>  (1) 
rmg_rxn_605_r1_CN=O

>  <frequencies_cm1_list>  (1) 
[159.67800964595997, 581.79159726636, 871.00155100348, 967.4689607788398, 1152.46554529964, 1368.8854546447599, 1439.8214130003598, 1441.90210955232, 1701.8724397968801, 3006.5378477289996, 3098.8369974151196, 3119.62336197876]

>  <E0_kJmol>  (1) 
-445719

>  <H298_kJmol>  (1) 
-445707

$$$$

     RDKit          3D

  9  8  0  0  0  0  0  0  0  0999 V2000
    1.7217    0.8479   -0.7031 H   0  0  0  0  0  0  0  0  0  1  0  0
   -1.0618   -0.4753    0.5192 C   0  0  0  0  0  0  0  0  0  2  0  0
    0.1759   -0.3489   -0.3635 C   0  0  0  0  0  0  0  0  0  3  0  0
    0.8635    0.8704   -0.1161 N   0  0  0  0  0  2  0  0  0  4  0  0
   -1.7529    0.3465    0.3327 H   0  0  0  0  0  0  0  0  0  5  0  0
   -1.5743   -1.4145    0.3082 H   0  0  0  0  0  0  0  0  0  6  0  0
   -0.7857   -0.4602    1.5735 H   0  0  0  0  0  0  0  0  0  7  0  0
    0.8583   -1.1967   -0.2006 H   0  0  0  0  0  0  0  0  0  8  0  0
   -0.0955   -0.3974   -1.4290 H   0  0  0  0  0  0  0  0  0  9  0  0
  1  4  1  0
  2  7  1  0
  2  5  1  0
  2  6  1  0
  2  3  1  0
  3  4  1  0
  3  8  1  0
  3  9  1  0
M  RAD  1   4   2
M  END
>  <rmg_smiles>  (2) 
CC[NH]

>  <rmg_adjacency_list>  (2) 
multiplicity 2
1 N u1 p1 c0 {2,S} {9,S}
2 C u0 p0 c0 {1,S} {3,S} {4,S} {5,S}
3 C u0 p0 c0 {2,S} {6,S} {7,S} {8,S}
4 H u0 p0 c0 {2,S}
5 H u0 p0 c0 {2,S}
6 H u0 p0 c0 {3,S}
7 H u0 p0 c0 {3,S}
8 H u0 p0 c0 {3,S}
9 H u0 p0 c0 {1,S}


>  <multiplicity>  (2) 
2

>  <reaction>  (2) 
rmg_rxn_605

>  <type>  (2) 
r2h

>  <role_mapnums>  (2) 
{"r2h_a": 4, "r2h_h": 1}

>  <role_mapidx>  (2) 
{"r2h_a": 3, "r2h_h": 0}

>  <ordered_mapped_smiles>  (2) 
[H:1][N:4][C:3]([C:2]([H:5])([H:6])[H:7])([H:8])[H:9]

>  <mol_properties>  (2) 
{"0": {"label": "a_hydrogen", "atom_type": "H0"}, "3": {"label": "acceptor", "atom_type": "N3s"}}

>  <level_of_theory>  (2) 
wb97xd/def2tzvp

>  <lot_method>  (2) 
wb97xd

>  <lot_basis>  (2) 
def2tzvp

>  <spin_multiplicity>  (2) 
2.0

>  <optical_isomers>  (2) 
1.0

>  <modes>  (2) 
IdealGasTranslation(mass=(44.05, 'amu')),         NonlinearRotor(             inertia = ([13.5046, 54.0855, 61.3855

>  <frequency_value>  (2) 
unknown

>  <frequency_units>  (2) 
unknown

>  <frequency_list>  (2) 
unknown

>  <arkane_path>  (2) 
/home/calvin/Dropbox/PersonalFolders/Calvin/ATLAS_Converged/rmg_rxn_605/output/Species/rmg_rxn_605_p2_CCsbr-NH-sbr/arkane/output.py

>  <path_exists>  (2) 
True

>  <E0_value>  (2) 
-352969.95105561113

>  <E0_units>  (2) 
kJ/mol

>  <thermo_class>  (2) 
NASA

>  <Cp0_value>  (2) 
33.257888

>  <Cp0_units>  (2) 
J/(mol*K)

>  <CpInf_value>  (2) 
207.8618

>  <CpInf_units>  (2) 
J/(mol*K)

>  <Tmin_value>  (2) 
10.0

>  <Tmin_units>  (2) 
K

>  <Tmax_value>  (2) 
3000.0

>  <Tmax_units>  (2) 
K

>  <polynomials>  (2) 
[{"name": "polynomial1", "class": "NASAPolynomial", "Tmin_value": 10.0, "Tmin_units": "K", "Tmax_value": 494.98074748977484, "Tmax_units": "K", "coeffs": [3.96628511452133, 0.0018994782140610337, 6.762100082474034e-05, -1.0861292876060174e-07, 5.65918620315742e-11, -42452477.255166434, 7.84782322933281]}, {"name": "polynomial2", "class": "NASAPolynomial", "Tmin_value": 494.98074748977484, "Tmin_units": "K", "Tmax_value": 3000.0, "Tmax_units": "K", "coeffs": [0.5324488734331831, 0.029632058000791692, -1.6369867882593552e-05, 4.442442345004726e-09, -4.746642285780625e-13, -42452137.11437419, 22.001362446936305]}]

>  <H298_value>  (2) 
-84358.50970291646

>  <H298_units>  (2) 
kcal/mol

>  <S298_value>  (2) 
65.90798772684775

>  <S298_units>  (2) 
cal/(mol*K)

>  <Cp_T_value_list>  (2) 
[16.191487631841138, 19.95743690999345, 23.412570840096805, 26.46279891443655, 31.48030762408747, 35.29759074982531, 41.21185768118182, 44.23919996224711, 45.751558882208336]

>  <Cp_T_units>  (2) 
cal/(mol*K)

>  <T_list>  (2) 
[300.0, 400.0, 500.0, 600.0, 800.0, 1000.0, 1500.0, 2000.0, 2400.0]

>  <T_units>  (2) 
K

>  <yaml_path>  (2) 
/home/calvin/Dropbox/PersonalFolders/Calvin/ATLAS_Converged/rmg_rxn_605/output/Species/rmg_rxn_605_p2_CCsbr-NH-sbr/rmg_rxn_605_p2_CCsbr-NH-sbr.yml

>  <frequencies_cm1>  (2) 
[215.54780220947998, 313.0658607388, 421.33075129391995, 726.5957167091999, 902.32873803332, 1018.4151248679198, 1029.1207549817998, 1087.9845531448398, 1242.70459938976, 1258.69094121472, 1381.9189927821199, 1408.32255133752, 1429.1295168571198, 1475.1657864423998, 1485.8096136883998, 2923.26191675336, 2945.2843386746, 3021.78942212472, 3097.67647689604, 3102.6619082383595, 3400.85387877404]

>  <ZPE_kJmol>  (2) 
202.6932728728076

>  <E_elec_kJmol>  (2) 
-353172.644328484

>  <E0_minus_Eelec_plus_ZPE_kJmol>  (2) 
0.0

>  <rxn>  (2) 
rmg_rxn_605

>  <species_type>  (2) 
p1

>  <species_folder>  (2) 
rmg_rxn_605_p2_CCsbr-NH-sbr

>  <frequencies_cm1_list>  (2) 
[215.54780220947998, 313.0658607388, 421.33075129391995, 726.5957167091999, 902.32873803332, 1018.4151248679198, 1029.1207549817998, 1087.9845531448398, 1242.70459938976, 1258.69094121472, 1381.9189927821199, 1408.32255133752, 1429.1295168571198, 1475.1657864423998, 1485.8096136883998, 2923.26191675336, 2945.2843386746, 3021.78942212472, 3097.67647689604, 3102.6619082383595, 3400.85387877404]

>  <E0_kJmol>  (2) 
-352970

>  <H298_kJmol>  (2) 
-352956

$$$$

     RDKit          3D

 14 12  0  0  0  0  0  0  0  0999 V2000
    1.5247    0.8292   -0.4446 C   0  0  0  0  0  0  0  0  0  1  0  0
    1.5777   -0.5223   -0.8170 N   0  0  0  0  0  0  0  0  0  2  0  0
    0.8318   -0.8402   -1.7219 O   0  0  0  0  0  1  0  0  0  3  0  0
    0.4984    0.9360    0.4097 H   0  0  0  0  0  0  0  0  0  4  0  0
    1.2250    1.5195   -1.2345 H   0  0  0  0  0  0  0  0  0  5  0  0
    2.3658    1.1271    0.1744 H   0  0  0  0  0  0  0  0  0  6  0  0
   -2.4638   -0.3826    1.7543 C   0  0  0  0  0  0  0  0  0  7  0  0
   -1.2262   -0.2562    0.8715 C   0  0  0  0  0  0  0  0  0  8  0  0
   -0.5385    0.9631    1.1190 N   0  0  0  0  0  2  0  0  0  9  0  0
   -3.1550    0.4392    1.5678 H   0  0  0  0  0  0  0  0  0 10  0  0
   -2.9763   -1.3217    1.5433 H   0  0  0  0  0  0  0  0  0 11  0  0
   -2.1878   -0.3675    2.8085 H   0  0  0  0  0  0  0  0  0 12  0  0
   -0.5437   -1.1039    1.0345 H   0  0  0  0  0  0  0  0  0 13  0  0
   -1.4976   -0.3046   -0.1940 H   0  0  0  0  0  0  0  0  0 14  0  0
  1  5  1  0
  1  2  1  0
  1  6  1  0
  2  3  1  0
  4  9  1  0
  7 12  1  0
  7  8  1  0
  7 11  1  0
  7 10  1  0
  8 14  1  0
  8 13  1  0
  8  9  1  0
M  RAD  2   3   2   9   2
M  END
>  <rmg_smiles>  (3) 
[CH2][N][O].CC[NH]

>  <rmg_adjacency_list>  (3) 
multiplicity 3
1  O u1 p2 c0 {3,S}
2  N u1 p1 c0 {4,S} {14,S}
3  N u0 p1 c0 {1,S} {6,S}
4  C u0 p0 c0 {2,S} {5,S} {7,S} {8,S}
5  C u0 p0 c0 {4,S} {9,S} {10,S} {11,S}
6  C u0 p0 c0 {3,S} {12,S} {13,S}
7  H u0 p0 c0 {4,S}
8  H u0 p0 c0 {4,S}
9  H u0 p0 c0 {5,S}
10 H u0 p0 c0 {5,S}
11 H u0 p0 c0 {5,S}
12 H u0 p0 c0 {6,S}
13 H u0 p0 c0 {6,S}
14 H u0 p0 c0 {2,S}


>  <multiplicity>  (3) 
3

>  <reaction>  (3) 
rmg_rxn_605

>  <type>  (3) 
ts

>  <role_mapnums>  (3) 
{"*2": 4, "*1": 1, "*3": 9, "*0": 8, "*4": 2}

>  <role_mapidx>  (3) 
{"*2": 3, "*1": 0, "*3": 8, "*0": 7, "*4": 1}

>  <ordered_mapped_smiles>  (3) 
[CH:1]([NH:2][O:3])([H:5])[H:6].[H:4][N:9][C:8]([C:7]([H:10])([H:11])[H:12])([H:13])[H:14]

>  <mol_properties>  (3) 
{"0": {"label": "*1", "atom_type": "Cs"}, "1": {"label": "*4", "atom_type": "N3s"}, "3": {"label": "*2", "atom_type": "H0"}, "7": {"label": "*0", "atom_type": "Cs"}, "8": {"label": "*3", "atom_type": "N3s"}}

>  <level_of_theory>  (3) 
wb97xd/def2tzvp

>  <lot_method>  (3) 
wb97xd

>  <lot_basis>  (3) 
def2tzvp

>  <spin_multiplicity>  (3) 
3.0

>  <optical_isomers>  (3) 
2.0

>  <modes>  (3) 
IdealGasTranslation(mass=(88.0637, 'amu')),         NonlinearRotor(             inertia = ([73.7769, 322.52, 376.457

>  <frequency_value>  (3) 
-1975.46

>  <frequency_units>  (3) 
cm^-1

>  <frequency_list>  (3) 
unknown

>  <arkane_path>  (3) 
/home/calvin/Dropbox/PersonalFolders/Calvin/ATLAS_Converged/rmg_rxn_605/output/rxns/TS0/arkane/output.py

>  <path_exists>  (3) 
True

>  <E0_value>  (3) 
-796970.0

>  <E0_units>  (3) 
kJ/mol

>  <thermo_class>  (3) 
unknown

>  <Cp0_value>  (3) 
unknown

>  <Cp0_units>  (3) 
unknown

>  <CpInf_value>  (3) 
unknown

>  <CpInf_units>  (3) 
unknown

>  <Tmin_value>  (3) 
unknown

>  <Tmin_units>  (3) 
unknown

>  <Tmax_value>  (3) 
unknown

>  <Tmax_units>  (3) 
unknown

>  <polynomials>  (3) 
unknown

>  <H298_value>  (3) 
unknown

>  <H298_units>  (3) 
unknown

>  <S298_value>  (3) 
unknown

>  <S298_units>  (3) 
unknown

>  <Cp_T_value_list>  (3) 
unknown

>  <Cp_T_units>  (3) 
unknown

>  <T_list>  (3) 
unknown

>  <T_units>  (3) 
unknown

>  <yaml_path>  (3) 
unknown

>  <frequencies_cm1>  (3) 
unknown

>  <ZPE_kJmol>  (3) 
unknown

>  <E_elec_kJmol>  (3) 
unknown

>  <E0_minus_Eelec_plus_ZPE_kJmol>  (3) 
unknown

>  <rxn>  (3) 
unknown

>  <species_type>  (3) 
unknown

>  <species_folder>  (3) 
unknown

>  <frequencies_cm1_list>  (3) 
[]

>  <ts_imag_freq_cm1>  (3) 
-1999.4572

>  <ts_freq_out_path>  (3) 
/home/calvin/Dropbox/PersonalFolders/Calvin/ATLAS_Converged/rmg_rxn_605/output/rxns/TS0/geometry/freq.out

>  <E0_kJmol>  (3) 
-796970

>  <H298_kJmol>  (3) 
unknown

$$$$

     RDKit          3D

  5  4  0  0  0  0  0  0  0  0999 V2000
   -0.4986    0.0189   -0.0212 C   0  0  0  0  0  0  0  0  0  1  0  0
    0.6799   -0.4410    0.1054 N   0  0  0  0  0  0  0  0  0  2  0  0
    1.7950    0.0236    0.0595 O   0  0  0  0  0  1  0  0  0  3  0  0
   -1.3180   -0.6753    0.0776 H   0  0  0  0  0  0  0  0  0  4  0  0
   -0.6584    1.0737   -0.2213 H   0  0  0  0  0  0  0  0  0  5  0  0
  1  5  1  0
  1  4  1  0
  1  2  1  0
  2  3  1  0
M  RAD  1   3   2
M  END
>  <rmg_smiles>  (4) 
[CH2][N][O]

>  <rmg_adjacency_list>  (4) 
multiplicity 2
1 O u1 p2 c0 {2,S}
2 N u0 p1 c0 {1,S} {3,S}
3 C u0 p0 c0 {2,S} {4,S} {5,S}
4 H u0 p0 c0 {3,S}
5 H u0 p0 c0 {3,S}


>  <multiplicity>  (4) 
2

>  <reaction>  (4) 
rmg_rxn_605

>  <type>  (4) 
r1

>  <role_mapnums>  (4) 
{}

>  <role_mapidx>  (4) 
{}

>  <ordered_mapped_smiles>  (4) 
[CH:1]([NH:2][O:3])([H:4])[H:5]

>  <level_of_theory>  (4) 
wb97xd/def2tzvp

>  <lot_method>  (4) 
wb97xd

>  <lot_basis>  (4) 
def2tzvp

>  <spin_multiplicity>  (4) 
2.0

>  <optical_isomers>  (4) 
1.0

>  <modes>  (4) 
IdealGasTranslation(mass=(44.0136, 'amu')),         NonlinearRotor(             inertia = ([3.87779, 42.4322, 46.31

>  <frequency_value>  (4) 
unknown

>  <frequency_units>  (4) 
unknown

>  <frequency_list>  (4) 
unknown

>  <arkane_path>  (4) 
/home/calvin/Dropbox/PersonalFolders/Calvin/ATLAS_Converged/rmg_rxn_605/output/Species/rmg_rxn_605_p1_sbr-CH2-sbrN=O/arkane/output.py

>  <path_exists>  (4) 
True

>  <E0_value>  (4) 
-444125.8698569815

>  <E0_units>  (4) 
kJ/mol

>  <thermo_class>  (4) 
NASA

>  <Cp0_value>  (4) 
33.257888

>  <Cp0_units>  (4) 
J/(mol*K)

>  <CpInf_value>  (4) 
108.088136

>  <CpInf_units>  (4) 
J/(mol*K)

>  <Tmin_value>  (4) 
10.0

>  <Tmin_units>  (4) 
K

>  <Tmax_value>  (4) 
3000.0

>  <Tmax_units>  (4) 
K

>  <polynomials>  (4) 
[{"name": "polynomial1", "class": "NASAPolynomial", "Tmin_value": 10.0, "Tmin_units": "K", "Tmax_value": 562.3844127225133, "Tmax_units": "K", "coeffs": [4.053937176279305, -0.0047398271406768585, 5.7437859425445556e-05, -9.385630136446055e-08, 5.059118934882412e-11, -53416003.88498011, 6.9306587758022244]}, {"name": "polynomial2", "class": "NASAPolynomial", "Tmin_value": 562.3844127225133, "Tmin_units": "K", "Tmax_value": 3000.0, "Tmax_units": "K", "coeffs": [2.1822483082936537, 0.014293062944345295, -8.584392971883197e-06, 2.4949936009645337e-09, -2.805584349724308e-13, -53415883.824056074, 14.078927000603649]}]

>  <H298_value>  (4) 
-106145.96131022584

>  <H298_units>  (4) 
kcal/mol

>  <S298_value>  (4) 
60.48266213431546

>  <S298_units>  (4) 
cal/(mol*K)

>  <Cp_T_value_list>  (4) 
[11.281500234397477, 13.187887263233034, 14.851189314724579, 16.235999449361433, 18.451624012184585, 20.08142406383569, 22.469810630137335, 23.65136644158371, 24.287701175564127]

>  <Cp_T_units>  (4) 
cal/(mol*K)

>  <T_list>  (4) 
[300.0, 400.0, 500.0, 600.0, 800.0, 1000.0, 1500.0, 2000.0, 2400.0]

>  <T_units>  (4) 
K

>  <yaml_path>  (4) 
/home/calvin/Dropbox/PersonalFolders/Calvin/ATLAS_Converged/rmg_rxn_605/output/Species/rmg_rxn_605_p1_sbr-CH2-sbrN=O/rmg_rxn_605_p1_sbr-CH2-sbrN=O.yml

>  <frequencies_cm1>  (4) 
[458.37813709531997, 701.3458116875601, 834.5447259396, 1127.25684218992, 1261.9046903444798, 1486.4825782497596, 1744.7430291496398, 3101.34344705692, 3245.26172539348]

>  <ZPE_kJmol>  (4) 
83.50690918001081

>  <E_elec_kJmol>  (4) 
-444209.3767661615

>  <E0_minus_Eelec_plus_ZPE_kJmol>  (4) 
0.0

>  <rxn>  (4) 
rmg_rxn_605

>  <species_type>  (4) 
p0

>  <species_folder>  (4) 
rmg_rxn_605_p1_sbr-CH2-sbrN=O

>  <frequencies_cm1_list>  (4) 
[458.37813709531997, 701.3458116875601, 834.5447259396, 1127.25684218992, 1261.9046903444798, 1486.4825782497596, 1744.7430291496398, 3101.34344705692, 3245.26172539348]

>  <E0_kJmol>  (4) 
-444126

>  <H298_kJmol>  (4) 
-444115

$$$$

     RDKit          3D

  8  7  0  0  0  0  0  0  0  0999 V2000
   -0.7853    0.0326    0.0393 C   0  0  0  0  0  0  0  0  0  1  0  0
    0.7379   -0.1211   -0.0579 C   0  0  0  0  0  0  0  0  0  2  0  0
    1.1315   -0.8282   -1.2106 N   0  0  0  0  0  1  0  0  0  3  0  0
   -1.2679   -0.9438    0.0768 H   0  0  0  0  0  0  0  0  0  4  0  0
   -1.0464    0.5840    0.9431 H   0  0  0  0  0  0  0  0  0  5  0  0
   -1.1718    0.5760   -0.8227 H   0  0  0  0  0  0  0  0  0  6  0  0
    1.2178    0.8698   -0.0686 H   0  0  0  0  0  0  0  0  0  7  0  0
    1.1219   -0.6479    0.8296 H   0  0  0  0  0  0  0  0  0  8  0  0
  1  5  1  0
  1  4  1  0
  1  6  1  0
  1  2  1  0
  2  3  1  0
  2  7  1  0
  2  8  1  0
M  RAD  1   3   3
M  END
>  <rmg_smiles>  (5) 
CC[N]

>  <rmg_adjacency_list>  (5) 
multiplicity 3
1 N u2 p2 c0 {3,S}
2 C u0 p0 c0 {3,S} {4,S} {5,S} {6,S}
3 C u0 p0 c0 {1,S} {2,S} {7,S} {8,S}
4 H u0 p0 c0 {2,S}
5 H u0 p0 c0 {2,S}
6 H u0 p0 c0 {2,S}
7 H u0 p0 c0 {3,S}
8 H u0 p0 c0 {3,S}


>  <multiplicity>  (5) 
3

>  <reaction>  (5) 
rmg_rxn_605

>  <type>  (5) 
r2

>  <role_mapnums>  (5) 
{}

>  <role_mapidx>  (5) 
{}

>  <ordered_mapped_smiles>  (5) 
[C:1]([C:2]([N:3])([H:7])[H:8])([H:4])([H:5])[H:6]

>  <level_of_theory>  (5) 
wb97xd/def2tzvp

>  <lot_method>  (5) 
wb97xd

>  <lot_basis>  (5) 
def2tzvp

>  <spin_multiplicity>  (5) 
3.0

>  <optical_isomers>  (5) 
1.0

>  <modes>  (5) 
IdealGasTranslation(mass=(43.0422, 'amu')),         NonlinearRotor(             inertia = ([13.2978, 49.7979, 56.7993

>  <frequency_value>  (5) 
unknown

>  <frequency_units>  (5) 
unknown

>  <frequency_list>  (5) 
unknown

>  <arkane_path>  (5) 
/home/calvin/Dropbox/PersonalFolders/Calvin/ATLAS_Converged/rmg_rxn_605/output/Species/rmg_rxn_605_r2_CCsbr-N-sbr/arkane/output.py

>  <path_exists>  (5) 
True

>  <E0_value>  (5) 
-351303.23848085233

>  <E0_units>  (5) 
kJ/mol

>  <thermo_class>  (5) 
NASA

>  <Cp0_value>  (5) 
33.257888

>  <Cp0_units>  (5) 
J/(mol*K)

>  <CpInf_value>  (5) 
182.918384

>  <CpInf_units>  (5) 
J/(mol*K)

>  <Tmin_value>  (5) 
10.0

>  <Tmin_units>  (5) 
K

>  <Tmax_value>  (5) 
3000.0

>  <Tmax_units>  (5) 
K

>  <polynomials>  (5) 
[{"name": "polynomial1", "class": "NASAPolynomial", "Tmin_value": 10.0, "Tmin_units": "K", "Tmax_value": 538.90863830612, "Tmax_units": "K", "coeffs": [4.011017893648797, -0.000996526599198243, 6.34493776247714e-05, -9.34151768570848e-08, 4.485816232808959e-11, -42252019.791687176, 8.154035590068796]}, {"name": "polynomial2", "class": "NASAPolynomial", "Tmin_value": 538.90863830612, "Tmin_units": "K", "Tmax_value": 3000.0, "Tmax_units": "K", "coeffs": [0.1889273408420262, 0.02737276498056165, -1.5514283778665416e-05, 4.268848130444583e-09, -4.577869697015348e-13, -42251607.842699245, 24.230537973141246]}]

>  <H298_value>  (5) 
-83960.41291340075

>  <H298_units>  (5) 
kcal/mol

>  <S298_value>  (5) 
65.16030182938087

>  <S298_units>  (5) 
cal/(mol*K)

>  <Cp_T_value_list>  (5) 
[14.434363041238354, 17.753912153606223, 20.869318835111557, 23.62825526207762, 28.131170270711078, 31.514054089972188, 36.62571062079461, 39.15495452180056, 40.43085357674264]

>  <Cp_T_units>  (5) 
cal/(mol*K)

>  <T_list>  (5) 
[300.0, 400.0, 500.0, 600.0, 800.0, 1000.0, 1500.0, 2000.0, 2400.0]

>  <T_units>  (5) 
K

>  <yaml_path>  (5) 
/home/calvin/Dropbox/PersonalFolders/Calvin/ATLAS_Converged/rmg_rxn_605/output/Species/rmg_rxn_605_r2_CCsbr-N-sbr/rmg_rxn_605_r2_CCsbr-N-sbr.yml

>  <frequencies_cm1>  (5) 
[219.85340200512002, 386.0619146904, 760.5529591165998, 905.2609407649599, 1021.4297314234, 1026.9988565179199, 1083.5347466574801, 1232.4178553804, 1304.0885811652397, 1390.88040862472, 1421.98785212432, 1476.3263069614798, 1486.33150457272, 2930.4447833980794, 2964.9719855870403, 3028.6838753859997, 3108.6361854667603, 3113.1134598954]

>  <ZPE_kJmol>  (5) 
172.63060648664862

>  <E_elec_kJmol>  (5) 
-351475.869087339

>  <E0_minus_Eelec_plus_ZPE_kJmol>  (5) 
0.0

>  <rxn>  (5) 
rmg_rxn_605

>  <species_type>  (5) 
r1

>  <species_folder>  (5) 
rmg_rxn_605_r2_CCsbr-N-sbr

>  <frequencies_cm1_list>  (5) 
[219.85340200512002, 386.0619146904, 760.5529591165998, 905.2609407649599, 1021.4297314234, 1026.9988565179199, 1083.5347466574801, 1232.4178553804, 1304.0885811652397, 1390.88040862472, 1421.98785212432, 1476.3263069614798, 1486.33150457272, 2930.4447833980794, 2964.9719855870403, 3028.6838753859997, 3108.6361854667603, 3113.1134598954]

>  <E0_kJmol>  (5) 
-351303

>  <H298_kJmol>  (5) 
-351290

$$$$
