
     RDKit          3D

 21 21  0  0  0  0  0  0  0  0999 V2000
    2.9076   -2.4356    0.0250 C   0  0  0  0  0  0  0  0  0  1  0  0
    2.3020   -1.0689    0.0436 C   0  0  0  0  0  0  0  0  0  2  0  0
    1.0020   -0.8189   -0.0078 C   0  0  0  0  0  0  0  0  0  3  0  0
    0.3938    0.5690    0.0114 C   0  0  0  0  0  0  0  0  0  4  0  0
   -0.4412    0.7540    1.2462 C   0  0  0  0  0  0  0  0  0  5  0  0
   -1.7707    0.8682    1.2170 C   0  0  0  0  0  0  0  0  0  6  0  0
   -2.5200    0.7924   -0.0358 C   0  0  0  0  0  0  0  0  0  7  0  0
   -1.7298    0.9148   -1.2546 C   0  0  0  0  0  0  0  0  0  8  0  0
   -0.3980    0.8021   -1.2425 C   0  0  0  0  0  0  0  0  0  9  0  0
    2.1400   -3.2072   -0.0395 H   0  0  0  0  0  0  0  0  0 10  0  0
    3.5837   -2.5517   -0.8262 H   0  0  0  0  0  0  0  0  0 11  0  0
    3.4993   -2.6133    0.9269 H   0  0  0  0  0  0  0  0  0 12  0  0
    2.9967   -0.2330    0.1031 H   0  0  0  0  0  0  0  0  0 13  0  0
    0.2789   -1.6284   -0.0732 H   0  0  0  0  0  0  0  0  0 14  0  0
    1.2258    1.2840    0.0406 H   0  0  0  0  0  0  0  0  0 15  0  0
    0.0893    0.7735    2.1913 H   0  0  0  0  0  0  0  0  0 16  0  0
   -2.3262    0.9792    2.1409 H   0  0  0  0  0  0  0  0  0 17  0  0
   -2.8148   -0.2546   -0.0786 H   0  0  0  0  0  0  0  0  0 18  0  0
   -3.4921    1.2821   -0.0436 H   0  0  0  0  0  0  0  0  0 19  0  0
   -2.2529    1.0546   -2.1932 H   0  0  0  0  0  0  0  0  0 20  0  0
    0.1631    0.8535   -2.1683 H   0  0  0  0  0  0  0  0  0 21  0  0
  1 11  1  0
  1 10  1  0
  1 12  1  0
  1  2  1  0
  2 13  1  0
  2  3  1  0
  3  4  1  0
  3 14  1  0
  4  9  1  0
  4  5  1  0
  4 15  1  0
  5 16  1  0
  5  6  1  0
  6  7  1  0
  6 17  1  0
  7 18  1  0
  7 19  1  0
  7  8  1  0
  8 20  1  0
  8  9  1  0
  9 21  1  0
M  END
>  <rmg_smiles>  (1) 
C[CH][CH]C1[CH][CH]C[CH][CH]1

>  <rmg_adjacency_list>  (1) 
1  C u0 p0 c0 {4,S} {5,S} {6,S} {10,S}
2  C u0 p0 c0 {7,S} {8,S} {11,S} {12,S}
3  C u0 p0 c0 {9,S} {13,S} {14,S} {15,S}
4  C u0 p0 c0 {1,S} {9,S} {17,S}
5  C u0 p0 c0 {1,S} {7,S} {18,S}
6  C u0 p0 c0 {1,S} {8,S} {21,S}
7  C u0 p0 c0 {2,S} {5,S} {19,S}
8  C u0 p0 c0 {2,S} {6,S} {20,S}
9  C u0 p0 c0 {3,S} {4,S} {16,S}
10 H u0 p0 c0 {1,S}
11 H u0 p0 c0 {2,S}
12 H u0 p0 c0 {2,S}
13 H u0 p0 c0 {3,S}
14 H u0 p0 c0 {3,S}
15 H u0 p0 c0 {3,S}
16 H u0 p0 c0 {9,S}
17 H u0 p0 c0 {4,S}
18 H u0 p0 c0 {5,S}
19 H u0 p0 c0 {7,S}
20 H u0 p0 c0 {8,S}
21 H u0 p0 c0 {6,S}


>  <multiplicity>  (1) 
1

>  <reaction>  (1) 
rmg_rxn_14504

>  <type>  (1) 
r1h

>  <role_mapnums>  (1) 
{"r1h_a": 7, "r1h_h": 18}

>  <role_mapidx>  (1) 
{"r1h_a": 6, "r1h_h": 17}

>  <ordered_mapped_smiles>  (1) 
[C:1]([CH:2]([CH:3]([C:4]1([H:15])[CH:5]([H:16])[CH:6]([H:17])[C:7]([H:18])([H:19])[CH:8]([H:20])[CH:9]1[H:21])[H:14])[H:13])([H:10])([H:11])[H:12]

>  <mol_properties>  (1) 
{"6": {"label": "donator", "atom_type": "Cs"}, "17": {"label": "d_hydrogen", "atom_type": "H0"}}

>  <level_of_theory>  (1) 
wb97xd/def2tzvp

>  <lot_method>  (1) 
wb97xd

>  <lot_basis>  (1) 
def2tzvp

>  <spin_multiplicity>  (1) 
1.0

>  <optical_isomers>  (1) 
1.0

>  <modes>  (1) 
IdealGasTranslation(mass=(120.094, 'amu')),         NonlinearRotor(             inertia = ([123.061, 594.151, 661.976

>  <frequency_value>  (1) 
unknown

>  <frequency_units>  (1) 
unknown

>  <frequency_list>  (1) 
unknown

>  <arkane_path>  (1) 
/home/calvin/Dropbox/PersonalFolders/Calvin/ZEUS_Converged/rmg_rxn_14504/output/Species/rmg_rxn_14504_r2_CC=CC1C=CCC=C1/arkane/output.py

>  <path_exists>  (1) 
True

>  <E0_value>  (1) 
-918815.0709366724

>  <E0_units>  (1) 
kJ/mol

>  <thermo_class>  (1) 
NASA

>  <Cp0_value>  (1) 
33.257888

>  <Cp0_units>  (1) 
J/(mol*K)

>  <CpInf_value>  (1) 
507.182792

>  <CpInf_units>  (1) 
J/(mol*K)

>  <Tmin_value>  (1) 
10.0

>  <Tmin_units>  (1) 
K

>  <Tmax_value>  (1) 
3000.0

>  <Tmax_units>  (1) 
K

>  <polynomials>  (1) 
[{"name": "polynomial1", "class": "NASAPolynomial", "Tmin_value": 10.0, "Tmin_units": "K", "Tmax_value": 901.1280485034096, "Tmax_units": "K", "coeffs": [3.782678753749136, 0.03600655838493266, 7.228729204428836e-05, -1.1076713487425375e-07, 4.32379566160694e-11, -110507936.44167316, 12.400038942902446]}, {"name": "polynomial2", "class": "NASAPolynomial", "Tmin_value": 901.1280485034096, "Tmin_units": "K", "Tmax_value": 3000.0, "Tmax_units": "K", "coeffs": [2.6978426378448512, 0.0720574491543808, -3.971619642107754e-05, 1.0560331311752001e-08, -1.093490898192907e-12, -110509009.13458604, 10.484024988074898]}]

>  <H298_value>  (1) 
-219595.79899758575

>  <H298_units>  (1) 
kcal/mol

>  <S298_value>  (1) 
93.39495901504417

>  <S298_units>  (1) 
cal/(mol*K)

>  <Cp_T_value_list>  (1) 
[36.663994440941316, 47.2340382882735, 57.061166897423526, 65.75264292884052, 79.18876088197807, 88.44248492250144, 102.39656777961856, 109.16669508112354, 112.43027292598441]

>  <Cp_T_units>  (1) 
cal/(mol*K)

>  <T_list>  (1) 
[300.0, 400.0, 500.0, 600.0, 800.0, 1000.0, 1500.0, 2000.0, 2400.0]

>  <T_units>  (1) 
K

>  <yaml_path>  (1) 
/home/calvin/Dropbox/PersonalFolders/Calvin/ZEUS_Converged/rmg_rxn_14504/output/Species/rmg_rxn_14504_r2_CC=CC1C=CCC=C1/rmg_rxn_14504_r2_CC=CC1C=CCC=C1.yml

>  <frequencies_cm1>  (1) 
[56.30241263867999, 68.40890775784, 151.25908564364, 198.27733412968, 208.46107335923998, 304.53019798604, 330.48053551031995, 382.48421533868, 467.99878352864, 529.19735670048, 579.53235909608, 580.431934173, 713.5003757039599, 743.28935802212, 819.7875744869199, 871.68138255016, 902.5072796516399, 937.38469809192, 967.7642411475998, 973.4981738898, 974.37028102544, 1002.6485265731999, 1013.1069452155599, 1025.26150923196, 1065.6943187961201, 1079.17421097928, 1094.30217963924, 1137.66032494972, 1181.89057739584, 1218.38173738632, 1222.72167210856, 1240.4728291607598, 1320.99509902308, 1336.6861604792798, 1346.62955522264, 1369.7712957510398, 1400.3705823369598, 1403.7491391144001, 1429.6445407561198, 1458.05325902496, 1466.7811973666799, 1478.42073748408, 1711.67162784852, 1738.65888015612, 1758.51133471624, 2982.6407388154, 2987.33775677428, 3005.5352678722797, 3005.9266860355197, 3062.7029206612797, 3089.6146361303595, 3106.06106597176, 3110.06451841332, 3128.9143931167196, 3129.64229356064, 3151.3351001865194, 3153.7316780632]

>  <ZPE_kJmol>  (1) 
479.5585928474634

>  <E_elec_kJmol>  (1) 
-919294.62952952

>  <E0_minus_Eelec_plus_ZPE_kJmol>  (1) 
0.0

>  <rxn>  (1) 
rmg_rxn_14504

>  <species_type>  (1) 
r1

>  <species_folder>  (1) 
rmg_rxn_14504_r2_CC=CC1C=CCC=C1

>  <frequencies_cm1_list>  (1) 
[56.30241263867999, 68.40890775784, 151.25908564364, 198.27733412968, 208.46107335923998, 304.53019798604, 330.48053551031995, 382.48421533868, 467.99878352864, 529.19735670048, 579.53235909608, 580.431934173, 713.5003757039599, 743.28935802212, 819.7875744869199, 871.68138255016, 902.5072796516399, 937.38469809192, 967.7642411475998, 973.4981738898, 974.37028102544, 1002.6485265731999, 1013.1069452155599, 1025.26150923196, 1065.6943187961201, 1079.17421097928, 1094.30217963924, 1137.66032494972, 1181.89057739584, 1218.38173738632, 1222.72167210856, 1240.4728291607598, 1320.99509902308, 1336.6861604792798, 1346.62955522264, 1369.7712957510398, 1400.3705823369598, 1403.7491391144001, 1429.6445407561198, 1458.05325902496, 1466.7811973666799, 1478.42073748408, 1711.67162784852, 1738.65888015612, 1758.51133471624, 2982.6407388154, 2987.33775677428, 3005.5352678722797, 3005.9266860355197, 3062.7029206612797, 3089.6146361303595, 3106.06106597176, 3110.06451841332, 3128.9143931167196, 3129.64229356064, 3151.3351001865194, 3153.7316780632]

>  <E0_kJmol>  (1) 
-918815

>  <H298_kJmol>  (1) 
-918789

$$$$

     RDKit          3D

  6  5  0  0  0  0  0  0  0  0999 V2000
   -1.1377   -0.0893    0.3564 C   0  0  0  0  0  0  0  0  0  1  0  0
    0.0269    0.3288    0.0202 N   0  0  0  0  0  0  0  0  0  2  0  0
    1.0216   -0.2933   -0.3535 O   0  0  0  0  0  0  0  0  0  3  0  0
   -1.8620    0.6536    0.6531 H   0  0  0  0  0  0  0  0  0  4  0  0
   -1.3609   -1.1482    0.3362 H   0  0  0  0  0  0  0  0  0  5  0  0
    0.1487    1.3599    0.0807 H   0  0  0  0  0  0  0  0  0  6  0  0
  1  5  1  0
  1  2  1  0
  1  4  1  0
  2  6  1  0
  2  3  1  0
M  END
>  <rmg_smiles>  (2) 
[CH2]N[O]

>  <rmg_adjacency_list>  (2) 
1 O u0 p2 c0 {2,S}
2 N u0 p1 c0 {1,S} {3,S} {6,S}
3 C u0 p0 c0 {2,S} {4,S} {5,S}
4 H u0 p0 c0 {3,S}
5 H u0 p0 c0 {3,S}
6 H u0 p0 c0 {2,S}


>  <multiplicity>  (2) 
1

>  <reaction>  (2) 
rmg_rxn_14504

>  <type>  (2) 
r2h

>  <role_mapnums>  (2) 
{"r2h_a": 2, "r2h_h": 6}

>  <role_mapidx>  (2) 
{"r2h_a": 1, "r2h_h": 5}

>  <ordered_mapped_smiles>  (2) 
[CH:1]([N:2]([OH:3])[H:6])([H:4])[H:5]

>  <mol_properties>  (2) 
{"1": {"label": "acceptor", "atom_type": "N3s"}, "5": {"label": "a_hydrogen", "atom_type": "H0"}}

>  <level_of_theory>  (2) 
wb97xd/def2tzvp

>  <lot_method>  (2) 
wb97xd

>  <lot_basis>  (2) 
def2tzvp

>  <spin_multiplicity>  (2) 
1.0

>  <optical_isomers>  (2) 
1.0

>  <modes>  (2) 
IdealGasTranslation(mass=(45.0215, 'amu')),         NonlinearRotor(             inertia = ([6.5989, 42.2276, 48.8265

>  <frequency_value>  (2) 
unknown

>  <frequency_units>  (2) 
unknown

>  <frequency_list>  (2) 
unknown

>  <arkane_path>  (2) 
/home/calvin/Dropbox/PersonalFolders/Calvin/ZEUS_Converged/rmg_rxn_14504/output/Species/rmg_rxn_14504_p1_sbr-O--sbrsbr-NHp-sbr=C/arkane/output.py

>  <path_exists>  (2) 
True

>  <E0_value>  (2) 
-445722.5493367257

>  <E0_units>  (2) 
kJ/mol

>  <thermo_class>  (2) 
NASA

>  <Cp0_value>  (2) 
33.257888

>  <Cp0_units>  (2) 
J/(mol*K)

>  <CpInf_value>  (2) 
133.031552

>  <CpInf_units>  (2) 
J/(mol*K)

>  <Tmin_value>  (2) 
10.0

>  <Tmin_units>  (2) 
K

>  <Tmax_value>  (2) 
3000.0

>  <Tmax_units>  (2) 
K

>  <polynomials>  (2) 
[{"name": "polynomial1", "class": "NASAPolynomial", "Tmin_value": 10.0, "Tmin_units": "K", "Tmax_value": 641.7375040406037, "Tmax_units": "K", "coeffs": [4.094367130627748, -0.007322766377414413, 6.930178714767224e-05, -1.0017674611983648e-07, 4.7643578338984425e-11, -53608041.17011218, 6.5530030192872575]}, {"name": "polynomial2", "class": "NASAPolynomial", "Tmin_value": 641.7375040406037, "Tmin_units": "K", "Tmax_value": 3000.0, "Tmax_units": "K", "coeffs": [1.210188870971142, 0.01884277704700057, -1.099688218346422e-05, 3.1239382273078514e-09, -3.4465205381840144e-13, -53607839.59986326, 17.874469480705592]}]

>  <H298_value>  (2) 
-106527.60256411196

>  <H298_units>  (2) 
kcal/mol

>  <S298_value>  (2) 
59.58479947819955

>  <S298_units>  (2) 
cal/(mol*K)

>  <Cp_T_value_list>  (2) 
[11.557272870601103, 14.033474210537962, 16.3230356371326, 18.254044252504862, 21.27243512745201, 23.51932402239082, 26.88662579549736, 28.58653621907438, 29.492939441493622]

>  <Cp_T_units>  (2) 
cal/(mol*K)

>  <T_list>  (2) 
[300.0, 400.0, 500.0, 600.0, 800.0, 1000.0, 1500.0, 2000.0, 2400.0]

>  <T_units>  (2) 
K

>  <yaml_path>  (2) 
/home/calvin/Dropbox/PersonalFolders/Calvin/ZEUS_Converged/rmg_rxn_14504/output/Species/rmg_rxn_14504_p1_sbr-O--sbrsbr-NHp-sbr=C/rmg_rxn_14504_p1_sbr-O--sbrsbr-NHp-sbr=C.yml

>  <frequencies_cm1>  (2) 
[578.37870556232, 710.4583012071998, 811.4373203378, 1002.7927332649199, 1085.32016284068, 1314.01824193796, 1448.88583362276, 1500.14101205124, 1677.48090794024, 3159.69908830628, 3284.7125560568797, 3316.0054081601197]

>  <ZPE_kJmol>  (2) 
118.96464783156542

>  <E_elec_kJmol>  (2) 
-445841.5139845573

>  <E0_minus_Eelec_plus_ZPE_kJmol>  (2) 
0.0

>  <rxn>  (2) 
rmg_rxn_14504

>  <species_type>  (2) 
p0

>  <species_folder>  (2) 
rmg_rxn_14504_p1_sbr-O--sbrsbr-NHp-sbr=C

>  <frequencies_cm1_list>  (2) 
[578.37870556232, 710.4583012071998, 811.4373203378, 1002.7927332649199, 1085.32016284068, 1314.01824193796, 1448.88583362276, 1500.14101205124, 1677.48090794024, 3159.69908830628, 3284.7125560568797, 3316.0054081601197]

>  <E0_kJmol>  (2) 
-445723

>  <H298_kJmol>  (2) 
-445711

$$$$

     RDKit          3D

 26 25  0  0  0  0  0  0  0  0999 V2000
   -3.4134   -1.6325    0.1698 C   0  0  0  0  0  0  0  0  0  1  0  0
   -2.2487   -1.2144   -0.1663 N   0  0  0  0  0  0  0  0  0  2  0  0
   -1.2541   -1.8366   -0.5401 O   0  0  0  0  0  1  0  0  0  3  0  0
   -4.1377   -0.8896    0.4665 H   0  0  0  0  0  0  0  0  0  4  0  0
   -3.6366   -2.6914    0.1496 H   0  0  0  0  0  0  0  0  0  5  0  0
    3.6931   -1.8525    0.0237 C   0  0  0  0  0  0  0  0  0  6  0  0
    3.0875   -0.4857    0.0423 C   0  0  0  0  0  0  0  0  0  7  0  0
    1.7875   -0.2358   -0.0091 C   0  0  0  0  0  0  0  0  0  8  0  0
    1.1792    1.1522    0.0102 C   0  0  0  0  0  0  0  0  0  9  0  0
    0.3443    1.3371    1.2450 C   0  0  0  0  0  0  0  0  0 10  0  0
   -0.9852    1.4513    1.2157 C   0  0  0  0  0  0  0  0  0 11  0  0
   -1.7346    1.3755   -0.0371 C   0  0  0  0  0  0  0  0  0 12  0  0
   -0.9443    1.4979   -1.2559 C   0  0  0  0  0  0  0  0  0 13  0  0
    0.3875    1.3852   -1.2438 C   0  0  0  0  0  0  0  0  0 14  0  0
    2.9255   -2.6241   -0.0408 H   0  0  0  0  0  0  0  0  0 15  0  0
    4.3691   -1.9686   -0.8274 H   0  0  0  0  0  0  0  0  0 16  0  0
    4.2847   -2.0302    0.9257 H   0  0  0  0  0  0  0  0  0 17  0  0
    3.7821    0.3502    0.1018 H   0  0  0  0  0  0  0  0  0 18  0  0
    1.0644   -1.0452   -0.0745 H   0  0  0  0  0  0  0  0  0 19  0  0
    2.0113    1.8672    0.0394 H   0  0  0  0  0  0  0  0  0 20  0  0
    0.8747    1.3567    2.1900 H   0  0  0  0  0  0  0  0  0 21  0  0
   -1.5408    1.5624    2.1396 H   0  0  0  0  0  0  0  0  0 22  0  0
   -2.0934    0.1010   -0.0892 H   0  0  0  0  0  0  0  0  0 23  0  0
   -2.7066    1.8653   -0.0449 H   0  0  0  0  0  0  0  0  0 24  0  0
   -1.4675    1.6378   -2.1944 H   0  0  0  0  0  0  0  0  0 25  0  0
    0.9485    1.4367   -2.1696 H   0  0  0  0  0  0  0  0  0 26  0  0
  1  4  1  0
  1  5  1  0
  1  2  1  0
  2  3  1  0
  6  7  1  0
  6 16  1  0
  6 17  1  0
  6 15  1  0
  7 18  1  0
  7  8  1  0
  8 19  1  0
  8  9  1  0
  9 20  1  0
  9 14  1  0
  9 10  1  0
 10 21  1  0
 10 11  1  0
 11 12  1  0
 11 22  1  0
 12 24  1  0
 12 23  1  0
 12 13  1  0
 13 25  1  0
 13 14  1  0
 14 26  1  0
M  RAD  1   3   2
M  END
>  <rmg_smiles>  (3) 
C[CH][CH]C1[CH][CH]C[CH][CH]1.[CH2][N][O]

>  <rmg_adjacency_list>  (3) 
multiplicity 2
1  O u1 p2 c0 {2,S}
2  N u0 p1 c0 {1,S} {12,S}
3  C u0 p0 c0 {6,S} {7,S} {8,S} {13,S}
4  C u0 p0 c0 {9,S} {10,S} {14,S} {15,S}
5  C u0 p0 c0 {11,S} {16,S} {17,S} {18,S}
6  C u0 p0 c0 {3,S} {11,S} {20,S}
7  C u0 p0 c0 {3,S} {9,S} {21,S}
8  C u0 p0 c0 {3,S} {10,S} {24,S}
9  C u0 p0 c0 {4,S} {7,S} {22,S}
10 C u0 p0 c0 {4,S} {8,S} {23,S}
11 C u0 p0 c0 {5,S} {6,S} {19,S}
12 C u0 p0 c0 {2,S} {25,S} {26,S}
13 H u0 p0 c0 {3,S}
14 H u0 p0 c0 {4,S}
15 H u0 p0 c0 {4,S}
16 H u0 p0 c0 {5,S}
17 H u0 p0 c0 {5,S}
18 H u0 p0 c0 {5,S}
19 H u0 p0 c0 {11,S}
20 H u0 p0 c0 {6,S}
21 H u0 p0 c0 {7,S}
22 H u0 p0 c0 {9,S}
23 H u0 p0 c0 {10,S}
24 H u0 p0 c0 {8,S}
25 H u0 p0 c0 {12,S}
26 H u0 p0 c0 {12,S}


>  <multiplicity>  (3) 
2

>  <reaction>  (3) 
rmg_rxn_14504

>  <type>  (3) 
ts

>  <role_mapnums>  (3) 
{"*2": 23, "*1": 12, "*3": 2, "*0": 11, "*4": 3}

>  <role_mapidx>  (3) 
{"*2": 22, "*1": 11, "*3": 1, "*0": 10, "*4": 2}

>  <ordered_mapped_smiles>  (3) 
[CH:1]([NH:2][O:3])([H:4])[H:5].[C:6]([CH:7]([CH:8]([C:9]1([H:20])[CH:10]([H:21])[CH:11]([H:22])[C:12]([H:23])([H:24])[CH:13]([H:25])[CH:14]1[H:26])[H:19])[H:18])([H:15])([H:16])[H:17]

>  <mol_properties>  (3) 
{"1": {"label": "*3", "atom_type": "N3s"}, "2": {"label": "*4", "atom_type": "O2s"}, "10": {"label": "*0", "atom_type": "Cs"}, "11": {"label": "*1", "atom_type": "Cs"}, "22": {"label": "*2", "atom_type": "H0"}}

>  <level_of_theory>  (3) 
wb97xd/def2tzvp

>  <lot_method>  (3) 
wb97xd

>  <lot_basis>  (3) 
def2tzvp

>  <spin_multiplicity>  (3) 
2.0

>  <optical_isomers>  (3) 
2.0

>  <modes>  (3) 
IdealGasTranslation(mass=(164.108, 'amu')),         NonlinearRotor(             inertia = ([426.21, 844.508, 1072.65

>  <frequency_value>  (3) 
-1929.38

>  <frequency_units>  (3) 
cm^-1

>  <frequency_list>  (3) 
unknown

>  <arkane_path>  (3) 
/home/calvin/Dropbox/PersonalFolders/Calvin/ZEUS_Converged/rmg_rxn_14504/output/rxns/TS0/arkane/output.py

>  <path_exists>  (3) 
True

>  <E0_value>  (3) 
-1362870.0

>  <E0_units>  (3) 
kJ/mol

>  <thermo_class>  (3) 
unknown

>  <Cp0_value>  (3) 
unknown

>  <Cp0_units>  (3) 
unknown

>  <CpInf_value>  (3) 
unknown

>  <CpInf_units>  (3) 
unknown

>  <Tmin_value>  (3) 
unknown

>  <Tmin_units>  (3) 
unknown

>  <Tmax_value>  (3) 
unknown

>  <Tmax_units>  (3) 
unknown

>  <polynomials>  (3) 
unknown

>  <H298_value>  (3) 
unknown

>  <H298_units>  (3) 
unknown

>  <S298_value>  (3) 
unknown

>  <S298_units>  (3) 
unknown

>  <Cp_T_value_list>  (3) 
unknown

>  <Cp_T_units>  (3) 
unknown

>  <T_list>  (3) 
unknown

>  <T_units>  (3) 
unknown

>  <yaml_path>  (3) 
unknown

>  <frequencies_cm1>  (3) 
unknown

>  <ZPE_kJmol>  (3) 
unknown

>  <E_elec_kJmol>  (3) 
unknown

>  <E0_minus_Eelec_plus_ZPE_kJmol>  (3) 
unknown

>  <rxn>  (3) 
unknown

>  <species_type>  (3) 
unknown

>  <species_folder>  (3) 
unknown

>  <frequencies_cm1_list>  (3) 
[]

>  <ts_imag_freq_cm1>  (3) 
-1952.8091

>  <ts_freq_out_path>  (3) 
/home/calvin/Dropbox/PersonalFolders/Calvin/ZEUS_Converged/rmg_rxn_14504/output/rxns/TS0/geometry/freq.out

>  <E0_kJmol>  (3) 
-1.36287e+06

>  <H298_kJmol>  (3) 
unknown

$$$$

     RDKit          3D

 20 20  0  0  0  0  0  0  0  0999 V2000
    3.4966    0.0809    0.0134 C   0  0  0  0  0  0  0  0  0  1  0  0
    2.1510   -0.5658    0.0876 C   0  0  0  0  0  0  0  0  0  2  0  0
    0.9936    0.0751    0.0193 C   0  0  0  0  0  0  0  0  0  3  0  0
   -0.3683   -0.5864    0.0952 C   0  0  0  0  0  0  0  0  0  4  0  0
   -1.1263   -0.1007    1.2973 C   0  0  0  0  0  3  0  0  0  5  0  0
   -2.3297    0.5159    1.2045 C   0  0  0  0  0  0  0  0  0  6  0  0
   -2.9612    0.7154   -0.0431 C   0  0  0  0  0  0  0  0  0  7  0  0
   -2.3348    0.2483   -1.2198 C   0  0  0  0  0  0  0  0  0  8  0  0
   -1.1315   -0.3743   -1.1808 C   0  0  0  0  0  0  0  0  0  9  0  0
    4.0769   -0.1202    0.9176 H   0  0  0  0  0  0  0  0  0 10  0  0
    3.4128    1.1617   -0.1057 H   0  0  0  0  0  0  0  0  0 11  0  0
    4.0732   -0.3129   -0.8276 H   0  0  0  0  0  0  0  0  0 12  0  0
    2.1415   -1.6475    0.2071 H   0  0  0  0  0  0  0  0  0 13  0  0
    0.9777    1.1561   -0.1000 H   0  0  0  0  0  0  0  0  0 14  0  0
   -0.1789   -1.6648    0.2138 H   0  0  0  0  0  0  0  0  0 15  0  0
   -0.6548   -0.2441    2.2623 H   0  0  0  0  0  0  0  0  0 16  0  0
   -2.8226    0.8604    2.1061 H   0  0  0  0  0  0  0  0  0 17  0  0
   -3.9203    1.2118   -0.0959 H   0  0  0  0  0  0  0  0  0 18  0  0
   -2.8316    0.3880   -2.1728 H   0  0  0  0  0  0  0  0  0 19  0  0
   -0.6640   -0.7249   -2.0932 H   0  0  0  0  0  0  0  0  0 20  0  0
  1 11  1  0
  1 10  1  0
  1 12  1  0
  1  2  1  0
  2 13  1  0
  2  3  1  0
  3  4  1  0
  3 14  1  0
  4  9  1  0
  4  5  1  0
  4 15  1  0
  5 16  1  0
  5  6  1  0
  6  7  1  0
  6 17  1  0
  7 18  1  0
  7  8  1  0
  8 19  1  0
  8  9  1  0
  9 20  1  0
M  RAD  1   5   2
M  END
>  <rmg_smiles>  (4) 
C[CH][CH]C1[CH][CH][CH][CH][CH]1

>  <rmg_adjacency_list>  (4) 
multiplicity 2
1  C u0 p0 c0 {3,S} {4,S} {5,S} {10,S}
2  C u0 p0 c0 {6,S} {11,S} {12,S} {13,S}
3  C u0 p0 c0 {1,S} {6,S} {15,S}
4  C u1 p0 c0 {1,S} {7,S} {16,S}
5  C u0 p0 c0 {1,S} {8,S} {17,S}
6  C u0 p0 c0 {2,S} {3,S} {14,S}
7  C u0 p0 c0 {4,S} {9,S} {18,S}
8  C u0 p0 c0 {5,S} {9,S} {20,S}
9  C u0 p0 c0 {7,S} {8,S} {19,S}
10 H u0 p0 c0 {1,S}
11 H u0 p0 c0 {2,S}
12 H u0 p0 c0 {2,S}
13 H u0 p0 c0 {2,S}
14 H u0 p0 c0 {6,S}
15 H u0 p0 c0 {3,S}
16 H u0 p0 c0 {4,S}
17 H u0 p0 c0 {5,S}
18 H u0 p0 c0 {7,S}
19 H u0 p0 c0 {9,S}
20 H u0 p0 c0 {8,S}


>  <multiplicity>  (4) 
2

>  <reaction>  (4) 
rmg_rxn_14504

>  <type>  (4) 
r1

>  <role_mapnums>  (4) 
{}

>  <role_mapidx>  (4) 
{}

>  <ordered_mapped_smiles>  (4) 
[C:1]([CH:2]([CH:3]([C:4]1([H:15])[C:5]([H:16])[CH:6]([H:17])[CH:7]([H:18])[CH:8]([H:19])[CH:9]1[H:20])[H:14])[H:13])([H:10])([H:11])[H:12]

>  <level_of_theory>  (4) 
wb97xd/def2tzvp

>  <lot_method>  (4) 
wb97xd

>  <lot_basis>  (4) 
def2tzvp

>  <spin_multiplicity>  (4) 
2.0

>  <optical_isomers>  (4) 
1.0

>  <modes>  (4) 
IdealGasTranslation(mass=(119.086, 'amu')),         NonlinearRotor(             inertia = ([118.163, 582.663, 651.606

>  <frequency_value>  (4) 
unknown

>  <frequency_units>  (4) 
unknown

>  <frequency_list>  (4) 
unknown

>  <arkane_path>  (4) 
/home/calvin/Dropbox/PersonalFolders/Calvin/ZEUS_Converged/rmg_rxn_14504/output/Species/rmg_rxn_14504_p2_CC=CC1sbr-CH-sbrC=CC=C1/arkane/output.py

>  <path_exists>  (4) 
True

>  <E0_value>  (4) 
-917193.1107626656

>  <E0_units>  (4) 
kJ/mol

>  <thermo_class>  (4) 
NASA

>  <Cp0_value>  (4) 
33.257888

>  <Cp0_units>  (4) 
J/(mol*K)

>  <CpInf_value>  (4) 
482.239376

>  <CpInf_units>  (4) 
J/(mol*K)

>  <Tmin_value>  (4) 
10.0

>  <Tmin_units>  (4) 
K

>  <Tmax_value>  (4) 
3000.0

>  <Tmax_units>  (4) 
K

>  <polynomials>  (4) 
[{"name": "polynomial1", "class": "NASAPolynomial", "Tmin_value": 10.0, "Tmin_units": "K", "Tmax_value": 801.5006130358141, "Tmax_units": "K", "coeffs": [3.7418969876697656, 0.033027325361813485, 8.82654728294995e-05, -1.432751135922189e-07, 6.160054740955542e-11, -110312854.2309099, 13.272527699565524]}, {"name": "polynomial2", "class": "NASAPolynomial", "Tmin_value": 801.5006130358141, "Tmin_units": "K", "Tmax_value": 3000.0, "Tmax_units": "K", "coeffs": [1.7852001417896757, 0.07271357740227118, -4.2003929134704184e-05, 1.16562705280266e-08, -1.2528608958415535e-12, -110313501.64225152, 16.2840594997492]}]

>  <H298_value>  (4) 
-219208.247506362

>  <H298_units>  (4) 
kcal/mol

>  <S298_value>  (4) 
93.8147488532354

>  <S298_units>  (4) 
cal/(mol*K)

>  <Cp_T_value_list>  (4) 
[36.21589161158936, 46.6649135476274, 56.163568580793644, 64.32561377752106, 76.56385902668775, 85.24769725984068, 98.0567780717605, 104.1316640910892, 107.15915712803202]

>  <Cp_T_units>  (4) 
cal/(mol*K)

>  <T_list>  (4) 
[300.0, 400.0, 500.0, 600.0, 800.0, 1000.0, 1500.0, 2000.0, 2400.0]

>  <T_units>  (4) 
K

>  <yaml_path>  (4) 
/home/calvin/Dropbox/PersonalFolders/Calvin/ZEUS_Converged/rmg_rxn_14504/output/Species/rmg_rxn_14504_p2_CC=CC1sbr-CH-sbrC=CC=C1/rmg_rxn_14504_p2_CC=CC1sbr-CH-sbrC=CC=C1.yml

>  <frequencies_cm1>  (4) 
[61.44578464336, 67.02864370852, 151.97325211692, 208.39927049136, 233.52556977723998, 333.31660044747997, 333.44020618324, 441.65702784111994, 451.0579307442, 583.7280871265999, 588.96759692576, 614.48531437488, 674.17315077632, 749.9365998118799, 795.7256579256399, 818.3180396284399, 885.9097761331999, 933.6559250631601, 972.48872704776, 972.52306197436, 983.3042289267601, 987.8845081351999, 998.8648176618798, 1026.2640890886798, 1065.83165850252, 1087.2978546128397, 1101.27216973904, 1120.30745304608, 1166.62526902948, 1192.25972522904, 1223.010085492, 1293.9803787741998, 1317.1564542291999, 1336.3290772426399, 1338.53337953036, 1392.6658248079198, 1403.9208137474, 1445.0197208876, 1466.7949313373201, 1477.76150689336, 1543.1077391984797, 1603.5990128823598, 1736.7635922077998, 2929.43533655604, 3006.93613287756, 3064.0831847106, 3090.7064867962395, 3108.4233089218396, 3114.5349258566403, 3145.0586756040398, 3146.4320726680403, 3163.8879493514796, 3165.22701148888, 3186.34299134788]

>  <ZPE_kJmol>  (4) 
444.42106480245934

>  <E_elec_kJmol>  (4) 
-917637.531827468

>  <E0_minus_Eelec_plus_ZPE_kJmol>  (4) 
0.0

>  <rxn>  (4) 
rmg_rxn_14504

>  <species_type>  (4) 
p1

>  <species_folder>  (4) 
rmg_rxn_14504_p2_CC=CC1sbr-CH-sbrC=CC=C1

>  <frequencies_cm1_list>  (4) 
[61.44578464336, 67.02864370852, 151.97325211692, 208.39927049136, 233.52556977723998, 333.31660044747997, 333.44020618324, 441.65702784111994, 451.0579307442, 583.7280871265999, 588.96759692576, 614.48531437488, 674.17315077632, 749.9365998118799, 795.7256579256399, 818.3180396284399, 885.9097761331999, 933.6559250631601, 972.48872704776, 972.52306197436, 983.3042289267601, 987.8845081351999, 998.8648176618798, 1026.2640890886798, 1065.83165850252, 1087.2978546128397, 1101.27216973904, 1120.30745304608, 1166.62526902948, 1192.25972522904, 1223.010085492, 1293.9803787741998, 1317.1564542291999, 1336.3290772426399, 1338.53337953036, 1392.6658248079198, 1403.9208137474, 1445.0197208876, 1466.7949313373201, 1477.76150689336, 1543.1077391984797, 1603.5990128823598, 1736.7635922077998, 2929.43533655604, 3006.93613287756, 3064.0831847106, 3090.7064867962395, 3108.4233089218396, 3114.5349258566403, 3145.0586756040398, 3146.4320726680403, 3163.8879493514796, 3165.22701148888, 3186.34299134788]

>  <E0_kJmol>  (4) 
-917193

>  <H298_kJmol>  (4) 
-917167

$$$$

     RDKit          3D

  5  4  0  0  0  0  0  0  0  0999 V2000
   -0.4986    0.0189   -0.0212 C   0  0  0  0  0  0  0  0  0  1  0  0
    0.6799   -0.4410    0.1054 N   0  0  0  0  0  0  0  0  0  2  0  0
    1.7950    0.0236    0.0595 O   0  0  0  0  0  1  0  0  0  3  0  0
   -1.3180   -0.6753    0.0776 H   0  0  0  0  0  0  0  0  0  4  0  0
   -0.6584    1.0737   -0.2213 H   0  0  0  0  0  0  0  0  0  5  0  0
  1  5  1  0
  1  4  1  0
  1  2  1  0
  2  3  1  0
M  RAD  1   3   2
M  END
>  <rmg_smiles>  (5) 
[CH2][N][O]

>  <rmg_adjacency_list>  (5) 
multiplicity 2
1 O u1 p2 c0 {2,S}
2 N u0 p1 c0 {1,S} {3,S}
3 C u0 p0 c0 {2,S} {4,S} {5,S}
4 H u0 p0 c0 {3,S}
5 H u0 p0 c0 {3,S}


>  <multiplicity>  (5) 
2

>  <reaction>  (5) 
rmg_rxn_14504

>  <type>  (5) 
r2

>  <role_mapnums>  (5) 
{}

>  <role_mapidx>  (5) 
{}

>  <ordered_mapped_smiles>  (5) 
[CH:1]([NH:2][O:3])([H:4])[H:5]

>  <level_of_theory>  (5) 
wb97xd/def2tzvp

>  <lot_method>  (5) 
wb97xd

>  <lot_basis>  (5) 
def2tzvp

>  <spin_multiplicity>  (5) 
2.0

>  <optical_isomers>  (5) 
1.0

>  <modes>  (5) 
IdealGasTranslation(mass=(44.0136, 'amu')),         NonlinearRotor(             inertia = ([3.87779, 42.4322, 46.31

>  <frequency_value>  (5) 
unknown

>  <frequency_units>  (5) 
unknown

>  <frequency_list>  (5) 
unknown

>  <arkane_path>  (5) 
/home/calvin/Dropbox/PersonalFolders/Calvin/ZEUS_Converged/rmg_rxn_14504/output/Species/rmg_rxn_14504_r1_sbr-CH2-sbrN=O/arkane/output.py

>  <path_exists>  (5) 
True

>  <E0_value>  (5) 
-444125.8698569822

>  <E0_units>  (5) 
kJ/mol

>  <thermo_class>  (5) 
NASA

>  <Cp0_value>  (5) 
33.257888

>  <Cp0_units>  (5) 
J/(mol*K)

>  <CpInf_value>  (5) 
108.088136

>  <CpInf_units>  (5) 
J/(mol*K)

>  <Tmin_value>  (5) 
10.0

>  <Tmin_units>  (5) 
K

>  <Tmax_value>  (5) 
3000.0

>  <Tmax_units>  (5) 
K

>  <polynomials>  (5) 
[{"name": "polynomial1", "class": "NASAPolynomial", "Tmin_value": 10.0, "Tmin_units": "K", "Tmax_value": 562.3844347769385, "Tmax_units": "K", "coeffs": [4.0539371731065605, -0.004739826959318956, 5.743785781646798e-05, -9.385629698124957e-08, 5.059118571865702e-11, -53416003.88497996, 6.93065877976666]}, {"name": "polynomial2", "class": "NASAPolynomial", "Tmin_value": 562.3844347769385, "Tmin_units": "K", "Tmax_value": 3000.0, "Tmax_units": "K", "coeffs": [2.1822483855724832, 0.014293062721693978, -8.584392755259597e-06, 2.4949935147619258e-09, -2.8055842293608983e-13, -53415883.82407472, 14.078926607551914]}]

>  <H298_value>  (5) 
-106145.96131022584

>  <H298_units>  (5) 
kcal/mol

>  <S298_value>  (5) 
60.48266213431547

>  <S298_units>  (5) 
cal/(mol*K)

>  <Cp_T_value_list>  (5) 
[11.281500225194698, 13.187887262293541, 14.851189327199746, 16.235999458527782, 18.451624009385064, 20.081424058042675, 22.469810631538564, 23.65136644442777, 24.287701172264676]

>  <Cp_T_units>  (5) 
cal/(mol*K)

>  <T_list>  (5) 
[300.0, 400.0, 500.0, 600.0, 800.0, 1000.0, 1500.0, 2000.0, 2400.0]

>  <T_units>  (5) 
K

>  <yaml_path>  (5) 
/home/calvin/Dropbox/PersonalFolders/Calvin/ZEUS_Converged/rmg_rxn_14504/output/Species/rmg_rxn_14504_r1_sbr-CH2-sbrN=O/rmg_rxn_14504_r1_sbr-CH2-sbrN=O.yml

>  <frequencies_cm1>  (5) 
[458.37813709531997, 701.3458116875601, 834.5447259396, 1127.25684218992, 1261.9046903444798, 1486.4825782497596, 1744.7430291496398, 3101.34344705692, 3245.26172539348]

>  <ZPE_kJmol>  (5) 
83.50690918001081

>  <E_elec_kJmol>  (5) 
-444209.3767661622

>  <E0_minus_Eelec_plus_ZPE_kJmol>  (5) 
0.0

>  <rxn>  (5) 
rmg_rxn_14504

>  <species_type>  (5) 
r0

>  <species_folder>  (5) 
rmg_rxn_14504_r1_sbr-CH2-sbrN=O

>  <frequencies_cm1_list>  (5) 
[458.37813709531997, 701.3458116875601, 834.5447259396, 1127.25684218992, 1261.9046903444798, 1486.4825782497596, 1744.7430291496398, 3101.34344705692, 3245.26172539348]

>  <E0_kJmol>  (5) 
-444126

>  <H298_kJmol>  (5) 
-444115

$$$$
