
     RDKit          3D

 10  9  0  0  0  0  0  0  0  0999 V2000
   -1.3974   -1.2221    0.4319 C   0  0  0  0  0  0  0  0  0  1  0  0
   -0.4957   -0.2908    0.3459 C   0  0  0  0  0  2  0  0  0  2  0  0
    0.4177    0.6429    0.2484 C   0  0  0  0  0  0  0  0  0  3  0  0
    1.3062    0.8316   -0.9022 C   0  0  0  0  0  0  0  0  0  4  0  0
   -1.1504   -2.2103    0.8064 H   0  0  0  0  0  0  0  0  0  5  0  0
   -2.4254   -1.0443    0.1340 H   0  0  0  0  0  0  0  0  0  6  0  0
    0.5624    1.2910    1.1089 H   0  0  0  0  0  0  0  0  0  7  0  0
    2.2335    0.3029   -0.6948 H   0  0  0  0  0  0  0  0  0  8  0  0
    1.6411    1.8559   -1.0492 H   0  0  0  0  0  0  0  0  0  9  0  0
    0.9609    0.3724   -1.8251 H   0  0  0  0  0  0  0  0  0 10  0  0
  1  5  1  0
  1  6  1  0
  1  2  1  0
  2  3  1  0
  3  4  1  0
  3  7  1  0
  4  8  1  0
  4  9  1  0
  4 10  1  0
M  RAD  1   2   3
M  END
>  <rmg_smiles>  (1) 
[CH2][C][CH]C

>  <rmg_adjacency_list>  (1) 
1  C u0 p0 c0 {2,S} {5,S} {6,S} {7,S}
2  C u0 p0 c0 {1,S} {4,S} {8,S}
3  C u0 p0 c0 {4,S} {9,S} {10,S}
4  C u0 p1 c0 {2,S} {3,S}
5  H u0 p0 c0 {1,S}
6  H u0 p0 c0 {1,S}
7  H u0 p0 c0 {1,S}
8  H u0 p0 c0 {2,S}
9  H u0 p0 c0 {3,S}
10 H u0 p0 c0 {3,S}


>  <multiplicity>  (1) 
1

>  <reaction>  (1) 
rmg_rxn_14135

>  <type>  (1) 
r1h

>  <role_mapnums>  (1) 
{"r1h_a": 4, "r1h_h": 8}

>  <role_mapidx>  (1) 
{"r1h_a": 3, "r1h_h": 7}

>  <ordered_mapped_smiles>  (1) 
[CH:1]([C:2][CH:3]([C:4]([H:8])([H:9])[H:10])[H:7])([H:5])[H:6]

>  <mol_properties>  (1) 
{"3": {"label": "donator", "atom_type": "Cs"}, "7": {"label": "d_hydrogen", "atom_type": "H0"}}

>  <level_of_theory>  (1) 
wb97xd/def2tzvp

>  <lot_method>  (1) 
wb97xd

>  <lot_basis>  (1) 
def2tzvp

>  <spin_multiplicity>  (1) 
1.0

>  <optical_isomers>  (1) 
1.0

>  <modes>  (1) 
IdealGasTranslation(mass=(54.047, 'amu')),         NonlinearRotor(             inertia = ([14.6121, 119.467, 127.49

>  <frequency_value>  (1) 
unknown

>  <frequency_units>  (1) 
unknown

>  <frequency_list>  (1) 
unknown

>  <arkane_path>  (1) 
/home/calvin/Dropbox/PersonalFolders/Calvin/ZEUS_Converged/rmg_rxn_14135/output/Species/rmg_rxn_14135_r1_C=C=CC/arkane/output.py

>  <path_exists>  (1) 
True

>  <E0_value>  (1) 
-409296.6502421279

>  <E0_units>  (1) 
kJ/mol

>  <thermo_class>  (1) 
NASA

>  <Cp0_value>  (1) 
33.257888

>  <Cp0_units>  (1) 
J/(mol*K)

>  <CpInf_value>  (1) 
232.805216

>  <CpInf_units>  (1) 
J/(mol*K)

>  <Tmin_value>  (1) 
10.0

>  <Tmin_units>  (1) 
K

>  <Tmax_value>  (1) 
3000.0

>  <Tmax_units>  (1) 
K

>  <polynomials>  (1) 
[{"name": "polynomial1", "class": "NASAPolynomial", "Tmin_value": 10.0, "Tmin_units": "K", "Tmax_value": 452.8802664009696, "Tmax_units": "K", "coeffs": [3.9021943352433452, 0.007937521032632688, 6.664442489196733e-05, -1.2131953588307993e-07, 6.938885885775227e-11, -49227014.555544384, 8.255511443201872]}, {"name": "polynomial2", "class": "NASAPolynomial", "Tmin_value": 452.8802664009696, "Tmin_units": "K", "Tmax_value": 3000.0, "Tmax_units": "K", "coeffs": [0.958037882717614, 0.033941191741253485, -1.948265019694705e-05, 5.463813645242153e-09, -5.979209978345261e-13, -49226747.88374059, 20.12723627389473]}]

>  <H298_value>  (1) 
-97820.47439749332

>  <H298_units>  (1) 
kcal/mol

>  <S298_value>  (1) 
69.30943774444917

>  <S298_units>  (1) 
cal/(mol*K)

>  <Cp_T_value_list>  (1) 
[19.013335795722274, 23.35407848830737, 27.231838984706652, 30.626214617830076, 36.15654523435027, 40.30546036176962, 46.594544625367064, 49.786664420046236, 51.450781523093035]

>  <Cp_T_units>  (1) 
cal/(mol*K)

>  <T_list>  (1) 
[300.0, 400.0, 500.0, 600.0, 800.0, 1000.0, 1500.0, 2000.0, 2400.0]

>  <T_units>  (1) 
K

>  <yaml_path>  (1) 
/home/calvin/Dropbox/PersonalFolders/Calvin/ZEUS_Converged/rmg_rxn_14135/output/Species/rmg_rxn_14135_r1_C=C=CC/rmg_rxn_14135_r1_C=C=CC.yml

>  <frequencies_cm1>  (1) 
[164.84884959192, 210.28769145436, 340.98015606459995, 540.2944049775999, 574.7186023867599, 878.6239047086799, 884.0282221555199, 895.09093550604, 1017.79709618912, 1055.91573170044, 1088.91159616304, 1146.5530709391198, 1353.77808694076, 1399.01778622892, 1463.354571692, 1470.3726306890399, 1494.8053644576, 2061.4346581373993, 3012.63573069316, 3072.0282867258397, 3106.42501619372, 3110.62074422424, 3124.134971334, 3189.66661224276]

>  <ZPE_kJmol>  (1) 
219.25357474583132

>  <E_elec_kJmol>  (1) 
-409515.9038168737

>  <E0_minus_Eelec_plus_ZPE_kJmol>  (1) 
0.0

>  <rxn>  (1) 
rmg_rxn_14135

>  <species_type>  (1) 
r0

>  <species_folder>  (1) 
rmg_rxn_14135_r1_C=C=CC

>  <frequencies_cm1_list>  (1) 
[164.84884959192, 210.28769145436, 340.98015606459995, 540.2944049775999, 574.7186023867599, 878.6239047086799, 884.0282221555199, 895.09093550604, 1017.79709618912, 1055.91573170044, 1088.91159616304, 1146.5530709391198, 1353.77808694076, 1399.01778622892, 1463.354571692, 1470.3726306890399, 1494.8053644576, 2061.4346581373993, 3012.63573069316, 3072.0282867258397, 3106.42501619372, 3110.62074422424, 3124.134971334, 3189.66661224276]

>  <E0_kJmol>  (1) 
-409297

>  <H298_kJmol>  (1) 
-409281

$$$$

     RDKit          3D

 14 13  0  0  0  0  0  0  0  0999 V2000
   -0.6090    1.1325   -0.6291 H   0  0  0  0  0  0  0  0  0  1  0  0
    1.0003    1.5814    0.5704 C   0  0  0  0  0  0  0  0  0  2  0  0
    0.2884    0.5973   -0.3149 C   0  0  0  0  0  0  0  0  0  3  0  0
   -0.2489   -0.6404    0.3507 C   0  0  0  0  0  0  0  0  0  4  0  0
   -1.0046   -1.5608   -0.5986 C   0  0  0  0  0  0  0  0  0  5  0  0
    1.2940    2.4780    0.0219 H   0  0  0  0  0  0  0  0  0  6  0  0
    1.9078    1.1458    1.0037 H   0  0  0  0  0  0  0  0  0  7  0  0
    0.3606    1.8875    1.4030 H   0  0  0  0  0  0  0  0  0  8  0  0
    0.7930    0.4023   -1.2625 H   0  0  0  0  0  0  0  0  0  9  0  0
   -0.9066   -0.3426    1.1748 H   0  0  0  0  0  0  0  0  0 10  0  0
    0.5817   -1.1902    0.8141 H   0  0  0  0  0  0  0  0  0 11  0  0
   -1.3542   -2.4577   -0.0851 H   0  0  0  0  0  0  0  0  0 12  0  0
   -1.8769   -1.0557   -1.0179 H   0  0  0  0  0  0  0  0  0 13  0  0
   -0.3674   -1.8766   -1.4280 H   0  0  0  0  0  0  0  0  0 14  0  0
  1  3  1  0
  2  7  1  0
  2  8  1  0
  2  6  1  0
  2  3  1  0
  3  4  1  0
  3  9  1  0
  4  5  1  0
  4 10  1  0
  4 11  1  0
  5 12  1  0
  5 14  1  0
  5 13  1  0
M  END
>  <rmg_smiles>  (2) 
CCCC

>  <rmg_adjacency_list>  (2) 
1  C u0 p0 c0 {2,S} {3,S} {5,S} {6,S}
2  C u0 p0 c0 {1,S} {4,S} {7,S} {8,S}
3  C u0 p0 c0 {1,S} {9,S} {10,S} {11,S}
4  C u0 p0 c0 {2,S} {12,S} {13,S} {14,S}
5  H u0 p0 c0 {1,S}
6  H u0 p0 c0 {1,S}
7  H u0 p0 c0 {2,S}
8  H u0 p0 c0 {2,S}
9  H u0 p0 c0 {3,S}
10 H u0 p0 c0 {3,S}
11 H u0 p0 c0 {3,S}
12 H u0 p0 c0 {4,S}
13 H u0 p0 c0 {4,S}
14 H u0 p0 c0 {4,S}


>  <multiplicity>  (2) 
1

>  <reaction>  (2) 
rmg_rxn_14135

>  <type>  (2) 
r2h

>  <role_mapnums>  (2) 
{"r2h_a": 3, "r2h_h": 1}

>  <role_mapidx>  (2) 
{"r2h_a": 2, "r2h_h": 0}

>  <ordered_mapped_smiles>  (2) 
[H:1][C:3]([C:2]([H:6])([H:7])[H:8])([C:4]([C:5]([H:12])([H:13])[H:14])([H:10])[H:11])[H:9]

>  <mol_properties>  (2) 
{"0": {"label": "a_hydrogen", "atom_type": "H0"}, "2": {"label": "acceptor", "atom_type": "Cs"}}

>  <level_of_theory>  (2) 
wb97xd/def2tzvp

>  <lot_method>  (2) 
wb97xd

>  <lot_basis>  (2) 
def2tzvp

>  <spin_multiplicity>  (2) 
1.0

>  <optical_isomers>  (2) 
1.0

>  <modes>  (2) 
IdealGasTranslation(mass=(58.0782, 'amu')),         NonlinearRotor(             inertia = ([21.4183, 138.436, 147.416

>  <frequency_value>  (2) 
unknown

>  <frequency_units>  (2) 
unknown

>  <frequency_list>  (2) 
unknown

>  <arkane_path>  (2) 
/home/calvin/Dropbox/PersonalFolders/Calvin/ZEUS_Converged/rmg_rxn_14135/output/Species/rmg_rxn_14135_p2_CCCC/arkane/output.py

>  <path_exists>  (2) 
True

>  <E0_value>  (2) 
-415711.4770348064

>  <E0_units>  (2) 
kJ/mol

>  <thermo_class>  (2) 
NASA

>  <Cp0_value>  (2) 
33.257888

>  <Cp0_units>  (2) 
J/(mol*K)

>  <CpInf_value>  (2) 
332.57888

>  <CpInf_units>  (2) 
J/(mol*K)

>  <Tmin_value>  (2) 
10.0

>  <Tmin_units>  (2) 
K

>  <Tmax_value>  (2) 
3000.0

>  <Tmax_units>  (2) 
K

>  <polynomials>  (2) 
[{"name": "polynomial1", "class": "NASAPolynomial", "Tmin_value": 10.0, "Tmin_units": "K", "Tmax_value": 1025.0273162307699, "Tmax_units": "K", "coeffs": [3.9150130826151175, 0.015190494256791979, 4.499556931941573e-05, -5.445192201755383e-08, 1.8031809407791817e-11, -49998546.31454184, 7.728184763696971]}, {"name": "polynomial2", "class": "NASAPolynomial", "Tmin_value": 1025.0273162307699, "Tmin_units": "K", "Tmax_value": 3000.0, "Tmax_units": "K", "coeffs": [0.8558758780408781, 0.04413171488528935, -2.2238731068911554e-05, 5.459797534998113e-09, -5.274467686075349e-13, -49998812.43439247, 18.20512482016822]}]

>  <H298_value>  (2) 
-99353.185245995

>  <H298_units>  (2) 
kcal/mol

>  <S298_value>  (2) 
71.76251802442489

>  <S298_units>  (2) 
cal/(mol*K)

>  <Cp_T_value_list>  (2) 
[22.251980000473434, 28.153138403800412, 33.94079226255036, 39.35269392808127, 48.430245231467794, 55.007791711023614, 65.12656110109212, 70.35429061686186, 72.83851833777639]

>  <Cp_T_units>  (2) 
cal/(mol*K)

>  <T_list>  (2) 
[300.0, 400.0, 500.0, 600.0, 800.0, 1000.0, 1500.0, 2000.0, 2400.0]

>  <T_units>  (2) 
K

>  <yaml_path>  (2) 
/home/calvin/Dropbox/PersonalFolders/Calvin/ZEUS_Converged/rmg_rxn_14135/output/Species/rmg_rxn_14135_p2_CCCC/rmg_rxn_14135_p2_CCCC.yml

>  <frequencies_cm1>  (2) 
[117.85806904715999, 224.50921805207997, 259.37290252171994, 260.8081024536, 427.68957970024, 733.9639919575599, 810.5171443049198, 844.8383369342799, 959.6886664112799, 978.69648177704, 1024.40313606696, 1072.73297874912, 1166.6664709414, 1201.7086970293599, 1282.4438434365998, 1315.46030885516, 1324.99168447932, 1392.23320473276, 1403.41265683372, 1404.42210367576, 1477.30828586224, 1478.9082934418, 1485.02677736192, 1486.84652847172, 1491.0285225316, 1497.33241505536, 2994.3077468740794, 3001.82022881416, 3007.36875295272, 3008.254594059, 3019.68125763148, 3041.7654824206, 3075.78452769588, 3079.10128160544, 3084.83521434764, 3085.5356468502796]

>  <ZPE_kJmol>  (2) 
344.05401570070524

>  <E_elec_kJmol>  (2) 
-416055.5310505071

>  <E0_minus_Eelec_plus_ZPE_kJmol>  (2) 
0.0

>  <rxn>  (2) 
rmg_rxn_14135

>  <species_type>  (2) 
p1

>  <species_folder>  (2) 
rmg_rxn_14135_p2_CCCC

>  <frequencies_cm1_list>  (2) 
[117.85806904715999, 224.50921805207997, 259.37290252171994, 260.8081024536, 427.68957970024, 733.9639919575599, 810.5171443049198, 844.8383369342799, 959.6886664112799, 978.69648177704, 1024.40313606696, 1072.73297874912, 1166.6664709414, 1201.7086970293599, 1282.4438434365998, 1315.46030885516, 1324.99168447932, 1392.23320473276, 1403.41265683372, 1404.42210367576, 1477.30828586224, 1478.9082934418, 1485.02677736192, 1486.84652847172, 1491.0285225316, 1497.33241505536, 2994.3077468740794, 3001.82022881416, 3007.36875295272, 3008.254594059, 3019.68125763148, 3041.7654824206, 3075.78452769588, 3079.10128160544, 3084.83521434764, 3085.5356468502796]

>  <E0_kJmol>  (2) 
-415711

>  <H298_kJmol>  (2) 
-415694

$$$$

     RDKit          3D

 23 21  0  0  0  0  0  0  0  0999 V2000
   -3.0749   -0.6598    0.4003 C   0  0  0  0  0  0  0  0  0  1  0  0
   -2.1732    0.2715    0.3144 C   0  0  0  0  0  0  0  0  0  2  0  0
   -1.2598    1.2052    0.2169 C   0  0  0  0  0  0  0  0  0  3  0  0
   -0.3712    1.3939   -0.9338 C   0  0  0  0  0  0  0  0  0  4  0  0
   -2.8278   -1.6480    0.7748 H   0  0  0  0  0  0  0  0  0  5  0  0
   -4.1029   -0.4820    0.1024 H   0  0  0  0  0  0  0  0  0  6  0  0
   -1.1150    1.8533    1.0773 H   0  0  0  0  0  0  0  0  0  7  0  0
    0.7495    0.7549   -0.6831 H   0  0  0  0  0  0  0  0  0  8  0  0
   -0.0363    2.4182   -1.0808 H   0  0  0  0  0  0  0  0  0  9  0  0
   -0.7166    0.9347   -1.8567 H   0  0  0  0  0  0  0  0  0 10  0  0
    2.6010    1.0594    0.6011 C   0  0  0  0  0  0  0  0  0 11  0  0
    1.8891    0.0753   -0.2841 C   0  0  0  0  0  3  0  0  0 12  0  0
    1.3518   -1.1624    0.3814 C   0  0  0  0  0  0  0  0  0 13  0  0
    0.5961   -2.0827   -0.5679 C   0  0  0  0  0  0  0  0  0 14  0  0
    2.8947    1.9560    0.0527 H   0  0  0  0  0  0  0  0  0 15  0  0
    3.5085    0.6239    1.0345 H   0  0  0  0  0  0  0  0  0 16  0  0
    1.9613    1.3656    1.4337 H   0  0  0  0  0  0  0  0  0 17  0  0
    2.3938   -0.1196   -1.2317 H   0  0  0  0  0  0  0  0  0 18  0  0
    0.6941   -0.8646    1.2056 H   0  0  0  0  0  0  0  0  0 19  0  0
    2.1825   -1.7122    0.8449 H   0  0  0  0  0  0  0  0  0 20  0  0
    0.2465   -2.9797   -0.0544 H   0  0  0  0  0  0  0  0  0 21  0  0
   -0.2761   -1.5776   -0.9871 H   0  0  0  0  0  0  0  0  0 22  0  0
    1.2333   -2.3985   -1.3972 H   0  0  0  0  0  0  0  0  0 23  0  0
  1  5  1  0
  1  6  1  0
  1  2  1  0
  2  3  1  0
  3  4  1  0
  3  7  1  0
  4 10  1  0
  4  9  1  0
  4  8  1  0
 11 17  1  0
 11 12  1  0
 11 16  1  0
 11 15  1  0
 12 18  1  0
 12 13  1  0
 13 19  1  0
 13 20  1  0
 13 14  1  0
 14 23  1  0
 14 22  1  0
 14 21  1  0
M  RAD  1  12   2
M  END
>  <rmg_smiles>  (3) 
C[CH]CC.[CH2]C[CH]C

>  <rmg_adjacency_list>  (3) 
multiplicity 2
1  C u0 p0 c0 {2,S} {5,S} {9,S} {10,S}
2  C u0 p0 c0 {1,S} {11,S} {12,S} {13,S}
3  C u0 p0 c0 {5,S} {17,S} {18,S} {19,S}
4  C u0 p0 c0 {6,S} {14,S} {15,S} {16,S}
5  C u1 p0 c0 {1,S} {3,S} {20,S}
6  C u0 p0 c0 {4,S} {8,S} {21,S}
7  C u0 p0 c0 {8,S} {22,S} {23,S}
8  C u0 p1 c0 {6,S} {7,S}
9  H u0 p0 c0 {1,S}
10 H u0 p0 c0 {1,S}
11 H u0 p0 c0 {2,S}
12 H u0 p0 c0 {2,S}
13 H u0 p0 c0 {2,S}
14 H u0 p0 c0 {4,S}
15 H u0 p0 c0 {4,S}
16 H u0 p0 c0 {4,S}
17 H u0 p0 c0 {3,S}
18 H u0 p0 c0 {3,S}
19 H u0 p0 c0 {3,S}
20 H u0 p0 c0 {5,S}
21 H u0 p0 c0 {6,S}
22 H u0 p0 c0 {7,S}
23 H u0 p0 c0 {7,S}


>  <multiplicity>  (3) 
2

>  <reaction>  (3) 
rmg_rxn_14135

>  <type>  (3) 
ts

>  <role_mapnums>  (3) 
{"*2": 8, "*1": 4, "*3": 12, "*0": 3, "*4": 13}

>  <role_mapidx>  (3) 
{"*2": 7, "*1": 3, "*3": 11, "*0": 2, "*4": 12}

>  <ordered_mapped_smiles>  (3) 
[CH:1]([CH2:2][CH:3]([C:4]([H:8])([H:9])[H:10])[H:7])([H:5])[H:6].[C:11]([C:12]([C:13]([C:14]([H:21])([H:22])[H:23])([H:19])[H:20])[H:18])([H:15])([H:16])[H:17]

>  <mol_properties>  (3) 
{"2": {"label": "*0", "atom_type": "Cs"}, "3": {"label": "*1", "atom_type": "Cs"}, "7": {"label": "*2", "atom_type": "H0"}, "11": {"label": "*3", "atom_type": "Cs"}, "12": {"label": "*4", "atom_type": "Cs"}}

>  <level_of_theory>  (3) 
wb97xd/def2tzvp

>  <lot_method>  (3) 
wb97xd

>  <lot_basis>  (3) 
def2tzvp

>  <spin_multiplicity>  (3) 
2.0

>  <optical_isomers>  (3) 
2.0

>  <modes>  (3) 
IdealGasTranslation(mass=(111.117, 'amu')),         NonlinearRotor(             inertia = ([211.219, 447.551, 575.524

>  <frequency_value>  (3) 
-1728.61

>  <frequency_units>  (3) 
cm^-1

>  <frequency_list>  (3) 
unknown

>  <arkane_path>  (3) 
/home/calvin/Dropbox/PersonalFolders/Calvin/ZEUS_Converged/rmg_rxn_14135/output/rxns/TS0/arkane/output.py

>  <path_exists>  (3) 
True

>  <E0_value>  (3) 
-823248.0

>  <E0_units>  (3) 
kJ/mol

>  <thermo_class>  (3) 
unknown

>  <Cp0_value>  (3) 
unknown

>  <Cp0_units>  (3) 
unknown

>  <CpInf_value>  (3) 
unknown

>  <CpInf_units>  (3) 
unknown

>  <Tmin_value>  (3) 
unknown

>  <Tmin_units>  (3) 
unknown

>  <Tmax_value>  (3) 
unknown

>  <Tmax_units>  (3) 
unknown

>  <polynomials>  (3) 
unknown

>  <H298_value>  (3) 
unknown

>  <H298_units>  (3) 
unknown

>  <S298_value>  (3) 
unknown

>  <S298_units>  (3) 
unknown

>  <Cp_T_value_list>  (3) 
unknown

>  <Cp_T_units>  (3) 
unknown

>  <T_list>  (3) 
unknown

>  <T_units>  (3) 
unknown

>  <yaml_path>  (3) 
unknown

>  <frequencies_cm1>  (3) 
unknown

>  <ZPE_kJmol>  (3) 
unknown

>  <E_elec_kJmol>  (3) 
unknown

>  <E0_minus_Eelec_plus_ZPE_kJmol>  (3) 
unknown

>  <rxn>  (3) 
unknown

>  <species_type>  (3) 
unknown

>  <species_folder>  (3) 
unknown

>  <frequencies_cm1_list>  (3) 
[]

>  <ts_imag_freq_cm1>  (3) 
-1749.6077

>  <ts_freq_out_path>  (3) 
/home/calvin/Dropbox/PersonalFolders/Calvin/ZEUS_Converged/rmg_rxn_14135/output/rxns/TS0/geometry/freq.out

>  <E0_kJmol>  (3) 
-823248

>  <H298_kJmol>  (3) 
unknown

$$$$

     RDKit          3D

  9  8  0  0  0  0  0  0  0  0999 V2000
    1.8962   -0.1368   -0.2185 C   0  0  0  0  0  0  0  0  0  1  0  0
    0.6332    0.1497   -0.2267 C   0  0  0  0  0  3  0  0  0  2  0  0
   -0.6783    0.4486   -0.2362 C   0  0  0  0  0  0  0  0  0  3  0  0
   -1.6587   -0.2335    0.4694 C   0  0  0  0  0  0  0  0  0  4  0  0
    2.3273   -0.8311   -0.9354 H   0  0  0  0  0  0  0  0  0  5  0  0
    2.5755    0.3040    0.5069 H   0  0  0  0  0  0  0  0  0  6  0  0
   -0.9764    1.2944   -0.8506 H   0  0  0  0  0  0  0  0  0  7  0  0
   -2.6928    0.0726    0.4065 H   0  0  0  0  0  0  0  0  0  8  0  0
   -1.4099   -1.0807    1.0934 H   0  0  0  0  0  0  0  0  0  9  0  0
  1  5  1  0
  1  6  1  0
  1  2  1  0
  2  3  1  0
  3  4  1  0
  3  7  1  0
  4  8  1  0
  4  9  1  0
M  RAD  1   2   2
M  END
>  <rmg_smiles>  (4) 
[CH2][C][CH][CH2]

>  <rmg_adjacency_list>  (4) 
multiplicity 2
1 C u0 p0 c0 {2,S} {4,S} {5,S}
2 C u0 p0 c0 {1,S} {6,S} {7,S}
3 C u0 p0 c0 {4,S} {8,S} {9,S}
4 C u1 p1 c0 {1,S} {3,S}
5 H u0 p0 c0 {1,S}
6 H u0 p0 c0 {2,S}
7 H u0 p0 c0 {2,S}
8 H u0 p0 c0 {3,S}
9 H u0 p0 c0 {3,S}


>  <multiplicity>  (4) 
2

>  <reaction>  (4) 
rmg_rxn_14135

>  <type>  (4) 
r1

>  <role_mapnums>  (4) 
{}

>  <role_mapidx>  (4) 
{}

>  <ordered_mapped_smiles>  (4) 
[CH:1]([CH:2][CH:3]([CH:4]([H:8])[H:9])[H:7])([H:5])[H:6]

>  <level_of_theory>  (4) 
wb97xd/def2tzvp

>  <lot_method>  (4) 
wb97xd

>  <lot_basis>  (4) 
def2tzvp

>  <spin_multiplicity>  (4) 
2.0

>  <optical_isomers>  (4) 
1.0

>  <modes>  (4) 
IdealGasTranslation(mass=(53.0391, 'amu')),         NonlinearRotor(             inertia = ([12.0347, 113.266, 121.844

>  <frequency_value>  (4) 
unknown

>  <frequency_units>  (4) 
unknown

>  <frequency_list>  (4) 
unknown

>  <arkane_path>  (4) 
/home/calvin/Dropbox/PersonalFolders/Calvin/ZEUS_Converged/rmg_rxn_14135/output/Species/rmg_rxn_14135_p1_C=sbr-C-sbrC=C/arkane/output.py

>  <path_exists>  (4) 
True

>  <E0_value>  (4) 
-407618.7322871182

>  <E0_units>  (4) 
kJ/mol

>  <thermo_class>  (4) 
NASA

>  <Cp0_value>  (4) 
33.257888

>  <Cp0_units>  (4) 
J/(mol*K)

>  <CpInf_value>  (4) 
207.8618

>  <CpInf_units>  (4) 
J/(mol*K)

>  <Tmin_value>  (4) 
10.0

>  <Tmin_units>  (4) 
K

>  <Tmax_value>  (4) 
3000.0

>  <Tmax_units>  (4) 
K

>  <polynomials>  (4) 
[{"name": "polynomial1", "class": "NASAPolynomial", "Tmin_value": 10.0, "Tmin_units": "K", "Tmax_value": 514.1627669615141, "Tmax_units": "K", "coeffs": [3.9420033650092194, 0.003572324131280511, 9.462342675756363e-05, -1.8676284311886954e-07, 1.149785738012023e-10, -49025207.30228202, 8.656389036962679]}, {"name": "polynomial2", "class": "NASAPolynomial", "Tmin_value": 514.1627669615141, "Tmin_units": "K", "Tmax_value": 3000.0, "Tmax_units": "K", "coeffs": [2.029834550148665, 0.030448893080009667, -1.8795396905939947e-05, 5.691011797771398e-09, -6.697030625419615e-13, -49025169.29486995, 15.066930145553966]}]

>  <H298_value>  (4) 
-97419.52666136409

>  <H298_units>  (4) 
kcal/mol

>  <S298_value>  (4) 
69.4719153890684

>  <S298_units>  (4) 
cal/(mol*K)

>  <Cp_T_value_list>  (4) 
[18.71658132650381, 22.855479647781404, 26.28046336634898, 29.16283674573409, 33.78128373497921, 37.16998113185326, 42.18903825802206, 44.829149945703655, 46.30012006236418]

>  <Cp_T_units>  (4) 
cal/(mol*K)

>  <T_list>  (4) 
[300.0, 400.0, 500.0, 600.0, 800.0, 1000.0, 1500.0, 2000.0, 2400.0]

>  <T_units>  (4) 
K

>  <yaml_path>  (4) 
/home/calvin/Dropbox/PersonalFolders/Calvin/ZEUS_Converged/rmg_rxn_14135/output/Species/rmg_rxn_14135_p1_C=sbr-C-sbrC=C/rmg_rxn_14135_p1_C=sbr-C-sbrC=C.yml

>  <frequencies_cm1>  (4) 
[209.8207364526, 213.04821955299997, 498.82468063011993, 525.2763080827599, 574.87654304912, 748.93401995516, 893.7518733686398, 905.4944182658398, 936.5057239709599, 975.15311735192, 1080.3828003955998, 1184.87084902472, 1365.78157728012, 1440.54244645896, 1485.45939743708, 1902.75236136284, 3071.2179824580794, 3118.0576893257994, 3138.67924624176, 3141.52904514956, 3241.1758691280797]

>  <ZPE_kJmol>  (4) 
183.34053407098105

>  <E_elec_kJmol>  (4) 
-407802.0728211892

>  <E0_minus_Eelec_plus_ZPE_kJmol>  (4) 
0.0

>  <rxn>  (4) 
rmg_rxn_14135

>  <species_type>  (4) 
p0

>  <species_folder>  (4) 
rmg_rxn_14135_p1_C=sbr-C-sbrC=C

>  <frequencies_cm1_list>  (4) 
[209.8207364526, 213.04821955299997, 498.82468063011993, 525.2763080827599, 574.87654304912, 748.93401995516, 893.7518733686398, 905.4944182658398, 936.5057239709599, 975.15311735192, 1080.3828003955998, 1184.87084902472, 1365.78157728012, 1440.54244645896, 1485.45939743708, 1902.75236136284, 3071.2179824580794, 3118.0576893257994, 3138.67924624176, 3141.52904514956, 3241.1758691280797]

>  <E0_kJmol>  (4) 
-407619

>  <H298_kJmol>  (4) 
-407603

$$$$

     RDKit          3D

 13 12  0  0  0  0  0  0  0  0999 V2000
    1.9060    0.2628    0.3980 C   0  0  0  0  0  0  0  0  0  1  0  0
    0.6330   -0.4250    0.0685 C   0  0  0  0  0  3  0  0  0  2  0  0
   -0.2610   -0.9325    1.1416 C   0  0  0  0  0  0  0  0  0  3  0  0
   -1.4364   -1.7546    0.6268 C   0  0  0  0  0  0  0  0  0  4  0  0
    2.4899   -0.3070    1.1292 H   0  0  0  0  0  0  0  0  0  5  0  0
    1.7297    1.2496    0.8515 H   0  0  0  0  0  0  0  0  0  6  0  0
    2.5269    0.4197   -0.4845 H   0  0  0  0  0  0  0  0  0  7  0  0
    0.2597   -0.3936   -0.9489 H   0  0  0  0  0  0  0  0  0  8  0  0
   -0.6439   -0.0868    1.7356 H   0  0  0  0  0  0  0  0  0  9  0  0
    0.3260   -1.5277    1.8536 H   0  0  0  0  0  0  0  0  0 10  0  0
   -1.0872   -2.6320    0.0792 H   0  0  0  0  0  0  0  0  0 11  0  0
   -2.0701   -2.0976    1.4459 H   0  0  0  0  0  0  0  0  0 12  0  0
   -2.0561   -1.1637   -0.0512 H   0  0  0  0  0  0  0  0  0 13  0  0
  1  5  1  0
  1  7  1  0
  1  6  1  0
  1  2  1  0
  2  8  1  0
  2  3  1  0
  3  4  1  0
  3  9  1  0
  3 10  1  0
  4 13  1  0
  4 12  1  0
  4 11  1  0
M  RAD  1   2   2
M  END
>  <rmg_smiles>  (5) 
C[CH]CC

>  <rmg_adjacency_list>  (5) 
multiplicity 2
1  C u0 p0 c0 {2,S} {4,S} {5,S} {6,S}
2  C u0 p0 c0 {1,S} {7,S} {8,S} {9,S}
3  C u0 p0 c0 {4,S} {10,S} {11,S} {12,S}
4  C u1 p0 c0 {1,S} {3,S} {13,S}
5  H u0 p0 c0 {1,S}
6  H u0 p0 c0 {1,S}
7  H u0 p0 c0 {2,S}
8  H u0 p0 c0 {2,S}
9  H u0 p0 c0 {2,S}
10 H u0 p0 c0 {3,S}
11 H u0 p0 c0 {3,S}
12 H u0 p0 c0 {3,S}
13 H u0 p0 c0 {4,S}


>  <multiplicity>  (5) 
2

>  <reaction>  (5) 
rmg_rxn_14135

>  <type>  (5) 
r2

>  <role_mapnums>  (5) 
{}

>  <role_mapidx>  (5) 
{}

>  <ordered_mapped_smiles>  (5) 
[C:1]([C:2]([C:3]([C:4]([H:11])([H:12])[H:13])([H:9])[H:10])[H:8])([H:5])([H:6])[H:7]

>  <level_of_theory>  (5) 
wb97xd/def2tzvp

>  <lot_method>  (5) 
wb97xd

>  <lot_basis>  (5) 
def2tzvp

>  <spin_multiplicity>  (5) 
2.0

>  <optical_isomers>  (5) 
2.0

>  <modes>  (5) 
IdealGasTranslation(mass=(57.0704, 'amu')),         NonlinearRotor(             inertia = ([18.7542, 137.737, 146.856

>  <frequency_value>  (5) 
unknown

>  <frequency_units>  (5) 
unknown

>  <frequency_list>  (5) 
unknown

>  <arkane_path>  (5) 
/home/calvin/Dropbox/PersonalFolders/Calvin/ZEUS_Converged/rmg_rxn_14135/output/Species/rmg_rxn_14135_r2_Csbr-CH-sbrCC/arkane/output.py

>  <path_exists>  (5) 
True

>  <E0_value>  (5) 
-413995.2264405356

>  <E0_units>  (5) 
kJ/mol

>  <thermo_class>  (5) 
NASA

>  <Cp0_value>  (5) 
33.257888

>  <Cp0_units>  (5) 
J/(mol*K)

>  <CpInf_value>  (5) 
307.635464

>  <CpInf_units>  (5) 
J/(mol*K)

>  <Tmin_value>  (5) 
10.0

>  <Tmin_units>  (5) 
K

>  <Tmax_value>  (5) 
3000.0

>  <Tmax_units>  (5) 
K

>  <polynomials>  (5) 
[{"name": "polynomial1", "class": "NASAPolynomial", "Tmin_value": 10.0, "Tmin_units": "K", "Tmax_value": 437.64132334566835, "Tmax_units": "K", "coeffs": [3.6274282376646756, 0.03980524048628293, -0.00011211913315348379, 3.0275669442783334e-07, -2.6334100357152647e-10, -49792123.767797455, 10.477759673967103]}, {"name": "polynomial2", "class": "NASAPolynomial", "Tmin_value": 437.64132334566835, "Tmin_units": "K", "Tmax_value": 3000.0, "Tmax_units": "K", "coeffs": [-0.4712203043918067, 0.04588815729464738, -2.541997261504284e-05, 6.85639015424627e-09, -7.228277482308085e-13, -49791464.52563959, 30.297543071931177]}]

>  <H298_value>  (5) 
-98942.59688263848

>  <H298_units>  (5) 
kcal/mol

>  <S298_value>  (5) 
79.84336435797195

>  <S298_units>  (5) 
cal/(mol*K)

>  <Cp_T_value_list>  (5) 
[22.891917447574397, 28.308475735554, 33.64288387138264, 38.34868525299168, 46.07323283166112, 51.92675269306213, 60.90207372767515, 65.40111428959476, 67.64920413290923]

>  <Cp_T_units>  (5) 
cal/(mol*K)

>  <T_list>  (5) 
[300.0, 400.0, 500.0, 600.0, 800.0, 1000.0, 1500.0, 2000.0, 2400.0]

>  <T_units>  (5) 
K

>  <yaml_path>  (5) 
/home/calvin/Dropbox/PersonalFolders/Calvin/ZEUS_Converged/rmg_rxn_14135/output/Species/rmg_rxn_14135_r2_Csbr-CH-sbrCC/rmg_rxn_14135_r2_Csbr-CH-sbrCC.yml

>  <frequencies_cm1>  (5) 
[56.84490447896, 98.78845081352, 231.15645984184, 255.98747875895998, 343.02651768996, 433.15570001495996, 765.0302335452399, 850.6821414415999, 969.8792726261601, 986.4561751886399, 1035.713060889, 1061.1277735583199, 1129.08346028504, 1177.0836876718397, 1262.3853793168798, 1303.7933007964798, 1389.89842972396, 1402.2452693293199, 1414.45476922828, 1456.0687002674797, 1460.55284168144, 1471.1898019421196, 1484.2096061088398, 1489.95040583636, 2924.0516200651596, 2943.40278469692, 2976.8244022493595, 3009.05803134144, 3013.50097084348, 3083.1390689736, 3085.4944449383597, 3091.2352446658797, 3146.1642602405595]

>  <ZPE_kJmol>  (5) 
303.861341375402

>  <E_elec_kJmol>  (5) 
-414299.087781911

>  <E0_minus_Eelec_plus_ZPE_kJmol>  (5) 
0.0

>  <rxn>  (5) 
rmg_rxn_14135

>  <species_type>  (5) 
r1

>  <species_folder>  (5) 
rmg_rxn_14135_r2_Csbr-CH-sbrCC

>  <frequencies_cm1_list>  (5) 
[56.84490447896, 98.78845081352, 231.15645984184, 255.98747875895998, 343.02651768996, 433.15570001495996, 765.0302335452399, 850.6821414415999, 969.8792726261601, 986.4561751886399, 1035.713060889, 1061.1277735583199, 1129.08346028504, 1177.0836876718397, 1262.3853793168798, 1303.7933007964798, 1389.89842972396, 1402.2452693293199, 1414.45476922828, 1456.0687002674797, 1460.55284168144, 1471.1898019421196, 1484.2096061088398, 1489.95040583636, 2924.0516200651596, 2943.40278469692, 2976.8244022493595, 3009.05803134144, 3013.50097084348, 3083.1390689736, 3085.4944449383597, 3091.2352446658797, 3146.1642602405595]

>  <E0_kJmol>  (5) 
-413995

>  <H298_kJmol>  (5) 
-413976

$$$$
