
     RDKit          3D

 17 16  0  0  0  0  0  0  0  0999 V2000
    1.2158   -2.2748    1.1129 C   0  0  0  0  0  0  0  0  0  1  0  0
    1.8178   -0.9463    0.7833 C   0  0  0  0  0  0  0  0  0  2  0  0
    1.2238    0.0064    0.0776 C   0  0  0  0  0  0  0  0  0  3  0  0
   -0.0030   -0.1729   -0.4839 O   0  0  0  0  0  0  0  0  0  4  0  0
   -0.7474    1.0775   -0.4649 N   0  0  0  0  0  0  0  0  0  5  0  0
   -1.4891    1.2055    0.6667 N   0  0  0  0  0  0  0  0  0  6  0  0
   -1.5816    1.0433   -1.6515 C   0  0  0  0  0  0  0  0  0  7  0  0
    1.6310   -3.0664    0.4819 H   0  0  0  0  0  0  0  0  0  8  0  0
    0.1352   -2.2584    0.9707 H   0  0  0  0  0  0  0  0  0  9  0  0
    1.4259   -2.5486    2.1487 H   0  0  0  0  0  0  0  0  0 10  0  0
    2.8290   -0.7430    1.1152 H   0  0  0  0  0  0  0  0  0 11  0  0
    1.6792    0.9696   -0.1271 H   0  0  0  0  0  0  0  0  0 12  0  0
   -2.1039    0.4050    0.8008 H   0  0  0  0  0  0  0  0  0 13  0  0
   -0.8487    1.1566    1.4569 H   0  0  0  0  0  0  0  0  0 14  0  0
   -0.9379    0.9894   -2.5263 H   0  0  0  0  0  0  0  0  0 15  0  0
   -2.1568    1.9660   -1.6717 H   0  0  0  0  0  0  0  0  0 16  0  0
   -2.2567    0.1804   -1.6393 H   0  0  0  0  0  0  0  0  0 17  0  0
  1 10  1  0
  1  8  1  0
  1  9  1  0
  1  2  1  0
  2 11  1  0
  2  3  1  0
  3  4  1  0
  3 12  1  0
  4  5  1  0
  5  6  1  0
  5  7  1  0
  6 14  1  0
  6 13  1  0
  7 17  1  0
  7 15  1  0
  7 16  1  0
M  END
>  <rmg_smiles>  (1) 
C[CH][CH]ON(N)C

>  <rmg_adjacency_list>  (1) 
1  O u0 p2 c0 {2,S} {7,S}
2  N u0 p1 c0 {1,S} {3,S} {4,S}
3  N u0 p1 c0 {2,S} {16,S} {17,S}
4  C u0 p0 c0 {2,S} {11,S} {12,S} {13,S}
5  C u0 p0 c0 {6,S} {8,S} {9,S} {10,S}
6  C u0 p0 c0 {5,S} {7,S} {14,S}
7  C u0 p0 c0 {1,S} {6,S} {15,S}
8  H u0 p0 c0 {5,S}
9  H u0 p0 c0 {5,S}
10 H u0 p0 c0 {5,S}
11 H u0 p0 c0 {4,S}
12 H u0 p0 c0 {4,S}
13 H u0 p0 c0 {4,S}
14 H u0 p0 c0 {6,S}
15 H u0 p0 c0 {7,S}
16 H u0 p0 c0 {3,S}
17 H u0 p0 c0 {3,S}


>  <multiplicity>  (1) 
1

>  <reaction>  (1) 
rmg_rxn_15711

>  <type>  (1) 
r1h

>  <role_mapnums>  (1) 
{"r1h_a": 6, "r1h_h": 13}

>  <role_mapidx>  (1) 
{"r1h_a": 5, "r1h_h": 12}

>  <ordered_mapped_smiles>  (1) 
[C:1]([CH:2]([CH:3]([O:4][N:5]([N:6]([H:13])[H:14])[C:7]([H:15])([H:16])[H:17])[H:12])[H:11])([H:8])([H:9])[H:10]

>  <mol_properties>  (1) 
{"5": {"label": "donator", "atom_type": "N3s"}, "12": {"label": "d_hydrogen", "atom_type": "H0"}}

>  <level_of_theory>  (1) 
wb97xd/def2tzvp

>  <lot_method>  (1) 
wb97xd

>  <lot_basis>  (1) 
def2tzvp

>  <spin_multiplicity>  (1) 
1.0

>  <optical_isomers>  (1) 
2.0

>  <modes>  (1) 
IdealGasTranslation(mass=(102.079, 'amu')),         NonlinearRotor(             inertia = ([85.6795, 376.18, 388.876

>  <frequency_value>  (1) 
unknown

>  <frequency_units>  (1) 
unknown

>  <frequency_list>  (1) 
unknown

>  <arkane_path>  (1) 
/home/calvin/Dropbox/PersonalFolders/Calvin/ZEUS_Converged/rmg_rxn_15711/output/Species/rmg_rxn_15711_r2_CC=CONrbr-N-rbrC/arkane/output.py

>  <path_exists>  (1) 
True

>  <E0_value>  (1) 
-900405.0494296006

>  <E0_units>  (1) 
kJ/mol

>  <thermo_class>  (1) 
NASA

>  <Cp0_value>  (1) 
33.257888

>  <Cp0_units>  (1) 
J/(mol*K)

>  <CpInf_value>  (1) 
407.409128

>  <CpInf_units>  (1) 
J/(mol*K)

>  <Tmin_value>  (1) 
10.0

>  <Tmin_units>  (1) 
K

>  <Tmax_value>  (1) 
3000.0

>  <Tmax_units>  (1) 
K

>  <polynomials>  (1) 
[{"name": "polynomial1", "class": "NASAPolynomial", "Tmin_value": 10.0, "Tmin_units": "K", "Tmax_value": 1108.736796573486, "Tmax_units": "K", "coeffs": [3.593482067657345, 0.04527343613148581, -7.853115807860651e-07, -2.043658609457127e-08, 8.18045447415304e-12, -108293714.18687978, 12.85162704751556]}, {"name": "polynomial2", "class": "NASAPolynomial", "Tmin_value": 1108.736796573486, "Tmin_units": "K", "Tmax_value": 3000.0, "Tmax_units": "K", "coeffs": [7.506038002578287, 0.046589931565087575, -2.3444009976697085e-05, 5.741145862751885e-09, -5.527118171710488e-13, -108295530.30298632, -10.705520626468415]}]

>  <H298_value>  (1) 
-215195.9362782153

>  <H298_units>  (1) 
kcal/mol

>  <S298_value>  (1) 
92.63660749241524

>  <S298_units>  (1) 
cal/(mol*K)

>  <Cp_T_value_list>  (1) 
[33.0259983327988, 40.69537554931736, 47.67423133324528, 53.89446290908325, 63.981717362233816, 71.19261681574156, 81.91300293988421, 87.42841994031997, 90.0449470406118]

>  <Cp_T_units>  (1) 
cal/(mol*K)

>  <T_list>  (1) 
[300.0, 400.0, 500.0, 600.0, 800.0, 1000.0, 1500.0, 2000.0, 2400.0]

>  <T_units>  (1) 
K

>  <yaml_path>  (1) 
/home/calvin/Dropbox/PersonalFolders/Calvin/ZEUS_Converged/rmg_rxn_15711/output/Species/rmg_rxn_15711_r2_CC=CONrbr-N-rbrC/rmg_rxn_15711_r2_CC=CONrbr-N-rbrC.yml

>  <frequencies_cm1>  (1) 
[42.90492427935999, 70.94969232623998, 121.85465450339998, 166.71666959895998, 253.87244728039994, 301.92074356444, 373.40606074563993, 419.64833989052, 445.81842094504, 504.72342102, 549.00174236336, 631.06908392268, 758.13578028396, 848.92419319968, 869.8822323963199, 938.1057315505199, 966.4663809221199, 985.6939398181199, 1045.86246519196, 1060.8324931895597, 1129.8319616849199, 1145.91444130436, 1177.50257377636, 1255.0720399510801, 1275.68672988172, 1357.8776771768, 1378.40309629828, 1417.9431977708398, 1431.4368239246398, 1469.8713407606797, 1474.3760831306, 1478.2284618951198, 1482.71260330908, 1665.8688357641197, 1738.5215404497199, 2975.03898606616, 3009.26404090104, 3062.7647235291597, 3097.66960991072, 3105.09968802696, 3145.0998775159596, 3146.5076095065597, 3168.9763854735997, 3405.2006804816, 3560.0443324622797]

>  <ZPE_kJmol>  (1) 
382.271003727177

>  <E_elec_kJmol>  (1) 
-900787.3204333278

>  <E0_minus_Eelec_plus_ZPE_kJmol>  (1) 
0.0

>  <rxn>  (1) 
rmg_rxn_15711

>  <species_type>  (1) 
r1

>  <species_folder>  (1) 
rmg_rxn_15711_r2_CC=CONrbr-N-rbrC

>  <frequencies_cm1_list>  (1) 
[42.90492427935999, 70.94969232623998, 121.85465450339998, 166.71666959895998, 253.87244728039994, 301.92074356444, 373.40606074563993, 419.64833989052, 445.81842094504, 504.72342102, 549.00174236336, 631.06908392268, 758.13578028396, 848.92419319968, 869.8822323963199, 938.1057315505199, 966.4663809221199, 985.6939398181199, 1045.86246519196, 1060.8324931895597, 1129.8319616849199, 1145.91444130436, 1177.50257377636, 1255.0720399510801, 1275.68672988172, 1357.8776771768, 1378.40309629828, 1417.9431977708398, 1431.4368239246398, 1469.8713407606797, 1474.3760831306, 1478.2284618951198, 1482.71260330908, 1665.8688357641197, 1738.5215404497199, 2975.03898606616, 3009.26404090104, 3062.7647235291597, 3097.66960991072, 3105.09968802696, 3145.0998775159596, 3146.5076095065597, 3168.9763854735997, 3405.2006804816, 3560.0443324622797]

>  <E0_kJmol>  (1) 
-900405

>  <H298_kJmol>  (1) 
-900380

$$$$

     RDKit          3D

  9  8  0  0  0  0  0  0  0  0999 V2000
   -0.5455    1.1958    1.0408 C   0  0  0  0  0  0  0  0  0  1  0  0
    0.0471    0.0137    0.6413 O   0  0  0  0  0  0  0  0  0  2  0  0
   -0.0786   -0.1676   -0.7201 N   0  0  0  0  0  0  0  0  0  3  0  0
    0.5849   -1.1649   -1.1201 C   0  0  0  0  0  0  0  0  0  4  0  0
   -1.4667    1.4191    0.5034 H   0  0  0  0  0  0  0  0  0  5  0  0
   -0.6398    1.1850    2.1238 H   0  0  0  0  0  0  0  0  0  6  0  0
    0.5331   -1.3851   -2.1778 H   0  0  0  0  0  0  0  0  0  7  0  0
    1.1841   -1.7788   -0.4524 H   0  0  0  0  0  0  0  0  0  8  0  0
    0.0850    2.0581    0.8330 H   0  0  0  0  0  0  0  0  0  9  0  0
  1  5  1  0
  1  9  1  0
  1  2  1  0
  1  6  1  0
  2  3  1  0
  3  4  1  0
  4  8  1  0
  4  7  1  0
M  END
>  <rmg_smiles>  (2) 
CO[N][CH2]

>  <rmg_adjacency_list>  (2) 
1 O u0 p2 c0 {2,S} {3,S}
2 N u0 p1 c0 {1,S} {4,S}
3 C u0 p0 c0 {1,S} {5,S} {6,S} {7,S}
4 C u0 p0 c0 {2,S} {8,S} {9,S}
5 H u0 p0 c0 {3,S}
6 H u0 p0 c0 {3,S}
7 H u0 p0 c0 {3,S}
8 H u0 p0 c0 {4,S}
9 H u0 p0 c0 {4,S}


>  <multiplicity>  (2) 
1

>  <reaction>  (2) 
rmg_rxn_15711

>  <type>  (2) 
r2h

>  <role_mapnums>  (2) 
{"r2h_a": 1, "r2h_h": 9}

>  <role_mapidx>  (2) 
{"r2h_a": 0, "r2h_h": 8}

>  <ordered_mapped_smiles>  (2) 
[C:1]([O:2][NH:3][CH:4]([H:7])[H:8])([H:5])([H:6])[H:9]

>  <mol_properties>  (2) 
{"0": {"label": "acceptor", "atom_type": "Cs"}, "8": {"label": "a_hydrogen", "atom_type": "H0"}}

>  <level_of_theory>  (2) 
wb97xd/def2tzvp

>  <lot_method>  (2) 
wb97xd

>  <lot_basis>  (2) 
def2tzvp

>  <spin_multiplicity>  (2) 
1.0

>  <optical_isomers>  (2) 
1.0

>  <modes>  (2) 
IdealGasTranslation(mass=(59.0371, 'amu')),         NonlinearRotor(             inertia = ([11.9742, 101.538, 110.304

>  <frequency_value>  (2) 
unknown

>  <frequency_units>  (2) 
unknown

>  <frequency_list>  (2) 
unknown

>  <arkane_path>  (2) 
/home/calvin/Dropbox/PersonalFolders/Calvin/ZEUS_Converged/rmg_rxn_15711/output/Species/rmg_rxn_15711_p1_CON=C/arkane/output.py

>  <path_exists>  (2) 
True

>  <E0_value>  (2) 
-548882.9200394232

>  <E0_units>  (2) 
kJ/mol

>  <thermo_class>  (2) 
NASA

>  <Cp0_value>  (2) 
33.257888

>  <Cp0_units>  (2) 
J/(mol*K)

>  <CpInf_value>  (2) 
207.8618

>  <CpInf_units>  (2) 
J/(mol*K)

>  <Tmin_value>  (2) 
10.0

>  <Tmin_units>  (2) 
K

>  <Tmax_value>  (2) 
3000.0

>  <Tmax_units>  (2) 
K

>  <polynomials>  (2) 
[{"name": "polynomial1", "class": "NASAPolynomial", "Tmin_value": 10.0, "Tmin_units": "K", "Tmax_value": 1066.0445442103917, "Tmax_units": "K", "coeffs": [3.9488472240731216, 0.012909444164008412, 1.8432835387873368e-05, -2.5565901414715004e-08, 8.632634293818456e-12, -66015370.98001154, 7.906058800048573]}, {"name": "polynomial2", "class": "NASAPolynomial", "Tmin_value": 1066.0445442103917, "Tmin_units": "K", "Tmax_value": 3000.0, "Tmax_units": "K", "coeffs": [4.051174026649639, 0.02340322367340144, -1.163838712217072e-05, 2.8112466199843713e-09, -2.6680947262736413e-13, -66016010.897278614, 4.506810904924114]}]

>  <H298_value>  (2) 
-131182.46582067996

>  <H298_units>  (2) 
kcal/mol

>  <S298_value>  (2) 
69.27397375028742

>  <S298_units>  (2) 
cal/(mol*K)

>  <Cp_T_value_list>  (2) 
[17.607207323409234, 21.157104611048137, 24.5530891366924, 27.67560467885903, 32.827861850696166, 36.480858050170255, 41.94371504002133, 44.76201379304356, 46.08804102499818]

>  <Cp_T_units>  (2) 
cal/(mol*K)

>  <T_list>  (2) 
[300.0, 400.0, 500.0, 600.0, 800.0, 1000.0, 1500.0, 2000.0, 2400.0]

>  <T_units>  (2) 
K

>  <yaml_path>  (2) 
/home/calvin/Dropbox/PersonalFolders/Calvin/ZEUS_Converged/rmg_rxn_15711/output/Species/rmg_rxn_15711_p1_CON=C/rmg_rxn_15711_p1_CON=C.yml

>  <frequencies_cm1>  (2) 
[119.61601728907998, 180.59484693068, 346.29520270228, 574.9726808436, 796.6046320465999, 891.08061607916, 982.9746136314, 1126.32979917172, 1169.7222794088, 1171.7686410341598, 1237.71230106212, 1418.12173938916, 1456.2266409298397, 1467.4060930307999, 1493.1160860688801, 1708.0183916582798, 3005.45973103376, 3077.28153049564, 3083.54422110748, 3121.53925088304, 3213.405780494]

>  <ZPE_kJmol>  (2) 
189.2599943319938

>  <E_elec_kJmol>  (2) 
-549072.1800337551

>  <E0_minus_Eelec_plus_ZPE_kJmol>  (2) 
0.0

>  <rxn>  (2) 
rmg_rxn_15711

>  <species_type>  (2) 
p0

>  <species_folder>  (2) 
rmg_rxn_15711_p1_CON=C

>  <frequencies_cm1_list>  (2) 
[119.61601728907998, 180.59484693068, 346.29520270228, 574.9726808436, 796.6046320465999, 891.08061607916, 982.9746136314, 1126.32979917172, 1169.7222794088, 1171.7686410341598, 1237.71230106212, 1418.12173938916, 1456.2266409298397, 1467.4060930307999, 1493.1160860688801, 1708.0183916582798, 3005.45973103376, 3077.28153049564, 3083.54422110748, 3121.53925088304, 3213.405780494]

>  <E0_kJmol>  (2) 
-548883

>  <H298_kJmol>  (2) 
-548867

$$$$

     RDKit          3D

 25 23  0  0  0  0  0  0  0  0999 V2000
   -2.0768   -0.1409    0.9539 C   0  0  0  0  0  3  0  0  0  1  0  0
   -1.4841   -1.3229    0.5544 O   0  0  0  0  0  0  0  0  0  2  0  0
   -1.6098   -1.5042   -0.8071 N   0  0  0  0  0  0  0  0  0  3  0  0
   -0.9463   -2.5015   -1.2071 C   0  0  0  0  0  0  0  0  0  4  0  0
   -2.9980    0.0824    0.4165 H   0  0  0  0  0  0  0  0  0  5  0  0
   -2.1711   -0.1516    2.0369 H   0  0  0  0  0  0  0  0  0  6  0  0
   -0.9982   -2.7217   -2.2648 H   0  0  0  0  0  0  0  0  0  7  0  0
   -0.3472   -3.1154   -0.5394 H   0  0  0  0  0  0  0  0  0  8  0  0
    2.1848   -1.5412    0.9703 C   0  0  0  0  0  0  0  0  0  9  0  0
    2.7869   -0.2127    0.6407 C   0  0  0  0  0  0  0  0  0 10  0  0
    2.1928    0.7401   -0.0650 C   0  0  0  0  0  0  0  0  0 11  0  0
    0.9660    0.5607   -0.6264 O   0  0  0  0  0  0  0  0  0 12  0  0
    0.2216    1.8111   -0.6075 N   0  0  0  0  0  0  0  0  0 13  0  0
   -0.5200    1.9392    0.5241 N   0  0  0  0  0  0  0  0  0 14  0  0
   -0.6126    1.7769   -1.7940 C   0  0  0  0  0  0  0  0  0 15  0  0
    2.6001   -2.3327    0.3393 H   0  0  0  0  0  0  0  0  0 16  0  0
    1.1042   -1.5247    0.8282 H   0  0  0  0  0  0  0  0  0 17  0  0
    2.3949   -1.8150    2.0062 H   0  0  0  0  0  0  0  0  0 18  0  0
    3.7980   -0.0093    0.9726 H   0  0  0  0  0  0  0  0  0 19  0  0
    2.6482    1.7032   -0.2697 H   0  0  0  0  0  0  0  0  0 20  0  0
   -1.2678    0.9655    0.6872 H   0  0  0  0  0  0  0  0  0 21  0  0
    0.1203    1.8903    1.3143 H   0  0  0  0  0  0  0  0  0 22  0  0
    0.0312    1.7230   -2.6688 H   0  0  0  0  0  0  0  0  0 23  0  0
   -1.1877    2.6996   -1.8143 H   0  0  0  0  0  0  0  0  0 24  0  0
   -1.2877    0.9140   -1.7819 H   0  0  0  0  0  0  0  0  0 25  0  0
  1  2  1  0
  1  5  1  0
  1  6  1  0
  2  3  1  0
  3  4  1  0
  4  7  1  0
  4  8  1  0
  9 17  1  0
  9 18  1  0
  9 16  1  0
  9 10  1  0
 10 11  1  0
 10 19  1  0
 11 12  1  0
 11 20  1  0
 12 13  1  0
 13 15  1  0
 13 14  1  0
 14 22  1  0
 14 21  1  0
 15 25  1  0
 15 23  1  0
 15 24  1  0
M  RAD  1   1   2
M  END
>  <rmg_smiles>  (3) 
C[CH][CH]ON(N)C.[CH2]O[N][CH2]

>  <rmg_adjacency_list>  (3) 
multiplicity 2
1  O u0 p2 c0 {3,S} {9,S}
2  O u0 p2 c0 {5,S} {10,S}
3  N u0 p1 c0 {1,S} {4,S} {6,S}
4  N u0 p1 c0 {3,S} {20,S} {21,S}
5  N u0 p1 c0 {2,S} {11,S}
6  C u0 p0 c0 {3,S} {15,S} {16,S} {17,S}
7  C u0 p0 c0 {8,S} {12,S} {13,S} {14,S}
8  C u0 p0 c0 {7,S} {9,S} {18,S}
9  C u0 p0 c0 {1,S} {8,S} {19,S}
10 C u1 p0 c0 {2,S} {22,S} {23,S}
11 C u0 p0 c0 {5,S} {24,S} {25,S}
12 H u0 p0 c0 {7,S}
13 H u0 p0 c0 {7,S}
14 H u0 p0 c0 {7,S}
15 H u0 p0 c0 {6,S}
16 H u0 p0 c0 {6,S}
17 H u0 p0 c0 {6,S}
18 H u0 p0 c0 {8,S}
19 H u0 p0 c0 {9,S}
20 H u0 p0 c0 {4,S}
21 H u0 p0 c0 {4,S}
22 H u0 p0 c0 {10,S}
23 H u0 p0 c0 {10,S}
24 H u0 p0 c0 {11,S}
25 H u0 p0 c0 {11,S}


>  <multiplicity>  (3) 
2

>  <reaction>  (3) 
rmg_rxn_15711

>  <type>  (3) 
ts

>  <role_mapnums>  (3) 
{"*2": 21, "*1": 14, "*3": 1, "*0": 13, "*4": 2}

>  <role_mapidx>  (3) 
{"*2": 20, "*1": 13, "*3": 0, "*0": 12, "*4": 1}

>  <ordered_mapped_smiles>  (3) 
[C:1]([O:2][NH:3][CH:4]([H:7])[H:8])([H:5])[H:6].[C:9]([CH:10]([CH:11]([O:12][N:13]([N:14]([H:21])[H:22])[C:15]([H:23])([H:24])[H:25])[H:20])[H:19])([H:16])([H:17])[H:18]

>  <mol_properties>  (3) 
{"0": {"label": "*3", "atom_type": "Cs"}, "1": {"label": "*4", "atom_type": "O2s"}, "12": {"label": "*0", "atom_type": "N3s"}, "13": {"label": "*1", "atom_type": "N3s"}, "20": {"label": "*2", "atom_type": "H0"}}

>  <level_of_theory>  (3) 
wb97xd/def2tzvp

>  <lot_method>  (3) 
wb97xd

>  <lot_basis>  (3) 
def2tzvp

>  <spin_multiplicity>  (3) 
2.0

>  <optical_isomers>  (3) 
2.0

>  <modes>  (3) 
IdealGasTranslation(mass=(160.109, 'amu')),         NonlinearRotor(             inertia = ([472.202, 575.223, 795.171

>  <frequency_value>  (3) 
-1946.37

>  <frequency_units>  (3) 
cm^-1

>  <frequency_list>  (3) 
unknown

>  <arkane_path>  (3) 
/home/calvin/Dropbox/PersonalFolders/Calvin/ZEUS_Converged/rmg_rxn_15711/output/rxns/TS0/arkane/output.py

>  <path_exists>  (3) 
True

>  <E0_value>  (3) 
-1447540.0

>  <E0_units>  (3) 
kJ/mol

>  <thermo_class>  (3) 
unknown

>  <Cp0_value>  (3) 
unknown

>  <Cp0_units>  (3) 
unknown

>  <CpInf_value>  (3) 
unknown

>  <CpInf_units>  (3) 
unknown

>  <Tmin_value>  (3) 
unknown

>  <Tmin_units>  (3) 
unknown

>  <Tmax_value>  (3) 
unknown

>  <Tmax_units>  (3) 
unknown

>  <polynomials>  (3) 
unknown

>  <H298_value>  (3) 
unknown

>  <H298_units>  (3) 
unknown

>  <S298_value>  (3) 
unknown

>  <S298_units>  (3) 
unknown

>  <Cp_T_value_list>  (3) 
unknown

>  <Cp_T_units>  (3) 
unknown

>  <T_list>  (3) 
unknown

>  <T_units>  (3) 
unknown

>  <yaml_path>  (3) 
unknown

>  <frequencies_cm1>  (3) 
unknown

>  <ZPE_kJmol>  (3) 
unknown

>  <E_elec_kJmol>  (3) 
unknown

>  <E0_minus_Eelec_plus_ZPE_kJmol>  (3) 
unknown

>  <rxn>  (3) 
unknown

>  <species_type>  (3) 
unknown

>  <species_folder>  (3) 
unknown

>  <frequencies_cm1_list>  (3) 
[]

>  <ts_imag_freq_cm1>  (3) 
-1970.011

>  <ts_freq_out_path>  (3) 
/home/calvin/Dropbox/PersonalFolders/Calvin/ZEUS_Converged/rmg_rxn_15711/output/rxns/TS0/geometry/freq.out

>  <E0_kJmol>  (3) 
-1.44754e+06

>  <H298_kJmol>  (3) 
unknown

$$$$

     RDKit          3D

 16 15  0  0  0  0  0  0  0  0999 V2000
   -2.7163    0.6711   -0.2082 C   0  0  0  0  0  0  0  0  0  1  0  0
   -2.0604   -0.6699   -0.1371 C   0  0  0  0  0  0  0  0  0  2  0  0
   -1.8776   -1.4967   -1.1546 C   0  0  0  0  0  0  0  0  0  3  0  0
   -2.2450   -1.1612   -2.4322 O   0  0  0  0  0  0  0  0  0  4  0  0
   -2.5108   -2.3329   -3.2086 N   0  0  0  0  0  0  0  0  0  5  0  0
   -2.0229   -2.3050   -4.4233 N   0  0  0  0  0  2  0  0  0  6  0  0
   -3.9082   -2.7128   -3.0828 C   0  0  0  0  0  0  0  0  0  7  0  0
   -3.4812    0.7676    0.5653 H   0  0  0  0  0  0  0  0  0  8  0  0
   -3.1809    0.8365   -1.1792 H   0  0  0  0  0  0  0  0  0  9  0  0
   -1.9897    1.4706   -0.0417 H   0  0  0  0  0  0  0  0  0 10  0  0
   -1.6717   -0.9974    0.8197 H   0  0  0  0  0  0  0  0  0 11  0  0
   -1.3990   -2.4648   -1.0638 H   0  0  0  0  0  0  0  0  0 12  0  0
   -1.1779   -1.7364   -4.3793 H   0  0  0  0  0  0  0  0  0 13  0  0
   -4.5563   -1.9305   -3.4853 H   0  0  0  0  0  0  0  0  0 14  0  0
   -4.1357   -2.8800   -2.0315 H   0  0  0  0  0  0  0  0  0 15  0  0
   -4.0457   -3.6333   -3.6440 H   0  0  0  0  0  0  0  0  0 16  0  0
  1 10  1  0
  1  8  1  0
  1  9  1  0
  1  2  1  0
  2 11  1  0
  2  3  1  0
  3  4  1  0
  3 12  1  0
  4  5  1  0
  5  6  1  0
  5  7  1  0
  6 13  1  0
  7 14  1  0
  7 15  1  0
  7 16  1  0
M  RAD  1   6   2
M  END
>  <rmg_smiles>  (4) 
C[CH][CH]ON([NH])C

>  <rmg_adjacency_list>  (4) 
multiplicity 2
1  O u0 p2 c0 {2,S} {7,S}
2  N u0 p1 c0 {1,S} {3,S} {5,S}
3  N u1 p1 c0 {2,S} {16,S}
4  C u0 p0 c0 {6,S} {8,S} {9,S} {10,S}
5  C u0 p0 c0 {2,S} {11,S} {12,S} {13,S}
6  C u0 p0 c0 {4,S} {7,S} {14,S}
7  C u0 p0 c0 {1,S} {6,S} {15,S}
8  H u0 p0 c0 {4,S}
9  H u0 p0 c0 {4,S}
10 H u0 p0 c0 {4,S}
11 H u0 p0 c0 {5,S}
12 H u0 p0 c0 {5,S}
13 H u0 p0 c0 {5,S}
14 H u0 p0 c0 {6,S}
15 H u0 p0 c0 {7,S}
16 H u0 p0 c0 {3,S}


>  <multiplicity>  (4) 
2

>  <reaction>  (4) 
rmg_rxn_15711

>  <type>  (4) 
r1

>  <role_mapnums>  (4) 
{}

>  <role_mapidx>  (4) 
{}

>  <ordered_mapped_smiles>  (4) 
[C:1]([CH:2]([CH:3]([O:4][N:5]([N:6][H:13])[C:7]([H:14])([H:15])[H:16])[H:12])[H:11])([H:8])([H:9])[H:10]

>  <level_of_theory>  (4) 
wb97xd/def2tzvp

>  <lot_method>  (4) 
wb97xd

>  <lot_basis>  (4) 
def2tzvp

>  <spin_multiplicity>  (4) 
2.0

>  <optical_isomers>  (4) 
2.0

>  <modes>  (4) 
IdealGasTranslation(mass=(101.071, 'amu')),         NonlinearRotor(             inertia = ([82.2482, 367.276, 386.349

>  <frequency_value>  (4) 
unknown

>  <frequency_units>  (4) 
unknown

>  <frequency_list>  (4) 
unknown

>  <arkane_path>  (4) 
/home/calvin/Dropbox/PersonalFolders/Calvin/ZEUS_Converged/rmg_rxn_15711/output/Species/rmg_rxn_15711_p2_CC=CONrbr-sbr-NH-sbr-rbrC/arkane/output.py

>  <path_exists>  (4) 
True

>  <E0_value>  (4) 
-898742.9185377804

>  <E0_units>  (4) 
kJ/mol

>  <thermo_class>  (4) 
NASA

>  <Cp0_value>  (4) 
33.257888

>  <Cp0_units>  (4) 
J/(mol*K)

>  <CpInf_value>  (4) 
382.465712

>  <CpInf_units>  (4) 
J/(mol*K)

>  <Tmin_value>  (4) 
10.0

>  <Tmin_units>  (4) 
K

>  <Tmax_value>  (4) 
3000.0

>  <Tmax_units>  (4) 
K

>  <polynomials>  (4) 
[{"name": "polynomial1", "class": "NASAPolynomial", "Tmin_value": 10.0, "Tmin_units": "K", "Tmax_value": 1230.351550791476, "Tmax_units": "K", "coeffs": [3.636448192617725, 0.046012269057782156, -1.0447598723861432e-05, -9.397618320350448e-09, 4.2997715161361366e-12, -108093806.20736969, 13.356245971953898]}, {"name": "polynomial2", "class": "NASAPolynomial", "Tmin_value": 1230.351550791476, "Tmin_units": "K", "Tmax_value": 3000.0, "Tmax_units": "K", "coeffs": [10.637798077256372, 0.03762876756034826, -1.7756617991574368e-05, 4.0613531266158274e-09, -3.6506325325576807e-13, -108096617.32351352, -26.295285854594052]}]

>  <H298_value>  (4) 
-214798.71695714595

>  <H298_units>  (4) 
kcal/mol

>  <S298_value>  (4) 
93.88909266705956

>  <S298_units>  (4) 
cal/(mol*K)

>  <Cp_T_value_list>  (4) 
[32.353584800793946, 39.50241933237663, 45.9535869024618, 51.687318427953755, 61.025931419689, 67.77024327047224, 77.47619958424356, 82.5061792663907, 84.85559276208323]

>  <Cp_T_units>  (4) 
cal/(mol*K)

>  <T_list>  (4) 
[300.0, 400.0, 500.0, 600.0, 800.0, 1000.0, 1500.0, 2000.0, 2400.0]

>  <T_units>  (4) 
K

>  <yaml_path>  (4) 
/home/calvin/Dropbox/PersonalFolders/Calvin/ZEUS_Converged/rmg_rxn_15711/output/Species/rmg_rxn_15711_p2_CC=CONrbr-sbr-NH-sbr-rbrC/rmg_rxn_15711_p2_CC=CONrbr-sbr-NH-sbr-rbrC.yml

>  <frequencies_cm1>  (4) 
[39.766711988119994, 75.63297631448, 123.26238649399998, 170.50724549560002, 210.75464645612, 275.49658405307997, 409.25172411604, 436.20464149704003, 468.50694044231994, 500.21867865008005, 576.8748357772399, 635.10687129084, 759.24136492048, 839.57822617916, 939.32118795216, 961.2680730348799, 1009.44684204, 1040.7534281138799, 1058.9372052412398, 1116.31086758984, 1136.6302771517198, 1158.60463017572, 1269.5201770643598, 1302.9417946168, 1381.1704913822398, 1418.63676328816, 1428.2162078095598, 1447.1828212633998, 1467.8867820031996, 1473.94346305544, 1477.12974424392, 1484.2920099326798, 1743.06061774624, 3013.6108426086, 3018.15678689044, 3068.4780553153996, 3106.953774063359, 3110.6619461361597, 3147.0088994349203, 3149.9479691518795, 3171.6476427630796, 3452.55541124832]

>  <ZPE_kJmol>  (4) 
347.3638170215182

>  <E_elec_kJmol>  (4) 
-899090.2823548019

>  <E0_minus_Eelec_plus_ZPE_kJmol>  (4) 
0.0

>  <rxn>  (4) 
rmg_rxn_15711

>  <species_type>  (4) 
p1

>  <species_folder>  (4) 
rmg_rxn_15711_p2_CC=CONrbr-sbr-NH-sbr-rbrC

>  <frequencies_cm1_list>  (4) 
[39.766711988119994, 75.63297631448, 123.26238649399998, 170.50724549560002, 210.75464645612, 275.49658405307997, 409.25172411604, 436.20464149704003, 468.50694044231994, 500.21867865008005, 576.8748357772399, 635.10687129084, 759.24136492048, 839.57822617916, 939.32118795216, 961.2680730348799, 1009.44684204, 1040.7534281138799, 1058.9372052412398, 1116.31086758984, 1136.6302771517198, 1158.60463017572, 1269.5201770643598, 1302.9417946168, 1381.1704913822398, 1418.63676328816, 1428.2162078095598, 1447.1828212633998, 1467.8867820031996, 1473.94346305544, 1477.12974424392, 1484.2920099326798, 1743.06061774624, 3013.6108426086, 3018.15678689044, 3068.4780553153996, 3106.953774063359, 3110.6619461361597, 3147.0088994349203, 3149.9479691518795, 3171.6476427630796, 3452.55541124832]

>  <E0_kJmol>  (4) 
-898743

>  <H298_kJmol>  (4) 
-898718

$$$$

     RDKit          3D

  8  7  0  0  0  0  0  0  0  0999 V2000
    1.7077   -0.1964   -0.0607 C   0  0  0  0  0  3  0  0  0  1  0  0
    0.4209   -0.4565    0.2808 O   0  0  0  0  0  0  0  0  0  2  0  0
   -0.4607    0.4385   -0.2968 N   0  0  0  0  0  0  0  0  0  3  0  0
   -1.6584    0.1416   -0.0244 C   0  0  0  0  0  0  0  0  0  4  0  0
    2.4163   -0.7685    0.5170 H   0  0  0  0  0  0  0  0  0  5  0  0
    1.9214    0.7645   -0.5045 H   0  0  0  0  0  0  0  0  0  6  0  0
   -2.4185    0.7953   -0.4307 H   0  0  0  0  0  0  0  0  0  7  0  0
   -1.9286   -0.7185    0.5831 H   0  0  0  0  0  0  0  0  0  8  0  0
  1  6  1  0
  1  5  1  0
  1  2  1  0
  2  3  1  0
  3  4  1  0
  4  8  1  0
  4  7  1  0
M  RAD  1   1   2
M  END
>  <rmg_smiles>  (5) 
[CH2]O[N][CH2]

>  <rmg_adjacency_list>  (5) 
multiplicity 2
1 O u0 p2 c0 {2,S} {3,S}
2 N u0 p1 c0 {1,S} {4,S}
3 C u1 p0 c0 {1,S} {5,S} {6,S}
4 C u0 p0 c0 {2,S} {7,S} {8,S}
5 H u0 p0 c0 {3,S}
6 H u0 p0 c0 {3,S}
7 H u0 p0 c0 {4,S}
8 H u0 p0 c0 {4,S}


>  <multiplicity>  (5) 
2

>  <reaction>  (5) 
rmg_rxn_15711

>  <type>  (5) 
r2

>  <role_mapnums>  (5) 
{}

>  <role_mapidx>  (5) 
{}

>  <ordered_mapped_smiles>  (5) 
[C:1]([O:2][NH:3][CH:4]([H:7])[H:8])([H:5])[H:6]

>  <level_of_theory>  (5) 
wb97xd/def2tzvp

>  <lot_method>  (5) 
wb97xd

>  <lot_basis>  (5) 
def2tzvp

>  <spin_multiplicity>  (5) 
2.0

>  <optical_isomers>  (5) 
2.0

>  <modes>  (5) 
IdealGasTranslation(mass=(58.0293, 'amu')),         NonlinearRotor(             inertia = ([10.2741, 95.4529, 105.582

>  <frequency_value>  (5) 
unknown

>  <frequency_units>  (5) 
unknown

>  <frequency_list>  (5) 
unknown

>  <arkane_path>  (5) 
/home/calvin/Dropbox/PersonalFolders/Calvin/ZEUS_Converged/rmg_rxn_15711/output/Species/rmg_rxn_15711_r1_sbr-CH2-sbrON=C/arkane/output.py

>  <path_exists>  (5) 
True

>  <E0_value>  (5) 
-547168.2732446302

>  <E0_units>  (5) 
kJ/mol

>  <thermo_class>  (5) 
NASA

>  <Cp0_value>  (5) 
33.257888

>  <Cp0_units>  (5) 
J/(mol*K)

>  <CpInf_value>  (5) 
182.918384

>  <CpInf_units>  (5) 
J/(mol*K)

>  <Tmin_value>  (5) 
10.0

>  <Tmin_units>  (5) 
K

>  <Tmax_value>  (5) 
3000.0

>  <Tmax_units>  (5) 
K

>  <polynomials>  (5) 
[{"name": "polynomial1", "class": "NASAPolynomial", "Tmin_value": 10.0, "Tmin_units": "K", "Tmax_value": 253.2842427910515, "Tmax_units": "K", "coeffs": [3.956862909385456, 0.0038362890131335746, 0.00011727738047703725, -3.4736244039427427e-07, 3.472729073035136e-10, -65809144.38694886, 9.350338763280796]}, {"name": "polynomial2", "class": "NASAPolynomial", "Tmin_value": 253.2842427910515, "Tmin_units": "K", "Tmax_value": 3000.0, "Tmax_units": "K", "coeffs": [2.5252197328965313, 0.026445761179553072, -1.662161754135038e-05, 5.074735532607581e-09, -5.97403912324656e-13, -65809071.86505469, 14.291183066674913]}]

>  <H298_value>  (5) 
-130772.65860702786

>  <H298_units>  (5) 
kcal/mol

>  <S298_value>  (5) 
71.26914844977757

>  <S298_units>  (5) 
cal/(mol*K)

>  <Cp_T_value_list>  (5) 
[18.0740035969719, 21.369534269323825, 24.223451351766553, 26.683440747612977, 30.598134113509214, 33.438117676478754, 37.554421513360474, 39.68390492467901, 40.91110806828642]

>  <Cp_T_units>  (5) 
cal/(mol*K)

>  <T_list>  (5) 
[300.0, 400.0, 500.0, 600.0, 800.0, 1000.0, 1500.0, 2000.0, 2400.0]

>  <T_units>  (5) 
K

>  <yaml_path>  (5) 
/home/calvin/Dropbox/PersonalFolders/Calvin/ZEUS_Converged/rmg_rxn_15711/output/Species/rmg_rxn_15711_r1_sbr-CH2-sbrON=C/rmg_rxn_15711_r1_sbr-CH2-sbrON=C.yml

>  <frequencies_cm1>  (5) 
[132.13453152744, 273.14807507364, 360.4549264321199, 498.69420790903996, 595.9169860696, 789.3942974605999, 873.74834513148, 993.5360370535599, 1152.01232426852, 1206.54305469464, 1257.0497317232398, 1417.2771001948001, 1437.260027476, 1705.2166616477198, 3090.5210781926, 3134.7719315946797, 3218.94057066192, 3282.16490450316]

>  <ZPE_kJmol>  (5) 
152.0381400376291

>  <E_elec_kJmol>  (5) 
-547320.3113846679

>  <E0_minus_Eelec_plus_ZPE_kJmol>  (5) 
0.0

>  <rxn>  (5) 
rmg_rxn_15711

>  <species_type>  (5) 
r0

>  <species_folder>  (5) 
rmg_rxn_15711_r1_sbr-CH2-sbrON=C

>  <frequencies_cm1_list>  (5) 
[132.13453152744, 273.14807507364, 360.4549264321199, 498.69420790903996, 595.9169860696, 789.3942974605999, 873.74834513148, 993.5360370535599, 1152.01232426852, 1206.54305469464, 1257.0497317232398, 1417.2771001948001, 1437.260027476, 1705.2166616477198, 3090.5210781926, 3134.7719315946797, 3218.94057066192, 3282.16490450316]

>  <E0_kJmol>  (5) 
-547168

>  <H298_kJmol>  (5) 
-547153

$$$$
