
     RDKit          3D

  9  8  0  0  0  0  0  0  0  0999 V2000
    0.7400   -0.0285   -1.3803 C   0  0  0  0  0  0  0  0  0  1  0  0
   -0.0361   -0.8161   -0.3636 C   0  0  0  0  0  0  0  0  0  2  0  0
   -0.6378   -0.1487    0.7326 N   0  0  0  0  0  0  0  0  0  3  0  0
   -0.1551    0.9307    1.0091 O   0  0  0  0  0  0  0  0  0  4  0  0
    1.4848    0.6030   -0.8975 H   0  0  0  0  0  0  0  0  0  5  0  0
    1.2387   -0.7079   -2.0709 H   0  0  0  0  0  0  0  0  0  6  0  0
    0.0754    0.6211   -1.9548 H   0  0  0  0  0  0  0  0  0  7  0  0
    0.6992   -1.4485    0.1309 H   0  0  0  0  0  0  0  0  0  8  0  0
   -0.7090   -1.5849   -0.7395 H   0  0  0  0  0  0  0  0  0  9  0  0
  1  5  1  0
  1  7  1  0
  1  6  1  0
  1  2  1  0
  2  9  1  0
  2  3  1  0
  2  8  1  0
  3  4  1  0
M  END
>  <rmg_smiles>  (1) 
CC[N][O]

>  <rmg_adjacency_list>  (1) 
1 O u0 p2 c0 {2,S}
2 N u0 p1 c0 {1,S} {3,S}
3 C u0 p0 c0 {2,S} {4,S} {5,S} {6,S}
4 C u0 p0 c0 {3,S} {7,S} {8,S} {9,S}
5 H u0 p0 c0 {3,S}
6 H u0 p0 c0 {3,S}
7 H u0 p0 c0 {4,S}
8 H u0 p0 c0 {4,S}
9 H u0 p0 c0 {4,S}


>  <multiplicity>  (1) 
1

>  <reaction>  (1) 
rmg_rxn_8

>  <type>  (1) 
r1h

>  <role_mapnums>  (1) 
{"r1h_a": 2, "r1h_h": 8}

>  <role_mapidx>  (1) 
{"r1h_a": 1, "r1h_h": 7}

>  <ordered_mapped_smiles>  (1) 
[C:1]([C:2]([NH:3][OH:4])([H:8])[H:9])([H:5])([H:6])[H:7]

>  <mol_properties>  (1) 
{"1": {"label": "donator", "atom_type": "Cs"}, "7": {"label": "d_hydrogen", "atom_type": "H0"}}

>  <level_of_theory>  (1) 
wb97xd/def2tzvp

>  <lot_method>  (1) 
wb97xd

>  <lot_basis>  (1) 
def2tzvp

>  <spin_multiplicity>  (1) 
1.0

>  <optical_isomers>  (1) 
1.0

>  <modes>  (1) 
IdealGasTranslation(mass=(59.0371, 'amu')),         NonlinearRotor(             inertia = ([29.0143, 77.6306, 100.462

>  <frequency_value>  (1) 
unknown

>  <frequency_units>  (1) 
unknown

>  <frequency_list>  (1) 
unknown

>  <arkane_path>  (1) 
/home/calvin/Dropbox/PersonalFolders/Calvin/ATLAS_Converged/rmg_rxn_8/output/Species/rmg_rxn_8_r2_CCN=O/arkane/output.py

>  <path_exists>  (1) 
True

>  <E0_value>  (1) 
-548877.558747515

>  <E0_units>  (1) 
kJ/mol

>  <thermo_class>  (1) 
NASA

>  <Cp0_value>  (1) 
33.257888

>  <Cp0_units>  (1) 
J/(mol*K)

>  <CpInf_value>  (1) 
207.8618

>  <CpInf_units>  (1) 
J/(mol*K)

>  <Tmin_value>  (1) 
10.0

>  <Tmin_units>  (1) 
K

>  <Tmax_value>  (1) 
3000.0

>  <Tmax_units>  (1) 
K

>  <polynomials>  (1) 
[{"name": "polynomial1", "class": "NASAPolynomial", "Tmin_value": 10.0, "Tmin_units": "K", "Tmax_value": 852.4467273079296, "Tmax_units": "K", "coeffs": [3.8936881543548516, 0.010863357132079992, 2.9518886027981582e-05, -4.241660668924857e-08, 1.6548322072430634e-11, -66014722.52296326, 8.31212640355373]}, {"name": "polynomial2", "class": "NASAPolynomial", "Tmin_value": 852.4467273079296, "Tmin_units": "K", "Tmax_value": 3000.0, "Tmax_units": "K", "coeffs": [1.958278249526995, 0.028191398788375954, -1.5482894354402147e-05, 4.125838418636631e-09, -4.294786972329381e-13, -66014692.17386343, 15.58298456087749]}]

>  <H298_value>  (1) 
-131181.2546973709

>  <H298_units>  (1) 
kcal/mol

>  <S298_value>  (1) 
68.95858975357608

>  <S298_units>  (1) 
cal/(mol*K)

>  <Cp_T_value_list>  (1) 
[17.483816518754196, 21.205534203635445, 24.715448679483146, 27.862973885513348, 32.86313144341251, 36.49135596500743, 42.04796388055017, 44.80066956867266, 46.148264111815415]

>  <Cp_T_units>  (1) 
cal/(mol*K)

>  <T_list>  (1) 
[300.0, 400.0, 500.0, 600.0, 800.0, 1000.0, 1500.0, 2000.0, 2400.0]

>  <T_units>  (1) 
K

>  <yaml_path>  (1) 
/home/calvin/Dropbox/PersonalFolders/Calvin/ATLAS_Converged/rmg_rxn_8/output/Species/rmg_rxn_8_r2_CCN=O/rmg_rxn_8_r2_CCN=O.yml

>  <frequencies_cm1>  (1) 
[158.20847478748, 231.91869521236, 304.63320276584, 688.52515009512, 725.82661435336, 817.79614874412, 992.8287375655999, 1036.4272273622798, 1118.5151698775599, 1253.84971656412, 1336.8441011416398, 1399.8555584379599, 1435.5776160726, 1473.98466496736, 1481.49027992212, 1699.7642753036398, 3019.11129784992, 3032.8315345192796, 3052.86253069772, 3109.68683422072, 3112.3100226129595]

>  <ZPE_kJmol>  (1) 
188.30930234902567

>  <E_elec_kJmol>  (1) 
-549065.868049864

>  <E0_minus_Eelec_plus_ZPE_kJmol>  (1) 
0.0

>  <rxn>  (1) 
rmg_rxn_8

>  <species_type>  (1) 
r1

>  <species_folder>  (1) 
rmg_rxn_8_r2_CCN=O

>  <frequencies_cm1_list>  (1) 
[158.20847478748, 231.91869521236, 304.63320276584, 688.52515009512, 725.82661435336, 817.79614874412, 992.8287375655999, 1036.4272273622798, 1118.5151698775599, 1253.84971656412, 1336.8441011416398, 1399.8555584379599, 1435.5776160726, 1473.98466496736, 1481.49027992212, 1699.7642753036398, 3019.11129784992, 3032.8315345192796, 3052.86253069772, 3109.68683422072, 3112.3100226129595]

>  <E0_kJmol>  (1) 
-548878

>  <H298_kJmol>  (1) 
-548862

$$$$

     RDKit          3D

  9  8  0  0  0  0  0  0  0  0999 V2000
    0.8513   -0.1727    0.9338 C   0  0  0  0  0  0  0  0  0  1  0  0
   -0.2975    0.4226    0.1255 C   0  0  0  0  0  0  0  0  0  2  0  0
   -0.5165   -0.3028   -1.0769 N   0  0  0  0  0  2  0  0  0  3  0  0
    1.7773   -0.1525    0.3591 H   0  0  0  0  0  0  0  0  0  4  0  0
    0.9986    0.4010    1.8494 H   0  0  0  0  0  0  0  0  0  5  0  0
    0.6364   -1.2067    1.2032 H   0  0  0  0  0  0  0  0  0  6  0  0
   -1.2255    0.4340    0.7170 H   0  0  0  0  0  0  0  0  0  7  0  0
   -0.0981    1.4773   -0.1190 H   0  0  0  0  0  0  0  0  0  8  0  0
   -1.3167    0.1664   -1.5472 H   0  0  0  0  0  0  0  0  0  9  0  0
  1  5  1  0
  1  4  1  0
  1  6  1  0
  1  2  1  0
  2  3  1  0
  2  8  1  0
  2  7  1  0
  3  9  1  0
M  RAD  1   3   2
M  END
>  <rmg_smiles>  (2) 
CC[NH]

>  <rmg_adjacency_list>  (2) 
multiplicity 2
1 N u1 p1 c0 {2,S} {9,S}
2 C u0 p0 c0 {1,S} {3,S} {4,S} {5,S}
3 C u0 p0 c0 {2,S} {6,S} {7,S} {8,S}
4 H u0 p0 c0 {2,S}
5 H u0 p0 c0 {2,S}
6 H u0 p0 c0 {3,S}
7 H u0 p0 c0 {3,S}
8 H u0 p0 c0 {3,S}
9 H u0 p0 c0 {1,S}


>  <multiplicity>  (2) 
2

>  <reaction>  (2) 
rmg_rxn_8

>  <type>  (2) 
r2h

>  <role_mapnums>  (2) 
{"r2h_a": 3, "r2h_h": 9}

>  <role_mapidx>  (2) 
{"r2h_a": 2, "r2h_h": 8}

>  <ordered_mapped_smiles>  (2) 
[C:1]([C:2]([N:3][H:9])([H:7])[H:8])([H:4])([H:5])[H:6]

>  <mol_properties>  (2) 
{"2": {"label": "acceptor", "atom_type": "N3s"}, "8": {"label": "a_hydrogen", "atom_type": "H0"}}

>  <level_of_theory>  (2) 
wb97xd/def2tzvp

>  <lot_method>  (2) 
wb97xd

>  <lot_basis>  (2) 
def2tzvp

>  <spin_multiplicity>  (2) 
2.0

>  <optical_isomers>  (2) 
1.0

>  <modes>  (2) 
IdealGasTranslation(mass=(44.05, 'amu')),         NonlinearRotor(             inertia = ([13.5046, 54.0855, 61.3855

>  <frequency_value>  (2) 
unknown

>  <frequency_units>  (2) 
unknown

>  <frequency_list>  (2) 
unknown

>  <arkane_path>  (2) 
/home/calvin/Dropbox/PersonalFolders/Calvin/ATLAS_Converged/rmg_rxn_8/output/Species/rmg_rxn_8_p2_CCsbr-NH-sbr/arkane/output.py

>  <path_exists>  (2) 
True

>  <E0_value>  (2) 
-352969.95105561113

>  <E0_units>  (2) 
kJ/mol

>  <thermo_class>  (2) 
NASA

>  <Cp0_value>  (2) 
33.257888

>  <Cp0_units>  (2) 
J/(mol*K)

>  <CpInf_value>  (2) 
207.8618

>  <CpInf_units>  (2) 
J/(mol*K)

>  <Tmin_value>  (2) 
10.0

>  <Tmin_units>  (2) 
K

>  <Tmax_value>  (2) 
3000.0

>  <Tmax_units>  (2) 
K

>  <polynomials>  (2) 
[{"name": "polynomial1", "class": "NASAPolynomial", "Tmin_value": 10.0, "Tmin_units": "K", "Tmax_value": 494.98074748977484, "Tmax_units": "K", "coeffs": [3.96628511452133, 0.0018994782140610337, 6.762100082474034e-05, -1.0861292876060174e-07, 5.65918620315742e-11, -42452477.255166434, 7.84782322933281]}, {"name": "polynomial2", "class": "NASAPolynomial", "Tmin_value": 494.98074748977484, "Tmin_units": "K", "Tmax_value": 3000.0, "Tmax_units": "K", "coeffs": [0.5324488734331831, 0.029632058000791692, -1.6369867882593552e-05, 4.442442345004726e-09, -4.746642285780625e-13, -42452137.11437419, 22.001362446936305]}]

>  <H298_value>  (2) 
-84358.50970291646

>  <H298_units>  (2) 
kcal/mol

>  <S298_value>  (2) 
65.90798772684775

>  <S298_units>  (2) 
cal/(mol*K)

>  <Cp_T_value_list>  (2) 
[16.191487631841138, 19.95743690999345, 23.412570840096805, 26.46279891443655, 31.48030762408747, 35.29759074982531, 41.21185768118182, 44.23919996224711, 45.751558882208336]

>  <Cp_T_units>  (2) 
cal/(mol*K)

>  <T_list>  (2) 
[300.0, 400.0, 500.0, 600.0, 800.0, 1000.0, 1500.0, 2000.0, 2400.0]

>  <T_units>  (2) 
K

>  <yaml_path>  (2) 
/home/calvin/Dropbox/PersonalFolders/Calvin/ATLAS_Converged/rmg_rxn_8/output/Species/rmg_rxn_8_p2_CCsbr-NH-sbr/rmg_rxn_8_p2_CCsbr-NH-sbr.yml

>  <frequencies_cm1>  (2) 
[215.54780220947998, 313.0658607388, 421.33075129391995, 726.5957167091999, 902.32873803332, 1018.4151248679198, 1029.1207549817998, 1087.9845531448398, 1242.70459938976, 1258.69094121472, 1381.9189927821199, 1408.32255133752, 1429.1295168571198, 1475.1657864423998, 1485.8096136883998, 2923.26191675336, 2945.2843386746, 3021.78942212472, 3097.67647689604, 3102.6619082383595, 3400.85387877404]

>  <ZPE_kJmol>  (2) 
202.6932728728076

>  <E_elec_kJmol>  (2) 
-353172.644328484

>  <E0_minus_Eelec_plus_ZPE_kJmol>  (2) 
0.0

>  <rxn>  (2) 
rmg_rxn_8

>  <species_type>  (2) 
p1

>  <species_folder>  (2) 
rmg_rxn_8_p2_CCsbr-NH-sbr

>  <frequencies_cm1_list>  (2) 
[215.54780220947998, 313.0658607388, 421.33075129391995, 726.5957167091999, 902.32873803332, 1018.4151248679198, 1029.1207549817998, 1087.9845531448398, 1242.70459938976, 1258.69094121472, 1381.9189927821199, 1408.32255133752, 1429.1295168571198, 1475.1657864423998, 1485.8096136883998, 2923.26191675336, 2945.2843386746, 3021.78942212472, 3097.67647689604, 3102.6619082383595, 3400.85387877404]

>  <E0_kJmol>  (2) 
-352970

>  <H298_kJmol>  (2) 
-352956

$$$$

     RDKit          3D

 17 15  0  0  0  0  0  0  0  0999 V2000
    1.9465   -1.5892    2.1768 C   0  0  0  0  0  0  0  0  0  1  0  0
    0.7977   -0.9939    1.3685 C   0  0  0  0  0  0  0  0  0  2  0  0
    0.5788   -1.7192    0.1660 N   0  0  0  0  0  2  0  0  0  3  0  0
    2.8725   -1.5689    1.6021 H   0  0  0  0  0  0  0  0  0  4  0  0
    2.0938   -1.0155    3.0924 H   0  0  0  0  0  0  0  0  0  5  0  0
    1.7316   -2.6232    2.4462 H   0  0  0  0  0  0  0  0  0  6  0  0
   -0.1303   -0.9825    1.9600 H   0  0  0  0  0  0  0  0  0  7  0  0
    0.9971    0.0608    1.1239 H   0  0  0  0  0  0  0  0  0  8  0  0
   -0.5239    0.4130   -2.0302 C   0  0  0  0  0  0  0  0  0  9  0  0
   -1.3000   -0.3745   -1.0135 C   0  0  0  0  0  0  0  0  0 10  0  0
   -1.9017    0.2929    0.0828 N   0  0  0  0  0  0  0  0  0 11  0  0
   -1.4191    1.3723    0.3592 O   0  0  0  0  0  1  0  0  0 12  0  0
    0.2209    1.0445   -1.5474 H   0  0  0  0  0  0  0  0  0 13  0  0
   -0.0252   -0.2663   -2.7208 H   0  0  0  0  0  0  0  0  0 14  0  0
   -1.1885    1.0627   -2.6046 H   0  0  0  0  0  0  0  0  0 15  0  0
   -0.4118   -1.1385   -0.4161 H   0  0  0  0  0  0  0  0  0 16  0  0
   -1.9729   -1.1433   -1.3894 H   0  0  0  0  0  0  0  0  0 17  0  0
  1  5  1  0
  1  4  1  0
  1  6  1  0
  1  2  1  0
  2  3  1  0
  2  8  1  0
  2  7  1  0
  3 16  1  0
  9 10  1  0
  9 14  1  0
  9 15  1  0
  9 13  1  0
 10 11  1  0
 10 17  1  0
 11 12  1  0
M  RAD  2   3   2  12   2
M  END
>  <rmg_smiles>  (3) 
C[CH][N][O].CC[NH]

>  <rmg_adjacency_list>  (3) 
multiplicity 3
1  O u1 p2 c0 {3,S}
2  N u1 p1 c0 {4,S} {17,S}
3  N u0 p1 c0 {1,S} {7,S}
4  C u0 p0 c0 {2,S} {5,S} {8,S} {9,S}
5  C u0 p0 c0 {4,S} {10,S} {11,S} {12,S}
6  C u0 p0 c0 {7,S} {13,S} {14,S} {15,S}
7  C u0 p0 c0 {3,S} {6,S} {16,S}
8  H u0 p0 c0 {4,S}
9  H u0 p0 c0 {4,S}
10 H u0 p0 c0 {5,S}
11 H u0 p0 c0 {5,S}
12 H u0 p0 c0 {5,S}
13 H u0 p0 c0 {6,S}
14 H u0 p0 c0 {6,S}
15 H u0 p0 c0 {6,S}
16 H u0 p0 c0 {7,S}
17 H u0 p0 c0 {2,S}


>  <multiplicity>  (3) 
3

>  <reaction>  (3) 
rmg_rxn_8

>  <type>  (3) 
ts

>  <role_mapnums>  (3) 
{"*2": 16, "*1": 10, "*3": 3, "*0": 2, "*4": 11}

>  <role_mapidx>  (3) 
{"*2": 15, "*1": 9, "*3": 2, "*0": 1, "*4": 10}

>  <ordered_mapped_smiles>  (3) 
[C:1]([C:2]([N:3][H:16])([H:7])[H:8])([H:4])([H:5])[H:6].[C:9]([CH:10]([NH:11][O:12])[H:17])([H:13])([H:14])[H:15]

>  <mol_properties>  (3) 
{"1": {"label": "*0", "atom_type": "Cs"}, "2": {"label": "*3", "atom_type": "N3s"}, "9": {"label": "*1", "atom_type": "Cs"}, "10": {"label": "*4", "atom_type": "N3s"}, "15": {"label": "*2", "atom_type": "H0"}}

>  <level_of_theory>  (3) 
wb97xd/def2tzvp

>  <lot_method>  (3) 
wb97xd

>  <lot_basis>  (3) 
def2tzvp

>  <spin_multiplicity>  (3) 
3.0

>  <optical_isomers>  (3) 
2.0

>  <modes>  (3) 
IdealGasTranslation(mass=(102.079, 'amu')),         NonlinearRotor(             inertia = ([123.373, 393.723, 454.764

>  <frequency_value>  (3) 
-1910.35

>  <frequency_units>  (3) 
cm^-1

>  <frequency_list>  (3) 
unknown

>  <arkane_path>  (3) 
/home/calvin/Dropbox/PersonalFolders/Calvin/ATLAS_Converged/rmg_rxn_8/output/rxns/TS0/arkane/output.py

>  <path_exists>  (3) 
True

>  <E0_value>  (3) 
-900136.0

>  <E0_units>  (3) 
kJ/mol

>  <thermo_class>  (3) 
unknown

>  <Cp0_value>  (3) 
unknown

>  <Cp0_units>  (3) 
unknown

>  <CpInf_value>  (3) 
unknown

>  <CpInf_units>  (3) 
unknown

>  <Tmin_value>  (3) 
unknown

>  <Tmin_units>  (3) 
unknown

>  <Tmax_value>  (3) 
unknown

>  <Tmax_units>  (3) 
unknown

>  <polynomials>  (3) 
unknown

>  <H298_value>  (3) 
unknown

>  <H298_units>  (3) 
unknown

>  <S298_value>  (3) 
unknown

>  <S298_units>  (3) 
unknown

>  <Cp_T_value_list>  (3) 
unknown

>  <Cp_T_units>  (3) 
unknown

>  <T_list>  (3) 
unknown

>  <T_units>  (3) 
unknown

>  <yaml_path>  (3) 
unknown

>  <frequencies_cm1>  (3) 
unknown

>  <ZPE_kJmol>  (3) 
unknown

>  <E_elec_kJmol>  (3) 
unknown

>  <E0_minus_Eelec_plus_ZPE_kJmol>  (3) 
unknown

>  <rxn>  (3) 
unknown

>  <species_type>  (3) 
unknown

>  <species_folder>  (3) 
unknown

>  <frequencies_cm1_list>  (3) 
[]

>  <ts_imag_freq_cm1>  (3) 
-1933.5501

>  <ts_freq_out_path>  (3) 
/home/calvin/Dropbox/PersonalFolders/Calvin/ATLAS_Converged/rmg_rxn_8/output/rxns/TS0/geometry/freq.out

>  <E0_kJmol>  (3) 
-900136

>  <H298_kJmol>  (3) 
unknown

$$$$

     RDKit          3D

  8  7  0  0  0  0  0  0  0  0999 V2000
   -0.9728    0.1768    0.1542 C   0  0  0  0  0  0  0  0  0  1  0  0
    0.4518   -0.2348    0.0047 C   0  0  0  0  0  0  0  0  0  2  0  0
    1.3116    0.0208    0.9062 N   0  0  0  0  0  0  0  0  0  3  0  0
    2.5018   -0.1901    1.0428 O   0  0  0  0  0  1  0  0  0  4  0  0
   -1.2701    0.8423   -0.6593 H   0  0  0  0  0  0  0  0  0  5  0  0
   -1.6318   -0.6936    0.1212 H   0  0  0  0  0  0  0  0  0  6  0  0
   -1.1258    0.6936    1.1003 H   0  0  0  0  0  0  0  0  0  7  0  0
    0.7882   -0.7655   -0.8838 H   0  0  0  0  0  0  0  0  0  8  0  0
  1  5  1  0
  1  7  1  0
  1  6  1  0
  1  2  1  0
  2  3  1  0
  2  8  1  0
  3  4  1  0
M  RAD  1   4   2
M  END
>  <rmg_smiles>  (4) 
C[CH][N][O]

>  <rmg_adjacency_list>  (4) 
multiplicity 2
1 O u1 p2 c0 {2,S}
2 N u0 p1 c0 {1,S} {4,S}
3 C u0 p0 c0 {4,S} {5,S} {6,S} {7,S}
4 C u0 p0 c0 {2,S} {3,S} {8,S}
5 H u0 p0 c0 {3,S}
6 H u0 p0 c0 {3,S}
7 H u0 p0 c0 {3,S}
8 H u0 p0 c0 {4,S}


>  <multiplicity>  (4) 
2

>  <reaction>  (4) 
rmg_rxn_8

>  <type>  (4) 
r1

>  <role_mapnums>  (4) 
{}

>  <role_mapidx>  (4) 
{}

>  <ordered_mapped_smiles>  (4) 
[C:1]([CH:2]([NH:3][O:4])[H:8])([H:5])([H:6])[H:7]

>  <level_of_theory>  (4) 
wb97xd/def2tzvp

>  <lot_method>  (4) 
wb97xd

>  <lot_basis>  (4) 
def2tzvp

>  <spin_multiplicity>  (4) 
2.0

>  <optical_isomers>  (4) 
1.0

>  <modes>  (4) 
IdealGasTranslation(mass=(58.0293, 'amu')),         NonlinearRotor(             inertia = ([9.31113, 114.15, 120.338

>  <frequency_value>  (4) 
unknown

>  <frequency_units>  (4) 
unknown

>  <frequency_list>  (4) 
unknown

>  <arkane_path>  (4) 
/home/calvin/Dropbox/PersonalFolders/Calvin/ATLAS_Converged/rmg_rxn_8/output/Species/rmg_rxn_8_p1_CC=Nsbr-O-sbr/arkane/output.py

>  <path_exists>  (4) 
True

>  <E0_value>  (4) 
-547291.9822369756

>  <E0_units>  (4) 
kJ/mol

>  <thermo_class>  (4) 
NASA

>  <Cp0_value>  (4) 
33.257888

>  <Cp0_units>  (4) 
J/(mol*K)

>  <CpInf_value>  (4) 
182.918384

>  <CpInf_units>  (4) 
J/(mol*K)

>  <Tmin_value>  (4) 
10.0

>  <Tmin_units>  (4) 
K

>  <Tmax_value>  (4) 
3000.0

>  <Tmax_units>  (4) 
K

>  <polynomials>  (4) 
[{"name": "polynomial1", "class": "NASAPolynomial", "Tmin_value": 10.0, "Tmin_units": "K", "Tmax_value": 448.469821583942, "Tmax_units": "K", "coeffs": [3.8887722230996813, 0.008399169692485739, 4.23423230637367e-05, -8.042531461118158e-08, 4.6620175661053446e-11, -65824018.56271867, 8.787674089328345]}, {"name": "polynomial2", "class": "NASAPolynomial", "Tmin_value": 448.469821583942, "Tmin_units": "K", "Tmax_value": 3000.0, "Tmax_units": "K", "coeffs": [1.9857514593635577, 0.025372613622198854, -1.4428825534244759e-05, 3.966995228918133e-09, -4.24376034853994e-13, -65823847.87311471, 16.442591867910245]}]

>  <H298_value>  (4) 
-130802.40292482237

>  <H298_units>  (4) 
kcal/mol

>  <S298_value>  (4) 
68.97171532665904

>  <S298_units>  (4) 
cal/(mol*K)

>  <Cp_T_value_list>  (4) 
[16.743153000165332, 20.010112573021154, 22.92084276433073, 25.469656650185197, 29.622633813984088, 32.733580935653485, 37.39926541997259, 39.66786469099458, 40.797255640626396]

>  <Cp_T_units>  (4) 
cal/(mol*K)

>  <T_list>  (4) 
[300.0, 400.0, 500.0, 600.0, 800.0, 1000.0, 1500.0, 2000.0, 2400.0]

>  <T_units>  (4) 
K

>  <yaml_path>  (4) 
/home/calvin/Dropbox/PersonalFolders/Calvin/ATLAS_Converged/rmg_rxn_8/output/Species/rmg_rxn_8_p1_CC=Nsbr-O-sbr/rmg_rxn_8_p1_CC=Nsbr-O-sbr.yml

>  <frequencies_cm1>  (4) 
[167.29349636583999, 305.41603909232, 336.48228068, 536.4488931984, 789.99859216876, 920.0661611148798, 1055.0848264767199, 1131.0542850718798, 1256.94672694344, 1389.69928714968, 1433.0368315041999, 1463.78719176716, 1488.27486141828, 1754.1988679352798, 3017.2297438722394, 3076.07294107932, 3099.7159715360795, 3119.71263278792]

>  <ZPE_kJmol>  (4) 
157.55134027947926

>  <E_elec_kJmol>  (4) 
-547449.5335772551

>  <E0_minus_Eelec_plus_ZPE_kJmol>  (4) 
0.0

>  <rxn>  (4) 
rmg_rxn_8

>  <species_type>  (4) 
p0

>  <species_folder>  (4) 
rmg_rxn_8_p1_CC=Nsbr-O-sbr

>  <frequencies_cm1_list>  (4) 
[167.29349636583999, 305.41603909232, 336.48228068, 536.4488931984, 789.99859216876, 920.0661611148798, 1055.0848264767199, 1131.0542850718798, 1256.94672694344, 1389.69928714968, 1433.0368315041999, 1463.78719176716, 1488.27486141828, 1754.1988679352798, 3017.2297438722394, 3076.07294107932, 3099.7159715360795, 3119.71263278792]

>  <E0_kJmol>  (4) 
-547292

>  <H298_kJmol>  (4) 
-547277

$$$$

     RDKit          3D

  8  7  0  0  0  0  0  0  0  0999 V2000
   -0.7853    0.0326    0.0393 C   0  0  0  0  0  0  0  0  0  1  0  0
    0.7379   -0.1211   -0.0579 C   0  0  0  0  0  0  0  0  0  2  0  0
    1.1315   -0.8282   -1.2106 N   0  0  0  0  0  1  0  0  0  3  0  0
   -1.2679   -0.9438    0.0768 H   0  0  0  0  0  0  0  0  0  4  0  0
   -1.0464    0.5840    0.9431 H   0  0  0  0  0  0  0  0  0  5  0  0
   -1.1718    0.5760   -0.8227 H   0  0  0  0  0  0  0  0  0  6  0  0
    1.2178    0.8698   -0.0686 H   0  0  0  0  0  0  0  0  0  7  0  0
    1.1219   -0.6479    0.8296 H   0  0  0  0  0  0  0  0  0  8  0  0
  1  5  1  0
  1  4  1  0
  1  6  1  0
  1  2  1  0
  2  3  1  0
  2  7  1  0
  2  8  1  0
M  RAD  1   3   3
M  END
>  <rmg_smiles>  (5) 
CC[N]

>  <rmg_adjacency_list>  (5) 
multiplicity 3
1 N u2 p2 c0 {3,S}
2 C u0 p0 c0 {3,S} {4,S} {5,S} {6,S}
3 C u0 p0 c0 {1,S} {2,S} {7,S} {8,S}
4 H u0 p0 c0 {2,S}
5 H u0 p0 c0 {2,S}
6 H u0 p0 c0 {2,S}
7 H u0 p0 c0 {3,S}
8 H u0 p0 c0 {3,S}


>  <multiplicity>  (5) 
3

>  <reaction>  (5) 
rmg_rxn_8

>  <type>  (5) 
r2

>  <role_mapnums>  (5) 
{}

>  <role_mapidx>  (5) 
{}

>  <ordered_mapped_smiles>  (5) 
[C:1]([C:2]([N:3])([H:7])[H:8])([H:4])([H:5])[H:6]

>  <level_of_theory>  (5) 
wb97xd/def2tzvp

>  <lot_method>  (5) 
wb97xd

>  <lot_basis>  (5) 
def2tzvp

>  <spin_multiplicity>  (5) 
3.0

>  <optical_isomers>  (5) 
1.0

>  <modes>  (5) 
IdealGasTranslation(mass=(43.0422, 'amu')),         NonlinearRotor(             inertia = ([13.2978, 49.7979, 56.7993

>  <frequency_value>  (5) 
unknown

>  <frequency_units>  (5) 
unknown

>  <frequency_list>  (5) 
unknown

>  <arkane_path>  (5) 
/home/calvin/Dropbox/PersonalFolders/Calvin/ATLAS_Converged/rmg_rxn_8/output/Species/rmg_rxn_8_r1_CCsbr-N-sbr/arkane/output.py

>  <path_exists>  (5) 
True

>  <E0_value>  (5) 
-351303.23848085233

>  <E0_units>  (5) 
kJ/mol

>  <thermo_class>  (5) 
NASA

>  <Cp0_value>  (5) 
33.257888

>  <Cp0_units>  (5) 
J/(mol*K)

>  <CpInf_value>  (5) 
182.918384

>  <CpInf_units>  (5) 
J/(mol*K)

>  <Tmin_value>  (5) 
10.0

>  <Tmin_units>  (5) 
K

>  <Tmax_value>  (5) 
3000.0

>  <Tmax_units>  (5) 
K

>  <polynomials>  (5) 
[{"name": "polynomial1", "class": "NASAPolynomial", "Tmin_value": 10.0, "Tmin_units": "K", "Tmax_value": 538.90863830612, "Tmax_units": "K", "coeffs": [4.011017893648797, -0.000996526599198243, 6.34493776247714e-05, -9.34151768570848e-08, 4.485816232808959e-11, -42252019.791687176, 8.154035590068796]}, {"name": "polynomial2", "class": "NASAPolynomial", "Tmin_value": 538.90863830612, "Tmin_units": "K", "Tmax_value": 3000.0, "Tmax_units": "K", "coeffs": [0.1889273408420262, 0.02737276498056165, -1.5514283778665416e-05, 4.268848130444583e-09, -4.577869697015348e-13, -42251607.842699245, 24.230537973141246]}]

>  <H298_value>  (5) 
-83960.41291340075

>  <H298_units>  (5) 
kcal/mol

>  <S298_value>  (5) 
65.16030182938087

>  <S298_units>  (5) 
cal/(mol*K)

>  <Cp_T_value_list>  (5) 
[14.434363041238354, 17.753912153606223, 20.869318835111557, 23.62825526207762, 28.131170270711078, 31.514054089972188, 36.62571062079461, 39.15495452180056, 40.43085357674264]

>  <Cp_T_units>  (5) 
cal/(mol*K)

>  <T_list>  (5) 
[300.0, 400.0, 500.0, 600.0, 800.0, 1000.0, 1500.0, 2000.0, 2400.0]

>  <T_units>  (5) 
K

>  <yaml_path>  (5) 
/home/calvin/Dropbox/PersonalFolders/Calvin/ATLAS_Converged/rmg_rxn_8/output/Species/rmg_rxn_8_r1_CCsbr-N-sbr/rmg_rxn_8_r1_CCsbr-N-sbr.yml

>  <frequencies_cm1>  (5) 
[219.85340200512002, 386.0619146904, 760.5529591165998, 905.2609407649599, 1021.4297314234, 1026.9988565179199, 1083.5347466574801, 1232.4178553804, 1304.0885811652397, 1390.88040862472, 1421.98785212432, 1476.3263069614798, 1486.33150457272, 2930.4447833980794, 2964.9719855870403, 3028.6838753859997, 3108.6361854667603, 3113.1134598954]

>  <ZPE_kJmol>  (5) 
172.63060648664862

>  <E_elec_kJmol>  (5) 
-351475.869087339

>  <E0_minus_Eelec_plus_ZPE_kJmol>  (5) 
0.0

>  <rxn>  (5) 
rmg_rxn_8

>  <species_type>  (5) 
r0

>  <species_folder>  (5) 
rmg_rxn_8_r1_CCsbr-N-sbr

>  <frequencies_cm1_list>  (5) 
[219.85340200512002, 386.0619146904, 760.5529591165998, 905.2609407649599, 1021.4297314234, 1026.9988565179199, 1083.5347466574801, 1232.4178553804, 1304.0885811652397, 1390.88040862472, 1421.98785212432, 1476.3263069614798, 1486.33150457272, 2930.4447833980794, 2964.9719855870403, 3028.6838753859997, 3108.6361854667603, 3113.1134598954]

>  <E0_kJmol>  (5) 
-351303

>  <H298_kJmol>  (5) 
-351290

$$$$
