
     RDKit          3D

  9  9  0  0  0  0  0  0  0  0999 V2000
   -0.9020   -0.3087    0.9701 O   0  0  0  0  0  0  0  0  0  1  0  0
    0.2910   -0.1055    0.3927 N   0  0  0  0  0  0  0  0  0  2  0  0
    0.3649    0.9693   -0.5755 C   0  0  0  0  0  0  0  0  0  3  0  0
    0.4141   -0.4648   -1.0057 C   0  0  0  0  0  0  0  0  0  4  0  0
   -0.6706   -0.7696    1.7798 H   0  0  0  0  0  0  0  0  0  5  0  0
    1.2695    1.5656   -0.5648 H   0  0  0  0  0  0  0  0  0  6  0  0
   -0.5596    1.5041   -0.7535 H   0  0  0  0  0  0  0  0  0  7  0  0
   -0.4789   -0.8690   -1.4659 H   0  0  0  0  0  0  0  0  0  8  0  0
    1.3547   -0.9109   -1.3046 H   0  0  0  0  0  0  0  0  0  9  0  0
  1  5  1  0
  1  2  1  0
  2  3  1  0
  2  4  1  0
  3  4  1  0
  3  6  1  0
  3  7  1  0
  4  8  1  0
  4  9  1  0
M  END
>  <rmg_smiles>  (1) 
ON1CC1

>  <rmg_adjacency_list>  (1) 
1 O u0 p2 c0 {2,S} {9,S}
2 N u0 p1 c0 {1,S} {3,S} {4,S}
3 C u0 p0 c0 {2,S} {4,S} {5,S} {6,S}
4 C u0 p0 c0 {2,S} {3,S} {7,S} {8,S}
5 H u0 p0 c0 {3,S}
6 H u0 p0 c0 {3,S}
7 H u0 p0 c0 {4,S}
8 H u0 p0 c0 {4,S}
9 H u0 p0 c0 {1,S}


>  <multiplicity>  (1) 
1

>  <reaction>  (1) 
rmg_rxn_10669

>  <type>  (1) 
r1h

>  <role_mapnums>  (1) 
{"r1h_a": 1, "r1h_h": 5}

>  <role_mapidx>  (1) 
{"r1h_a": 0, "r1h_h": 4}

>  <ordered_mapped_smiles>  (1) 
[O:1]([N:2]1[C:3]([H:6])([H:7])[C:4]1([H:8])[H:9])[H:5]

>  <mol_properties>  (1) 
{"0": {"label": "donator", "atom_type": "O2s"}, "4": {"label": "d_hydrogen", "atom_type": "H0"}}

>  <level_of_theory>  (1) 
wb97xd/def2tzvp

>  <lot_method>  (1) 
wb97xd

>  <lot_basis>  (1) 
def2tzvp

>  <spin_multiplicity>  (1) 
1.0

>  <optical_isomers>  (1) 
1.0

>  <modes>  (1) 
IdealGasTranslation(mass=(59.0371, 'amu')),         NonlinearRotor(             inertia = ([28.1872, 66.5407, 77.6102

>  <frequency_value>  (1) 
unknown

>  <frequency_units>  (1) 
unknown

>  <frequency_list>  (1) 
unknown

>  <arkane_path>  (1) 
/home/calvin/Dropbox/PersonalFolders/Calvin/ZEUS_Converged/rmg_rxn_10669/output/Species/rmg_rxn_10669_r1_ON1CC1/arkane/output.py

>  <path_exists>  (1) 
True

>  <E0_value>  (1) 
-548830.9755880196

>  <E0_units>  (1) 
kJ/mol

>  <thermo_class>  (1) 
NASA

>  <Cp0_value>  (1) 
33.257888

>  <Cp0_units>  (1) 
J/(mol*K)

>  <CpInf_value>  (1) 
207.8618

>  <CpInf_units>  (1) 
J/(mol*K)

>  <Tmin_value>  (1) 
10.0

>  <Tmin_units>  (1) 
K

>  <Tmax_value>  (1) 
3000.0

>  <Tmax_units>  (1) 
K

>  <polynomials>  (1) 
[{"name": "polynomial1", "class": "NASAPolynomial", "Tmin_value": 10.0, "Tmin_units": "K", "Tmax_value": 587.2167070286661, "Tmax_units": "K", "coeffs": [4.012909331277011, -0.0016502942225791511, 9.708682278246141e-05, -1.6094335190994676e-07, 8.484432443736588e-11, -66009118.085617974, 8.391878526379807]}, {"name": "polynomial2", "class": "NASAPolynomial", "Tmin_value": 587.2167070286661, "Tmin_units": "K", "Tmax_value": 3000.0, "Tmax_units": "K", "coeffs": [0.7337556987331088, 0.03241852911970753, -1.990760924472452e-05, 5.903252174136037e-09, -6.733042743654013e-13, -66008935.24257767, 20.74391268819005]}]

>  <H298_value>  (1) 
-131170.36722140852

>  <H298_units>  (1) 
kcal/mol

>  <S298_value>  (1) 
67.20815903717752

>  <S298_units>  (1) 
cal/(mol*K)

>  <Cp_T_value_list>  (1) 
[17.084816407332145, 21.379010340559837, 25.126873322739016, 28.230208014850763, 33.135453743842845, 36.71289186922762, 41.89886155817776, 44.50056037199152, 45.98064873669234]

>  <Cp_T_units>  (1) 
cal/(mol*K)

>  <T_list>  (1) 
[300.0, 400.0, 500.0, 600.0, 800.0, 1000.0, 1500.0, 2000.0, 2400.0]

>  <T_units>  (1) 
K

>  <yaml_path>  (1) 
/home/calvin/Dropbox/PersonalFolders/Calvin/ZEUS_Converged/rmg_rxn_10669/output/Species/rmg_rxn_10669_r1_ON1CC1/rmg_rxn_10669_r1_ON1CC1.yml

>  <frequencies_cm1>  (1) 
[133.13711138415997, 422.03805078188, 447.52830028972, 737.70649895696, 837.0649095520399, 880.14837544972, 977.55656221392, 1021.37479554084, 1108.8807894735999, 1123.8508174712, 1174.6390408979198, 1175.03732604648, 1241.8668271807198, 1382.8803707269199, 1458.29360351116, 1496.32296821332, 3107.7915462724, 3111.1083001819597, 3196.87694682876, 3210.06155864316, 3845.8619954513197]

>  <ZPE_kJmol>  (1) 
191.94103937201209

>  <E_elec_kJmol>  (1) 
-549022.9166273916

>  <E0_minus_Eelec_plus_ZPE_kJmol>  (1) 
0.0

>  <rxn>  (1) 
rmg_rxn_10669

>  <species_type>  (1) 
r0

>  <species_folder>  (1) 
rmg_rxn_10669_r1_ON1CC1

>  <frequencies_cm1_list>  (1) 
[133.13711138415997, 422.03805078188, 447.52830028972, 737.70649895696, 837.0649095520399, 880.14837544972, 977.55656221392, 1021.37479554084, 1108.8807894735999, 1123.8508174712, 1174.6390408979198, 1175.03732604648, 1241.8668271807198, 1382.8803707269199, 1458.29360351116, 1496.32296821332, 3107.7915462724, 3111.1083001819597, 3196.87694682876, 3210.06155864316, 3845.8619954513197]

>  <E0_kJmol>  (1) 
-548831

>  <H298_kJmol>  (1) 
-548817

$$$$

     RDKit          3D

 17 16  0  0  0  0  0  0  0  0999 V2000
   -2.0751   -0.9138   -1.4212 H   0  0  0  0  0  0  0  0  0  1  0  0
    0.6435    2.0362    1.9522 C   0  0  0  0  0  0  0  0  0  2  0  0
    0.3941    2.1164    0.4803 C   0  0  0  0  0  0  0  0  0  3  0  0
    0.2350    1.0900   -0.3386 C   0  0  0  0  0  0  0  0  0  4  0  0
    0.3284   -0.2074    0.1145 O   0  0  0  0  0  0  0  0  0  5  0  0
   -0.2864   -1.0962   -0.7741 N   0  0  0  0  0  0  0  0  0  6  0  0
   -1.6209   -1.2378   -0.5713 N   0  0  0  0  0  0  0  0  0  7  0  0
    0.4759   -2.3248   -0.8217 C   0  0  0  0  0  0  0  0  0  8  0  0
   -0.0574    2.6719    2.4976 H   0  0  0  0  0  0  0  0  0  9  0  0
    1.6499    2.3850    2.1979 H   0  0  0  0  0  0  0  0  0 10  0  0
    0.5432    1.0161    2.3207 H   0  0  0  0  0  0  0  0  0 11  0  0
    0.3544    3.0974    0.0228 H   0  0  0  0  0  0  0  0  0 12  0  0
    0.0409    1.1656   -1.4009 H   0  0  0  0  0  0  0  0  0 13  0  0
   -1.8940   -0.6000    0.1718 H   0  0  0  0  0  0  0  0  0 14  0  0
    0.5175   -2.8026    0.1625 H   0  0  0  0  0  0  0  0  0 15  0  0
    1.4804   -2.1007   -1.1733 H   0  0  0  0  0  0  0  0  0 16  0  0
   -0.0247   -2.9862   -1.5243 H   0  0  0  0  0  0  0  0  0 17  0  0
  1  7  1  0
  2 10  1  0
  2  9  1  0
  2 11  1  0
  2  3  1  0
  3  4  1  0
  3 12  1  0
  4 13  1  0
  4  5  1  0
  5  6  1  0
  6  8  1  0
  6  7  1  0
  7 14  1  0
  8 17  1  0
  8 16  1  0
  8 15  1  0
M  END
>  <rmg_smiles>  (2) 
C[CH][CH]ON(N)C

>  <rmg_adjacency_list>  (2) 
1  O u0 p2 c0 {2,S} {7,S}
2  N u0 p1 c0 {1,S} {3,S} {4,S}
3  N u0 p1 c0 {2,S} {16,S} {17,S}
4  C u0 p0 c0 {2,S} {11,S} {12,S} {13,S}
5  C u0 p0 c0 {6,S} {8,S} {9,S} {10,S}
6  C u0 p0 c0 {5,S} {7,S} {14,S}
7  C u0 p0 c0 {1,S} {6,S} {15,S}
8  H u0 p0 c0 {5,S}
9  H u0 p0 c0 {5,S}
10 H u0 p0 c0 {5,S}
11 H u0 p0 c0 {4,S}
12 H u0 p0 c0 {4,S}
13 H u0 p0 c0 {4,S}
14 H u0 p0 c0 {6,S}
15 H u0 p0 c0 {7,S}
16 H u0 p0 c0 {3,S}
17 H u0 p0 c0 {3,S}


>  <multiplicity>  (2) 
1

>  <reaction>  (2) 
rmg_rxn_10669

>  <type>  (2) 
r2h

>  <role_mapnums>  (2) 
{"r2h_a": 7, "r2h_h": 1}

>  <role_mapidx>  (2) 
{"r2h_a": 6, "r2h_h": 0}

>  <ordered_mapped_smiles>  (2) 
[H:1][N:7]([N:6]([O:5][CH:4]([CH:3]([C:2]([H:9])([H:10])[H:11])[H:12])[H:13])[C:8]([H:15])([H:16])[H:17])[H:14]

>  <mol_properties>  (2) 
{"0": {"label": "a_hydrogen", "atom_type": "H0"}, "6": {"label": "acceptor", "atom_type": "N3s"}}

>  <level_of_theory>  (2) 
wb97xd/def2tzvp

>  <lot_method>  (2) 
wb97xd

>  <lot_basis>  (2) 
def2tzvp

>  <spin_multiplicity>  (2) 
1.0

>  <optical_isomers>  (2) 
2.0

>  <modes>  (2) 
IdealGasTranslation(mass=(102.079, 'amu')),         NonlinearRotor(             inertia = ([85.6795, 376.18, 388.876

>  <frequency_value>  (2) 
unknown

>  <frequency_units>  (2) 
unknown

>  <frequency_list>  (2) 
unknown

>  <arkane_path>  (2) 
/home/calvin/Dropbox/PersonalFolders/Calvin/ZEUS_Converged/rmg_rxn_10669/output/Species/rmg_rxn_10669_p2_CC=CONrbr-N-rbrC/arkane/output.py

>  <path_exists>  (2) 
True

>  <E0_value>  (2) 
-900405.0494296006

>  <E0_units>  (2) 
kJ/mol

>  <thermo_class>  (2) 
NASA

>  <Cp0_value>  (2) 
33.257888

>  <Cp0_units>  (2) 
J/(mol*K)

>  <CpInf_value>  (2) 
407.409128

>  <CpInf_units>  (2) 
J/(mol*K)

>  <Tmin_value>  (2) 
10.0

>  <Tmin_units>  (2) 
K

>  <Tmax_value>  (2) 
3000.0

>  <Tmax_units>  (2) 
K

>  <polynomials>  (2) 
[{"name": "polynomial1", "class": "NASAPolynomial", "Tmin_value": 10.0, "Tmin_units": "K", "Tmax_value": 1108.736796573486, "Tmax_units": "K", "coeffs": [3.593482067657345, 0.04527343613148581, -7.853115807860651e-07, -2.043658609457127e-08, 8.18045447415304e-12, -108293714.18687978, 12.85162704751556]}, {"name": "polynomial2", "class": "NASAPolynomial", "Tmin_value": 1108.736796573486, "Tmin_units": "K", "Tmax_value": 3000.0, "Tmax_units": "K", "coeffs": [7.506038002578287, 0.046589931565087575, -2.3444009976697085e-05, 5.741145862751885e-09, -5.527118171710488e-13, -108295530.30298632, -10.705520626468415]}]

>  <H298_value>  (2) 
-215195.9362782153

>  <H298_units>  (2) 
kcal/mol

>  <S298_value>  (2) 
92.63660749241524

>  <S298_units>  (2) 
cal/(mol*K)

>  <Cp_T_value_list>  (2) 
[33.0259983327988, 40.69537554931736, 47.67423133324528, 53.89446290908325, 63.981717362233816, 71.19261681574156, 81.91300293988421, 87.42841994031997, 90.0449470406118]

>  <Cp_T_units>  (2) 
cal/(mol*K)

>  <T_list>  (2) 
[300.0, 400.0, 500.0, 600.0, 800.0, 1000.0, 1500.0, 2000.0, 2400.0]

>  <T_units>  (2) 
K

>  <yaml_path>  (2) 
/home/calvin/Dropbox/PersonalFolders/Calvin/ZEUS_Converged/rmg_rxn_10669/output/Species/rmg_rxn_10669_p2_CC=CONrbr-N-rbrC/rmg_rxn_10669_p2_CC=CONrbr-N-rbrC.yml

>  <frequencies_cm1>  (2) 
[42.90492427935999, 70.94969232623998, 121.85465450339998, 166.71666959895998, 253.87244728039994, 301.92074356444, 373.40606074563993, 419.64833989052, 445.81842094504, 504.72342102, 549.00174236336, 631.06908392268, 758.13578028396, 848.92419319968, 869.8822323963199, 938.1057315505199, 966.4663809221199, 985.6939398181199, 1045.86246519196, 1060.8324931895597, 1129.8319616849199, 1145.91444130436, 1177.50257377636, 1255.0720399510801, 1275.68672988172, 1357.8776771768, 1378.40309629828, 1417.9431977708398, 1431.4368239246398, 1469.8713407606797, 1474.3760831306, 1478.2284618951198, 1482.71260330908, 1665.8688357641197, 1738.5215404497199, 2975.03898606616, 3009.26404090104, 3062.7647235291597, 3097.66960991072, 3105.09968802696, 3145.0998775159596, 3146.5076095065597, 3168.9763854735997, 3405.2006804816, 3560.0443324622797]

>  <ZPE_kJmol>  (2) 
382.271003727177

>  <E_elec_kJmol>  (2) 
-900787.3204333278

>  <E0_minus_Eelec_plus_ZPE_kJmol>  (2) 
0.0

>  <rxn>  (2) 
rmg_rxn_10669

>  <species_type>  (2) 
p1

>  <species_folder>  (2) 
rmg_rxn_10669_p2_CC=CONrbr-N-rbrC

>  <frequencies_cm1_list>  (2) 
[42.90492427935999, 70.94969232623998, 121.85465450339998, 166.71666959895998, 253.87244728039994, 301.92074356444, 373.40606074563993, 419.64833989052, 445.81842094504, 504.72342102, 549.00174236336, 631.06908392268, 758.13578028396, 848.92419319968, 869.8822323963199, 938.1057315505199, 966.4663809221199, 985.6939398181199, 1045.86246519196, 1060.8324931895597, 1129.8319616849199, 1145.91444130436, 1177.50257377636, 1255.0720399510801, 1275.68672988172, 1357.8776771768, 1378.40309629828, 1417.9431977708398, 1431.4368239246398, 1469.8713407606797, 1474.3760831306, 1478.2284618951198, 1482.71260330908, 1665.8688357641197, 1738.5215404497199, 2975.03898606616, 3009.26404090104, 3062.7647235291597, 3097.66960991072, 3105.09968802696, 3145.0998775159596, 3146.5076095065597, 3168.9763854735997, 3405.2006804816, 3560.0443324622797]

>  <E0_kJmol>  (2) 
-900405

>  <H298_kJmol>  (2) 
-900380

$$$$

     RDKit          3D

 25 24  0  0  0  0  0  0  0  0999 V2000
   -2.1333   -0.2283   -1.2839 O   0  0  0  0  0  1  0  0  0  1  0  0
   -0.9403   -0.0251   -1.8613 N   0  0  0  0  0  0  0  0  0  2  0  0
   -0.8664    1.0497   -2.8295 C   0  0  0  0  0  0  0  0  0  3  0  0
   -0.8172   -0.3843   -3.2597 C   0  0  0  0  0  0  0  0  0  4  0  0
   -1.8203   -0.8517   -0.1886 H   0  0  0  0  0  0  0  0  0  5  0  0
    0.0382    1.6460   -2.8188 H   0  0  0  0  0  0  0  0  0  6  0  0
   -1.7909    1.5845   -3.0075 H   0  0  0  0  0  0  0  0  0  7  0  0
   -1.7102   -0.7886   -3.7199 H   0  0  0  0  0  0  0  0  0  8  0  0
    0.1234   -0.8305   -3.5586 H   0  0  0  0  0  0  0  0  0  9  0  0
    0.9644    2.0511    3.3083 C   0  0  0  0  0  0  0  0  0 10  0  0
    0.7150    2.1314    1.8365 C   0  0  0  0  0  0  0  0  0 11  0  0
    0.5559    1.1050    1.0175 C   0  0  0  0  0  0  0  0  0 12  0  0
    0.6493   -0.1924    1.4707 O   0  0  0  0  0  0  0  0  0 13  0  0
    0.0345   -1.0813    0.5821 N   0  0  0  0  0  0  0  0  0 14  0  0
   -1.3001   -1.2228    0.7849 N   0  0  0  0  0  0  0  0  0 15  0  0
    0.7968   -2.3099    0.5345 C   0  0  0  0  0  0  0  0  0 16  0  0
    0.2634    2.6868    3.8538 H   0  0  0  0  0  0  0  0  0 17  0  0
    1.9707    2.4000    3.5541 H   0  0  0  0  0  0  0  0  0 18  0  0
    0.8640    1.0311    3.6768 H   0  0  0  0  0  0  0  0  0 19  0  0
    0.6753    3.1124    1.3790 H   0  0  0  0  0  0  0  0  0 20  0  0
    0.3617    1.1805   -0.0447 H   0  0  0  0  0  0  0  0  0 21  0  0
   -1.5732   -0.5851    1.5280 H   0  0  0  0  0  0  0  0  0 22  0  0
    0.8383   -2.7877    1.5187 H   0  0  0  0  0  0  0  0  0 23  0  0
    1.8013   -2.0858    0.1829 H   0  0  0  0  0  0  0  0  0 24  0  0
    0.2961   -2.9713   -0.1681 H   0  0  0  0  0  0  0  0  0 25  0  0
  1  2  1  0
  2  4  1  0
  2  3  1  0
  3  4  1  0
  3  6  1  0
  3  7  1  0
  4  9  1  0
  4  8  1  0
  5 15  1  0
 10 18  1  0
 10 11  1  0
 10 19  1  0
 10 17  1  0
 11 12  1  0
 11 20  1  0
 12 13  1  0
 12 21  1  0
 13 14  1  0
 14 15  1  0
 14 16  1  0
 15 22  1  0
 16 23  1  0
 16 24  1  0
 16 25  1  0
M  RAD  1   1   2
M  END
>  <rmg_smiles>  (3) 
[O]N1CC1.C[CH][CH]ON(N)C

>  <rmg_adjacency_list>  (3) 
multiplicity 2
1  O u0 p2 c0 {4,S} {11,S}
2  O u1 p2 c0 {3,S}
3  N u0 p1 c0 {2,S} {6,S} {7,S}
4  N u0 p1 c0 {1,S} {5,S} {8,S}
5  N u0 p1 c0 {4,S} {24,S} {25,S}
6  C u0 p0 c0 {3,S} {7,S} {12,S} {13,S}
7  C u0 p0 c0 {3,S} {6,S} {14,S} {15,S}
8  C u0 p0 c0 {4,S} {19,S} {20,S} {21,S}
9  C u0 p0 c0 {10,S} {16,S} {17,S} {18,S}
10 C u0 p0 c0 {9,S} {11,S} {22,S}
11 C u0 p0 c0 {1,S} {10,S} {23,S}
12 H u0 p0 c0 {6,S}
13 H u0 p0 c0 {6,S}
14 H u0 p0 c0 {7,S}
15 H u0 p0 c0 {7,S}
16 H u0 p0 c0 {9,S}
17 H u0 p0 c0 {9,S}
18 H u0 p0 c0 {9,S}
19 H u0 p0 c0 {8,S}
20 H u0 p0 c0 {8,S}
21 H u0 p0 c0 {8,S}
22 H u0 p0 c0 {10,S}
23 H u0 p0 c0 {11,S}
24 H u0 p0 c0 {5,S}
25 H u0 p0 c0 {5,S}


>  <multiplicity>  (3) 
2

>  <reaction>  (3) 
rmg_rxn_10669

>  <type>  (3) 
ts

>  <role_mapnums>  (3) 
{"*2": 5, "*1": 1, "*3": 15, "*0": 14, "*4": 2}

>  <role_mapidx>  (3) 
{"*2": 4, "*1": 0, "*3": 14, "*0": 13, "*4": 1}

>  <ordered_mapped_smiles>  (3) 
[O:1][N:2]1[C:3]([H:6])([H:7])[C:4]1([H:8])[H:9].[H:5][N:15]([N:14]([O:13][CH:12]([CH:11]([C:10]([H:17])([H:18])[H:19])[H:20])[H:21])[C:16]([H:23])([H:24])[H:25])[H:22]

>  <mol_properties>  (3) 
{"0": {"label": "*1", "atom_type": "O2s"}, "1": {"label": "*4", "atom_type": "N3s"}, "4": {"label": "*2", "atom_type": "H0"}, "13": {"label": "*0", "atom_type": "N3s"}, "14": {"label": "*3", "atom_type": "N3s"}}

>  <level_of_theory>  (3) 
wb97xd/def2tzvp

>  <lot_method>  (3) 
wb97xd

>  <lot_basis>  (3) 
def2tzvp

>  <spin_multiplicity>  (3) 
2.0

>  <optical_isomers>  (3) 
2.0

>  <modes>  (3) 
IdealGasTranslation(mass=(160.109, 'amu')),         NonlinearRotor(             inertia = ([345.103, 828.327, 1007.65

>  <frequency_value>  (3) 
-1543.46

>  <frequency_units>  (3) 
cm^-1

>  <frequency_list>  (3) 
unknown

>  <arkane_path>  (3) 
/home/calvin/Dropbox/PersonalFolders/Calvin/ZEUS_Converged/rmg_rxn_10669/output/rxns/TS0/arkane/output.py

>  <path_exists>  (3) 
True

>  <E0_value>  (3) 
-1447530.0

>  <E0_units>  (3) 
kJ/mol

>  <thermo_class>  (3) 
unknown

>  <Cp0_value>  (3) 
unknown

>  <Cp0_units>  (3) 
unknown

>  <CpInf_value>  (3) 
unknown

>  <CpInf_units>  (3) 
unknown

>  <Tmin_value>  (3) 
unknown

>  <Tmin_units>  (3) 
unknown

>  <Tmax_value>  (3) 
unknown

>  <Tmax_units>  (3) 
unknown

>  <polynomials>  (3) 
unknown

>  <H298_value>  (3) 
unknown

>  <H298_units>  (3) 
unknown

>  <S298_value>  (3) 
unknown

>  <S298_units>  (3) 
unknown

>  <Cp_T_value_list>  (3) 
unknown

>  <Cp_T_units>  (3) 
unknown

>  <T_list>  (3) 
unknown

>  <T_units>  (3) 
unknown

>  <yaml_path>  (3) 
unknown

>  <frequencies_cm1>  (3) 
unknown

>  <ZPE_kJmol>  (3) 
unknown

>  <E_elec_kJmol>  (3) 
unknown

>  <E0_minus_Eelec_plus_ZPE_kJmol>  (3) 
unknown

>  <rxn>  (3) 
unknown

>  <species_type>  (3) 
unknown

>  <species_folder>  (3) 
unknown

>  <frequencies_cm1_list>  (3) 
[]

>  <ts_imag_freq_cm1>  (3) 
-1562.2048

>  <ts_freq_out_path>  (3) 
/home/calvin/Dropbox/PersonalFolders/Calvin/ZEUS_Converged/rmg_rxn_10669/output/rxns/TS0/geometry/freq.out

>  <E0_kJmol>  (3) 
-1.44753e+06

>  <H298_kJmol>  (3) 
unknown

$$$$

     RDKit          3D

  8  8  0  0  0  0  0  0  0  0999 V2000
    0.0257    1.9818    0.0485 O   0  0  0  0  0  1  0  0  0  1  0  0
    0.0179    0.8208   -0.4484 N   0  0  0  0  0  0  0  0  0  2  0  0
    0.7557   -0.3258    0.0134 C   0  0  0  0  0  0  0  0  0  3  0  0
   -0.7642   -0.3055   -0.0101 C   0  0  0  0  0  0  0  0  0  4  0  0
    1.2844   -0.9009   -0.7365 H   0  0  0  0  0  0  0  0  0  5  0  0
    1.2442   -0.2188    0.9742 H   0  0  0  0  0  0  0  0  0  6  0  0
   -1.2791   -0.1851    0.9352 H   0  0  0  0  0  0  0  0  0  7  0  0
   -1.2846   -0.8666   -0.7762 H   0  0  0  0  0  0  0  0  0  8  0  0
  1  2  1  0
  2  3  1  0
  2  4  1  0
  3  4  1  0
  3  6  1  0
  3  5  1  0
  4  8  1  0
  4  7  1  0
M  RAD  1   1   2
M  END
>  <rmg_smiles>  (4) 
[O]N1CC1

>  <rmg_adjacency_list>  (4) 
multiplicity 2
1 O u1 p2 c0 {2,S}
2 N u0 p1 c0 {1,S} {3,S} {4,S}
3 C u0 p0 c0 {2,S} {4,S} {5,S} {6,S}
4 C u0 p0 c0 {2,S} {3,S} {7,S} {8,S}
5 H u0 p0 c0 {3,S}
6 H u0 p0 c0 {3,S}
7 H u0 p0 c0 {4,S}
8 H u0 p0 c0 {4,S}


>  <multiplicity>  (4) 
2

>  <reaction>  (4) 
rmg_rxn_10669

>  <type>  (4) 
r1

>  <role_mapnums>  (4) 
{}

>  <role_mapidx>  (4) 
{}

>  <ordered_mapped_smiles>  (4) 
[O:1][N:2]1[C:3]([H:5])([H:6])[C:4]1([H:7])[H:8]

>  <level_of_theory>  (4) 
wb97xd/def2tzvp

>  <lot_method>  (4) 
wb97xd

>  <lot_basis>  (4) 
def2tzvp

>  <spin_multiplicity>  (4) 
2.0

>  <optical_isomers>  (4) 
1.0

>  <modes>  (4) 
IdealGasTranslation(mass=(58.0293, 'amu')),         NonlinearRotor(             inertia = ([25.8055, 62.4608, 77.4626

>  <frequency_value>  (4) 
unknown

>  <frequency_units>  (4) 
unknown

>  <frequency_list>  (4) 
unknown

>  <arkane_path>  (4) 
/home/calvin/Dropbox/PersonalFolders/Calvin/ZEUS_Converged/rmg_rxn_10669/output/Species/rmg_rxn_10669_p1_sbr-O-sbrN1CC1/arkane/output.py

>  <path_exists>  (4) 
True

>  <E0_value>  (4) 
-547181.0539800532

>  <E0_units>  (4) 
kJ/mol

>  <thermo_class>  (4) 
NASA

>  <Cp0_value>  (4) 
33.257888

>  <Cp0_units>  (4) 
J/(mol*K)

>  <CpInf_value>  (4) 
182.918384

>  <CpInf_units>  (4) 
J/(mol*K)

>  <Tmin_value>  (4) 
10.0

>  <Tmin_units>  (4) 
K

>  <Tmax_value>  (4) 
3000.0

>  <Tmax_units>  (4) 
K

>  <polynomials>  (4) 
[{"name": "polynomial1", "class": "NASAPolynomial", "Tmin_value": 10.0, "Tmin_units": "K", "Tmax_value": 624.7358024116522, "Tmax_units": "K", "coeffs": [4.110545166897183, -0.00903308912226915, 0.00011173694497638823, -1.7341038527550235e-07, 8.700247665051298e-11, -65810679.90864869, 8.711235271160382]}, {"name": "polynomial2", "class": "NASAPolynomial", "Tmin_value": 624.7358024116522, "Tmin_units": "K", "Tmax_value": 3000.0, "Tmax_units": "K", "coeffs": [0.5509044260436508, 0.029424193595598697, -1.8213740305659463e-05, 5.401051773433692e-09, -6.146367637254164e-13, -65810540.8585601, 21.763125473748943]}]

>  <H298_value>  (4) 
-130776.41321357674

>  <H298_units>  (4) 
kcal/mol

>  <S298_value>  (4) 
65.65873371157241

>  <S298_units>  (4) 
cal/(mol*K)

>  <Cp_T_value_list>  (4) 
[14.863476233337499, 18.88684669510492, 22.43475355875079, 25.3068157363096, 29.70287253846534, 32.88384153683624, 37.40564552315667, 39.582284693151514, 40.79693596402169]

>  <Cp_T_units>  (4) 
cal/(mol*K)

>  <T_list>  (4) 
[300.0, 400.0, 500.0, 600.0, 800.0, 1000.0, 1500.0, 2000.0, 2400.0]

>  <T_units>  (4) 
K

>  <yaml_path>  (4) 
/home/calvin/Dropbox/PersonalFolders/Calvin/ZEUS_Converged/rmg_rxn_10669/output/Species/rmg_rxn_10669_p1_sbr-O-sbrN1CC1/rmg_rxn_10669_p1_sbr-O-sbrN1CC1.yml

>  <frequencies_cm1>  (4) 
[350.08577859892, 463.25369667251994, 761.6104748558798, 793.3977499021601, 893.5939327062799, 1016.15588669764, 1066.6762976968798, 1105.1726174008, 1123.1366509979198, 1153.9625480994, 1164.4896365949598, 1431.4917598071997, 1454.9768496016, 1497.97791167544, 3102.6413072824, 3105.09282104164, 3197.1310252856, 3209.5328007735197]

>  <ZPE_kJmol>  (4) 
160.84023508429246

>  <E_elec_kJmol>  (4) 
-547341.8942151375

>  <E0_minus_Eelec_plus_ZPE_kJmol>  (4) 
0.0

>  <rxn>  (4) 
rmg_rxn_10669

>  <species_type>  (4) 
p0

>  <species_folder>  (4) 
rmg_rxn_10669_p1_sbr-O-sbrN1CC1

>  <frequencies_cm1_list>  (4) 
[350.08577859892, 463.25369667251994, 761.6104748558798, 793.3977499021601, 893.5939327062799, 1016.15588669764, 1066.6762976968798, 1105.1726174008, 1123.1366509979198, 1153.9625480994, 1164.4896365949598, 1431.4917598071997, 1454.9768496016, 1497.97791167544, 3102.6413072824, 3105.09282104164, 3197.1310252856, 3209.5328007735197]

>  <E0_kJmol>  (4) 
-547181

>  <H298_kJmol>  (4) 
-547169

$$$$

     RDKit          3D

 16 15  0  0  0  0  0  0  0  0999 V2000
   -2.7163    0.6711   -0.2082 C   0  0  0  0  0  0  0  0  0  1  0  0
   -2.0604   -0.6699   -0.1371 C   0  0  0  0  0  0  0  0  0  2  0  0
   -1.8776   -1.4967   -1.1546 C   0  0  0  0  0  0  0  0  0  3  0  0
   -2.2450   -1.1612   -2.4322 O   0  0  0  0  0  0  0  0  0  4  0  0
   -2.5108   -2.3329   -3.2086 N   0  0  0  0  0  0  0  0  0  5  0  0
   -2.0229   -2.3050   -4.4233 N   0  0  0  0  0  2  0  0  0  6  0  0
   -3.9082   -2.7128   -3.0828 C   0  0  0  0  0  0  0  0  0  7  0  0
   -3.4812    0.7676    0.5653 H   0  0  0  0  0  0  0  0  0  8  0  0
   -3.1809    0.8365   -1.1792 H   0  0  0  0  0  0  0  0  0  9  0  0
   -1.9897    1.4706   -0.0417 H   0  0  0  0  0  0  0  0  0 10  0  0
   -1.6717   -0.9974    0.8197 H   0  0  0  0  0  0  0  0  0 11  0  0
   -1.3990   -2.4648   -1.0638 H   0  0  0  0  0  0  0  0  0 12  0  0
   -1.1779   -1.7364   -4.3793 H   0  0  0  0  0  0  0  0  0 13  0  0
   -4.5563   -1.9305   -3.4853 H   0  0  0  0  0  0  0  0  0 14  0  0
   -4.1357   -2.8800   -2.0315 H   0  0  0  0  0  0  0  0  0 15  0  0
   -4.0457   -3.6333   -3.6440 H   0  0  0  0  0  0  0  0  0 16  0  0
  1 10  1  0
  1  8  1  0
  1  9  1  0
  1  2  1  0
  2 11  1  0
  2  3  1  0
  3  4  1  0
  3 12  1  0
  4  5  1  0
  5  6  1  0
  5  7  1  0
  6 13  1  0
  7 14  1  0
  7 15  1  0
  7 16  1  0
M  RAD  1   6   2
M  END
>  <rmg_smiles>  (5) 
C[CH][CH]ON([NH])C

>  <rmg_adjacency_list>  (5) 
multiplicity 2
1  O u0 p2 c0 {2,S} {7,S}
2  N u0 p1 c0 {1,S} {3,S} {5,S}
3  N u1 p1 c0 {2,S} {16,S}
4  C u0 p0 c0 {6,S} {8,S} {9,S} {10,S}
5  C u0 p0 c0 {2,S} {11,S} {12,S} {13,S}
6  C u0 p0 c0 {4,S} {7,S} {14,S}
7  C u0 p0 c0 {1,S} {6,S} {15,S}
8  H u0 p0 c0 {4,S}
9  H u0 p0 c0 {4,S}
10 H u0 p0 c0 {4,S}
11 H u0 p0 c0 {5,S}
12 H u0 p0 c0 {5,S}
13 H u0 p0 c0 {5,S}
14 H u0 p0 c0 {6,S}
15 H u0 p0 c0 {7,S}
16 H u0 p0 c0 {3,S}


>  <multiplicity>  (5) 
2

>  <reaction>  (5) 
rmg_rxn_10669

>  <type>  (5) 
r2

>  <role_mapnums>  (5) 
{}

>  <role_mapidx>  (5) 
{}

>  <ordered_mapped_smiles>  (5) 
[C:1]([CH:2]([CH:3]([O:4][N:5]([N:6][H:13])[C:7]([H:14])([H:15])[H:16])[H:12])[H:11])([H:8])([H:9])[H:10]

>  <level_of_theory>  (5) 
wb97xd/def2tzvp

>  <lot_method>  (5) 
wb97xd

>  <lot_basis>  (5) 
def2tzvp

>  <spin_multiplicity>  (5) 
2.0

>  <optical_isomers>  (5) 
2.0

>  <modes>  (5) 
IdealGasTranslation(mass=(101.071, 'amu')),         NonlinearRotor(             inertia = ([82.2482, 367.276, 386.349

>  <frequency_value>  (5) 
unknown

>  <frequency_units>  (5) 
unknown

>  <frequency_list>  (5) 
unknown

>  <arkane_path>  (5) 
/home/calvin/Dropbox/PersonalFolders/Calvin/ZEUS_Converged/rmg_rxn_10669/output/Species/rmg_rxn_10669_r2_CC=CONrbr-sbr-NH-sbr-rbrC/arkane/output.py

>  <path_exists>  (5) 
True

>  <E0_value>  (5) 
-898742.9185379538

>  <E0_units>  (5) 
kJ/mol

>  <thermo_class>  (5) 
NASA

>  <Cp0_value>  (5) 
33.257888

>  <Cp0_units>  (5) 
J/(mol*K)

>  <CpInf_value>  (5) 
382.465712

>  <CpInf_units>  (5) 
J/(mol*K)

>  <Tmin_value>  (5) 
10.0

>  <Tmin_units>  (5) 
K

>  <Tmax_value>  (5) 
3000.0

>  <Tmax_units>  (5) 
K

>  <polynomials>  (5) 
[{"name": "polynomial1", "class": "NASAPolynomial", "Tmin_value": 10.0, "Tmin_units": "K", "Tmax_value": 1230.3472949169695, "Tmax_units": "K", "coeffs": [3.6364475231756046, 0.04601226900129711, -1.0447555598908227e-05, -9.397698188465058e-09, 4.2998077544836165e-12, -108093806.2073487, 13.356248752428224]}, {"name": "polynomial2", "class": "NASAPolynomial", "Tmin_value": 1230.3472949169695, "Tmin_units": "K", "Tmax_value": 3000.0, "Tmax_units": "K", "coeffs": [10.637608490990464, 0.03762916917718073, -1.775692675502755e-05, 4.061454965423361e-09, -3.650754676341201e-13, -108096617.25339198, -26.294251832019942]}]

>  <H298_value>  (5) 
-214798.7169570288

>  <H298_units>  (5) 
kcal/mol

>  <S298_value>  (5) 
93.88909312712664

>  <S298_units>  (5) 
cal/(mol*K)

>  <Cp_T_value_list>  (5) 
[32.353587447653005, 39.5024233546788, 45.9535916020781, 51.68732293220983, 61.02593308117714, 67.77024082473554, 77.47619956814351, 82.5061750415756, 84.8555895677637]

>  <Cp_T_units>  (5) 
cal/(mol*K)

>  <T_list>  (5) 
[300.0, 400.0, 500.0, 600.0, 800.0, 1000.0, 1500.0, 2000.0, 2400.0]

>  <T_units>  (5) 
K

>  <yaml_path>  (5) 
/home/calvin/Dropbox/PersonalFolders/Calvin/ZEUS_Converged/rmg_rxn_10669/output/Species/rmg_rxn_10669_r2_CC=CONrbr-sbr-NH-sbr-rbrC/rmg_rxn_10669_r2_CC=CONrbr-sbr-NH-sbr-rbrC.yml

>  <frequencies_cm1>  (5) 
[39.766711988119994, 75.63297631448, 123.26238649399998, 170.50724549560002, 210.75464645612, 275.49658405307997, 409.25172411604, 436.20464149704003, 468.50694044231994, 500.21867865008005, 576.8748357772399, 635.10687129084, 759.24136492048, 839.57822617916, 939.32118795216, 961.2680730348799, 1009.44684204, 1040.7534281138799, 1058.9372052412398, 1116.31086758984, 1136.6302771517198, 1158.60463017572, 1269.5201770643598, 1302.9417946168, 1381.1704913822398, 1418.63676328816, 1428.2093408242401, 1447.1828212633998, 1467.8867820031996, 1473.94346305544, 1477.12974424392, 1484.2920099326798, 1743.06061774624, 3013.6108426086, 3018.1636538757602, 3068.4780553153996, 3106.96064104868, 3110.6619461361597, 3147.0088994349203, 3149.9479691518795, 3171.6476427630796, 3452.55541124832]

>  <ZPE_kJmol>  (5) 
347.36385809522346

>  <E_elec_kJmol>  (5) 
-899090.282396049

>  <E0_minus_Eelec_plus_ZPE_kJmol>  (5) 
0.0

>  <rxn>  (5) 
rmg_rxn_10669

>  <species_type>  (5) 
r1

>  <species_folder>  (5) 
rmg_rxn_10669_r2_CC=CONrbr-sbr-NH-sbr-rbrC

>  <frequencies_cm1_list>  (5) 
[39.766711988119994, 75.63297631448, 123.26238649399998, 170.50724549560002, 210.75464645612, 275.49658405307997, 409.25172411604, 436.20464149704003, 468.50694044231994, 500.21867865008005, 576.8748357772399, 635.10687129084, 759.24136492048, 839.57822617916, 939.32118795216, 961.2680730348799, 1009.44684204, 1040.7534281138799, 1058.9372052412398, 1116.31086758984, 1136.6302771517198, 1158.60463017572, 1269.5201770643598, 1302.9417946168, 1381.1704913822398, 1418.63676328816, 1428.2093408242401, 1447.1828212633998, 1467.8867820031996, 1473.94346305544, 1477.12974424392, 1484.2920099326798, 1743.06061774624, 3013.6108426086, 3018.1636538757602, 3068.4780553153996, 3106.96064104868, 3110.6619461361597, 3147.0088994349203, 3149.9479691518795, 3171.6476427630796, 3452.55541124832]

>  <E0_kJmol>  (5) 
-898743

>  <H298_kJmol>  (5) 
-898718

$$$$
