
     RDKit          3D

  9  8  0  0  0  0  0  0  0  0999 V2000
   -0.0437   -0.2538    1.4252 O   0  0  0  0  0  0  0  0  0  1  0  0
    0.3611   -0.7000    0.3082 N   0  0  0  0  0  0  0  0  0  2  0  0
    0.1685   -0.1468   -0.8661 C   0  0  0  0  0  0  0  0  0  3  0  0
   -0.5114    1.0931   -1.0206 C   0  0  0  0  0  0  0  0  0  4  0  0
    0.8937   -1.5694    0.3320 H   0  0  0  0  0  0  0  0  0  5  0  0
    0.6400   -0.6627   -1.6919 H   0  0  0  0  0  0  0  0  0  6  0  0
    0.1685    1.9213   -0.8419 H   0  0  0  0  0  0  0  0  0  7  0  0
   -0.8572    1.2964   -2.0295 H   0  0  0  0  0  0  0  0  0  8  0  0
   -1.2427    1.3087   -0.2460 H   0  0  0  0  0  0  0  0  0  9  0  0
  1  2  1  0
  2  3  1  0
  2  5  1  0
  3  4  1  0
  3  6  1  0
  4  8  1  0
  4  9  1  0
  4  7  1  0
M  END
>  <rmg_smiles>  (1) 
C[CH]N[O]

>  <rmg_adjacency_list>  (1) 
1 O u0 p2 c0 {2,S}
2 N u0 p1 c0 {1,S} {4,S} {9,S}
3 C u0 p0 c0 {4,S} {5,S} {6,S} {7,S}
4 C u0 p0 c0 {2,S} {3,S} {8,S}
5 H u0 p0 c0 {3,S}
6 H u0 p0 c0 {3,S}
7 H u0 p0 c0 {3,S}
8 H u0 p0 c0 {4,S}
9 H u0 p0 c0 {2,S}


>  <multiplicity>  (1) 
1

>  <reaction>  (1) 
rmg_rxn_10680

>  <type>  (1) 
r1h

>  <role_mapnums>  (1) 
{"r1h_a": 4, "r1h_h": 7}

>  <role_mapidx>  (1) 
{"r1h_a": 3, "r1h_h": 6}

>  <ordered_mapped_smiles>  (1) 
[OH:1][N:2]([CH:3]([C:4]([H:7])([H:8])[H:9])[H:6])[H:5]

>  <mol_properties>  (1) 
{"3": {"label": "donator", "atom_type": "Cs"}, "6": {"label": "d_hydrogen", "atom_type": "H0"}}

>  <level_of_theory>  (1) 
wb97xd/def2tzvp

>  <lot_method>  (1) 
wb97xd

>  <lot_basis>  (1) 
def2tzvp

>  <spin_multiplicity>  (1) 
1.0

>  <optical_isomers>  (1) 
1.0

>  <modes>  (1) 
IdealGasTranslation(mass=(59.0371, 'amu')),         NonlinearRotor(             inertia = ([26.5013, 79.1041, 102.523

>  <frequency_value>  (1) 
unknown

>  <frequency_units>  (1) 
unknown

>  <frequency_list>  (1) 
unknown

>  <arkane_path>  (1) 
/home/calvin/Dropbox/PersonalFolders/Calvin/ZEUS_Converged/rmg_rxn_10680/output/Species/rmg_rxn_10680_r1_sbr-O--sbrsbr-NHp-sbr=CC/arkane/output.py

>  <path_exists>  (1) 
True

>  <E0_value>  (1) 
-548899.2374133079

>  <E0_units>  (1) 
kJ/mol

>  <thermo_class>  (1) 
NASA

>  <Cp0_value>  (1) 
33.257888

>  <Cp0_units>  (1) 
J/(mol*K)

>  <CpInf_value>  (1) 
207.8618

>  <CpInf_units>  (1) 
J/(mol*K)

>  <Tmin_value>  (1) 
10.0

>  <Tmin_units>  (1) 
K

>  <Tmax_value>  (1) 
3000.0

>  <Tmax_units>  (1) 
K

>  <polynomials>  (1) 
[{"name": "polynomial1", "class": "NASAPolynomial", "Tmin_value": 10.0, "Tmin_units": "K", "Tmax_value": 436.28059725584865, "Tmax_units": "K", "coeffs": [3.9617014656642233, 0.002333729896196765, 7.865571049158183e-05, -1.4159001443618998e-07, 8.33162951617068e-11, -66017327.48291766, 8.88967812490584]}, {"name": "polynomial2", "class": "NASAPolynomial", "Tmin_value": 436.28059725584865, "Tmin_units": "K", "Tmax_value": 3000.0, "Tmax_units": "K", "coeffs": [0.9246630622958452, 0.03017773110178649, -1.707345467274274e-05, 4.686425066364899e-09, -5.014082718156468e-13, -66017062.47496316, 21.02259063717009]}]

>  <H298_value>  (1) 
-131186.60847224397

>  <H298_units>  (1) 
kcal/mol

>  <S298_value>  (1) 
68.68392134489977

>  <S298_units>  (1) 
cal/(mol*K)

>  <Cp_T_value_list>  (1) 
[17.075600416248953, 20.96749934851977, 24.44190481719043, 27.487325174334654, 32.458851659139306, 36.19489233944713, 41.839225784834355, 44.623069256750355, 46.0192031888435]

>  <Cp_T_units>  (1) 
cal/(mol*K)

>  <T_list>  (1) 
[300.0, 400.0, 500.0, 600.0, 800.0, 1000.0, 1500.0, 2000.0, 2400.0]

>  <T_units>  (1) 
K

>  <yaml_path>  (1) 
/home/calvin/Dropbox/PersonalFolders/Calvin/ZEUS_Converged/rmg_rxn_10680/output/Species/rmg_rxn_10680_r1_sbr-O--sbrsbr-NHp-sbr=CC/rmg_rxn_10680_r1_sbr-O--sbrsbr-NHp-sbr=CC.yml

>  <frequencies_cm1>  (1) 
[105.73097297204, 269.88625704663997, 457.38929120923996, 723.71844986012, 740.6387016885999, 940.3443687648398, 966.17796753868, 1035.82293265412, 1117.6567967125598, 1166.6870718973598, 1383.1138482278, 1424.84451801744, 1452.31932628276, 1463.12796117644, 1539.9695269072402, 1681.5667642056399, 3011.0219891429592, 3063.3278163253995, 3123.619947435, 3195.9636377812003, 3344.2149838546798]

>  <ZPE_kJmol>  (1) 
192.64155141597303

>  <E_elec_kJmol>  (1) 
-549091.8789647239

>  <E0_minus_Eelec_plus_ZPE_kJmol>  (1) 
0.0

>  <rxn>  (1) 
rmg_rxn_10680

>  <species_type>  (1) 
r0

>  <species_folder>  (1) 
rmg_rxn_10680_r1_sbr-O--sbrsbr-NHp-sbr=CC

>  <frequencies_cm1_list>  (1) 
[105.73097297204, 269.88625704663997, 457.38929120923996, 723.71844986012, 740.6387016885999, 940.3443687648398, 966.17796753868, 1035.82293265412, 1117.6567967125598, 1166.6870718973598, 1383.1138482278, 1424.84451801744, 1452.31932628276, 1463.12796117644, 1539.9695269072402, 1681.5667642056399, 3011.0219891429592, 3063.3278163253995, 3123.619947435, 3195.9636377812003, 3344.2149838546798]

>  <E0_kJmol>  (1) 
-548899

>  <H298_kJmol>  (1) 
-548885

$$$$

     RDKit          3D

 17 16  0  0  0  0  0  0  0  0999 V2000
   -2.5156    0.6145   -0.8978 H   0  0  0  0  0  0  0  0  0  1  0  0
    1.5499   -2.3958   -0.1285 C   0  0  0  0  0  0  0  0  0  2  0  0
    1.9832   -0.9725    0.0191 C   0  0  0  0  0  0  0  0  0  3  0  0
    1.1909    0.0826   -0.0966 C   0  0  0  0  0  0  0  0  0  4  0  0
   -0.1269   -0.0441   -0.4272 O   0  0  0  0  0  0  0  0  0  5  0  0
   -0.8943    1.0799    0.0658 N   0  0  0  0  0  0  0  0  0  6  0  0
   -1.8769    1.3989   -0.7809 N   0  0  0  0  0  0  0  0  0  7  0  0
   -1.3509    0.7830    1.4126 C   0  0  0  0  0  0  0  0  0  8  0  0
    0.4639   -2.4680   -0.1859 H   0  0  0  0  0  0  0  0  0  9  0  0
    1.8936   -2.9958    0.7168 H   0  0  0  0  0  0  0  0  0 10  0  0
    1.9676   -2.8450   -1.0336 H   0  0  0  0  0  0  0  0  0 11  0  0
    3.0296   -0.7733    0.2152 H   0  0  0  0  0  0  0  0  0 12  0  0
    1.5287    1.1051    0.0292 H   0  0  0  0  0  0  0  0  0 13  0  0
   -1.4607    1.4768   -1.7068 H   0  0  0  0  0  0  0  0  0 14  0  0
   -0.4800    0.5960    2.0385 H   0  0  0  0  0  0  0  0  0 15  0  0
   -2.0126   -0.0938    1.4307 H   0  0  0  0  0  0  0  0  0 16  0  0
   -1.8785    1.6622    1.7753 H   0  0  0  0  0  0  0  0  0 17  0  0
  1  7  1  0
  2 10  1  0
  2  9  1  0
  2 11  1  0
  2  3  1  0
  3  4  1  0
  3 12  1  0
  4 13  1  0
  4  5  1  0
  5  6  1  0
  6  8  1  0
  6  7  1  0
  7 14  1  0
  8 17  1  0
  8 16  1  0
  8 15  1  0
M  END
>  <rmg_smiles>  (2) 
C[CH][CH]ON(N)C

>  <rmg_adjacency_list>  (2) 
1  O u0 p2 c0 {2,S} {7,S}
2  N u0 p1 c0 {1,S} {3,S} {4,S}
3  N u0 p1 c0 {2,S} {16,S} {17,S}
4  C u0 p0 c0 {2,S} {11,S} {12,S} {13,S}
5  C u0 p0 c0 {6,S} {8,S} {9,S} {10,S}
6  C u0 p0 c0 {5,S} {7,S} {14,S}
7  C u0 p0 c0 {1,S} {6,S} {15,S}
8  H u0 p0 c0 {5,S}
9  H u0 p0 c0 {5,S}
10 H u0 p0 c0 {5,S}
11 H u0 p0 c0 {4,S}
12 H u0 p0 c0 {4,S}
13 H u0 p0 c0 {4,S}
14 H u0 p0 c0 {6,S}
15 H u0 p0 c0 {7,S}
16 H u0 p0 c0 {3,S}
17 H u0 p0 c0 {3,S}


>  <multiplicity>  (2) 
1

>  <reaction>  (2) 
rmg_rxn_10680

>  <type>  (2) 
r2h

>  <role_mapnums>  (2) 
{"r2h_a": 7, "r2h_h": 1}

>  <role_mapidx>  (2) 
{"r2h_a": 6, "r2h_h": 0}

>  <ordered_mapped_smiles>  (2) 
[H:1][N:7]([N:6]([O:5][CH:4]([CH:3]([C:2]([H:9])([H:10])[H:11])[H:12])[H:13])[C:8]([H:15])([H:16])[H:17])[H:14]

>  <mol_properties>  (2) 
{"0": {"label": "a_hydrogen", "atom_type": "H0"}, "6": {"label": "acceptor", "atom_type": "N3s"}}

>  <level_of_theory>  (2) 
wb97xd/def2tzvp

>  <lot_method>  (2) 
wb97xd

>  <lot_basis>  (2) 
def2tzvp

>  <spin_multiplicity>  (2) 
1.0

>  <optical_isomers>  (2) 
2.0

>  <modes>  (2) 
IdealGasTranslation(mass=(102.079, 'amu')),         NonlinearRotor(             inertia = ([85.6795, 376.18, 388.876

>  <frequency_value>  (2) 
unknown

>  <frequency_units>  (2) 
unknown

>  <frequency_list>  (2) 
unknown

>  <arkane_path>  (2) 
/home/calvin/Dropbox/PersonalFolders/Calvin/ZEUS_Converged/rmg_rxn_10680/output/Species/rmg_rxn_10680_p2_CC=CONrbr-N-rbrC/arkane/output.py

>  <path_exists>  (2) 
True

>  <E0_value>  (2) 
-900405.0494296006

>  <E0_units>  (2) 
kJ/mol

>  <thermo_class>  (2) 
NASA

>  <Cp0_value>  (2) 
33.257888

>  <Cp0_units>  (2) 
J/(mol*K)

>  <CpInf_value>  (2) 
407.409128

>  <CpInf_units>  (2) 
J/(mol*K)

>  <Tmin_value>  (2) 
10.0

>  <Tmin_units>  (2) 
K

>  <Tmax_value>  (2) 
3000.0

>  <Tmax_units>  (2) 
K

>  <polynomials>  (2) 
[{"name": "polynomial1", "class": "NASAPolynomial", "Tmin_value": 10.0, "Tmin_units": "K", "Tmax_value": 1108.736796573486, "Tmax_units": "K", "coeffs": [3.593482067657345, 0.04527343613148581, -7.853115807860651e-07, -2.043658609457127e-08, 8.18045447415304e-12, -108293714.18687978, 12.85162704751556]}, {"name": "polynomial2", "class": "NASAPolynomial", "Tmin_value": 1108.736796573486, "Tmin_units": "K", "Tmax_value": 3000.0, "Tmax_units": "K", "coeffs": [7.506038002578287, 0.046589931565087575, -2.3444009976697085e-05, 5.741145862751885e-09, -5.527118171710488e-13, -108295530.30298632, -10.705520626468415]}]

>  <H298_value>  (2) 
-215195.9362782153

>  <H298_units>  (2) 
kcal/mol

>  <S298_value>  (2) 
92.63660749241524

>  <S298_units>  (2) 
cal/(mol*K)

>  <Cp_T_value_list>  (2) 
[33.0259983327988, 40.69537554931736, 47.67423133324528, 53.89446290908325, 63.981717362233816, 71.19261681574156, 81.91300293988421, 87.42841994031997, 90.0449470406118]

>  <Cp_T_units>  (2) 
cal/(mol*K)

>  <T_list>  (2) 
[300.0, 400.0, 500.0, 600.0, 800.0, 1000.0, 1500.0, 2000.0, 2400.0]

>  <T_units>  (2) 
K

>  <yaml_path>  (2) 
/home/calvin/Dropbox/PersonalFolders/Calvin/ZEUS_Converged/rmg_rxn_10680/output/Species/rmg_rxn_10680_p2_CC=CONrbr-N-rbrC/rmg_rxn_10680_p2_CC=CONrbr-N-rbrC.yml

>  <frequencies_cm1>  (2) 
[42.90492427935999, 70.94969232623998, 121.85465450339998, 166.71666959895998, 253.87244728039994, 301.92074356444, 373.40606074563993, 419.64833989052, 445.81842094504, 504.72342102, 549.00174236336, 631.06908392268, 758.13578028396, 848.92419319968, 869.8822323963199, 938.1057315505199, 966.4663809221199, 985.6939398181199, 1045.86246519196, 1060.8324931895597, 1129.8319616849199, 1145.91444130436, 1177.50257377636, 1255.0720399510801, 1275.68672988172, 1357.8776771768, 1378.40309629828, 1417.9431977708398, 1431.4368239246398, 1469.8713407606797, 1474.3760831306, 1478.2284618951198, 1482.71260330908, 1665.8688357641197, 1738.5215404497199, 2975.03898606616, 3009.26404090104, 3062.7647235291597, 3097.66960991072, 3105.09968802696, 3145.0998775159596, 3146.5076095065597, 3168.9763854735997, 3405.2006804816, 3560.0443324622797]

>  <ZPE_kJmol>  (2) 
382.271003727177

>  <E_elec_kJmol>  (2) 
-900787.3204333278

>  <E0_minus_Eelec_plus_ZPE_kJmol>  (2) 
0.0

>  <rxn>  (2) 
rmg_rxn_10680

>  <species_type>  (2) 
p1

>  <species_folder>  (2) 
rmg_rxn_10680_p2_CC=CONrbr-N-rbrC

>  <frequencies_cm1_list>  (2) 
[42.90492427935999, 70.94969232623998, 121.85465450339998, 166.71666959895998, 253.87244728039994, 301.92074356444, 373.40606074563993, 419.64833989052, 445.81842094504, 504.72342102, 549.00174236336, 631.06908392268, 758.13578028396, 848.92419319968, 869.8822323963199, 938.1057315505199, 966.4663809221199, 985.6939398181199, 1045.86246519196, 1060.8324931895597, 1129.8319616849199, 1145.91444130436, 1177.50257377636, 1255.0720399510801, 1275.68672988172, 1357.8776771768, 1378.40309629828, 1417.9431977708398, 1431.4368239246398, 1469.8713407606797, 1474.3760831306, 1478.2284618951198, 1482.71260330908, 1665.8688357641197, 1738.5215404497199, 2975.03898606616, 3009.26404090104, 3062.7647235291597, 3097.66960991072, 3105.09968802696, 3145.0998775159596, 3146.5076095065597, 3168.9763854735997, 3405.2006804816, 3560.0443324622797]

>  <E0_kJmol>  (2) 
-900405

>  <H298_kJmol>  (2) 
-900380

$$$$

     RDKit          3D

 25 23  0  0  0  0  0  0  0  0999 V2000
   -1.9727   -1.3257    1.3058 O   0  0  0  0  0  1  0  0  0  1  0  0
   -1.5679   -1.7718    0.1889 N   0  0  0  0  0  0  0  0  0  2  0  0
   -1.7605   -1.2187   -0.9855 C   0  0  0  0  0  0  0  0  0  3  0  0
   -2.4404    0.0212   -1.1399 C   0  0  0  0  0  0  0  0  0  4  0  0
   -1.0353   -2.6413    0.2127 H   0  0  0  0  0  0  0  0  0  5  0  0
   -1.2890   -1.7346   -1.8112 H   0  0  0  0  0  0  0  0  0  6  0  0
   -1.6026    1.0417   -0.9197 H   0  0  0  0  0  0  0  0  0  7  0  0
   -2.7861    0.2245   -2.1489 H   0  0  0  0  0  0  0  0  0  8  0  0
   -3.1717    0.2368   -0.3653 H   0  0  0  0  0  0  0  0  0  9  0  0
    2.6430   -1.7475   -0.1176 C   0  0  0  0  0  0  0  0  0 10  0  0
    3.0763   -0.3242    0.0301 C   0  0  0  0  0  0  0  0  0 11  0  0
    2.2840    0.7310   -0.0856 C   0  0  0  0  0  0  0  0  0 12  0  0
    0.9662    0.6043   -0.4163 O   0  0  0  0  0  0  0  0  0 13  0  0
    0.1988    1.7282    0.0768 N   0  0  0  0  0  0  0  0  0 14  0  0
   -0.7838    2.0472   -0.7699 N   0  0  0  0  0  0  0  0  0 15  0  0
   -0.2579    1.4314    1.4236 C   0  0  0  0  0  0  0  0  0 16  0  0
    1.5570   -1.8197   -0.1749 H   0  0  0  0  0  0  0  0  0 17  0  0
    2.9867   -2.3475    0.7277 H   0  0  0  0  0  0  0  0  0 18  0  0
    3.0607   -2.1967   -1.0226 H   0  0  0  0  0  0  0  0  0 19  0  0
    4.1227   -0.1250    0.2261 H   0  0  0  0  0  0  0  0  0 20  0  0
    2.6217    1.7534    0.0402 H   0  0  0  0  0  0  0  0  0 21  0  0
   -0.3676    2.1251   -1.6959 H   0  0  0  0  0  0  0  0  0 22  0  0
    0.6131    1.2444    2.0494 H   0  0  0  0  0  0  0  0  0 23  0  0
   -0.9195    0.5545    1.4417 H   0  0  0  0  0  0  0  0  0 24  0  0
   -0.7854    2.3105    1.7863 H   0  0  0  0  0  0  0  0  0 25  0  0
  1  2  1  0
  2  5  1  0
  2  3  1  0
  3  4  1  0
  3  6  1  0
  4  9  1  0
  4  8  1  0
  7 15  1  0
 10 18  1  0
 10 11  1  0
 10 19  1  0
 10 17  1  0
 11 12  1  0
 11 20  1  0
 12 13  1  0
 12 21  1  0
 13 14  1  0
 14 15  1  0
 14 16  1  0
 15 22  1  0
 16 23  1  0
 16 24  1  0
 16 25  1  0
M  RAD  1   1   2
M  END
>  <rmg_smiles>  (3) 
C[CH][CH]ON(N)C.[CH2][CH]N[O]

>  <rmg_adjacency_list>  (3) 
multiplicity 2
1  O u0 p2 c0 {3,S} {10,S}
2  O u1 p2 c0 {5,S}
3  N u0 p1 c0 {1,S} {4,S} {6,S}
4  N u0 p1 c0 {3,S} {22,S} {25,S}
5  N u0 p1 c0 {2,S} {9,S} {21,S}
6  C u0 p0 c0 {3,S} {15,S} {16,S} {17,S}
7  C u0 p0 c0 {8,S} {12,S} {13,S} {14,S}
8  C u0 p0 c0 {7,S} {10,S} {18,S}
9  C u0 p0 c0 {5,S} {11,S} {19,S}
10 C u0 p0 c0 {1,S} {8,S} {20,S}
11 C u0 p0 c0 {9,S} {23,S} {24,S}
12 H u0 p0 c0 {7,S}
13 H u0 p0 c0 {7,S}
14 H u0 p0 c0 {7,S}
15 H u0 p0 c0 {6,S}
16 H u0 p0 c0 {6,S}
17 H u0 p0 c0 {6,S}
18 H u0 p0 c0 {8,S}
19 H u0 p0 c0 {9,S}
20 H u0 p0 c0 {10,S}
21 H u0 p0 c0 {5,S}
22 H u0 p0 c0 {4,S}
23 H u0 p0 c0 {11,S}
24 H u0 p0 c0 {11,S}
25 H u0 p0 c0 {4,S}


>  <multiplicity>  (3) 
2

>  <reaction>  (3) 
rmg_rxn_10680

>  <type>  (3) 
ts

>  <role_mapnums>  (3) 
{"*2": 7, "*1": 4, "*3": 15, "*0": 14, "*4": 3}

>  <role_mapidx>  (3) 
{"*2": 6, "*1": 3, "*3": 14, "*0": 13, "*4": 2}

>  <ordered_mapped_smiles>  (3) 
[O:1][N:2]([CH:3]([CH:4]([H:8])[H:9])[H:6])[H:5].[H:7][N:15]([N:14]([O:13][CH:12]([CH:11]([C:10]([H:17])([H:18])[H:19])[H:20])[H:21])[C:16]([H:23])([H:24])[H:25])[H:22]

>  <mol_properties>  (3) 
{"2": {"label": "*4", "atom_type": "Cs"}, "3": {"label": "*1", "atom_type": "Cs"}, "6": {"label": "*2", "atom_type": "H0"}, "13": {"label": "*0", "atom_type": "N3s"}, "14": {"label": "*3", "atom_type": "N3s"}}

>  <level_of_theory>  (3) 
wb97xd/def2tzvp

>  <lot_method>  (3) 
wb97xd

>  <lot_basis>  (3) 
def2tzvp

>  <spin_multiplicity>  (3) 
2.0

>  <optical_isomers>  (3) 
2.0

>  <modes>  (3) 
IdealGasTranslation(mass=(160.109, 'amu')),         NonlinearRotor(             inertia = ([414.415, 677.524, 866.458

>  <frequency_value>  (3) 
-2058.09

>  <frequency_units>  (3) 
cm^-1

>  <frequency_list>  (3) 
unknown

>  <arkane_path>  (3) 
/home/calvin/Dropbox/PersonalFolders/Calvin/ZEUS_Converged/rmg_rxn_10680/output/rxns/TS0/arkane/output.py

>  <path_exists>  (3) 
True

>  <E0_value>  (3) 
-1447590.0

>  <E0_units>  (3) 
kJ/mol

>  <thermo_class>  (3) 
unknown

>  <Cp0_value>  (3) 
unknown

>  <Cp0_units>  (3) 
unknown

>  <CpInf_value>  (3) 
unknown

>  <CpInf_units>  (3) 
unknown

>  <Tmin_value>  (3) 
unknown

>  <Tmin_units>  (3) 
unknown

>  <Tmax_value>  (3) 
unknown

>  <Tmax_units>  (3) 
unknown

>  <polynomials>  (3) 
unknown

>  <H298_value>  (3) 
unknown

>  <H298_units>  (3) 
unknown

>  <S298_value>  (3) 
unknown

>  <S298_units>  (3) 
unknown

>  <Cp_T_value_list>  (3) 
unknown

>  <Cp_T_units>  (3) 
unknown

>  <T_list>  (3) 
unknown

>  <T_units>  (3) 
unknown

>  <yaml_path>  (3) 
unknown

>  <frequencies_cm1>  (3) 
unknown

>  <ZPE_kJmol>  (3) 
unknown

>  <E_elec_kJmol>  (3) 
unknown

>  <E0_minus_Eelec_plus_ZPE_kJmol>  (3) 
unknown

>  <rxn>  (3) 
unknown

>  <species_type>  (3) 
unknown

>  <species_folder>  (3) 
unknown

>  <frequencies_cm1_list>  (3) 
[]

>  <ts_imag_freq_cm1>  (3) 
-2083.0908

>  <ts_freq_out_path>  (3) 
/home/calvin/Dropbox/PersonalFolders/Calvin/ZEUS_Converged/rmg_rxn_10680/output/rxns/TS0/geometry/freq.out

>  <E0_kJmol>  (3) 
-1.44759e+06

>  <H298_kJmol>  (3) 
unknown

$$$$

     RDKit          3D

  8  7  0  0  0  0  0  0  0  0999 V2000
   -1.4471   -1.2797    0.1311 O   0  0  0  0  0  1  0  0  0  1  0  0
   -1.1987   -0.0520    0.0080 N   0  0  0  0  0  0  0  0  0  2  0  0
    0.0713    0.4867   -0.0487 C   0  0  0  0  0  0  0  0  0  3  0  0
    1.1907   -0.2385    0.0210 C   0  0  0  0  0  0  0  0  0  4  0  0
   -1.9901    0.5828   -0.0534 H   0  0  0  0  0  0  0  0  0  5  0  0
    0.0721    1.5643   -0.1562 H   0  0  0  0  0  0  0  0  0  6  0  0
    2.1522    0.2496   -0.0300 H   0  0  0  0  0  0  0  0  0  7  0  0
    1.1496   -1.3131    0.1283 H   0  0  0  0  0  0  0  0  0  8  0  0
  1  2  1  0
  2  3  1  0
  2  5  1  0
  3  4  1  0
  3  6  1  0
  4  8  1  0
  4  7  1  0
M  RAD  1   1   2
M  END
>  <rmg_smiles>  (4) 
[CH2][CH]N[O]

>  <rmg_adjacency_list>  (4) 
multiplicity 2
1 O u1 p2 c0 {2,S}
2 N u0 p1 c0 {1,S} {3,S} {6,S}
3 C u0 p0 c0 {2,S} {4,S} {5,S}
4 C u0 p0 c0 {3,S} {7,S} {8,S}
5 H u0 p0 c0 {3,S}
6 H u0 p0 c0 {2,S}
7 H u0 p0 c0 {4,S}
8 H u0 p0 c0 {4,S}


>  <multiplicity>  (4) 
2

>  <reaction>  (4) 
rmg_rxn_10680

>  <type>  (4) 
r1

>  <role_mapnums>  (4) 
{}

>  <role_mapidx>  (4) 
{}

>  <ordered_mapped_smiles>  (4) 
[O:1][N:2]([CH:3]([CH:4]([H:7])[H:8])[H:6])[H:5]

>  <level_of_theory>  (4) 
wb97xd/def2tzvp

>  <lot_method>  (4) 
wb97xd

>  <lot_basis>  (4) 
def2tzvp

>  <spin_multiplicity>  (4) 
2.0

>  <optical_isomers>  (4) 
1.0

>  <modes>  (4) 
IdealGasTranslation(mass=(58.0293, 'amu')),         NonlinearRotor(             inertia = ([22.4648, 78.3998, 100.865

>  <frequency_value>  (4) 
unknown

>  <frequency_units>  (4) 
unknown

>  <frequency_list>  (4) 
unknown

>  <arkane_path>  (4) 
/home/calvin/Dropbox/PersonalFolders/Calvin/ZEUS_Converged/rmg_rxn_10680/output/Species/rmg_rxn_10680_p1_sbr-O--sbrsbr-NHp-sbr=Csbr-CH2-sbr/arkane/output.py

>  <path_exists>  (4) 
True

>  <E0_value>  (4) 
-547281.8287442868

>  <E0_units>  (4) 
kJ/mol

>  <thermo_class>  (4) 
NASA

>  <Cp0_value>  (4) 
33.257888

>  <Cp0_units>  (4) 
J/(mol*K)

>  <CpInf_value>  (4) 
182.918384

>  <CpInf_units>  (4) 
J/(mol*K)

>  <Tmin_value>  (4) 
10.0

>  <Tmin_units>  (4) 
K

>  <Tmax_value>  (4) 
3000.0

>  <Tmax_units>  (4) 
K

>  <polynomials>  (4) 
[{"name": "polynomial1", "class": "NASAPolynomial", "Tmin_value": 10.0, "Tmin_units": "K", "Tmax_value": 521.3322721890025, "Tmax_units": "K", "coeffs": [3.9666336542732057, 0.002001107071607853, 7.550545535684853e-05, -1.3653426098977972e-07, 7.822700888354665e-11, -65822798.63737235, 8.595253720235199]}, {"name": "polynomial2", "class": "NASAPolynomial", "Tmin_value": 521.3322721890025, "Tmin_units": "K", "Tmax_value": 3000.0, "Tmax_units": "K", "coeffs": [1.3066737633208694, 0.028487324593317837, -1.8187653108451886e-05, 5.638552965410097e-09, -6.73355458665998e-13, -65822603.87912654, 18.90334058471588]}]

>  <H298_value>  (4) 
-130800.10608256572

>  <H298_units>  (4) 
kcal/mol

>  <S298_value>  (4) 
67.74842318633347

>  <S298_units>  (4) 
cal/(mol*K)

>  <Cp_T_value_list>  (4) 
[16.513031204827843, 20.095363557009794, 23.18266451874876, 25.798260516391867, 29.942369422982047, 32.931077493469395, 37.2336829212966, 39.47674522561438, 40.7822646019237]

>  <Cp_T_units>  (4) 
cal/(mol*K)

>  <T_list>  (4) 
[300.0, 400.0, 500.0, 600.0, 800.0, 1000.0, 1500.0, 2000.0, 2400.0]

>  <T_units>  (4) 
K

>  <yaml_path>  (4) 
/home/calvin/Dropbox/PersonalFolders/Calvin/ZEUS_Converged/rmg_rxn_10680/output/Species/rmg_rxn_10680_p1_sbr-O--sbrsbr-NHp-sbr=Csbr-CH2-sbr/rmg_rxn_10680_p1_sbr-O--sbrsbr-NHp-sbr=Csbr-CH2-sbr.yml

>  <frequencies_cm1>  (4) 
[289.1687518252, 301.25464598839994, 529.5613069224399, 657.5481793166, 680.25043278452, 879.47541088836, 955.4311355128799, 978.86128942472, 1085.34076379664, 1288.4730565475597, 1417.6410504167598, 1444.15448073728, 1550.7506938596398, 1620.5467326521198, 3152.7634331330796, 3175.07426843776, 3254.0652005737197, 3446.8077445354797]

>  <ZPE_kJmol>  (4) 
159.74438862677977

>  <E_elec_kJmol>  (4) 
-547441.5731329136

>  <E0_minus_Eelec_plus_ZPE_kJmol>  (4) 
0.0

>  <rxn>  (4) 
rmg_rxn_10680

>  <species_type>  (4) 
p0

>  <species_folder>  (4) 
rmg_rxn_10680_p1_sbr-O--sbrsbr-NHp-sbr=Csbr-CH2-sbr

>  <frequencies_cm1_list>  (4) 
[289.1687518252, 301.25464598839994, 529.5613069224399, 657.5481793166, 680.25043278452, 879.47541088836, 955.4311355128799, 978.86128942472, 1085.34076379664, 1288.4730565475597, 1417.6410504167598, 1444.15448073728, 1550.7506938596398, 1620.5467326521198, 3152.7634331330796, 3175.07426843776, 3254.0652005737197, 3446.8077445354797]

>  <E0_kJmol>  (4) 
-547282

>  <H298_kJmol>  (4) 
-547268

$$$$

     RDKit          3D

 16 15  0  0  0  0  0  0  0  0999 V2000
   -2.7163    0.6711   -0.2082 C   0  0  0  0  0  0  0  0  0  1  0  0
   -2.0604   -0.6699   -0.1371 C   0  0  0  0  0  0  0  0  0  2  0  0
   -1.8776   -1.4967   -1.1546 C   0  0  0  0  0  0  0  0  0  3  0  0
   -2.2450   -1.1612   -2.4322 O   0  0  0  0  0  0  0  0  0  4  0  0
   -2.5108   -2.3329   -3.2086 N   0  0  0  0  0  0  0  0  0  5  0  0
   -2.0229   -2.3050   -4.4233 N   0  0  0  0  0  2  0  0  0  6  0  0
   -3.9082   -2.7128   -3.0828 C   0  0  0  0  0  0  0  0  0  7  0  0
   -3.4812    0.7676    0.5653 H   0  0  0  0  0  0  0  0  0  8  0  0
   -3.1809    0.8365   -1.1792 H   0  0  0  0  0  0  0  0  0  9  0  0
   -1.9897    1.4706   -0.0417 H   0  0  0  0  0  0  0  0  0 10  0  0
   -1.6717   -0.9974    0.8197 H   0  0  0  0  0  0  0  0  0 11  0  0
   -1.3990   -2.4648   -1.0638 H   0  0  0  0  0  0  0  0  0 12  0  0
   -1.1779   -1.7364   -4.3793 H   0  0  0  0  0  0  0  0  0 13  0  0
   -4.5563   -1.9305   -3.4853 H   0  0  0  0  0  0  0  0  0 14  0  0
   -4.1357   -2.8800   -2.0315 H   0  0  0  0  0  0  0  0  0 15  0  0
   -4.0457   -3.6333   -3.6440 H   0  0  0  0  0  0  0  0  0 16  0  0
  1 10  1  0
  1  8  1  0
  1  9  1  0
  1  2  1  0
  2 11  1  0
  2  3  1  0
  3  4  1  0
  3 12  1  0
  4  5  1  0
  5  6  1  0
  5  7  1  0
  6 13  1  0
  7 14  1  0
  7 15  1  0
  7 16  1  0
M  RAD  1   6   2
M  END
>  <rmg_smiles>  (5) 
C[CH][CH]ON([NH])C

>  <rmg_adjacency_list>  (5) 
multiplicity 2
1  O u0 p2 c0 {2,S} {7,S}
2  N u0 p1 c0 {1,S} {3,S} {5,S}
3  N u1 p1 c0 {2,S} {16,S}
4  C u0 p0 c0 {6,S} {8,S} {9,S} {10,S}
5  C u0 p0 c0 {2,S} {11,S} {12,S} {13,S}
6  C u0 p0 c0 {4,S} {7,S} {14,S}
7  C u0 p0 c0 {1,S} {6,S} {15,S}
8  H u0 p0 c0 {4,S}
9  H u0 p0 c0 {4,S}
10 H u0 p0 c0 {4,S}
11 H u0 p0 c0 {5,S}
12 H u0 p0 c0 {5,S}
13 H u0 p0 c0 {5,S}
14 H u0 p0 c0 {6,S}
15 H u0 p0 c0 {7,S}
16 H u0 p0 c0 {3,S}


>  <multiplicity>  (5) 
2

>  <reaction>  (5) 
rmg_rxn_10680

>  <type>  (5) 
r2

>  <role_mapnums>  (5) 
{}

>  <role_mapidx>  (5) 
{}

>  <ordered_mapped_smiles>  (5) 
[C:1]([CH:2]([CH:3]([O:4][N:5]([N:6][H:13])[C:7]([H:14])([H:15])[H:16])[H:12])[H:11])([H:8])([H:9])[H:10]

>  <level_of_theory>  (5) 
wb97xd/def2tzvp

>  <lot_method>  (5) 
wb97xd

>  <lot_basis>  (5) 
def2tzvp

>  <spin_multiplicity>  (5) 
2.0

>  <optical_isomers>  (5) 
2.0

>  <modes>  (5) 
IdealGasTranslation(mass=(101.071, 'amu')),         NonlinearRotor(             inertia = ([82.2482, 367.276, 386.349

>  <frequency_value>  (5) 
unknown

>  <frequency_units>  (5) 
unknown

>  <frequency_list>  (5) 
unknown

>  <arkane_path>  (5) 
/home/calvin/Dropbox/PersonalFolders/Calvin/ZEUS_Converged/rmg_rxn_10680/output/Species/rmg_rxn_10680_r2_CC=CONrbr-sbr-NH-sbr-rbrC/arkane/output.py

>  <path_exists>  (5) 
True

>  <E0_value>  (5) 
-898742.9185377804

>  <E0_units>  (5) 
kJ/mol

>  <thermo_class>  (5) 
NASA

>  <Cp0_value>  (5) 
33.257888

>  <Cp0_units>  (5) 
J/(mol*K)

>  <CpInf_value>  (5) 
382.465712

>  <CpInf_units>  (5) 
J/(mol*K)

>  <Tmin_value>  (5) 
10.0

>  <Tmin_units>  (5) 
K

>  <Tmax_value>  (5) 
3000.0

>  <Tmax_units>  (5) 
K

>  <polynomials>  (5) 
[{"name": "polynomial1", "class": "NASAPolynomial", "Tmin_value": 10.0, "Tmin_units": "K", "Tmax_value": 1230.351550791476, "Tmax_units": "K", "coeffs": [3.636448192617725, 0.046012269057782156, -1.0447598723861432e-05, -9.397618320350448e-09, 4.2997715161361366e-12, -108093806.20736969, 13.356245971953898]}, {"name": "polynomial2", "class": "NASAPolynomial", "Tmin_value": 1230.351550791476, "Tmin_units": "K", "Tmax_value": 3000.0, "Tmax_units": "K", "coeffs": [10.637798077256372, 0.03762876756034826, -1.7756617991574368e-05, 4.0613531266158274e-09, -3.6506325325576807e-13, -108096617.32351352, -26.295285854594052]}]

>  <H298_value>  (5) 
-214798.71695714595

>  <H298_units>  (5) 
kcal/mol

>  <S298_value>  (5) 
93.88909266705956

>  <S298_units>  (5) 
cal/(mol*K)

>  <Cp_T_value_list>  (5) 
[32.353584800793946, 39.50241933237663, 45.9535869024618, 51.687318427953755, 61.025931419689, 67.77024327047224, 77.47619958424356, 82.5061792663907, 84.85559276208323]

>  <Cp_T_units>  (5) 
cal/(mol*K)

>  <T_list>  (5) 
[300.0, 400.0, 500.0, 600.0, 800.0, 1000.0, 1500.0, 2000.0, 2400.0]

>  <T_units>  (5) 
K

>  <yaml_path>  (5) 
/home/calvin/Dropbox/PersonalFolders/Calvin/ZEUS_Converged/rmg_rxn_10680/output/Species/rmg_rxn_10680_r2_CC=CONrbr-sbr-NH-sbr-rbrC/rmg_rxn_10680_r2_CC=CONrbr-sbr-NH-sbr-rbrC.yml

>  <frequencies_cm1>  (5) 
[39.766711988119994, 75.63297631448, 123.26238649399998, 170.50724549560002, 210.75464645612, 275.49658405307997, 409.25172411604, 436.20464149704003, 468.50694044231994, 500.21867865008005, 576.8748357772399, 635.10687129084, 759.24136492048, 839.57822617916, 939.32118795216, 961.2680730348799, 1009.44684204, 1040.7534281138799, 1058.9372052412398, 1116.31086758984, 1136.6302771517198, 1158.60463017572, 1269.5201770643598, 1302.9417946168, 1381.1704913822398, 1418.63676328816, 1428.2162078095598, 1447.1828212633998, 1467.8867820031996, 1473.94346305544, 1477.12974424392, 1484.2920099326798, 1743.06061774624, 3013.6108426086, 3018.15678689044, 3068.4780553153996, 3106.953774063359, 3110.6619461361597, 3147.0088994349203, 3149.9479691518795, 3171.6476427630796, 3452.55541124832]

>  <ZPE_kJmol>  (5) 
347.3638170215182

>  <E_elec_kJmol>  (5) 
-899090.2823548019

>  <E0_minus_Eelec_plus_ZPE_kJmol>  (5) 
0.0

>  <rxn>  (5) 
rmg_rxn_10680

>  <species_type>  (5) 
r1

>  <species_folder>  (5) 
rmg_rxn_10680_r2_CC=CONrbr-sbr-NH-sbr-rbrC

>  <frequencies_cm1_list>  (5) 
[39.766711988119994, 75.63297631448, 123.26238649399998, 170.50724549560002, 210.75464645612, 275.49658405307997, 409.25172411604, 436.20464149704003, 468.50694044231994, 500.21867865008005, 576.8748357772399, 635.10687129084, 759.24136492048, 839.57822617916, 939.32118795216, 961.2680730348799, 1009.44684204, 1040.7534281138799, 1058.9372052412398, 1116.31086758984, 1136.6302771517198, 1158.60463017572, 1269.5201770643598, 1302.9417946168, 1381.1704913822398, 1418.63676328816, 1428.2162078095598, 1447.1828212633998, 1467.8867820031996, 1473.94346305544, 1477.12974424392, 1484.2920099326798, 1743.06061774624, 3013.6108426086, 3018.15678689044, 3068.4780553153996, 3106.953774063359, 3110.6619461361597, 3147.0088994349203, 3149.9479691518795, 3171.6476427630796, 3452.55541124832]

>  <E0_kJmol>  (5) 
-898743

>  <H298_kJmol>  (5) 
-898718

$$$$
