
     RDKit          3D

 10  9  0  0  0  0  0  0  0  0999 V2000
    1.2855   -1.2154   -0.6486 C   0  0  0  0  0  0  0  0  0  1  0  0
    0.3069   -0.6050   -0.0984 C   0  0  0  0  0  2  0  0  0  2  0  0
   -0.6090    0.0955    0.5324 C   0  0  0  0  0  0  0  0  0  3  0  0
   -0.9414    1.5212    0.2070 C   0  0  0  0  0  0  0  0  0  4  0  0
    2.2525   -1.0540   -0.1957 H   0  0  0  0  0  0  0  0  0  5  0  0
    1.3119   -1.8392   -1.5297 H   0  0  0  0  0  0  0  0  0  6  0  0
   -1.1689   -0.3863    1.3288 H   0  0  0  0  0  0  0  0  0  7  0  0
   -0.2888    1.9050   -0.5752 H   0  0  0  0  0  0  0  0  0  8  0  0
   -0.8244    2.1523    1.0916 H   0  0  0  0  0  0  0  0  0  9  0  0
   -1.9794    1.6150   -0.1226 H   0  0  0  0  0  0  0  0  0 10  0  0
  1  5  1  0
  1  6  1  0
  1  2  1  0
  2  3  1  0
  3  4  1  0
  3  7  1  0
  4  8  1  0
  4  9  1  0
  4 10  1  0
M  RAD  1   2   3
M  END
>  <rmg_smiles>  (1) 
[CH2][C][CH]C

>  <rmg_adjacency_list>  (1) 
1  C u0 p0 c0 {2,S} {5,S} {6,S} {7,S}
2  C u0 p0 c0 {1,S} {4,S} {8,S}
3  C u0 p0 c0 {4,S} {9,S} {10,S}
4  C u0 p1 c0 {2,S} {3,S}
5  H u0 p0 c0 {1,S}
6  H u0 p0 c0 {1,S}
7  H u0 p0 c0 {1,S}
8  H u0 p0 c0 {2,S}
9  H u0 p0 c0 {3,S}
10 H u0 p0 c0 {3,S}


>  <multiplicity>  (1) 
1

>  <reaction>  (1) 
rmg_rxn_13990

>  <type>  (1) 
r1h

>  <role_mapnums>  (1) 
{"r1h_a": 1, "r1h_h": 5}

>  <role_mapidx>  (1) 
{"r1h_a": 0, "r1h_h": 4}

>  <ordered_mapped_smiles>  (1) 
[CH:1]([C:2][CH:3]([C:4]([H:8])([H:9])[H:10])[H:7])([H:5])[H:6]

>  <mol_properties>  (1) 
{"0": {"label": "donator", "atom_type": "Cs"}, "4": {"label": "d_hydrogen", "atom_type": "H0"}}

>  <level_of_theory>  (1) 
wb97xd/def2tzvp

>  <lot_method>  (1) 
wb97xd

>  <lot_basis>  (1) 
def2tzvp

>  <spin_multiplicity>  (1) 
1.0

>  <optical_isomers>  (1) 
1.0

>  <modes>  (1) 
IdealGasTranslation(mass=(54.047, 'amu')),         NonlinearRotor(             inertia = ([14.6121, 119.467, 127.49

>  <frequency_value>  (1) 
unknown

>  <frequency_units>  (1) 
unknown

>  <frequency_list>  (1) 
unknown

>  <arkane_path>  (1) 
/home/calvin/Dropbox/PersonalFolders/Calvin/ZEUS_Converged/rmg_rxn_13990/output/Species/rmg_rxn_13990_r1_C=C=CC/arkane/output.py

>  <path_exists>  (1) 
True

>  <E0_value>  (1) 
-409296.6502421279

>  <E0_units>  (1) 
kJ/mol

>  <thermo_class>  (1) 
NASA

>  <Cp0_value>  (1) 
33.257888

>  <Cp0_units>  (1) 
J/(mol*K)

>  <CpInf_value>  (1) 
232.805216

>  <CpInf_units>  (1) 
J/(mol*K)

>  <Tmin_value>  (1) 
10.0

>  <Tmin_units>  (1) 
K

>  <Tmax_value>  (1) 
3000.0

>  <Tmax_units>  (1) 
K

>  <polynomials>  (1) 
[{"name": "polynomial1", "class": "NASAPolynomial", "Tmin_value": 10.0, "Tmin_units": "K", "Tmax_value": 452.8802664009696, "Tmax_units": "K", "coeffs": [3.9021943352433452, 0.007937521032632688, 6.664442489196733e-05, -1.2131953588307993e-07, 6.938885885775227e-11, -49227014.555544384, 8.255511443201872]}, {"name": "polynomial2", "class": "NASAPolynomial", "Tmin_value": 452.8802664009696, "Tmin_units": "K", "Tmax_value": 3000.0, "Tmax_units": "K", "coeffs": [0.958037882717614, 0.033941191741253485, -1.948265019694705e-05, 5.463813645242153e-09, -5.979209978345261e-13, -49226747.88374059, 20.12723627389473]}]

>  <H298_value>  (1) 
-97820.47439749332

>  <H298_units>  (1) 
kcal/mol

>  <S298_value>  (1) 
69.30943774444917

>  <S298_units>  (1) 
cal/(mol*K)

>  <Cp_T_value_list>  (1) 
[19.013335795722274, 23.35407848830737, 27.231838984706652, 30.626214617830076, 36.15654523435027, 40.30546036176962, 46.594544625367064, 49.786664420046236, 51.450781523093035]

>  <Cp_T_units>  (1) 
cal/(mol*K)

>  <T_list>  (1) 
[300.0, 400.0, 500.0, 600.0, 800.0, 1000.0, 1500.0, 2000.0, 2400.0]

>  <T_units>  (1) 
K

>  <yaml_path>  (1) 
/home/calvin/Dropbox/PersonalFolders/Calvin/ZEUS_Converged/rmg_rxn_13990/output/Species/rmg_rxn_13990_r1_C=C=CC/rmg_rxn_13990_r1_C=C=CC.yml

>  <frequencies_cm1>  (1) 
[164.84884959192, 210.28769145436, 340.98015606459995, 540.2944049775999, 574.7186023867599, 878.6239047086799, 884.0282221555199, 895.09093550604, 1017.79709618912, 1055.91573170044, 1088.91159616304, 1146.5530709391198, 1353.77808694076, 1399.01778622892, 1463.354571692, 1470.3726306890399, 1494.8053644576, 2061.4346581373993, 3012.63573069316, 3072.0282867258397, 3106.42501619372, 3110.62074422424, 3124.134971334, 3189.66661224276]

>  <ZPE_kJmol>  (1) 
219.25357474583132

>  <E_elec_kJmol>  (1) 
-409515.9038168737

>  <E0_minus_Eelec_plus_ZPE_kJmol>  (1) 
0.0

>  <rxn>  (1) 
rmg_rxn_13990

>  <species_type>  (1) 
r0

>  <species_folder>  (1) 
rmg_rxn_13990_r1_C=C=CC

>  <frequencies_cm1_list>  (1) 
[164.84884959192, 210.28769145436, 340.98015606459995, 540.2944049775999, 574.7186023867599, 878.6239047086799, 884.0282221555199, 895.09093550604, 1017.79709618912, 1055.91573170044, 1088.91159616304, 1146.5530709391198, 1353.77808694076, 1399.01778622892, 1463.354571692, 1470.3726306890399, 1494.8053644576, 2061.4346581373993, 3012.63573069316, 3072.0282867258397, 3106.42501619372, 3110.62074422424, 3124.134971334, 3189.66661224276]

>  <E0_kJmol>  (1) 
-409297

>  <H298_kJmol>  (1) 
-409281

$$$$

     RDKit          3D

 14 14  0  0  0  0  0  0  0  0999 V2000
   -1.1798   -1.5516    0.0812 H   0  0  0  0  0  0  0  0  0  1  0  0
   -0.2566   -1.2810    0.5906 C   0  0  0  0  0  0  0  0  0  2  0  0
    0.7921   -1.0973   -0.4721 C   0  0  0  0  0  0  0  0  0  3  0  0
    0.5211    0.0414   -1.2633 O   0  0  0  0  0  0  0  0  0  4  0  0
    0.3278    1.1741   -0.4719 C   0  0  0  0  0  0  0  0  0  5  0  0
   -0.7734    1.0616    0.3753 O   0  0  0  0  0  0  0  0  0  6  0  0
   -0.6180   -0.0015    1.2944 C   0  0  0  0  0  0  0  0  0  7  0  0
   -0.0805   -2.1237    1.2569 H   0  0  0  0  0  0  0  0  0  8  0  0
    1.7867   -0.9900   -0.0043 H   0  0  0  0  0  0  0  0  0  9  0  0
    0.8361   -1.9507   -1.1491 H   0  0  0  0  0  0  0  0  0 10  0  0
    0.1341    2.0072   -1.1435 H   0  0  0  0  0  0  0  0  0 11  0  0
    1.2380    1.3653    0.1261 H   0  0  0  0  0  0  0  0  0 12  0  0
   -1.5665   -0.0968    1.8249 H   0  0  0  0  0  0  0  0  0 13  0  0
    0.1600    0.2605    2.0323 H   0  0  0  0  0  0  0  0  0 14  0  0
  1  2  1  0
  2  8  1  0
  2  7  1  0
  2  3  1  0
  3  4  1  0
  3  9  1  0
  3 10  1  0
  4  5  1  0
  5 11  1  0
  5 12  1  0
  5  6  1  0
  6  7  1  0
  7 13  1  0
  7 14  1  0
M  END
>  <rmg_smiles>  (2) 
C1COCOC1

>  <rmg_adjacency_list>  (2) 
1  O u0 p2 c0 {4,S} {6,S}
2  O u0 p2 c0 {5,S} {6,S}
3  C u0 p0 c0 {4,S} {5,S} {7,S} {8,S}
4  C u0 p0 c0 {1,S} {3,S} {9,S} {10,S}
5  C u0 p0 c0 {2,S} {3,S} {11,S} {12,S}
6  C u0 p0 c0 {1,S} {2,S} {13,S} {14,S}
7  H u0 p0 c0 {3,S}
8  H u0 p0 c0 {3,S}
9  H u0 p0 c0 {4,S}
10 H u0 p0 c0 {4,S}
11 H u0 p0 c0 {5,S}
12 H u0 p0 c0 {5,S}
13 H u0 p0 c0 {6,S}
14 H u0 p0 c0 {6,S}


>  <multiplicity>  (2) 
1

>  <reaction>  (2) 
rmg_rxn_13990

>  <type>  (2) 
r2h

>  <role_mapnums>  (2) 
{"r2h_a": 2, "r2h_h": 1}

>  <role_mapidx>  (2) 
{"r2h_a": 1, "r2h_h": 0}

>  <ordered_mapped_smiles>  (2) 
[H:1][C:2]1([H:8])[C:3]([H:9])([H:10])[O:4][C:5]([H:11])([H:12])[O:6][C:7]1([H:13])[H:14]

>  <mol_properties>  (2) 
{"0": {"label": "a_hydrogen", "atom_type": "H0"}, "1": {"label": "acceptor", "atom_type": "Cs"}}

>  <level_of_theory>  (2) 
wb97xd/def2tzvp

>  <lot_method>  (2) 
wb97xd

>  <lot_basis>  (2) 
def2tzvp

>  <spin_multiplicity>  (2) 
1.0

>  <optical_isomers>  (2) 
1.0

>  <modes>  (2) 
IdealGasTranslation(mass=(88.0524, 'amu')),         NonlinearRotor(             inertia = ([100.123, 103.988, 181.806

>  <frequency_value>  (2) 
unknown

>  <frequency_units>  (2) 
unknown

>  <frequency_list>  (2) 
unknown

>  <arkane_path>  (2) 
/home/calvin/Dropbox/PersonalFolders/Calvin/ZEUS_Converged/rmg_rxn_13990/output/Species/rmg_rxn_13990_p2_C1COCOC1/arkane/output.py

>  <path_exists>  (2) 
True

>  <E0_value>  (2) 
-807534.4862541101

>  <E0_units>  (2) 
kJ/mol

>  <thermo_class>  (2) 
NASA

>  <Cp0_value>  (2) 
33.257888

>  <Cp0_units>  (2) 
J/(mol*K)

>  <CpInf_value>  (2) 
332.57888

>  <CpInf_units>  (2) 
J/(mol*K)

>  <Tmin_value>  (2) 
10.0

>  <Tmin_units>  (2) 
K

>  <Tmax_value>  (2) 
3000.0

>  <Tmax_units>  (2) 
K

>  <polynomials>  (2) 
[{"name": "polynomial1", "class": "NASAPolynomial", "Tmin_value": 10.0, "Tmin_units": "K", "Tmax_value": 635.6133108204667, "Tmax_units": "K", "coeffs": [4.089859846547851, -0.00720853879564987, 0.00016188921931772023, -2.401519893438705e-07, 1.1441025782213875e-10, -97123964.81371374, 9.940068375164508]}, {"name": "polynomial2", "class": "NASAPolynomial", "Tmin_value": 635.6133108204667, "Tmin_units": "K", "Tmax_value": 3000.0, "Tmax_units": "K", "coeffs": [-3.623423511686486, 0.05886764268076858, -3.542799994133682e-05, 1.020943336284747e-08, -1.1338722579771073e-12, -97123338.50049376, 40.87037082096811]}]

>  <H298_value>  (2) 
-193001.58453999052

>  <H298_units>  (2) 
kcal/mol

>  <S298_value>  (2) 
72.30963326519608

>  <S298_units>  (2) 
cal/(mol*K)

>  <Cp_T_value_list>  (2) 
[21.739934439433213, 29.14813570588532, 35.94764696452701, 41.730532176406555, 50.79213666149929, 57.41393370116716, 66.9323937138755, 71.40703214797205, 73.744608953261]

>  <Cp_T_units>  (2) 
cal/(mol*K)

>  <T_list>  (2) 
[300.0, 400.0, 500.0, 600.0, 800.0, 1000.0, 1500.0, 2000.0, 2400.0]

>  <T_units>  (2) 
K

>  <yaml_path>  (2) 
/home/calvin/Dropbox/PersonalFolders/Calvin/ZEUS_Converged/rmg_rxn_13990/output/Species/rmg_rxn_13990_p2_C1COCOC1/rmg_rxn_13990_p2_C1COCOC1.yml

>  <frequencies_cm1>  (2) 
[264.26219606955993, 269.44676998615995, 439.22611503784, 466.70779028847994, 494.62208561427997, 656.81341188736, 851.50617968, 900.41284912904, 919.12538412604, 926.80954069912, 1013.8966485273598, 1037.6289497932798, 1094.57685905204, 1112.95291176836, 1188.75069573052, 1216.28730686372, 1226.8487302858798, 1252.366447735, 1315.55644664964, 1328.3633742714399, 1363.72148168412, 1380.93701388136, 1404.8272558096398, 1432.53554157584, 1460.95799381532, 1489.42164796672, 1490.0946125280798, 1506.58911126672, 2894.63345495428, 2944.5289702893997, 2950.530715459079, 3031.06671929204, 3080.8454958767197, 3088.2893079635996, 3091.87387430064, 3110.9160245929997]

>  <ZPE_kJmol>  (2) 
321.1850391352071

>  <E_elec_kJmol>  (2) 
-807855.6712932453

>  <E0_minus_Eelec_plus_ZPE_kJmol>  (2) 
0.0

>  <rxn>  (2) 
rmg_rxn_13990

>  <species_type>  (2) 
p1

>  <species_folder>  (2) 
rmg_rxn_13990_p2_C1COCOC1

>  <frequencies_cm1_list>  (2) 
[264.26219606955993, 269.44676998615995, 439.22611503784, 466.70779028847994, 494.62208561427997, 656.81341188736, 851.50617968, 900.41284912904, 919.12538412604, 926.80954069912, 1013.8966485273598, 1037.6289497932798, 1094.57685905204, 1112.95291176836, 1188.75069573052, 1216.28730686372, 1226.8487302858798, 1252.366447735, 1315.55644664964, 1328.3633742714399, 1363.72148168412, 1380.93701388136, 1404.8272558096398, 1432.53554157584, 1460.95799381532, 1489.42164796672, 1490.0946125280798, 1506.58911126672, 2894.63345495428, 2944.5289702893997, 2950.530715459079, 3031.06671929204, 3080.8454958767197, 3088.2893079635996, 3091.87387430064, 3110.9160245929997]

>  <E0_kJmol>  (2) 
-807534

>  <H298_kJmol>  (2) 
-807519

$$$$

     RDKit          3D

 23 22  0  0  0  0  0  0  0  0999 V2000
   -1.0182   -1.5906   -0.7173 C   0  0  0  0  0  0  0  0  0  1  0  0
   -1.9968   -0.9802   -0.1671 C   0  0  0  0  0  0  0  0  0  2  0  0
   -2.9127   -0.2798    0.4637 C   0  0  0  0  0  0  0  0  0  3  0  0
   -3.2452    1.1459    0.1383 C   0  0  0  0  0  0  0  0  0  4  0  0
    0.1446   -1.3966   -0.1728 H   0  0  0  0  0  0  0  0  0  5  0  0
   -0.9919   -2.2144   -1.5985 H   0  0  0  0  0  0  0  0  0  6  0  0
   -3.4726   -0.7616    1.2600 H   0  0  0  0  0  0  0  0  0  7  0  0
   -2.5925    1.5297   -0.6440 H   0  0  0  0  0  0  0  0  0  8  0  0
   -3.1282    1.7771    1.0229 H   0  0  0  0  0  0  0  0  0  9  0  0
   -4.2831    1.2397   -0.1914 H   0  0  0  0  0  0  0  0  0 10  0  0
    1.3116   -1.0545    0.4713 C   0  0  0  0  0  3  0  0  0 11  0  0
    2.3604   -0.8708   -0.5914 C   0  0  0  0  0  0  0  0  0 12  0  0
    2.0894    0.2679   -1.3827 O   0  0  0  0  0  0  0  0  0 13  0  0
    1.8961    1.4005   -0.5912 C   0  0  0  0  0  0  0  0  0 14  0  0
    0.7948    1.2881    0.2559 O   0  0  0  0  0  0  0  0  0 15  0  0
    0.9502    0.2250    1.1750 C   0  0  0  0  0  0  0  0  0 16  0  0
    1.4878   -1.8972    1.1375 H   0  0  0  0  0  0  0  0  0 17  0  0
    3.3550   -0.7635   -0.1236 H   0  0  0  0  0  0  0  0  0 18  0  0
    2.4043   -1.7242   -1.2684 H   0  0  0  0  0  0  0  0  0 19  0  0
    1.7024    2.2337   -1.2629 H   0  0  0  0  0  0  0  0  0 20  0  0
    2.8063    1.5918    0.0068 H   0  0  0  0  0  0  0  0  0 21  0  0
    0.0018    0.1297    1.7056 H   0  0  0  0  0  0  0  0  0 22  0  0
    1.7282    0.4870    1.9129 H   0  0  0  0  0  0  0  0  0 23  0  0
  1  5  1  0
  1  6  1  0
  1  2  1  0
  2  3  1  0
  3  4  1  0
  3  7  1  0
  4 10  1  0
  4  9  1  0
  4  8  1  0
 11 16  1  0
 11 17  1  0
 11 12  1  0
 12 19  1  0
 12 13  1  0
 12 18  1  0
 13 14  1  0
 14 20  1  0
 14 21  1  0
 14 15  1  0
 15 16  1  0
 16 22  1  0
 16 23  1  0
M  RAD  1  11   2
M  END
>  <rmg_smiles>  (3) 
[CH2]C[CH]C.[CH]1COCOC1

>  <rmg_adjacency_list>  (3) 
multiplicity 2
1  O u0 p2 c0 {3,S} {5,S}
2  O u0 p2 c0 {4,S} {5,S}
3  C u0 p0 c0 {1,S} {7,S} {11,S} {12,S}
4  C u0 p0 c0 {2,S} {7,S} {13,S} {14,S}
5  C u0 p0 c0 {1,S} {2,S} {18,S} {19,S}
6  C u0 p0 c0 {8,S} {15,S} {16,S} {17,S}
7  C u1 p0 c0 {3,S} {4,S} {20,S}
8  C u0 p0 c0 {6,S} {10,S} {21,S}
9  C u0 p0 c0 {10,S} {22,S} {23,S}
10 C u0 p1 c0 {8,S} {9,S}
11 H u0 p0 c0 {3,S}
12 H u0 p0 c0 {3,S}
13 H u0 p0 c0 {4,S}
14 H u0 p0 c0 {4,S}
15 H u0 p0 c0 {6,S}
16 H u0 p0 c0 {6,S}
17 H u0 p0 c0 {6,S}
18 H u0 p0 c0 {5,S}
19 H u0 p0 c0 {5,S}
20 H u0 p0 c0 {7,S}
21 H u0 p0 c0 {8,S}
22 H u0 p0 c0 {9,S}
23 H u0 p0 c0 {9,S}


>  <multiplicity>  (3) 
2

>  <reaction>  (3) 
rmg_rxn_13990

>  <type>  (3) 
ts

>  <role_mapnums>  (3) 
{"*2": 5, "*1": 1, "*3": 11, "*0": 2, "*4": 12}

>  <role_mapidx>  (3) 
{"*2": 4, "*1": 0, "*3": 10, "*0": 1, "*4": 11}

>  <ordered_mapped_smiles>  (3) 
[CH:1]([CH2:2][CH:3]([C:4]([H:8])([H:9])[H:10])[H:7])([H:5])[H:6].[C:11]1([H:17])[C:12]([H:18])([H:19])[O:13][C:14]([H:20])([H:21])[O:15][C:16]1([H:22])[H:23]

>  <mol_properties>  (3) 
{"0": {"label": "*1", "atom_type": "Cs"}, "1": {"label": "*0", "atom_type": "C2s"}, "4": {"label": "*2", "atom_type": "H0"}, "10": {"label": "*3", "atom_type": "Cs"}, "11": {"label": "*4", "atom_type": "Cs"}}

>  <level_of_theory>  (3) 
wb97xd/def2tzvp

>  <lot_method>  (3) 
wb97xd

>  <lot_basis>  (3) 
def2tzvp

>  <spin_multiplicity>  (3) 
2.0

>  <optical_isomers>  (3) 
2.0

>  <modes>  (3) 
IdealGasTranslation(mass=(141.092, 'amu')),         NonlinearRotor(             inertia = ([238.109, 672.852, 762.433

>  <frequency_value>  (3) 
-1718.42

>  <frequency_units>  (3) 
cm^-1

>  <frequency_list>  (3) 
unknown

>  <arkane_path>  (3) 
/home/calvin/Dropbox/PersonalFolders/Calvin/ZEUS_Converged/rmg_rxn_13990/output/rxns/TS0/arkane/output.py

>  <path_exists>  (3) 
True

>  <E0_value>  (3) 
-1215060.0

>  <E0_units>  (3) 
kJ/mol

>  <thermo_class>  (3) 
unknown

>  <Cp0_value>  (3) 
unknown

>  <Cp0_units>  (3) 
unknown

>  <CpInf_value>  (3) 
unknown

>  <CpInf_units>  (3) 
unknown

>  <Tmin_value>  (3) 
unknown

>  <Tmin_units>  (3) 
unknown

>  <Tmax_value>  (3) 
unknown

>  <Tmax_units>  (3) 
unknown

>  <polynomials>  (3) 
unknown

>  <H298_value>  (3) 
unknown

>  <H298_units>  (3) 
unknown

>  <S298_value>  (3) 
unknown

>  <S298_units>  (3) 
unknown

>  <Cp_T_value_list>  (3) 
unknown

>  <Cp_T_units>  (3) 
unknown

>  <T_list>  (3) 
unknown

>  <T_units>  (3) 
unknown

>  <yaml_path>  (3) 
unknown

>  <frequencies_cm1>  (3) 
unknown

>  <ZPE_kJmol>  (3) 
unknown

>  <E_elec_kJmol>  (3) 
unknown

>  <E0_minus_Eelec_plus_ZPE_kJmol>  (3) 
unknown

>  <rxn>  (3) 
unknown

>  <species_type>  (3) 
unknown

>  <species_folder>  (3) 
unknown

>  <frequencies_cm1_list>  (3) 
[]

>  <ts_imag_freq_cm1>  (3) 
-1739.2932

>  <ts_freq_out_path>  (3) 
/home/calvin/Dropbox/PersonalFolders/Calvin/ZEUS_Converged/rmg_rxn_13990/output/rxns/TS0/geometry/freq.out

>  <E0_kJmol>  (3) 
-1.21506e+06

>  <H298_kJmol>  (3) 
unknown

$$$$

     RDKit          3D

  9  8  0  0  0  0  0  0  0  0999 V2000
    2.3032   -0.0159    0.1474 C   0  0  0  0  0  0  0  0  0  1  0  0
    1.1288    0.2882    0.0537 C   0  0  0  0  0  0  0  0  0  2  0  0
   -0.1975    0.6198   -0.0514 C   0  0  0  0  0  3  0  0  0  3  0  0
   -1.2977   -0.3866   -0.0637 C   0  0  0  0  0  0  0  0  0  4  0  0
    3.3305   -0.2768    0.2290 H   0  0  0  0  0  0  0  0  0  5  0  0
   -0.4545    1.6699   -0.1294 H   0  0  0  0  0  0  0  0  0  6  0  0
   -1.9941   -0.2122    0.7624 H   0  0  0  0  0  0  0  0  0  7  0  0
   -0.9106   -1.4008    0.0205 H   0  0  0  0  0  0  0  0  0  8  0  0
   -1.8810   -0.3144   -0.9870 H   0  0  0  0  0  0  0  0  0  9  0  0
  1  5  1  0
  1  2  1  0
  2  3  1  0
  3  4  1  0
  3  6  1  0
  4  8  1  0
  4  9  1  0
  4  7  1  0
M  RAD  1   3   2
M  END
>  <rmg_smiles>  (4) 
[CH]C[CH]C

>  <rmg_adjacency_list>  (4) 
multiplicity 2
1 C u0 p0 c0 {2,S} {5,S} {6,S} {7,S}
2 C u1 p0 c0 {1,S} {3,S} {8,S}
3 C u0 p1 c0 {2,S} {4,S}
4 C u0 p1 c0 {3,S} {9,S}
5 H u0 p0 c0 {1,S}
6 H u0 p0 c0 {1,S}
7 H u0 p0 c0 {1,S}
8 H u0 p0 c0 {2,S}
9 H u0 p0 c0 {4,S}


>  <multiplicity>  (4) 
2

>  <reaction>  (4) 
rmg_rxn_13990

>  <type>  (4) 
r1

>  <role_mapnums>  (4) 
{}

>  <role_mapidx>  (4) 
{}

>  <ordered_mapped_smiles>  (4) 
[CH2:1]([CH2:2][C:3]([C:4]([H:7])([H:8])[H:9])[H:6])[H:5]

>  <level_of_theory>  (4) 
wb97xd/def2tzvp

>  <lot_method>  (4) 
wb97xd

>  <lot_basis>  (4) 
def2tzvp

>  <spin_multiplicity>  (4) 
2.0

>  <optical_isomers>  (4) 
1.0

>  <modes>  (4) 
IdealGasTranslation(mass=(53.0391, 'amu')),         NonlinearRotor(             inertia = ([13.0163, 113.224, 123.133

>  <frequency_value>  (4) 
unknown

>  <frequency_units>  (4) 
unknown

>  <frequency_list>  (4) 
unknown

>  <arkane_path>  (4) 
/home/calvin/Dropbox/PersonalFolders/Calvin/ZEUS_Converged/rmg_rxn_13990/output/Species/rmg_rxn_13990_p1_CtCsbr-CH-sbrC/arkane/output.py

>  <path_exists>  (4) 
True

>  <E0_value>  (4) 
-407611.0178676695

>  <E0_units>  (4) 
kJ/mol

>  <thermo_class>  (4) 
NASA

>  <Cp0_value>  (4) 
33.257888

>  <Cp0_units>  (4) 
J/(mol*K)

>  <CpInf_value>  (4) 
207.8618

>  <CpInf_units>  (4) 
J/(mol*K)

>  <Tmin_value>  (4) 
10.0

>  <Tmin_units>  (4) 
K

>  <Tmax_value>  (4) 
3000.0

>  <Tmax_units>  (4) 
K

>  <polynomials>  (4) 
[{"name": "polynomial1", "class": "NASAPolynomial", "Tmin_value": 10.0, "Tmin_units": "K", "Tmax_value": 225.11887521318957, "Tmax_units": "K", "coeffs": [3.926630915296947, 0.006749895207816258, 0.00012836532533525932, -4.255246557274593e-07, 4.774973939090027e-10, -49024283.36301313, 9.039132667777825]}, {"name": "polynomial2", "class": "NASAPolynomial", "Tmin_value": 225.11887521318957, "Tmin_units": "K", "Tmax_value": 3000.0, "Tmax_units": "K", "coeffs": [2.6986748332678068, 0.028568074177661083, -1.700823692128483e-05, 4.972064259878094e-09, -5.660420030452739e-13, -49024228.07421419, 13.132307964760544]}]

>  <H298_value>  (4) 
-97417.4250763192

>  <H298_units>  (4) 
kcal/mol

>  <S298_value>  (4) 
72.15097842486317

>  <S298_units>  (4) 
cal/(mol*K)

>  <Cp_T_value_list>  (4) 
[19.60978665647869, 23.26682584091865, 26.463197946296326, 29.246037785772845, 33.74616181148779, 37.09028399063582, 42.12357583735745, 44.755303495765276, 46.19958894045869]

>  <Cp_T_units>  (4) 
cal/(mol*K)

>  <T_list>  (4) 
[300.0, 400.0, 500.0, 600.0, 800.0, 1000.0, 1500.0, 2000.0, 2400.0]

>  <T_units>  (4) 
K

>  <yaml_path>  (4) 
/home/calvin/Dropbox/PersonalFolders/Calvin/ZEUS_Converged/rmg_rxn_13990/output/Species/rmg_rxn_13990_p1_CtCsbr-CH-sbrC/rmg_rxn_13990_p1_CtCsbr-CH-sbrC.yml

>  <frequencies_cm1>  (4) 
[83.48880752056, 211.55808373855996, 392.1460636839199, 478.7318815838, 554.46786267808, 595.8689171723599, 660.0408949877599, 865.1234115695598, 998.98842339764, 1092.3794237496397, 1143.5041294570399, 1380.42198998236, 1394.47184194708, 1461.2464071987597, 1480.32289241772, 2005.2901861610799, 2994.3489487859997, 3043.5921005157197, 3109.5494945143196, 3150.5453968747197, 3427.4428459330793]

>  <ZPE_kJmol>  (4) 
182.57130571804632

>  <E_elec_kJmol>  (4) 
-407793.5891733875

>  <E0_minus_Eelec_plus_ZPE_kJmol>  (4) 
0.0

>  <rxn>  (4) 
rmg_rxn_13990

>  <species_type>  (4) 
p0

>  <species_folder>  (4) 
rmg_rxn_13990_p1_CtCsbr-CH-sbrC

>  <frequencies_cm1_list>  (4) 
[83.48880752056, 211.55808373855996, 392.1460636839199, 478.7318815838, 554.46786267808, 595.8689171723599, 660.0408949877599, 865.1234115695598, 998.98842339764, 1092.3794237496397, 1143.5041294570399, 1380.42198998236, 1394.47184194708, 1461.2464071987597, 1480.32289241772, 2005.2901861610799, 2994.3489487859997, 3043.5921005157197, 3109.5494945143196, 3150.5453968747197, 3427.4428459330793]

>  <E0_kJmol>  (4) 
-407611

>  <H298_kJmol>  (4) 
-407595

$$$$

     RDKit          3D

 13 13  0  0  0  0  0  0  0  0999 V2000
   -1.1371    0.3608    0.3110 C   0  0  0  0  0  3  0  0  0  1  0  0
   -0.0045    1.3224    0.2943 C   0  0  0  0  0  0  0  0  0  2  0  0
    1.2245    0.6965    0.6137 O   0  0  0  0  0  0  0  0  0  3  0  0
    1.3926   -0.4921   -0.0955 C   0  0  0  0  0  0  0  0  0  4  0  0
    0.4387   -1.4537    0.2351 O   0  0  0  0  0  0  0  0  0  5  0  0
   -0.8659   -1.0349   -0.1206 C   0  0  0  0  0  0  0  0  0  6  0  0
   -2.1544    0.7285    0.3341 H   0  0  0  0  0  0  0  0  0  7  0  0
   -0.1488    2.1272    1.0165 H   0  0  0  0  0  0  0  0  0  8  0  0
    0.0825    1.7949   -0.7036 H   0  0  0  0  0  0  0  0  0  9  0  0
    1.3549   -0.2872   -1.1815 H   0  0  0  0  0  0  0  0  0 10  0  0
    2.3646   -0.8956    0.1787 H   0  0  0  0  0  0  0  0  0 11  0  0
   -1.5620   -1.7401    0.3358 H   0  0  0  0  0  0  0  0  0 12  0  0
   -0.9852   -1.1268   -1.2179 H   0  0  0  0  0  0  0  0  0 13  0  0
  1  7  1  0
  1  6  1  0
  1  2  1  0
  2  9  1  0
  2  8  1  0
  2  3  1  0
  3  4  1  0
  4 10  1  0
  4 11  1  0
  4  5  1  0
  5  6  1  0
  6 13  1  0
  6 12  1  0
M  RAD  1   1   2
M  END
>  <rmg_smiles>  (5) 
[CH]1COCOC1

>  <rmg_adjacency_list>  (5) 
multiplicity 2
1  O u0 p2 c0 {3,S} {5,S}
2  O u0 p2 c0 {4,S} {5,S}
3  C u0 p0 c0 {1,S} {6,S} {7,S} {8,S}
4  C u0 p0 c0 {2,S} {6,S} {9,S} {10,S}
5  C u0 p0 c0 {1,S} {2,S} {11,S} {12,S}
6  C u1 p0 c0 {3,S} {4,S} {13,S}
7  H u0 p0 c0 {3,S}
8  H u0 p0 c0 {3,S}
9  H u0 p0 c0 {4,S}
10 H u0 p0 c0 {4,S}
11 H u0 p0 c0 {5,S}
12 H u0 p0 c0 {5,S}
13 H u0 p0 c0 {6,S}


>  <multiplicity>  (5) 
2

>  <reaction>  (5) 
rmg_rxn_13990

>  <type>  (5) 
r2

>  <role_mapnums>  (5) 
{}

>  <role_mapidx>  (5) 
{}

>  <ordered_mapped_smiles>  (5) 
[C:1]1([H:7])[C:2]([H:8])([H:9])[O:3][C:4]([H:10])([H:11])[O:5][C:6]1([H:12])[H:13]

>  <level_of_theory>  (5) 
wb97xd/def2tzvp

>  <lot_method>  (5) 
wb97xd

>  <lot_basis>  (5) 
def2tzvp

>  <spin_multiplicity>  (5) 
2.0

>  <optical_isomers>  (5) 
1.0

>  <modes>  (5) 
IdealGasTranslation(mass=(87.0446, 'amu')),         NonlinearRotor(             inertia = ([94.1512, 104.116, 181.381

>  <frequency_value>  (5) 
unknown

>  <frequency_units>  (5) 
unknown

>  <frequency_list>  (5) 
unknown

>  <arkane_path>  (5) 
/home/calvin/Dropbox/PersonalFolders/Calvin/ZEUS_Converged/rmg_rxn_13990/output/Species/rmg_rxn_13990_r2_sbr-CH-sbr1COCOC1/arkane/output.py

>  <path_exists>  (5) 
True

>  <E0_value>  (5) 
-805805.5046036665

>  <E0_units>  (5) 
kJ/mol

>  <thermo_class>  (5) 
NASA

>  <Cp0_value>  (5) 
33.257888

>  <Cp0_units>  (5) 
J/(mol*K)

>  <CpInf_value>  (5) 
307.635464

>  <CpInf_units>  (5) 
J/(mol*K)

>  <Tmin_value>  (5) 
10.0

>  <Tmin_units>  (5) 
K

>  <Tmax_value>  (5) 
3000.0

>  <Tmax_units>  (5) 
K

>  <polynomials>  (5) 
[{"name": "polynomial1", "class": "NASAPolynomial", "Tmin_value": 10.0, "Tmin_units": "K", "Tmax_value": 532.5926345059144, "Tmax_units": "K", "coeffs": [3.9895711295808565, 0.00012535715645340125, 0.00014225625034104, -2.3937485815869983e-07, 1.2960891091762458e-10, -96916014.70387508, 10.805978614123847]}, {"name": "polynomial2", "class": "NASAPolynomial", "Tmin_value": 532.5926345059144, "Tmin_units": "K", "Tmax_value": 3000.0, "Tmax_units": "K", "coeffs": [-2.1098678860324562, 0.05423140386013053, -3.3495373401903903e-05, 9.86924139770801e-09, -1.1163000521996037e-12, -96915482.66965945, 35.284927549352]}]

>  <H298_value>  (5) 
-192588.08392280544

>  <H298_units>  (5) 
kcal/mol

>  <S298_value>  (5) 
75.57885402958051

>  <S298_units>  (5) 
cal/(mol*K)

>  <Cp_T_value_list>  (5) 
[22.687840868581763, 29.408095189973025, 35.36236344272194, 40.455000802812464, 48.555465881876614, 54.407933295609055, 62.65675700515869, 66.50102411777198, 68.57529108996806]

>  <Cp_T_units>  (5) 
cal/(mol*K)

>  <T_list>  (5) 
[300.0, 400.0, 500.0, 600.0, 800.0, 1000.0, 1500.0, 2000.0, 2400.0]

>  <T_units>  (5) 
K

>  <yaml_path>  (5) 
/home/calvin/Dropbox/PersonalFolders/Calvin/ZEUS_Converged/rmg_rxn_13990/output/Species/rmg_rxn_13990_r2_sbr-CH-sbr1COCOC1/rmg_rxn_13990_r2_sbr-CH-sbr1COCOC1.yml

>  <frequencies_cm1>  (5) 
[160.7904612678, 218.47313795579996, 380.63699628759997, 397.61905098395994, 478.6700787159199, 564.4249913920801, 779.7187151447199, 882.67542604748, 889.45314055832, 925.19579914892, 971.94623520748, 1029.1550899084, 1052.7912533798399, 1117.945210096, 1165.49221645168, 1207.6761072724398, 1217.9628512817999, 1281.02237747536, 1319.57363306184, 1356.37380739172, 1370.56099906284, 1398.8323776252798, 1427.65311501332, 1465.7648835393202, 1466.5751878070798, 1501.09552301072, 2858.88392937836, 2864.07537028028, 2892.532157446359, 3063.8291062537596, 3064.5570066976798, 3113.5117450439598, 3176.61934013476]

>  <ZPE_kJmol>  (5) 
281.49387475166685

>  <E_elec_kJmol>  (5) 
-806086.9984784181

>  <E0_minus_Eelec_plus_ZPE_kJmol>  (5) 
0.0

>  <rxn>  (5) 
rmg_rxn_13990

>  <species_type>  (5) 
r1

>  <species_folder>  (5) 
rmg_rxn_13990_r2_sbr-CH-sbr1COCOC1

>  <frequencies_cm1_list>  (5) 
[160.7904612678, 218.47313795579996, 380.63699628759997, 397.61905098395994, 478.6700787159199, 564.4249913920801, 779.7187151447199, 882.67542604748, 889.45314055832, 925.19579914892, 971.94623520748, 1029.1550899084, 1052.7912533798399, 1117.945210096, 1165.49221645168, 1207.6761072724398, 1217.9628512817999, 1281.02237747536, 1319.57363306184, 1356.37380739172, 1370.56099906284, 1398.8323776252798, 1427.65311501332, 1465.7648835393202, 1466.5751878070798, 1501.09552301072, 2858.88392937836, 2864.07537028028, 2892.532157446359, 3063.8291062537596, 3064.5570066976798, 3113.5117450439598, 3176.61934013476]

>  <E0_kJmol>  (5) 
-805806

>  <H298_kJmol>  (5) 
-805789

$$$$
