
     RDKit          3D

  3  2  0  0  0  0  0  0  0  0999 V2000
    0.0257   -0.0490   -0.0213 S   0  0  0  0  0  0  0  0  0  1  0  0
    0.3906    1.1897    0.3366 H   0  0  0  0  0  0  0  0  0  2  0  0
   -1.2467    0.2216    0.2983 H   0  0  0  0  0  0  0  0  0  3  0  0
  1  2  1  0
  1  3  1  0
M  END
>  <rmg_smiles>  (1) 
S

>  <rmg_adjacency_list>  (1) 
1 S u0 p2 c0 {2,S} {3,S}
2 H u0 p0 c0 {1,S}
3 H u0 p0 c0 {1,S}


>  <multiplicity>  (1) 
1

>  <reaction>  (1) 
rmg_rxn_15605

>  <type>  (1) 
r1h

>  <role_mapnums>  (1) 
{"r1h_a": 1, "r1h_h": 2}

>  <role_mapidx>  (1) 
{"r1h_a": 0, "r1h_h": 1}

>  <ordered_mapped_smiles>  (1) 
[S:1]([H:2])[H:3]

>  <mol_properties>  (1) 
{"0": {"label": "donator", "atom_type": "S2s"}, "1": {"label": "d_hydrogen", "atom_type": "H0"}}

>  <level_of_theory>  (1) 
wb97xd/def2tzvp

>  <lot_method>  (1) 
wb97xd

>  <lot_basis>  (1) 
def2tzvp

>  <spin_multiplicity>  (1) 
1.0

>  <optical_isomers>  (1) 
1.0

>  <modes>  (1) 
IdealGasTranslation(mass=(33.9877, 'amu')),         NonlinearRotor(             inertia = ([1.61731, 1.89259, 3.50989

>  <frequency_value>  (1) 
unknown

>  <frequency_units>  (1) 
unknown

>  <frequency_list>  (1) 
unknown

>  <arkane_path>  (1) 
/home/calvin/Dropbox/PersonalFolders/Calvin/ZEUS_Converged/rmg_rxn_15605/output/Species/rmg_rxn_15605_r1_S/arkane/output.py

>  <path_exists>  (1) 
True

>  <E0_value>  (1) 
-1048594.6738581122

>  <E0_units>  (1) 
kJ/mol

>  <thermo_class>  (1) 
NASA

>  <Cp0_value>  (1) 
33.257888

>  <Cp0_units>  (1) 
J/(mol*K)

>  <CpInf_value>  (1) 
58.201304

>  <CpInf_units>  (1) 
J/(mol*K)

>  <Tmin_value>  (1) 
10.0

>  <Tmin_units>  (1) 
K

>  <Tmax_value>  (1) 
3000.0

>  <Tmax_units>  (1) 
K

>  <polynomials>  (1) 
[{"name": "polynomial1", "class": "NASAPolynomial", "Tmin_value": 10.0, "Tmin_units": "K", "Tmax_value": 722.9288268017812, "Tmax_units": "K", "coeffs": [4.009660938491563, -0.0005196234272596184, 2.881379838154061e-06, 4.728812963227016e-10, -1.5218500163024275e-12, -126116809.07141139, 1.89846189048489]}, {"name": "polynomial2", "class": "NASAPolynomial", "Tmin_value": 722.9288268017812, "Tmin_units": "K", "Tmax_value": 3000.0, "Tmax_units": "K", "coeffs": [2.902900171500713, 0.0034944328596204803, -1.0699468360948505e-06, 7.995727514571011e-11, 9.995626241801107e-15, -126116593.92023307, 7.260151892618135]}]

>  <H298_value>  (1) 
-250617.7633042529

>  <H298_units>  (1) 
kcal/mol

>  <S298_value>  (1) 
49.11606881488968

>  <S298_units>  (1) 
cal/(mol*K)

>  <Cp_T_value_list>  (1) 
[8.174451255176049, 8.453849465921135, 8.81164865168788, 9.220825402538221, 10.052706997365094, 10.765371470276838, 12.037757227652213, 12.741107161484456, 13.04323955805687]

>  <Cp_T_units>  (1) 
cal/(mol*K)

>  <T_list>  (1) 
[300.0, 400.0, 500.0, 600.0, 800.0, 1000.0, 1500.0, 2000.0, 2400.0]

>  <T_units>  (1) 
K

>  <yaml_path>  (1) 
/home/calvin/Dropbox/PersonalFolders/Calvin/ZEUS_Converged/rmg_rxn_15605/output/Species/rmg_rxn_15605_r1_S/rmg_rxn_15605_r1_S.yml

>  <frequencies_cm1>  (1) 
[1207.6967082284, 2718.3442078192397, 2731.4189478685203]

>  <ZPE_kJmol>  (1) 
39.82046440783764

>  <E_elec_kJmol>  (1) 
-1048634.49432252

>  <E0_minus_Eelec_plus_ZPE_kJmol>  (1) 
0.0

>  <rxn>  (1) 
rmg_rxn_15605

>  <species_type>  (1) 
r0

>  <species_folder>  (1) 
rmg_rxn_15605_r1_S

>  <frequencies_cm1_list>  (1) 
[1207.6967082284, 2718.3442078192397, 2731.4189478685203]

>  <E0_kJmol>  (1) 
-1.04859e+06

>  <H298_kJmol>  (1) 
-1.04858e+06

$$$$

     RDKit          3D

  9  8  0  0  0  0  0  0  0  0999 V2000
    1.0103   -1.8329    0.5354 H   0  0  0  0  0  0  0  0  0  1  0  0
    1.1963   -0.8048    0.8292 C   0  0  0  0  0  0  0  0  0  2  0  0
    0.6378    0.0050   -0.1071 O   0  0  0  0  0  0  0  0  0  3  0  0
   -0.7298    0.1411    0.1005 N   0  0  0  0  0  0  0  0  0  4  0  0
   -1.2697    0.7743   -0.8488 C   0  0  0  0  0  0  0  0  0  5  0  0
    2.2783   -0.7494    0.7818 H   0  0  0  0  0  0  0  0  0  6  0  0
    0.7214   -0.7826    1.8059 H   0  0  0  0  0  0  0  0  0  7  0  0
   -2.3357    0.9407   -0.7679 H   0  0  0  0  0  0  0  0  0  8  0  0
   -0.7110    1.1382   -1.7072 H   0  0  0  0  0  0  0  0  0  9  0  0
  1  2  1  0
  2  7  1  0
  2  3  1  0
  2  6  1  0
  3  4  1  0
  4  5  1  0
  5  8  1  0
  5  9  1  0
M  END
>  <rmg_smiles>  (2) 
CO[N][CH2]

>  <rmg_adjacency_list>  (2) 
1 O u0 p2 c0 {2,S} {3,S}
2 N u0 p1 c0 {1,S} {4,S}
3 C u0 p0 c0 {1,S} {5,S} {6,S} {7,S}
4 C u0 p0 c0 {2,S} {8,S} {9,S}
5 H u0 p0 c0 {3,S}
6 H u0 p0 c0 {3,S}
7 H u0 p0 c0 {3,S}
8 H u0 p0 c0 {4,S}
9 H u0 p0 c0 {4,S}


>  <multiplicity>  (2) 
1

>  <reaction>  (2) 
rmg_rxn_15605

>  <type>  (2) 
r2h

>  <role_mapnums>  (2) 
{"r2h_a": 2, "r2h_h": 1}

>  <role_mapidx>  (2) 
{"r2h_a": 1, "r2h_h": 0}

>  <ordered_mapped_smiles>  (2) 
[H:1][C:2]([O:3][NH:4][CH:5]([H:8])[H:9])([H:6])[H:7]

>  <mol_properties>  (2) 
{"0": {"label": "a_hydrogen", "atom_type": "H0"}, "1": {"label": "acceptor", "atom_type": "Cs"}}

>  <level_of_theory>  (2) 
wb97xd/def2tzvp

>  <lot_method>  (2) 
wb97xd

>  <lot_basis>  (2) 
def2tzvp

>  <spin_multiplicity>  (2) 
1.0

>  <optical_isomers>  (2) 
1.0

>  <modes>  (2) 
IdealGasTranslation(mass=(59.0371, 'amu')),         NonlinearRotor(             inertia = ([11.9742, 101.538, 110.304

>  <frequency_value>  (2) 
unknown

>  <frequency_units>  (2) 
unknown

>  <frequency_list>  (2) 
unknown

>  <arkane_path>  (2) 
/home/calvin/Dropbox/PersonalFolders/Calvin/ZEUS_Converged/rmg_rxn_15605/output/Species/rmg_rxn_15605_p2_CON=C/arkane/output.py

>  <path_exists>  (2) 
True

>  <E0_value>  (2) 
-548882.9200394232

>  <E0_units>  (2) 
kJ/mol

>  <thermo_class>  (2) 
NASA

>  <Cp0_value>  (2) 
33.257888

>  <Cp0_units>  (2) 
J/(mol*K)

>  <CpInf_value>  (2) 
207.8618

>  <CpInf_units>  (2) 
J/(mol*K)

>  <Tmin_value>  (2) 
10.0

>  <Tmin_units>  (2) 
K

>  <Tmax_value>  (2) 
3000.0

>  <Tmax_units>  (2) 
K

>  <polynomials>  (2) 
[{"name": "polynomial1", "class": "NASAPolynomial", "Tmin_value": 10.0, "Tmin_units": "K", "Tmax_value": 1066.0445442103917, "Tmax_units": "K", "coeffs": [3.9488472240731216, 0.012909444164008412, 1.8432835387873368e-05, -2.5565901414715004e-08, 8.632634293818456e-12, -66015370.98001154, 7.906058800048573]}, {"name": "polynomial2", "class": "NASAPolynomial", "Tmin_value": 1066.0445442103917, "Tmin_units": "K", "Tmax_value": 3000.0, "Tmax_units": "K", "coeffs": [4.051174026649639, 0.02340322367340144, -1.163838712217072e-05, 2.8112466199843713e-09, -2.6680947262736413e-13, -66016010.897278614, 4.506810904924114]}]

>  <H298_value>  (2) 
-131182.46582067996

>  <H298_units>  (2) 
kcal/mol

>  <S298_value>  (2) 
69.27397375028742

>  <S298_units>  (2) 
cal/(mol*K)

>  <Cp_T_value_list>  (2) 
[17.607207323409234, 21.157104611048137, 24.5530891366924, 27.67560467885903, 32.827861850696166, 36.480858050170255, 41.94371504002133, 44.76201379304356, 46.08804102499818]

>  <Cp_T_units>  (2) 
cal/(mol*K)

>  <T_list>  (2) 
[300.0, 400.0, 500.0, 600.0, 800.0, 1000.0, 1500.0, 2000.0, 2400.0]

>  <T_units>  (2) 
K

>  <yaml_path>  (2) 
/home/calvin/Dropbox/PersonalFolders/Calvin/ZEUS_Converged/rmg_rxn_15605/output/Species/rmg_rxn_15605_p2_CON=C/rmg_rxn_15605_p2_CON=C.yml

>  <frequencies_cm1>  (2) 
[119.61601728907998, 180.59484693068, 346.29520270228, 574.9726808436, 796.6046320465999, 891.08061607916, 982.9746136314, 1126.32979917172, 1169.7222794088, 1171.7686410341598, 1237.71230106212, 1418.12173938916, 1456.2266409298397, 1467.4060930307999, 1493.1160860688801, 1708.0183916582798, 3005.45973103376, 3077.28153049564, 3083.54422110748, 3121.53925088304, 3213.405780494]

>  <ZPE_kJmol>  (2) 
189.2599943319938

>  <E_elec_kJmol>  (2) 
-549072.1800337551

>  <E0_minus_Eelec_plus_ZPE_kJmol>  (2) 
0.0

>  <rxn>  (2) 
rmg_rxn_15605

>  <species_type>  (2) 
p1

>  <species_folder>  (2) 
rmg_rxn_15605_p2_CON=C

>  <frequencies_cm1_list>  (2) 
[119.61601728907998, 180.59484693068, 346.29520270228, 574.9726808436, 796.6046320465999, 891.08061607916, 982.9746136314, 1126.32979917172, 1169.7222794088, 1171.7686410341598, 1237.71230106212, 1418.12173938916, 1456.2266409298397, 1467.4060930307999, 1493.1160860688801, 1708.0183916582798, 3005.45973103376, 3077.28153049564, 3083.54422110748, 3121.53925088304, 3213.405780494]

>  <E0_kJmol>  (2) 
-548883

>  <H298_kJmol>  (2) 
-548867

$$$$

     RDKit          3D

 11  9  0  0  0  0  0  0  0  0999 V2000
    0.3793   -2.2190   -0.2090 S   0  0  0  0  0  0  0  0  0  1  0  0
    0.7863   -0.8374    0.1902 H   0  0  0  0  0  0  0  0  0  2  0  0
   -0.8931   -1.9484    0.1106 H   0  0  0  0  0  0  0  0  0  3  0  0
    1.0430    0.5811    0.5956 C   0  0  0  0  0  3  0  0  0  4  0  0
    0.4845    1.3909   -0.3407 O   0  0  0  0  0  0  0  0  0  5  0  0
   -0.8831    1.5270   -0.1331 N   0  0  0  0  0  0  0  0  0  6  0  0
   -1.4230    2.1602   -1.0824 C   0  0  0  0  0  0  0  0  0  7  0  0
    2.1250    0.6365    0.5483 H   0  0  0  0  0  0  0  0  0  8  0  0
    0.5681    0.6033    1.5723 H   0  0  0  0  0  0  0  0  0  9  0  0
   -2.4890    2.3266   -1.0015 H   0  0  0  0  0  0  0  0  0 10  0  0
   -0.8643    2.5241   -1.9408 H   0  0  0  0  0  0  0  0  0 11  0  0
  1  2  1  0
  1  3  1  0
  4  8  1  0
  4  9  1  0
  4  5  1  0
  5  6  1  0
  6  7  1  0
  7 11  1  0
  7 10  1  0
M  RAD  1   4   2
M  END
>  <rmg_smiles>  (3) 
[CH2]O[N][CH2].S

>  <rmg_adjacency_list>  (3) 
multiplicity 2
1  S u0 p2 c0 {10,S} {11,S}
2  O u0 p2 c0 {3,S} {4,S}
3  N u0 p1 c0 {2,S} {5,S}
4  C u1 p0 c0 {2,S} {6,S} {7,S}
5  C u0 p0 c0 {3,S} {8,S} {9,S}
6  H u0 p0 c0 {4,S}
7  H u0 p0 c0 {4,S}
8  H u0 p0 c0 {5,S}
9  H u0 p0 c0 {5,S}
10 H u0 p0 c0 {1,S}
11 H u0 p0 c0 {1,S}


>  <multiplicity>  (3) 
2

>  <reaction>  (3) 
rmg_rxn_15605

>  <type>  (3) 
ts

>  <role_mapnums>  (3) 
{"*2": 2, "*1": 1, "*3": 4, "*0": 3, "*4": 5}

>  <role_mapidx>  (3) 
{"*2": 1, "*1": 0, "*3": 3, "*0": 2, "*4": 4}

>  <ordered_mapped_smiles>  (3) 
[S:1]([H:2])[H:3].[C:4]([O:5][NH:6][CH:7]([H:10])[H:11])([H:8])[H:9]

>  <mol_properties>  (3) 
{"0": {"label": "*1", "atom_type": "S2s"}, "1": {"label": "*2", "atom_type": "H0"}, "2": {"label": "*0", "atom_type": "H0"}, "3": {"label": "*3", "atom_type": "Cs"}, "4": {"label": "*4", "atom_type": "O2s"}}

>  <level_of_theory>  (3) 
wb97xd/def2tzvp

>  <lot_method>  (3) 
wb97xd

>  <lot_basis>  (3) 
def2tzvp

>  <spin_multiplicity>  (3) 
2.0

>  <optical_isomers>  (3) 
2.0

>  <modes>  (3) 
IdealGasTranslation(mass=(92.017, 'amu')),         NonlinearRotor(             inertia = ([71.7292, 330.652, 382.096

>  <frequency_value>  (3) 
-948.958

>  <frequency_units>  (3) 
cm^-1

>  <frequency_list>  (3) 
unknown

>  <arkane_path>  (3) 
/home/calvin/Dropbox/PersonalFolders/Calvin/ZEUS_Converged/rmg_rxn_15605/output/rxns/TS0/arkane/output.py

>  <path_exists>  (3) 
True

>  <E0_value>  (3) 
-1595750.0

>  <E0_units>  (3) 
kJ/mol

>  <thermo_class>  (3) 
unknown

>  <Cp0_value>  (3) 
unknown

>  <Cp0_units>  (3) 
unknown

>  <CpInf_value>  (3) 
unknown

>  <CpInf_units>  (3) 
unknown

>  <Tmin_value>  (3) 
unknown

>  <Tmin_units>  (3) 
unknown

>  <Tmax_value>  (3) 
unknown

>  <Tmax_units>  (3) 
unknown

>  <polynomials>  (3) 
unknown

>  <H298_value>  (3) 
unknown

>  <H298_units>  (3) 
unknown

>  <S298_value>  (3) 
unknown

>  <S298_units>  (3) 
unknown

>  <Cp_T_value_list>  (3) 
unknown

>  <Cp_T_units>  (3) 
unknown

>  <T_list>  (3) 
unknown

>  <T_units>  (3) 
unknown

>  <yaml_path>  (3) 
unknown

>  <frequencies_cm1>  (3) 
unknown

>  <ZPE_kJmol>  (3) 
unknown

>  <E_elec_kJmol>  (3) 
unknown

>  <E0_minus_Eelec_plus_ZPE_kJmol>  (3) 
unknown

>  <rxn>  (3) 
unknown

>  <species_type>  (3) 
unknown

>  <species_folder>  (3) 
unknown

>  <frequencies_cm1_list>  (3) 
[]

>  <ts_imag_freq_cm1>  (3) 
-960.4841

>  <ts_freq_out_path>  (3) 
/home/calvin/Dropbox/PersonalFolders/Calvin/ZEUS_Converged/rmg_rxn_15605/output/rxns/TS0/geometry/freq.out

>  <E0_kJmol>  (3) 
-1.59575e+06

>  <H298_kJmol>  (3) 
unknown

$$$$

     RDKit          3D

  2  1  0  0  0  0  0  0  0  0999 V2000
    0.0000    0.0000    0.6715 S   0  0  0  0  0  1  0  0  0  1  0  0
    0.0000    0.0000   -0.6715 H   0  0  0  0  0  0  0  0  0  2  0  0
  1  2  1  0
M  RAD  1   1   2
M  END
>  <rmg_smiles>  (4) 
[SH]

>  <rmg_adjacency_list>  (4) 
multiplicity 2
1 S u1 p2 c0 {2,S}
2 H u0 p0 c0 {1,S}


>  <multiplicity>  (4) 
2

>  <reaction>  (4) 
rmg_rxn_15605

>  <type>  (4) 
r1

>  <role_mapnums>  (4) 
{}

>  <role_mapidx>  (4) 
{}

>  <ordered_mapped_smiles>  (4) 
[S:1][H:2]

>  <level_of_theory>  (4) 
wb97xd/def2tzvp

>  <lot_method>  (4) 
wb97xd

>  <lot_basis>  (4) 
def2tzvp

>  <spin_multiplicity>  (4) 
2.0

>  <optical_isomers>  (4) 
1.0

>  <modes>  (4) 
IdealGasTranslation(mass=(32.9799, 'amu')),         LinearRotor(inertia=(1.76198, 'amu*angstrom^2'), symmetry=1),         HarmonicOscillator(frequencies=([2717.16

>  <frequency_value>  (4) 
unknown

>  <frequency_units>  (4) 
unknown

>  <frequency_list>  (4) 
unknown

>  <arkane_path>  (4) 
/home/calvin/Dropbox/PersonalFolders/Calvin/ZEUS_Converged/rmg_rxn_15605/output/Species/rmg_rxn_15605_p1_sbr-SH-sbr/arkane/output.py

>  <path_exists>  (4) 
True

>  <E0_value>  (4) 
-1046902.932295989

>  <E0_units>  (4) 
kJ/mol

>  <thermo_class>  (4) 
NASA

>  <Cp0_value>  (4) 
29.100652

>  <Cp0_units>  (4) 
J/(mol*K)

>  <CpInf_value>  (4) 
37.415124

>  <CpInf_units>  (4) 
J/(mol*K)

>  <Tmin_value>  (4) 
10.0

>  <Tmin_units>  (4) 
K

>  <Tmax_value>  (4) 
3000.0

>  <Tmax_units>  (4) 
K

>  <polynomials>  (4) 
[{"name": "polynomial1", "class": "NASAPolynomial", "Tmin_value": 10.0, "Tmin_units": "K", "Tmax_value": 748.2052447313665, "Tmax_units": "K", "coeffs": [3.496273380711632, 0.00032003711196013676, -2.3069127962171082e-06, 4.843162975439362e-09, -2.580722186540029e-12, -125913339.09859523, 3.140660788690372]}, {"name": "polynomial2", "class": "NASAPolynomial", "Tmin_value": 748.2052447313665, "Tmin_units": "K", "Tmax_value": 3000.0, "Tmax_units": "K", "coeffs": [3.143810022018713, 0.0006407595494933728, 1.8478762175414366e-07, -1.7006426824758965e-10, 2.7618530619850687e-14, -125913242.58982067, 5.03132271004615]}]

>  <H298_value>  (4) 
-250213.7312002693

>  <H298_units>  (4) 
kcal/mol

>  <S298_value>  (4) 
45.88426249941152

>  <S298_units>  (4) 
cal/(mol*K)

>  <Cp_T_value_list>  (4) 
[6.94434063818852, 6.953390788517184, 7.002247954148481, 7.093271303394767, 7.350520621476138, 7.604863323227885, 8.120865229365412, 8.43740447309461, 8.567558167317882]

>  <Cp_T_units>  (4) 
cal/(mol*K)

>  <T_list>  (4) 
[300.0, 400.0, 500.0, 600.0, 800.0, 1000.0, 1500.0, 2000.0, 2400.0]

>  <T_units>  (4) 
K

>  <yaml_path>  (4) 
/home/calvin/Dropbox/PersonalFolders/Calvin/ZEUS_Converged/rmg_rxn_15605/output/Species/rmg_rxn_15605_p1_sbr-SH-sbr/rmg_rxn_15605_p1_sbr-SH-sbr.yml

>  <frequencies_cm1>  (4) 
[2684.5586400448396]

>  <ZPE_kJmol>  (4) 
16.0572311304594

>  <E_elec_kJmol>  (4) 
-1046918.9895271194

>  <E0_minus_Eelec_plus_ZPE_kJmol>  (4) 
0.0

>  <rxn>  (4) 
rmg_rxn_15605

>  <species_type>  (4) 
p0

>  <species_folder>  (4) 
rmg_rxn_15605_p1_sbr-SH-sbr

>  <frequencies_cm1_list>  (4) 
[2684.5586400448396]

>  <E0_kJmol>  (4) 
-1.0469e+06

>  <H298_kJmol>  (4) 
-1.04689e+06

$$$$

     RDKit          3D

  8  7  0  0  0  0  0  0  0  0999 V2000
    1.7077   -0.1964   -0.0607 C   0  0  0  0  0  3  0  0  0  1  0  0
    0.4209   -0.4565    0.2808 O   0  0  0  0  0  0  0  0  0  2  0  0
   -0.4607    0.4385   -0.2968 N   0  0  0  0  0  0  0  0  0  3  0  0
   -1.6584    0.1416   -0.0244 C   0  0  0  0  0  0  0  0  0  4  0  0
    2.4163   -0.7685    0.5170 H   0  0  0  0  0  0  0  0  0  5  0  0
    1.9214    0.7645   -0.5045 H   0  0  0  0  0  0  0  0  0  6  0  0
   -2.4185    0.7953   -0.4307 H   0  0  0  0  0  0  0  0  0  7  0  0
   -1.9286   -0.7185    0.5831 H   0  0  0  0  0  0  0  0  0  8  0  0
  1  6  1  0
  1  5  1  0
  1  2  1  0
  2  3  1  0
  3  4  1  0
  4  8  1  0
  4  7  1  0
M  RAD  1   1   2
M  END
>  <rmg_smiles>  (5) 
[CH2]O[N][CH2]

>  <rmg_adjacency_list>  (5) 
multiplicity 2
1 O u0 p2 c0 {2,S} {3,S}
2 N u0 p1 c0 {1,S} {4,S}
3 C u1 p0 c0 {1,S} {5,S} {6,S}
4 C u0 p0 c0 {2,S} {7,S} {8,S}
5 H u0 p0 c0 {3,S}
6 H u0 p0 c0 {3,S}
7 H u0 p0 c0 {4,S}
8 H u0 p0 c0 {4,S}


>  <multiplicity>  (5) 
2

>  <reaction>  (5) 
rmg_rxn_15605

>  <type>  (5) 
r2

>  <role_mapnums>  (5) 
{}

>  <role_mapidx>  (5) 
{}

>  <ordered_mapped_smiles>  (5) 
[C:1]([O:2][NH:3][CH:4]([H:7])[H:8])([H:5])[H:6]

>  <level_of_theory>  (5) 
wb97xd/def2tzvp

>  <lot_method>  (5) 
wb97xd

>  <lot_basis>  (5) 
def2tzvp

>  <spin_multiplicity>  (5) 
2.0

>  <optical_isomers>  (5) 
2.0

>  <modes>  (5) 
IdealGasTranslation(mass=(58.0293, 'amu')),         NonlinearRotor(             inertia = ([10.2741, 95.4529, 105.582

>  <frequency_value>  (5) 
unknown

>  <frequency_units>  (5) 
unknown

>  <frequency_list>  (5) 
unknown

>  <arkane_path>  (5) 
/home/calvin/Dropbox/PersonalFolders/Calvin/ZEUS_Converged/rmg_rxn_15605/output/Species/rmg_rxn_15605_r2_sbr-CH2-sbrON=C/arkane/output.py

>  <path_exists>  (5) 
True

>  <E0_value>  (5) 
-547168.2732446302

>  <E0_units>  (5) 
kJ/mol

>  <thermo_class>  (5) 
NASA

>  <Cp0_value>  (5) 
33.257888

>  <Cp0_units>  (5) 
J/(mol*K)

>  <CpInf_value>  (5) 
182.918384

>  <CpInf_units>  (5) 
J/(mol*K)

>  <Tmin_value>  (5) 
10.0

>  <Tmin_units>  (5) 
K

>  <Tmax_value>  (5) 
3000.0

>  <Tmax_units>  (5) 
K

>  <polynomials>  (5) 
[{"name": "polynomial1", "class": "NASAPolynomial", "Tmin_value": 10.0, "Tmin_units": "K", "Tmax_value": 253.2842427910515, "Tmax_units": "K", "coeffs": [3.956862909385456, 0.0038362890131335746, 0.00011727738047703725, -3.4736244039427427e-07, 3.472729073035136e-10, -65809144.38694886, 9.350338763280796]}, {"name": "polynomial2", "class": "NASAPolynomial", "Tmin_value": 253.2842427910515, "Tmin_units": "K", "Tmax_value": 3000.0, "Tmax_units": "K", "coeffs": [2.5252197328965313, 0.026445761179553072, -1.662161754135038e-05, 5.074735532607581e-09, -5.97403912324656e-13, -65809071.86505469, 14.291183066674913]}]

>  <H298_value>  (5) 
-130772.65860702786

>  <H298_units>  (5) 
kcal/mol

>  <S298_value>  (5) 
71.26914844977757

>  <S298_units>  (5) 
cal/(mol*K)

>  <Cp_T_value_list>  (5) 
[18.0740035969719, 21.369534269323825, 24.223451351766553, 26.683440747612977, 30.598134113509214, 33.438117676478754, 37.554421513360474, 39.68390492467901, 40.91110806828642]

>  <Cp_T_units>  (5) 
cal/(mol*K)

>  <T_list>  (5) 
[300.0, 400.0, 500.0, 600.0, 800.0, 1000.0, 1500.0, 2000.0, 2400.0]

>  <T_units>  (5) 
K

>  <yaml_path>  (5) 
/home/calvin/Dropbox/PersonalFolders/Calvin/ZEUS_Converged/rmg_rxn_15605/output/Species/rmg_rxn_15605_r2_sbr-CH2-sbrON=C/rmg_rxn_15605_r2_sbr-CH2-sbrON=C.yml

>  <frequencies_cm1>  (5) 
[132.13453152744, 273.14807507364, 360.4549264321199, 498.69420790903996, 595.9169860696, 789.3942974605999, 873.74834513148, 993.5360370535599, 1152.01232426852, 1206.54305469464, 1257.0497317232398, 1417.2771001948001, 1437.260027476, 1705.2166616477198, 3090.5210781926, 3134.7719315946797, 3218.94057066192, 3282.16490450316]

>  <ZPE_kJmol>  (5) 
152.0381400376291

>  <E_elec_kJmol>  (5) 
-547320.3113846679

>  <E0_minus_Eelec_plus_ZPE_kJmol>  (5) 
0.0

>  <rxn>  (5) 
rmg_rxn_15605

>  <species_type>  (5) 
r1

>  <species_folder>  (5) 
rmg_rxn_15605_r2_sbr-CH2-sbrON=C

>  <frequencies_cm1_list>  (5) 
[132.13453152744, 273.14807507364, 360.4549264321199, 498.69420790903996, 595.9169860696, 789.3942974605999, 873.74834513148, 993.5360370535599, 1152.01232426852, 1206.54305469464, 1257.0497317232398, 1417.2771001948001, 1437.260027476, 1705.2166616477198, 3090.5210781926, 3134.7719315946797, 3218.94057066192, 3282.16490450316]

>  <E0_kJmol>  (5) 
-547168

>  <H298_kJmol>  (5) 
-547153

$$$$
