
     RDKit          3D

  9  8  0  0  0  0  0  0  0  0999 V2000
    0.2381    0.9207    0.8287 C   0  0  0  0  0  0  0  0  0  1  0  0
   -0.3291   -0.1212    0.2657 C   0  0  0  0  0  0  0  0  0  2  0  0
    0.0874   -0.7556   -1.0306 C   0  0  0  0  0  0  0  0  0  3  0  0
   -0.2456    1.2217    1.7520 H   0  0  0  0  0  0  0  0  0  4  0  0
    1.0783    1.5120    0.4799 H   0  0  0  0  0  0  0  0  0  5  0  0
   -1.1769   -0.5814    0.7746 H   0  0  0  0  0  0  0  0  0  6  0  0
    0.3600   -1.8024   -0.8749 H   0  0  0  0  0  0  0  0  0  7  0  0
    0.9387   -0.2388   -1.4740 H   0  0  0  0  0  0  0  0  0  8  0  0
   -0.7381   -0.7415   -1.7467 H   0  0  0  0  0  0  0  0  0  9  0  0
  1  5  1  0
  1  4  1  0
  1  2  1  0
  2  6  1  0
  2  3  1  0
  3  8  1  0
  3  7  1  0
  3  9  1  0
M  END
>  <rmg_smiles>  (1) 
[CH2][CH]C

>  <rmg_adjacency_list>  (1) 
1 C u0 p0 c0 {2,S} {4,S} {5,S} {6,S}
2 C u0 p0 c0 {1,S} {3,S} {7,S}
3 C u0 p0 c0 {2,S} {8,S} {9,S}
4 H u0 p0 c0 {1,S}
5 H u0 p0 c0 {1,S}
6 H u0 p0 c0 {1,S}
7 H u0 p0 c0 {2,S}
8 H u0 p0 c0 {3,S}
9 H u0 p0 c0 {3,S}


>  <multiplicity>  (1) 
1

>  <reaction>  (1) 
rmg_rxn_354

>  <type>  (1) 
r1h

>  <role_mapnums>  (1) 
{"r1h_a": 1, "r1h_h": 4}

>  <role_mapidx>  (1) 
{"r1h_a": 0, "r1h_h": 3}

>  <ordered_mapped_smiles>  (1) 
[CH:1]([CH:2]([C:3]([H:7])([H:8])[H:9])[H:6])([H:4])[H:5]

>  <mol_properties>  (1) 
{"0": {"label": "donator", "atom_type": "Cs"}, "3": {"label": "d_hydrogen", "atom_type": "H0"}}

>  <level_of_theory>  (1) 
wb97xd/def2tzvp

>  <lot_method>  (1) 
wb97xd

>  <lot_basis>  (1) 
def2tzvp

>  <spin_multiplicity>  (1) 
1.0

>  <optical_isomers>  (1) 
1.0

>  <modes>  (1) 
IdealGasTranslation(mass=(42.047, 'amu')),         NonlinearRotor(             inertia = ([10.7194, 53.9495, 61.5633

>  <frequency_value>  (1) 
unknown

>  <frequency_units>  (1) 
unknown

>  <frequency_list>  (1) 
unknown

>  <arkane_path>  (1) 
/home/calvin/Dropbox/PersonalFolders/Calvin/ATLAS_Converged/rmg_rxn_354/output/Species/rmg_rxn_354_r1_C=CC/arkane/output.py

>  <path_exists>  (1) 
True

>  <E0_value>  (1) 
-309367.8832800667

>  <E0_units>  (1) 
kJ/mol

>  <thermo_class>  (1) 
NASA

>  <Cp0_value>  (1) 
33.257888

>  <Cp0_units>  (1) 
J/(mol*K)

>  <CpInf_value>  (1) 
207.8618

>  <CpInf_units>  (1) 
J/(mol*K)

>  <Tmin_value>  (1) 
10.0

>  <Tmin_units>  (1) 
K

>  <Tmax_value>  (1) 
3000.0

>  <Tmax_units>  (1) 
K

>  <polynomials>  (1) 
[{"name": "polynomial1", "class": "NASAPolynomial", "Tmin_value": 10.0, "Tmin_units": "K", "Tmax_value": 531.9064937504112, "Tmax_units": "K", "coeffs": [4.020436711182031, -0.0017312814785763397, 7.469369060034455e-05, -1.103989584976731e-07, 5.3574119431735355e-11, -37208361.61961947, 6.984063158303809]}, {"name": "polynomial2", "class": "NASAPolynomial", "Tmin_value": 531.9064937504112, "Tmin_units": "K", "Tmax_value": 3000.0, "Tmax_units": "K", "coeffs": [-0.3074697795116692, 0.0308149753688916, -1.7087881827869126e-05, 4.635359536661255e-09, -4.926745963315874e-13, -37207901.20969448, 25.131571794167595]}]

>  <H298_value>  (1) 
-73937.54315081469

>  <H298_units>  (1) 
kcal/mol

>  <S298_value>  (1) 
63.23542809596166

>  <S298_units>  (1) 
cal/(mol*K)

>  <Cp_T_value_list>  (1) 
[15.25511443960514, 19.04713332195462, 22.607914347827887, 25.768633339463815, 30.960221646023633, 34.89993402409392, 40.9710958044644, 44.05842766458756, 45.61775865088926]

>  <Cp_T_units>  (1) 
cal/(mol*K)

>  <T_list>  (1) 
[300.0, 400.0, 500.0, 600.0, 800.0, 1000.0, 1500.0, 2000.0, 2400.0]

>  <T_units>  (1) 
K

>  <yaml_path>  (1) 
/home/calvin/Dropbox/PersonalFolders/Calvin/ATLAS_Converged/rmg_rxn_354/output/Species/rmg_rxn_354_r1_C=CC/rmg_rxn_354_r1_C=CC.yml

>  <frequencies_cm1>  (1) 
[200.92112347787997, 429.72220735495995, 590.1693193567598, 925.5460154002399, 944.49202789812, 949.7315376972799, 1024.05291981564, 1068.7501272635197, 1186.76613697304, 1322.2792252779197, 1396.37399688072, 1440.26090006084, 1466.0326959668, 1481.02332492036, 1720.5094379553598, 3007.2932161142003, 3065.80679802592, 3091.5648599612396, 3111.3280437122, 3123.2628641983597, 3201.2855514042]

>  <ZPE_kJmol>  (1) 
207.8343042708976

>  <E_elec_kJmol>  (1) 
-309575.71758433763

>  <E0_minus_Eelec_plus_ZPE_kJmol>  (1) 
0.0

>  <rxn>  (1) 
rmg_rxn_354

>  <species_type>  (1) 
r0

>  <species_folder>  (1) 
rmg_rxn_354_r1_C=CC

>  <frequencies_cm1_list>  (1) 
[200.92112347787997, 429.72220735495995, 590.1693193567598, 925.5460154002399, 944.49202789812, 949.7315376972799, 1024.05291981564, 1068.7501272635197, 1186.76613697304, 1322.2792252779197, 1396.37399688072, 1440.26090006084, 1466.0326959668, 1481.02332492036, 1720.5094379553598, 3007.2932161142003, 3065.80679802592, 3091.5648599612396, 3111.3280437122, 3123.2628641983597, 3201.2855514042]

>  <E0_kJmol>  (1) 
-309368

>  <H298_kJmol>  (1) 
-309355

$$$$

     RDKit          3D

 15 14  0  0  0  0  0  0  0  0999 V2000
    0.8635    0.8181   -1.3093 H   0  0  0  0  0  0  0  0  0  1  0  0
    1.5233   -1.8367    0.2723 C   0  0  0  0  0  0  0  0  0  2  0  0
    0.4280   -1.1524    1.0730 C   0  0  0  0  0  0  0  0  0  3  0  0
   -0.7674   -0.2129    0.0919 S   0  0  0  0  0  0  0  0  0  4  0  0
    0.2330    1.1454   -0.4799 C   0  0  0  0  0  0  0  0  0  5  0  0
   -0.6037    2.2811   -1.0260 C   0  0  0  0  0  0  0  0  0  6  0  0
    2.1313   -1.1137   -0.2714 H   0  0  0  0  0  0  0  0  0  7  0  0
    2.1786   -2.4015    0.9396 H   0  0  0  0  0  0  0  0  0  8  0  0
    1.0984   -2.5253   -0.4589 H   0  0  0  0  0  0  0  0  0  9  0  0
    0.8516   -0.4812    1.8233 H   0  0  0  0  0  0  0  0  0 10  0  0
   -0.1762   -1.8880    1.6065 H   0  0  0  0  0  0  0  0  0 11  0  0
    0.9292    1.4651    0.2983 H   0  0  0  0  0  0  0  0  0 12  0  0
   -1.2224    2.7352   -0.2492 H   0  0  0  0  0  0  0  0  0 13  0  0
    0.0449    3.0521   -1.4452 H   0  0  0  0  0  0  0  0  0 14  0  0
   -1.2601    1.9299   -1.8244 H   0  0  0  0  0  0  0  0  0 15  0  0
  1  5  1  0
  2  9  1  0
  2  7  1  0
  2  8  1  0
  2  3  1  0
  3 11  1  0
  3 10  1  0
  3  4  1  0
  4  5  1  0
  5 12  1  0
  5  6  1  0
  6 15  1  0
  6 14  1  0
  6 13  1  0
M  END
>  <rmg_smiles>  (2) 
CCSCC

>  <rmg_adjacency_list>  (2) 
1  S u0 p2 c0 {2,S} {3,S}
2  C u0 p0 c0 {1,S} {4,S} {7,S} {8,S}
3  C u0 p0 c0 {1,S} {5,S} {6,S} {9,S}
4  C u0 p0 c0 {2,S} {10,S} {11,S} {12,S}
5  C u0 p0 c0 {3,S} {13,S} {14,S} {15,S}
6  H u0 p0 c0 {3,S}
7  H u0 p0 c0 {2,S}
8  H u0 p0 c0 {2,S}
9  H u0 p0 c0 {3,S}
10 H u0 p0 c0 {4,S}
11 H u0 p0 c0 {4,S}
12 H u0 p0 c0 {4,S}
13 H u0 p0 c0 {5,S}
14 H u0 p0 c0 {5,S}
15 H u0 p0 c0 {5,S}


>  <multiplicity>  (2) 
1

>  <reaction>  (2) 
rmg_rxn_354

>  <type>  (2) 
r2h

>  <role_mapnums>  (2) 
{"r2h_a": 5, "r2h_h": 1}

>  <role_mapidx>  (2) 
{"r2h_a": 4, "r2h_h": 0}

>  <ordered_mapped_smiles>  (2) 
[H:1][C:5]([S:4][C:3]([C:2]([H:7])([H:8])[H:9])([H:10])[H:11])([C:6]([H:13])([H:14])[H:15])[H:12]

>  <mol_properties>  (2) 
{"0": {"label": "a_hydrogen", "atom_type": "H0"}, "4": {"label": "acceptor", "atom_type": "Cs"}}

>  <level_of_theory>  (2) 
wb97xd/def2tzvp

>  <lot_method>  (2) 
wb97xd

>  <lot_basis>  (2) 
def2tzvp

>  <spin_multiplicity>  (2) 
1.0

>  <optical_isomers>  (2) 
2.0

>  <modes>  (2) 
IdealGasTranslation(mass=(90.0503, 'amu')),         NonlinearRotor(             inertia = ([97.9259, 182.785, 231.685

>  <frequency_value>  (2) 
unknown

>  <frequency_units>  (2) 
unknown

>  <frequency_list>  (2) 
unknown

>  <arkane_path>  (2) 
/home/calvin/Dropbox/PersonalFolders/Calvin/ATLAS_Converged/rmg_rxn_354/output/Species/rmg_rxn_354_p2_CCSCC/arkane/output.py

>  <path_exists>  (2) 
True

>  <E0_value>  (2) 
-1461176.7123028408

>  <E0_units>  (2) 
kJ/mol

>  <thermo_class>  (2) 
NASA

>  <Cp0_value>  (2) 
33.257888

>  <Cp0_units>  (2) 
J/(mol*K)

>  <CpInf_value>  (2) 
357.522296

>  <CpInf_units>  (2) 
J/(mol*K)

>  <Tmin_value>  (2) 
10.0

>  <Tmin_units>  (2) 
K

>  <Tmax_value>  (2) 
3000.0

>  <Tmax_units>  (2) 
K

>  <polynomials>  (2) 
[{"name": "polynomial1", "class": "NASAPolynomial", "Tmin_value": 10.0, "Tmin_units": "K", "Tmax_value": 1062.740332266501, "Tmax_units": "K", "coeffs": [3.7240768769611408, 0.031177750271788266, 1.590200165997747e-05, -3.1138888238628924e-08, 1.1081299545578661e-11, -175738967.30653694, 10.691637972640313]}, {"name": "polynomial2", "class": "NASAPolynomial", "Tmin_value": 1062.740332266501, "Tmin_units": "K", "Tmax_value": 3000.0, "Tmax_units": "K", "coeffs": [4.272256190616837, 0.04355880957526612, -2.1960566897444118e-05, 5.4018330156847166e-09, -5.231130586129144e-13, -175739899.50439465, 4.175990433518907]}]

>  <H298_value>  (2) 
-349224.4948454063

>  <H298_units>  (2) 
kcal/mol

>  <S298_value>  (2) 
82.77165630085062

>  <S298_units>  (2) 
cal/(mol*K)

>  <Cp_T_value_list>  (2) 
[27.339173580692723, 33.84270235009273, 39.920340825285514, 45.438637568785964, 54.52765007672161, 61.099128237827436, 71.10646466743047, 76.29375194018085, 78.77254304981717]

>  <Cp_T_units>  (2) 
cal/(mol*K)

>  <T_list>  (2) 
[300.0, 400.0, 500.0, 600.0, 800.0, 1000.0, 1500.0, 2000.0, 2400.0]

>  <T_units>  (2) 
K

>  <yaml_path>  (2) 
/home/calvin/Dropbox/PersonalFolders/Calvin/ATLAS_Converged/rmg_rxn_354/output/Species/rmg_rxn_354_p2_CCSCC/rmg_rxn_354_p2_CCSCC.yml

>  <frequencies_cm1>  (2) 
[66.48615186823999, 121.63491097315999, 224.63969077315997, 254.99863287287997, 273.62876404604003, 341.45397805167994, 381.0490154068, 647.6597204558, 701.8333676452798, 742.1151035324, 786.8329119362398, 985.17891591912, 988.88708799192, 1023.0091380469999, 1055.1809642711999, 1060.18699656948, 1093.14852610548, 1263.72444145428, 1273.9013136985197, 1289.2490258887199, 1308.3598460342798, 1399.5396771132398, 1399.8967603498797, 1460.7725852116798, 1462.4000607325202, 1478.53747623452, 1481.2362014652797, 1489.1538355392402, 1493.6723118798, 3015.6091353367196, 3016.10355827976, 3035.3242501904397, 3036.18262335544, 3073.69009717328, 3077.2334615983996, 3086.3528181033594, 3086.8953099436403, 3101.4052499247996, 3104.1520440527997]

>  <ZPE_kJmol>  (2) 
348.0016505911852

>  <E_elec_kJmol>  (2) 
-1461524.713953432

>  <E0_minus_Eelec_plus_ZPE_kJmol>  (2) 
0.0

>  <rxn>  (2) 
rmg_rxn_354

>  <species_type>  (2) 
p1

>  <species_folder>  (2) 
rmg_rxn_354_p2_CCSCC

>  <frequencies_cm1_list>  (2) 
[66.48615186823999, 121.63491097315999, 224.63969077315997, 254.99863287287997, 273.62876404604003, 341.45397805167994, 381.0490154068, 647.6597204558, 701.8333676452798, 742.1151035324, 786.8329119362398, 985.17891591912, 988.88708799192, 1023.0091380469999, 1055.1809642711999, 1060.18699656948, 1093.14852610548, 1263.72444145428, 1273.9013136985197, 1289.2490258887199, 1308.3598460342798, 1399.5396771132398, 1399.8967603498797, 1460.7725852116798, 1462.4000607325202, 1478.53747623452, 1481.2362014652797, 1489.1538355392402, 1493.6723118798, 3015.6091353367196, 3016.10355827976, 3035.3242501904397, 3036.18262335544, 3073.69009717328, 3077.2334615983996, 3086.3528181033594, 3086.8953099436403, 3101.4052499247996, 3104.1520440527997]

>  <E0_kJmol>  (2) 
-1.46118e+06

>  <H298_kJmol>  (2) 
-1.46116e+06

$$$$

     RDKit          3D

 23 21  0  0  0  0  0  0  0  0999 V2000
    0.9200    0.8359   -1.3522 C   0  0  0  0  0  3  0  0  0  1  0  0
    0.3528   -0.2060   -1.9151 C   0  0  0  0  0  0  0  0  0  2  0  0
    0.7693   -0.8404   -3.2114 C   0  0  0  0  0  0  0  0  0  3  0  0
    0.2634    1.2445   -0.0989 H   0  0  0  0  0  0  0  0  0  4  0  0
    1.7602    1.4272   -1.7009 H   0  0  0  0  0  0  0  0  0  5  0  0
   -0.4950   -0.6662   -1.4062 H   0  0  0  0  0  0  0  0  0  6  0  0
    1.0419   -1.8873   -3.0558 H   0  0  0  0  0  0  0  0  0  7  0  0
    1.6206   -0.3237   -3.6548 H   0  0  0  0  0  0  0  0  0  8  0  0
   -0.0562   -0.8263   -3.9275 H   0  0  0  0  0  0  0  0  0  9  0  0
    0.8377   -1.3660    1.5953 C   0  0  0  0  0  0  0  0  0 10  0  0
   -0.2576   -0.6816    2.3961 C   0  0  0  0  0  0  0  0  0 11  0  0
   -1.4531    0.2578    1.4149 S   0  0  0  0  0  0  0  0  0 12  0  0
   -0.4526    1.6162    0.8431 C   0  0  0  0  0  0  0  0  0 13  0  0
   -1.2894    2.7518    0.2970 C   0  0  0  0  0  0  0  0  0 14  0  0
    1.4456   -0.6429    1.0516 H   0  0  0  0  0  0  0  0  0 15  0  0
    1.4930   -1.9308    2.2626 H   0  0  0  0  0  0  0  0  0 16  0  0
    0.4128   -2.0545    0.8641 H   0  0  0  0  0  0  0  0  0 17  0  0
    0.1660   -0.0105    3.1463 H   0  0  0  0  0  0  0  0  0 18  0  0
   -0.8619   -1.4172    2.9295 H   0  0  0  0  0  0  0  0  0 19  0  0
    0.2436    1.9358    1.6213 H   0  0  0  0  0  0  0  0  0 20  0  0
   -1.9081    3.2059    1.0738 H   0  0  0  0  0  0  0  0  0 21  0  0
   -0.6408    3.5229   -0.1222 H   0  0  0  0  0  0  0  0  0 22  0  0
   -1.9457    2.4006   -0.5014 H   0  0  0  0  0  0  0  0  0 23  0  0
  1  5  1  0
  1  2  1  0
  2  6  1  0
  2  3  1  0
  3  8  1  0
  3  7  1  0
  3  9  1  0
  4 13  1  0
 10 16  1  0
 10 15  1  0
 10 11  1  0
 10 17  1  0
 11 12  1  0
 11 19  1  0
 11 18  1  0
 12 13  1  0
 13 20  1  0
 13 14  1  0
 14 23  1  0
 14 22  1  0
 14 21  1  0
M  RAD  1   1   2
M  END
>  <rmg_smiles>  (3) 
CCSCC.[CH][CH]C

>  <rmg_adjacency_list>  (3) 
multiplicity 2
1  S u0 p2 c0 {2,S} {3,S}
2  C u0 p0 c0 {1,S} {4,S} {10,S} {11,S}
3  C u0 p0 c0 {1,S} {5,S} {9,S} {12,S}
4  C u0 p0 c0 {2,S} {13,S} {14,S} {15,S}
5  C u0 p0 c0 {3,S} {16,S} {17,S} {18,S}
6  C u0 p0 c0 {7,S} {19,S} {20,S} {21,S}
7  C u0 p0 c0 {6,S} {8,S} {22,S}
8  C u1 p1 c0 {7,S} {23,S}
9  H u0 p0 c0 {3,S}
10 H u0 p0 c0 {2,S}
11 H u0 p0 c0 {2,S}
12 H u0 p0 c0 {3,S}
13 H u0 p0 c0 {4,S}
14 H u0 p0 c0 {4,S}
15 H u0 p0 c0 {4,S}
16 H u0 p0 c0 {5,S}
17 H u0 p0 c0 {5,S}
18 H u0 p0 c0 {5,S}
19 H u0 p0 c0 {6,S}
20 H u0 p0 c0 {6,S}
21 H u0 p0 c0 {6,S}
22 H u0 p0 c0 {7,S}
23 H u0 p0 c0 {8,S}


>  <multiplicity>  (3) 
2

>  <reaction>  (3) 
rmg_rxn_354

>  <type>  (3) 
ts

>  <role_mapnums>  (3) 
{"*2": 4, "*1": 1, "*3": 13, "*0": 12, "*4": 2}

>  <role_mapidx>  (3) 
{"*2": 3, "*1": 0, "*3": 12, "*0": 11, "*4": 1}

>  <ordered_mapped_smiles>  (3) 
[CH:1]([CH:2]([C:3]([H:7])([H:8])[H:9])[H:6])[H:5].[H:4][C:13]([S:12][C:11]([C:10]([H:15])([H:16])[H:17])([H:18])[H:19])([C:14]([H:21])([H:22])[H:23])[H:20]

>  <mol_properties>  (3) 
{"0": {"label": "*1", "atom_type": "C2s"}, "1": {"label": "*4", "atom_type": "Cs"}, "3": {"label": "*2", "atom_type": "H0"}, "11": {"label": "*0", "atom_type": "S2s"}, "12": {"label": "*3", "atom_type": "Cs"}}

>  <level_of_theory>  (3) 
wb97xd/def2tzvp

>  <lot_method>  (3) 
wb97xd

>  <lot_basis>  (3) 
def2tzvp

>  <spin_multiplicity>  (3) 
2.0

>  <optical_isomers>  (3) 
2.0

>  <modes>  (3) 
IdealGasTranslation(mass=(131.089, 'amu')),         NonlinearRotor(             inertia = ([292.47, 531.095, 716.687

>  <frequency_value>  (3) 
-1360.03

>  <frequency_units>  (3) 
cm^-1

>  <frequency_list>  (3) 
unknown

>  <arkane_path>  (3) 
/home/calvin/Dropbox/PersonalFolders/Calvin/ATLAS_Converged/rmg_rxn_354/output/rxns/TS0/arkane/output.py

>  <path_exists>  (3) 
True

>  <E0_value>  (3) 
-1768760.0

>  <E0_units>  (3) 
kJ/mol

>  <thermo_class>  (3) 
unknown

>  <Cp0_value>  (3) 
unknown

>  <Cp0_units>  (3) 
unknown

>  <CpInf_value>  (3) 
unknown

>  <CpInf_units>  (3) 
unknown

>  <Tmin_value>  (3) 
unknown

>  <Tmin_units>  (3) 
unknown

>  <Tmax_value>  (3) 
unknown

>  <Tmax_units>  (3) 
unknown

>  <polynomials>  (3) 
unknown

>  <H298_value>  (3) 
unknown

>  <H298_units>  (3) 
unknown

>  <S298_value>  (3) 
unknown

>  <S298_units>  (3) 
unknown

>  <Cp_T_value_list>  (3) 
unknown

>  <Cp_T_units>  (3) 
unknown

>  <T_list>  (3) 
unknown

>  <T_units>  (3) 
unknown

>  <yaml_path>  (3) 
unknown

>  <frequencies_cm1>  (3) 
unknown

>  <ZPE_kJmol>  (3) 
unknown

>  <E_elec_kJmol>  (3) 
unknown

>  <E0_minus_Eelec_plus_ZPE_kJmol>  (3) 
unknown

>  <rxn>  (3) 
unknown

>  <species_type>  (3) 
unknown

>  <species_folder>  (3) 
unknown

>  <frequencies_cm1_list>  (3) 
[]

>  <ts_imag_freq_cm1>  (3) 
-1376.5482

>  <ts_freq_out_path>  (3) 
/home/calvin/Dropbox/PersonalFolders/Calvin/ATLAS_Converged/rmg_rxn_354/output/rxns/TS0/geometry/freq.out

>  <E0_kJmol>  (3) 
-1.76876e+06

>  <H298_kJmol>  (3) 
unknown

$$$$

     RDKit          3D

  8  7  0  0  0  0  0  0  0  0999 V2000
    1.3778   -0.6812    0.2772 C   0  0  0  0  0  3  0  0  0  1  0  0
    0.4890    0.2108   -0.0590 C   0  0  0  0  0  0  0  0  0  2  0  0
   -1.0010    0.0286   -0.0323 C   0  0  0  0  0  0  0  0  0  3  0  0
    2.4535   -0.7507    0.3287 H   0  0  0  0  0  0  0  0  0  4  0  0
    0.8447    1.1899   -0.3945 H   0  0  0  0  0  0  0  0  0  5  0  0
   -1.4635    0.7638    0.6301 H   0  0  0  0  0  0  0  0  0  6  0  0
   -1.2709   -0.9687    0.3117 H   0  0  0  0  0  0  0  0  0  7  0  0
   -1.4218    0.1801   -1.0289 H   0  0  0  0  0  0  0  0  0  8  0  0
  1  4  1  0
  1  2  1  0
  2  5  1  0
  2  3  1  0
  3  6  1  0
  3  7  1  0
  3  8  1  0
M  RAD  1   1   2
M  END
>  <rmg_smiles>  (4) 
[CH][CH]C

>  <rmg_adjacency_list>  (4) 
multiplicity 2
1 C u0 p0 c0 {2,S} {4,S} {5,S} {6,S}
2 C u0 p0 c0 {1,S} {3,S} {7,S}
3 C u1 p1 c0 {2,S} {8,S}
4 H u0 p0 c0 {1,S}
5 H u0 p0 c0 {1,S}
6 H u0 p0 c0 {1,S}
7 H u0 p0 c0 {2,S}
8 H u0 p0 c0 {3,S}


>  <multiplicity>  (4) 
2

>  <reaction>  (4) 
rmg_rxn_354

>  <type>  (4) 
r1

>  <role_mapnums>  (4) 
{}

>  <role_mapidx>  (4) 
{}

>  <ordered_mapped_smiles>  (4) 
[CH:1]([CH:2]([C:3]([H:6])([H:7])[H:8])[H:5])[H:4]

>  <level_of_theory>  (4) 
wb97xd/def2tzvp

>  <lot_method>  (4) 
wb97xd

>  <lot_basis>  (4) 
def2tzvp

>  <spin_multiplicity>  (4) 
2.0

>  <optical_isomers>  (4) 
1.0

>  <modes>  (4) 
IdealGasTranslation(mass=(41.0391, 'amu')),         NonlinearRotor(             inertia = ([8.69051, 52.7378, 58.3092

>  <frequency_value>  (4) 
unknown

>  <frequency_units>  (4) 
unknown

>  <frequency_list>  (4) 
unknown

>  <arkane_path>  (4) 
/home/calvin/Dropbox/PersonalFolders/Calvin/ATLAS_Converged/rmg_rxn_354/output/Species/rmg_rxn_354_p1_sbr-CH-sbr=CC/arkane/output.py

>  <path_exists>  (4) 
True

>  <E0_value>  (4) 
-307594.3811372411

>  <E0_units>  (4) 
kJ/mol

>  <thermo_class>  (4) 
NASA

>  <Cp0_value>  (4) 
33.257888

>  <Cp0_units>  (4) 
J/(mol*K)

>  <CpInf_value>  (4) 
182.918384

>  <CpInf_units>  (4) 
J/(mol*K)

>  <Tmin_value>  (4) 
10.0

>  <Tmin_units>  (4) 
K

>  <Tmax_value>  (4) 
3000.0

>  <Tmax_units>  (4) 
K

>  <polynomials>  (4) 
[{"name": "polynomial1", "class": "NASAPolynomial", "Tmin_value": 10.0, "Tmin_units": "K", "Tmax_value": 481.0435142823728, "Tmax_units": "K", "coeffs": [3.9727991601474284, 0.0015660485202043182, 6.167214282882254e-05, -1.0205402306399866e-07, 5.477574200596452e-11, -36995057.25584206, 7.404471489365289]}, {"name": "polynomial2", "class": "NASAPolynomial", "Tmin_value": 481.0435142823728, "Tmin_units": "K", "Tmax_value": 3000.0, "Tmax_units": "K", "coeffs": [1.0134350199665534, 0.02617217573414392, -1.5049764067719394e-05, 4.265493157120896e-09, -4.749676510594084e-13, -36994772.51908542, 19.516247038101728]}]

>  <H298_value>  (4) 
-73513.59504496788

>  <H298_units>  (4) 
kcal/mol

>  <S298_value>  (4) 
64.48620704915899

>  <S298_units>  (4) 
cal/(mol*K)

>  <Cp_T_value_list>  (4) 
[15.264391809977674, 18.555665777647867, 21.542477084400776, 24.16168097728455, 28.43436620324965, 31.648990357486973, 36.56707396910277, 39.11456920322472, 40.43549191091649]

>  <Cp_T_units>  (4) 
cal/(mol*K)

>  <T_list>  (4) 
[300.0, 400.0, 500.0, 600.0, 800.0, 1000.0, 1500.0, 2000.0, 2400.0]

>  <T_units>  (4) 
K

>  <yaml_path>  (4) 
/home/calvin/Dropbox/PersonalFolders/Calvin/ATLAS_Converged/rmg_rxn_354/output/Species/rmg_rxn_354_p1_sbr-CH-sbr=CC/rmg_rxn_354_p1_sbr-CH-sbr=CC.yml

>  <frequencies_cm1>  (4) 
[191.17000432348, 405.3512764542799, 612.1368053954399, 794.34539387632, 826.7575645867199, 930.6344515223599, 1057.6324780304399, 1106.7863589509998, 1263.44976204148, 1394.05982282788, 1469.8576067900399, 1470.75718186696, 1689.7865456336797, 3013.59024165264, 3022.2975790384, 3075.38624254732, 3112.38555945148, 3222.5114030283203]

>  <ZPE_kJmol>  (4) 
171.41831607459883

>  <E_elec_kJmol>  (4) 
-307765.7994533157

>  <E0_minus_Eelec_plus_ZPE_kJmol>  (4) 
0.0

>  <rxn>  (4) 
rmg_rxn_354

>  <species_type>  (4) 
p0

>  <species_folder>  (4) 
rmg_rxn_354_p1_sbr-CH-sbr=CC

>  <frequencies_cm1_list>  (4) 
[191.17000432348, 405.3512764542799, 612.1368053954399, 794.34539387632, 826.7575645867199, 930.6344515223599, 1057.6324780304399, 1106.7863589509998, 1263.44976204148, 1394.05982282788, 1469.8576067900399, 1470.75718186696, 1689.7865456336797, 3013.59024165264, 3022.2975790384, 3075.38624254732, 3112.38555945148, 3222.5114030283203]

>  <E0_kJmol>  (4) 
-307594

>  <H298_kJmol>  (4) 
-307581

$$$$

     RDKit          3D

 14 13  0  0  0  0  0  0  0  0999 V2000
    2.6194    0.1388   -0.2451 C   0  0  0  0  0  0  0  0  0  1  0  0
    1.2416   -0.4914   -0.3670 C   0  0  0  0  0  0  0  0  0  2  0  0
    0.9567   -1.8675    0.7732 S   0  0  0  0  0  0  0  0  0  3  0  0
    1.9992   -3.0673    0.1320 C   0  0  0  0  0  3  0  0  0  4  0  0
    2.1769   -4.3519    0.8615 C   0  0  0  0  0  0  0  0  0  5  0  0
    3.4009   -0.5920   -0.4552 H   0  0  0  0  0  0  0  0  0  6  0  0
    2.7219    0.9635   -0.9540 H   0  0  0  0  0  0  0  0  0  7  0  0
    2.7821    0.5262    0.7612 H   0  0  0  0  0  0  0  0  0  8  0  0
    1.0587   -0.8507   -1.3815 H   0  0  0  0  0  0  0  0  0  9  0  0
    0.4587    0.2313   -0.1333 H   0  0  0  0  0  0  0  0  0 10  0  0
    2.2677   -2.9922   -0.9152 H   0  0  0  0  0  0  0  0  0 11  0  0
    1.3745   -5.0711    0.6500 H   0  0  0  0  0  0  0  0  0 12  0  0
    3.1173   -4.8269    0.5747 H   0  0  0  0  0  0  0  0  0 13  0  0
    2.1945   -4.1971    1.9428 H   0  0  0  0  0  0  0  0  0 14  0  0
  1  8  1  0
  1  7  1  0
  1  6  1  0
  1  2  1  0
  2 10  1  0
  2  9  1  0
  2  3  1  0
  3  4  1  0
  4  5  1  0
  4 11  1  0
  5 12  1  0
  5 14  1  0
  5 13  1  0
M  RAD  1   4   2
M  END
>  <rmg_smiles>  (5) 
CCS[CH]C

>  <rmg_adjacency_list>  (5) 
multiplicity 2
1  S u0 p2 c0 {2,S} {5,S}
2  C u0 p0 c0 {1,S} {3,S} {6,S} {7,S}
3  C u0 p0 c0 {2,S} {8,S} {9,S} {10,S}
4  C u0 p0 c0 {5,S} {11,S} {12,S} {13,S}
5  C u1 p0 c0 {1,S} {4,S} {14,S}
6  H u0 p0 c0 {2,S}
7  H u0 p0 c0 {2,S}
8  H u0 p0 c0 {3,S}
9  H u0 p0 c0 {3,S}
10 H u0 p0 c0 {3,S}
11 H u0 p0 c0 {4,S}
12 H u0 p0 c0 {4,S}
13 H u0 p0 c0 {4,S}
14 H u0 p0 c0 {5,S}


>  <multiplicity>  (5) 
2

>  <reaction>  (5) 
rmg_rxn_354

>  <type>  (5) 
r2

>  <role_mapnums>  (5) 
{}

>  <role_mapidx>  (5) 
{}

>  <ordered_mapped_smiles>  (5) 
[C:1]([C:2]([S:3][C:4]([C:5]([H:12])([H:13])[H:14])[H:11])([H:9])[H:10])([H:6])([H:7])[H:8]

>  <level_of_theory>  (5) 
wb97xd/def2tzvp

>  <lot_method>  (5) 
wb97xd

>  <lot_basis>  (5) 
def2tzvp

>  <spin_multiplicity>  (5) 
2.0

>  <optical_isomers>  (5) 
2.0

>  <modes>  (5) 
IdealGasTranslation(mass=(89.0425, 'amu')),         NonlinearRotor(             inertia = ([61.1392, 234.583, 269.728

>  <frequency_value>  (5) 
unknown

>  <frequency_units>  (5) 
unknown

>  <frequency_list>  (5) 
unknown

>  <arkane_path>  (5) 
/home/calvin/Dropbox/PersonalFolders/Calvin/ATLAS_Converged/rmg_rxn_354/output/Species/rmg_rxn_354_r2_CCSsbr-CH-sbrC/arkane/output.py

>  <path_exists>  (5) 
True

>  <E0_value>  (5) 
-1459485.5932708492

>  <E0_units>  (5) 
kJ/mol

>  <thermo_class>  (5) 
NASA

>  <Cp0_value>  (5) 
33.257888

>  <Cp0_units>  (5) 
J/(mol*K)

>  <CpInf_value>  (5) 
332.57888

>  <CpInf_units>  (5) 
J/(mol*K)

>  <Tmin_value>  (5) 
10.0

>  <Tmin_units>  (5) 
K

>  <Tmax_value>  (5) 
3000.0

>  <Tmax_units>  (5) 
K

>  <polynomials>  (5) 
[{"name": "polynomial1", "class": "NASAPolynomial", "Tmin_value": 10.0, "Tmin_units": "K", "Tmax_value": 454.73652427014537, "Tmax_units": "K", "coeffs": [3.493929872758391, 0.04996954034356644, -9.706557814371871e-05, 2.0442141353294147e-07, -1.6137135098939988e-10, -175535569.76703313, 12.309949975756851]}, {"name": "polynomial2", "class": "NASAPolynomial", "Tmin_value": 454.73652427014537, "Tmin_units": "K", "Tmax_value": 3000.0, "Tmax_units": "K", "coeffs": [1.385626895078579, 0.048785175139354195, -2.8078373702267293e-05, 7.871486597778785e-09, -8.60198315864174e-13, -175535174.03261974, 23.062818681609528]}]

>  <H298_value>  (5) 
-348819.9985643355

>  <H298_units>  (5) 
kcal/mol

>  <S298_value>  (5) 
87.9960956943955

>  <S298_units>  (5) 
cal/(mol*K)

>  <Cp_T_value_list>  (5) 
[27.74370824131066, 33.58998475979596, 39.12570036512099, 43.99134046831092, 51.90875846619441, 57.83509485748177, 66.76728096321004, 71.24374186653883, 73.55591166534288]

>  <Cp_T_units>  (5) 
cal/(mol*K)

>  <T_list>  (5) 
[300.0, 400.0, 500.0, 600.0, 800.0, 1000.0, 1500.0, 2000.0, 2400.0]

>  <T_units>  (5) 
K

>  <yaml_path>  (5) 
/home/calvin/Dropbox/PersonalFolders/Calvin/ATLAS_Converged/rmg_rxn_354/output/Species/rmg_rxn_354_r2_CCSsbr-CH-sbrC/rmg_rxn_354_r2_CCSsbr-CH-sbrC.yml

>  <frequencies_cm1>  (5) 
[75.52310454936, 94.65452565087999, 130.82293733132, 178.45921449616, 258.28105185583996, 303.93277026320004, 399.92635805147995, 433.28617273604, 673.1087680517201, 749.4147089275599, 777.8920970496, 982.3977868645198, 1001.81075436416, 1020.13873818324, 1056.2934158930398, 1066.42908622536, 1115.65850398444, 1268.2978536774, 1291.53573200028, 1305.242234699, 1399.3061996123597, 1400.4461191754801, 1458.1905987313598, 1459.3785871917198, 1474.98037783876, 1476.0447605633601, 1485.12978214172, 2961.25694652892, 3017.9164424042397, 3034.9122310712396, 3037.7551629937198, 3080.4884126400793, 3082.99486228188, 3091.5030570933595, 3108.8215940703994, 3146.2535310497196]

>  <ZPE_kJmol>  (5) 
310.42196217621137

>  <E_elec_kJmol>  (5) 
-1459796.0152330254

>  <E0_minus_Eelec_plus_ZPE_kJmol>  (5) 
0.0

>  <rxn>  (5) 
rmg_rxn_354

>  <species_type>  (5) 
r1

>  <species_folder>  (5) 
rmg_rxn_354_r2_CCSsbr-CH-sbrC

>  <frequencies_cm1_list>  (5) 
[75.52310454936, 94.65452565087999, 130.82293733132, 178.45921449616, 258.28105185583996, 303.93277026320004, 399.92635805147995, 433.28617273604, 673.1087680517201, 749.4147089275599, 777.8920970496, 982.3977868645198, 1001.81075436416, 1020.13873818324, 1056.2934158930398, 1066.42908622536, 1115.65850398444, 1268.2978536774, 1291.53573200028, 1305.242234699, 1399.3061996123597, 1400.4461191754801, 1458.1905987313598, 1459.3785871917198, 1474.98037783876, 1476.0447605633601, 1485.12978214172, 2961.25694652892, 3017.9164424042397, 3034.9122310712396, 3037.7551629937198, 3080.4884126400793, 3082.99486228188, 3091.5030570933595, 3108.8215940703994, 3146.2535310497196]

>  <E0_kJmol>  (5) 
-1.45949e+06

>  <H298_kJmol>  (5) 
-1.45946e+06

$$$$
