
     RDKit          3D

 14 13  0  0  0  0  0  0  0  0999 V2000
    1.9401    1.9497    0.3408 C   0  0  0  0  0  0  0  0  0  1  0  0
    0.7680    1.5154   -0.3379 O   0  0  0  0  0  0  0  0  0  2  0  0
    0.3382    0.2351    0.1287 C   0  0  0  0  0  0  0  0  0  3  0  0
   -0.9101   -0.1529   -0.6416 C   0  0  0  0  0  0  0  0  0  4  0  0
   -1.4389   -1.4941   -0.2169 C   0  0  0  0  0  0  0  0  0  5  0  0
   -0.9299   -2.1994    0.6483 O   0  0  0  0  0  0  0  0  0  6  0  0
    2.7639    1.2516    0.1668 H   0  0  0  0  0  0  0  0  0  7  0  0
    1.7476    2.0469    1.4136 H   0  0  0  0  0  0  0  0  0  8  0  0
    2.2229    2.9293   -0.0537 H   0  0  0  0  0  0  0  0  0  9  0  0
    1.1344   -0.5010   -0.0346 H   0  0  0  0  0  0  0  0  0 10  0  0
    0.1253    0.2888    1.2030 H   0  0  0  0  0  0  0  0  0 11  0  0
   -0.7003   -0.1880   -1.7161 H   0  0  0  0  0  0  0  0  0 12  0  0
   -1.6983    0.5930   -0.4922 H   0  0  0  0  0  0  0  0  0 13  0  0
   -2.3483   -1.8269   -0.7461 H   0  0  0  0  0  0  0  0  0 14  0  0
  1  8  1  0
  1  7  1  0
  1  9  1  0
  1  2  1  0
  2  3  1  0
  3  4  1  0
  3 11  1  0
  3 10  1  0
  4  5  1  0
  4 13  1  0
  4 12  1  0
  5  6  1  0
  5 14  1  0
M  END
>  <rmg_smiles>  (1) 
COCC[CH]O

>  <rmg_adjacency_list>  (1) 
1  O u0 p2 c0 {4,S} {5,S}
2  O u0 p2 c0 {6,S}
3  C u0 p0 c0 {4,S} {6,S} {7,S} {8,S}
4  C u0 p0 c0 {1,S} {3,S} {9,S} {10,S}
5  C u0 p0 c0 {1,S} {11,S} {12,S} {13,S}
6  C u0 p0 c0 {2,S} {3,S} {14,S}
7  H u0 p0 c0 {3,S}
8  H u0 p0 c0 {3,S}
9  H u0 p0 c0 {4,S}
10 H u0 p0 c0 {4,S}
11 H u0 p0 c0 {5,S}
12 H u0 p0 c0 {5,S}
13 H u0 p0 c0 {5,S}
14 H u0 p0 c0 {6,S}


>  <multiplicity>  (1) 
1

>  <reaction>  (1) 
rmg_rxn_1344

>  <type>  (1) 
r1h

>  <role_mapnums>  (1) 
{"r1h_a": 1, "r1h_h": 7}

>  <role_mapidx>  (1) 
{"r1h_a": 0, "r1h_h": 6}

>  <ordered_mapped_smiles>  (1) 
[C:1]([O:2][C:3]([C:4]([CH:5]([OH:6])[H:14])([H:12])[H:13])([H:10])[H:11])([H:7])([H:8])[H:9]

>  <mol_properties>  (1) 
{"0": {"label": "donator", "atom_type": "Cs"}, "6": {"label": "d_hydrogen", "atom_type": "H0"}}

>  <level_of_theory>  (1) 
wb97xd/def2tzvp

>  <lot_method>  (1) 
wb97xd

>  <lot_basis>  (1) 
def2tzvp

>  <spin_multiplicity>  (1) 
1.0

>  <optical_isomers>  (1) 
1.0

>  <modes>  (1) 
IdealGasTranslation(mass=(88.0524, 'amu')),         NonlinearRotor(             inertia = ([44.5755, 319.739, 354.742

>  <frequency_value>  (1) 
unknown

>  <frequency_units>  (1) 
unknown

>  <frequency_list>  (1) 
unknown

>  <arkane_path>  (1) 
/home/calvin/Dropbox/PersonalFolders/Calvin/ATLAS_Converged/rmg_rxn_1344/output/Species/rmg_rxn_1344_r2_COCCC=O/arkane/output.py

>  <path_exists>  (1) 
True

>  <E0_value>  (1) 
-807523.0692133828

>  <E0_units>  (1) 
kJ/mol

>  <thermo_class>  (1) 
NASA

>  <Cp0_value>  (1) 
33.257888

>  <Cp0_units>  (1) 
J/(mol*K)

>  <CpInf_value>  (1) 
332.57888

>  <CpInf_units>  (1) 
J/(mol*K)

>  <Tmin_value>  (1) 
10.0

>  <Tmin_units>  (1) 
K

>  <Tmax_value>  (1) 
3000.0

>  <Tmax_units>  (1) 
K

>  <polynomials>  (1) 
[{"name": "polynomial1", "class": "NASAPolynomial", "Tmin_value": 10.0, "Tmin_units": "K", "Tmax_value": 1204.677878169956, "Tmax_units": "K", "coeffs": [3.790465311208139, 0.030699920677143125, 9.705173370391078e-06, -2.2350985107123487e-08, 7.493684368045059e-12, -97122593.77472001, 10.236283451255074]}, {"name": "polynomial2", "class": "NASAPolynomial", "Tmin_value": 1204.677878169956, "Tmin_units": "K", "Tmax_value": 3000.0, "Tmax_units": "K", "coeffs": [7.657827754436762, 0.03474573361246971, -1.635919198395561e-05, 3.709149991149387e-09, -3.292149943200658e-13, -97124750.91916926, -14.227492678605005]}]

>  <H298_value>  (1) 
-192997.60667747093

>  <H298_units>  (1) 
kcal/mol

>  <S298_value>  (1) 
81.92862073686686

>  <S298_units>  (1) 
cal/(mol*K)

>  <Cp_T_value_list>  (1) 
[26.491706935587295, 32.55965635598301, 38.23623996575659, 43.41578980901889, 52.039814351960636, 58.3011782557252, 67.20727720396616, 71.77449485623696, 73.8671854880944]

>  <Cp_T_units>  (1) 
cal/(mol*K)

>  <T_list>  (1) 
[300.0, 400.0, 500.0, 600.0, 800.0, 1000.0, 1500.0, 2000.0, 2400.0]

>  <T_units>  (1) 
K

>  <yaml_path>  (1) 
/home/calvin/Dropbox/PersonalFolders/Calvin/ATLAS_Converged/rmg_rxn_1344/output/Species/rmg_rxn_1344_r2_COCCC=O/rmg_rxn_1344_r2_COCCC=O.yml

>  <frequencies_cm1>  (1) 
[119.45120964139998, 126.72334709527999, 181.116737815, 228.09378438912, 254.05098889872, 316.95257442992, 441.25187570724, 683.77319625368, 694.6779689418399, 886.61707562116, 906.60000290236, 959.42772096912, 1080.58194296988, 1116.1185920008797, 1122.2714108475998, 1168.5411579337601, 1202.02457835408, 1219.26071150728, 1296.5280303279199, 1314.7186744406, 1384.4597773505197, 1408.2744824402798, 1440.37763881128, 1463.0798922791998, 1479.6361938857199, 1483.0628195603997, 1499.1178312385598, 1681.9513153835596, 2935.04566356248, 2975.2106606991597, 2980.62871211664, 3013.01341488576, 3021.32933410828, 3049.1680925955598, 3058.9329457206, 3074.12271724844]

>  <ZPE_kJmol>  (1) 
306.640018612928

>  <E_elec_kJmol>  (1) 
-807829.7092319957

>  <E0_minus_Eelec_plus_ZPE_kJmol>  (1) 
0.0

>  <rxn>  (1) 
rmg_rxn_1344

>  <species_type>  (1) 
r1

>  <species_folder>  (1) 
rmg_rxn_1344_r2_COCCC=O

>  <frequencies_cm1_list>  (1) 
[119.45120964139998, 126.72334709527999, 181.116737815, 228.09378438912, 254.05098889872, 316.95257442992, 441.25187570724, 683.77319625368, 694.6779689418399, 886.61707562116, 906.60000290236, 959.42772096912, 1080.58194296988, 1116.1185920008797, 1122.2714108475998, 1168.5411579337601, 1202.02457835408, 1219.26071150728, 1296.5280303279199, 1314.7186744406, 1384.4597773505197, 1408.2744824402798, 1440.37763881128, 1463.0798922791998, 1479.6361938857199, 1483.0628195603997, 1499.1178312385598, 1681.9513153835596, 2935.04566356248, 2975.2106606991597, 2980.62871211664, 3013.01341488576, 3021.32933410828, 3049.1680925955598, 3058.9329457206, 3074.12271724844]

>  <E0_kJmol>  (1) 
-807523

>  <H298_kJmol>  (1) 
-807502

$$$$

     RDKit          3D

  9  8  0  0  0  0  0  0  0  0999 V2000
   -0.2052    1.2489    0.0861 C   0  0  0  0  0  0  0  0  0  1  0  0
   -0.4428   -0.0514   -0.1252 C   0  0  0  0  0  0  0  0  0  2  0  0
    0.5880   -1.1241    0.0055 C   0  0  0  0  0  0  0  0  0  3  0  0
    0.7773    1.6109    0.3729 H   0  0  0  0  0  0  0  0  0  4  0  0
   -1.4436   -0.3675   -0.4111 H   0  0  0  0  0  0  0  0  0  5  0  0
    0.2769   -1.8496    0.7633 H   0  0  0  0  0  0  0  0  0  6  0  0
    1.5421   -0.6882    0.3170 H   0  0  0  0  0  0  0  0  0  7  0  0
    0.7482   -1.6601   -0.9354 H   0  0  0  0  0  0  0  0  0  8  0  0
   -1.0229    1.9417    0.2588 H   0  0  0  0  0  0  0  0  0  9  0  0
  1  9  1  0
  1  4  1  0
  1  2  1  0
  2  5  1  0
  2  3  1  0
  3  6  1  0
  3  7  1  0
  3  8  1  0
M  END
>  <rmg_smiles>  (2) 
[CH2][CH]C

>  <rmg_adjacency_list>  (2) 
1 C u0 p0 c0 {2,S} {4,S} {5,S} {6,S}
2 C u0 p0 c0 {1,S} {3,S} {7,S}
3 C u0 p0 c0 {2,S} {8,S} {9,S}
4 H u0 p0 c0 {1,S}
5 H u0 p0 c0 {1,S}
6 H u0 p0 c0 {1,S}
7 H u0 p0 c0 {2,S}
8 H u0 p0 c0 {3,S}
9 H u0 p0 c0 {3,S}


>  <multiplicity>  (2) 
1

>  <reaction>  (2) 
rmg_rxn_1344

>  <type>  (2) 
r2h

>  <role_mapnums>  (2) 
{"r2h_a": 1, "r2h_h": 9}

>  <role_mapidx>  (2) 
{"r2h_a": 0, "r2h_h": 8}

>  <ordered_mapped_smiles>  (2) 
[CH:1]([CH:2]([C:3]([H:6])([H:7])[H:8])[H:5])([H:4])[H:9]

>  <mol_properties>  (2) 
{"0": {"label": "acceptor", "atom_type": "Cs"}, "8": {"label": "a_hydrogen", "atom_type": "H0"}}

>  <level_of_theory>  (2) 
wb97xd/def2tzvp

>  <lot_method>  (2) 
wb97xd

>  <lot_basis>  (2) 
def2tzvp

>  <spin_multiplicity>  (2) 
1.0

>  <optical_isomers>  (2) 
2.0

>  <modes>  (2) 
IdealGasTranslation(mass=(42.047, 'amu')),         NonlinearRotor(             inertia = ([10.9527, 53.8719, 61.6581

>  <frequency_value>  (2) 
unknown

>  <frequency_units>  (2) 
unknown

>  <frequency_list>  (2) 
unknown

>  <arkane_path>  (2) 
/home/calvin/Dropbox/PersonalFolders/Calvin/ATLAS_Converged/rmg_rxn_1344/output/Species/rmg_rxn_1344_p1_C=CC/arkane/output.py

>  <path_exists>  (2) 
True

>  <E0_value>  (2) 
-309368.2939292528

>  <E0_units>  (2) 
kJ/mol

>  <thermo_class>  (2) 
NASA

>  <Cp0_value>  (2) 
33.257888

>  <Cp0_units>  (2) 
J/(mol*K)

>  <CpInf_value>  (2) 
207.8618

>  <CpInf_units>  (2) 
J/(mol*K)

>  <Tmin_value>  (2) 
10.0

>  <Tmin_units>  (2) 
K

>  <Tmax_value>  (2) 
3000.0

>  <Tmax_units>  (2) 
K

>  <polynomials>  (2) 
[{"name": "polynomial1", "class": "NASAPolynomial", "Tmin_value": 10.0, "Tmin_units": "K", "Tmax_value": 443.7702541275362, "Tmax_units": "K", "coeffs": [4.037493337650119, -0.0025529234821113555, 7.293202608482641e-05, -9.432145151020152e-08, 3.4462917424126785e-11, -37208411.363720745, 7.577786141789354]}, {"name": "polynomial2", "class": "NASAPolynomial", "Tmin_value": 443.7702541275362, "Tmin_units": "K", "Tmax_value": 3000.0, "Tmax_units": "K", "coeffs": [-0.5646047763679809, 0.03161671588859422, -1.7849647114209424e-05, 4.927519678875225e-09, -5.318542292203925e-13, -37207930.90885763, 26.852513235003023]}]

>  <H298_value>  (2) 
-73937.69014229135

>  <H298_units>  (2) 
kcal/mol

>  <S298_value>  (2) 
64.17332963526479

>  <S298_units>  (2) 
cal/(mol*K)

>  <Cp_T_value_list>  (2) 
[15.039117356819386, 18.940315365375863, 22.582695079060233, 25.783940239052157, 31.020365744109274, 34.97111724307873, 41.00924515537103, 44.077687488520375, 45.65394532147635]

>  <Cp_T_units>  (2) 
cal/(mol*K)

>  <T_list>  (2) 
[300.0, 400.0, 500.0, 600.0, 800.0, 1000.0, 1500.0, 2000.0, 2400.0]

>  <T_units>  (2) 
K

>  <yaml_path>  (2) 
/home/calvin/Dropbox/PersonalFolders/Calvin/ATLAS_Converged/rmg_rxn_1344/output/Species/rmg_rxn_1344_p1_C=CC/rmg_rxn_1344_p1_C=CC.yml

>  <frequencies_cm1>  (2) 
[248.41319395099998, 447.04761131732, 601.7607905769199, 928.0043961448, 949.7658726238799, 950.2946304935199, 1021.7044108361999, 1074.5458628735998, 1192.9601577316798, 1308.2637082398, 1396.09931746792, 1437.9535929933202, 1470.12541921752, 1479.8696713866, 1668.03880312524, 2988.2029969246, 3057.39474100892, 3063.6917665473593, 3096.47475446504, 3116.9727056452393, 3186.8786162028396]

>  <ZPE_kJmol>  (2) 
207.45921919406075

>  <E_elec_kJmol>  (2) 
-309575.75314844685

>  <E0_minus_Eelec_plus_ZPE_kJmol>  (2) 
0.0

>  <rxn>  (2) 
rmg_rxn_1344

>  <species_type>  (2) 
p0

>  <species_folder>  (2) 
rmg_rxn_1344_p1_C=CC

>  <frequencies_cm1_list>  (2) 
[248.41319395099998, 447.04761131732, 601.7607905769199, 928.0043961448, 949.7658726238799, 950.2946304935199, 1021.7044108361999, 1074.5458628735998, 1192.9601577316798, 1308.2637082398, 1396.09931746792, 1437.9535929933202, 1470.12541921752, 1479.8696713866, 1668.03880312524, 2988.2029969246, 3057.39474100892, 3063.6917665473593, 3096.47475446504, 3116.9727056452393, 3186.8786162028396]

>  <E0_kJmol>  (2) 
-309368

>  <H298_kJmol>  (2) 
-309355

$$$$

     RDKit          3D

 22 20  0  0  0  0  0  0  0  0999 V2000
    2.5317    0.5982   -0.0196 C   0  0  0  0  0  0  0  0  0  1  0  0
    2.2941   -0.7020   -0.2310 C   0  0  0  0  0  0  0  0  0  2  0  0
    3.3249   -1.7748   -0.1003 C   0  0  0  0  0  0  0  0  0  3  0  0
    3.5142    0.9603    0.2671 H   0  0  0  0  0  0  0  0  0  4  0  0
    1.2933   -1.0182   -0.5169 H   0  0  0  0  0  0  0  0  0  5  0  0
    3.0138   -2.5003    0.6575 H   0  0  0  0  0  0  0  0  0  6  0  0
    4.2790   -1.3389    0.2113 H   0  0  0  0  0  0  0  0  0  7  0  0
    3.4851   -2.3108   -1.0412 H   0  0  0  0  0  0  0  0  0  8  0  0
    0.5613    2.2678    0.3965 C   0  0  0  0  0  3  0  0  0  9  0  0
   -0.6108    1.8335   -0.2822 O   0  0  0  0  0  0  0  0  0 10  0  0
   -1.0406    0.5532    0.1844 C   0  0  0  0  0  0  0  0  0 11  0  0
   -2.2889    0.1653   -0.5859 C   0  0  0  0  0  0  0  0  0 12  0  0
   -2.8177   -1.1760   -0.1612 C   0  0  0  0  0  0  0  0  0 13  0  0
   -2.3087   -1.8813    0.7040 O   0  0  0  0  0  0  0  0  0 14  0  0
    1.5503    1.4298    0.1876 H   0  0  0  0  0  0  0  0  0 15  0  0
    0.3688    2.3651    1.4693 H   0  0  0  0  0  0  0  0  0 16  0  0
    0.8441    3.2474    0.0020 H   0  0  0  0  0  0  0  0  0 17  0  0
   -0.2444   -0.1828    0.0211 H   0  0  0  0  0  0  0  0  0 18  0  0
   -1.2535    0.6070    1.2587 H   0  0  0  0  0  0  0  0  0 19  0  0
   -2.0791    0.1301   -1.6604 H   0  0  0  0  0  0  0  0  0 20  0  0
   -3.0771    0.9112   -0.4365 H   0  0  0  0  0  0  0  0  0 21  0  0
   -3.7271   -1.5087   -0.6904 H   0  0  0  0  0  0  0  0  0 22  0  0
  1  4  1  0
  1 15  1  0
  1  2  1  0
  2  3  1  0
  2  5  1  0
  3  6  1  0
  3  8  1  0
  3  7  1  0
  9 10  1  0
  9 17  1  0
  9 16  1  0
 10 11  1  0
 11 19  1  0
 11 12  1  0
 11 18  1  0
 12 20  1  0
 12 21  1  0
 12 13  1  0
 13 22  1  0
 13 14  1  0
M  RAD  1   9   2
M  END
>  <rmg_smiles>  (3) 
[CH2]OCC[CH]O.[CH2][CH]C

>  <rmg_adjacency_list>  (3) 
multiplicity 2
1  O u0 p2 c0 {4,S} {9,S}
2  O u0 p2 c0 {7,S}
3  C u0 p0 c0 {4,S} {7,S} {10,S} {11,S}
4  C u0 p0 c0 {1,S} {3,S} {12,S} {13,S}
5  C u0 p0 c0 {6,S} {14,S} {15,S} {16,S}
6  C u0 p0 c0 {5,S} {8,S} {17,S}
7  C u0 p0 c0 {2,S} {3,S} {18,S}
8  C u0 p0 c0 {6,S} {19,S} {20,S}
9  C u1 p0 c0 {1,S} {21,S} {22,S}
10 H u0 p0 c0 {3,S}
11 H u0 p0 c0 {3,S}
12 H u0 p0 c0 {4,S}
13 H u0 p0 c0 {4,S}
14 H u0 p0 c0 {5,S}
15 H u0 p0 c0 {5,S}
16 H u0 p0 c0 {5,S}
17 H u0 p0 c0 {6,S}
18 H u0 p0 c0 {7,S}
19 H u0 p0 c0 {8,S}
20 H u0 p0 c0 {8,S}
21 H u0 p0 c0 {9,S}
22 H u0 p0 c0 {9,S}


>  <multiplicity>  (3) 
2

>  <reaction>  (3) 
rmg_rxn_1344

>  <type>  (3) 
ts

>  <role_mapnums>  (3) 
{"*2": 15, "*1": 9, "*3": 1, "*0": 2, "*4": 10}

>  <role_mapidx>  (3) 
{"*2": 14, "*1": 8, "*3": 0, "*0": 1, "*4": 9}

>  <ordered_mapped_smiles>  (3) 
[CH:1]([CH:2]([C:3]([H:6])([H:7])[H:8])[H:5])([H:4])[H:15].[C:9]([O:10][C:11]([C:12]([CH:13]([OH:14])[H:22])([H:20])[H:21])([H:18])[H:19])([H:16])[H:17]

>  <mol_properties>  (3) 
{"0": {"label": "*3", "atom_type": "Cs"}, "1": {"label": "*0", "atom_type": "Cs"}, "8": {"label": "*1", "atom_type": "Cs"}, "9": {"label": "*4", "atom_type": "O2s"}, "14": {"label": "*2", "atom_type": "H0"}}

>  <level_of_theory>  (3) 
wb97xd/def2tzvp

>  <lot_method>  (3) 
wb97xd

>  <lot_basis>  (3) 
def2tzvp

>  <spin_multiplicity>  (3) 
2.0

>  <optical_isomers>  (3) 
2.0

>  <modes>  (3) 
IdealGasTranslation(mass=(129.092, 'amu')),         NonlinearRotor(             inertia = ([303.458, 651.278, 903.414

>  <frequency_value>  (3) 
-1469.2

>  <frequency_units>  (3) 
cm^-1

>  <frequency_list>  (3) 
unknown

>  <arkane_path>  (3) 
/home/calvin/Dropbox/PersonalFolders/Calvin/ATLAS_Converged/rmg_rxn_1344/output/rxns/TS0/arkane/output.py

>  <path_exists>  (3) 
True

>  <E0_value>  (3) 
-1115100.0

>  <E0_units>  (3) 
kJ/mol

>  <thermo_class>  (3) 
unknown

>  <Cp0_value>  (3) 
unknown

>  <Cp0_units>  (3) 
unknown

>  <CpInf_value>  (3) 
unknown

>  <CpInf_units>  (3) 
unknown

>  <Tmin_value>  (3) 
unknown

>  <Tmin_units>  (3) 
unknown

>  <Tmax_value>  (3) 
unknown

>  <Tmax_units>  (3) 
unknown

>  <polynomials>  (3) 
unknown

>  <H298_value>  (3) 
unknown

>  <H298_units>  (3) 
unknown

>  <S298_value>  (3) 
unknown

>  <S298_units>  (3) 
unknown

>  <Cp_T_value_list>  (3) 
unknown

>  <Cp_T_units>  (3) 
unknown

>  <T_list>  (3) 
unknown

>  <T_units>  (3) 
unknown

>  <yaml_path>  (3) 
unknown

>  <frequencies_cm1>  (3) 
unknown

>  <ZPE_kJmol>  (3) 
unknown

>  <E_elec_kJmol>  (3) 
unknown

>  <E0_minus_Eelec_plus_ZPE_kJmol>  (3) 
unknown

>  <rxn>  (3) 
unknown

>  <species_type>  (3) 
unknown

>  <species_folder>  (3) 
unknown

>  <frequencies_cm1_list>  (3) 
[]

>  <ts_imag_freq_cm1>  (3) 
-1487.041

>  <ts_freq_out_path>  (3) 
/home/calvin/Dropbox/PersonalFolders/Calvin/ATLAS_Converged/rmg_rxn_1344/output/rxns/TS0/geometry/freq.out

>  <E0_kJmol>  (3) 
-1.1151e+06

>  <H298_kJmol>  (3) 
unknown

$$$$

     RDKit          3D

 13 12  0  0  0  0  0  0  0  0999 V2000
   -2.7070   -0.4344   -0.2055 C   0  0  0  0  0  3  0  0  0  1  0  0
   -1.6720    0.4487    0.0704 O   0  0  0  0  0  0  0  0  0  2  0  0
   -0.3991   -0.2089    0.0000 C   0  0  0  0  0  0  0  0  0  3  0  0
    0.6760    0.8635    0.0035 C   0  0  0  0  0  0  0  0  0  4  0  0
    2.0575    0.2721   -0.0091 C   0  0  0  0  0  0  0  0  0  5  0  0
    2.2973   -0.9310   -0.0033 O   0  0  0  0  0  0  0  0  0  6  0  0
   -3.6755    0.0422    0.2382 H   0  0  0  0  0  0  0  0  0  7  0  0
   -2.5094   -1.4767    0.5114 H   0  0  0  0  0  0  0  0  0  8  0  0
   -0.3167   -0.8506   -0.8718 H   0  0  0  0  0  0  0  0  0  9  0  0
   -0.2954   -0.8300    0.9139 H   0  0  0  0  0  0  0  0  0 10  0  0
    0.5688    1.4911   -0.8987 H   0  0  0  0  0  0  0  0  0 11  0  0
    0.5799    1.5212    0.8631 H   0  0  0  0  0  0  0  0  0 12  0  0
    2.8808    1.0068   -0.0260 H   0  0  0  0  0  0  0  0  0 13  0  0
  1  8  1  0
  1  7  1  0
  1  2  1  0
  2  3  1  0
  3  4  1  0
  3  9  1  0
  3 10  1  0
  4  5  1  0
  4 12  1  0
  4 11  1  0
  5  6  1  0
  5 13  1  0
M  RAD  1   1   2
M  END
>  <rmg_smiles>  (4) 
[CH2]OCC[CH]O

>  <rmg_adjacency_list>  (4) 
multiplicity 2
1  O u0 p2 c0 {4,S} {6,S}
2  O u0 p2 c0 {5,S}
3  C u0 p0 c0 {4,S} {5,S} {7,S} {8,S}
4  C u0 p0 c0 {1,S} {3,S} {9,S} {10,S}
5  C u0 p0 c0 {2,S} {3,S} {11,S}
6  C u1 p0 c0 {1,S} {12,S} {13,S}
7  H u0 p0 c0 {3,S}
8  H u0 p0 c0 {3,S}
9  H u0 p0 c0 {4,S}
10 H u0 p0 c0 {4,S}
11 H u0 p0 c0 {5,S}
12 H u0 p0 c0 {6,S}
13 H u0 p0 c0 {6,S}


>  <multiplicity>  (4) 
2

>  <reaction>  (4) 
rmg_rxn_1344

>  <type>  (4) 
r1

>  <role_mapnums>  (4) 
{}

>  <role_mapidx>  (4) 
{}

>  <ordered_mapped_smiles>  (4) 
[C:1]([O:2][C:3]([C:4]([CH:5]([OH:6])[H:13])([H:11])[H:12])([H:9])[H:10])([H:7])[H:8]

>  <level_of_theory>  (4) 
wb97xd/def2tzvp

>  <lot_method>  (4) 
wb97xd

>  <lot_basis>  (4) 
def2tzvp

>  <spin_multiplicity>  (4) 
2.0

>  <optical_isomers>  (4) 
2.0

>  <modes>  (4) 
IdealGasTranslation(mass=(87.0446, 'amu')),         NonlinearRotor(             inertia = ([42.6978, 308.679, 343.305

>  <frequency_value>  (4) 
unknown

>  <frequency_units>  (4) 
unknown

>  <frequency_list>  (4) 
unknown

>  <arkane_path>  (4) 
/home/calvin/Dropbox/PersonalFolders/Calvin/ATLAS_Converged/rmg_rxn_1344/output/Species/rmg_rxn_1344_p2_sbr-CH2-sbrOCCC=O/arkane/output.py

>  <path_exists>  (4) 
True

>  <E0_value>  (4) 
-805817.2707726001

>  <E0_units>  (4) 
kJ/mol

>  <thermo_class>  (4) 
NASA

>  <Cp0_value>  (4) 
33.257888

>  <Cp0_units>  (4) 
J/(mol*K)

>  <CpInf_value>  (4) 
307.635464

>  <CpInf_units>  (4) 
J/(mol*K)

>  <Tmin_value>  (4) 
10.0

>  <Tmin_units>  (4) 
K

>  <Tmax_value>  (4) 
3000.0

>  <Tmax_units>  (4) 
K

>  <polynomials>  (4) 
[{"name": "polynomial1", "class": "NASAPolynomial", "Tmin_value": 10.0, "Tmin_units": "K", "Tmax_value": 848.7481586044175, "Tmax_units": "K", "coeffs": [3.8391832038762055, 0.017648908552463077, 5.587439355546979e-05, -8.223625298538009e-08, 3.285208394099403e-11, -96917433.13816744, 11.66847398088421]}, {"name": "polynomial2", "class": "NASAPolynomial", "Tmin_value": 848.7481586044175, "Tmin_units": "K", "Tmax_value": 3000.0, "Tmax_units": "K", "coeffs": [1.3874589095296035, 0.04688441111892003, -2.7041477707297145e-05, 7.435878454552619e-09, -7.904896269928865e-13, -96917653.80354828, 19.342890965820466]}]

>  <H298_value>  (4) 
-192590.4344562697

>  <H298_units>  (4) 
kcal/mol

>  <S298_value>  (4) 
80.72095618465457

>  <S298_units>  (4) 
cal/(mol*K)

>  <Cp_T_value_list>  (4) 
[24.26036193304411, 30.635853978169912, 36.57644235906376, 41.806670424041755, 49.81762549684448, 55.394933517948274, 63.521029559920144, 67.22632935172831, 68.99217135295126]

>  <Cp_T_units>  (4) 
cal/(mol*K)

>  <T_list>  (4) 
[300.0, 400.0, 500.0, 600.0, 800.0, 1000.0, 1500.0, 2000.0, 2400.0]

>  <T_units>  (4) 
K

>  <yaml_path>  (4) 
/home/calvin/Dropbox/PersonalFolders/Calvin/ATLAS_Converged/rmg_rxn_1344/output/Species/rmg_rxn_1344_p2_sbr-CH2-sbrOCCC=O/rmg_rxn_1344_p2_sbr-CH2-sbrOCCC=O.yml

>  <frequencies_cm1>  (4) 
[136.21352080751998, 205.837884967, 226.22596438207998, 282.70005165376, 343.22566026423993, 493.44783112455997, 683.39551206108, 700.78271889132, 817.63820808176, 887.17330143208, 910.562253432, 984.2175379743198, 1086.60428909552, 1114.2507719938399, 1134.06202464204, 1217.44096039748, 1289.09108522636, 1298.6842637184, 1307.69374845824, 1330.11445552804, 1385.4142883099998, 1413.0882391496, 1444.51843095924, 1495.6843385785598, 1501.4457392620398, 1681.2783508221999, 1686.83374194608, 2455.7712901383993, 2883.4128009413994, 2934.66797936988, 2953.5727899558397, 3113.5117450439598, 3127.9392812012798]

>  <ZPE_kJmol>  (4) 
266.3276965840741

>  <E_elec_kJmol>  (4) 
-806083.5984691841

>  <E0_minus_Eelec_plus_ZPE_kJmol>  (4) 
0.0

>  <rxn>  (4) 
rmg_rxn_1344

>  <species_type>  (4) 
p1

>  <species_folder>  (4) 
rmg_rxn_1344_p2_sbr-CH2-sbrOCCC=O

>  <frequencies_cm1_list>  (4) 
[136.21352080751998, 205.837884967, 226.22596438207998, 282.70005165376, 343.22566026423993, 493.44783112455997, 683.39551206108, 700.78271889132, 817.63820808176, 887.17330143208, 910.562253432, 984.2175379743198, 1086.60428909552, 1114.2507719938399, 1134.06202464204, 1217.44096039748, 1289.09108522636, 1298.6842637184, 1307.69374845824, 1330.11445552804, 1385.4142883099998, 1413.0882391496, 1444.51843095924, 1495.6843385785598, 1501.4457392620398, 1681.2783508221999, 1686.83374194608, 2455.7712901383993, 2883.4128009413994, 2934.66797936988, 2953.5727899558397, 3113.5117450439598, 3127.9392812012798]

>  <E0_kJmol>  (4) 
-805817

>  <H298_kJmol>  (4) 
-805798

$$$$

     RDKit          3D

  8  7  0  0  0  0  0  0  0  0999 V2000
   -1.2175   -0.3643    0.0005 C   0  0  0  0  0  3  0  0  0  1  0  0
   -0.2018    0.5132    0.0014 C   0  0  0  0  0  0  0  0  0  2  0  0
    1.1283   -0.1797    0.0010 C   0  0  0  0  0  0  0  0  0  3  0  0
   -2.5072   -0.2196   -0.0003 H   0  0  0  0  0  0  0  0  0  4  0  0
   -0.1961    1.5628    0.0026 H   0  0  0  0  0  0  0  0  0  5  0  0
    1.7141    0.0860   -0.8855 H   0  0  0  0  0  0  0  0  0  6  0  0
    1.0028   -1.2905   -0.0222 H   0  0  0  0  0  0  0  0  0  7  0  0
    1.7328    0.0460    0.8882 H   0  0  0  0  0  0  0  0  0  8  0  0
  1  4  1  0
  1  2  1  0
  2  5  1  0
  2  3  1  0
  3  6  1  0
  3  7  1  0
  3  8  1  0
M  RAD  1   1   2
M  END
>  <rmg_smiles>  (5) 
[CH][CH]C

>  <rmg_adjacency_list>  (5) 
multiplicity 2
1 C u0 p0 c0 {2,S} {4,S} {5,S} {6,S}
2 C u0 p0 c0 {1,S} {3,S} {7,S}
3 C u1 p1 c0 {2,S} {8,S}
4 H u0 p0 c0 {1,S}
5 H u0 p0 c0 {1,S}
6 H u0 p0 c0 {1,S}
7 H u0 p0 c0 {2,S}
8 H u0 p0 c0 {3,S}


>  <multiplicity>  (5) 
2

>  <reaction>  (5) 
rmg_rxn_1344

>  <type>  (5) 
r2

>  <role_mapnums>  (5) 
{}

>  <role_mapidx>  (5) 
{}

>  <ordered_mapped_smiles>  (5) 
[CH:1]([CH:2]([C:3]([H:6])([H:7])[H:8])[H:5])[H:4]

>  <level_of_theory>  (5) 
wb97xd/def2tzvp

>  <lot_method>  (5) 
wb97xd

>  <lot_basis>  (5) 
def2tzvp

>  <spin_multiplicity>  (5) 
2.0

>  <optical_isomers>  (5) 
2.0

>  <modes>  (5) 
IdealGasTranslation(mass=(41.0391, 'amu')),         NonlinearRotor(             inertia = ([10.9072, 48.4593, 56.1947

>  <frequency_value>  (5) 
unknown

>  <frequency_units>  (5) 
unknown

>  <frequency_list>  (5) 
unknown

>  <arkane_path>  (5) 
/home/calvin/Dropbox/PersonalFolders/Calvin/ATLAS_Converged/rmg_rxn_1344/output/Species/rmg_rxn_1344_r1_sbr-CH-sbr=CC/arkane/output.py

>  <path_exists>  (5) 
True

>  <E0_value>  (5) 
-307600.47452299425

>  <E0_units>  (5) 
kJ/mol

>  <thermo_class>  (5) 
NASA

>  <Cp0_value>  (5) 
33.257888

>  <Cp0_units>  (5) 
J/(mol*K)

>  <CpInf_value>  (5) 
182.918384

>  <CpInf_units>  (5) 
J/(mol*K)

>  <Tmin_value>  (5) 
10.0

>  <Tmin_units>  (5) 
K

>  <Tmax_value>  (5) 
3000.0

>  <Tmax_units>  (5) 
K

>  <polynomials>  (5) 
[{"name": "polynomial1", "class": "NASAPolynomial", "Tmin_value": 10.0, "Tmin_units": "K", "Tmax_value": 636.548892769453, "Tmax_units": "K", "coeffs": [4.055646515218961, -0.004356744052355037, 8.101367469816174e-05, -1.1843468828749175e-07, 5.594080804471229e-11, -36995792.00202264, 8.136782259487122]}, {"name": "polynomial2", "class": "NASAPolynomial", "Tmin_value": 636.548892769453, "Tmin_units": "K", "Tmax_value": 3000.0, "Tmax_units": "K", "coeffs": [0.06408641410342747, 0.029022902790588063, -1.7195880981148696e-05, 4.898507508207815e-09, -5.395877519998709e-13, -36995451.935211286, 24.270404256571084]}]

>  <H298_value>  (5) 
-73515.25272003894

>  <H298_units>  (5) 
kcal/mol

>  <S298_value>  (5) 
64.79603301015491

>  <S298_units>  (5) 
cal/(mol*K)

>  <Cp_T_value_list>  (5) 
[14.497144347323145, 18.13803156092805, 21.506855600831532, 24.392083496095957, 28.941805680942227, 32.29216124207793, 37.177669193947565, 39.50770034582645, 40.70895822697211]

>  <Cp_T_units>  (5) 
cal/(mol*K)

>  <T_list>  (5) 
[300.0, 400.0, 500.0, 600.0, 800.0, 1000.0, 1500.0, 2000.0, 2400.0]

>  <T_units>  (5) 
K

>  <yaml_path>  (5) 
/home/calvin/Dropbox/PersonalFolders/Calvin/ATLAS_Converged/rmg_rxn_1344/output/Species/rmg_rxn_1344_r1_sbr-CH-sbr=CC/rmg_rxn_1344_r1_sbr-CH-sbr=CC.yml

>  <frequencies_cm1>  (5) 
[312.87358514984, 502.74572924783996, 506.20668984912, 906.6892737115198, 1008.6571387281999, 1045.9792039424, 1105.4953657108397, 1142.1856682756, 1251.9063597185598, 1420.2642388089998, 1429.23938862224, 1486.873996413, 1491.7220880489199, 1656.60527256744, 2826.02540462216, 2996.7867285746, 3040.98951307944, 3471.3915519810794]

>  <ZPE_kJmol>  (5) 
165.10048194584184

>  <E_elec_kJmol>  (5) 
-307765.5750049401

>  <E0_minus_Eelec_plus_ZPE_kJmol>  (5) 
0.0

>  <rxn>  (5) 
rmg_rxn_1344

>  <species_type>  (5) 
r0

>  <species_folder>  (5) 
rmg_rxn_1344_r1_sbr-CH-sbr=CC

>  <frequencies_cm1_list>  (5) 
[312.87358514984, 502.74572924783996, 506.20668984912, 906.6892737115198, 1008.6571387281999, 1045.9792039424, 1105.4953657108397, 1142.1856682756, 1251.9063597185598, 1420.2642388089998, 1429.23938862224, 1486.873996413, 1491.7220880489199, 1656.60527256744, 2826.02540462216, 2996.7867285746, 3040.98951307944, 3471.3915519810794]

>  <E0_kJmol>  (5) 
-307600

>  <H298_kJmol>  (5) 
-307588

$$$$
