
     RDKit          3D

 15 14  0  0  0  0  0  0  0  0999 V2000
    0.8130   -0.9188   -1.7215 C   0  0  0  0  0  0  0  0  0  1  0  0
    0.4147   -1.3878   -0.3285 C   0  0  0  0  0  0  0  0  0  2  0  0
    0.3201   -0.2529    0.6686 C   0  0  0  0  0  0  0  0  0  3  0  0
   -0.7093    0.6277    0.2714 O   0  0  0  0  0  0  0  0  0  4  0  0
   -0.8135    1.7508    1.0568 C   0  0  0  0  0  0  0  0  0  5  0  0
    1.7807   -0.4121   -1.6955 H   0  0  0  0  0  0  0  0  0  6  0  0
    0.0789   -0.2141   -2.1130 H   0  0  0  0  0  0  0  0  0  7  0  0
    0.8866   -1.7589   -2.4137 H   0  0  0  0  0  0  0  0  0  8  0  0
   -0.5481   -1.9039   -0.3648 H   0  0  0  0  0  0  0  0  0  9  0  0
    1.1459   -2.1069    0.0509 H   0  0  0  0  0  0  0  0  0 10  0  0
    0.1054   -0.6362    1.6758 H   0  0  0  0  0  0  0  0  0 11  0  0
    1.2723    0.2926    0.7117 H   0  0  0  0  0  0  0  0  0 12  0  0
    0.0634    2.3754    0.8734 H   0  0  0  0  0  0  0  0  0 13  0  0
   -0.8065    1.5431    2.1337 H   0  0  0  0  0  0  0  0  0 14  0  0
   -1.6682    2.3441    0.7410 H   0  0  0  0  0  0  0  0  0 15  0  0
  1  8  1  0
  1  7  1  0
  1  6  1  0
  1  2  1  0
  2 10  1  0
  2  9  1  0
  2  3  1  0
  3 11  1  0
  3  4  1  0
  3 12  1  0
  4  5  1  0
  5 13  1  0
  5 14  1  0
  5 15  1  0
M  END
>  <rmg_smiles>  (1) 
CCCOC

>  <rmg_adjacency_list>  (1) 
1  O u0 p2 c0 {3,S} {5,S}
2  C u0 p0 c0 {3,S} {4,S} {6,S} {7,S}
3  C u0 p0 c0 {1,S} {2,S} {8,S} {9,S}
4  C u0 p0 c0 {2,S} {10,S} {11,S} {12,S}
5  C u0 p0 c0 {1,S} {13,S} {14,S} {15,S}
6  H u0 p0 c0 {2,S}
7  H u0 p0 c0 {2,S}
8  H u0 p0 c0 {3,S}
9  H u0 p0 c0 {3,S}
10 H u0 p0 c0 {4,S}
11 H u0 p0 c0 {4,S}
12 H u0 p0 c0 {4,S}
13 H u0 p0 c0 {5,S}
14 H u0 p0 c0 {5,S}
15 H u0 p0 c0 {5,S}


>  <multiplicity>  (1) 
1

>  <reaction>  (1) 
rmg_rxn_15601

>  <type>  (1) 
r1h

>  <role_mapnums>  (1) 
{"r1h_a": 5, "r1h_h": 13}

>  <role_mapidx>  (1) 
{"r1h_a": 4, "r1h_h": 12}

>  <ordered_mapped_smiles>  (1) 
[C:1]([C:2]([C:3]([O:4][C:5]([H:13])([H:14])[H:15])([H:11])[H:12])([H:9])[H:10])([H:6])([H:7])[H:8]

>  <mol_properties>  (1) 
{"4": {"label": "donator", "atom_type": "Cs"}, "12": {"label": "d_hydrogen", "atom_type": "H0"}}

>  <level_of_theory>  (1) 
wb97xd/def2tzvp

>  <lot_method>  (1) 
wb97xd

>  <lot_basis>  (1) 
def2tzvp

>  <spin_multiplicity>  (1) 
1.0

>  <optical_isomers>  (1) 
2.0

>  <modes>  (1) 
IdealGasTranslation(mass=(74.0732, 'amu')),         NonlinearRotor(             inertia = ([40.784, 192.218, 211.735

>  <frequency_value>  (1) 
unknown

>  <frequency_units>  (1) 
unknown

>  <frequency_list>  (1) 
unknown

>  <arkane_path>  (1) 
/home/calvin/Dropbox/PersonalFolders/Calvin/ZEUS_Converged/rmg_rxn_15601/output/Species/rmg_rxn_15601_r2_CCCOC/arkane/output.py

>  <path_exists>  (1) 
True

>  <E0_value>  (1) 
-613163.1274359095

>  <E0_units>  (1) 
kJ/mol

>  <thermo_class>  (1) 
NASA

>  <Cp0_value>  (1) 
33.257888

>  <Cp0_units>  (1) 
J/(mol*K)

>  <CpInf_value>  (1) 
357.522296

>  <CpInf_units>  (1) 
J/(mol*K)

>  <Tmin_value>  (1) 
10.0

>  <Tmin_units>  (1) 
K

>  <Tmax_value>  (1) 
3000.0

>  <Tmax_units>  (1) 
K

>  <polynomials>  (1) 
[{"name": "polynomial1", "class": "NASAPolynomial", "Tmin_value": 10.0, "Tmin_units": "K", "Tmax_value": 456.12560324554056, "Tmax_units": "K", "coeffs": [3.62223196701835, 0.03879795217402279, -8.359648491421e-05, 2.4522721819815076e-07, -2.187140949836333e-10, -73746489.62884024, 10.515609438787227]}, {"name": "polynomial2", "class": "NASAPolynomial", "Tmin_value": 456.12560324554056, "Tmin_units": "K", "Tmax_value": 3000.0, "Tmax_units": "K", "coeffs": [-2.20935170520275, 0.056485006605310945, -3.174876766111153e-05, 8.65420390010314e-09, -9.198389746305381e-13, -73745609.6450763, 37.88661603232218]}]

>  <H298_value>  (1) 
-146544.64412500645

>  <H298_units>  (1) 
kcal/mol

>  <S298_value>  (1) 
80.94634663649457

>  <S298_units>  (1) 
cal/(mol*K)

>  <Cp_T_value_list>  (1) 
[25.013931424396034, 31.51994949570118, 37.99587562842776, 43.72290058989096, 53.08549647523409, 60.13535702830284, 70.81347633831932, 76.07383878332065, 78.6922399009724]

>  <Cp_T_units>  (1) 
cal/(mol*K)

>  <T_list>  (1) 
[300.0, 400.0, 500.0, 600.0, 800.0, 1000.0, 1500.0, 2000.0, 2400.0]

>  <T_units>  (1) 
K

>  <yaml_path>  (1) 
/home/calvin/Dropbox/PersonalFolders/Calvin/ZEUS_Converged/rmg_rxn_15601/output/Species/rmg_rxn_15601_r2_CCCOC/rmg_rxn_15601_r2_CCCOC.yml

>  <frequencies_cm1>  (1) 
[91.63991909539999, 126.96369158147998, 202.90568223536002, 229.57705321824, 300.01172164547995, 354.24717170284, 509.22129640459997, 764.38473692516, 888.9449836446399, 924.72884414716, 957.6835066978399, 1072.9458552940398, 1116.4482072962398, 1154.8689901616399, 1177.001283848, 1188.20133690492, 1229.14230338276, 1271.07211574668, 1307.65941353164, 1369.5858871474, 1403.3027850685999, 1415.972372984, 1467.6807724436, 1468.93743075716, 1475.31686011944, 1481.9915698504797, 1490.39675988216, 1494.07059702836, 1510.75737135596, 2928.3984217727198, 2950.9908034755194, 2962.18398954712, 2998.10518975604, 3014.75762915704, 3020.7181724148, 3057.78615917216, 3085.0343569219203, 3099.33828734348, 3104.91427942332]

>  <ZPE_kJmol>  (1) 
356.89332738911673

>  <E_elec_kJmol>  (1) 
-613520.0207632986

>  <E0_minus_Eelec_plus_ZPE_kJmol>  (1) 
0.0

>  <rxn>  (1) 
rmg_rxn_15601

>  <species_type>  (1) 
r1

>  <species_folder>  (1) 
rmg_rxn_15601_r2_CCCOC

>  <frequencies_cm1_list>  (1) 
[91.63991909539999, 126.96369158147998, 202.90568223536002, 229.57705321824, 300.01172164547995, 354.24717170284, 509.22129640459997, 764.38473692516, 888.9449836446399, 924.72884414716, 957.6835066978399, 1072.9458552940398, 1116.4482072962398, 1154.8689901616399, 1177.001283848, 1188.20133690492, 1229.14230338276, 1271.07211574668, 1307.65941353164, 1369.5858871474, 1403.3027850685999, 1415.972372984, 1467.6807724436, 1468.93743075716, 1475.31686011944, 1481.9915698504797, 1490.39675988216, 1494.07059702836, 1510.75737135596, 2928.3984217727198, 2950.9908034755194, 2962.18398954712, 2998.10518975604, 3014.75762915704, 3020.7181724148, 3057.78615917216, 3085.0343569219203, 3099.33828734348, 3104.91427942332]

>  <E0_kJmol>  (1) 
-613163

>  <H298_kJmol>  (1) 
-613143

$$$$

     RDKit          3D

  9  8  0  0  0  0  0  0  0  0999 V2000
    0.2101    0.3162    1.6394 C   0  0  0  0  0  0  0  0  0  1  0  0
    0.4767   -0.2121    0.3814 O   0  0  0  0  0  0  0  0  0  2  0  0
   -0.4569    0.2242   -0.5336 N   0  0  0  0  0  0  0  0  0  3  0  0
   -0.2815   -0.3026   -1.6684 C   0  0  0  0  0  0  0  0  0  4  0  0
    1.0455    0.0727    2.2909 H   0  0  0  0  0  0  0  0  0  5  0  0
   -0.0460    1.3750    1.6132 H   0  0  0  0  0  0  0  0  0  6  0  0
   -0.9689   -0.0059   -2.4492 H   0  0  0  0  0  0  0  0  0  7  0  0
    0.5107   -1.0201   -1.8674 H   0  0  0  0  0  0  0  0  0  8  0  0
   -0.6727   -0.1960    2.0173 H   0  0  0  0  0  0  0  0  0  9  0  0
  1  5  1  0
  1  9  1  0
  1  2  1  0
  1  6  1  0
  2  3  1  0
  3  4  1  0
  4  8  1  0
  4  7  1  0
M  END
>  <rmg_smiles>  (2) 
CO[N][CH2]

>  <rmg_adjacency_list>  (2) 
1 O u0 p2 c0 {2,S} {3,S}
2 N u0 p1 c0 {1,S} {4,S}
3 C u0 p0 c0 {1,S} {5,S} {6,S} {7,S}
4 C u0 p0 c0 {2,S} {8,S} {9,S}
5 H u0 p0 c0 {3,S}
6 H u0 p0 c0 {3,S}
7 H u0 p0 c0 {3,S}
8 H u0 p0 c0 {4,S}
9 H u0 p0 c0 {4,S}


>  <multiplicity>  (2) 
1

>  <reaction>  (2) 
rmg_rxn_15601

>  <type>  (2) 
r2h

>  <role_mapnums>  (2) 
{"r2h_a": 1, "r2h_h": 9}

>  <role_mapidx>  (2) 
{"r2h_a": 0, "r2h_h": 8}

>  <ordered_mapped_smiles>  (2) 
[C:1]([O:2][NH:3][CH:4]([H:7])[H:8])([H:5])([H:6])[H:9]

>  <mol_properties>  (2) 
{"0": {"label": "acceptor", "atom_type": "Cs"}, "8": {"label": "a_hydrogen", "atom_type": "H0"}}

>  <level_of_theory>  (2) 
wb97xd/def2tzvp

>  <lot_method>  (2) 
wb97xd

>  <lot_basis>  (2) 
def2tzvp

>  <spin_multiplicity>  (2) 
1.0

>  <optical_isomers>  (2) 
1.0

>  <modes>  (2) 
IdealGasTranslation(mass=(59.0371, 'amu')),         NonlinearRotor(             inertia = ([11.9742, 101.538, 110.304

>  <frequency_value>  (2) 
unknown

>  <frequency_units>  (2) 
unknown

>  <frequency_list>  (2) 
unknown

>  <arkane_path>  (2) 
/home/calvin/Dropbox/PersonalFolders/Calvin/ZEUS_Converged/rmg_rxn_15601/output/Species/rmg_rxn_15601_p1_CON=C/arkane/output.py

>  <path_exists>  (2) 
True

>  <E0_value>  (2) 
-548882.9200394232

>  <E0_units>  (2) 
kJ/mol

>  <thermo_class>  (2) 
NASA

>  <Cp0_value>  (2) 
33.257888

>  <Cp0_units>  (2) 
J/(mol*K)

>  <CpInf_value>  (2) 
207.8618

>  <CpInf_units>  (2) 
J/(mol*K)

>  <Tmin_value>  (2) 
10.0

>  <Tmin_units>  (2) 
K

>  <Tmax_value>  (2) 
3000.0

>  <Tmax_units>  (2) 
K

>  <polynomials>  (2) 
[{"name": "polynomial1", "class": "NASAPolynomial", "Tmin_value": 10.0, "Tmin_units": "K", "Tmax_value": 1066.0445442103917, "Tmax_units": "K", "coeffs": [3.9488472240731216, 0.012909444164008412, 1.8432835387873368e-05, -2.5565901414715004e-08, 8.632634293818456e-12, -66015370.98001154, 7.906058800048573]}, {"name": "polynomial2", "class": "NASAPolynomial", "Tmin_value": 1066.0445442103917, "Tmin_units": "K", "Tmax_value": 3000.0, "Tmax_units": "K", "coeffs": [4.051174026649639, 0.02340322367340144, -1.163838712217072e-05, 2.8112466199843713e-09, -2.6680947262736413e-13, -66016010.897278614, 4.506810904924114]}]

>  <H298_value>  (2) 
-131182.46582067996

>  <H298_units>  (2) 
kcal/mol

>  <S298_value>  (2) 
69.27397375028742

>  <S298_units>  (2) 
cal/(mol*K)

>  <Cp_T_value_list>  (2) 
[17.607207323409234, 21.157104611048137, 24.5530891366924, 27.67560467885903, 32.827861850696166, 36.480858050170255, 41.94371504002133, 44.76201379304356, 46.08804102499818]

>  <Cp_T_units>  (2) 
cal/(mol*K)

>  <T_list>  (2) 
[300.0, 400.0, 500.0, 600.0, 800.0, 1000.0, 1500.0, 2000.0, 2400.0]

>  <T_units>  (2) 
K

>  <yaml_path>  (2) 
/home/calvin/Dropbox/PersonalFolders/Calvin/ZEUS_Converged/rmg_rxn_15601/output/Species/rmg_rxn_15601_p1_CON=C/rmg_rxn_15601_p1_CON=C.yml

>  <frequencies_cm1>  (2) 
[119.61601728907998, 180.59484693068, 346.29520270228, 574.9726808436, 796.6046320465999, 891.08061607916, 982.9746136314, 1126.32979917172, 1169.7222794088, 1171.7686410341598, 1237.71230106212, 1418.12173938916, 1456.2266409298397, 1467.4060930307999, 1493.1160860688801, 1708.0183916582798, 3005.45973103376, 3077.28153049564, 3083.54422110748, 3121.53925088304, 3213.405780494]

>  <ZPE_kJmol>  (2) 
189.2599943319938

>  <E_elec_kJmol>  (2) 
-549072.1800337551

>  <E0_minus_Eelec_plus_ZPE_kJmol>  (2) 
0.0

>  <rxn>  (2) 
rmg_rxn_15601

>  <species_type>  (2) 
p0

>  <species_folder>  (2) 
rmg_rxn_15601_p1_CON=C

>  <frequencies_cm1_list>  (2) 
[119.61601728907998, 180.59484693068, 346.29520270228, 574.9726808436, 796.6046320465999, 891.08061607916, 982.9746136314, 1126.32979917172, 1169.7222794088, 1171.7686410341598, 1237.71230106212, 1418.12173938916, 1456.2266409298397, 1467.4060930307999, 1493.1160860688801, 1708.0183916582798, 3005.45973103376, 3077.28153049564, 3083.54422110748, 3121.53925088304, 3213.405780494]

>  <E0_kJmol>  (2) 
-548883

>  <H298_kJmol>  (2) 
-548867

$$$$

     RDKit          3D

 23 21  0  0  0  0  0  0  0  0999 V2000
    0.8435    1.8302    0.9775 C   0  0  0  0  0  3  0  0  0  1  0  0
    1.1101    1.3020   -0.2805 O   0  0  0  0  0  0  0  0  0  2  0  0
    0.1764    1.7383   -1.1955 N   0  0  0  0  0  0  0  0  0  3  0  0
    0.3519    1.2114   -2.3304 C   0  0  0  0  0  0  0  0  0  4  0  0
    1.6789    1.5867    1.6289 H   0  0  0  0  0  0  0  0  0  5  0  0
    0.5874    2.8890    0.9513 H   0  0  0  0  0  0  0  0  0  6  0  0
   -0.3355    1.5081   -3.1112 H   0  0  0  0  0  0  0  0  0  7  0  0
    1.1441    0.4939   -2.5293 H   0  0  0  0  0  0  0  0  0  8  0  0
    0.2725   -2.2570   -1.0964 C   0  0  0  0  0  0  0  0  0  9  0  0
   -0.1258   -2.7260    0.2966 C   0  0  0  0  0  0  0  0  0 10  0  0
   -0.2204   -1.5911    1.2937 C   0  0  0  0  0  0  0  0  0 11  0  0
   -1.2498   -0.7105    0.8965 O   0  0  0  0  0  0  0  0  0 12  0  0
   -1.3540    0.4126    1.6819 C   0  0  0  0  0  0  0  0  0 13  0  0
    1.2402   -1.7503   -1.0704 H   0  0  0  0  0  0  0  0  0 14  0  0
   -0.4616   -1.5523   -1.4879 H   0  0  0  0  0  0  0  0  0 15  0  0
    0.3461   -3.0971   -1.7885 H   0  0  0  0  0  0  0  0  0 16  0  0
   -1.0886   -3.2421    0.2603 H   0  0  0  0  0  0  0  0  0 17  0  0
    0.6054   -3.4451    0.6760 H   0  0  0  0  0  0  0  0  0 18  0  0
   -0.4351   -1.9744    2.3009 H   0  0  0  0  0  0  0  0  0 19  0  0
    0.7318   -1.0456    1.3368 H   0  0  0  0  0  0  0  0  0 20  0  0
   -0.2748    1.1814    1.4562 H   0  0  0  0  0  0  0  0  0 21  0  0
   -1.3470    0.2050    2.7588 H   0  0  0  0  0  0  0  0  0 22  0  0
   -2.2087    1.0059    1.3661 H   0  0  0  0  0  0  0  0  0 23  0  0
  1  2  1  0
  1  5  1  0
  1  6  1  0
  2  3  1  0
  3  4  1  0
  4  7  1  0
  4  8  1  0
  9 16  1  0
  9 15  1  0
  9 14  1  0
  9 10  1  0
 10 18  1  0
 10 11  1  0
 10 17  1  0
 11 19  1  0
 11 12  1  0
 11 20  1  0
 12 13  1  0
 13 23  1  0
 13 21  1  0
 13 22  1  0
M  RAD  1   1   2
M  END
>  <rmg_smiles>  (3) 
CCCOC.[CH2]O[N][CH2]

>  <rmg_adjacency_list>  (3) 
multiplicity 2
1  O u0 p2 c0 {5,S} {7,S}
2  O u0 p2 c0 {3,S} {8,S}
3  N u0 p1 c0 {2,S} {9,S}
4  C u0 p0 c0 {5,S} {6,S} {10,S} {11,S}
5  C u0 p0 c0 {1,S} {4,S} {12,S} {13,S}
6  C u0 p0 c0 {4,S} {14,S} {15,S} {16,S}
7  C u0 p0 c0 {1,S} {17,S} {18,S} {19,S}
8  C u1 p0 c0 {2,S} {20,S} {21,S}
9  C u0 p0 c0 {3,S} {22,S} {23,S}
10 H u0 p0 c0 {4,S}
11 H u0 p0 c0 {4,S}
12 H u0 p0 c0 {5,S}
13 H u0 p0 c0 {5,S}
14 H u0 p0 c0 {6,S}
15 H u0 p0 c0 {6,S}
16 H u0 p0 c0 {6,S}
17 H u0 p0 c0 {7,S}
18 H u0 p0 c0 {7,S}
19 H u0 p0 c0 {7,S}
20 H u0 p0 c0 {8,S}
21 H u0 p0 c0 {8,S}
22 H u0 p0 c0 {9,S}
23 H u0 p0 c0 {9,S}


>  <multiplicity>  (3) 
2

>  <reaction>  (3) 
rmg_rxn_15601

>  <type>  (3) 
ts

>  <role_mapnums>  (3) 
{"*2": 21, "*1": 13, "*3": 1, "*0": 12, "*4": 2}

>  <role_mapidx>  (3) 
{"*2": 20, "*1": 12, "*3": 0, "*0": 11, "*4": 1}

>  <ordered_mapped_smiles>  (3) 
[C:1]([O:2][NH:3][CH:4]([H:7])[H:8])([H:5])[H:6].[C:9]([C:10]([C:11]([O:12][C:13]([H:21])([H:22])[H:23])([H:19])[H:20])([H:17])[H:18])([H:14])([H:15])[H:16]

>  <mol_properties>  (3) 
{"0": {"label": "*3", "atom_type": "Cs"}, "1": {"label": "*4", "atom_type": "O2s"}, "11": {"label": "*0", "atom_type": "O2s"}, "12": {"label": "*1", "atom_type": "Cs"}, "20": {"label": "*2", "atom_type": "H0"}}

>  <level_of_theory>  (3) 
wb97xd/def2tzvp

>  <lot_method>  (3) 
wb97xd

>  <lot_basis>  (3) 
def2tzvp

>  <spin_multiplicity>  (3) 
2.0

>  <optical_isomers>  (3) 
2.0

>  <modes>  (3) 
IdealGasTranslation(mass=(132.102, 'amu')),         NonlinearRotor(             inertia = ([285.806, 471.748, 634.476

>  <frequency_value>  (3) 
-1788.93

>  <frequency_units>  (3) 
cm^-1

>  <frequency_list>  (3) 
unknown

>  <arkane_path>  (3) 
/home/calvin/Dropbox/PersonalFolders/Calvin/ZEUS_Converged/rmg_rxn_15601/output/rxns/TS0/arkane/output.py

>  <path_exists>  (3) 
True

>  <E0_value>  (3) 
-1160280.0

>  <E0_units>  (3) 
kJ/mol

>  <thermo_class>  (3) 
unknown

>  <Cp0_value>  (3) 
unknown

>  <Cp0_units>  (3) 
unknown

>  <CpInf_value>  (3) 
unknown

>  <CpInf_units>  (3) 
unknown

>  <Tmin_value>  (3) 
unknown

>  <Tmin_units>  (3) 
unknown

>  <Tmax_value>  (3) 
unknown

>  <Tmax_units>  (3) 
unknown

>  <polynomials>  (3) 
unknown

>  <H298_value>  (3) 
unknown

>  <H298_units>  (3) 
unknown

>  <S298_value>  (3) 
unknown

>  <S298_units>  (3) 
unknown

>  <Cp_T_value_list>  (3) 
unknown

>  <Cp_T_units>  (3) 
unknown

>  <T_list>  (3) 
unknown

>  <T_units>  (3) 
unknown

>  <yaml_path>  (3) 
unknown

>  <frequencies_cm1>  (3) 
unknown

>  <ZPE_kJmol>  (3) 
unknown

>  <E_elec_kJmol>  (3) 
unknown

>  <E0_minus_Eelec_plus_ZPE_kJmol>  (3) 
unknown

>  <rxn>  (3) 
unknown

>  <species_type>  (3) 
unknown

>  <species_folder>  (3) 
unknown

>  <frequencies_cm1_list>  (3) 
[]

>  <ts_imag_freq_cm1>  (3) 
-1810.6617

>  <ts_freq_out_path>  (3) 
/home/calvin/Dropbox/PersonalFolders/Calvin/ZEUS_Converged/rmg_rxn_15601/output/rxns/TS0/geometry/freq.out

>  <E0_kJmol>  (3) 
-1.16028e+06

>  <H298_kJmol>  (3) 
unknown

$$$$

     RDKit          3D

 14 13  0  0  0  0  0  0  0  0999 V2000
    2.7687   -0.0362   -0.0732 C   0  0  0  0  0  3  0  0  0  1  0  0
    1.6543    0.2105    0.6386 O   0  0  0  0  0  0  0  0  0  2  0  0
    1.8652    0.6968    1.9544 C   0  0  0  0  0  0  0  0  0  3  0  0
    0.5252    0.9355    2.6156 C   0  0  0  0  0  0  0  0  0  4  0  0
   -0.2992    2.0181    1.9317 C   0  0  0  0  0  0  0  0  0  5  0  0
    2.5851   -0.4757   -1.0422 H   0  0  0  0  0  0  0  0  0  6  0  0
    3.6974   -0.2083    0.4611 H   0  0  0  0  0  0  0  0  0  7  0  0
    2.4441    1.6271    1.9039 H   0  0  0  0  0  0  0  0  0  8  0  0
    2.4506   -0.0397    2.5179 H   0  0  0  0  0  0  0  0  0  9  0  0
    0.7150    1.2089    3.6572 H   0  0  0  0  0  0  0  0  0 10  0  0
   -0.0287   -0.0066    2.6327 H   0  0  0  0  0  0  0  0  0 11  0  0
   -0.5056    1.7522    0.8949 H   0  0  0  0  0  0  0  0  0 12  0  0
   -1.2524    2.1635    2.4416 H   0  0  0  0  0  0  0  0  0 13  0  0
    0.2319    2.9729    1.9340 H   0  0  0  0  0  0  0  0  0 14  0  0
  1  6  1  0
  1  7  1  0
  1  2  1  0
  2  3  1  0
  3  4  1  0
  3  9  1  0
  3  8  1  0
  4  5  1  0
  4 10  1  0
  4 11  1  0
  5 12  1  0
  5 14  1  0
  5 13  1  0
M  RAD  1   1   2
M  END
>  <rmg_smiles>  (4) 
[CH2]OCCC

>  <rmg_adjacency_list>  (4) 
multiplicity 2
1  O u0 p2 c0 {3,S} {5,S}
2  C u0 p0 c0 {3,S} {4,S} {6,S} {7,S}
3  C u0 p0 c0 {1,S} {2,S} {8,S} {9,S}
4  C u0 p0 c0 {2,S} {10,S} {11,S} {12,S}
5  C u1 p0 c0 {1,S} {13,S} {14,S}
6  H u0 p0 c0 {2,S}
7  H u0 p0 c0 {2,S}
8  H u0 p0 c0 {3,S}
9  H u0 p0 c0 {3,S}
10 H u0 p0 c0 {4,S}
11 H u0 p0 c0 {4,S}
12 H u0 p0 c0 {4,S}
13 H u0 p0 c0 {5,S}
14 H u0 p0 c0 {5,S}


>  <multiplicity>  (4) 
2

>  <reaction>  (4) 
rmg_rxn_15601

>  <type>  (4) 
r1

>  <role_mapnums>  (4) 
{}

>  <role_mapidx>  (4) 
{}

>  <ordered_mapped_smiles>  (4) 
[C:1]([O:2][C:3]([C:4]([C:5]([H:12])([H:13])[H:14])([H:10])[H:11])([H:8])[H:9])([H:6])[H:7]

>  <level_of_theory>  (4) 
wb97xd/def2tzvp

>  <lot_method>  (4) 
wb97xd

>  <lot_basis>  (4) 
def2tzvp

>  <spin_multiplicity>  (4) 
2.0

>  <optical_isomers>  (4) 
2.0

>  <modes>  (4) 
IdealGasTranslation(mass=(73.0653, 'amu')),         NonlinearRotor(             inertia = ([39.3229, 184.047, 204.898

>  <frequency_value>  (4) 
unknown

>  <frequency_units>  (4) 
unknown

>  <frequency_list>  (4) 
unknown

>  <arkane_path>  (4) 
/home/calvin/Dropbox/PersonalFolders/Calvin/ZEUS_Converged/rmg_rxn_15601/output/Species/rmg_rxn_15601_p2_sbr-CH2-sbrOCCC/arkane/output.py

>  <path_exists>  (4) 
True

>  <E0_value>  (4) 
-611455.1532625885

>  <E0_units>  (4) 
kJ/mol

>  <thermo_class>  (4) 
NASA

>  <Cp0_value>  (4) 
33.257888

>  <Cp0_units>  (4) 
J/(mol*K)

>  <CpInf_value>  (4) 
332.57888

>  <CpInf_units>  (4) 
J/(mol*K)

>  <Tmin_value>  (4) 
10.0

>  <Tmin_units>  (4) 
K

>  <Tmax_value>  (4) 
3000.0

>  <Tmax_units>  (4) 
K

>  <polynomials>  (4) 
[{"name": "polynomial1", "class": "NASAPolynomial", "Tmin_value": 10.0, "Tmin_units": "K", "Tmax_value": 1109.3056835189027, "Tmax_units": "K", "coeffs": [3.766077454752429, 0.02887154275827062, 1.3341842735734053e-05, -2.640470384303258e-08, 9.144010343931049e-12, -73541070.10703768, 11.047285254369589]}, {"name": "polynomial2", "class": "NASAPolynomial", "Tmin_value": 1109.3056835189027, "Tmin_units": "K", "Tmax_value": 3000.0, "Tmax_units": "K", "coeffs": [4.990743337834248, 0.03863055175051041, -1.9021631506903658e-05, 4.564123452357677e-09, -4.3134097115964196e-13, -73542213.97043335, 1.080843504244336]}]

>  <H298_value>  (4) 
-146136.37590473582

>  <H298_units>  (4) 
kcal/mol

>  <S298_value>  (4) 
82.43769476343623

>  <S298_units>  (4) 
cal/(mol*K)

>  <Cp_T_value_list>  (4) 
[25.81271075697348, 31.782536242597924, 37.37582139534663, 42.473983817866326, 50.92866332440899, 57.07012534981277, 66.28953861729629, 71.09599464983064, 73.37373385794714]

>  <Cp_T_units>  (4) 
cal/(mol*K)

>  <T_list>  (4) 
[300.0, 400.0, 500.0, 600.0, 800.0, 1000.0, 1500.0, 2000.0, 2400.0]

>  <T_units>  (4) 
K

>  <yaml_path>  (4) 
/home/calvin/Dropbox/PersonalFolders/Calvin/ZEUS_Converged/rmg_rxn_15601/output/Species/rmg_rxn_15601_p2_sbr-CH2-sbrOCCC/rmg_rxn_15601_p2_sbr-CH2-sbrOCCC.yml

>  <frequencies_cm1>  (4) 
[79.56089191752, 133.9748835932, 204.21040944615999, 276.052809864, 302.19542297723996, 360.72273885959993, 511.54233744275996, 544.8334822741199, 763.2310833913999, 886.9054890046, 919.7640137608, 955.60281014588, 1080.2385937038798, 1111.8129922052399, 1161.9831869531602, 1207.84091492012, 1267.4394805124, 1296.41129157748, 1308.06456566552, 1371.5429779635997, 1405.5826241948398, 1414.2350256980396, 1468.23699825452, 1474.5271568076398, 1482.83620904484, 1494.26973960264, 1500.99938521624, 2973.8097956938796, 3010.5481671558796, 3017.55249218228, 3026.25982956804, 3060.5123523442, 3088.9622725249596, 3092.3682972436795, 3104.9898162618397, 3239.2187783118798]

>  <ZPE_kJmol>  (4) 
320.59234556766944

>  <E_elec_kJmol>  (4) 
-611775.7456081562

>  <E0_minus_Eelec_plus_ZPE_kJmol>  (4) 
0.0

>  <rxn>  (4) 
rmg_rxn_15601

>  <species_type>  (4) 
p1

>  <species_folder>  (4) 
rmg_rxn_15601_p2_sbr-CH2-sbrOCCC

>  <frequencies_cm1_list>  (4) 
[79.56089191752, 133.9748835932, 204.21040944615999, 276.052809864, 302.19542297723996, 360.72273885959993, 511.54233744275996, 544.8334822741199, 763.2310833913999, 886.9054890046, 919.7640137608, 955.60281014588, 1080.2385937038798, 1111.8129922052399, 1161.9831869531602, 1207.84091492012, 1267.4394805124, 1296.41129157748, 1308.06456566552, 1371.5429779635997, 1405.5826241948398, 1414.2350256980396, 1468.23699825452, 1474.5271568076398, 1482.83620904484, 1494.26973960264, 1500.99938521624, 2973.8097956938796, 3010.5481671558796, 3017.55249218228, 3026.25982956804, 3060.5123523442, 3088.9622725249596, 3092.3682972436795, 3104.9898162618397, 3239.2187783118798]

>  <E0_kJmol>  (4) 
-611455

>  <H298_kJmol>  (4) 
-611435

$$$$

     RDKit          3D

  8  7  0  0  0  0  0  0  0  0999 V2000
    1.7077   -0.1964   -0.0607 C   0  0  0  0  0  3  0  0  0  1  0  0
    0.4209   -0.4565    0.2808 O   0  0  0  0  0  0  0  0  0  2  0  0
   -0.4607    0.4385   -0.2968 N   0  0  0  0  0  0  0  0  0  3  0  0
   -1.6584    0.1416   -0.0244 C   0  0  0  0  0  0  0  0  0  4  0  0
    2.4163   -0.7685    0.5170 H   0  0  0  0  0  0  0  0  0  5  0  0
    1.9214    0.7645   -0.5045 H   0  0  0  0  0  0  0  0  0  6  0  0
   -2.4185    0.7953   -0.4307 H   0  0  0  0  0  0  0  0  0  7  0  0
   -1.9286   -0.7185    0.5831 H   0  0  0  0  0  0  0  0  0  8  0  0
  1  6  1  0
  1  5  1  0
  1  2  1  0
  2  3  1  0
  3  4  1  0
  4  8  1  0
  4  7  1  0
M  RAD  1   1   2
M  END
>  <rmg_smiles>  (5) 
[CH2]O[N][CH2]

>  <rmg_adjacency_list>  (5) 
multiplicity 2
1 O u0 p2 c0 {2,S} {3,S}
2 N u0 p1 c0 {1,S} {4,S}
3 C u1 p0 c0 {1,S} {5,S} {6,S}
4 C u0 p0 c0 {2,S} {7,S} {8,S}
5 H u0 p0 c0 {3,S}
6 H u0 p0 c0 {3,S}
7 H u0 p0 c0 {4,S}
8 H u0 p0 c0 {4,S}


>  <multiplicity>  (5) 
2

>  <reaction>  (5) 
rmg_rxn_15601

>  <type>  (5) 
r2

>  <role_mapnums>  (5) 
{}

>  <role_mapidx>  (5) 
{}

>  <ordered_mapped_smiles>  (5) 
[C:1]([O:2][NH:3][CH:4]([H:7])[H:8])([H:5])[H:6]

>  <level_of_theory>  (5) 
wb97xd/def2tzvp

>  <lot_method>  (5) 
wb97xd

>  <lot_basis>  (5) 
def2tzvp

>  <spin_multiplicity>  (5) 
2.0

>  <optical_isomers>  (5) 
2.0

>  <modes>  (5) 
IdealGasTranslation(mass=(58.0293, 'amu')),         NonlinearRotor(             inertia = ([10.2741, 95.4529, 105.582

>  <frequency_value>  (5) 
unknown

>  <frequency_units>  (5) 
unknown

>  <frequency_list>  (5) 
unknown

>  <arkane_path>  (5) 
/home/calvin/Dropbox/PersonalFolders/Calvin/ZEUS_Converged/rmg_rxn_15601/output/Species/rmg_rxn_15601_r1_sbr-CH2-sbrON=C/arkane/output.py

>  <path_exists>  (5) 
True

>  <E0_value>  (5) 
-547168.2732446302

>  <E0_units>  (5) 
kJ/mol

>  <thermo_class>  (5) 
NASA

>  <Cp0_value>  (5) 
33.257888

>  <Cp0_units>  (5) 
J/(mol*K)

>  <CpInf_value>  (5) 
182.918384

>  <CpInf_units>  (5) 
J/(mol*K)

>  <Tmin_value>  (5) 
10.0

>  <Tmin_units>  (5) 
K

>  <Tmax_value>  (5) 
3000.0

>  <Tmax_units>  (5) 
K

>  <polynomials>  (5) 
[{"name": "polynomial1", "class": "NASAPolynomial", "Tmin_value": 10.0, "Tmin_units": "K", "Tmax_value": 253.2842427910515, "Tmax_units": "K", "coeffs": [3.956862909385456, 0.0038362890131335746, 0.00011727738047703725, -3.4736244039427427e-07, 3.472729073035136e-10, -65809144.38694886, 9.350338763280796]}, {"name": "polynomial2", "class": "NASAPolynomial", "Tmin_value": 253.2842427910515, "Tmin_units": "K", "Tmax_value": 3000.0, "Tmax_units": "K", "coeffs": [2.5252197328965313, 0.026445761179553072, -1.662161754135038e-05, 5.074735532607581e-09, -5.97403912324656e-13, -65809071.86505469, 14.291183066674913]}]

>  <H298_value>  (5) 
-130772.65860702786

>  <H298_units>  (5) 
kcal/mol

>  <S298_value>  (5) 
71.26914844977757

>  <S298_units>  (5) 
cal/(mol*K)

>  <Cp_T_value_list>  (5) 
[18.0740035969719, 21.369534269323825, 24.223451351766553, 26.683440747612977, 30.598134113509214, 33.438117676478754, 37.554421513360474, 39.68390492467901, 40.91110806828642]

>  <Cp_T_units>  (5) 
cal/(mol*K)

>  <T_list>  (5) 
[300.0, 400.0, 500.0, 600.0, 800.0, 1000.0, 1500.0, 2000.0, 2400.0]

>  <T_units>  (5) 
K

>  <yaml_path>  (5) 
/home/calvin/Dropbox/PersonalFolders/Calvin/ZEUS_Converged/rmg_rxn_15601/output/Species/rmg_rxn_15601_r1_sbr-CH2-sbrON=C/rmg_rxn_15601_r1_sbr-CH2-sbrON=C.yml

>  <frequencies_cm1>  (5) 
[132.13453152744, 273.14807507364, 360.4549264321199, 498.69420790903996, 595.9169860696, 789.3942974605999, 873.74834513148, 993.5360370535599, 1152.01232426852, 1206.54305469464, 1257.0497317232398, 1417.2771001948001, 1437.260027476, 1705.2166616477198, 3090.5210781926, 3134.7719315946797, 3218.94057066192, 3282.16490450316]

>  <ZPE_kJmol>  (5) 
152.0381400376291

>  <E_elec_kJmol>  (5) 
-547320.3113846679

>  <E0_minus_Eelec_plus_ZPE_kJmol>  (5) 
0.0

>  <rxn>  (5) 
rmg_rxn_15601

>  <species_type>  (5) 
r0

>  <species_folder>  (5) 
rmg_rxn_15601_r1_sbr-CH2-sbrON=C

>  <frequencies_cm1_list>  (5) 
[132.13453152744, 273.14807507364, 360.4549264321199, 498.69420790903996, 595.9169860696, 789.3942974605999, 873.74834513148, 993.5360370535599, 1152.01232426852, 1206.54305469464, 1257.0497317232398, 1417.2771001948001, 1437.260027476, 1705.2166616477198, 3090.5210781926, 3134.7719315946797, 3218.94057066192, 3282.16490450316]

>  <E0_kJmol>  (5) 
-547168

>  <H298_kJmol>  (5) 
-547153

$$$$
