
     RDKit          3D

 10  9  0  0  0  0  0  0  0  0999 V2000
   -0.8007    1.7242    0.1455 C   0  0  0  0  0  0  0  0  0  1  0  0
   -0.3675    0.5377   -0.1610 C   0  0  0  0  0  2  0  0  0  2  0  0
    0.0739   -0.6603   -0.4583 C   0  0  0  0  0  0  0  0  0  3  0  0
    0.9374   -1.4726    0.3975 C   0  0  0  0  0  0  0  0  0  4  0  0
   -0.2190    2.6136   -0.0774 H   0  0  0  0  0  0  0  0  0  5  0  0
   -1.7611    1.8705    0.6291 H   0  0  0  0  0  0  0  0  0  6  0  0
   -0.1717   -1.0495   -1.4429 H   0  0  0  0  0  0  0  0  0  7  0  0
    1.9800   -1.2450    0.1905 H   0  0  0  0  0  0  0  0  0  8  0  0
    0.8935   -2.5410    0.2028 H   0  0  0  0  0  0  0  0  0  9  0  0
    0.8880   -1.2405    1.4586 H   0  0  0  0  0  0  0  0  0 10  0  0
  1  5  1  0
  1  6  1  0
  1  2  1  0
  2  3  1  0
  3  4  1  0
  3  7  1  0
  4  8  1  0
  4  9  1  0
  4 10  1  0
M  RAD  1   2   3
M  END
>  <rmg_smiles>  (1) 
[CH2][C][CH]C

>  <rmg_adjacency_list>  (1) 
1  C u0 p0 c0 {2,S} {5,S} {6,S} {7,S}
2  C u0 p0 c0 {1,S} {4,S} {8,S}
3  C u0 p0 c0 {4,S} {9,S} {10,S}
4  C u0 p1 c0 {2,S} {3,S}
5  H u0 p0 c0 {1,S}
6  H u0 p0 c0 {1,S}
7  H u0 p0 c0 {1,S}
8  H u0 p0 c0 {2,S}
9  H u0 p0 c0 {3,S}
10 H u0 p0 c0 {3,S}


>  <multiplicity>  (1) 
1

>  <reaction>  (1) 
rmg_rxn_14144

>  <type>  (1) 
r1h

>  <role_mapnums>  (1) 
{"r1h_a": 4, "r1h_h": 8}

>  <role_mapidx>  (1) 
{"r1h_a": 3, "r1h_h": 7}

>  <ordered_mapped_smiles>  (1) 
[CH:1]([C:2][CH:3]([C:4]([H:8])([H:9])[H:10])[H:7])([H:5])[H:6]

>  <mol_properties>  (1) 
{"3": {"label": "donator", "atom_type": "Cs"}, "7": {"label": "d_hydrogen", "atom_type": "H0"}}

>  <level_of_theory>  (1) 
wb97xd/def2tzvp

>  <lot_method>  (1) 
wb97xd

>  <lot_basis>  (1) 
def2tzvp

>  <spin_multiplicity>  (1) 
1.0

>  <optical_isomers>  (1) 
1.0

>  <modes>  (1) 
IdealGasTranslation(mass=(54.047, 'amu')),         NonlinearRotor(             inertia = ([14.6121, 119.467, 127.49

>  <frequency_value>  (1) 
unknown

>  <frequency_units>  (1) 
unknown

>  <frequency_list>  (1) 
unknown

>  <arkane_path>  (1) 
/home/calvin/Dropbox/PersonalFolders/Calvin/ZEUS_Converged/rmg_rxn_14144/output/Species/rmg_rxn_14144_r1_C=C=CC/arkane/output.py

>  <path_exists>  (1) 
True

>  <E0_value>  (1) 
-409296.6502421279

>  <E0_units>  (1) 
kJ/mol

>  <thermo_class>  (1) 
NASA

>  <Cp0_value>  (1) 
33.257888

>  <Cp0_units>  (1) 
J/(mol*K)

>  <CpInf_value>  (1) 
232.805216

>  <CpInf_units>  (1) 
J/(mol*K)

>  <Tmin_value>  (1) 
10.0

>  <Tmin_units>  (1) 
K

>  <Tmax_value>  (1) 
3000.0

>  <Tmax_units>  (1) 
K

>  <polynomials>  (1) 
[{"name": "polynomial1", "class": "NASAPolynomial", "Tmin_value": 10.0, "Tmin_units": "K", "Tmax_value": 452.8802664009696, "Tmax_units": "K", "coeffs": [3.9021943352433452, 0.007937521032632688, 6.664442489196733e-05, -1.2131953588307993e-07, 6.938885885775227e-11, -49227014.555544384, 8.255511443201872]}, {"name": "polynomial2", "class": "NASAPolynomial", "Tmin_value": 452.8802664009696, "Tmin_units": "K", "Tmax_value": 3000.0, "Tmax_units": "K", "coeffs": [0.958037882717614, 0.033941191741253485, -1.948265019694705e-05, 5.463813645242153e-09, -5.979209978345261e-13, -49226747.88374059, 20.12723627389473]}]

>  <H298_value>  (1) 
-97820.47439749332

>  <H298_units>  (1) 
kcal/mol

>  <S298_value>  (1) 
69.30943774444917

>  <S298_units>  (1) 
cal/(mol*K)

>  <Cp_T_value_list>  (1) 
[19.013335795722274, 23.35407848830737, 27.231838984706652, 30.626214617830076, 36.15654523435027, 40.30546036176962, 46.594544625367064, 49.786664420046236, 51.450781523093035]

>  <Cp_T_units>  (1) 
cal/(mol*K)

>  <T_list>  (1) 
[300.0, 400.0, 500.0, 600.0, 800.0, 1000.0, 1500.0, 2000.0, 2400.0]

>  <T_units>  (1) 
K

>  <yaml_path>  (1) 
/home/calvin/Dropbox/PersonalFolders/Calvin/ZEUS_Converged/rmg_rxn_14144/output/Species/rmg_rxn_14144_r1_C=C=CC/rmg_rxn_14144_r1_C=C=CC.yml

>  <frequencies_cm1>  (1) 
[164.84884959192, 210.28769145436, 340.98015606459995, 540.2944049775999, 574.7186023867599, 878.6239047086799, 884.0282221555199, 895.09093550604, 1017.79709618912, 1055.91573170044, 1088.91159616304, 1146.5530709391198, 1353.77808694076, 1399.01778622892, 1463.354571692, 1470.3726306890399, 1494.8053644576, 2061.4346581373993, 3012.63573069316, 3072.0282867258397, 3106.42501619372, 3110.62074422424, 3124.134971334, 3189.66661224276]

>  <ZPE_kJmol>  (1) 
219.25357474583132

>  <E_elec_kJmol>  (1) 
-409515.9038168737

>  <E0_minus_Eelec_plus_ZPE_kJmol>  (1) 
0.0

>  <rxn>  (1) 
rmg_rxn_14144

>  <species_type>  (1) 
r0

>  <species_folder>  (1) 
rmg_rxn_14144_r1_C=C=CC

>  <frequencies_cm1_list>  (1) 
[164.84884959192, 210.28769145436, 340.98015606459995, 540.2944049775999, 574.7186023867599, 878.6239047086799, 884.0282221555199, 895.09093550604, 1017.79709618912, 1055.91573170044, 1088.91159616304, 1146.5530709391198, 1353.77808694076, 1399.01778622892, 1463.354571692, 1470.3726306890399, 1494.8053644576, 2061.4346581373993, 3012.63573069316, 3072.0282867258397, 3106.42501619372, 3110.62074422424, 3124.134971334, 3189.66661224276]

>  <E0_kJmol>  (1) 
-409297

>  <H298_kJmol>  (1) 
-409281

$$$$

     RDKit          3D

 14 14  0  0  0  0  0  0  0  0999 V2000
   -1.0706   -1.5337    0.1722 H   0  0  0  0  0  0  0  0  0  1  0  0
   -0.0079   -1.3110    0.1102 C   0  0  0  0  0  0  0  0  0  2  0  0
    0.2665   -0.7460   -1.1107 O   0  0  0  0  0  0  0  0  0  3  0  0
   -0.2986    0.5491   -1.2825 C   0  0  0  0  0  0  0  0  0  4  0  0
    0.0745    1.4501   -0.1176 C   0  0  0  0  0  0  0  0  0  5  0  0
   -0.2923    0.7432    1.1757 C   0  0  0  0  0  0  0  0  0  6  0  0
    0.3010   -0.5480    1.2108 O   0  0  0  0  0  0  0  0  0  7  0  0
    0.4953   -2.2723    0.1835 H   0  0  0  0  0  0  0  0  0  8  0  0
    0.0903    0.9227   -2.2282 H   0  0  0  0  0  0  0  0  0  9  0  0
   -1.3879    0.4616   -1.3593 H   0  0  0  0  0  0  0  0  0 10  0  0
    1.1473    1.6535   -0.1334 H   0  0  0  0  0  0  0  0  0 11  0  0
   -0.4566    2.4013   -0.1932 H   0  0  0  0  0  0  0  0  0 12  0  0
   -1.3822    0.6464    1.2606 H   0  0  0  0  0  0  0  0  0 13  0  0
    0.0791    1.2718    2.0518 H   0  0  0  0  0  0  0  0  0 14  0  0
  1  2  1  0
  2  7  1  0
  2  8  1  0
  2  3  1  0
  3  4  1  0
  4  5  1  0
  4  9  1  0
  4 10  1  0
  5 11  1  0
  5 12  1  0
  5  6  1  0
  6 14  1  0
  6 13  1  0
  6  7  1  0
M  END
>  <rmg_smiles>  (2) 
C1COCOC1

>  <rmg_adjacency_list>  (2) 
1  O u0 p2 c0 {4,S} {6,S}
2  O u0 p2 c0 {5,S} {6,S}
3  C u0 p0 c0 {4,S} {5,S} {7,S} {8,S}
4  C u0 p0 c0 {1,S} {3,S} {9,S} {10,S}
5  C u0 p0 c0 {2,S} {3,S} {11,S} {12,S}
6  C u0 p0 c0 {1,S} {2,S} {13,S} {14,S}
7  H u0 p0 c0 {3,S}
8  H u0 p0 c0 {3,S}
9  H u0 p0 c0 {4,S}
10 H u0 p0 c0 {4,S}
11 H u0 p0 c0 {5,S}
12 H u0 p0 c0 {5,S}
13 H u0 p0 c0 {6,S}
14 H u0 p0 c0 {6,S}


>  <multiplicity>  (2) 
1

>  <reaction>  (2) 
rmg_rxn_14144

>  <type>  (2) 
r2h

>  <role_mapnums>  (2) 
{"r2h_a": 2, "r2h_h": 1}

>  <role_mapidx>  (2) 
{"r2h_a": 1, "r2h_h": 0}

>  <ordered_mapped_smiles>  (2) 
[H:1][C:2]1([H:8])[O:3][C:4]([H:9])([H:10])[C:5]([H:11])([H:12])[C:6]([H:13])([H:14])[O:7]1

>  <mol_properties>  (2) 
{"0": {"label": "a_hydrogen", "atom_type": "H0"}, "1": {"label": "acceptor", "atom_type": "Cs"}}

>  <level_of_theory>  (2) 
wb97xd/def2tzvp

>  <lot_method>  (2) 
wb97xd

>  <lot_basis>  (2) 
def2tzvp

>  <spin_multiplicity>  (2) 
1.0

>  <optical_isomers>  (2) 
1.0

>  <modes>  (2) 
IdealGasTranslation(mass=(88.0524, 'amu')),         NonlinearRotor(             inertia = ([100.123, 103.988, 181.806

>  <frequency_value>  (2) 
unknown

>  <frequency_units>  (2) 
unknown

>  <frequency_list>  (2) 
unknown

>  <arkane_path>  (2) 
/home/calvin/Dropbox/PersonalFolders/Calvin/ZEUS_Converged/rmg_rxn_14144/output/Species/rmg_rxn_14144_p2_C1COCOC1/arkane/output.py

>  <path_exists>  (2) 
True

>  <E0_value>  (2) 
-807534.4862541101

>  <E0_units>  (2) 
kJ/mol

>  <thermo_class>  (2) 
NASA

>  <Cp0_value>  (2) 
33.257888

>  <Cp0_units>  (2) 
J/(mol*K)

>  <CpInf_value>  (2) 
332.57888

>  <CpInf_units>  (2) 
J/(mol*K)

>  <Tmin_value>  (2) 
10.0

>  <Tmin_units>  (2) 
K

>  <Tmax_value>  (2) 
3000.0

>  <Tmax_units>  (2) 
K

>  <polynomials>  (2) 
[{"name": "polynomial1", "class": "NASAPolynomial", "Tmin_value": 10.0, "Tmin_units": "K", "Tmax_value": 635.6133108204667, "Tmax_units": "K", "coeffs": [4.089859846547851, -0.00720853879564987, 0.00016188921931772023, -2.401519893438705e-07, 1.1441025782213875e-10, -97123964.81371374, 9.940068375164508]}, {"name": "polynomial2", "class": "NASAPolynomial", "Tmin_value": 635.6133108204667, "Tmin_units": "K", "Tmax_value": 3000.0, "Tmax_units": "K", "coeffs": [-3.623423511686486, 0.05886764268076858, -3.542799994133682e-05, 1.020943336284747e-08, -1.1338722579771073e-12, -97123338.50049376, 40.87037082096811]}]

>  <H298_value>  (2) 
-193001.58453999052

>  <H298_units>  (2) 
kcal/mol

>  <S298_value>  (2) 
72.30963326519608

>  <S298_units>  (2) 
cal/(mol*K)

>  <Cp_T_value_list>  (2) 
[21.739934439433213, 29.14813570588532, 35.94764696452701, 41.730532176406555, 50.79213666149929, 57.41393370116716, 66.9323937138755, 71.40703214797205, 73.744608953261]

>  <Cp_T_units>  (2) 
cal/(mol*K)

>  <T_list>  (2) 
[300.0, 400.0, 500.0, 600.0, 800.0, 1000.0, 1500.0, 2000.0, 2400.0]

>  <T_units>  (2) 
K

>  <yaml_path>  (2) 
/home/calvin/Dropbox/PersonalFolders/Calvin/ZEUS_Converged/rmg_rxn_14144/output/Species/rmg_rxn_14144_p2_C1COCOC1/rmg_rxn_14144_p2_C1COCOC1.yml

>  <frequencies_cm1>  (2) 
[264.26219606955993, 269.44676998615995, 439.22611503784, 466.70779028847994, 494.62208561427997, 656.81341188736, 851.50617968, 900.41284912904, 919.12538412604, 926.80954069912, 1013.8966485273598, 1037.6289497932798, 1094.57685905204, 1112.95291176836, 1188.75069573052, 1216.28730686372, 1226.8487302858798, 1252.366447735, 1315.55644664964, 1328.3633742714399, 1363.72148168412, 1380.93701388136, 1404.8272558096398, 1432.53554157584, 1460.95799381532, 1489.42164796672, 1490.0946125280798, 1506.58911126672, 2894.63345495428, 2944.5289702893997, 2950.530715459079, 3031.06671929204, 3080.8454958767197, 3088.2893079635996, 3091.87387430064, 3110.9160245929997]

>  <ZPE_kJmol>  (2) 
321.1850391352071

>  <E_elec_kJmol>  (2) 
-807855.6712932453

>  <E0_minus_Eelec_plus_ZPE_kJmol>  (2) 
0.0

>  <rxn>  (2) 
rmg_rxn_14144

>  <species_type>  (2) 
p1

>  <species_folder>  (2) 
rmg_rxn_14144_p2_C1COCOC1

>  <frequencies_cm1_list>  (2) 
[264.26219606955993, 269.44676998615995, 439.22611503784, 466.70779028847994, 494.62208561427997, 656.81341188736, 851.50617968, 900.41284912904, 919.12538412604, 926.80954069912, 1013.8966485273598, 1037.6289497932798, 1094.57685905204, 1112.95291176836, 1188.75069573052, 1216.28730686372, 1226.8487302858798, 1252.366447735, 1315.55644664964, 1328.3633742714399, 1363.72148168412, 1380.93701388136, 1404.8272558096398, 1432.53554157584, 1460.95799381532, 1489.42164796672, 1490.0946125280798, 1506.58911126672, 2894.63345495428, 2944.5289702893997, 2950.530715459079, 3031.06671929204, 3080.8454958767197, 3088.2893079635996, 3091.87387430064, 3110.9160245929997]

>  <E0_kJmol>  (2) 
-807534

>  <H298_kJmol>  (2) 
-807519

$$$$

     RDKit          3D

 23 22  0  0  0  0  0  0  0  0999 V2000
   -3.0116    1.4648    0.1739 C   0  0  0  0  0  0  0  0  0  1  0  0
   -2.5783    0.2782   -0.1327 C   0  0  0  0  0  0  0  0  0  2  0  0
   -2.1370   -0.9198   -0.4299 C   0  0  0  0  0  0  0  0  0  3  0  0
   -1.2735   -1.7321    0.4259 C   0  0  0  0  0  0  0  0  0  4  0  0
   -2.4299    2.3542   -0.0491 H   0  0  0  0  0  0  0  0  0  5  0  0
   -3.9720    1.6111    0.6575 H   0  0  0  0  0  0  0  0  0  6  0  0
   -2.3826   -1.3090   -1.4145 H   0  0  0  0  0  0  0  0  0  7  0  0
    0.0279   -1.4479    0.1675 H   0  0  0  0  0  0  0  0  0  8  0  0
   -1.3174   -2.8005    0.2312 H   0  0  0  0  0  0  0  0  0  9  0  0
   -1.3229   -1.5000    1.4869 H   0  0  0  0  0  0  0  0  0 10  0  0
    1.3694   -1.1667    0.0892 C   0  0  0  0  0  3  0  0  0 11  0  0
    1.6438   -0.6017   -1.1318 O   0  0  0  0  0  0  0  0  0 12  0  0
    1.0787    0.6933   -1.3036 C   0  0  0  0  0  0  0  0  0 13  0  0
    1.4518    1.5944   -0.1386 C   0  0  0  0  0  0  0  0  0 14  0  0
    1.0850    0.8874    1.1547 C   0  0  0  0  0  0  0  0  0 15  0  0
    1.6782   -0.4038    1.1898 O   0  0  0  0  0  0  0  0  0 16  0  0
    1.8726   -2.1281    0.1625 H   0  0  0  0  0  0  0  0  0 17  0  0
    1.4676    1.0670   -2.2492 H   0  0  0  0  0  0  0  0  0 18  0  0
   -0.0106    0.6058   -1.3803 H   0  0  0  0  0  0  0  0  0 19  0  0
    2.5246    1.7977   -0.1544 H   0  0  0  0  0  0  0  0  0 20  0  0
    0.9207    2.5455   -0.2143 H   0  0  0  0  0  0  0  0  0 21  0  0
   -0.0049    0.7906    1.2395 H   0  0  0  0  0  0  0  0  0 22  0  0
    1.4564    1.4161    2.0308 H   0  0  0  0  0  0  0  0  0 23  0  0
  1  5  1  0
  1  6  1  0
  1  2  1  0
  2  3  1  0
  3  4  1  0
  3  7  1  0
  4 10  1  0
  4  9  1  0
  4  8  1  0
 11 12  1  0
 11 17  1  0
 11 16  1  0
 12 13  1  0
 13 19  1  0
 13 18  1  0
 13 14  1  0
 14 15  1  0
 14 20  1  0
 14 21  1  0
 15 16  1  0
 15 23  1  0
 15 22  1  0
M  RAD  1  11   2
M  END
>  <rmg_smiles>  (3) 
[CH2]C[CH]C.[CH]1OCCCO1

>  <rmg_adjacency_list>  (3) 
multiplicity 2
1  O u0 p2 c0 {4,S} {8,S}
2  O u0 p2 c0 {5,S} {8,S}
3  C u0 p0 c0 {4,S} {5,S} {11,S} {12,S}
4  C u0 p0 c0 {1,S} {3,S} {13,S} {14,S}
5  C u0 p0 c0 {2,S} {3,S} {15,S} {16,S}
6  C u0 p0 c0 {7,S} {17,S} {18,S} {19,S}
7  C u0 p0 c0 {6,S} {10,S} {20,S}
8  C u1 p0 c0 {1,S} {2,S} {21,S}
9  C u0 p0 c0 {10,S} {22,S} {23,S}
10 C u0 p1 c0 {7,S} {9,S}
11 H u0 p0 c0 {3,S}
12 H u0 p0 c0 {3,S}
13 H u0 p0 c0 {4,S}
14 H u0 p0 c0 {4,S}
15 H u0 p0 c0 {5,S}
16 H u0 p0 c0 {5,S}
17 H u0 p0 c0 {6,S}
18 H u0 p0 c0 {6,S}
19 H u0 p0 c0 {6,S}
20 H u0 p0 c0 {7,S}
21 H u0 p0 c0 {8,S}
22 H u0 p0 c0 {9,S}
23 H u0 p0 c0 {9,S}


>  <multiplicity>  (3) 
2

>  <reaction>  (3) 
rmg_rxn_14144

>  <type>  (3) 
ts

>  <role_mapnums>  (3) 
{"*2": 8, "*1": 4, "*3": 11, "*0": 3, "*4": 12}

>  <role_mapidx>  (3) 
{"*2": 7, "*1": 3, "*3": 10, "*0": 2, "*4": 11}

>  <ordered_mapped_smiles>  (3) 
[CH:1]([CH2:2][CH:3]([C:4]([H:8])([H:9])[H:10])[H:7])([H:5])[H:6].[C:11]1([H:17])[O:12][C:13]([H:18])([H:19])[C:14]([H:20])([H:21])[C:15]([H:22])([H:23])[O:16]1

>  <mol_properties>  (3) 
{"2": {"label": "*0", "atom_type": "Cs"}, "3": {"label": "*1", "atom_type": "Cs"}, "7": {"label": "*2", "atom_type": "H0"}, "10": {"label": "*3", "atom_type": "Cs"}, "11": {"label": "*4", "atom_type": "O2s"}}

>  <level_of_theory>  (3) 
wb97xd/def2tzvp

>  <lot_method>  (3) 
wb97xd

>  <lot_basis>  (3) 
def2tzvp

>  <spin_multiplicity>  (3) 
2.0

>  <optical_isomers>  (3) 
2.0

>  <modes>  (3) 
IdealGasTranslation(mass=(141.092, 'amu')),         NonlinearRotor(             inertia = ([286.3, 575.694, 657.258

>  <frequency_value>  (3) 
-1772.33

>  <frequency_units>  (3) 
cm^-1

>  <frequency_list>  (3) 
unknown

>  <arkane_path>  (3) 
/home/calvin/Dropbox/PersonalFolders/Calvin/ZEUS_Converged/rmg_rxn_14144/output/rxns/TS0/arkane/output.py

>  <path_exists>  (3) 
True

>  <E0_value>  (3) 
-1215080.0

>  <E0_units>  (3) 
kJ/mol

>  <thermo_class>  (3) 
unknown

>  <Cp0_value>  (3) 
unknown

>  <Cp0_units>  (3) 
unknown

>  <CpInf_value>  (3) 
unknown

>  <CpInf_units>  (3) 
unknown

>  <Tmin_value>  (3) 
unknown

>  <Tmin_units>  (3) 
unknown

>  <Tmax_value>  (3) 
unknown

>  <Tmax_units>  (3) 
unknown

>  <polynomials>  (3) 
unknown

>  <H298_value>  (3) 
unknown

>  <H298_units>  (3) 
unknown

>  <S298_value>  (3) 
unknown

>  <S298_units>  (3) 
unknown

>  <Cp_T_value_list>  (3) 
unknown

>  <Cp_T_units>  (3) 
unknown

>  <T_list>  (3) 
unknown

>  <T_units>  (3) 
unknown

>  <yaml_path>  (3) 
unknown

>  <frequencies_cm1>  (3) 
unknown

>  <ZPE_kJmol>  (3) 
unknown

>  <E_elec_kJmol>  (3) 
unknown

>  <E0_minus_Eelec_plus_ZPE_kJmol>  (3) 
unknown

>  <rxn>  (3) 
unknown

>  <species_type>  (3) 
unknown

>  <species_folder>  (3) 
unknown

>  <frequencies_cm1_list>  (3) 
[]

>  <ts_imag_freq_cm1>  (3) 
-1793.8519

>  <ts_freq_out_path>  (3) 
/home/calvin/Dropbox/PersonalFolders/Calvin/ZEUS_Converged/rmg_rxn_14144/output/rxns/TS0/geometry/freq.out

>  <E0_kJmol>  (3) 
-1.21508e+06

>  <H298_kJmol>  (3) 
unknown

$$$$

     RDKit          3D

  9  8  0  0  0  0  0  0  0  0999 V2000
    1.8962   -0.1368   -0.2185 C   0  0  0  0  0  0  0  0  0  1  0  0
    0.6332    0.1497   -0.2267 C   0  0  0  0  0  3  0  0  0  2  0  0
   -0.6783    0.4486   -0.2362 C   0  0  0  0  0  0  0  0  0  3  0  0
   -1.6587   -0.2335    0.4694 C   0  0  0  0  0  0  0  0  0  4  0  0
    2.3273   -0.8311   -0.9354 H   0  0  0  0  0  0  0  0  0  5  0  0
    2.5755    0.3040    0.5069 H   0  0  0  0  0  0  0  0  0  6  0  0
   -0.9764    1.2944   -0.8506 H   0  0  0  0  0  0  0  0  0  7  0  0
   -2.6928    0.0726    0.4065 H   0  0  0  0  0  0  0  0  0  8  0  0
   -1.4099   -1.0807    1.0934 H   0  0  0  0  0  0  0  0  0  9  0  0
  1  5  1  0
  1  6  1  0
  1  2  1  0
  2  3  1  0
  3  4  1  0
  3  7  1  0
  4  8  1  0
  4  9  1  0
M  RAD  1   2   2
M  END
>  <rmg_smiles>  (4) 
[CH2][C][CH][CH2]

>  <rmg_adjacency_list>  (4) 
multiplicity 2
1 C u0 p0 c0 {2,S} {4,S} {5,S}
2 C u0 p0 c0 {1,S} {6,S} {7,S}
3 C u0 p0 c0 {4,S} {8,S} {9,S}
4 C u1 p1 c0 {1,S} {3,S}
5 H u0 p0 c0 {1,S}
6 H u0 p0 c0 {2,S}
7 H u0 p0 c0 {2,S}
8 H u0 p0 c0 {3,S}
9 H u0 p0 c0 {3,S}


>  <multiplicity>  (4) 
2

>  <reaction>  (4) 
rmg_rxn_14144

>  <type>  (4) 
r1

>  <role_mapnums>  (4) 
{}

>  <role_mapidx>  (4) 
{}

>  <ordered_mapped_smiles>  (4) 
[CH:1]([CH:2][CH:3]([CH:4]([H:8])[H:9])[H:7])([H:5])[H:6]

>  <level_of_theory>  (4) 
wb97xd/def2tzvp

>  <lot_method>  (4) 
wb97xd

>  <lot_basis>  (4) 
def2tzvp

>  <spin_multiplicity>  (4) 
2.0

>  <optical_isomers>  (4) 
1.0

>  <modes>  (4) 
IdealGasTranslation(mass=(53.0391, 'amu')),         NonlinearRotor(             inertia = ([12.0347, 113.266, 121.844

>  <frequency_value>  (4) 
unknown

>  <frequency_units>  (4) 
unknown

>  <frequency_list>  (4) 
unknown

>  <arkane_path>  (4) 
/home/calvin/Dropbox/PersonalFolders/Calvin/ZEUS_Converged/rmg_rxn_14144/output/Species/rmg_rxn_14144_p1_C=sbr-C-sbrC=C/arkane/output.py

>  <path_exists>  (4) 
True

>  <E0_value>  (4) 
-407618.7322871182

>  <E0_units>  (4) 
kJ/mol

>  <thermo_class>  (4) 
NASA

>  <Cp0_value>  (4) 
33.257888

>  <Cp0_units>  (4) 
J/(mol*K)

>  <CpInf_value>  (4) 
207.8618

>  <CpInf_units>  (4) 
J/(mol*K)

>  <Tmin_value>  (4) 
10.0

>  <Tmin_units>  (4) 
K

>  <Tmax_value>  (4) 
3000.0

>  <Tmax_units>  (4) 
K

>  <polynomials>  (4) 
[{"name": "polynomial1", "class": "NASAPolynomial", "Tmin_value": 10.0, "Tmin_units": "K", "Tmax_value": 514.1627669615141, "Tmax_units": "K", "coeffs": [3.9420033650092194, 0.003572324131280511, 9.462342675756363e-05, -1.8676284311886954e-07, 1.149785738012023e-10, -49025207.30228202, 8.656389036962679]}, {"name": "polynomial2", "class": "NASAPolynomial", "Tmin_value": 514.1627669615141, "Tmin_units": "K", "Tmax_value": 3000.0, "Tmax_units": "K", "coeffs": [2.029834550148665, 0.030448893080009667, -1.8795396905939947e-05, 5.691011797771398e-09, -6.697030625419615e-13, -49025169.29486995, 15.066930145553966]}]

>  <H298_value>  (4) 
-97419.52666136409

>  <H298_units>  (4) 
kcal/mol

>  <S298_value>  (4) 
69.4719153890684

>  <S298_units>  (4) 
cal/(mol*K)

>  <Cp_T_value_list>  (4) 
[18.71658132650381, 22.855479647781404, 26.28046336634898, 29.16283674573409, 33.78128373497921, 37.16998113185326, 42.18903825802206, 44.829149945703655, 46.30012006236418]

>  <Cp_T_units>  (4) 
cal/(mol*K)

>  <T_list>  (4) 
[300.0, 400.0, 500.0, 600.0, 800.0, 1000.0, 1500.0, 2000.0, 2400.0]

>  <T_units>  (4) 
K

>  <yaml_path>  (4) 
/home/calvin/Dropbox/PersonalFolders/Calvin/ZEUS_Converged/rmg_rxn_14144/output/Species/rmg_rxn_14144_p1_C=sbr-C-sbrC=C/rmg_rxn_14144_p1_C=sbr-C-sbrC=C.yml

>  <frequencies_cm1>  (4) 
[209.8207364526, 213.04821955299997, 498.82468063011993, 525.2763080827599, 574.87654304912, 748.93401995516, 893.7518733686398, 905.4944182658398, 936.5057239709599, 975.15311735192, 1080.3828003955998, 1184.87084902472, 1365.78157728012, 1440.54244645896, 1485.45939743708, 1902.75236136284, 3071.2179824580794, 3118.0576893257994, 3138.67924624176, 3141.52904514956, 3241.1758691280797]

>  <ZPE_kJmol>  (4) 
183.34053407098105

>  <E_elec_kJmol>  (4) 
-407802.0728211892

>  <E0_minus_Eelec_plus_ZPE_kJmol>  (4) 
0.0

>  <rxn>  (4) 
rmg_rxn_14144

>  <species_type>  (4) 
p0

>  <species_folder>  (4) 
rmg_rxn_14144_p1_C=sbr-C-sbrC=C

>  <frequencies_cm1_list>  (4) 
[209.8207364526, 213.04821955299997, 498.82468063011993, 525.2763080827599, 574.87654304912, 748.93401995516, 893.7518733686398, 905.4944182658398, 936.5057239709599, 975.15311735192, 1080.3828003955998, 1184.87084902472, 1365.78157728012, 1440.54244645896, 1485.45939743708, 1902.75236136284, 3071.2179824580794, 3118.0576893257994, 3138.67924624176, 3141.52904514956, 3241.1758691280797]

>  <E0_kJmol>  (4) 
-407619

>  <H298_kJmol>  (4) 
-407603

$$$$

     RDKit          3D

 13 13  0  0  0  0  0  0  0  0999 V2000
    0.5794    1.5990    0.2108 C   0  0  0  0  0  3  0  0  0  1  0  0
    1.4528    0.6621   -0.2496 O   0  0  0  0  0  0  0  0  0  2  0  0
    1.0751   -0.6763    0.0423 C   0  0  0  0  0  0  0  0  0  3  0  0
   -0.3579   -0.9282   -0.3924 C   0  0  0  0  0  0  0  0  0  4  0  0
   -1.2426    0.1393    0.2269 C   0  0  0  0  0  0  0  0  0  5  0  0
   -0.7410    1.4341   -0.0749 O   0  0  0  0  0  0  0  0  0  6  0  0
    0.9183    2.6078    0.0084 H   0  0  0  0  0  0  0  0  0  7  0  0
    1.1839   -0.8508    1.1199 H   0  0  0  0  0  0  0  0  0  8  0  0
    1.7816   -1.3130   -0.4874 H   0  0  0  0  0  0  0  0  0  9  0  0
   -0.6818   -1.9210   -0.0736 H   0  0  0  0  0  0  0  0  0 10  0  0
   -0.4271   -0.8785   -1.4810 H   0  0  0  0  0  0  0  0  0 11  0  0
   -1.2832    0.0173    1.3164 H   0  0  0  0  0  0  0  0  0 12  0  0
   -2.2575    0.1083   -0.1657 H   0  0  0  0  0  0  0  0  0 13  0  0
  1  6  1  0
  1  7  1  0
  1  2  1  0
  2  3  1  0
  3  4  1  0
  3  9  1  0
  3  8  1  0
  4  5  1  0
  4 10  1  0
  4 11  1  0
  5  6  1  0
  5 12  1  0
  5 13  1  0
M  RAD  1   1   2
M  END
>  <rmg_smiles>  (5) 
[CH]1OCCCO1

>  <rmg_adjacency_list>  (5) 
multiplicity 2
1  O u0 p2 c0 {4,S} {6,S}
2  O u0 p2 c0 {5,S} {6,S}
3  C u0 p0 c0 {4,S} {5,S} {7,S} {8,S}
4  C u0 p0 c0 {1,S} {3,S} {9,S} {10,S}
5  C u0 p0 c0 {2,S} {3,S} {11,S} {12,S}
6  C u1 p0 c0 {1,S} {2,S} {13,S}
7  H u0 p0 c0 {3,S}
8  H u0 p0 c0 {3,S}
9  H u0 p0 c0 {4,S}
10 H u0 p0 c0 {4,S}
11 H u0 p0 c0 {5,S}
12 H u0 p0 c0 {5,S}
13 H u0 p0 c0 {6,S}


>  <multiplicity>  (5) 
2

>  <reaction>  (5) 
rmg_rxn_14144

>  <type>  (5) 
r2

>  <role_mapnums>  (5) 
{}

>  <role_mapidx>  (5) 
{}

>  <ordered_mapped_smiles>  (5) 
[C:1]1([H:7])[O:2][C:3]([H:8])([H:9])[C:4]([H:10])([H:11])[C:5]([H:12])([H:13])[O:6]1

>  <level_of_theory>  (5) 
wb97xd/def2tzvp

>  <lot_method>  (5) 
wb97xd

>  <lot_basis>  (5) 
def2tzvp

>  <spin_multiplicity>  (5) 
2.0

>  <optical_isomers>  (5) 
1.0

>  <modes>  (5) 
IdealGasTranslation(mass=(87.0446, 'amu')),         NonlinearRotor(             inertia = ([96.7564, 101.33, 180.793

>  <frequency_value>  (5) 
unknown

>  <frequency_units>  (5) 
unknown

>  <frequency_list>  (5) 
unknown

>  <arkane_path>  (5) 
/home/calvin/Dropbox/PersonalFolders/Calvin/ZEUS_Converged/rmg_rxn_14144/output/Species/rmg_rxn_14144_r2_sbr-CH-sbr1OCCCO1/arkane/output.py

>  <path_exists>  (5) 
True

>  <E0_value>  (5) 
-805829.6077087622

>  <E0_units>  (5) 
kJ/mol

>  <thermo_class>  (5) 
NASA

>  <Cp0_value>  (5) 
33.257888

>  <Cp0_units>  (5) 
J/(mol*K)

>  <CpInf_value>  (5) 
307.635464

>  <CpInf_units>  (5) 
J/(mol*K)

>  <Tmin_value>  (5) 
10.0

>  <Tmin_units>  (5) 
K

>  <Tmax_value>  (5) 
3000.0

>  <Tmax_units>  (5) 
K

>  <polynomials>  (5) 
[{"name": "polynomial1", "class": "NASAPolynomial", "Tmin_value": 10.0, "Tmin_units": "K", "Tmax_value": 608.1074595469828, "Tmax_units": "K", "coeffs": [4.052683211142334, -0.004788390758683611, 0.000154904213823025, -2.438966662990329e-07, 1.2271311296176538e-10, -96918914.0548943, 10.641158521702149]}, {"name": "polynomial2", "class": "NASAPolynomial", "Tmin_value": 608.1074595469828, "Tmin_units": "K", "Tmax_value": 3000.0, "Tmax_units": "K", "coeffs": [-2.180235188055307, 0.053801046920708896, -3.300684934443777e-05, 9.678427627130114e-09, -1.0905671404916025e-12, -96918481.24434978, 34.93686021924725]}]

>  <H298_value>  (5) 
-192594.0441705642

>  <H298_units>  (5) 
kcal/mol

>  <S298_value>  (5) 
74.06569612686813

>  <S298_units>  (5) 
cal/(mol*K)

>  <Cp_T_value_list>  (5) 
[21.792325409967976, 28.72322220319561, 34.90931137027794, 40.076202661195175, 48.17957800883671, 54.055639254764785, 62.397531497115004, 66.31866110175758, 68.42947246304813]

>  <Cp_T_units>  (5) 
cal/(mol*K)

>  <T_list>  (5) 
[300.0, 400.0, 500.0, 600.0, 800.0, 1000.0, 1500.0, 2000.0, 2400.0]

>  <T_units>  (5) 
K

>  <yaml_path>  (5) 
/home/calvin/Dropbox/PersonalFolders/Calvin/ZEUS_Converged/rmg_rxn_14144/output/Species/rmg_rxn_14144_r2_sbr-CH-sbr1OCCCO1/rmg_rxn_14144_r2_sbr-CH-sbr1OCCCO1.yml

>  <frequencies_cm1>  (5) 
[221.38473973147995, 259.92912833264, 404.37616453883993, 465.21765447404, 498.2203859219599, 675.711355488, 843.04605376576, 891.5750390221999, 897.2334349258798, 928.91083820704, 951.5993577043199, 1041.5293974550398, 1054.4736647832399, 1157.30676995024, 1159.53167319392, 1231.5732161860399, 1233.0290170738797, 1266.9931264665997, 1307.989028827, 1348.11969103708, 1377.30437864708, 1407.0796269946, 1418.3758178459998, 1462.8532817636399, 1490.6165034123997, 1500.0792091833598, 2984.3712191160403, 2988.60128207316, 3033.3465584182795, 3083.9562402266797, 3096.46788747972, 3099.4824940352, 3160.91454470792]

>  <ZPE_kJmol>  (5) 
286.7521305046946

>  <E_elec_kJmol>  (5) 
-806116.3598392669

>  <E0_minus_Eelec_plus_ZPE_kJmol>  (5) 
0.0

>  <rxn>  (5) 
rmg_rxn_14144

>  <species_type>  (5) 
r1

>  <species_folder>  (5) 
rmg_rxn_14144_r2_sbr-CH-sbr1OCCCO1

>  <frequencies_cm1_list>  (5) 
[221.38473973147995, 259.92912833264, 404.37616453883993, 465.21765447404, 498.2203859219599, 675.711355488, 843.04605376576, 891.5750390221999, 897.2334349258798, 928.91083820704, 951.5993577043199, 1041.5293974550398, 1054.4736647832399, 1157.30676995024, 1159.53167319392, 1231.5732161860399, 1233.0290170738797, 1266.9931264665997, 1307.989028827, 1348.11969103708, 1377.30437864708, 1407.0796269946, 1418.3758178459998, 1462.8532817636399, 1490.6165034123997, 1500.0792091833598, 2984.3712191160403, 2988.60128207316, 3033.3465584182795, 3083.9562402266797, 3096.46788747972, 3099.4824940352, 3160.91454470792]

>  <E0_kJmol>  (5) 
-805830

>  <H298_kJmol>  (5) 
-805813

$$$$
