
     RDKit          3D

 14 14  0  0  0  0  0  0  0  0999 V2000
    1.3280    0.3728    0.4666 C   0  0  0  0  0  0  0  0  0  1  0  0
    0.1636    0.1130    1.3899 C   0  0  0  0  0  0  0  0  0  2  0  0
   -0.7778   -0.7450    0.8332 O   0  0  0  0  0  0  0  0  0  3  0  0
   -1.2132   -0.3076   -0.4331 C   0  0  0  0  0  0  0  0  0  4  0  0
   -0.1693   -0.1794   -1.3393 O   0  0  0  0  0  0  0  0  0  5  0  0
    0.7790    0.7747   -0.9014 C   0  0  0  0  0  0  0  0  0  6  0  0
    1.9703    1.1549    0.8735 H   0  0  0  0  0  0  0  0  0  7  0  0
    1.9207   -0.5378    0.3610 H   0  0  0  0  0  0  0  0  0  8  0  0
    0.5487   -0.3979    2.2824 H   0  0  0  0  0  0  0  0  0  9  0  0
   -0.3019    1.0179    1.8024 H   0  0  0  0  0  0  0  0  0 10  0  0
   -1.7336    0.6582   -0.3174 H   0  0  0  0  0  0  0  0  0 11  0  0
   -1.8917   -1.0672   -0.8130 H   0  0  0  0  0  0  0  0  0 12  0  0
    0.3075    1.7665   -0.8475 H   0  0  0  0  0  0  0  0  0 13  0  0
    1.5645    0.8069   -1.6549 H   0  0  0  0  0  0  0  0  0 14  0  0
  1  8  1  0
  1  7  1  0
  1  6  1  0
  1  2  1  0
  2 10  1  0
  2  9  1  0
  2  3  1  0
  3  4  1  0
  4 11  1  0
  4 12  1  0
  4  5  1  0
  5  6  1  0
  6 14  1  0
  6 13  1  0
M  END
>  <rmg_smiles>  (1) 
C1COCOC1

>  <rmg_adjacency_list>  (1) 
1  O u0 p2 c0 {4,S} {6,S}
2  O u0 p2 c0 {5,S} {6,S}
3  C u0 p0 c0 {4,S} {5,S} {7,S} {8,S}
4  C u0 p0 c0 {1,S} {3,S} {9,S} {10,S}
5  C u0 p0 c0 {2,S} {3,S} {11,S} {12,S}
6  C u0 p0 c0 {1,S} {2,S} {13,S} {14,S}
7  H u0 p0 c0 {3,S}
8  H u0 p0 c0 {3,S}
9  H u0 p0 c0 {4,S}
10 H u0 p0 c0 {4,S}
11 H u0 p0 c0 {5,S}
12 H u0 p0 c0 {5,S}
13 H u0 p0 c0 {6,S}
14 H u0 p0 c0 {6,S}


>  <multiplicity>  (1) 
1

>  <reaction>  (1) 
rmg_rxn_316

>  <type>  (1) 
r1h

>  <role_mapnums>  (1) 
{"r1h_a": 2, "r1h_h": 9}

>  <role_mapidx>  (1) 
{"r1h_a": 1, "r1h_h": 8}

>  <ordered_mapped_smiles>  (1) 
[C:1]1([H:7])([H:8])[C:2]([H:9])([H:10])[O:3][C:4]([H:11])([H:12])[O:5][C:6]1([H:13])[H:14]

>  <mol_properties>  (1) 
{"1": {"label": "donator", "atom_type": "Cs"}, "8": {"label": "d_hydrogen", "atom_type": "H0"}}

>  <level_of_theory>  (1) 
wb97xd/def2tzvp

>  <lot_method>  (1) 
wb97xd

>  <lot_basis>  (1) 
def2tzvp

>  <spin_multiplicity>  (1) 
1.0

>  <optical_isomers>  (1) 
1.0

>  <modes>  (1) 
IdealGasTranslation(mass=(88.0524, 'amu')),         NonlinearRotor(             inertia = ([100.123, 103.988, 181.806

>  <frequency_value>  (1) 
unknown

>  <frequency_units>  (1) 
unknown

>  <frequency_list>  (1) 
unknown

>  <arkane_path>  (1) 
/home/calvin/Dropbox/PersonalFolders/Calvin/ATLAS_Converged/rmg_rxn_316/output/Species/rmg_rxn_316_r2_C1COCOC1/arkane/output.py

>  <path_exists>  (1) 
True

>  <E0_value>  (1) 
-807534.4862541369

>  <E0_units>  (1) 
kJ/mol

>  <thermo_class>  (1) 
NASA

>  <Cp0_value>  (1) 
33.257888

>  <Cp0_units>  (1) 
J/(mol*K)

>  <CpInf_value>  (1) 
332.57888

>  <CpInf_units>  (1) 
J/(mol*K)

>  <Tmin_value>  (1) 
10.0

>  <Tmin_units>  (1) 
K

>  <Tmax_value>  (1) 
3000.0

>  <Tmax_units>  (1) 
K

>  <polynomials>  (1) 
[{"name": "polynomial1", "class": "NASAPolynomial", "Tmin_value": 10.0, "Tmin_units": "K", "Tmax_value": 635.616554573151, "Tmax_units": "K", "coeffs": [4.089858497697602, -0.00720848048360332, 0.00016188875003168496, -2.401508213073996e-07, 1.1440937882219611e-10, -97123964.81365098, 9.940070949440356]}, {"name": "polynomial2", "class": "NASAPolynomial", "Tmin_value": 635.616554573151, "Tmin_units": "K", "Tmax_value": 3000.0, "Tmax_units": "K", "coeffs": [-3.6233751272420895, 0.05886750722676344, -3.5427870905530145e-05, 1.0209382893823142e-08, -1.1338653155444558e-12, -97123338.5127768, 40.87012283464024]}]

>  <H298_value>  (1) 
-193001.58453999052

>  <H298_units>  (1) 
kcal/mol

>  <S298_value>  (1) 
72.30963326519604

>  <S298_units>  (1) 
cal/(mol*K)

>  <Cp_T_value_list>  (1) 
[21.739931113059615, 29.14813400113705, 35.94765005011551, 41.73053828287379, 50.792135881792035, 57.413930600437965, 66.93239440365458, 71.40703402864166, 73.74460734469625]

>  <Cp_T_units>  (1) 
cal/(mol*K)

>  <T_list>  (1) 
[300.0, 400.0, 500.0, 600.0, 800.0, 1000.0, 1500.0, 2000.0, 2400.0]

>  <T_units>  (1) 
K

>  <yaml_path>  (1) 
/home/calvin/Dropbox/PersonalFolders/Calvin/ATLAS_Converged/rmg_rxn_316/output/Species/rmg_rxn_316_r2_C1COCOC1/rmg_rxn_316_r2_C1COCOC1.yml

>  <frequencies_cm1>  (1) 
[264.26219606955993, 269.44676998615995, 439.22611503784, 466.70779028847994, 494.62208561427997, 656.81341188736, 851.50617968, 900.41284912904, 919.12538412604, 926.80954069912, 1013.8966485273598, 1037.6289497932798, 1094.57685905204, 1112.95291176836, 1188.75069573052, 1216.28730686372, 1226.8487302858798, 1252.366447735, 1315.55644664964, 1328.3633742714399, 1363.72148168412, 1380.93701388136, 1404.8272558096398, 1432.53554157584, 1460.95799381532, 1489.42164796672, 1490.0946125280798, 1506.58911126672, 2894.63345495428, 2944.5289702893997, 2950.530715459079, 3031.06671929204, 3080.8454958767197, 3088.2893079635996, 3091.87387430064, 3110.9160245929997]

>  <ZPE_kJmol>  (1) 
321.1850391352071

>  <E_elec_kJmol>  (1) 
-807855.671293272

>  <E0_minus_Eelec_plus_ZPE_kJmol>  (1) 
0.0

>  <rxn>  (1) 
rmg_rxn_316

>  <species_type>  (1) 
r1

>  <species_folder>  (1) 
rmg_rxn_316_r2_C1COCOC1

>  <frequencies_cm1_list>  (1) 
[264.26219606955993, 269.44676998615995, 439.22611503784, 466.70779028847994, 494.62208561427997, 656.81341188736, 851.50617968, 900.41284912904, 919.12538412604, 926.80954069912, 1013.8966485273598, 1037.6289497932798, 1094.57685905204, 1112.95291176836, 1188.75069573052, 1216.28730686372, 1226.8487302858798, 1252.366447735, 1315.55644664964, 1328.3633742714399, 1363.72148168412, 1380.93701388136, 1404.8272558096398, 1432.53554157584, 1460.95799381532, 1489.42164796672, 1490.0946125280798, 1506.58911126672, 2894.63345495428, 2944.5289702893997, 2950.530715459079, 3031.06671929204, 3080.8454958767197, 3088.2893079635996, 3091.87387430064, 3110.9160245929997]

>  <E0_kJmol>  (1) 
-807534

>  <H298_kJmol>  (1) 
-807519

$$$$

     RDKit          3D

 12 11  0  0  0  0  0  0  0  0999 V2000
    1.4243   -0.7087   -0.4891 C   0  0  0  0  0  0  0  0  0  1  0  0
   -0.0851   -0.7258   -0.6818 C   0  0  0  0  0  0  0  0  0  2  0  0
   -0.8424   -0.0378    0.4472 C   0  0  0  0  0  0  0  0  0  3  0  0
   -0.4481    1.2799    0.6865 O   0  0  0  0  0  0  0  0  0  4  0  0
    1.7097   -1.2376    0.4236 H   0  0  0  0  0  0  0  0  0  5  0  0
    1.9350   -1.1866   -1.3266 H   0  0  0  0  0  0  0  0  0  6  0  0
    1.7914    0.3150   -0.4037 H   0  0  0  0  0  0  0  0  0  7  0  0
   -0.3544   -0.2418   -1.6245 H   0  0  0  0  0  0  0  0  0  8  0  0
   -0.4468   -1.7560   -0.7531 H   0  0  0  0  0  0  0  0  0  9  0  0
   -1.9237   -0.0956    0.2686 H   0  0  0  0  0  0  0  0  0 10  0  0
   -0.6521   -0.5577    1.3973 H   0  0  0  0  0  0  0  0  0 11  0  0
   -0.7675    1.8165   -0.0426 H   0  0  0  0  0  0  0  0  0 12  0  0
  1  5  1  0
  1  7  1  0
  1  6  1  0
  1  2  1  0
  2  9  1  0
  2  8  1  0
  2  3  1  0
  3 11  1  0
  3  4  1  0
  3 10  1  0
  4 12  1  0
M  END
>  <rmg_smiles>  (2) 
CCCO

>  <rmg_adjacency_list>  (2) 
1  O u0 p2 c0 {3,S} {12,S}
2  C u0 p0 c0 {3,S} {4,S} {5,S} {6,S}
3  C u0 p0 c0 {1,S} {2,S} {7,S} {8,S}
4  C u0 p0 c0 {2,S} {9,S} {10,S} {11,S}
5  H u0 p0 c0 {2,S}
6  H u0 p0 c0 {2,S}
7  H u0 p0 c0 {3,S}
8  H u0 p0 c0 {3,S}
9  H u0 p0 c0 {4,S}
10 H u0 p0 c0 {4,S}
11 H u0 p0 c0 {4,S}
12 H u0 p0 c0 {1,S}


>  <multiplicity>  (2) 
1

>  <reaction>  (2) 
rmg_rxn_316

>  <type>  (2) 
r2h

>  <role_mapnums>  (2) 
{"r2h_a": 4, "r2h_h": 12}

>  <role_mapidx>  (2) 
{"r2h_a": 3, "r2h_h": 11}

>  <ordered_mapped_smiles>  (2) 
[C:1]([C:2]([C:3]([O:4][H:12])([H:10])[H:11])([H:8])[H:9])([H:5])([H:6])[H:7]

>  <mol_properties>  (2) 
{"3": {"label": "acceptor", "atom_type": "O2s"}, "11": {"label": "a_hydrogen", "atom_type": "H0"}}

>  <level_of_theory>  (2) 
wb97xd/def2tzvp

>  <lot_method>  (2) 
wb97xd

>  <lot_basis>  (2) 
def2tzvp

>  <spin_multiplicity>  (2) 
1.0

>  <optical_isomers>  (2) 
2.0

>  <modes>  (2) 
IdealGasTranslation(mass=(60.0575, 'amu')),         NonlinearRotor(             inertia = ([35.1424, 100.065, 117.206

>  <frequency_value>  (2) 
unknown

>  <frequency_units>  (2) 
unknown

>  <frequency_list>  (2) 
unknown

>  <arkane_path>  (2) 
/home/calvin/Dropbox/PersonalFolders/Calvin/ATLAS_Converged/rmg_rxn_316/output/Species/rmg_rxn_316_p1_CCCO/arkane/output.py

>  <path_exists>  (2) 
True

>  <E0_value>  (2) 
-510044.1612319262

>  <E0_units>  (2) 
kJ/mol

>  <thermo_class>  (2) 
NASA

>  <Cp0_value>  (2) 
33.257888

>  <Cp0_units>  (2) 
J/(mol*K)

>  <CpInf_value>  (2) 
282.692048

>  <CpInf_units>  (2) 
J/(mol*K)

>  <Tmin_value>  (2) 
10.0

>  <Tmin_units>  (2) 
K

>  <Tmax_value>  (2) 
3000.0

>  <Tmax_units>  (2) 
K

>  <polynomials>  (2) 
[{"name": "polynomial1", "class": "NASAPolynomial", "Tmin_value": 10.0, "Tmin_units": "K", "Tmax_value": 846.630243671272, "Tmax_units": "K", "coeffs": [3.8720978777463686, 0.013345662780498998, 4.415015699122346e-05, -6.075841520168734e-08, 2.3383100872024888e-11, -61344143.9223187, 9.28781423359728]}, {"name": "polynomial2", "class": "NASAPolynomial", "Tmin_value": 846.630243671272, "Tmin_units": "K", "Tmax_value": 3000.0, "Tmax_units": "K", "coeffs": [0.5209390554344657, 0.03976278268823128, -2.1406169220008097e-05, 5.629208352304104e-09, -5.806874827181009e-13, -61343955.81217305, 22.657055508437733]}]

>  <H298_value>  (2) 
-121899.45329310188

>  <H298_units>  (2) 
kcal/mol

>  <S298_value>  (2) 
73.11930156339949

>  <S298_units>  (2) 
cal/(mol*K)

>  <Cp_T_value_list>  (2) 
[20.66344366355699, 25.80279719874869, 30.70057266079499, 35.13417708434275, 42.2761055553147, 47.546048589404705, 55.76117369247855, 59.943079860189705, 62.009670071783674]

>  <Cp_T_units>  (2) 
cal/(mol*K)

>  <T_list>  (2) 
[300.0, 400.0, 500.0, 600.0, 800.0, 1000.0, 1500.0, 2000.0, 2400.0]

>  <T_units>  (2) 
K

>  <yaml_path>  (2) 
/home/calvin/Dropbox/PersonalFolders/Calvin/ATLAS_Converged/rmg_rxn_316/output/Species/rmg_rxn_316_p1_CCCO/rmg_rxn_316_p1_CCCO.yml

>  <frequencies_cm1>  (2) 
[147.21443129015998, 221.70748804151998, 281.96528422451996, 327.68567248508, 495.52852767651996, 773.66203409248, 866.8264239289199, 907.7811243773999, 991.0089864557999, 1085.4025666645198, 1095.06441500976, 1132.10493382584, 1235.87194899636, 1297.47567430208, 1365.5206318379599, 1374.09062951732, 1401.64784160648, 1415.7594964390798, 1471.3065406925598, 1481.4628119808397, 1492.95814540652, 1498.9667575615201, 2976.8724711465998, 2996.07942908664, 3016.6597840906798, 3038.2633199074, 3059.4823045462003, 3086.4558228831597, 3100.9245609523996, 3838.2877106433593]

>  <ZPE_kJmol>  (2) 
283.9578863328584

>  <E_elec_kJmol>  (2) 
-510328.1191182591

>  <E0_minus_Eelec_plus_ZPE_kJmol>  (2) 
0.0

>  <rxn>  (2) 
rmg_rxn_316

>  <species_type>  (2) 
p0

>  <species_folder>  (2) 
rmg_rxn_316_p1_CCCO

>  <frequencies_cm1_list>  (2) 
[147.21443129015998, 221.70748804151998, 281.96528422451996, 327.68567248508, 495.52852767651996, 773.66203409248, 866.8264239289199, 907.7811243773999, 991.0089864557999, 1085.4025666645198, 1095.06441500976, 1132.10493382584, 1235.87194899636, 1297.47567430208, 1365.5206318379599, 1374.09062951732, 1401.64784160648, 1415.7594964390798, 1471.3065406925598, 1481.4628119808397, 1492.95814540652, 1498.9667575615201, 2976.8724711465998, 2996.07942908664, 3016.6597840906798, 3038.2633199074, 3059.4823045462003, 3086.4558228831597, 3100.9245609523996, 3838.2877106433593]

>  <E0_kJmol>  (2) 
-510044

>  <H298_kJmol>  (2) 
-510027

$$$$

     RDKit          3D

 25 24  0  0  0  0  0  0  0  0999 V2000
    2.4803   -2.1758    1.1195 C   0  0  0  0  0  0  0  0  0  1  0  0
    0.9709   -2.1929    0.9267 C   0  0  0  0  0  0  0  0  0  2  0  0
    0.2136   -1.5049    2.0557 C   0  0  0  0  0  0  0  0  0  3  0  0
    0.6079   -0.1872    2.2951 O   0  0  0  0  0  0  0  0  0  4  0  0
    2.7657   -2.7047    2.0322 H   0  0  0  0  0  0  0  0  0  5  0  0
    2.9910   -2.6537    0.2820 H   0  0  0  0  0  0  0  0  0  6  0  0
    2.8474   -1.1521    1.2049 H   0  0  0  0  0  0  0  0  0  7  0  0
    0.7016   -1.7089   -0.0159 H   0  0  0  0  0  0  0  0  0  8  0  0
    0.6092   -3.2231    0.8554 H   0  0  0  0  0  0  0  0  0  9  0  0
   -0.8677   -1.5628    1.8771 H   0  0  0  0  0  0  0  0  0 10  0  0
    0.4039   -2.0248    3.0058 H   0  0  0  0  0  0  0  0  0 11  0  0
    0.9162    1.3551   -0.5982 C   0  0  0  0  0  0  0  0  0 12  0  0
   -0.2482    1.0952    0.3251 C   0  0  0  0  0  3  0  0  0 13  0  0
   -1.1896    0.2372   -0.2316 O   0  0  0  0  0  0  0  0  0 14  0  0
   -1.6250    0.6746   -1.4979 C   0  0  0  0  0  0  0  0  0 15  0  0
   -0.5812    0.8028   -2.4041 O   0  0  0  0  0  0  0  0  0 16  0  0
    0.3672    1.7569   -1.9662 C   0  0  0  0  0  0  0  0  0 17  0  0
    1.5584    2.1372   -0.1913 H   0  0  0  0  0  0  0  0  0 18  0  0
    1.5089    0.4445   -0.7037 H   0  0  0  0  0  0  0  0  0 19  0  0
    0.1932    0.5096    1.3481 H   0  0  0  0  0  0  0  0  0 20  0  0
   -0.7138    2.0001    0.7376 H   0  0  0  0  0  0  0  0  0 21  0  0
   -2.1455    1.6404   -1.3822 H   0  0  0  0  0  0  0  0  0 22  0  0
   -2.3035   -0.0850   -1.8778 H   0  0  0  0  0  0  0  0  0 23  0  0
   -0.1044    2.7487   -1.9123 H   0  0  0  0  0  0  0  0  0 24  0  0
    1.1526    1.7891   -2.7197 H   0  0  0  0  0  0  0  0  0 25  0  0
  1  7  1  0
  1  5  1  0
  1  6  1  0
  1  2  1  0
  2  8  1  0
  2  3  1  0
  2  9  1  0
  3  4  1  0
  3 11  1  0
  3 10  1  0
  4 20  1  0
 12 19  1  0
 12 18  1  0
 12 17  1  0
 12 13  1  0
 13 21  1  0
 13 14  1  0
 14 15  1  0
 15 16  1  0
 15 23  1  0
 15 22  1  0
 16 17  1  0
 17 24  1  0
 17 25  1  0
M  RAD  1  13   2
M  END
>  <rmg_smiles>  (3) 
CCCO.[CH]1CCOCO1

>  <rmg_adjacency_list>  (3) 
multiplicity 2
1  O u0 p2 c0 {6,S} {9,S}
2  O u0 p2 c0 {9,S} {10,S}
3  O u0 p2 c0 {7,S} {25,S}
4  C u0 p0 c0 {7,S} {8,S} {11,S} {12,S}
5  C u0 p0 c0 {6,S} {10,S} {13,S} {14,S}
6  C u0 p0 c0 {1,S} {5,S} {17,S} {18,S}
7  C u0 p0 c0 {3,S} {4,S} {15,S} {16,S}
8  C u0 p0 c0 {4,S} {19,S} {20,S} {21,S}
9  C u0 p0 c0 {1,S} {2,S} {22,S} {23,S}
10 C u1 p0 c0 {2,S} {5,S} {24,S}
11 H u0 p0 c0 {4,S}
12 H u0 p0 c0 {4,S}
13 H u0 p0 c0 {5,S}
14 H u0 p0 c0 {5,S}
15 H u0 p0 c0 {7,S}
16 H u0 p0 c0 {7,S}
17 H u0 p0 c0 {6,S}
18 H u0 p0 c0 {6,S}
19 H u0 p0 c0 {8,S}
20 H u0 p0 c0 {8,S}
21 H u0 p0 c0 {8,S}
22 H u0 p0 c0 {9,S}
23 H u0 p0 c0 {9,S}
24 H u0 p0 c0 {10,S}
25 H u0 p0 c0 {3,S}


>  <multiplicity>  (3) 
2

>  <reaction>  (3) 
rmg_rxn_316

>  <type>  (3) 
ts

>  <role_mapnums>  (3) 
{"*2": 20, "*1": 13, "*3": 4, "*0": 3, "*4": 14}

>  <role_mapidx>  (3) 
{"*2": 19, "*1": 12, "*3": 3, "*0": 2, "*4": 13}

>  <ordered_mapped_smiles>  (3) 
[C:1]([C:2]([C:3]([O:4][H:20])([H:10])[H:11])([H:8])[H:9])([H:5])([H:6])[H:7].[C:12]1([H:18])([H:19])[C:13]([H:21])[O:14][C:15]([H:22])([H:23])[O:16][C:17]1([H:24])[H:25]

>  <mol_properties>  (3) 
{"2": {"label": "*0", "atom_type": "Cs"}, "3": {"label": "*3", "atom_type": "O2s"}, "12": {"label": "*1", "atom_type": "Cs"}, "13": {"label": "*4", "atom_type": "O2s"}, "19": {"label": "*2", "atom_type": "H0"}}

>  <level_of_theory>  (3) 
wb97xd/def2tzvp

>  <lot_method>  (3) 
wb97xd

>  <lot_basis>  (3) 
def2tzvp

>  <spin_multiplicity>  (3) 
2.0

>  <optical_isomers>  (3) 
2.0

>  <modes>  (3) 
IdealGasTranslation(mass=(147.102, 'amu')),         NonlinearRotor(             inertia = ([239.59, 726.986, 761.56

>  <frequency_value>  (3) 
-1711.18

>  <frequency_units>  (3) 
cm^-1

>  <frequency_list>  (3) 
unknown

>  <arkane_path>  (3) 
/home/calvin/Dropbox/PersonalFolders/Calvin/ATLAS_Converged/rmg_rxn_316/output/rxns/TS0/arkane/output.py

>  <path_exists>  (3) 
True

>  <E0_value>  (3) 
-1315820.0

>  <E0_units>  (3) 
kJ/mol

>  <thermo_class>  (3) 
unknown

>  <Cp0_value>  (3) 
unknown

>  <Cp0_units>  (3) 
unknown

>  <CpInf_value>  (3) 
unknown

>  <CpInf_units>  (3) 
unknown

>  <Tmin_value>  (3) 
unknown

>  <Tmin_units>  (3) 
unknown

>  <Tmax_value>  (3) 
unknown

>  <Tmax_units>  (3) 
unknown

>  <polynomials>  (3) 
unknown

>  <H298_value>  (3) 
unknown

>  <H298_units>  (3) 
unknown

>  <S298_value>  (3) 
unknown

>  <S298_units>  (3) 
unknown

>  <Cp_T_value_list>  (3) 
unknown

>  <Cp_T_units>  (3) 
unknown

>  <T_list>  (3) 
unknown

>  <T_units>  (3) 
unknown

>  <yaml_path>  (3) 
unknown

>  <frequencies_cm1>  (3) 
unknown

>  <ZPE_kJmol>  (3) 
unknown

>  <E_elec_kJmol>  (3) 
unknown

>  <E0_minus_Eelec_plus_ZPE_kJmol>  (3) 
unknown

>  <rxn>  (3) 
unknown

>  <species_type>  (3) 
unknown

>  <species_folder>  (3) 
unknown

>  <frequencies_cm1_list>  (3) 
[]

>  <ts_imag_freq_cm1>  (3) 
-1731.9607

>  <ts_freq_out_path>  (3) 
/home/calvin/Dropbox/PersonalFolders/Calvin/ATLAS_Converged/rmg_rxn_316/output/rxns/TS0/geometry/freq.out

>  <E0_kJmol>  (3) 
-1.31582e+06

>  <H298_kJmol>  (3) 
unknown

$$$$

     RDKit          3D

 13 13  0  0  0  0  0  0  0  0999 V2000
   -0.9087    1.0135    0.2744 C   0  0  0  0  0  3  0  0  0  1  0  0
   -1.1528   -0.4306   -0.0132 C   0  0  0  0  0  0  0  0  0  2  0  0
    0.1597   -1.1985    0.0580 C   0  0  0  0  0  0  0  0  0  3  0  0
    1.1497   -0.5125   -0.6902 O   0  0  0  0  0  0  0  0  0  4  0  0
    1.3593    0.7608   -0.1866 C   0  0  0  0  0  0  0  0  0  5  0  0
    0.2092    1.5798   -0.2538 O   0  0  0  0  0  0  0  0  0  6  0  0
   -1.7260    1.7182    0.3534 H   0  0  0  0  0  0  0  0  0  7  0  0
   -1.8796   -0.8393    0.6913 H   0  0  0  0  0  0  0  0  0  8  0  0
   -1.5725   -0.5507   -1.0227 H   0  0  0  0  0  0  0  0  0  9  0  0
    0.4914   -1.2968    1.1007 H   0  0  0  0  0  0  0  0  0 10  0  0
    0.0732   -2.1931   -0.3758 H   0  0  0  0  0  0  0  0  0 11  0  0
    1.6805    0.7077    0.8652 H   0  0  0  0  0  0  0  0  0 12  0  0
    2.1167    1.2415   -0.8007 H   0  0  0  0  0  0  0  0  0 13  0  0
  1  6  1  0
  1  7  1  0
  1  2  1  0
  2  9  1  0
  2  8  1  0
  2  3  1  0
  3 11  1  0
  3  4  1  0
  3 10  1  0
  4  5  1  0
  5 13  1  0
  5  6  1  0
  5 12  1  0
M  RAD  1   1   2
M  END
>  <rmg_smiles>  (4) 
[CH]1CCOCO1

>  <rmg_adjacency_list>  (4) 
multiplicity 2
1  O u0 p2 c0 {4,S} {5,S}
2  O u0 p2 c0 {5,S} {6,S}
3  C u0 p0 c0 {4,S} {6,S} {7,S} {8,S}
4  C u0 p0 c0 {1,S} {3,S} {9,S} {10,S}
5  C u0 p0 c0 {1,S} {2,S} {11,S} {12,S}
6  C u1 p0 c0 {2,S} {3,S} {13,S}
7  H u0 p0 c0 {3,S}
8  H u0 p0 c0 {3,S}
9  H u0 p0 c0 {4,S}
10 H u0 p0 c0 {4,S}
11 H u0 p0 c0 {5,S}
12 H u0 p0 c0 {5,S}
13 H u0 p0 c0 {6,S}


>  <multiplicity>  (4) 
2

>  <reaction>  (4) 
rmg_rxn_316

>  <type>  (4) 
r1

>  <role_mapnums>  (4) 
{}

>  <role_mapidx>  (4) 
{}

>  <ordered_mapped_smiles>  (4) 
[C:1]1([H:7])[C:2]([H:8])([H:9])[C:3]([H:10])([H:11])[O:4][C:5]([H:12])([H:13])[O:6]1

>  <level_of_theory>  (4) 
wb97xd/def2tzvp

>  <lot_method>  (4) 
wb97xd

>  <lot_basis>  (4) 
def2tzvp

>  <spin_multiplicity>  (4) 
2.0

>  <optical_isomers>  (4) 
2.0

>  <modes>  (4) 
IdealGasTranslation(mass=(87.0446, 'amu')),         NonlinearRotor(             inertia = ([96.9848, 100.571, 180.326

>  <frequency_value>  (4) 
unknown

>  <frequency_units>  (4) 
unknown

>  <frequency_list>  (4) 
unknown

>  <arkane_path>  (4) 
/home/calvin/Dropbox/PersonalFolders/Calvin/ATLAS_Converged/rmg_rxn_316/output/Species/rmg_rxn_316_p2_sbr-CH-sbr1CCOCO1/arkane/output.py

>  <path_exists>  (4) 
True

>  <E0_value>  (4) 
-805827.3421493819

>  <E0_units>  (4) 
kJ/mol

>  <thermo_class>  (4) 
NASA

>  <Cp0_value>  (4) 
33.257888

>  <Cp0_units>  (4) 
J/(mol*K)

>  <CpInf_value>  (4) 
307.635464

>  <CpInf_units>  (4) 
J/(mol*K)

>  <Tmin_value>  (4) 
10.0

>  <Tmin_units>  (4) 
K

>  <Tmax_value>  (4) 
3000.0

>  <Tmax_units>  (4) 
K

>  <polynomials>  (4) 
[{"name": "polynomial1", "class": "NASAPolynomial", "Tmin_value": 10.0, "Tmin_units": "K", "Tmax_value": 594.5881445366083, "Tmax_units": "K", "coeffs": [4.0448110838926565, -0.004287247298286005, 0.0001561678296055211, -2.5056792670345e-07, 1.28608989510542e-10, -96918641.31425966, 11.310846190181683]}, {"name": "polynomial2", "class": "NASAPolynomial", "Tmin_value": 594.5881445366083, "Tmin_units": "K", "Tmax_value": 3000.0, "Tmax_units": "K", "coeffs": [-2.0223142792396813, 0.05358769196829288, -3.287284368824778e-05, 9.64252563065185e-09, -1.0874709432735165e-12, -96918221.37894577, 34.89119071361758]}]

>  <H298_value>  (4) 
-192593.46110107773

>  <H298_units>  (4) 
kcal/mol

>  <S298_value>  (4) 
75.62180337642914

>  <S298_units>  (4) 
cal/(mol*K)

>  <Cp_T_value_list>  (4) 
[22.038399005889005, 28.959178246137498, 35.09449573071628, 40.21693905885679, 48.29063691328946, 54.14658537653456, 62.464910648605866, 66.37739659151993, 68.47747700545682]

>  <Cp_T_units>  (4) 
cal/(mol*K)

>  <T_list>  (4) 
[300.0, 400.0, 500.0, 600.0, 800.0, 1000.0, 1500.0, 2000.0, 2400.0]

>  <T_units>  (4) 
K

>  <yaml_path>  (4) 
/home/calvin/Dropbox/PersonalFolders/Calvin/ATLAS_Converged/rmg_rxn_316/output/Species/rmg_rxn_316_p2_sbr-CH-sbr1CCOCO1/rmg_rxn_316_p2_sbr-CH-sbr1CCOCO1.yml

>  <frequencies_cm1>  (4) 
[225.5461328354, 251.49647035968, 410.99593838732, 475.95761951452, 495.8306750306, 591.7830609069599, 728.8686888501201, 860.14484721256, 919.0292463315599, 933.8413336668, 1002.5523887787199, 1034.68988007632, 1061.81447209032, 1129.37187366848, 1164.5789074041202, 1229.20410625064, 1259.04115746604, 1263.30555534976, 1323.45347976764, 1354.19010605996, 1364.1609687445998, 1410.3689129628801, 1445.48667588936, 1452.1064497378397, 1489.32551017224, 1505.45605868892, 2941.13667954132, 2947.4199711091196, 2972.12051730516, 3065.6282564076, 3096.83183770168, 3120.1177849217997, 3169.457074446]

>  <ZPE_kJmol>  (4) 
285.28140433887154

>  <E_elec_kJmol>  (4) 
-806112.6235537208

>  <E0_minus_Eelec_plus_ZPE_kJmol>  (4) 
0.0

>  <rxn>  (4) 
rmg_rxn_316

>  <species_type>  (4) 
p1

>  <species_folder>  (4) 
rmg_rxn_316_p2_sbr-CH-sbr1CCOCO1

>  <frequencies_cm1_list>  (4) 
[225.5461328354, 251.49647035968, 410.99593838732, 475.95761951452, 495.8306750306, 591.7830609069599, 728.8686888501201, 860.14484721256, 919.0292463315599, 933.8413336668, 1002.5523887787199, 1034.68988007632, 1061.81447209032, 1129.37187366848, 1164.5789074041202, 1229.20410625064, 1259.04115746604, 1263.30555534976, 1323.45347976764, 1354.19010605996, 1364.1609687445998, 1410.3689129628801, 1445.48667588936, 1452.1064497378397, 1489.32551017224, 1505.45605868892, 2941.13667954132, 2947.4199711091196, 2972.12051730516, 3065.6282564076, 3096.83183770168, 3120.1177849217997, 3169.457074446]

>  <E0_kJmol>  (4) 
-805827

>  <H298_kJmol>  (4) 
-805811

$$$$

     RDKit          3D

 11 10  0  0  0  0  0  0  0  0999 V2000
   -1.2230    0.3768   -0.0849 C   0  0  0  0  0  0  0  0  0  1  0  0
   -0.0734   -0.5533    0.2746 C   0  0  0  0  0  0  0  0  0  2  0  0
   -0.0853   -1.8426   -0.5372 C   0  0  0  0  0  0  0  0  0  3  0  0
    0.0319   -1.6944   -1.8815 O   0  0  0  0  0  1  0  0  0  4  0  0
   -2.1874   -0.0885    0.1341 H   0  0  0  0  0  0  0  0  0  5  0  0
   -1.1670    1.3099    0.4765 H   0  0  0  0  0  0  0  0  0  6  0  0
   -1.2014    0.6189   -1.1483 H   0  0  0  0  0  0  0  0  0  7  0  0
    0.8834   -0.0518    0.1071 H   0  0  0  0  0  0  0  0  0  8  0  0
   -0.1104   -0.8149    1.3362 H   0  0  0  0  0  0  0  0  0  9  0  0
    0.6767   -2.5604   -0.1861 H   0  0  0  0  0  0  0  0  0 10  0  0
   -1.0401   -2.3871   -0.3877 H   0  0  0  0  0  0  0  0  0 11  0  0
  1  5  1  0
  1  7  1  0
  1  6  1  0
  1  2  1  0
  2  9  1  0
  2  8  1  0
  2  3  1  0
  3 11  1  0
  3  4  1  0
  3 10  1  0
M  RAD  1   4   2
M  END
>  <rmg_smiles>  (5) 
CCC[O]

>  <rmg_adjacency_list>  (5) 
multiplicity 2
1  O u1 p2 c0 {4,S}
2  C u0 p0 c0 {3,S} {4,S} {5,S} {6,S}
3  C u0 p0 c0 {2,S} {7,S} {8,S} {9,S}
4  C u0 p0 c0 {1,S} {2,S} {10,S} {11,S}
5  H u0 p0 c0 {2,S}
6  H u0 p0 c0 {2,S}
7  H u0 p0 c0 {3,S}
8  H u0 p0 c0 {3,S}
9  H u0 p0 c0 {3,S}
10 H u0 p0 c0 {4,S}
11 H u0 p0 c0 {4,S}


>  <multiplicity>  (5) 
2

>  <reaction>  (5) 
rmg_rxn_316

>  <type>  (5) 
r2

>  <role_mapnums>  (5) 
{}

>  <role_mapidx>  (5) 
{}

>  <ordered_mapped_smiles>  (5) 
[C:1]([C:2]([C:3]([O:4])([H:10])[H:11])([H:8])[H:9])([H:5])([H:6])[H:7]

>  <level_of_theory>  (5) 
wb97xd/def2tzvp

>  <lot_method>  (5) 
wb97xd

>  <lot_basis>  (5) 
def2tzvp

>  <spin_multiplicity>  (5) 
2.0

>  <optical_isomers>  (5) 
2.0

>  <modes>  (5) 
IdealGasTranslation(mass=(59.0497, 'amu')),         NonlinearRotor(             inertia = ([32.4351, 96.9472, 113.933

>  <frequency_value>  (5) 
unknown

>  <frequency_units>  (5) 
unknown

>  <frequency_list>  (5) 
unknown

>  <arkane_path>  (5) 
/home/calvin/Dropbox/PersonalFolders/Calvin/ATLAS_Converged/rmg_rxn_316/output/Species/rmg_rxn_316_r1_CCCsbr-O-sbr/arkane/output.py

>  <path_exists>  (5) 
True

>  <E0_value>  (5) 
-508312.7768161693

>  <E0_units>  (5) 
kJ/mol

>  <thermo_class>  (5) 
NASA

>  <Cp0_value>  (5) 
33.257888

>  <Cp0_units>  (5) 
J/(mol*K)

>  <CpInf_value>  (5) 
257.748632

>  <CpInf_units>  (5) 
J/(mol*K)

>  <Tmin_value>  (5) 
10.0

>  <Tmin_units>  (5) 
K

>  <Tmax_value>  (5) 
3000.0

>  <Tmax_units>  (5) 
K

>  <polynomials>  (5) 
[{"name": "polynomial1", "class": "NASAPolynomial", "Tmin_value": 10.0, "Tmin_units": "K", "Tmax_value": 785.3717716926154, "Tmax_units": "K", "coeffs": [3.8724275172824187, 0.01202069912351536, 4.544202486520592e-05, -6.564450088148968e-08, 2.686947096257633e-11, -61135905.34396986, 9.973124702618271]}, {"name": "polynomial2", "class": "NASAPolynomial", "Tmin_value": 785.3717716926154, "Tmin_units": "K", "Tmax_value": 3000.0, "Tmax_units": "K", "coeffs": [0.6849760368426276, 0.037501340839522466, -2.0884233759964417e-05, 5.647799967688214e-09, -5.962580160166516e-13, -61135689.844430506, 22.765160719957294]}]

>  <H298_value>  (5) 
-121485.75019145291

>  <H298_units>  (5) 
kcal/mol

>  <S298_value>  (5) 
73.74225739173869

>  <S298_units>  (5) 
cal/(mol*K)

>  <Cp_T_value_list>  (5) 
[19.89921160802715, 24.71695701807689, 29.245842514069615, 33.279841046223126, 39.679715519605324, 44.42126905520667, 51.647954059212324, 55.2304186783069, 57.00855164862186]

>  <Cp_T_units>  (5) 
cal/(mol*K)

>  <T_list>  (5) 
[300.0, 400.0, 500.0, 600.0, 800.0, 1000.0, 1500.0, 2000.0, 2400.0]

>  <T_units>  (5) 
K

>  <yaml_path>  (5) 
/home/calvin/Dropbox/PersonalFolders/Calvin/ATLAS_Converged/rmg_rxn_316/output/Species/rmg_rxn_316_r1_CCCsbr-O-sbr/rmg_rxn_316_r1_CCCsbr-O-sbr.yml

>  <frequencies_cm1>  (5) 
[137.93713412284, 222.36671863223998, 308.28643895607996, 429.70160639899996, 504.1397272677999, 783.2964144964401, 869.12686401112, 973.4157700659599, 995.0261728679999, 1094.40518441904, 1104.0052298964, 1206.5018527827199, 1284.0026491042397, 1339.0209354880799, 1351.92400090436, 1370.7120727398797, 1408.8169742805599, 1470.9906593678397, 1485.0061764059599, 1493.1984898927199, 2865.86078646348, 2916.58720702232, 3013.99539378652, 3016.570513281519, 3055.2591085743998, 3086.8403740610793, 3099.85331124248]

>  <ZPE_kJmol>  (5) 
244.5577291513973

>  <E_elec_kJmol>  (5) 
-508557.3345453207

>  <E0_minus_Eelec_plus_ZPE_kJmol>  (5) 
0.0

>  <rxn>  (5) 
rmg_rxn_316

>  <species_type>  (5) 
r0

>  <species_folder>  (5) 
rmg_rxn_316_r1_CCCsbr-O-sbr

>  <frequencies_cm1_list>  (5) 
[137.93713412284, 222.36671863223998, 308.28643895607996, 429.70160639899996, 504.1397272677999, 783.2964144964401, 869.12686401112, 973.4157700659599, 995.0261728679999, 1094.40518441904, 1104.0052298964, 1206.5018527827199, 1284.0026491042397, 1339.0209354880799, 1351.92400090436, 1370.7120727398797, 1408.8169742805599, 1470.9906593678397, 1485.0061764059599, 1493.1984898927199, 2865.86078646348, 2916.58720702232, 3013.99539378652, 3016.570513281519, 3055.2591085743998, 3086.8403740610793, 3099.85331124248]

>  <E0_kJmol>  (5) 
-508313

>  <H298_kJmol>  (5) 
-508296

$$$$
