
     RDKit          3D

 14 13  0  0  0  0  0  0  0  0999 V2000
    0.3856    2.2356    1.1052 C   0  0  0  0  0  0  0  0  0  1  0  0
   -0.5933    1.7826    0.0544 C   0  0  0  0  0  0  0  0  0  2  0  0
   -0.2256    0.4647   -0.5900 C   0  0  0  0  0  0  0  0  0  3  0  0
   -0.2539   -0.5505    0.4276 O   0  0  0  0  0  0  0  0  0  4  0  0
    0.1313   -1.7685    0.0581 C   0  0  0  0  0  0  0  0  0  5  0  0
    0.4848   -2.0912   -1.0372 O   0  0  0  0  0  0  0  0  0  6  0  0
    1.3409    2.3776    0.6033 H   0  0  0  0  0  0  0  0  0  7  0  0
    0.5895    1.5005    1.8818 H   0  0  0  0  0  0  0  0  0  8  0  0
    0.1805    3.2203    1.5203 H   0  0  0  0  0  0  0  0  0  9  0  0
   -0.6628    2.5315   -0.7382 H   0  0  0  0  0  0  0  0  0 10  0  0
   -1.5933    1.7002    0.4959 H   0  0  0  0  0  0  0  0  0 11  0  0
   -0.9304    0.1924   -1.3768 H   0  0  0  0  0  0  0  0  0 12  0  0
    0.7746    0.5045   -1.0234 H   0  0  0  0  0  0  0  0  0 13  0  0
    0.0749   -2.4451    0.9216 H   0  0  0  0  0  0  0  0  0 14  0  0
  1  8  1  0
  1  7  1  0
  1  9  1  0
  1  2  1  0
  2 10  1  0
  2 11  1  0
  2  3  1  0
  3  4  1  0
  3 13  1  0
  3 12  1  0
  4  5  1  0
  5  6  1  0
  5 14  1  0
M  END
>  <rmg_smiles>  (1) 
CCCO[CH]O

>  <rmg_adjacency_list>  (1) 
1  O u0 p2 c0 {4,S} {6,S}
2  O u0 p2 c0 {6,S}
3  C u0 p0 c0 {4,S} {5,S} {7,S} {8,S}
4  C u0 p0 c0 {1,S} {3,S} {9,S} {10,S}
5  C u0 p0 c0 {3,S} {11,S} {12,S} {13,S}
6  C u0 p0 c0 {1,S} {2,S} {14,S}
7  H u0 p0 c0 {3,S}
8  H u0 p0 c0 {3,S}
9  H u0 p0 c0 {4,S}
10 H u0 p0 c0 {4,S}
11 H u0 p0 c0 {5,S}
12 H u0 p0 c0 {5,S}
13 H u0 p0 c0 {5,S}
14 H u0 p0 c0 {6,S}


>  <multiplicity>  (1) 
1

>  <reaction>  (1) 
rmg_rxn_1447

>  <type>  (1) 
r1h

>  <role_mapnums>  (1) 
{"r1h_a": 1, "r1h_h": 7}

>  <role_mapidx>  (1) 
{"r1h_a": 0, "r1h_h": 6}

>  <ordered_mapped_smiles>  (1) 
[C:1]([C:2]([C:3]([O:4][CH:5]([OH:6])[H:14])([H:12])[H:13])([H:10])[H:11])([H:7])([H:8])[H:9]

>  <mol_properties>  (1) 
{"0": {"label": "donator", "atom_type": "Cs"}, "6": {"label": "d_hydrogen", "atom_type": "H0"}}

>  <level_of_theory>  (1) 
wb97xd/def2tzvp

>  <lot_method>  (1) 
wb97xd

>  <lot_basis>  (1) 
def2tzvp

>  <spin_multiplicity>  (1) 
1.0

>  <optical_isomers>  (1) 
2.0

>  <modes>  (1) 
IdealGasTranslation(mass=(88.0524, 'amu')),         NonlinearRotor(             inertia = ([48.3633, 284.16, 302.217

>  <frequency_value>  (1) 
unknown

>  <frequency_units>  (1) 
unknown

>  <frequency_list>  (1) 
unknown

>  <arkane_path>  (1) 
/home/calvin/Dropbox/PersonalFolders/Calvin/ATLAS_Converged/rmg_rxn_1447/output/Species/rmg_rxn_1447_r2_CCCOC=O/arkane/output.py

>  <path_exists>  (1) 
True

>  <E0_value>  (1) 
-807618.4108643779

>  <E0_units>  (1) 
kJ/mol

>  <thermo_class>  (1) 
NASA

>  <Cp0_value>  (1) 
33.257888

>  <Cp0_units>  (1) 
J/(mol*K)

>  <CpInf_value>  (1) 
332.57888

>  <CpInf_units>  (1) 
J/(mol*K)

>  <Tmin_value>  (1) 
10.0

>  <Tmin_units>  (1) 
K

>  <Tmax_value>  (1) 
3000.0

>  <Tmax_units>  (1) 
K

>  <polynomials>  (1) 
[{"name": "polynomial1", "class": "NASAPolynomial", "Tmin_value": 10.0, "Tmin_units": "K", "Tmax_value": 405.10744411587814, "Tmax_units": "K", "coeffs": [3.6051186443860916, 0.0433857404928104, -0.00011712945642388352, 3.5153974457342437e-07, -3.3677062560376364e-10, -97134056.76009497, 11.602927682630103]}, {"name": "polynomial2", "class": "NASAPolynomial", "Tmin_value": 405.10744411587814, "Tmin_units": "K", "Tmax_value": 3000.0, "Tmax_units": "K", "coeffs": [-0.7474451635456619, 0.053294207334936367, -3.1374616587479094e-05, 8.91792929927193e-09, -9.826468132408713e-13, -97133432.76263109, 32.017607916268844]}]

>  <H298_value>  (1) 
-193020.456463745

>  <H298_units>  (1) 
kcal/mol

>  <S298_value>  (1) 
84.07242684194651

>  <S298_units>  (1) 
cal/(mol*K)

>  <Cp_T_value_list>  (1) 
[25.521535606004147, 31.985911797342972, 37.97418499098442, 43.188235042536576, 51.611039182396816, 57.842470286699886, 67.01722850328892, 71.46707694187613, 73.76600476206598]

>  <Cp_T_units>  (1) 
cal/(mol*K)

>  <T_list>  (1) 
[300.0, 400.0, 500.0, 600.0, 800.0, 1000.0, 1500.0, 2000.0, 2400.0]

>  <T_units>  (1) 
K

>  <yaml_path>  (1) 
/home/calvin/Dropbox/PersonalFolders/Calvin/ATLAS_Converged/rmg_rxn_1447/output/Species/rmg_rxn_1447_r2_CCCOC=O/rmg_rxn_1447_r2_CCCOC=O.yml

>  <frequencies_cm1>  (1) 
[46.4551556898, 126.02978157796, 189.48759292007998, 250.07500439844, 297.16878972300003, 346.86516248384, 461.00819247287995, 761.5486719879999, 784.73161442832, 897.4257105148399, 914.51763697632, 942.4594002434001, 1045.6633226176798, 1075.20509346432, 1123.17098592452, 1166.94801733952, 1239.2985746710401, 1272.15709942724, 1302.4817066003598, 1370.97301818204, 1394.12849268108, 1404.8547237509197, 1411.8865167186, 1469.7752029661997, 1483.13835639892, 1494.14613386688, 1498.0465815286398, 1809.5330356438396, 3017.80657063912, 3018.8022835105194, 3022.331913965, 3030.1602772297992, 3060.8351006542393, 3080.8180279354397, 3091.29704753376, 3102.77178000348]

>  <ZPE_kJmol>  (1) 
311.0531007319138

>  <E_elec_kJmol>  (1) 
-807929.4639651098

>  <E0_minus_Eelec_plus_ZPE_kJmol>  (1) 
0.0

>  <rxn>  (1) 
rmg_rxn_1447

>  <species_type>  (1) 
r1

>  <species_folder>  (1) 
rmg_rxn_1447_r2_CCCOC=O

>  <frequencies_cm1_list>  (1) 
[46.4551556898, 126.02978157796, 189.48759292007998, 250.07500439844, 297.16878972300003, 346.86516248384, 461.00819247287995, 761.5486719879999, 784.73161442832, 897.4257105148399, 914.51763697632, 942.4594002434001, 1045.6633226176798, 1075.20509346432, 1123.17098592452, 1166.94801733952, 1239.2985746710401, 1272.15709942724, 1302.4817066003598, 1370.97301818204, 1394.12849268108, 1404.8547237509197, 1411.8865167186, 1469.7752029661997, 1483.13835639892, 1494.14613386688, 1498.0465815286398, 1809.5330356438396, 3017.80657063912, 3018.8022835105194, 3022.331913965, 3030.1602772297992, 3060.8351006542393, 3080.8180279354397, 3091.29704753376, 3102.77178000348]

>  <E0_kJmol>  (1) 
-807618

>  <H298_kJmol>  (1) 
-807598

$$$$

     RDKit          3D

 12 11  0  0  0  0  0  0  0  0999 V2000
    0.3817   -1.3138   -0.9809 C   0  0  0  0  0  0  0  0  0  1  0  0
    0.1321   -0.8686    0.4530 C   0  0  0  0  0  0  0  0  0  2  0  0
    0.2635    0.6369    0.6427 C   0  0  0  0  0  0  0  0  0  3  0  0
   -0.6469    1.3885   -0.1056 O   0  0  0  0  0  0  0  0  0  4  0  0
    1.4193   -1.1282   -1.2686 H   0  0  0  0  0  0  0  0  0  5  0  0
    0.1763   -2.3764   -1.1106 H   0  0  0  0  0  0  0  0  0  6  0  0
   -0.2552   -0.7639   -1.6751 H   0  0  0  0  0  0  0  0  0  7  0  0
   -0.8700   -1.1690    0.7748 H   0  0  0  0  0  0  0  0  0  8  0  0
    0.8343   -1.3648    1.1297 H   0  0  0  0  0  0  0  0  0  9  0  0
    0.2035    0.8982    1.7075 H   0  0  0  0  0  0  0  0  0 10  0  0
    1.2519    0.9704    0.2977 H   0  0  0  0  0  0  0  0  0 11  0  0
   -1.5004    1.3199    0.3284 H   0  0  0  0  0  0  0  0  0 12  0  0
  1  5  1  0
  1  7  1  0
  1  6  1  0
  1  2  1  0
  2  9  1  0
  2  8  1  0
  2  3  1  0
  3 11  1  0
  3  4  1  0
  3 10  1  0
  4 12  1  0
M  END
>  <rmg_smiles>  (2) 
CCCO

>  <rmg_adjacency_list>  (2) 
1  O u0 p2 c0 {3,S} {12,S}
2  C u0 p0 c0 {3,S} {4,S} {5,S} {6,S}
3  C u0 p0 c0 {1,S} {2,S} {7,S} {8,S}
4  C u0 p0 c0 {2,S} {9,S} {10,S} {11,S}
5  H u0 p0 c0 {2,S}
6  H u0 p0 c0 {2,S}
7  H u0 p0 c0 {3,S}
8  H u0 p0 c0 {3,S}
9  H u0 p0 c0 {4,S}
10 H u0 p0 c0 {4,S}
11 H u0 p0 c0 {4,S}
12 H u0 p0 c0 {1,S}


>  <multiplicity>  (2) 
1

>  <reaction>  (2) 
rmg_rxn_1447

>  <type>  (2) 
r2h

>  <role_mapnums>  (2) 
{"r2h_a": 4, "r2h_h": 12}

>  <role_mapidx>  (2) 
{"r2h_a": 3, "r2h_h": 11}

>  <ordered_mapped_smiles>  (2) 
[C:1]([C:2]([C:3]([O:4][H:12])([H:10])[H:11])([H:8])[H:9])([H:5])([H:6])[H:7]

>  <mol_properties>  (2) 
{"3": {"label": "acceptor", "atom_type": "O2s"}, "11": {"label": "a_hydrogen", "atom_type": "H0"}}

>  <level_of_theory>  (2) 
wb97xd/def2tzvp

>  <lot_method>  (2) 
wb97xd

>  <lot_basis>  (2) 
def2tzvp

>  <spin_multiplicity>  (2) 
1.0

>  <optical_isomers>  (2) 
2.0

>  <modes>  (2) 
IdealGasTranslation(mass=(60.0575, 'amu')),         NonlinearRotor(             inertia = ([35.1424, 100.065, 117.206

>  <frequency_value>  (2) 
unknown

>  <frequency_units>  (2) 
unknown

>  <frequency_list>  (2) 
unknown

>  <arkane_path>  (2) 
/home/calvin/Dropbox/PersonalFolders/Calvin/ATLAS_Converged/rmg_rxn_1447/output/Species/rmg_rxn_1447_p1_CCCO/arkane/output.py

>  <path_exists>  (2) 
True

>  <E0_value>  (2) 
-510044.1612319262

>  <E0_units>  (2) 
kJ/mol

>  <thermo_class>  (2) 
NASA

>  <Cp0_value>  (2) 
33.257888

>  <Cp0_units>  (2) 
J/(mol*K)

>  <CpInf_value>  (2) 
282.692048

>  <CpInf_units>  (2) 
J/(mol*K)

>  <Tmin_value>  (2) 
10.0

>  <Tmin_units>  (2) 
K

>  <Tmax_value>  (2) 
3000.0

>  <Tmax_units>  (2) 
K

>  <polynomials>  (2) 
[{"name": "polynomial1", "class": "NASAPolynomial", "Tmin_value": 10.0, "Tmin_units": "K", "Tmax_value": 846.630243671272, "Tmax_units": "K", "coeffs": [3.8720978777463686, 0.013345662780498998, 4.415015699122346e-05, -6.075841520168734e-08, 2.3383100872024888e-11, -61344143.9223187, 9.28781423359728]}, {"name": "polynomial2", "class": "NASAPolynomial", "Tmin_value": 846.630243671272, "Tmin_units": "K", "Tmax_value": 3000.0, "Tmax_units": "K", "coeffs": [0.5209390554344657, 0.03976278268823128, -2.1406169220008097e-05, 5.629208352304104e-09, -5.806874827181009e-13, -61343955.81217305, 22.657055508437733]}]

>  <H298_value>  (2) 
-121899.45329310188

>  <H298_units>  (2) 
kcal/mol

>  <S298_value>  (2) 
73.11930156339949

>  <S298_units>  (2) 
cal/(mol*K)

>  <Cp_T_value_list>  (2) 
[20.66344366355699, 25.80279719874869, 30.70057266079499, 35.13417708434275, 42.2761055553147, 47.546048589404705, 55.76117369247855, 59.943079860189705, 62.009670071783674]

>  <Cp_T_units>  (2) 
cal/(mol*K)

>  <T_list>  (2) 
[300.0, 400.0, 500.0, 600.0, 800.0, 1000.0, 1500.0, 2000.0, 2400.0]

>  <T_units>  (2) 
K

>  <yaml_path>  (2) 
/home/calvin/Dropbox/PersonalFolders/Calvin/ATLAS_Converged/rmg_rxn_1447/output/Species/rmg_rxn_1447_p1_CCCO/rmg_rxn_1447_p1_CCCO.yml

>  <frequencies_cm1>  (2) 
[147.21443129015998, 221.70748804151998, 281.96528422451996, 327.68567248508, 495.52852767651996, 773.66203409248, 866.8264239289199, 907.7811243773999, 991.0089864557999, 1085.4025666645198, 1095.06441500976, 1132.10493382584, 1235.87194899636, 1297.47567430208, 1365.5206318379599, 1374.09062951732, 1401.64784160648, 1415.7594964390798, 1471.3065406925598, 1481.4628119808397, 1492.95814540652, 1498.9667575615201, 2976.8724711465998, 2996.07942908664, 3016.6597840906798, 3038.2633199074, 3059.4823045462003, 3086.4558228831597, 3100.9245609523996, 3838.2877106433593]

>  <ZPE_kJmol>  (2) 
283.9578863328584

>  <E_elec_kJmol>  (2) 
-510328.1191182591

>  <E0_minus_Eelec_plus_ZPE_kJmol>  (2) 
0.0

>  <rxn>  (2) 
rmg_rxn_1447

>  <species_type>  (2) 
p0

>  <species_folder>  (2) 
rmg_rxn_1447_p1_CCCO

>  <frequencies_cm1_list>  (2) 
[147.21443129015998, 221.70748804151998, 281.96528422451996, 327.68567248508, 495.52852767651996, 773.66203409248, 866.8264239289199, 907.7811243773999, 991.0089864557999, 1085.4025666645198, 1095.06441500976, 1132.10493382584, 1235.87194899636, 1297.47567430208, 1365.5206318379599, 1374.09062951732, 1401.64784160648, 1415.7594964390798, 1471.3065406925598, 1481.4628119808397, 1492.95814540652, 1498.9667575615201, 2976.8724711465998, 2996.07942908664, 3016.6597840906798, 3038.2633199074, 3059.4823045462003, 3086.4558228831597, 3100.9245609523996, 3838.2877106433593]

>  <E0_kJmol>  (2) 
-510044

>  <H298_kJmol>  (2) 
-510027

$$$$

     RDKit          3D

 25 23  0  0  0  0  0  0  0  0999 V2000
    2.4834   -0.6464   -0.7171 C   0  0  0  0  0  0  0  0  0  1  0  0
    2.2337   -0.2012    0.7168 C   0  0  0  0  0  0  0  0  0  2  0  0
    2.3651    1.3043    0.9065 C   0  0  0  0  0  0  0  0  0  3  0  0
    1.4548    2.0559    0.1582 O   0  0  0  0  0  0  0  0  0  4  0  0
    3.5210   -0.4608   -1.0047 H   0  0  0  0  0  0  0  0  0  5  0  0
    2.2779   -1.7090   -0.8467 H   0  0  0  0  0  0  0  0  0  6  0  0
    1.8465   -0.0965   -1.4113 H   0  0  0  0  0  0  0  0  0  7  0  0
    1.2316   -0.5016    1.0387 H   0  0  0  0  0  0  0  0  0  8  0  0
    2.9359   -0.6974    1.3936 H   0  0  0  0  0  0  0  0  0  9  0  0
    2.3052    1.5656    1.9714 H   0  0  0  0  0  0  0  0  0 10  0  0
    3.3536    1.6378    0.5615 H   0  0  0  0  0  0  0  0  0 11  0  0
   -0.7598    1.8020    1.3032 C   0  0  0  0  0  3  0  0  0 12  0  0
   -1.7388    1.3489    0.2524 C   0  0  0  0  0  0  0  0  0 13  0  0
   -1.3711    0.0311   -0.3920 C   0  0  0  0  0  0  0  0  0 14  0  0
   -1.3994   -0.9842    0.6256 O   0  0  0  0  0  0  0  0  0 15  0  0
   -1.0142   -2.2021    0.2561 C   0  0  0  0  0  0  0  0  0 16  0  0
   -0.6606   -2.5248   -0.8392 O   0  0  0  0  0  0  0  0  0 17  0  0
    0.3531    1.9674    0.7184 H   0  0  0  0  0  0  0  0  0 18  0  0
   -0.5560    1.0669    2.0798 H   0  0  0  0  0  0  0  0  0 19  0  0
   -0.9650    2.7867    1.7183 H   0  0  0  0  0  0  0  0  0 20  0  0
   -1.8083    2.0978   -0.5402 H   0  0  0  0  0  0  0  0  0 21  0  0
   -2.7388    1.2666    0.6939 H   0  0  0  0  0  0  0  0  0 22  0  0
   -2.0758   -0.2413   -1.1788 H   0  0  0  0  0  0  0  0  0 23  0  0
   -0.3709    0.0709   -0.8254 H   0  0  0  0  0  0  0  0  0 24  0  0
   -1.0705   -2.8788    1.1196 H   0  0  0  0  0  0  0  0  0 25  0  0
  1  7  1  0
  1  5  1  0
  1  6  1  0
  1  2  1  0
  2  8  1  0
  2  3  1  0
  2  9  1  0
  3  4  1  0
  3 11  1  0
  3 10  1  0
  4 18  1  0
 12 19  1  0
 12 20  1  0
 12 13  1  0
 13 21  1  0
 13 14  1  0
 13 22  1  0
 14 24  1  0
 14 23  1  0
 14 15  1  0
 15 16  1  0
 16 17  1  0
 16 25  1  0
M  RAD  1  12   2
M  END
>  <rmg_smiles>  (3) 
CCCO.[CH2]CCO[CH]O

>  <rmg_adjacency_list>  (3) 
multiplicity 2
1  O u0 p2 c0 {6,S} {10,S}
2  O u0 p2 c0 {7,S} {25,S}
3  O u0 p2 c0 {10,S}
4  C u0 p0 c0 {7,S} {8,S} {11,S} {12,S}
5  C u0 p0 c0 {6,S} {9,S} {13,S} {14,S}
6  C u0 p0 c0 {1,S} {5,S} {17,S} {18,S}
7  C u0 p0 c0 {2,S} {4,S} {15,S} {16,S}
8  C u0 p0 c0 {4,S} {19,S} {20,S} {21,S}
9  C u1 p0 c0 {5,S} {22,S} {23,S}
10 C u0 p0 c0 {1,S} {3,S} {24,S}
11 H u0 p0 c0 {4,S}
12 H u0 p0 c0 {4,S}
13 H u0 p0 c0 {5,S}
14 H u0 p0 c0 {5,S}
15 H u0 p0 c0 {7,S}
16 H u0 p0 c0 {7,S}
17 H u0 p0 c0 {6,S}
18 H u0 p0 c0 {6,S}
19 H u0 p0 c0 {8,S}
20 H u0 p0 c0 {8,S}
21 H u0 p0 c0 {8,S}
22 H u0 p0 c0 {9,S}
23 H u0 p0 c0 {9,S}
24 H u0 p0 c0 {10,S}
25 H u0 p0 c0 {2,S}


>  <multiplicity>  (3) 
2

>  <reaction>  (3) 
rmg_rxn_1447

>  <type>  (3) 
ts

>  <role_mapnums>  (3) 
{"*2": 18, "*1": 12, "*3": 4, "*0": 3, "*4": 13}

>  <role_mapidx>  (3) 
{"*2": 17, "*1": 11, "*3": 3, "*0": 2, "*4": 12}

>  <ordered_mapped_smiles>  (3) 
[C:1]([C:2]([C:3]([O:4][H:18])([H:10])[H:11])([H:8])[H:9])([H:5])([H:6])[H:7].[C:12]([C:13]([C:14]([O:15][CH:16]([OH:17])[H:25])([H:23])[H:24])([H:21])[H:22])([H:19])[H:20]

>  <mol_properties>  (3) 
{"2": {"label": "*0", "atom_type": "Cs"}, "3": {"label": "*3", "atom_type": "O2s"}, "11": {"label": "*1", "atom_type": "Cs"}, "12": {"label": "*4", "atom_type": "Cs"}, "17": {"label": "*2", "atom_type": "H0"}}

>  <level_of_theory>  (3) 
wb97xd/def2tzvp

>  <lot_method>  (3) 
wb97xd

>  <lot_basis>  (3) 
def2tzvp

>  <spin_multiplicity>  (3) 
2.0

>  <optical_isomers>  (3) 
2.0

>  <modes>  (3) 
IdealGasTranslation(mass=(147.102, 'amu')),         NonlinearRotor(             inertia = ([373.724, 542.113, 802.291

>  <frequency_value>  (3) 
-1731.89

>  <frequency_units>  (3) 
cm^-1

>  <frequency_list>  (3) 
unknown

>  <arkane_path>  (3) 
/home/calvin/Dropbox/PersonalFolders/Calvin/ATLAS_Converged/rmg_rxn_1447/output/rxns/TS0/arkane/output.py

>  <path_exists>  (3) 
True

>  <E0_value>  (3) 
-1315900.0

>  <E0_units>  (3) 
kJ/mol

>  <thermo_class>  (3) 
unknown

>  <Cp0_value>  (3) 
unknown

>  <Cp0_units>  (3) 
unknown

>  <CpInf_value>  (3) 
unknown

>  <CpInf_units>  (3) 
unknown

>  <Tmin_value>  (3) 
unknown

>  <Tmin_units>  (3) 
unknown

>  <Tmax_value>  (3) 
unknown

>  <Tmax_units>  (3) 
unknown

>  <polynomials>  (3) 
unknown

>  <H298_value>  (3) 
unknown

>  <H298_units>  (3) 
unknown

>  <S298_value>  (3) 
unknown

>  <S298_units>  (3) 
unknown

>  <Cp_T_value_list>  (3) 
unknown

>  <Cp_T_units>  (3) 
unknown

>  <T_list>  (3) 
unknown

>  <T_units>  (3) 
unknown

>  <yaml_path>  (3) 
unknown

>  <frequencies_cm1>  (3) 
unknown

>  <ZPE_kJmol>  (3) 
unknown

>  <E_elec_kJmol>  (3) 
unknown

>  <E0_minus_Eelec_plus_ZPE_kJmol>  (3) 
unknown

>  <rxn>  (3) 
unknown

>  <species_type>  (3) 
unknown

>  <species_folder>  (3) 
unknown

>  <frequencies_cm1_list>  (3) 
[]

>  <ts_imag_freq_cm1>  (3) 
-1752.9249

>  <ts_freq_out_path>  (3) 
/home/calvin/Dropbox/PersonalFolders/Calvin/ATLAS_Converged/rmg_rxn_1447/output/rxns/TS0/geometry/freq.out

>  <E0_kJmol>  (3) 
-1.3159e+06

>  <H298_kJmol>  (3) 
unknown

$$$$

     RDKit          3D

 13 12  0  0  0  0  0  0  0  0999 V2000
   -1.5801    1.1066    0.0514 C   0  0  0  0  0  3  0  0  0  1  0  0
   -0.9927   -0.2392    0.2618 C   0  0  0  0  0  0  0  0  0  2  0  0
   -1.7553   -1.0998    1.2550 C   0  0  0  0  0  0  0  0  0  3  0  0
   -1.8362   -0.4776    2.5484 O   0  0  0  0  0  0  0  0  0  4  0  0
   -0.7919   -0.6298    3.3579 C   0  0  0  0  0  0  0  0  0  5  0  0
    0.2062   -1.2441    3.1188 O   0  0  0  0  0  0  0  0  0  6  0  0
   -1.2814    1.7056   -0.7974 H   0  0  0  0  0  0  0  0  0  7  0  0
   -2.2054    1.5630    0.8065 H   0  0  0  0  0  0  0  0  0  8  0  0
    0.0499   -0.1626    0.6013 H   0  0  0  0  0  0  0  0  0  9  0  0
   -0.9457   -0.7884   -0.6852 H   0  0  0  0  0  0  0  0  0 10  0  0
   -1.2846   -2.0771    1.3590 H   0  0  0  0  0  0  0  0  0 11  0  0
   -2.7927   -1.2238    0.9481 H   0  0  0  0  0  0  0  0  0 12  0  0
   -0.9867   -0.1021    4.3012 H   0  0  0  0  0  0  0  0  0 13  0  0
  1  8  1  0
  1  7  1  0
  1  2  1  0
  2 10  1  0
  2  9  1  0
  2  3  1  0
  3 11  1  0
  3  4  1  0
  3 12  1  0
  4  5  1  0
  5 13  1  0
  5  6  1  0
M  RAD  1   1   2
M  END
>  <rmg_smiles>  (4) 
[CH2]CCO[CH]O

>  <rmg_adjacency_list>  (4) 
multiplicity 2
1  O u0 p2 c0 {4,S} {6,S}
2  O u0 p2 c0 {6,S}
3  C u0 p0 c0 {4,S} {5,S} {7,S} {8,S}
4  C u0 p0 c0 {1,S} {3,S} {9,S} {10,S}
5  C u1 p0 c0 {3,S} {11,S} {12,S}
6  C u0 p0 c0 {1,S} {2,S} {13,S}
7  H u0 p0 c0 {3,S}
8  H u0 p0 c0 {3,S}
9  H u0 p0 c0 {4,S}
10 H u0 p0 c0 {4,S}
11 H u0 p0 c0 {5,S}
12 H u0 p0 c0 {5,S}
13 H u0 p0 c0 {6,S}


>  <multiplicity>  (4) 
2

>  <reaction>  (4) 
rmg_rxn_1447

>  <type>  (4) 
r1

>  <role_mapnums>  (4) 
{}

>  <role_mapidx>  (4) 
{}

>  <ordered_mapped_smiles>  (4) 
[C:1]([C:2]([C:3]([O:4][CH:5]([OH:6])[H:13])([H:11])[H:12])([H:9])[H:10])([H:7])[H:8]

>  <level_of_theory>  (4) 
wb97xd/def2tzvp

>  <lot_method>  (4) 
wb97xd

>  <lot_basis>  (4) 
def2tzvp

>  <spin_multiplicity>  (4) 
2.0

>  <optical_isomers>  (4) 
2.0

>  <modes>  (4) 
IdealGasTranslation(mass=(87.0446, 'amu')),         NonlinearRotor(             inertia = ([68.702, 226.633, 235.582

>  <frequency_value>  (4) 
unknown

>  <frequency_units>  (4) 
unknown

>  <frequency_list>  (4) 
unknown

>  <arkane_path>  (4) 
/home/calvin/Dropbox/PersonalFolders/Calvin/ATLAS_Converged/rmg_rxn_1447/output/Species/rmg_rxn_1447_p2_sbr-CH2-sbrCCOC=O/arkane/output.py

>  <path_exists>  (4) 
True

>  <E0_value>  (4) 
-805884.7092283256

>  <E0_units>  (4) 
kJ/mol

>  <thermo_class>  (4) 
NASA

>  <Cp0_value>  (4) 
33.257888

>  <Cp0_units>  (4) 
J/(mol*K)

>  <CpInf_value>  (4) 
307.635464

>  <CpInf_units>  (4) 
J/(mol*K)

>  <Tmin_value>  (4) 
10.0

>  <Tmin_units>  (4) 
K

>  <Tmax_value>  (4) 
3000.0

>  <Tmax_units>  (4) 
K

>  <polynomials>  (4) 
[{"name": "polynomial1", "class": "NASAPolynomial", "Tmin_value": 10.0, "Tmin_units": "K", "Tmax_value": 1245.6080810015146, "Tmax_units": "K", "coeffs": [3.7898988859203193, 0.034130898500071026, -3.6947017610752774e-06, -1.0789068113577382e-08, 4.234992812551112e-12, -96925545.18108141, 11.846086966602563]}, {"name": "polynomial2", "class": "NASAPolynomial", "Tmin_value": 1245.6080810015146, "Tmin_units": "K", "Tmax_value": 3000.0, "Tmax_units": "K", "coeffs": [9.787296406921262, 0.028344265373612943, -1.295051139580451e-05, 2.8482138329098344e-09, -2.4489274426109765e-13, -96928084.43431735, -22.600488933990988]}]

>  <H298_value>  (4) 
-192605.92067049703

>  <H298_units>  (4) 
kcal/mol

>  <S298_value>  (4) 
86.16055978692847

>  <S298_units>  (4) 
cal/(mol*K)

>  <Cp_T_value_list>  (4) 
[26.707347689187632, 32.3299052113115, 37.454324097014826, 42.04285440521518, 49.562239187760504, 54.990018682221006, 62.67251066844748, 66.65330723540755, 68.49372644661233]

>  <Cp_T_units>  (4) 
cal/(mol*K)

>  <T_list>  (4) 
[300.0, 400.0, 500.0, 600.0, 800.0, 1000.0, 1500.0, 2000.0, 2400.0]

>  <T_units>  (4) 
K

>  <yaml_path>  (4) 
/home/calvin/Dropbox/PersonalFolders/Calvin/ATLAS_Converged/rmg_rxn_1447/output/Species/rmg_rxn_1447_p2_sbr-CH2-sbrCCOC=O/rmg_rxn_1447_p2_sbr-CH2-sbrCCOC=O.yml

>  <frequencies_cm1>  (4) 
[61.260376039719986, 108.80051541008, 142.00238943227998, 224.59848886123999, 308.3963107212, 363.84035019488, 458.33693518340004, 517.3655409941199, 763.2654183179999, 771.0045107736399, 901.1544835435999, 929.42586210604, 1012.3172419037601, 1046.5422967386398, 1078.02055744552, 1119.50401576364, 1201.87350467704, 1244.6685571912801, 1309.8431148634, 1369.0983311896798, 1392.2744066446799, 1405.6100921361199, 1446.4892557460798, 1453.42491091928, 1479.2585096931198, 1807.7613534312798, 2966.8054706674798, 3016.64605012004, 3022.0228996256, 3059.5509743993994, 3115.6954463757197, 3132.8148407784797, 3237.440229114]

>  <ZPE_kJmol>  (4) 
271.9538084418051

>  <E_elec_kJmol>  (4) 
-806156.6630367674

>  <E0_minus_Eelec_plus_ZPE_kJmol>  (4) 
0.0

>  <rxn>  (4) 
rmg_rxn_1447

>  <species_type>  (4) 
p1

>  <species_folder>  (4) 
rmg_rxn_1447_p2_sbr-CH2-sbrCCOC=O

>  <frequencies_cm1_list>  (4) 
[61.260376039719986, 108.80051541008, 142.00238943227998, 224.59848886123999, 308.3963107212, 363.84035019488, 458.33693518340004, 517.3655409941199, 763.2654183179999, 771.0045107736399, 901.1544835435999, 929.42586210604, 1012.3172419037601, 1046.5422967386398, 1078.02055744552, 1119.50401576364, 1201.87350467704, 1244.6685571912801, 1309.8431148634, 1369.0983311896798, 1392.2744066446799, 1405.6100921361199, 1446.4892557460798, 1453.42491091928, 1479.2585096931198, 1807.7613534312798, 2966.8054706674798, 3016.64605012004, 3022.0228996256, 3059.5509743993994, 3115.6954463757197, 3132.8148407784797, 3237.440229114]

>  <E0_kJmol>  (4) 
-805885

>  <H298_kJmol>  (4) 
-805863

$$$$

     RDKit          3D

 11 10  0  0  0  0  0  0  0  0999 V2000
   -1.2230    0.3768   -0.0849 C   0  0  0  0  0  0  0  0  0  1  0  0
   -0.0734   -0.5533    0.2746 C   0  0  0  0  0  0  0  0  0  2  0  0
   -0.0853   -1.8426   -0.5372 C   0  0  0  0  0  0  0  0  0  3  0  0
    0.0319   -1.6944   -1.8815 O   0  0  0  0  0  1  0  0  0  4  0  0
   -2.1874   -0.0885    0.1341 H   0  0  0  0  0  0  0  0  0  5  0  0
   -1.1670    1.3099    0.4765 H   0  0  0  0  0  0  0  0  0  6  0  0
   -1.2014    0.6189   -1.1483 H   0  0  0  0  0  0  0  0  0  7  0  0
    0.8834   -0.0518    0.1071 H   0  0  0  0  0  0  0  0  0  8  0  0
   -0.1104   -0.8149    1.3362 H   0  0  0  0  0  0  0  0  0  9  0  0
    0.6767   -2.5604   -0.1861 H   0  0  0  0  0  0  0  0  0 10  0  0
   -1.0401   -2.3871   -0.3877 H   0  0  0  0  0  0  0  0  0 11  0  0
  1  5  1  0
  1  7  1  0
  1  6  1  0
  1  2  1  0
  2  9  1  0
  2  8  1  0
  2  3  1  0
  3 11  1  0
  3  4  1  0
  3 10  1  0
M  RAD  1   4   2
M  END
>  <rmg_smiles>  (5) 
CCC[O]

>  <rmg_adjacency_list>  (5) 
multiplicity 2
1  O u1 p2 c0 {4,S}
2  C u0 p0 c0 {3,S} {4,S} {5,S} {6,S}
3  C u0 p0 c0 {2,S} {7,S} {8,S} {9,S}
4  C u0 p0 c0 {1,S} {2,S} {10,S} {11,S}
5  H u0 p0 c0 {2,S}
6  H u0 p0 c0 {2,S}
7  H u0 p0 c0 {3,S}
8  H u0 p0 c0 {3,S}
9  H u0 p0 c0 {3,S}
10 H u0 p0 c0 {4,S}
11 H u0 p0 c0 {4,S}


>  <multiplicity>  (5) 
2

>  <reaction>  (5) 
rmg_rxn_1447

>  <type>  (5) 
r2

>  <role_mapnums>  (5) 
{}

>  <role_mapidx>  (5) 
{}

>  <ordered_mapped_smiles>  (5) 
[C:1]([C:2]([C:3]([O:4])([H:10])[H:11])([H:8])[H:9])([H:5])([H:6])[H:7]

>  <level_of_theory>  (5) 
wb97xd/def2tzvp

>  <lot_method>  (5) 
wb97xd

>  <lot_basis>  (5) 
def2tzvp

>  <spin_multiplicity>  (5) 
2.0

>  <optical_isomers>  (5) 
2.0

>  <modes>  (5) 
IdealGasTranslation(mass=(59.0497, 'amu')),         NonlinearRotor(             inertia = ([32.4351, 96.9472, 113.933

>  <frequency_value>  (5) 
unknown

>  <frequency_units>  (5) 
unknown

>  <frequency_list>  (5) 
unknown

>  <arkane_path>  (5) 
/home/calvin/Dropbox/PersonalFolders/Calvin/ATLAS_Converged/rmg_rxn_1447/output/Species/rmg_rxn_1447_r1_CCCsbr-O-sbr/arkane/output.py

>  <path_exists>  (5) 
True

>  <E0_value>  (5) 
-508312.7768161693

>  <E0_units>  (5) 
kJ/mol

>  <thermo_class>  (5) 
NASA

>  <Cp0_value>  (5) 
33.257888

>  <Cp0_units>  (5) 
J/(mol*K)

>  <CpInf_value>  (5) 
257.748632

>  <CpInf_units>  (5) 
J/(mol*K)

>  <Tmin_value>  (5) 
10.0

>  <Tmin_units>  (5) 
K

>  <Tmax_value>  (5) 
3000.0

>  <Tmax_units>  (5) 
K

>  <polynomials>  (5) 
[{"name": "polynomial1", "class": "NASAPolynomial", "Tmin_value": 10.0, "Tmin_units": "K", "Tmax_value": 785.3717716926154, "Tmax_units": "K", "coeffs": [3.8724275172824187, 0.01202069912351536, 4.544202486520592e-05, -6.564450088148968e-08, 2.686947096257633e-11, -61135905.34396986, 9.973124702618271]}, {"name": "polynomial2", "class": "NASAPolynomial", "Tmin_value": 785.3717716926154, "Tmin_units": "K", "Tmax_value": 3000.0, "Tmax_units": "K", "coeffs": [0.6849760368426276, 0.037501340839522466, -2.0884233759964417e-05, 5.647799967688214e-09, -5.962580160166516e-13, -61135689.844430506, 22.765160719957294]}]

>  <H298_value>  (5) 
-121485.75019145291

>  <H298_units>  (5) 
kcal/mol

>  <S298_value>  (5) 
73.74225739173869

>  <S298_units>  (5) 
cal/(mol*K)

>  <Cp_T_value_list>  (5) 
[19.89921160802715, 24.71695701807689, 29.245842514069615, 33.279841046223126, 39.679715519605324, 44.42126905520667, 51.647954059212324, 55.2304186783069, 57.00855164862186]

>  <Cp_T_units>  (5) 
cal/(mol*K)

>  <T_list>  (5) 
[300.0, 400.0, 500.0, 600.0, 800.0, 1000.0, 1500.0, 2000.0, 2400.0]

>  <T_units>  (5) 
K

>  <yaml_path>  (5) 
/home/calvin/Dropbox/PersonalFolders/Calvin/ATLAS_Converged/rmg_rxn_1447/output/Species/rmg_rxn_1447_r1_CCCsbr-O-sbr/rmg_rxn_1447_r1_CCCsbr-O-sbr.yml

>  <frequencies_cm1>  (5) 
[137.93713412284, 222.36671863223998, 308.28643895607996, 429.70160639899996, 504.1397272677999, 783.2964144964401, 869.12686401112, 973.4157700659599, 995.0261728679999, 1094.40518441904, 1104.0052298964, 1206.5018527827199, 1284.0026491042397, 1339.0209354880799, 1351.92400090436, 1370.7120727398797, 1408.8169742805599, 1470.9906593678397, 1485.0061764059599, 1493.1984898927199, 2865.86078646348, 2916.58720702232, 3013.99539378652, 3016.570513281519, 3055.2591085743998, 3086.8403740610793, 3099.85331124248]

>  <ZPE_kJmol>  (5) 
244.5577291513973

>  <E_elec_kJmol>  (5) 
-508557.3345453207

>  <E0_minus_Eelec_plus_ZPE_kJmol>  (5) 
0.0

>  <rxn>  (5) 
rmg_rxn_1447

>  <species_type>  (5) 
r0

>  <species_folder>  (5) 
rmg_rxn_1447_r1_CCCsbr-O-sbr

>  <frequencies_cm1_list>  (5) 
[137.93713412284, 222.36671863223998, 308.28643895607996, 429.70160639899996, 504.1397272677999, 783.2964144964401, 869.12686401112, 973.4157700659599, 995.0261728679999, 1094.40518441904, 1104.0052298964, 1206.5018527827199, 1284.0026491042397, 1339.0209354880799, 1351.92400090436, 1370.7120727398797, 1408.8169742805599, 1470.9906593678397, 1485.0061764059599, 1493.1984898927199, 2865.86078646348, 2916.58720702232, 3013.99539378652, 3016.570513281519, 3055.2591085743998, 3086.8403740610793, 3099.85331124248]

>  <E0_kJmol>  (5) 
-508313

>  <H298_kJmol>  (5) 
-508296

$$$$
