
     RDKit          3D

 13 12  0  0  0  0  0  0  0  0999 V2000
    1.5171   -0.1726   -0.7818 N   0  0  0  0  0  0  0  0  0  1  0  0
    1.1696    0.3132    0.3748 N   0  0  0  0  0  0  0  0  0  2  0  0
    0.0150    0.1956    0.9820 C   0  0  0  0  0  0  0  0  0  3  0  0
   -1.0906   -0.5672    0.3479 C   0  0  0  0  0  0  0  0  0  4  0  0
   -1.7459    0.1704   -0.8259 C   0  0  0  0  0  0  0  0  0  5  0  0
    2.5177    0.0986   -0.8649 H   0  0  0  0  0  0  0  0  0  6  0  0
    1.8746    0.8514    0.8801 H   0  0  0  0  0  0  0  0  0  7  0  0
   -0.0710    0.6985    1.9329 H   0  0  0  0  0  0  0  0  0  8  0  0
   -1.8387   -0.7994    1.1075 H   0  0  0  0  0  0  0  0  0  9  0  0
   -0.6861   -1.5178   -0.0189 H   0  0  0  0  0  0  0  0  0 10  0  0
   -2.5235   -0.4463   -1.2795 H   0  0  0  0  0  0  0  0  0 11  0  0
   -1.0034    0.3994   -1.5907 H   0  0  0  0  0  0  0  0  0 12  0  0
   -2.2015    1.1047   -0.4938 H   0  0  0  0  0  0  0  0  0 13  0  0
  1  2  1  0
  1  6  1  0
  2  3  1  0
  2  7  1  0
  3  4  1  0
  3  8  1  0
  4  5  1  0
  4  9  1  0
  4 10  1  0
  5 11  1  0
  5 12  1  0
  5 13  1  0
M  END
>  <rmg_smiles>  (1) 
CC[CH]N[NH]

>  <rmg_adjacency_list>  (1) 
1  N u0 p1 c0 {2,S} {5,S} {12,S}
2  N u0 p1 c0 {1,S} {13,S}
3  C u0 p0 c0 {4,S} {5,S} {6,S} {7,S}
4  C u0 p0 c0 {3,S} {8,S} {9,S} {10,S}
5  C u0 p0 c0 {1,S} {3,S} {11,S}
6  H u0 p0 c0 {3,S}
7  H u0 p0 c0 {3,S}
8  H u0 p0 c0 {4,S}
9  H u0 p0 c0 {4,S}
10 H u0 p0 c0 {4,S}
11 H u0 p0 c0 {5,S}
12 H u0 p0 c0 {1,S}
13 H u0 p0 c0 {2,S}


>  <multiplicity>  (1) 
1

>  <reaction>  (1) 
rmg_rxn_2501

>  <type>  (1) 
r1h

>  <role_mapnums>  (1) 
{"r1h_a": 1, "r1h_h": 6}

>  <role_mapidx>  (1) 
{"r1h_a": 0, "r1h_h": 5}

>  <ordered_mapped_smiles>  (1) 
[NH:1]([N:2]([CH:3]([C:4]([C:5]([H:11])([H:12])[H:13])([H:9])[H:10])[H:8])[H:7])[H:6]

>  <mol_properties>  (1) 
{"0": {"label": "donator", "atom_type": "N3s"}, "5": {"label": "d_hydrogen", "atom_type": "H0"}}

>  <level_of_theory>  (1) 
wb97xd/def2tzvp

>  <lot_method>  (1) 
wb97xd

>  <lot_basis>  (1) 
def2tzvp

>  <spin_multiplicity>  (1) 
1.0

>  <optical_isomers>  (1) 
2.0

>  <modes>  (1) 
IdealGasTranslation(mass=(72.0687, 'amu')),         NonlinearRotor(             inertia = ([54.1798, 139.96, 170.595

>  <frequency_value>  (1) 
unknown

>  <frequency_units>  (1) 
unknown

>  <frequency_list>  (1) 
unknown

>  <arkane_path>  (1) 
/home/calvin/Dropbox/PersonalFolders/Calvin/ATLAS_Converged/rmg_rxn_2501/output/Species/rmg_rxn_2501_r1_sbr-NH--sbrsbr-NHp-sbr=CCC/arkane/output.py

>  <path_exists>  (1) 
True

>  <E0_value>  (1) 
-599821.0790293427

>  <E0_units>  (1) 
kJ/mol

>  <thermo_class>  (1) 
NASA

>  <Cp0_value>  (1) 
33.257888

>  <Cp0_units>  (1) 
J/(mol*K)

>  <CpInf_value>  (1) 
307.635464

>  <CpInf_units>  (1) 
J/(mol*K)

>  <Tmin_value>  (1) 
10.0

>  <Tmin_units>  (1) 
K

>  <Tmax_value>  (1) 
3000.0

>  <Tmax_units>  (1) 
K

>  <polynomials>  (1) 
[{"name": "polynomial1", "class": "NASAPolynomial", "Tmin_value": 10.0, "Tmin_units": "K", "Tmax_value": 474.61605705645945, "Tmax_units": "K", "coeffs": [3.863859125769356, 0.01185140334972807, 8.535368751023202e-05, -1.5103251973456145e-07, 8.284223355402524e-11, -72141810.52774122, 10.255637952774189]}, {"name": "polynomial2", "class": "NASAPolynomial", "Tmin_value": 474.61605705645945, "Tmin_units": "K", "Tmax_value": 3000.0, "Tmax_units": "K", "coeffs": [-0.38415385017984255, 0.04765296508504859, -2.7794962511345987e-05, 7.900547006015471e-09, -8.741420892372791e-13, -72141407.29138239, 27.584031079750673]}]

>  <H298_value>  (1) 
-143356.3591586957

>  <H298_units>  (1) 
kcal/mol

>  <S298_value>  (1) 
76.35053283129314

>  <S298_units>  (1) 
cal/(mol*K)

>  <Cp_T_value_list>  (1) 
[23.238901677331405, 29.243115595687826, 34.63009891965798, 39.336093004012454, 46.970554152450326, 52.66147631098956, 61.197276028540934, 65.49838369156552, 67.76215891209428]

>  <Cp_T_units>  (1) 
cal/(mol*K)

>  <T_list>  (1) 
[300.0, 400.0, 500.0, 600.0, 800.0, 1000.0, 1500.0, 2000.0, 2400.0]

>  <T_units>  (1) 
K

>  <yaml_path>  (1) 
/home/calvin/Dropbox/PersonalFolders/Calvin/ATLAS_Converged/rmg_rxn_2501/output/Species/rmg_rxn_2501_r1_sbr-NH--sbrsbr-NHp-sbr=CCC/rmg_rxn_2501_r1_sbr-NH--sbrsbr-NHp-sbr=CCC.yml

>  <frequencies_cm1>  (1) 
[136.9620222074, 209.61472689299998, 254.75828838668, 308.30703991204, 470.9447202309199, 604.68612632324, 687.9689242841999, 696.4839860809999, 805.7651904634799, 897.4737794120799, 920.54685008728, 1021.0932491427199, 1079.8334415699999, 1128.5341014594399, 1155.1642705303998, 1288.91941059336, 1343.4638749901198, 1373.9807577522, 1387.87266905456, 1398.0289403428399, 1456.3021777683598, 1482.71260330908, 1494.942704164, 1535.7257299794799, 1699.6338025825598, 3005.54900184292, 3019.50958299848, 3066.781909941359, 3090.26699973576, 3110.5040054737997, 3206.03063826032, 3439.3227305366795, 3491.6972275723197]

>  <ZPE_kJmol>  (1) 
300.6777595509884

>  <E_elec_kJmol>  (1) 
-600121.7567888937

>  <E0_minus_Eelec_plus_ZPE_kJmol>  (1) 
0.0

>  <rxn>  (1) 
rmg_rxn_2501

>  <species_type>  (1) 
r0

>  <species_folder>  (1) 
rmg_rxn_2501_r1_sbr-NH--sbrsbr-NHp-sbr=CCC

>  <frequencies_cm1_list>  (1) 
[136.9620222074, 209.61472689299998, 254.75828838668, 308.30703991204, 470.9447202309199, 604.68612632324, 687.9689242841999, 696.4839860809999, 805.7651904634799, 897.4737794120799, 920.54685008728, 1021.0932491427199, 1079.8334415699999, 1128.5341014594399, 1155.1642705303998, 1288.91941059336, 1343.4638749901198, 1373.9807577522, 1387.87266905456, 1398.0289403428399, 1456.3021777683598, 1482.71260330908, 1494.942704164, 1535.7257299794799, 1699.6338025825598, 3005.54900184292, 3019.50958299848, 3066.781909941359, 3090.26699973576, 3110.5040054737997, 3206.03063826032, 3439.3227305366795, 3491.6972275723197]

>  <E0_kJmol>  (1) 
-599821

>  <H298_kJmol>  (1) 
-599803

$$$$

     RDKit          3D

 14 13  0  0  0  0  0  0  0  0999 V2000
   -1.3013   -0.0226   -0.6774 H   0  0  0  0  0  0  0  0  0  1  0  0
   -0.3368    1.8437   -0.5691 C   0  0  0  0  0  0  0  0  0  2  0  0
   -0.2747    0.3390   -0.5907 C   0  0  0  0  0  0  0  0  0  3  0  0
    0.3360   -0.3263    0.6176 C   0  0  0  0  0  0  0  0  0  4  0  0
    0.3067   -1.8475    0.5482 C   0  0  0  0  0  0  0  0  0  5  0  0
   -0.8958    2.2316   -1.4213 H   0  0  0  0  0  0  0  0  0  6  0  0
    0.6669    2.2831   -0.5978 H   0  0  0  0  0  0  0  0  0  7  0  0
   -0.8148    2.2166    0.3426 H   0  0  0  0  0  0  0  0  0  8  0  0
    0.1196   -0.0560   -1.5291 H   0  0  0  0  0  0  0  0  0  9  0  0
   -0.1795    0.0113    1.5262 H   0  0  0  0  0  0  0  0  0 10  0  0
    1.3721    0.0199    0.7338 H   0  0  0  0  0  0  0  0  0 11  0  0
    0.7438   -2.2944    1.4422 H   0  0  0  0  0  0  0  0  0 12  0  0
   -0.7183   -2.2080    0.4459 H   0  0  0  0  0  0  0  0  0 13  0  0
    0.8707   -2.2051   -0.3160 H   0  0  0  0  0  0  0  0  0 14  0  0
  1  3  1  0
  2  7  1  0
  2  8  1  0
  2  6  1  0
  2  3  1  0
  3  4  1  0
  3  9  1  0
  4  5  1  0
  4 10  1  0
  4 11  1  0
  5 12  1  0
  5 14  1  0
  5 13  1  0
M  END
>  <rmg_smiles>  (2) 
CCCC

>  <rmg_adjacency_list>  (2) 
1  C u0 p0 c0 {2,S} {3,S} {5,S} {6,S}
2  C u0 p0 c0 {1,S} {4,S} {7,S} {8,S}
3  C u0 p0 c0 {1,S} {9,S} {10,S} {11,S}
4  C u0 p0 c0 {2,S} {12,S} {13,S} {14,S}
5  H u0 p0 c0 {1,S}
6  H u0 p0 c0 {1,S}
7  H u0 p0 c0 {2,S}
8  H u0 p0 c0 {2,S}
9  H u0 p0 c0 {3,S}
10 H u0 p0 c0 {3,S}
11 H u0 p0 c0 {3,S}
12 H u0 p0 c0 {4,S}
13 H u0 p0 c0 {4,S}
14 H u0 p0 c0 {4,S}


>  <multiplicity>  (2) 
1

>  <reaction>  (2) 
rmg_rxn_2501

>  <type>  (2) 
r2h

>  <role_mapnums>  (2) 
{"r2h_a": 3, "r2h_h": 1}

>  <role_mapidx>  (2) 
{"r2h_a": 2, "r2h_h": 0}

>  <ordered_mapped_smiles>  (2) 
[H:1][C:3]([C:2]([H:6])([H:7])[H:8])([C:4]([C:5]([H:12])([H:13])[H:14])([H:10])[H:11])[H:9]

>  <mol_properties>  (2) 
{"0": {"label": "a_hydrogen", "atom_type": "H0"}, "2": {"label": "acceptor", "atom_type": "Cs"}}

>  <level_of_theory>  (2) 
wb97xd/def2tzvp

>  <lot_method>  (2) 
wb97xd

>  <lot_basis>  (2) 
def2tzvp

>  <spin_multiplicity>  (2) 
1.0

>  <optical_isomers>  (2) 
1.0

>  <modes>  (2) 
IdealGasTranslation(mass=(58.0782, 'amu')),         NonlinearRotor(             inertia = ([21.4183, 138.436, 147.416

>  <frequency_value>  (2) 
unknown

>  <frequency_units>  (2) 
unknown

>  <frequency_list>  (2) 
unknown

>  <arkane_path>  (2) 
/home/calvin/Dropbox/PersonalFolders/Calvin/ATLAS_Converged/rmg_rxn_2501/output/Species/rmg_rxn_2501_p2_CCCC/arkane/output.py

>  <path_exists>  (2) 
True

>  <E0_value>  (2) 
-415711.4770347972

>  <E0_units>  (2) 
kJ/mol

>  <thermo_class>  (2) 
NASA

>  <Cp0_value>  (2) 
33.257888

>  <Cp0_units>  (2) 
J/(mol*K)

>  <CpInf_value>  (2) 
332.57888

>  <CpInf_units>  (2) 
J/(mol*K)

>  <Tmin_value>  (2) 
10.0

>  <Tmin_units>  (2) 
K

>  <Tmax_value>  (2) 
3000.0

>  <Tmax_units>  (2) 
K

>  <polynomials>  (2) 
[{"name": "polynomial1", "class": "NASAPolynomial", "Tmin_value": 10.0, "Tmin_units": "K", "Tmax_value": 1025.0239672813746, "Tmax_units": "K", "coeffs": [3.915013592071844, 0.015190476507378274, 4.499566831623061e-05, -5.4452087887537436e-08, 1.803189229500368e-11, -49998546.31449076, 7.728184054699678]}, {"name": "polynomial2", "class": "NASAPolynomial", "Tmin_value": 1025.0239672813746, "Tmin_units": "K", "Tmax_value": 3000.0, "Tmax_units": "K", "coeffs": [0.8557434606866323, 0.04413202068529884, -2.2238982520549216e-05, 5.4598853249734095e-09, -5.274578153178241e-13, -49998812.39100051, 18.205832942846666]}]

>  <H298_value>  (2) 
-99353.185245995

>  <H298_units>  (2) 
kcal/mol

>  <S298_value>  (2) 
71.76251802442486

>  <S298_units>  (2) 
cal/(mol*K)

>  <Cp_T_value_list>  (2) 
[22.251980571284225, 28.1531399049666, 33.94079391323614, 39.35269474865459, 48.430242634303475, 55.007789274879656, 65.12656285712895, 70.35428852741721, 72.83851882766015]

>  <Cp_T_units>  (2) 
cal/(mol*K)

>  <T_list>  (2) 
[300.0, 400.0, 500.0, 600.0, 800.0, 1000.0, 1500.0, 2000.0, 2400.0]

>  <T_units>  (2) 
K

>  <yaml_path>  (2) 
/home/calvin/Dropbox/PersonalFolders/Calvin/ATLAS_Converged/rmg_rxn_2501/output/Species/rmg_rxn_2501_p2_CCCC/rmg_rxn_2501_p2_CCCC.yml

>  <frequencies_cm1>  (2) 
[117.85806904715999, 224.50921805207997, 259.37290252171994, 260.8081024536, 427.68957970024, 733.9639919575599, 810.5171443049198, 844.8383369342799, 959.6886664112799, 978.69648177704, 1024.40313606696, 1072.73297874912, 1166.6664709414, 1201.7086970293599, 1282.4438434365998, 1315.46030885516, 1324.99168447932, 1392.23320473276, 1403.41265683372, 1404.42210367576, 1477.30828586224, 1478.9082934418, 1485.02677736192, 1486.84652847172, 1491.0285225316, 1497.33241505536, 2994.3077468740794, 3001.82022881416, 3007.36875295272, 3008.254594059, 3019.68125763148, 3041.7654824206, 3075.78452769588, 3079.10128160544, 3084.83521434764, 3085.5356468502796]

>  <ZPE_kJmol>  (2) 
344.05401570070524

>  <E_elec_kJmol>  (2) 
-416055.5310504979

>  <E0_minus_Eelec_plus_ZPE_kJmol>  (2) 
0.0

>  <rxn>  (2) 
rmg_rxn_2501

>  <species_type>  (2) 
p1

>  <species_folder>  (2) 
rmg_rxn_2501_p2_CCCC

>  <frequencies_cm1_list>  (2) 
[117.85806904715999, 224.50921805207997, 259.37290252171994, 260.8081024536, 427.68957970024, 733.9639919575599, 810.5171443049198, 844.8383369342799, 959.6886664112799, 978.69648177704, 1024.40313606696, 1072.73297874912, 1166.6664709414, 1201.7086970293599, 1282.4438434365998, 1315.46030885516, 1324.99168447932, 1392.23320473276, 1403.41265683372, 1404.42210367576, 1477.30828586224, 1478.9082934418, 1485.02677736192, 1486.84652847172, 1491.0285225316, 1497.33241505536, 2994.3077468740794, 3001.82022881416, 3007.36875295272, 3008.254594059, 3019.68125763148, 3041.7654824206, 3075.78452769588, 3079.10128160544, 3084.83521434764, 3085.5356468502796]

>  <E0_kJmol>  (2) 
-415711

>  <H298_kJmol>  (2) 
-415694

$$$$

     RDKit          3D

 26 24  0  0  0  0  0  0  0  0999 V2000
   -0.3697   -0.3383   -0.7267 N   0  0  0  0  0  0  0  0  0  1  0  0
   -0.7173    0.1475    0.4299 N   0  0  0  0  0  0  0  0  0  2  0  0
   -1.8719    0.0300    1.0371 C   0  0  0  0  0  0  0  0  0  3  0  0
   -2.9774   -0.7329    0.4030 C   0  0  0  0  0  0  0  0  0  4  0  0
   -3.6327    0.0047   -0.7708 C   0  0  0  0  0  0  0  0  0  5  0  0
    0.8290   -0.0134   -0.8262 H   0  0  0  0  0  0  0  0  0  6  0  0
   -0.0123    0.6857    0.9353 H   0  0  0  0  0  0  0  0  0  7  0  0
   -1.9579    0.5328    1.9880 H   0  0  0  0  0  0  0  0  0  8  0  0
   -3.7255   -0.9651    1.1627 H   0  0  0  0  0  0  0  0  0  9  0  0
   -2.5730   -1.6835    0.0363 H   0  0  0  0  0  0  0  0  0 10  0  0
   -4.4103   -0.6120   -1.2243 H   0  0  0  0  0  0  0  0  0 11  0  0
   -2.8902    0.2338   -1.5356 H   0  0  0  0  0  0  0  0  0 12  0  0
   -4.0884    0.9391   -0.4386 H   0  0  0  0  0  0  0  0  0 13  0  0
    2.0292    1.9359   -0.6981 C   0  0  0  0  0  0  0  0  0 14  0  0
    2.0913    0.4312   -0.7197 C   0  0  0  0  0  3  0  0  0 15  0  0
    2.7020   -0.2341    0.4886 C   0  0  0  0  0  0  0  0  0 16  0  0
    2.6727   -1.7552    0.4192 C   0  0  0  0  0  0  0  0  0 17  0  0
    1.4702    2.3238   -1.5503 H   0  0  0  0  0  0  0  0  0 18  0  0
    3.0329    2.3754   -0.7268 H   0  0  0  0  0  0  0  0  0 19  0  0
    1.5512    2.3089    0.2136 H   0  0  0  0  0  0  0  0  0 20  0  0
    2.4856    0.0362   -1.6581 H   0  0  0  0  0  0  0  0  0 21  0  0
    2.1865    0.1036    1.3972 H   0  0  0  0  0  0  0  0  0 22  0  0
    3.7381    0.1121    0.6049 H   0  0  0  0  0  0  0  0  0 23  0  0
    3.1098   -2.2022    1.3132 H   0  0  0  0  0  0  0  0  0 24  0  0
    1.6477   -2.1158    0.3169 H   0  0  0  0  0  0  0  0  0 25  0  0
    3.2367   -2.1128   -0.4449 H   0  0  0  0  0  0  0  0  0 26  0  0
  1  2  1  0
  1  6  1  0
  2  7  1  0
  2  3  1  0
  3  4  1  0
  3  8  1  0
  4 10  1  0
  4  9  1  0
  4  5  1  0
  5 12  1  0
  5 11  1  0
  5 13  1  0
 14 15  1  0
 14 19  1  0
 14 18  1  0
 14 20  1  0
 15 16  1  0
 15 21  1  0
 16 22  1  0
 16 17  1  0
 16 23  1  0
 17 24  1  0
 17 26  1  0
 17 25  1  0
M  RAD  1  15   2
M  END
>  <rmg_smiles>  (3) 
CC[CH]N[NH].CC[CH]C

>  <rmg_adjacency_list>  (3) 
multiplicity 2
1  N u0 p1 c0 {2,S} {9,S} {25,S}
2  N u0 p1 c0 {1,S} {26,S}
3  C u0 p0 c0 {6,S} {8,S} {12,S} {13,S}
4  C u0 p0 c0 {5,S} {9,S} {10,S} {11,S}
5  C u0 p0 c0 {4,S} {14,S} {15,S} {16,S}
6  C u0 p0 c0 {3,S} {17,S} {18,S} {19,S}
7  C u0 p0 c0 {8,S} {20,S} {21,S} {22,S}
8  C u1 p0 c0 {3,S} {7,S} {23,S}
9  C u0 p0 c0 {1,S} {4,S} {24,S}
10 H u0 p0 c0 {4,S}
11 H u0 p0 c0 {4,S}
12 H u0 p0 c0 {3,S}
13 H u0 p0 c0 {3,S}
14 H u0 p0 c0 {5,S}
15 H u0 p0 c0 {5,S}
16 H u0 p0 c0 {5,S}
17 H u0 p0 c0 {6,S}
18 H u0 p0 c0 {6,S}
19 H u0 p0 c0 {6,S}
20 H u0 p0 c0 {7,S}
21 H u0 p0 c0 {7,S}
22 H u0 p0 c0 {7,S}
23 H u0 p0 c0 {8,S}
24 H u0 p0 c0 {9,S}
25 H u0 p0 c0 {1,S}
26 H u0 p0 c0 {2,S}


>  <multiplicity>  (3) 
2

>  <reaction>  (3) 
rmg_rxn_2501

>  <type>  (3) 
ts

>  <role_mapnums>  (3) 
{"*2": 6, "*1": 1, "*3": 15, "*0": 2, "*4": 16}

>  <role_mapidx>  (3) 
{"*2": 5, "*1": 0, "*3": 14, "*0": 1, "*4": 15}

>  <ordered_mapped_smiles>  (3) 
[NH:1]([N:2]([CH:3]([C:4]([C:5]([H:11])([H:12])[H:13])([H:9])[H:10])[H:8])[H:7])[H:6].[C:14]([C:15]([C:16]([C:17]([H:24])([H:25])[H:26])([H:22])[H:23])[H:21])([H:18])([H:19])[H:20]

>  <mol_properties>  (3) 
{"0": {"label": "*1", "atom_type": "N3s"}, "1": {"label": "*0", "atom_type": "N3s"}, "5": {"label": "*2", "atom_type": "H0"}, "14": {"label": "*3", "atom_type": "Cs"}, "15": {"label": "*4", "atom_type": "Cs"}}

>  <level_of_theory>  (3) 
wb97xd/def2tzvp

>  <lot_method>  (3) 
wb97xd

>  <lot_basis>  (3) 
def2tzvp

>  <spin_multiplicity>  (3) 
2.0

>  <optical_isomers>  (3) 
2.0

>  <modes>  (3) 
IdealGasTranslation(mass=(129.139, 'amu')),         NonlinearRotor(             inertia = ([198.283, 777.267, 869.484

>  <frequency_value>  (3) 
-1822.58

>  <frequency_units>  (3) 
cm^-1

>  <frequency_list>  (3) 
unknown

>  <arkane_path>  (3) 
/home/calvin/Dropbox/PersonalFolders/Calvin/ATLAS_Converged/rmg_rxn_2501/output/rxns/TS0/arkane/output.py

>  <path_exists>  (3) 
True

>  <E0_value>  (3) 
-1013780.0

>  <E0_units>  (3) 
kJ/mol

>  <thermo_class>  (3) 
unknown

>  <Cp0_value>  (3) 
unknown

>  <Cp0_units>  (3) 
unknown

>  <CpInf_value>  (3) 
unknown

>  <CpInf_units>  (3) 
unknown

>  <Tmin_value>  (3) 
unknown

>  <Tmin_units>  (3) 
unknown

>  <Tmax_value>  (3) 
unknown

>  <Tmax_units>  (3) 
unknown

>  <polynomials>  (3) 
unknown

>  <H298_value>  (3) 
unknown

>  <H298_units>  (3) 
unknown

>  <S298_value>  (3) 
unknown

>  <S298_units>  (3) 
unknown

>  <Cp_T_value_list>  (3) 
unknown

>  <Cp_T_units>  (3) 
unknown

>  <T_list>  (3) 
unknown

>  <T_units>  (3) 
unknown

>  <yaml_path>  (3) 
unknown

>  <frequencies_cm1>  (3) 
unknown

>  <ZPE_kJmol>  (3) 
unknown

>  <E_elec_kJmol>  (3) 
unknown

>  <E0_minus_Eelec_plus_ZPE_kJmol>  (3) 
unknown

>  <rxn>  (3) 
unknown

>  <species_type>  (3) 
unknown

>  <species_folder>  (3) 
unknown

>  <frequencies_cm1_list>  (3) 
[]

>  <ts_imag_freq_cm1>  (3) 
-1844.721

>  <ts_freq_out_path>  (3) 
/home/calvin/Dropbox/PersonalFolders/Calvin/ATLAS_Converged/rmg_rxn_2501/output/rxns/TS0/geometry/freq.out

>  <E0_kJmol>  (3) 
-1.01378e+06

>  <H298_kJmol>  (3) 
unknown

$$$$

     RDKit          3D

 12 11  0  0  0  0  0  0  0  0999 V2000
    1.5035    1.1817    1.1766 N   0  0  0  0  0  2  0  0  0  1  0  0
    1.5580   -0.0511    0.8125 N   0  0  0  0  0  0  0  0  0  2  0  0
    0.8483   -0.7137   -0.0804 C   0  0  0  0  0  0  0  0  0  3  0  0
   -0.2212   -0.0125   -0.8376 C   0  0  0  0  0  0  0  0  0  4  0  0
   -1.4527    0.3302    0.0094 C   0  0  0  0  0  0  0  0  0  5  0  0
    2.2746   -0.5859    1.3051 H   0  0  0  0  0  0  0  0  0  6  0  0
    1.0804   -1.7613   -0.1832 H   0  0  0  0  0  0  0  0  0  7  0  0
    0.1929    0.9174   -1.2475 H   0  0  0  0  0  0  0  0  0  8  0  0
   -0.5138   -0.6336   -1.6852 H   0  0  0  0  0  0  0  0  0  9  0  0
   -1.1741    0.9508    0.8624 H   0  0  0  0  0  0  0  0  0 10  0  0
   -2.1844    0.8814   -0.5832 H   0  0  0  0  0  0  0  0  0 11  0  0
   -1.9295   -0.5758    0.3866 H   0  0  0  0  0  0  0  0  0 12  0  0
  1  2  1  0
  2  6  1  0
  2  3  1  0
  3  4  1  0
  3  7  1  0
  4  8  1  0
  4  5  1  0
  4  9  1  0
  5 11  1  0
  5 12  1  0
  5 10  1  0
M  RAD  1   1   2
M  END
>  <rmg_smiles>  (4) 
CC[CH]N[N]

>  <rmg_adjacency_list>  (4) 
multiplicity 2
1  N u0 p1 c0 {2,S} {5,S} {12,S}
2  N u1 p2 c0 {1,S}
3  C u0 p0 c0 {4,S} {5,S} {6,S} {7,S}
4  C u0 p0 c0 {3,S} {8,S} {9,S} {10,S}
5  C u0 p0 c0 {1,S} {3,S} {11,S}
6  H u0 p0 c0 {3,S}
7  H u0 p0 c0 {3,S}
8  H u0 p0 c0 {4,S}
9  H u0 p0 c0 {4,S}
10 H u0 p0 c0 {4,S}
11 H u0 p0 c0 {5,S}
12 H u0 p0 c0 {1,S}


>  <multiplicity>  (4) 
2

>  <reaction>  (4) 
rmg_rxn_2501

>  <type>  (4) 
r1

>  <role_mapnums>  (4) 
{}

>  <role_mapidx>  (4) 
{}

>  <ordered_mapped_smiles>  (4) 
[NH:1][N:2]([CH:3]([C:4]([C:5]([H:10])([H:11])[H:12])([H:8])[H:9])[H:7])[H:6]

>  <level_of_theory>  (4) 
wb97xd/def2tzvp

>  <lot_method>  (4) 
wb97xd

>  <lot_basis>  (4) 
def2tzvp

>  <spin_multiplicity>  (4) 
2.0

>  <optical_isomers>  (4) 
2.0

>  <modes>  (4) 
IdealGasTranslation(mass=(71.0609, 'amu')),         NonlinearRotor(             inertia = ([53.0503, 135.065, 165.702

>  <frequency_value>  (4) 
unknown

>  <frequency_units>  (4) 
unknown

>  <frequency_list>  (4) 
unknown

>  <arkane_path>  (4) 
/home/calvin/Dropbox/PersonalFolders/Calvin/ATLAS_Converged/rmg_rxn_2501/output/Species/rmg_rxn_2501_p1_sbr-N--sbrsbr-NHp-sbr=CCC/arkane/output.py

>  <path_exists>  (4) 
True

>  <E0_value>  (4) 
-598127.5170669089

>  <E0_units>  (4) 
kJ/mol

>  <thermo_class>  (4) 
NASA

>  <Cp0_value>  (4) 
33.257888

>  <Cp0_units>  (4) 
J/(mol*K)

>  <CpInf_value>  (4) 
282.692048

>  <CpInf_units>  (4) 
J/(mol*K)

>  <Tmin_value>  (4) 
10.0

>  <Tmin_units>  (4) 
K

>  <Tmax_value>  (4) 
3000.0

>  <Tmax_units>  (4) 
K

>  <polynomials>  (4) 
[{"name": "polynomial1", "class": "NASAPolynomial", "Tmin_value": 10.0, "Tmin_units": "K", "Tmax_value": 739.4895250296513, "Tmax_units": "K", "coeffs": [3.821239069491589, 0.016802024456063384, 4.763173208537436e-05, -7.712038008353281e-08, 3.416814986021657e-11, -71938122.51556718, 10.943751803951708]}, {"name": "polynomial2", "class": "NASAPolynomial", "Tmin_value": 739.4895250296513, "Tmin_units": "K", "Tmax_value": 3000.0, "Tmax_units": "K", "coeffs": [1.2981452469412513, 0.041135822504546816, -2.3403425161581037e-05, 6.460698893370968e-09, -6.945292760518023e-13, -71938041.535481, 20.37921013610036]}]

>  <H298_value>  (4) 
-142951.59456715654

>  <H298_units>  (4) 
kcal/mol

>  <S298_value>  (4) 
77.94365445150869

>  <S298_units>  (4) 
cal/(mol*K)

>  <Cp_T_value_list>  (4) 
[22.541308693165234, 28.023837054010304, 33.03859216093623, 37.39936032089474, 44.21933851224046, 49.276187700535466, 56.899637430660036, 60.66784923081606, 62.57768380715403]

>  <Cp_T_units>  (4) 
cal/(mol*K)

>  <T_list>  (4) 
[300.0, 400.0, 500.0, 600.0, 800.0, 1000.0, 1500.0, 2000.0, 2400.0]

>  <T_units>  (4) 
K

>  <yaml_path>  (4) 
/home/calvin/Dropbox/PersonalFolders/Calvin/ATLAS_Converged/rmg_rxn_2501/output/Species/rmg_rxn_2501_p1_sbr-N--sbrsbr-NHp-sbr=CCC/rmg_rxn_2501_p1_sbr-N--sbrsbr-NHp-sbr=CCC.yml

>  <frequencies_cm1>  (4) 
[108.841717322, 198.86102788187998, 256.05614861216003, 294.31212382987997, 511.21958913272005, 575.24049327108, 667.51904200124, 801.3153839761201, 827.2863224563599, 887.88060092004, 1013.14128014216, 1072.9046533821202, 1121.7838548898799, 1135.2019442051599, 1287.1133934542, 1337.173716437, 1345.67504426316, 1400.50792204336, 1452.9854238588, 1475.6464754148, 1488.28859538892, 1496.5701796848398, 1535.3961146841198, 2981.79609962104, 3018.47266821516, 3067.0977912660796, 3094.04384166176, 3099.5786318296796, 3217.4298338915196, 3404.9603359954]

>  <ZPE_kJmol>  (4) 
264.22106731273334

>  <E_elec_kJmol>  (4) 
-598391.7381342216

>  <E0_minus_Eelec_plus_ZPE_kJmol>  (4) 
0.0

>  <rxn>  (4) 
rmg_rxn_2501

>  <species_type>  (4) 
p0

>  <species_folder>  (4) 
rmg_rxn_2501_p1_sbr-N--sbrsbr-NHp-sbr=CCC

>  <frequencies_cm1_list>  (4) 
[108.841717322, 198.86102788187998, 256.05614861216003, 294.31212382987997, 511.21958913272005, 575.24049327108, 667.51904200124, 801.3153839761201, 827.2863224563599, 887.88060092004, 1013.14128014216, 1072.9046533821202, 1121.7838548898799, 1135.2019442051599, 1287.1133934542, 1337.173716437, 1345.67504426316, 1400.50792204336, 1452.9854238588, 1475.6464754148, 1488.28859538892, 1496.5701796848398, 1535.3961146841198, 2981.79609962104, 3018.47266821516, 3067.0977912660796, 3094.04384166176, 3099.5786318296796, 3217.4298338915196, 3404.9603359954]

>  <E0_kJmol>  (4) 
-598128

>  <H298_kJmol>  (4) 
-598109

$$$$

     RDKit          3D

 13 12  0  0  0  0  0  0  0  0999 V2000
    1.9803    0.1041    0.3487 C   0  0  0  0  0  0  0  0  0  1  0  0
    0.5953   -0.3651    0.0965 C   0  0  0  0  0  3  0  0  0  2  0  0
   -0.1069   -1.2347    1.0759 C   0  0  0  0  0  0  0  0  0  3  0  0
   -1.5720   -1.4842    0.7389 C   0  0  0  0  0  0  0  0  0  4  0  0
    2.7069   -0.7197    0.2846 H   0  0  0  0  0  0  0  0  0  5  0  0
    2.0832    0.5214    1.3564 H   0  0  0  0  0  0  0  0  0  6  0  0
    2.2915    0.8651   -0.3675 H   0  0  0  0  0  0  0  0  0  7  0  0
    0.1592   -0.2306   -0.8869 H   0  0  0  0  0  0  0  0  0  8  0  0
   -0.0253   -0.7941    2.0784 H   0  0  0  0  0  0  0  0  0  9  0  0
    0.4158   -2.2018    1.1540 H   0  0  0  0  0  0  0  0  0 10  0  0
   -1.6698   -1.9616   -0.2385 H   0  0  0  0  0  0  0  0  0 11  0  0
   -2.0443   -2.1338    1.4772 H   0  0  0  0  0  0  0  0  0 12  0  0
   -2.1293   -0.5459    0.7084 H   0  0  0  0  0  0  0  0  0 13  0  0
  1  5  1  0
  1  7  1  0
  1  6  1  0
  1  2  1  0
  2  8  1  0
  2  3  1  0
  3  4  1  0
  3  9  1  0
  3 10  1  0
  4 13  1  0
  4 12  1  0
  4 11  1  0
M  RAD  1   2   2
M  END
>  <rmg_smiles>  (5) 
C[CH]CC

>  <rmg_adjacency_list>  (5) 
multiplicity 2
1  C u0 p0 c0 {2,S} {4,S} {5,S} {6,S}
2  C u0 p0 c0 {1,S} {7,S} {8,S} {9,S}
3  C u0 p0 c0 {4,S} {10,S} {11,S} {12,S}
4  C u1 p0 c0 {1,S} {3,S} {13,S}
5  H u0 p0 c0 {1,S}
6  H u0 p0 c0 {1,S}
7  H u0 p0 c0 {2,S}
8  H u0 p0 c0 {2,S}
9  H u0 p0 c0 {2,S}
10 H u0 p0 c0 {3,S}
11 H u0 p0 c0 {3,S}
12 H u0 p0 c0 {3,S}
13 H u0 p0 c0 {4,S}


>  <multiplicity>  (5) 
2

>  <reaction>  (5) 
rmg_rxn_2501

>  <type>  (5) 
r2

>  <role_mapnums>  (5) 
{}

>  <role_mapidx>  (5) 
{}

>  <ordered_mapped_smiles>  (5) 
[C:1]([C:2]([C:3]([C:4]([H:11])([H:12])[H:13])([H:9])[H:10])[H:8])([H:5])([H:6])[H:7]

>  <level_of_theory>  (5) 
wb97xd/def2tzvp

>  <lot_method>  (5) 
wb97xd

>  <lot_basis>  (5) 
def2tzvp

>  <spin_multiplicity>  (5) 
2.0

>  <optical_isomers>  (5) 
2.0

>  <modes>  (5) 
IdealGasTranslation(mass=(57.0704, 'amu')),         NonlinearRotor(             inertia = ([18.7542, 137.737, 146.856

>  <frequency_value>  (5) 
unknown

>  <frequency_units>  (5) 
unknown

>  <frequency_list>  (5) 
unknown

>  <arkane_path>  (5) 
/home/calvin/Dropbox/PersonalFolders/Calvin/ATLAS_Converged/rmg_rxn_2501/output/Species/rmg_rxn_2501_r2_Csbr-CH-sbrCC/arkane/output.py

>  <path_exists>  (5) 
True

>  <E0_value>  (5) 
-413995.2264424355

>  <E0_units>  (5) 
kJ/mol

>  <thermo_class>  (5) 
NASA

>  <Cp0_value>  (5) 
33.257888

>  <Cp0_units>  (5) 
J/(mol*K)

>  <CpInf_value>  (5) 
307.635464

>  <CpInf_units>  (5) 
J/(mol*K)

>  <Tmin_value>  (5) 
10.0

>  <Tmin_units>  (5) 
K

>  <Tmax_value>  (5) 
3000.0

>  <Tmax_units>  (5) 
K

>  <polynomials>  (5) 
[{"name": "polynomial1", "class": "NASAPolynomial", "Tmin_value": 10.0, "Tmin_units": "K", "Tmax_value": 437.6412252224315, "Tmax_units": "K", "coeffs": [3.627422720644114, 0.03980583027440078, -0.0001121226206578389, 3.027641051232522e-07, -2.6334644567816957e-10, -49792123.768014714, 10.47775837353013]}, {"name": "polynomial2", "class": "NASAPolynomial", "Tmin_value": 437.6412252224315, "Tmin_units": "K", "Tmax_value": 3000.0, "Tmax_units": "K", "coeffs": [-0.4711926735932579, 0.04588808453304077, -2.5419908572913823e-05, 6.856366367952244e-09, -7.228245875551606e-13, -49791464.52544943, 30.297447816534657]}]

>  <H298_value>  (5) 
-98942.59687148016

>  <H298_units>  (5) 
kcal/mol

>  <S298_value>  (5) 
79.8434494405375

>  <S298_units>  (5) 
cal/(mol*K)

>  <Cp_T_value_list>  (5) 
[22.891944377670946, 28.308490369554317, 33.64289278357251, 38.348689825126755, 46.073231886756425, 51.92674928639914, 60.90207036006965, 65.40111142118052, 67.6492000144428]

>  <Cp_T_units>  (5) 
cal/(mol*K)

>  <T_list>  (5) 
[300.0, 400.0, 500.0, 600.0, 800.0, 1000.0, 1500.0, 2000.0, 2400.0]

>  <T_units>  (5) 
K

>  <yaml_path>  (5) 
/home/calvin/Dropbox/PersonalFolders/Calvin/ATLAS_Converged/rmg_rxn_2501/output/Species/rmg_rxn_2501_r2_Csbr-CH-sbrCC/rmg_rxn_2501_r2_Csbr-CH-sbrCC.yml

>  <frequencies_cm1>  (5) 
[56.84490447896, 98.78845081352, 231.14959285652, 255.98747875895998, 343.01965070464, 433.15570001495996, 765.0302335452399, 850.6821414415999, 969.8792726261601, 986.4561751886399, 1035.713060889, 1061.1277735583199, 1129.08346028504, 1177.0836876718397, 1262.3853793168798, 1303.7933007964798, 1389.89842972396, 1402.2452693293199, 1414.45476922828, 1456.0687002674797, 1460.55284168144, 1471.1898019421196, 1484.2096061088398, 1489.95040583636, 2924.0516200651596, 2943.40278469692, 2976.81753526404, 3009.06489832676, 3013.5078378287994, 3083.1459359589203, 3085.4944449383597, 3091.2352446658797, 3146.1642602405595]

>  <ZPE_kJmol>  (5) 
303.861341375402

>  <E_elec_kJmol>  (5) 
-414299.0877838109

>  <E0_minus_Eelec_plus_ZPE_kJmol>  (5) 
0.0

>  <rxn>  (5) 
rmg_rxn_2501

>  <species_type>  (5) 
r1

>  <species_folder>  (5) 
rmg_rxn_2501_r2_Csbr-CH-sbrCC

>  <frequencies_cm1_list>  (5) 
[56.84490447896, 98.78845081352, 231.14959285652, 255.98747875895998, 343.01965070464, 433.15570001495996, 765.0302335452399, 850.6821414415999, 969.8792726261601, 986.4561751886399, 1035.713060889, 1061.1277735583199, 1129.08346028504, 1177.0836876718397, 1262.3853793168798, 1303.7933007964798, 1389.89842972396, 1402.2452693293199, 1414.45476922828, 1456.0687002674797, 1460.55284168144, 1471.1898019421196, 1484.2096061088398, 1489.95040583636, 2924.0516200651596, 2943.40278469692, 2976.81753526404, 3009.06489832676, 3013.5078378287994, 3083.1459359589203, 3085.4944449383597, 3091.2352446658797, 3146.1642602405595]

>  <E0_kJmol>  (5) 
-413995

>  <H298_kJmol>  (5) 
-413976

$$$$
