
     RDKit          3D

 10  9  0  0  0  0  0  0  0  0999 V2000
    0.3335    1.3971    1.2254 C   0  0  0  0  0  0  0  0  0  1  0  0
    0.1828    0.3042    0.5875 C   0  0  0  0  0  2  0  0  0  2  0  0
   -0.1229   -0.7960   -0.0707 C   0  0  0  0  0  0  0  0  0  3  0  0
   -0.3138   -0.8649   -1.5556 C   0  0  0  0  0  0  0  0  0  4  0  0
   -0.5986    1.8640    1.5048 H   0  0  0  0  0  0  0  0  0  5  0  0
    1.2208    1.9280    1.5348 H   0  0  0  0  0  0  0  0  0  6  0  0
   -0.2404   -1.7147    0.4954 H   0  0  0  0  0  0  0  0  0  7  0  0
    0.3742   -1.5841   -2.0071 H   0  0  0  0  0  0  0  0  0  8  0  0
   -0.1477    0.1061   -2.0212 H   0  0  0  0  0  0  0  0  0  9  0  0
   -1.3282   -1.1951   -1.7969 H   0  0  0  0  0  0  0  0  0 10  0  0
  1  5  1  0
  1  6  1  0
  1  2  1  0
  2  3  1  0
  3  4  1  0
  3  7  1  0
  4  8  1  0
  4  9  1  0
  4 10  1  0
M  RAD  1   2   3
M  END
>  <rmg_smiles>  (1) 
[CH2][C][CH]C

>  <rmg_adjacency_list>  (1) 
1  C u0 p0 c0 {2,S} {5,S} {6,S} {7,S}
2  C u0 p0 c0 {1,S} {4,S} {8,S}
3  C u0 p0 c0 {4,S} {9,S} {10,S}
4  C u0 p1 c0 {2,S} {3,S}
5  H u0 p0 c0 {1,S}
6  H u0 p0 c0 {1,S}
7  H u0 p0 c0 {1,S}
8  H u0 p0 c0 {2,S}
9  H u0 p0 c0 {3,S}
10 H u0 p0 c0 {3,S}


>  <multiplicity>  (1) 
1

>  <reaction>  (1) 
rmg_rxn_14046

>  <type>  (1) 
r1h

>  <role_mapnums>  (1) 
{"r1h_a": 1, "r1h_h": 5}

>  <role_mapidx>  (1) 
{"r1h_a": 0, "r1h_h": 4}

>  <ordered_mapped_smiles>  (1) 
[CH:1]([C:2][CH:3]([C:4]([H:8])([H:9])[H:10])[H:7])([H:5])[H:6]

>  <mol_properties>  (1) 
{"0": {"label": "donator", "atom_type": "Cs"}, "4": {"label": "d_hydrogen", "atom_type": "H0"}}

>  <level_of_theory>  (1) 
wb97xd/def2tzvp

>  <lot_method>  (1) 
wb97xd

>  <lot_basis>  (1) 
def2tzvp

>  <spin_multiplicity>  (1) 
1.0

>  <optical_isomers>  (1) 
1.0

>  <modes>  (1) 
IdealGasTranslation(mass=(54.047, 'amu')),         NonlinearRotor(             inertia = ([14.6121, 119.467, 127.49

>  <frequency_value>  (1) 
unknown

>  <frequency_units>  (1) 
unknown

>  <frequency_list>  (1) 
unknown

>  <arkane_path>  (1) 
/home/calvin/Dropbox/PersonalFolders/Calvin/ZEUS_Converged/rmg_rxn_14046/output/Species/rmg_rxn_14046_r2_C=C=CC/arkane/output.py

>  <path_exists>  (1) 
True

>  <E0_value>  (1) 
-409296.6502421279

>  <E0_units>  (1) 
kJ/mol

>  <thermo_class>  (1) 
NASA

>  <Cp0_value>  (1) 
33.257888

>  <Cp0_units>  (1) 
J/(mol*K)

>  <CpInf_value>  (1) 
232.805216

>  <CpInf_units>  (1) 
J/(mol*K)

>  <Tmin_value>  (1) 
10.0

>  <Tmin_units>  (1) 
K

>  <Tmax_value>  (1) 
3000.0

>  <Tmax_units>  (1) 
K

>  <polynomials>  (1) 
[{"name": "polynomial1", "class": "NASAPolynomial", "Tmin_value": 10.0, "Tmin_units": "K", "Tmax_value": 452.8802664009696, "Tmax_units": "K", "coeffs": [3.9021943352433452, 0.007937521032632688, 6.664442489196733e-05, -1.2131953588307993e-07, 6.938885885775227e-11, -49227014.555544384, 8.255511443201872]}, {"name": "polynomial2", "class": "NASAPolynomial", "Tmin_value": 452.8802664009696, "Tmin_units": "K", "Tmax_value": 3000.0, "Tmax_units": "K", "coeffs": [0.958037882717614, 0.033941191741253485, -1.948265019694705e-05, 5.463813645242153e-09, -5.979209978345261e-13, -49226747.88374059, 20.12723627389473]}]

>  <H298_value>  (1) 
-97820.47439749332

>  <H298_units>  (1) 
kcal/mol

>  <S298_value>  (1) 
69.30943774444917

>  <S298_units>  (1) 
cal/(mol*K)

>  <Cp_T_value_list>  (1) 
[19.013335795722274, 23.35407848830737, 27.231838984706652, 30.626214617830076, 36.15654523435027, 40.30546036176962, 46.594544625367064, 49.786664420046236, 51.450781523093035]

>  <Cp_T_units>  (1) 
cal/(mol*K)

>  <T_list>  (1) 
[300.0, 400.0, 500.0, 600.0, 800.0, 1000.0, 1500.0, 2000.0, 2400.0]

>  <T_units>  (1) 
K

>  <yaml_path>  (1) 
/home/calvin/Dropbox/PersonalFolders/Calvin/ZEUS_Converged/rmg_rxn_14046/output/Species/rmg_rxn_14046_r2_C=C=CC/rmg_rxn_14046_r2_C=C=CC.yml

>  <frequencies_cm1>  (1) 
[164.84884959192, 210.28769145436, 340.98015606459995, 540.2944049775999, 574.7186023867599, 878.6239047086799, 884.0282221555199, 895.09093550604, 1017.79709618912, 1055.91573170044, 1088.91159616304, 1146.5530709391198, 1353.77808694076, 1399.01778622892, 1463.354571692, 1470.3726306890399, 1494.8053644576, 2061.4346581373993, 3012.63573069316, 3072.0282867258397, 3106.42501619372, 3110.62074422424, 3124.134971334, 3189.66661224276]

>  <ZPE_kJmol>  (1) 
219.25357474583132

>  <E_elec_kJmol>  (1) 
-409515.9038168737

>  <E0_minus_Eelec_plus_ZPE_kJmol>  (1) 
0.0

>  <rxn>  (1) 
rmg_rxn_14046

>  <species_type>  (1) 
r1

>  <species_folder>  (1) 
rmg_rxn_14046_r2_C=C=CC

>  <frequencies_cm1_list>  (1) 
[164.84884959192, 210.28769145436, 340.98015606459995, 540.2944049775999, 574.7186023867599, 878.6239047086799, 884.0282221555199, 895.09093550604, 1017.79709618912, 1055.91573170044, 1088.91159616304, 1146.5530709391198, 1353.77808694076, 1399.01778622892, 1463.354571692, 1470.3726306890399, 1494.8053644576, 2061.4346581373993, 3012.63573069316, 3072.0282867258397, 3106.42501619372, 3110.62074422424, 3124.134971334, 3189.66661224276]

>  <E0_kJmol>  (1) 
-409297

>  <H298_kJmol>  (1) 
-409281

$$$$

     RDKit          3D

 12 11  0  0  0  0  0  0  0  0999 V2000
    0.8729    0.3832    1.4194 C   0  0  0  0  0  0  0  0  0  1  0  0
   -0.2600   -0.6533    0.5828 S   0  0  0  0  0  0  0  0  0  2  0  0
    0.0701   -0.2032   -1.1401 C   0  0  0  0  0  0  0  0  0  3  0  0
   -0.4756    1.1528   -1.5563 C   0  0  0  0  0  0  0  0  0  4  0  0
    0.7523    0.2966    2.4962 H   0  0  0  0  0  0  0  0  0  5  0  0
    0.8988    1.4179    1.0830 H   0  0  0  0  0  0  0  0  0  6  0  0
   -0.3880   -1.0000   -1.7277 H   0  0  0  0  0  0  0  0  0  7  0  0
    1.1483   -0.2651   -1.2945 H   0  0  0  0  0  0  0  0  0  8  0  0
   -0.0273    1.9595   -0.9749 H   0  0  0  0  0  0  0  0  0  9  0  0
   -0.2525    1.3410   -2.6089 H   0  0  0  0  0  0  0  0  0 10  0  0
   -1.5564    1.1982   -1.4198 H   0  0  0  0  0  0  0  0  0 11  0  0
    1.8693   -0.0004    1.2124 H   0  0  0  0  0  0  0  0  0 12  0  0
  1  5  1  0
  1  2  1  0
  1  6  1  0
  1 12  1  0
  2  3  1  0
  3  4  1  0
  3  7  1  0
  3  8  1  0
  4  9  1  0
  4 10  1  0
  4 11  1  0
M  END
>  <rmg_smiles>  (2) 
CSCC

>  <rmg_adjacency_list>  (2) 
1  S u0 p2 c0 {2,S} {4,S}
2  C u0 p0 c0 {1,S} {3,S} {5,S} {6,S}
3  C u0 p0 c0 {2,S} {7,S} {8,S} {9,S}
4  C u0 p0 c0 {1,S} {10,S} {11,S} {12,S}
5  H u0 p0 c0 {2,S}
6  H u0 p0 c0 {2,S}
7  H u0 p0 c0 {3,S}
8  H u0 p0 c0 {3,S}
9  H u0 p0 c0 {3,S}
10 H u0 p0 c0 {4,S}
11 H u0 p0 c0 {4,S}
12 H u0 p0 c0 {4,S}


>  <multiplicity>  (2) 
1

>  <reaction>  (2) 
rmg_rxn_14046

>  <type>  (2) 
r2h

>  <role_mapnums>  (2) 
{"r2h_a": 1, "r2h_h": 12}

>  <role_mapidx>  (2) 
{"r2h_a": 0, "r2h_h": 11}

>  <ordered_mapped_smiles>  (2) 
[C:1]([S:2][C:3]([C:4]([H:9])([H:10])[H:11])([H:7])[H:8])([H:5])([H:6])[H:12]

>  <mol_properties>  (2) 
{"0": {"label": "acceptor", "atom_type": "Cs"}, "11": {"label": "a_hydrogen", "atom_type": "H0"}}

>  <level_of_theory>  (2) 
wb97xd/def2tzvp

>  <lot_method>  (2) 
wb97xd

>  <lot_basis>  (2) 
def2tzvp

>  <spin_multiplicity>  (2) 
1.0

>  <optical_isomers>  (2) 
2.0

>  <modes>  (2) 
IdealGasTranslation(mass=(76.0347, 'amu')),         NonlinearRotor(             inertia = ([52.0964, 128.386, 157.856

>  <frequency_value>  (2) 
unknown

>  <frequency_units>  (2) 
unknown

>  <frequency_list>  (2) 
unknown

>  <arkane_path>  (2) 
/home/calvin/Dropbox/PersonalFolders/Calvin/ZEUS_Converged/rmg_rxn_14046/output/Species/rmg_rxn_14046_p1_CSCC/arkane/output.py

>  <path_exists>  (2) 
True

>  <E0_value>  (2) 
-1358024.382384707

>  <E0_units>  (2) 
kJ/mol

>  <thermo_class>  (2) 
NASA

>  <Cp0_value>  (2) 
33.257888

>  <Cp0_units>  (2) 
J/(mol*K)

>  <CpInf_value>  (2) 
282.692048

>  <CpInf_units>  (2) 
J/(mol*K)

>  <Tmin_value>  (2) 
10.0

>  <Tmin_units>  (2) 
K

>  <Tmax_value>  (2) 
3000.0

>  <Tmax_units>  (2) 
K

>  <polynomials>  (2) 
[{"name": "polynomial1", "class": "NASAPolynomial", "Tmin_value": 10.0, "Tmin_units": "K", "Tmax_value": 1066.2668866007684, "Tmax_units": "K", "coeffs": [3.793891230256719, 0.02301010100204071, 1.3424933532968856e-05, -2.439668573123584e-08, 8.539069592907902e-12, -163332607.18697146, 10.299389824596966]}, {"name": "polynomial2", "class": "NASAPolynomial", "Tmin_value": 1066.2668866007684, "Tmin_units": "K", "Tmax_value": 3000.0, "Tmax_units": "K", "coeffs": [3.8792179157527102, 0.03360306068829365, -1.6829238311357225e-05, 4.1180070097392094e-09, -3.9711678273721025e-13, -163333245.74945265, 6.973205796720211]}]

>  <H298_value>  (2) 
-324571.1940810462

>  <H298_units>  (2) 
kcal/mol

>  <S298_value>  (2) 
77.83544863665438

>  <S298_units>  (2) 
cal/(mol*K)

>  <Cp_T_value_list>  (2) 
[22.486476602776577, 27.42967620969081, 32.07208461613054, 36.30607836893156, 43.32195483624624, 48.430824927463995, 56.24965397469871, 60.32875481971757, 62.28322095073424]

>  <Cp_T_units>  (2) 
cal/(mol*K)

>  <T_list>  (2) 
[300.0, 400.0, 500.0, 600.0, 800.0, 1000.0, 1500.0, 2000.0, 2400.0]

>  <T_units>  (2) 
K

>  <yaml_path>  (2) 
/home/calvin/Dropbox/PersonalFolders/Calvin/ZEUS_Converged/rmg_rxn_14046/output/Species/rmg_rxn_14046_p1_CSCC/rmg_rxn_14046_p1_CSCC.yml

>  <frequencies_cm1>  (2) 
[86.86049731268, 173.63172381619998, 227.43455379839997, 277.98929972423997, 356.053188842, 666.01517221616, 740.88591316012, 758.5958683004, 952.29292322164, 966.1504995974, 986.7445885720799, 1060.0221889218, 1079.9089784085197, 1272.4729807519598, 1296.60356716644, 1348.6278479507598, 1400.27444454248, 1452.28499135616, 1457.8541164506798, 1470.393231645, 1480.8997191846001, 1487.8971772256798, 3015.3687908505194, 3018.78854953988, 3025.31218559388, 3073.71756511456, 3086.881575973, 3099.52369594712, 3104.7151368490404, 3118.41477256244]

>  <ZPE_kJmol>  (2) 
272.4054138316235

>  <E_elec_kJmol>  (2) 
-1358296.7877985386

>  <E0_minus_Eelec_plus_ZPE_kJmol>  (2) 
0.0

>  <rxn>  (2) 
rmg_rxn_14046

>  <species_type>  (2) 
p0

>  <species_folder>  (2) 
rmg_rxn_14046_p1_CSCC

>  <frequencies_cm1_list>  (2) 
[86.86049731268, 173.63172381619998, 227.43455379839997, 277.98929972423997, 356.053188842, 666.01517221616, 740.88591316012, 758.5958683004, 952.29292322164, 966.1504995974, 986.7445885720799, 1060.0221889218, 1079.9089784085197, 1272.4729807519598, 1296.60356716644, 1348.6278479507598, 1400.27444454248, 1452.28499135616, 1457.8541164506798, 1470.393231645, 1480.8997191846001, 1487.8971772256798, 3015.3687908505194, 3018.78854953988, 3025.31218559388, 3073.71756511456, 3086.881575973, 3099.52369594712, 3104.7151368490404, 3118.41477256244]

>  <E0_kJmol>  (2) 
-1.35802e+06

>  <H298_kJmol>  (2) 
-1.35801e+06

$$$$

     RDKit          3D

 21 19  0  0  0  0  0  0  0  0999 V2000
   -0.2361    1.1884    1.5390 C   0  0  0  0  0  3  0  0  0  1  0  0
   -1.3689    0.1518    0.7024 S   0  0  0  0  0  0  0  0  0  2  0  0
   -1.0388    0.6019   -1.0205 C   0  0  0  0  0  0  0  0  0  3  0  0
   -1.5846    1.9580   -1.4368 C   0  0  0  0  0  0  0  0  0  4  0  0
   -0.3566    1.1017    2.6158 H   0  0  0  0  0  0  0  0  0  5  0  0
   -0.2102    2.2230    1.2026 H   0  0  0  0  0  0  0  0  0  6  0  0
   -1.4969   -0.1948   -1.6081 H   0  0  0  0  0  0  0  0  0  7  0  0
    0.0394    0.5400   -1.1749 H   0  0  0  0  0  0  0  0  0  8  0  0
   -1.1363    2.7646   -0.8553 H   0  0  0  0  0  0  0  0  0  9  0  0
   -1.3615    2.1461   -2.4893 H   0  0  0  0  0  0  0  0  0 10  0  0
   -2.6654    2.0034   -1.3002 H   0  0  0  0  0  0  0  0  0 11  0  0
    2.1593    0.1316    0.9346 C   0  0  0  0  0  0  0  0  0 12  0  0
    2.0086   -0.9613    0.2968 C   0  0  0  0  0  0  0  0  0 13  0  0
    1.7029   -2.0614   -0.3614 C   0  0  0  0  0  0  0  0  0 14  0  0
    1.5119   -2.1303   -1.8463 C   0  0  0  0  0  0  0  0  0 15  0  0
    0.9986    0.7130    1.2825 H   0  0  0  0  0  0  0  0  0 16  0  0
    3.0466    0.6626    1.2440 H   0  0  0  0  0  0  0  0  0 17  0  0
    1.5854   -2.9802    0.2047 H   0  0  0  0  0  0  0  0  0 18  0  0
    2.2000   -2.8496   -2.2978 H   0  0  0  0  0  0  0  0  0 19  0  0
    1.6780   -1.1594   -2.3120 H   0  0  0  0  0  0  0  0  0 20  0  0
    0.4976   -2.4605   -2.0877 H   0  0  0  0  0  0  0  0  0 21  0  0
  1  2  1  0
  1  5  1  0
  1  6  1  0
  2  3  1  0
  3  4  1  0
  3  8  1  0
  3  7  1  0
  4 10  1  0
  4 11  1  0
  4  9  1  0
 12 17  1  0
 12 16  1  0
 12 13  1  0
 13 14  1  0
 14 15  1  0
 14 18  1  0
 15 20  1  0
 15 19  1  0
 15 21  1  0
M  RAD  1   1   2
M  END
>  <rmg_smiles>  (3) 
[CH2][C][CH]C.[CH2]SCC

>  <rmg_adjacency_list>  (3) 
multiplicity 2
1  S u0 p2 c0 {2,S} {6,S}
2  C u0 p0 c0 {1,S} {3,S} {9,S} {10,S}
3  C u0 p0 c0 {2,S} {11,S} {12,S} {13,S}
4  C u0 p0 c0 {5,S} {14,S} {15,S} {16,S}
5  C u0 p0 c0 {4,S} {8,S} {17,S}
6  C u1 p0 c0 {1,S} {18,S} {19,S}
7  C u0 p0 c0 {8,S} {20,S} {21,S}
8  C u0 p1 c0 {5,S} {7,S}
9  H u0 p0 c0 {2,S}
10 H u0 p0 c0 {2,S}
11 H u0 p0 c0 {3,S}
12 H u0 p0 c0 {3,S}
13 H u0 p0 c0 {3,S}
14 H u0 p0 c0 {4,S}
15 H u0 p0 c0 {4,S}
16 H u0 p0 c0 {4,S}
17 H u0 p0 c0 {5,S}
18 H u0 p0 c0 {6,S}
19 H u0 p0 c0 {6,S}
20 H u0 p0 c0 {7,S}
21 H u0 p0 c0 {7,S}


>  <multiplicity>  (3) 
2

>  <reaction>  (3) 
rmg_rxn_14046

>  <type>  (3) 
ts

>  <role_mapnums>  (3) 
{"*2": 16, "*1": 12, "*3": 1, "*0": 13, "*4": 2}

>  <role_mapidx>  (3) 
{"*2": 15, "*1": 11, "*3": 0, "*0": 12, "*4": 1}

>  <ordered_mapped_smiles>  (3) 
[C:1]([S:2][C:3]([C:4]([H:9])([H:10])[H:11])([H:7])[H:8])([H:5])[H:6].[CH:12]([CH2:13][CH:14]([C:15]([H:19])([H:20])[H:21])[H:18])([H:16])[H:17]

>  <mol_properties>  (3) 
{"0": {"label": "*3", "atom_type": "Cs"}, "1": {"label": "*4", "atom_type": "S2s"}, "11": {"label": "*1", "atom_type": "Cs"}, "12": {"label": "*0", "atom_type": "C2s"}, "15": {"label": "*2", "atom_type": "H0"}}

>  <level_of_theory>  (3) 
wb97xd/def2tzvp

>  <lot_method>  (3) 
wb97xd

>  <lot_basis>  (3) 
def2tzvp

>  <spin_multiplicity>  (3) 
2.0

>  <optical_isomers>  (3) 
2.0

>  <modes>  (3) 
IdealGasTranslation(mass=(129.074, 'amu')),         NonlinearRotor(             inertia = ([257.278, 524.296, 637.75

>  <frequency_value>  (3) 
-1749.9

>  <frequency_units>  (3) 
cm^-1

>  <frequency_list>  (3) 
unknown

>  <arkane_path>  (3) 
/home/calvin/Dropbox/PersonalFolders/Calvin/ZEUS_Converged/rmg_rxn_14046/output/rxns/TS0/arkane/output.py

>  <path_exists>  (3) 
True

>  <E0_value>  (3) 
-1765560.0

>  <E0_units>  (3) 
kJ/mol

>  <thermo_class>  (3) 
unknown

>  <Cp0_value>  (3) 
unknown

>  <Cp0_units>  (3) 
unknown

>  <CpInf_value>  (3) 
unknown

>  <CpInf_units>  (3) 
unknown

>  <Tmin_value>  (3) 
unknown

>  <Tmin_units>  (3) 
unknown

>  <Tmax_value>  (3) 
unknown

>  <Tmax_units>  (3) 
unknown

>  <polynomials>  (3) 
unknown

>  <H298_value>  (3) 
unknown

>  <H298_units>  (3) 
unknown

>  <S298_value>  (3) 
unknown

>  <S298_units>  (3) 
unknown

>  <Cp_T_value_list>  (3) 
unknown

>  <Cp_T_units>  (3) 
unknown

>  <T_list>  (3) 
unknown

>  <T_units>  (3) 
unknown

>  <yaml_path>  (3) 
unknown

>  <frequencies_cm1>  (3) 
unknown

>  <ZPE_kJmol>  (3) 
unknown

>  <E_elec_kJmol>  (3) 
unknown

>  <E0_minus_Eelec_plus_ZPE_kJmol>  (3) 
unknown

>  <rxn>  (3) 
unknown

>  <species_type>  (3) 
unknown

>  <species_folder>  (3) 
unknown

>  <frequencies_cm1_list>  (3) 
[]

>  <ts_imag_freq_cm1>  (3) 
-1771.1497

>  <ts_freq_out_path>  (3) 
/home/calvin/Dropbox/PersonalFolders/Calvin/ZEUS_Converged/rmg_rxn_14046/output/rxns/TS0/geometry/freq.out

>  <E0_kJmol>  (3) 
-1.76556e+06

>  <H298_kJmol>  (3) 
unknown

$$$$

     RDKit          3D

  9  8  0  0  0  0  0  0  0  0999 V2000
    2.3032   -0.0159    0.1474 C   0  0  0  0  0  0  0  0  0  1  0  0
    1.1288    0.2882    0.0537 C   0  0  0  0  0  0  0  0  0  2  0  0
   -0.1975    0.6198   -0.0514 C   0  0  0  0  0  3  0  0  0  3  0  0
   -1.2977   -0.3866   -0.0637 C   0  0  0  0  0  0  0  0  0  4  0  0
    3.3305   -0.2768    0.2290 H   0  0  0  0  0  0  0  0  0  5  0  0
   -0.4545    1.6699   -0.1294 H   0  0  0  0  0  0  0  0  0  6  0  0
   -1.9941   -0.2122    0.7624 H   0  0  0  0  0  0  0  0  0  7  0  0
   -0.9106   -1.4008    0.0205 H   0  0  0  0  0  0  0  0  0  8  0  0
   -1.8810   -0.3144   -0.9870 H   0  0  0  0  0  0  0  0  0  9  0  0
  1  5  1  0
  1  2  1  0
  2  3  1  0
  3  4  1  0
  3  6  1  0
  4  8  1  0
  4  9  1  0
  4  7  1  0
M  RAD  1   3   2
M  END
>  <rmg_smiles>  (4) 
[CH]C[CH]C

>  <rmg_adjacency_list>  (4) 
multiplicity 2
1 C u0 p0 c0 {2,S} {5,S} {6,S} {7,S}
2 C u1 p0 c0 {1,S} {3,S} {8,S}
3 C u0 p1 c0 {2,S} {4,S}
4 C u0 p1 c0 {3,S} {9,S}
5 H u0 p0 c0 {1,S}
6 H u0 p0 c0 {1,S}
7 H u0 p0 c0 {1,S}
8 H u0 p0 c0 {2,S}
9 H u0 p0 c0 {4,S}


>  <multiplicity>  (4) 
2

>  <reaction>  (4) 
rmg_rxn_14046

>  <type>  (4) 
r1

>  <role_mapnums>  (4) 
{}

>  <role_mapidx>  (4) 
{}

>  <ordered_mapped_smiles>  (4) 
[CH2:1]([CH2:2][C:3]([C:4]([H:7])([H:8])[H:9])[H:6])[H:5]

>  <level_of_theory>  (4) 
wb97xd/def2tzvp

>  <lot_method>  (4) 
wb97xd

>  <lot_basis>  (4) 
def2tzvp

>  <spin_multiplicity>  (4) 
2.0

>  <optical_isomers>  (4) 
1.0

>  <modes>  (4) 
IdealGasTranslation(mass=(53.0391, 'amu')),         NonlinearRotor(             inertia = ([13.0163, 113.224, 123.133

>  <frequency_value>  (4) 
unknown

>  <frequency_units>  (4) 
unknown

>  <frequency_list>  (4) 
unknown

>  <arkane_path>  (4) 
/home/calvin/Dropbox/PersonalFolders/Calvin/ZEUS_Converged/rmg_rxn_14046/output/Species/rmg_rxn_14046_p2_CtCsbr-CH-sbrC/arkane/output.py

>  <path_exists>  (4) 
True

>  <E0_value>  (4) 
-407611.0178676695

>  <E0_units>  (4) 
kJ/mol

>  <thermo_class>  (4) 
NASA

>  <Cp0_value>  (4) 
33.257888

>  <Cp0_units>  (4) 
J/(mol*K)

>  <CpInf_value>  (4) 
207.8618

>  <CpInf_units>  (4) 
J/(mol*K)

>  <Tmin_value>  (4) 
10.0

>  <Tmin_units>  (4) 
K

>  <Tmax_value>  (4) 
3000.0

>  <Tmax_units>  (4) 
K

>  <polynomials>  (4) 
[{"name": "polynomial1", "class": "NASAPolynomial", "Tmin_value": 10.0, "Tmin_units": "K", "Tmax_value": 225.11887521318957, "Tmax_units": "K", "coeffs": [3.926630915296947, 0.006749895207816258, 0.00012836532533525932, -4.255246557274593e-07, 4.774973939090027e-10, -49024283.36301313, 9.039132667777825]}, {"name": "polynomial2", "class": "NASAPolynomial", "Tmin_value": 225.11887521318957, "Tmin_units": "K", "Tmax_value": 3000.0, "Tmax_units": "K", "coeffs": [2.6986748332678068, 0.028568074177661083, -1.700823692128483e-05, 4.972064259878094e-09, -5.660420030452739e-13, -49024228.07421419, 13.132307964760544]}]

>  <H298_value>  (4) 
-97417.4250763192

>  <H298_units>  (4) 
kcal/mol

>  <S298_value>  (4) 
72.15097842486317

>  <S298_units>  (4) 
cal/(mol*K)

>  <Cp_T_value_list>  (4) 
[19.60978665647869, 23.26682584091865, 26.463197946296326, 29.246037785772845, 33.74616181148779, 37.09028399063582, 42.12357583735745, 44.755303495765276, 46.19958894045869]

>  <Cp_T_units>  (4) 
cal/(mol*K)

>  <T_list>  (4) 
[300.0, 400.0, 500.0, 600.0, 800.0, 1000.0, 1500.0, 2000.0, 2400.0]

>  <T_units>  (4) 
K

>  <yaml_path>  (4) 
/home/calvin/Dropbox/PersonalFolders/Calvin/ZEUS_Converged/rmg_rxn_14046/output/Species/rmg_rxn_14046_p2_CtCsbr-CH-sbrC/rmg_rxn_14046_p2_CtCsbr-CH-sbrC.yml

>  <frequencies_cm1>  (4) 
[83.48880752056, 211.55808373855996, 392.1460636839199, 478.7318815838, 554.46786267808, 595.8689171723599, 660.0408949877599, 865.1234115695598, 998.98842339764, 1092.3794237496397, 1143.5041294570399, 1380.42198998236, 1394.47184194708, 1461.2464071987597, 1480.32289241772, 2005.2901861610799, 2994.3489487859997, 3043.5921005157197, 3109.5494945143196, 3150.5453968747197, 3427.4428459330793]

>  <ZPE_kJmol>  (4) 
182.57130571804632

>  <E_elec_kJmol>  (4) 
-407793.5891733875

>  <E0_minus_Eelec_plus_ZPE_kJmol>  (4) 
0.0

>  <rxn>  (4) 
rmg_rxn_14046

>  <species_type>  (4) 
p1

>  <species_folder>  (4) 
rmg_rxn_14046_p2_CtCsbr-CH-sbrC

>  <frequencies_cm1_list>  (4) 
[83.48880752056, 211.55808373855996, 392.1460636839199, 478.7318815838, 554.46786267808, 595.8689171723599, 660.0408949877599, 865.1234115695598, 998.98842339764, 1092.3794237496397, 1143.5041294570399, 1380.42198998236, 1394.47184194708, 1461.2464071987597, 1480.32289241772, 2005.2901861610799, 2994.3489487859997, 3043.5921005157197, 3109.5494945143196, 3150.5453968747197, 3427.4428459330793]

>  <E0_kJmol>  (4) 
-407611

>  <H298_kJmol>  (4) 
-407595

$$$$

     RDKit          3D

 11 10  0  0  0  0  0  0  0  0999 V2000
    2.2312    0.7411   -0.3115 C   0  0  0  0  0  3  0  0  0  1  0  0
    0.6426    1.1039   -0.7896 S   0  0  0  0  0  0  0  0  0  2  0  0
    0.9085    2.4168   -2.0061 C   0  0  0  0  0  0  0  0  0  3  0  0
    1.5570    1.9429   -3.2967 C   0  0  0  0  0  0  0  0  0  4  0  0
    2.3707   -0.0938    0.3575 H   0  0  0  0  0  0  0  0  0  5  0  0
    3.0432    1.4267   -0.5066 H   0  0  0  0  0  0  0  0  0  6  0  0
    1.4997    3.2005   -1.5289 H   0  0  0  0  0  0  0  0  0  7  0  0
   -0.0844    2.8269   -2.1951 H   0  0  0  0  0  0  0  0  0  8  0  0
    0.9451    1.1830   -3.7838 H   0  0  0  0  0  0  0  0  0  9  0  0
    1.6803    2.7812   -3.9857 H   0  0  0  0  0  0  0  0  0 10  0  0
    2.5399    1.5119   -3.1043 H   0  0  0  0  0  0  0  0  0 11  0  0
  1  5  1  0
  1  2  1  0
  1  6  1  0
  2  3  1  0
  3  4  1  0
  3  7  1  0
  3  8  1  0
  4  9  1  0
  4 10  1  0
  4 11  1  0
M  RAD  1   1   2
M  END
>  <rmg_smiles>  (5) 
[CH2]SCC

>  <rmg_adjacency_list>  (5) 
multiplicity 2
1  S u0 p2 c0 {2,S} {4,S}
2  C u0 p0 c0 {1,S} {3,S} {5,S} {6,S}
3  C u0 p0 c0 {2,S} {7,S} {8,S} {9,S}
4  C u1 p0 c0 {1,S} {10,S} {11,S}
5  H u0 p0 c0 {2,S}
6  H u0 p0 c0 {2,S}
7  H u0 p0 c0 {3,S}
8  H u0 p0 c0 {3,S}
9  H u0 p0 c0 {3,S}
10 H u0 p0 c0 {4,S}
11 H u0 p0 c0 {4,S}


>  <multiplicity>  (5) 
2

>  <reaction>  (5) 
rmg_rxn_14046

>  <type>  (5) 
r2

>  <role_mapnums>  (5) 
{}

>  <role_mapidx>  (5) 
{}

>  <ordered_mapped_smiles>  (5) 
[C:1]([S:2][C:3]([C:4]([H:9])([H:10])[H:11])([H:7])[H:8])([H:5])[H:6]

>  <level_of_theory>  (5) 
wb97xd/def2tzvp

>  <lot_method>  (5) 
wb97xd

>  <lot_basis>  (5) 
def2tzvp

>  <spin_multiplicity>  (5) 
2.0

>  <optical_isomers>  (5) 
2.0

>  <modes>  (5) 
IdealGasTranslation(mass=(75.0268, 'amu')),         NonlinearRotor(             inertia = ([46.1764, 125.175, 150.124

>  <frequency_value>  (5) 
unknown

>  <frequency_units>  (5) 
unknown

>  <frequency_list>  (5) 
unknown

>  <arkane_path>  (5) 
/home/calvin/Dropbox/PersonalFolders/Calvin/ZEUS_Converged/rmg_rxn_14046/output/Species/rmg_rxn_14046_r1_sbr-CH2-sbrSCC/arkane/output.py

>  <path_exists>  (5) 
True

>  <E0_value>  (5) 
-1356326.8288108842

>  <E0_units>  (5) 
kJ/mol

>  <thermo_class>  (5) 
NASA

>  <Cp0_value>  (5) 
33.257888

>  <Cp0_units>  (5) 
J/(mol*K)

>  <CpInf_value>  (5) 
257.748632

>  <CpInf_units>  (5) 
J/(mol*K)

>  <Tmin_value>  (5) 
10.0

>  <Tmin_units>  (5) 
K

>  <Tmax_value>  (5) 
3000.0

>  <Tmax_units>  (5) 
K

>  <polynomials>  (5) 
[{"name": "polynomial1", "class": "NASAPolynomial", "Tmin_value": 10.0, "Tmin_units": "K", "Tmax_value": 163.4951090071466, "Tmax_units": "K", "coeffs": [3.8835469475261863, 0.011797226214747526, 0.00018611094498443922, -8.311547111289582e-07, 1.2782421280944039e-09, -163128450.95622897, 10.667740872661945]}, {"name": "polynomial2", "class": "NASAPolynomial", "Tmin_value": 163.4951090071466, "Tmin_units": "K", "Tmax_value": 3000.0, "Tmax_units": "K", "coeffs": [2.969790016994691, 0.03415263742166229, -1.898917252367668e-05, 5.154032798665946e-09, -5.461113303331832e-13, -163128421.07704777, 13.421308291918322]}]

>  <H298_value>  (5) 
-324165.3998810033

>  <H298_units>  (5) 
kcal/mol

>  <S298_value>  (5) 
78.93024535574743

>  <S298_units>  (5) 
cal/(mol*K)

>  <Cp_T_value_list>  (5) 
[23.133649353741077, 27.638972255717462, 31.614344497438776, 35.10949829515936, 40.84505659178518, 45.19141354830729, 51.8726078253502, 55.26988799424024, 57.0113095587319]

>  <Cp_T_units>  (5) 
cal/(mol*K)

>  <T_list>  (5) 
[300.0, 400.0, 500.0, 600.0, 800.0, 1000.0, 1500.0, 2000.0, 2400.0]

>  <T_units>  (5) 
K

>  <yaml_path>  (5) 
/home/calvin/Dropbox/PersonalFolders/Calvin/ZEUS_Converged/rmg_rxn_14046/output/Species/rmg_rxn_14046_r1_sbr-CH2-sbrSCC/rmg_rxn_14046_r1_sbr-CH2-sbrSCC.yml

>  <frequencies_cm1>  (5) 
[110.60653254923999, 205.67307731931996, 220.09374649131996, 285.94813571012, 367.82320168047994, 369.88329727648, 670.6023184099199, 763.8628460408399, 854.34224461716, 913.1854418242399, 983.7231150312799, 1058.73119568164, 1076.4068158953198, 1269.6918516973599, 1295.3263078969198, 1396.0581155559998, 1402.33454013848, 1458.69188865972, 1476.6353213008802, 1485.0748462591598, 3018.4589342445192, 3035.15257555744, 3083.1459359589203, 3092.3339623170796, 3109.00013568872, 3136.8045592493995, 3260.19055147916]

>  <ZPE_kJmol>  (5) 
235.66309504668385

>  <E_elec_kJmol>  (5) 
-1356562.491905931

>  <E0_minus_Eelec_plus_ZPE_kJmol>  (5) 
0.0

>  <rxn>  (5) 
rmg_rxn_14046

>  <species_type>  (5) 
r0

>  <species_folder>  (5) 
rmg_rxn_14046_r1_sbr-CH2-sbrSCC

>  <frequencies_cm1_list>  (5) 
[110.60653254923999, 205.67307731931996, 220.09374649131996, 285.94813571012, 367.82320168047994, 369.88329727648, 670.6023184099199, 763.8628460408399, 854.34224461716, 913.1854418242399, 983.7231150312799, 1058.73119568164, 1076.4068158953198, 1269.6918516973599, 1295.3263078969198, 1396.0581155559998, 1402.33454013848, 1458.69188865972, 1476.6353213008802, 1485.0748462591598, 3018.4589342445192, 3035.15257555744, 3083.1459359589203, 3092.3339623170796, 3109.00013568872, 3136.8045592493995, 3260.19055147916]

>  <E0_kJmol>  (5) 
-1.35633e+06

>  <H298_kJmol>  (5) 
-1.35631e+06

$$$$
