
     RDKit          3D

 18 17  0  0  0  0  0  0  0  0999 V2000
    0.7703    0.3892   -2.1849 C   0  0  0  0  0  0  0  0  0  1  0  0
    0.2322    0.3576   -0.7829 C   0  0  0  0  0  0  0  0  0  2  0  0
   -0.2454    1.4427   -0.2032 C   0  0  0  0  0  2  0  0  0  3  0  0
   -0.6247    2.5396    0.3785 C   0  0  0  0  0  0  0  0  0  4  0  0
    0.3041   -0.8769   -0.1552 N   0  0  0  0  0  0  0  0  0  5  0  0
   -0.3232   -1.0002    1.1494 C   0  0  0  0  0  0  0  0  0  6  0  0
   -0.1227   -2.3927    1.7159 C   0  0  0  0  0  0  0  0  0  7  0  0
    1.7993    0.0262   -2.1986 H   0  0  0  0  0  0  0  0  0  8  0  0
    0.1730   -0.2669   -2.8242 H   0  0  0  0  0  0  0  0  0  9  0  0
    0.7381    1.3960   -2.5952 H   0  0  0  0  0  0  0  0  0 10  0  0
    0.0638    3.1385    0.9678 H   0  0  0  0  0  0  0  0  0 11  0  0
   -1.6462    2.8985    0.2982 H   0  0  0  0  0  0  0  0  0 12  0  0
   -0.0983   -1.6011   -0.7840 H   0  0  0  0  0  0  0  0  0 13  0  0
    0.1328   -0.2551    1.8061 H   0  0  0  0  0  0  0  0  0 14  0  0
   -1.3920   -0.7570    1.0904 H   0  0  0  0  0  0  0  0  0 15  0  0
    0.9390   -2.6322    1.7864 H   0  0  0  0  0  0  0  0  0 16  0  0
   -0.6034   -3.1439    1.0865 H   0  0  0  0  0  0  0  0  0 17  0  0
   -0.5608   -2.4621    2.7123 H   0  0  0  0  0  0  0  0  0 18  0  0
  1 10  1  0
  1  8  1  0
  1  9  1  0
  1  2  1  0
  2  3  1  0
  2  5  1  0
  3  4  1  0
  4 12  1  0
  4 11  1  0
  5  6  1  0
  5 13  1  0
  6 15  1  0
  6 14  1  0
  6  7  1  0
  7 18  1  0
  7 17  1  0
  7 16  1  0
M  RAD  1   3   3
M  END
>  <rmg_smiles>  (1) 
CCN[C]([C][CH2])C

>  <rmg_adjacency_list>  (1) 
1  N u0 p1 c0 {2,S} {5,S} {16,S}
2  C u0 p0 c0 {1,S} {3,S} {8,S} {9,S}
3  C u0 p0 c0 {2,S} {10,S} {11,S} {12,S}
4  C u0 p0 c0 {5,S} {13,S} {14,S} {15,S}
5  C u0 p0 c0 {1,S} {4,S} {7,S}
6  C u0 p0 c0 {7,S} {17,S} {18,S}
7  C u0 p1 c0 {5,S} {6,S}
8  H u0 p0 c0 {2,S}
9  H u0 p0 c0 {2,S}
10 H u0 p0 c0 {3,S}
11 H u0 p0 c0 {3,S}
12 H u0 p0 c0 {3,S}
13 H u0 p0 c0 {4,S}
14 H u0 p0 c0 {4,S}
15 H u0 p0 c0 {4,S}
16 H u0 p0 c0 {1,S}
17 H u0 p0 c0 {6,S}
18 H u0 p0 c0 {6,S}


>  <multiplicity>  (1) 
1

>  <reaction>  (1) 
rmg_rxn_15476

>  <type>  (1) 
r1h

>  <role_mapnums>  (1) 
{"r1h_a": 5, "r1h_h": 13}

>  <role_mapidx>  (1) 
{"r1h_a": 4, "r1h_h": 12}

>  <ordered_mapped_smiles>  (1) 
[C:1]([CH:2]([C:3][CH:4]([H:11])[H:12])[N:5]([C:6]([C:7]([H:16])([H:17])[H:18])([H:14])[H:15])[H:13])([H:8])([H:9])[H:10]

>  <mol_properties>  (1) 
{"4": {"label": "donator", "atom_type": "N3s"}, "12": {"label": "d_hydrogen", "atom_type": "H0"}}

>  <level_of_theory>  (1) 
wb97xd/def2tzvp

>  <lot_method>  (1) 
wb97xd

>  <lot_basis>  (1) 
def2tzvp

>  <spin_multiplicity>  (1) 
1.0

>  <optical_isomers>  (1) 
2.0

>  <modes>  (1) 
IdealGasTranslation(mass=(97.0892, 'amu')),         NonlinearRotor(             inertia = ([132.249, 305.009, 423.563

>  <frequency_value>  (1) 
unknown

>  <frequency_units>  (1) 
unknown

>  <frequency_list>  (1) 
unknown

>  <arkane_path>  (1) 
/home/calvin/Dropbox/PersonalFolders/Calvin/ZEUS_Converged/rmg_rxn_15476/output/Species/rmg_rxn_15476_r2_CCrbr-=C=C-rbrNCC/arkane/output.py

>  <path_exists>  (1) 
True

>  <E0_value>  (1) 
-760890.7093959231

>  <E0_units>  (1) 
kJ/mol

>  <thermo_class>  (1) 
NASA

>  <Cp0_value>  (1) 
33.257888

>  <Cp0_units>  (1) 
J/(mol*K)

>  <CpInf_value>  (1) 
432.352544

>  <CpInf_units>  (1) 
J/(mol*K)

>  <Tmin_value>  (1) 
10.0

>  <Tmin_units>  (1) 
K

>  <Tmax_value>  (1) 
3000.0

>  <Tmax_units>  (1) 
K

>  <polynomials>  (1) 
[{"name": "polynomial1", "class": "NASAPolynomial", "Tmin_value": 10.0, "Tmin_units": "K", "Tmax_value": 1181.9703003270758, "Tmax_units": "K", "coeffs": [3.5576248118037754, 0.04796462360468598, -4.089762160932986e-06, -1.6236192584281374e-08, 6.404649886169646e-12, -91514013.13235132, 12.146972199881024]}, {"name": "polynomial2", "class": "NASAPolynomial", "Tmin_value": 1181.9703003270758, "Tmin_units": "K", "Tmax_value": 3000.0, "Tmax_units": "K", "coeffs": [8.274341671135556, 0.04739516343074579, -2.2901526095557302e-05, 5.392219574968294e-09, -5.004360037038095e-13, -91516203.36172369, -15.945459627630408]}]

>  <H298_value>  (1) 
-181851.0321609224

>  <H298_units>  (1) 
kcal/mol

>  <S298_value>  (1) 
92.19915200175843

>  <S298_units>  (1) 
cal/(mol*K)

>  <Cp_T_value_list>  (1) 
[34.16491614114502, 42.15650932597916, 49.4581172735085, 56.01360748742103, 66.81443307182943, 74.72083947943528, 86.4513062229087, 92.58264864500431, 95.48273161294959]

>  <Cp_T_units>  (1) 
cal/(mol*K)

>  <T_list>  (1) 
[300.0, 400.0, 500.0, 600.0, 800.0, 1000.0, 1500.0, 2000.0, 2400.0]

>  <T_units>  (1) 
K

>  <yaml_path>  (1) 
/home/calvin/Dropbox/PersonalFolders/Calvin/ZEUS_Converged/rmg_rxn_15476/output/Species/rmg_rxn_15476_r2_CCrbr-=C=C-rbrNCC/rmg_rxn_15476_r2_CCrbr-=C=C-rbrNCC.yml

>  <frequencies_cm1>  (1) 
[81.99867170611999, 117.39111404539999, 130.58259284512, 166.94328011452, 215.09458117836, 228.41653269916, 261.460466059, 392.791560304, 408.75043418768, 490.06240736179996, 580.30832843724, 644.9129263277999, 652.02712311932, 806.2939483331199, 821.8408030976, 916.7837421319199, 921.4807600908, 1005.6287982020799, 1031.592869697, 1054.1852513998, 1088.5545129264, 1149.1007224928399, 1159.44240238476, 1251.6316803057598, 1287.731422133, 1350.17978663308, 1375.2511500363998, 1397.41777864936, 1410.00496274092, 1465.8678883191196, 1467.4816298693202, 1477.2190150530798, 1485.3632596426, 1497.8337049837198, 1510.61316466424, 1516.3333634358, 2055.3436421585598, 2952.3229986276, 3007.3000830995197, 3012.4915240014398, 3041.6281427142003, 3069.5081031134, 3077.8377563065596, 3084.2652545660794, 3103.0395924309596, 3127.5547300233598, 3148.2998926750793, 3545.7541360113596]

>  <ZPE_kJmol>  (1) 
412.974460989785

>  <E_elec_kJmol>  (1) 
-761303.6838569129

>  <E0_minus_Eelec_plus_ZPE_kJmol>  (1) 
0.0

>  <rxn>  (1) 
rmg_rxn_15476

>  <species_type>  (1) 
r1

>  <species_folder>  (1) 
rmg_rxn_15476_r2_CCrbr-=C=C-rbrNCC

>  <frequencies_cm1_list>  (1) 
[81.99867170611999, 117.39111404539999, 130.58259284512, 166.94328011452, 215.09458117836, 228.41653269916, 261.460466059, 392.791560304, 408.75043418768, 490.06240736179996, 580.30832843724, 644.9129263277999, 652.02712311932, 806.2939483331199, 821.8408030976, 916.7837421319199, 921.4807600908, 1005.6287982020799, 1031.592869697, 1054.1852513998, 1088.5545129264, 1149.1007224928399, 1159.44240238476, 1251.6316803057598, 1287.731422133, 1350.17978663308, 1375.2511500363998, 1397.41777864936, 1410.00496274092, 1465.8678883191196, 1467.4816298693202, 1477.2190150530798, 1485.3632596426, 1497.8337049837198, 1510.61316466424, 1516.3333634358, 2055.3436421585598, 2952.3229986276, 3007.3000830995197, 3012.4915240014398, 3041.6281427142003, 3069.5081031134, 3077.8377563065596, 3084.2652545660794, 3103.0395924309596, 3127.5547300233598, 3148.2998926750793, 3545.7541360113596]

>  <E0_kJmol>  (1) 
-760891

>  <H298_kJmol>  (1) 
-760865

$$$$

     RDKit          3D

  6  5  0  0  0  0  0  0  0  0999 V2000
   -1.0134   -0.2420   -0.3926 O   0  0  0  0  0  0  0  0  0  1  0  0
    0.0386    0.4029    0.2766 N   0  0  0  0  0  0  0  0  0  2  0  0
    1.1488   -0.1370    0.1707 C   0  0  0  0  0  0  0  0  0  3  0  0
   -1.7655    0.3210   -0.1950 H   0  0  0  0  0  0  0  0  0  4  0  0
    1.3972   -1.0490   -0.3760 H   0  0  0  0  0  0  0  0  0  5  0  0
    1.9319    0.3951    0.7148 H   0  0  0  0  0  0  0  0  0  6  0  0
  1  4  1  0
  1  2  1  0
  2  3  1  0
  3  6  1  0
  3  5  1  0
M  END
>  <rmg_smiles>  (2) 
[CH2][N]O

>  <rmg_adjacency_list>  (2) 
1 O u0 p2 c0 {2,S} {6,S}
2 N u0 p1 c0 {1,S} {3,S}
3 C u0 p0 c0 {2,S} {4,S} {5,S}
4 H u0 p0 c0 {3,S}
5 H u0 p0 c0 {3,S}
6 H u0 p0 c0 {1,S}


>  <multiplicity>  (2) 
1

>  <reaction>  (2) 
rmg_rxn_15476

>  <type>  (2) 
r2h

>  <role_mapnums>  (2) 
{"r2h_a": 3, "r2h_h": 6}

>  <role_mapidx>  (2) 
{"r2h_a": 2, "r2h_h": 5}

>  <ordered_mapped_smiles>  (2) 
[O:1]([NH:2][CH:3]([H:5])[H:6])[H:4]

>  <mol_properties>  (2) 
{"2": {"label": "acceptor", "atom_type": "Cs"}, "5": {"label": "a_hydrogen", "atom_type": "H0"}}

>  <level_of_theory>  (2) 
wb97xd/def2tzvp

>  <lot_method>  (2) 
wb97xd

>  <lot_basis>  (2) 
def2tzvp

>  <spin_multiplicity>  (2) 
1.0

>  <optical_isomers>  (2) 
1.0

>  <modes>  (2) 
IdealGasTranslation(mass=(45.0215, 'amu')),         NonlinearRotor(             inertia = ([7.10552, 42.1368, 49.2423

>  <frequency_value>  (2) 
unknown

>  <frequency_units>  (2) 
unknown

>  <frequency_list>  (2) 
unknown

>  <arkane_path>  (2) 
/home/calvin/Dropbox/PersonalFolders/Calvin/ZEUS_Converged/rmg_rxn_15476/output/Species/rmg_rxn_15476_p1_ON=C/arkane/output.py

>  <path_exists>  (2) 
True

>  <E0_value>  (2) 
-445765.04652910994

>  <E0_units>  (2) 
kJ/mol

>  <thermo_class>  (2) 
NASA

>  <Cp0_value>  (2) 
33.257888

>  <Cp0_units>  (2) 
J/(mol*K)

>  <CpInf_value>  (2) 
133.031552

>  <CpInf_units>  (2) 
J/(mol*K)

>  <Tmin_value>  (2) 
10.0

>  <Tmin_units>  (2) 
K

>  <Tmax_value>  (2) 
3000.0

>  <Tmax_units>  (2) 
K

>  <polynomials>  (2) 
[{"name": "polynomial1", "class": "NASAPolynomial", "Tmin_value": 10.0, "Tmin_units": "K", "Tmax_value": 555.0008285415723, "Tmax_units": "K", "coeffs": [4.0729558966761115, -0.006525504673073184, 8.044401869233928e-05, -1.3643340673050255e-07, 7.605604608176978e-11, -53613151.050707266, 6.598063650688069]}, {"name": "polynomial2", "class": "NASAPolynomial", "Tmin_value": 555.0008285415723, "Tmin_units": "K", "Tmax_value": 3000.0, "Tmax_units": "K", "coeffs": [1.9629419554542669, 0.01794293278685335, -1.0716899102514014e-05, 3.1351804200574135e-09, -3.5588210478784073e-13, -53613059.472560614, 14.250328412630774]}]

>  <H298_value>  (2) 
-106537.6194767193

>  <H298_units>  (2) 
kcal/mol

>  <S298_value>  (2) 
60.36296822828259

>  <S298_units>  (2) 
cal/(mol*K)

>  <Cp_T_value_list>  (2) 
[12.494795700177992, 15.001608210431446, 17.130783734283074, 18.881829280437152, 21.69615330289245, 23.7834318087242, 26.9145239767162, 28.553257692891545, 29.47039525924992]

>  <Cp_T_units>  (2) 
cal/(mol*K)

>  <T_list>  (2) 
[300.0, 400.0, 500.0, 600.0, 800.0, 1000.0, 1500.0, 2000.0, 2400.0]

>  <T_units>  (2) 
K

>  <yaml_path>  (2) 
/home/calvin/Dropbox/PersonalFolders/Calvin/ZEUS_Converged/rmg_rxn_15476/output/Species/rmg_rxn_15476_p1_ON=C/rmg_rxn_15476_p1_ON=C.yml

>  <frequencies_cm1>  (2) 
[438.20980121048, 539.7244451960399, 801.7205361099999, 965.59427378648, 986.4836431299199, 1183.2914424011199, 1353.5034075279598, 1444.4016922088, 1728.97643085492, 3083.6403589019596, 3214.03754314344, 3841.1169085952]

>  <ZPE_kJmol>  (2) 
117.11863122037906

>  <E_elec_kJmol>  (2) 
-445882.1651603303

>  <E0_minus_Eelec_plus_ZPE_kJmol>  (2) 
0.0

>  <rxn>  (2) 
rmg_rxn_15476

>  <species_type>  (2) 
p0

>  <species_folder>  (2) 
rmg_rxn_15476_p1_ON=C

>  <frequencies_cm1_list>  (2) 
[438.20980121048, 539.7244451960399, 801.7205361099999, 965.59427378648, 986.4836431299199, 1183.2914424011199, 1353.5034075279598, 1444.4016922088, 1728.97643085492, 3083.6403589019596, 3214.03754314344, 3841.1169085952]

>  <E0_kJmol>  (2) 
-445765

>  <H298_kJmol>  (2) 
-445753

$$$$

     RDKit          3D

 23 21  0  0  0  0  0  0  0  0999 V2000
   -2.6969   -1.7737   -1.5135 O   0  0  0  0  0  0  0  0  0  1  0  0
   -1.6449   -1.1288   -0.8443 N   0  0  0  0  0  0  0  0  0  2  0  0
   -0.5347   -1.6687   -0.9502 C   0  0  0  0  0  3  0  0  0  3  0  0
   -3.4490   -1.2107   -1.3159 H   0  0  0  0  0  0  0  0  0  4  0  0
   -0.2863   -2.5807   -1.4969 H   0  0  0  0  0  0  0  0  0  5  0  0
    1.4593    1.1273   -1.5373 C   0  0  0  0  0  0  0  0  0  6  0  0
    0.9212    1.0957   -0.1353 C   0  0  0  0  0  0  0  0  0  7  0  0
    0.4435    2.1808    0.4444 C   0  0  0  0  0  0  0  0  0  8  0  0
    0.0642    3.2777    1.0261 C   0  0  0  0  0  0  0  0  0  9  0  0
    0.9930   -0.1388    0.4924 N   0  0  0  0  0  0  0  0  0 10  0  0
    0.3658   -0.2621    1.7970 C   0  0  0  0  0  0  0  0  0 11  0  0
    0.5663   -1.6545    2.3635 C   0  0  0  0  0  0  0  0  0 12  0  0
    2.4883    0.7644   -1.5510 H   0  0  0  0  0  0  0  0  0 13  0  0
    0.8619    0.4713   -2.1766 H   0  0  0  0  0  0  0  0  0 14  0  0
    1.4271    2.1341   -1.9476 H   0  0  0  0  0  0  0  0  0 15  0  0
    0.7527    3.8767    1.6154 H   0  0  0  0  0  0  0  0  0 16  0  0
   -0.9572    3.6366    0.9458 H   0  0  0  0  0  0  0  0  0 17  0  0
    0.5541   -0.9289   -0.1936 H   0  0  0  0  0  0  0  0  0 18  0  0
    0.8218    0.4830    2.4537 H   0  0  0  0  0  0  0  0  0 19  0  0
   -0.7030   -0.0188    1.7379 H   0  0  0  0  0  0  0  0  0 20  0  0
    1.6280   -1.8940    2.4340 H   0  0  0  0  0  0  0  0  0 21  0  0
    0.0855   -2.4058    1.7341 H   0  0  0  0  0  0  0  0  0 22  0  0
    0.1282   -1.7239    3.3599 H   0  0  0  0  0  0  0  0  0 23  0  0
  1  2  1  0
  1  4  1  0
  2  3  1  0
  3  5  1  0
  6  7  1  0
  6 15  1  0
  6 13  1  0
  6 14  1  0
  7  8  1  0
  7 10  1  0
  8  9  1  0
  9 17  1  0
  9 16  1  0
 10 18  1  0
 10 11  1  0
 11 19  1  0
 11 12  1  0
 11 20  1  0
 12 22  1  0
 12 21  1  0
 12 23  1  0
M  RAD  1   3   2
M  END
>  <rmg_smiles>  (3) 
CCN[C]([C][CH2])C.[CH][N]O

>  <rmg_adjacency_list>  (3) 
multiplicity 2
1  O u0 p2 c0 {3,S} {22,S}
2  N u0 p1 c0 {4,S} {7,S} {19,S}
3  N u0 p1 c0 {1,S} {10,S}
4  C u0 p0 c0 {2,S} {5,S} {11,S} {12,S}
5  C u0 p0 c0 {4,S} {13,S} {14,S} {15,S}
6  C u0 p0 c0 {7,S} {16,S} {17,S} {18,S}
7  C u0 p0 c0 {2,S} {6,S} {9,S}
8  C u0 p0 c0 {9,S} {20,S} {21,S}
9  C u0 p1 c0 {7,S} {8,S}
10 C u1 p1 c0 {3,S} {23,S}
11 H u0 p0 c0 {4,S}
12 H u0 p0 c0 {4,S}
13 H u0 p0 c0 {5,S}
14 H u0 p0 c0 {5,S}
15 H u0 p0 c0 {5,S}
16 H u0 p0 c0 {6,S}
17 H u0 p0 c0 {6,S}
18 H u0 p0 c0 {6,S}
19 H u0 p0 c0 {2,S}
20 H u0 p0 c0 {8,S}
21 H u0 p0 c0 {8,S}
22 H u0 p0 c0 {1,S}
23 H u0 p0 c0 {10,S}


>  <multiplicity>  (3) 
2

>  <reaction>  (3) 
rmg_rxn_15476

>  <type>  (3) 
ts

>  <role_mapnums>  (3) 
{"*2": 18, "*1": 10, "*3": 3, "*0": 7, "*4": 2}

>  <role_mapidx>  (3) 
{"*2": 17, "*1": 9, "*3": 2, "*0": 6, "*4": 1}

>  <ordered_mapped_smiles>  (3) 
[O:1]([NH:2][CH:3][H:5])[H:4].[C:6]([CH:7]([CH2:8][CH:9]([H:16])[H:17])[N:10]([C:11]([C:12]([H:21])([H:22])[H:23])([H:19])[H:20])[H:18])([H:13])([H:14])[H:15]

>  <mol_properties>  (3) 
{"1": {"label": "*4", "atom_type": "N3s"}, "2": {"label": "*3", "atom_type": "C2s"}, "6": {"label": "*0", "atom_type": "Cs"}, "9": {"label": "*1", "atom_type": "N3s"}, "17": {"label": "*2", "atom_type": "H0"}}

>  <level_of_theory>  (3) 
wb97xd/def2tzvp

>  <lot_method>  (3) 
wb97xd

>  <lot_basis>  (3) 
def2tzvp

>  <spin_multiplicity>  (3) 
2.0

>  <optical_isomers>  (3) 
2.0

>  <modes>  (3) 
IdealGasTranslation(mass=(141.103, 'amu')),         NonlinearRotor(             inertia = ([377.284, 646.695, 786.191

>  <frequency_value>  (3) 
-1423.11

>  <frequency_units>  (3) 
cm^-1

>  <frequency_list>  (3) 
unknown

>  <arkane_path>  (3) 
/home/calvin/Dropbox/PersonalFolders/Calvin/ZEUS_Converged/rmg_rxn_15476/output/rxns/TS0/arkane/output.py

>  <path_exists>  (3) 
True

>  <E0_value>  (3) 
-1204890.0

>  <E0_units>  (3) 
kJ/mol

>  <thermo_class>  (3) 
unknown

>  <Cp0_value>  (3) 
unknown

>  <Cp0_units>  (3) 
unknown

>  <CpInf_value>  (3) 
unknown

>  <CpInf_units>  (3) 
unknown

>  <Tmin_value>  (3) 
unknown

>  <Tmin_units>  (3) 
unknown

>  <Tmax_value>  (3) 
unknown

>  <Tmax_units>  (3) 
unknown

>  <polynomials>  (3) 
unknown

>  <H298_value>  (3) 
unknown

>  <H298_units>  (3) 
unknown

>  <S298_value>  (3) 
unknown

>  <S298_units>  (3) 
unknown

>  <Cp_T_value_list>  (3) 
unknown

>  <Cp_T_units>  (3) 
unknown

>  <T_list>  (3) 
unknown

>  <T_units>  (3) 
unknown

>  <yaml_path>  (3) 
unknown

>  <frequencies_cm1>  (3) 
unknown

>  <ZPE_kJmol>  (3) 
unknown

>  <E_elec_kJmol>  (3) 
unknown

>  <E0_minus_Eelec_plus_ZPE_kJmol>  (3) 
unknown

>  <rxn>  (3) 
unknown

>  <species_type>  (3) 
unknown

>  <species_folder>  (3) 
unknown

>  <frequencies_cm1_list>  (3) 
[]

>  <ts_imag_freq_cm1>  (3) 
-1440.3973

>  <ts_freq_out_path>  (3) 
/home/calvin/Dropbox/PersonalFolders/Calvin/ZEUS_Converged/rmg_rxn_15476/output/rxns/TS0/geometry/freq.out

>  <E0_kJmol>  (3) 
-1.20489e+06

>  <H298_kJmol>  (3) 
unknown

$$$$

     RDKit          3D

 17 16  0  0  0  0  0  0  0  0999 V2000
   -1.1861   -2.0547    1.2539 C   0  0  0  0  0  0  0  0  0  1  0  0
   -0.6034   -0.8192    0.6015 C   0  0  0  0  0  0  0  0  0  2  0  0
   -0.1994   -0.7605   -0.6568 N   0  0  0  0  0  2  0  0  0  3  0  0
   -0.3223   -1.9523   -1.4599 C   0  0  0  0  0  0  0  0  0  4  0  0
    0.1862   -1.7052   -2.8685 C   0  0  0  0  0  0  0  0  0  5  0  0
   -0.4867    0.3078    1.3590 C   0  0  0  0  0  0  0  0  0  6  0  0
   -0.3845    1.3657    2.0944 C   0  0  0  0  0  0  0  0  0  7  0  0
   -1.4452   -1.8626    2.2928 H   0  0  0  0  0  0  0  0  0  8  0  0
   -0.4705   -2.8787    1.2204 H   0  0  0  0  0  0  0  0  0  9  0  0
   -2.0850   -2.3786    0.7253 H   0  0  0  0  0  0  0  0  0 10  0  0
    0.2365   -2.7816   -1.0029 H   0  0  0  0  0  0  0  0  0 11  0  0
   -1.3699   -2.2841   -1.4954 H   0  0  0  0  0  0  0  0  0 12  0  0
    1.2344   -1.4052   -2.8473 H   0  0  0  0  0  0  0  0  0 13  0  0
    0.0942   -2.6059   -3.4783 H   0  0  0  0  0  0  0  0  0 14  0  0
   -0.3822   -0.9045   -3.3430 H   0  0  0  0  0  0  0  0  0 15  0  0
   -1.1856    2.0985    2.1519 H   0  0  0  0  0  0  0  0  0 16  0  0
    0.5127    1.5725    2.6727 H   0  0  0  0  0  0  0  0  0 17  0  0
  1 10  1  0
  1  8  1  0
  1  9  1  0
  1  2  1  0
  2  3  1  0
  2  6  1  0
  3  4  1  0
  4  5  1  0
  4 12  1  0
  4 11  1  0
  5 13  1  0
  5 14  1  0
  5 15  1  0
  6  7  1  0
  7 17  1  0
  7 16  1  0
M  RAD  1   3   2
M  END
>  <rmg_smiles>  (4) 
CC[N][C]([C][CH2])C

>  <rmg_adjacency_list>  (4) 
multiplicity 2
1  N u1 p1 c0 {2,S} {5,S}
2  C u0 p0 c0 {1,S} {3,S} {8,S} {9,S}
3  C u0 p0 c0 {2,S} {10,S} {11,S} {12,S}
4  C u0 p0 c0 {5,S} {13,S} {14,S} {15,S}
5  C u0 p0 c0 {1,S} {4,S} {7,S}
6  C u0 p0 c0 {7,S} {16,S} {17,S}
7  C u0 p1 c0 {5,S} {6,S}
8  H u0 p0 c0 {2,S}
9  H u0 p0 c0 {2,S}
10 H u0 p0 c0 {3,S}
11 H u0 p0 c0 {3,S}
12 H u0 p0 c0 {3,S}
13 H u0 p0 c0 {4,S}
14 H u0 p0 c0 {4,S}
15 H u0 p0 c0 {4,S}
16 H u0 p0 c0 {6,S}
17 H u0 p0 c0 {6,S}


>  <multiplicity>  (4) 
2

>  <reaction>  (4) 
rmg_rxn_15476

>  <type>  (4) 
r1

>  <role_mapnums>  (4) 
{}

>  <role_mapidx>  (4) 
{}

>  <ordered_mapped_smiles>  (4) 
[C:1]([CH:2]([N:3][C:4]([C:5]([H:13])([H:14])[H:15])([H:11])[H:12])[CH2:6][CH:7]([H:16])[H:17])([H:8])([H:9])[H:10]

>  <level_of_theory>  (4) 
wb97xd/def2tzvp

>  <lot_method>  (4) 
wb97xd

>  <lot_basis>  (4) 
def2tzvp

>  <spin_multiplicity>  (4) 
2.0

>  <optical_isomers>  (4) 
1.0

>  <modes>  (4) 
IdealGasTranslation(mass=(96.0813, 'amu')),         NonlinearRotor(             inertia = ([92.3757, 366.241, 445.802

>  <frequency_value>  (4) 
unknown

>  <frequency_units>  (4) 
unknown

>  <frequency_list>  (4) 
unknown

>  <arkane_path>  (4) 
/home/calvin/Dropbox/PersonalFolders/Calvin/ZEUS_Converged/rmg_rxn_15476/output/Species/rmg_rxn_15476_p2_CCrbr-=NCC-rbrsbr-C-sbr=C/arkane/output.py

>  <path_exists>  (4) 
True

>  <E0_value>  (4) 
-759221.4968562477

>  <E0_units>  (4) 
kJ/mol

>  <thermo_class>  (4) 
NASA

>  <Cp0_value>  (4) 
33.257888

>  <Cp0_units>  (4) 
J/(mol*K)

>  <CpInf_value>  (4) 
407.409128

>  <CpInf_units>  (4) 
J/(mol*K)

>  <Tmin_value>  (4) 
10.0

>  <Tmin_units>  (4) 
K

>  <Tmax_value>  (4) 
3000.0

>  <Tmax_units>  (4) 
K

>  <polynomials>  (4) 
[{"name": "polynomial1", "class": "NASAPolynomial", "Tmin_value": 10.0, "Tmin_units": "K", "Tmax_value": 1202.1323263193913, "Tmax_units": "K", "coeffs": [3.566427004974519, 0.048402431290595044, -9.766942297227718e-06, -1.1075663934765345e-08, 4.917183967058497e-12, -91313253.52710545, 12.331290861448032]}, {"name": "polynomial2", "class": "NASAPolynomial", "Tmin_value": 1202.1323263193913, "Tmin_units": "K", "Tmax_value": 3000.0, "Tmax_units": "K", "coeffs": [9.515705884127076, 0.04287473372756507, -2.0673011172669442e-05, 4.845768828587173e-09, -4.4717673044365016e-13, -91315714.8453852, -21.753807529397868]}]

>  <H298_value>  (4) 
-181452.1182148132

>  <H298_units>  (4) 
kcal/mol

>  <S298_value>  (4) 
92.50805046168468

>  <S298_units>  (4) 
cal/(mol*K)

>  <Cp_T_value_list>  (4) 
[33.68099973429266, 41.29758134886979, 48.18731950887823, 54.32368819349053, 64.34747057256558, 71.62575039687042, 82.27863367546433, 87.80362944117925, 90.39838156502066]

>  <Cp_T_units>  (4) 
cal/(mol*K)

>  <T_list>  (4) 
[300.0, 400.0, 500.0, 600.0, 800.0, 1000.0, 1500.0, 2000.0, 2400.0]

>  <T_units>  (4) 
K

>  <yaml_path>  (4) 
/home/calvin/Dropbox/PersonalFolders/Calvin/ZEUS_Converged/rmg_rxn_15476/output/Species/rmg_rxn_15476_p2_CCrbr-=NCC-rbrsbr-C-sbr=C/rmg_rxn_15476_p2_CCrbr-=NCC-rbrsbr-C-sbr=C.yml

>  <frequencies_cm1>  (4) 
[51.20710953123999, 115.37908734664, 132.40234395491998, 181.40515119844, 213.70745014372, 248.35825806844, 277.54294567844, 371.73051632756, 455.1781219362, 475.59366929256, 532.43857377152, 596.5350147484, 775.29637659864, 778.02256977068, 895.3793488894801, 904.4300355412399, 959.2423123654801, 993.41929830312, 1032.9044638931198, 1085.4231676204802, 1093.2583978705998, 1113.95549162508, 1229.3620469129999, 1284.8884902105196, 1326.24147580756, 1376.85115761596, 1394.8563931249998, 1408.47362501456, 1425.91576772736, 1446.8463389827198, 1473.09195687576, 1475.2962591634798, 1475.5366036496798, 1487.5469609743598, 1898.50856443508, 2944.96845734988, 2975.0527200367997, 3020.79370925332, 3021.42547190276, 3070.54501789672, 3085.2678344227998, 3096.5640252742, 3102.16061831, 3122.59676662232, 3140.91101647076]

>  <ZPE_kJmol>  (4) 
374.2309491350201

>  <E_elec_kJmol>  (4) 
-759595.7278053827

>  <E0_minus_Eelec_plus_ZPE_kJmol>  (4) 
0.0

>  <rxn>  (4) 
rmg_rxn_15476

>  <species_type>  (4) 
p1

>  <species_folder>  (4) 
rmg_rxn_15476_p2_CCrbr-=NCC-rbrsbr-C-sbr=C

>  <frequencies_cm1_list>  (4) 
[51.20710953123999, 115.37908734664, 132.40234395491998, 181.40515119844, 213.70745014372, 248.35825806844, 277.54294567844, 371.73051632756, 455.1781219362, 475.59366929256, 532.43857377152, 596.5350147484, 775.29637659864, 778.02256977068, 895.3793488894801, 904.4300355412399, 959.2423123654801, 993.41929830312, 1032.9044638931198, 1085.4231676204802, 1093.2583978705998, 1113.95549162508, 1229.3620469129999, 1284.8884902105196, 1326.24147580756, 1376.85115761596, 1394.8563931249998, 1408.47362501456, 1425.91576772736, 1446.8463389827198, 1473.09195687576, 1475.2962591634798, 1475.5366036496798, 1487.5469609743598, 1898.50856443508, 2944.96845734988, 2975.0527200367997, 3020.79370925332, 3021.42547190276, 3070.54501789672, 3085.2678344227998, 3096.5640252742, 3102.16061831, 3122.59676662232, 3140.91101647076]

>  <E0_kJmol>  (4) 
-759221

>  <H298_kJmol>  (4) 
-759196

$$$$

     RDKit          3D

  5  4  0  0  0  0  0  0  0  0999 V2000
    0.8934    0.3742    0.4948 O   0  0  0  0  0  0  0  0  0  1  0  0
    0.1582   -0.1610   -0.5904 N   0  0  0  0  0  0  0  0  0  2  0  0
   -1.0297   -0.3739   -0.4689 C   0  0  0  0  0  3  0  0  0  3  0  0
    1.7805    0.4382    0.1306 H   0  0  0  0  0  0  0  0  0  4  0  0
   -1.8023   -0.2775    0.2859 H   0  0  0  0  0  0  0  0  0  5  0  0
  1  4  1  0
  1  2  1  0
  2  3  1  0
  3  5  1  0
M  RAD  1   3   2
M  END
>  <rmg_smiles>  (5) 
[CH][N]O

>  <rmg_adjacency_list>  (5) 
multiplicity 2
1 O u0 p2 c0 {2,S} {4,S}
2 N u0 p1 c0 {1,S} {3,S}
3 C u1 p1 c0 {2,S} {5,S}
4 H u0 p0 c0 {1,S}
5 H u0 p0 c0 {3,S}


>  <multiplicity>  (5) 
2

>  <reaction>  (5) 
rmg_rxn_15476

>  <type>  (5) 
r2

>  <role_mapnums>  (5) 
{}

>  <role_mapidx>  (5) 
{}

>  <ordered_mapped_smiles>  (5) 
[O:1]([NH:2][CH:3][H:5])[H:4]

>  <level_of_theory>  (5) 
wb97xd/def2tzvp

>  <lot_method>  (5) 
wb97xd

>  <lot_basis>  (5) 
def2tzvp

>  <spin_multiplicity>  (5) 
2.0

>  <optical_isomers>  (5) 
1.0

>  <modes>  (5) 
IdealGasTranslation(mass=(44.0136, 'amu')),         NonlinearRotor(             inertia = ([5.81591, 41.4826, 47.2985

>  <frequency_value>  (5) 
unknown

>  <frequency_units>  (5) 
unknown

>  <frequency_list>  (5) 
unknown

>  <arkane_path>  (5) 
/home/calvin/Dropbox/PersonalFolders/Calvin/ZEUS_Converged/rmg_rxn_15476/output/Species/rmg_rxn_15476_r1_ON=sbr-CH-sbr/arkane/output.py

>  <path_exists>  (5) 
True

>  <E0_value>  (5) 
-444005.359324532

>  <E0_units>  (5) 
kJ/mol

>  <thermo_class>  (5) 
NASA

>  <Cp0_value>  (5) 
33.257888

>  <Cp0_units>  (5) 
J/(mol*K)

>  <CpInf_value>  (5) 
108.088136

>  <CpInf_units>  (5) 
J/(mol*K)

>  <Tmin_value>  (5) 
10.0

>  <Tmin_units>  (5) 
K

>  <Tmax_value>  (5) 
3000.0

>  <Tmax_units>  (5) 
K

>  <polynomials>  (5) 
[{"name": "polynomial1", "class": "NASAPolynomial", "Tmin_value": 10.0, "Tmin_units": "K", "Tmax_value": 581.5521855773558, "Tmax_units": "K", "coeffs": [3.9651854378376354, 0.0020096300724220997, 4.068547950040168e-05, -7.790242028845132e-08, 4.4772375189871534e-11, -53401508.17068676, 6.828671301777145]}, {"name": "polynomial2", "class": "NASAPolynomial", "Tmin_value": 581.5521855773558, "Tmin_units": "K", "Tmax_value": 3000.0, "Tmax_units": "K", "coeffs": [3.5849357627708427, 0.012844035212889389, -8.4590302800557e-06, 2.7367089532336234e-09, -3.401217371194876e-13, -53401602.928060964, 7.262096783490094]}]

>  <H298_value>  (5) 
-106116.84893693788

>  <H298_units>  (5) 
kcal/mol

>  <S298_value>  (5) 
62.05085615552054

>  <S298_units>  (5) 
cal/(mol*K)

>  <Cp_T_value_list>  (5) 
[12.895099247909474, 14.783091657217865, 16.298752276569193, 17.47381546838603, 19.292328661132526, 20.6004316585094, 22.520408903315662, 23.62512089396801, 24.312373577063074]

>  <Cp_T_units>  (5) 
cal/(mol*K)

>  <T_list>  (5) 
[300.0, 400.0, 500.0, 600.0, 800.0, 1000.0, 1500.0, 2000.0, 2400.0]

>  <T_units>  (5) 
K

>  <yaml_path>  (5) 
/home/calvin/Dropbox/PersonalFolders/Calvin/ZEUS_Converged/rmg_rxn_15476/output/Species/rmg_rxn_15476_r1_ON=sbr-CH-sbr/rmg_rxn_15476_r1_ON=sbr-CH-sbr.yml

>  <frequencies_cm1>  (5) 
[407.41137205027997, 410.42597860575995, 739.51938308144, 761.67227772376, 903.0703724478799, 1348.68965081864, 1755.81260948548, 3154.3291057860397, 3817.47387813844]

>  <ZPE_kJmol>  (5) 
79.54214655441899

>  <E_elec_kJmol>  (5) 
-444084.9014710864

>  <E0_minus_Eelec_plus_ZPE_kJmol>  (5) 
0.0

>  <rxn>  (5) 
rmg_rxn_15476

>  <species_type>  (5) 
r0

>  <species_folder>  (5) 
rmg_rxn_15476_r1_ON=sbr-CH-sbr

>  <frequencies_cm1_list>  (5) 
[407.41137205027997, 410.42597860575995, 739.51938308144, 761.67227772376, 903.0703724478799, 1348.68965081864, 1755.81260948548, 3154.3291057860397, 3817.47387813844]

>  <E0_kJmol>  (5) 
-444005

>  <H298_kJmol>  (5) 
-443993

$$$$
