
     RDKit          3D

 13 12  0  0  0  0  0  0  0  0999 V2000
   -0.5326   -1.8803   -0.8456 C   0  0  0  0  0  0  0  0  0  1  0  0
   -0.6430   -1.2235    0.5076 C   0  0  0  0  0  0  0  0  0  2  0  0
   -0.0209    0.0780    0.6906 C   0  0  0  0  0  0  0  0  0  3  0  0
    0.3285    0.8124   -0.2978 N   0  0  0  0  0  0  0  0  0  4  0  0
    0.7834    2.0713   -0.0253 N   0  0  0  0  0  0  0  0  0  5  0  0
   -1.1491   -2.7786   -0.8845 H   0  0  0  0  0  0  0  0  0  6  0  0
    0.5012   -2.1608   -1.0640 H   0  0  0  0  0  0  0  0  0  7  0  0
   -0.8580   -1.2020   -1.6344 H   0  0  0  0  0  0  0  0  0  8  0  0
   -1.7120   -1.0606    0.6469 H   0  0  0  0  0  0  0  0  0  9  0  0
   -0.4583   -1.8928    1.3481 H   0  0  0  0  0  0  0  0  0 10  0  0
    0.0885    0.4443    1.7185 H   0  0  0  0  0  0  0  0  0 11  0  0
    1.3933    2.3909   -0.7598 H   0  0  0  0  0  0  0  0  0 12  0  0
    1.1989    2.1892    0.8935 H   0  0  0  0  0  0  0  0  0 13  0  0
  1  8  1  0
  1  7  1  0
  1  6  1  0
  1  2  1  0
  2 10  1  0
  2  9  1  0
  2  3  1  0
  3 11  1  0
  3  4  1  0
  4  5  1  0
  5 12  1  0
  5 13  1  0
M  END
>  <rmg_smiles>  (1) 
CC[CH][N]N

>  <rmg_adjacency_list>  (1) 
1  N u0 p1 c0 {2,S} {12,S} {13,S}
2  N u0 p1 c0 {1,S} {5,S}
3  C u0 p0 c0 {4,S} {5,S} {6,S} {7,S}
4  C u0 p0 c0 {3,S} {8,S} {9,S} {10,S}
5  C u0 p0 c0 {2,S} {3,S} {11,S}
6  H u0 p0 c0 {3,S}
7  H u0 p0 c0 {3,S}
8  H u0 p0 c0 {4,S}
9  H u0 p0 c0 {4,S}
10 H u0 p0 c0 {4,S}
11 H u0 p0 c0 {5,S}
12 H u0 p0 c0 {1,S}
13 H u0 p0 c0 {1,S}


>  <multiplicity>  (1) 
1

>  <reaction>  (1) 
rmg_rxn_16735

>  <type>  (1) 
r1h

>  <role_mapnums>  (1) 
{"r1h_a": 2, "r1h_h": 9}

>  <role_mapidx>  (1) 
{"r1h_a": 1, "r1h_h": 8}

>  <ordered_mapped_smiles>  (1) 
[C:1]([C:2]([CH:3]([NH:4][N:5]([H:12])[H:13])[H:11])([H:9])[H:10])([H:6])([H:7])[H:8]

>  <mol_properties>  (1) 
{"1": {"label": "donator", "atom_type": "Cs"}, "8": {"label": "d_hydrogen", "atom_type": "H0"}}

>  <level_of_theory>  (1) 
wb97xd/def2tzvp

>  <lot_method>  (1) 
wb97xd

>  <lot_basis>  (1) 
def2tzvp

>  <spin_multiplicity>  (1) 
1.0

>  <optical_isomers>  (1) 
2.0

>  <modes>  (1) 
IdealGasTranslation(mass=(72.0687, 'amu')),         NonlinearRotor(             inertia = ([34.684, 184.298, 212.234

>  <frequency_value>  (1) 
unknown

>  <frequency_units>  (1) 
unknown

>  <frequency_list>  (1) 
unknown

>  <arkane_path>  (1) 
/home/calvin/Dropbox/PersonalFolders/Calvin/ZEUS_Converged/rmg_rxn_16735/output/Species/rmg_rxn_16735_r2_CCC=NN/arkane/output.py

>  <path_exists>  (1) 
True

>  <E0_value>  (1) 
-599920.9873317869

>  <E0_units>  (1) 
kJ/mol

>  <thermo_class>  (1) 
NASA

>  <Cp0_value>  (1) 
33.257888

>  <Cp0_units>  (1) 
J/(mol*K)

>  <CpInf_value>  (1) 
307.635464

>  <CpInf_units>  (1) 
J/(mol*K)

>  <Tmin_value>  (1) 
10.0

>  <Tmin_units>  (1) 
K

>  <Tmax_value>  (1) 
3000.0

>  <Tmax_units>  (1) 
K

>  <polynomials>  (1) 
[{"name": "polynomial1", "class": "NASAPolynomial", "Tmin_value": 10.0, "Tmin_units": "K", "Tmax_value": 499.3147300725661, "Tmax_units": "K", "coeffs": [3.772737889467939, 0.01901670993956432, 5.4211482346469644e-05, -1.0002807179596149e-07, 5.2945469938438315e-11, -72153825.17368056, 10.319749085738847]}, {"name": "polynomial2", "class": "NASAPolynomial", "Tmin_value": 499.3147300725661, "Tmin_units": "K", "Tmax_value": 3000.0, "Tmax_units": "K", "coeffs": [0.4321564708677366, 0.045777830025256636, -2.6181433413240182e-05, 7.308755881392629e-09, -7.961803655511034e-13, -72153491.5707767, 24.116053316438002]}]

>  <H298_value>  (1) 
-143380.03046920145

>  <H298_units>  (1) 
kcal/mol

>  <S298_value>  (1) 
77.71862079027869

>  <S298_units>  (1) 
cal/(mol*K)

>  <Cp_T_value_list>  (1) 
[24.015161340836656, 29.82174262050609, 35.05342116575715, 39.64287141955497, 47.12515278152197, 52.74270329409755, 61.259742638110225, 65.56438910501056, 67.79311195775227]

>  <Cp_T_units>  (1) 
cal/(mol*K)

>  <T_list>  (1) 
[300.0, 400.0, 500.0, 600.0, 800.0, 1000.0, 1500.0, 2000.0, 2400.0]

>  <T_units>  (1) 
K

>  <yaml_path>  (1) 
/home/calvin/Dropbox/PersonalFolders/Calvin/ZEUS_Converged/rmg_rxn_16735/output/Species/rmg_rxn_16735_r2_CCC=NN/rmg_rxn_16735_r2_CCC=NN.yml

>  <frequencies_cm1>  (1) 
[131.53023681928, 204.72543334515998, 211.99757079904, 294.46319750692, 385.55375777672003, 420.17023077484, 638.286285494, 720.7931141138, 773.8749106374, 906.79227849132, 928.7185626180799, 1015.77820250504, 1104.88420401736, 1109.64989182944, 1147.56251778116, 1260.9570463703199, 1278.52279481888, 1369.2425378813998, 1404.13369029232, 1415.2307385694398, 1466.4378481006797, 1477.5005614511997, 1488.6731465668397, 1650.7546010748, 1744.5507535606796, 2983.5815158042396, 3001.1197963115196, 3021.061521680799, 3026.87099126152, 3100.27906433232, 3105.4911061902, 3444.6789790862795, 3612.59050413092]

>  <ZPE_kJmol>  (1) 
298.14811218872103

>  <E_elec_kJmol>  (1) 
-600219.1354439756

>  <E0_minus_Eelec_plus_ZPE_kJmol>  (1) 
0.0

>  <rxn>  (1) 
rmg_rxn_16735

>  <species_type>  (1) 
r1

>  <species_folder>  (1) 
rmg_rxn_16735_r2_CCC=NN

>  <frequencies_cm1_list>  (1) 
[131.53023681928, 204.72543334515998, 211.99757079904, 294.46319750692, 385.55375777672003, 420.17023077484, 638.286285494, 720.7931141138, 773.8749106374, 906.79227849132, 928.7185626180799, 1015.77820250504, 1104.88420401736, 1109.64989182944, 1147.56251778116, 1260.9570463703199, 1278.52279481888, 1369.2425378813998, 1404.13369029232, 1415.2307385694398, 1466.4378481006797, 1477.5005614511997, 1488.6731465668397, 1650.7546010748, 1744.5507535606796, 2983.5815158042396, 3001.1197963115196, 3021.061521680799, 3026.87099126152, 3100.27906433232, 3105.4911061902, 3444.6789790862795, 3612.59050413092]

>  <E0_kJmol>  (1) 
-599921

>  <H298_kJmol>  (1) 
-599902

$$$$

     RDKit          3D

  8  7  0  0  0  0  0  0  0  0999 V2000
   -0.8963    0.8008   -0.4176 C   0  0  0  0  0  0  0  0  0  1  0  0
    0.4017    0.1129   -0.1112 C   0  0  0  0  0  0  0  0  0  2  0  0
    0.4661   -0.9474    0.5531 N   0  0  0  0  0  0  0  0  0  3  0  0
   -1.7345    0.2581    0.0151 H   0  0  0  0  0  0  0  0  0  4  0  0
   -1.0278    0.8738   -1.4994 H   0  0  0  0  0  0  0  0  0  5  0  0
   -0.8763    1.8190   -0.0228 H   0  0  0  0  0  0  0  0  0  6  0  0
    1.3106    0.5940   -0.5026 H   0  0  0  0  0  0  0  0  0  7  0  0
    1.4748   -1.1947    0.6070 H   0  0  0  0  0  0  0  0  0  8  0  0
  1  5  1  0
  1  4  1  0
  1  6  1  0
  1  2  1  0
  2  3  1  0
  2  7  1  0
  3  8  1  0
M  END
>  <rmg_smiles>  (2) 
C[CH][NH]

>  <rmg_adjacency_list>  (2) 
1 N u0 p1 c0 {3,S} {8,S}
2 C u0 p0 c0 {3,S} {4,S} {5,S} {6,S}
3 C u0 p0 c0 {1,S} {2,S} {7,S}
4 H u0 p0 c0 {2,S}
5 H u0 p0 c0 {2,S}
6 H u0 p0 c0 {2,S}
7 H u0 p0 c0 {3,S}
8 H u0 p0 c0 {1,S}


>  <multiplicity>  (2) 
1

>  <reaction>  (2) 
rmg_rxn_16735

>  <type>  (2) 
r2h

>  <role_mapnums>  (2) 
{"r2h_a": 3, "r2h_h": 8}

>  <role_mapidx>  (2) 
{"r2h_a": 2, "r2h_h": 7}

>  <ordered_mapped_smiles>  (2) 
[C:1]([CH:2]([NH:3][H:8])[H:7])([H:4])([H:5])[H:6]

>  <mol_properties>  (2) 
{"2": {"label": "acceptor", "atom_type": "N3s"}, "7": {"label": "a_hydrogen", "atom_type": "H0"}}

>  <level_of_theory>  (2) 
wb97xd/def2tzvp

>  <lot_method>  (2) 
wb97xd

>  <lot_basis>  (2) 
def2tzvp

>  <spin_multiplicity>  (2) 
1.0

>  <optical_isomers>  (2) 
1.0

>  <modes>  (2) 
IdealGasTranslation(mass=(43.0422, 'amu')),         NonlinearRotor(             inertia = ([9.32783, 51.3348, 57.5532

>  <frequency_value>  (2) 
unknown

>  <frequency_units>  (2) 
unknown

>  <frequency_list>  (2) 
unknown

>  <arkane_path>  (2) 
/home/calvin/Dropbox/PersonalFolders/Calvin/ZEUS_Converged/rmg_rxn_16735/output/Species/rmg_rxn_16735_p1_CC=N/arkane/output.py

>  <path_exists>  (2) 
True

>  <E0_value>  (2) 
-351535.20335661684

>  <E0_units>  (2) 
kJ/mol

>  <thermo_class>  (2) 
NASA

>  <Cp0_value>  (2) 
33.257888

>  <Cp0_units>  (2) 
J/(mol*K)

>  <CpInf_value>  (2) 
182.918384

>  <CpInf_units>  (2) 
J/(mol*K)

>  <Tmin_value>  (2) 
10.0

>  <Tmin_units>  (2) 
K

>  <Tmax_value>  (2) 
3000.0

>  <Tmax_units>  (2) 
K

>  <polynomials>  (2) 
[{"name": "polynomial1", "class": "NASAPolynomial", "Tmin_value": 10.0, "Tmin_units": "K", "Tmax_value": 834.0183041901832, "Tmax_units": "K", "coeffs": [4.020859284868709, 0.0012406595733239277, 4.4482903010182226e-05, -5.482114439751344e-08, 2.0739201558559772e-11, -42279921.71645892, 6.726586383468645]}, {"name": "polynomial2", "class": "NASAPolynomial", "Tmin_value": 834.0183041901832, "Tmin_units": "K", "Tmax_value": 3000.0, "Tmax_units": "K", "coeffs": [0.8146767610859666, 0.025012560508124084, -1.3369721411120483e-05, 3.4917002293006827e-09, -3.579375529269218e-13, -42279678.881200545, 19.862274208798944]}]

>  <H298_value>  (2) 
-84015.86036687854

>  <H298_units>  (2) 
kcal/mol

>  <S298_value>  (2) 
62.66843297179497

>  <S298_units>  (2) 
cal/(mol*K)

>  <Cp_T_value_list>  (2) 
[14.078036689508782, 17.202765604471058, 20.2803800489589, 23.1023356383003, 27.639649626797436, 30.983090061901617, 36.21499785066487, 38.88468928045463, 40.19916387517873]

>  <Cp_T_units>  (2) 
cal/(mol*K)

>  <T_list>  (2) 
[300.0, 400.0, 500.0, 600.0, 800.0, 1000.0, 1500.0, 2000.0, 2400.0]

>  <T_units>  (2) 
K

>  <yaml_path>  (2) 
/home/calvin/Dropbox/PersonalFolders/Calvin/ZEUS_Converged/rmg_rxn_16735/output/Species/rmg_rxn_16735_p1_CC=N/rmg_rxn_16735_p1_CC=N.yml

>  <frequencies_cm1>  (2) 
[185.42920459596, 489.9250676554, 680.6761858743599, 921.32968641376, 1055.89513074448, 1069.62910138448, 1130.4431233784, 1267.5150173509198, 1378.7876474762, 1425.071128533, 1456.56312321052, 1463.3683056626398, 1737.36788691596, 2989.2124437666403, 3014.6889593038395, 3075.43431144456, 3123.3452680222, 3455.8927661138396]

>  <ZPE_kJmol>  (2) 
178.96482902382195

>  <E_elec_kJmol>  (2) 
-351714.16818564065

>  <E0_minus_Eelec_plus_ZPE_kJmol>  (2) 
0.0

>  <rxn>  (2) 
rmg_rxn_16735

>  <species_type>  (2) 
p0

>  <species_folder>  (2) 
rmg_rxn_16735_p1_CC=N

>  <frequencies_cm1_list>  (2) 
[185.42920459596, 489.9250676554, 680.6761858743599, 921.32968641376, 1055.89513074448, 1069.62910138448, 1130.4431233784, 1267.5150173509198, 1378.7876474762, 1425.071128533, 1456.56312321052, 1463.3683056626398, 1737.36788691596, 2989.2124437666403, 3014.6889593038395, 3075.43431144456, 3123.3452680222, 3455.8927661138396]

>  <E0_kJmol>  (2) 
-351535

>  <H298_kJmol>  (2) 
-351522

$$$$

     RDKit          3D

 20 18  0  0  0  0  0  0  0  0999 V2000
   -3.2098    0.9470   -0.3448 C   0  0  0  0  0  0  0  0  0  1  0  0
   -1.9118    0.2590   -0.0384 C   0  0  0  0  0  0  0  0  0  2  0  0
   -1.8475   -0.8013    0.6259 N   0  0  0  0  0  2  0  0  0  3  0  0
   -4.0480    0.4043    0.0879 H   0  0  0  0  0  0  0  0  0  4  0  0
   -3.3414    1.0199   -1.4266 H   0  0  0  0  0  0  0  0  0  5  0  0
   -3.1898    1.9651    0.0500 H   0  0  0  0  0  0  0  0  0  6  0  0
   -1.0030    0.7401   -0.4298 H   0  0  0  0  0  0  0  0  0  7  0  0
    0.8138   -1.9650   -0.8255 C   0  0  0  0  0  0  0  0  0  8  0  0
    0.7034   -1.3083    0.5277 C   0  0  0  0  0  0  0  0  0  9  0  0
    1.3256   -0.0067    0.7107 C   0  0  0  0  0  0  0  0  0 10  0  0
    1.6750    0.7276   -0.2777 N   0  0  0  0  0  0  0  0  0 11  0  0
    2.1299    1.9866   -0.0052 N   0  0  0  0  0  0  0  0  0 12  0  0
    0.1974   -2.8634   -0.8644 H   0  0  0  0  0  0  0  0  0 13  0  0
    1.8477   -2.2456   -1.0439 H   0  0  0  0  0  0  0  0  0 14  0  0
    0.4885   -1.2867   -1.6143 H   0  0  0  0  0  0  0  0  0 15  0  0
   -0.5726   -1.1138    0.6940 H   0  0  0  0  0  0  0  0  0 16  0  0
    0.8882   -1.9775    1.3682 H   0  0  0  0  0  0  0  0  0 17  0  0
    1.4350    0.3596    1.7386 H   0  0  0  0  0  0  0  0  0 18  0  0
    2.7397    2.3061   -0.7397 H   0  0  0  0  0  0  0  0  0 19  0  0
    2.5453    2.1045    0.9136 H   0  0  0  0  0  0  0  0  0 20  0  0
  1  5  1  0
  1  4  1  0
  1  6  1  0
  1  2  1  0
  2  3  1  0
  2  7  1  0
  8  9  1  0
  8 14  1  0
  8 13  1  0
  8 15  1  0
  9 10  1  0
  9 17  1  0
  9 16  1  0
 10 11  1  0
 10 18  1  0
 11 12  1  0
 12 19  1  0
 12 20  1  0
M  RAD  1   3   2
M  END
>  <rmg_smiles>  (3) 
CC[CH][N]N.C[CH][N]

>  <rmg_adjacency_list>  (3) 
multiplicity 2
1  N u0 p1 c0 {2,S} {19,S} {20,S}
2  N u0 p1 c0 {1,S} {7,S}
3  N u1 p2 c0 {8,S}
4  C u0 p0 c0 {5,S} {7,S} {9,S} {10,S}
5  C u0 p0 c0 {4,S} {11,S} {12,S} {13,S}
6  C u0 p0 c0 {8,S} {14,S} {15,S} {16,S}
7  C u0 p0 c0 {2,S} {4,S} {17,S}
8  C u0 p0 c0 {3,S} {6,S} {18,S}
9  H u0 p0 c0 {4,S}
10 H u0 p0 c0 {4,S}
11 H u0 p0 c0 {5,S}
12 H u0 p0 c0 {5,S}
13 H u0 p0 c0 {5,S}
14 H u0 p0 c0 {6,S}
15 H u0 p0 c0 {6,S}
16 H u0 p0 c0 {6,S}
17 H u0 p0 c0 {7,S}
18 H u0 p0 c0 {8,S}
19 H u0 p0 c0 {1,S}
20 H u0 p0 c0 {1,S}


>  <multiplicity>  (3) 
2

>  <reaction>  (3) 
rmg_rxn_16735

>  <type>  (3) 
ts

>  <role_mapnums>  (3) 
{"*2": 16, "*1": 9, "*3": 3, "*0": 10, "*4": 2}

>  <role_mapidx>  (3) 
{"*2": 15, "*1": 8, "*3": 2, "*0": 9, "*4": 1}

>  <ordered_mapped_smiles>  (3) 
[C:1]([CH:2]([NH:3])[H:7])([H:4])([H:5])[H:6].[C:8]([C:9]([CH:10]([NH:11][N:12]([H:19])[H:20])[H:18])([H:16])[H:17])([H:13])([H:14])[H:15]

>  <mol_properties>  (3) 
{"1": {"label": "*4", "atom_type": "Cs"}, "2": {"label": "*3", "atom_type": "N1s"}, "8": {"label": "*1", "atom_type": "Cs"}, "9": {"label": "*0", "atom_type": "Cs"}, "15": {"label": "*2", "atom_type": "H0"}}

>  <level_of_theory>  (3) 
wb97xd/def2tzvp

>  <lot_method>  (3) 
wb97xd

>  <lot_basis>  (3) 
def2tzvp

>  <spin_multiplicity>  (3) 
2.0

>  <optical_isomers>  (3) 
2.0

>  <modes>  (3) 
IdealGasTranslation(mass=(114.103, 'amu')),         NonlinearRotor(             inertia = ([223.442, 453.487, 599.053

>  <frequency_value>  (3) 
-1900.55

>  <frequency_units>  (3) 
cm^-1

>  <frequency_list>  (3) 
unknown

>  <arkane_path>  (3) 
/home/calvin/Dropbox/PersonalFolders/Calvin/ZEUS_Converged/rmg_rxn_16735/output/rxns/TS0/arkane/output.py

>  <path_exists>  (3) 
True

>  <E0_value>  (3) 
-949733.0

>  <E0_units>  (3) 
kJ/mol

>  <thermo_class>  (3) 
unknown

>  <Cp0_value>  (3) 
unknown

>  <Cp0_units>  (3) 
unknown

>  <CpInf_value>  (3) 
unknown

>  <CpInf_units>  (3) 
unknown

>  <Tmin_value>  (3) 
unknown

>  <Tmin_units>  (3) 
unknown

>  <Tmax_value>  (3) 
unknown

>  <Tmax_units>  (3) 
unknown

>  <polynomials>  (3) 
unknown

>  <H298_value>  (3) 
unknown

>  <H298_units>  (3) 
unknown

>  <S298_value>  (3) 
unknown

>  <S298_units>  (3) 
unknown

>  <Cp_T_value_list>  (3) 
unknown

>  <Cp_T_units>  (3) 
unknown

>  <T_list>  (3) 
unknown

>  <T_units>  (3) 
unknown

>  <yaml_path>  (3) 
unknown

>  <frequencies_cm1>  (3) 
unknown

>  <ZPE_kJmol>  (3) 
unknown

>  <E_elec_kJmol>  (3) 
unknown

>  <E0_minus_Eelec_plus_ZPE_kJmol>  (3) 
unknown

>  <rxn>  (3) 
unknown

>  <species_type>  (3) 
unknown

>  <species_folder>  (3) 
unknown

>  <frequencies_cm1_list>  (3) 
[]

>  <ts_imag_freq_cm1>  (3) 
-1923.6372

>  <ts_freq_out_path>  (3) 
/home/calvin/Dropbox/PersonalFolders/Calvin/ZEUS_Converged/rmg_rxn_16735/output/rxns/TS0/geometry/freq.out

>  <E0_kJmol>  (3) 
-949733

>  <H298_kJmol>  (3) 
unknown

$$$$

     RDKit          3D

 12 11  0  0  0  0  0  0  0  0999 V2000
   -1.6799    0.1163   -0.1840 C   0  0  0  0  0  0  0  0  0  1  0  0
   -0.3995    0.5010    0.4722 C   0  0  0  0  0  3  0  0  0  2  0  0
    0.5137    1.3724   -0.0474 C   0  0  0  0  0  0  0  0  0  3  0  0
    0.3502    1.9710   -1.2320 N   0  0  0  0  0  0  0  0  0  4  0  0
    1.3174    2.8431   -1.5696 N   0  0  0  0  0  0  0  0  0  5  0  0
   -1.7177   -0.9628   -0.3601 H   0  0  0  0  0  0  0  0  0  6  0  0
   -2.5324    0.3598    0.4569 H   0  0  0  0  0  0  0  0  0  7  0  0
   -1.8040    0.6283   -1.1363 H   0  0  0  0  0  0  0  0  0  8  0  0
   -0.1711    0.0588    1.4348 H   0  0  0  0  0  0  0  0  0  9  0  0
    1.4168    1.5865    0.5319 H   0  0  0  0  0  0  0  0  0 10  0  0
    2.2323    2.7152   -1.1508 H   0  0  0  0  0  0  0  0  0 11  0  0
    1.3361    3.0383   -2.5559 H   0  0  0  0  0  0  0  0  0 12  0  0
  1  8  1  0
  1  7  1  0
  1  6  1  0
  1  2  1  0
  2  9  1  0
  2  3  1  0
  3 10  1  0
  3  4  1  0
  4  5  1  0
  5 12  1  0
  5 11  1  0
M  RAD  1   2   2
M  END
>  <rmg_smiles>  (4) 
C[CH][CH][N]N

>  <rmg_adjacency_list>  (4) 
multiplicity 2
1  N u0 p1 c0 {2,S} {11,S} {12,S}
2  N u0 p1 c0 {1,S} {5,S}
3  C u0 p0 c0 {4,S} {6,S} {7,S} {8,S}
4  C u1 p0 c0 {3,S} {5,S} {9,S}
5  C u0 p0 c0 {2,S} {4,S} {10,S}
6  H u0 p0 c0 {3,S}
7  H u0 p0 c0 {3,S}
8  H u0 p0 c0 {3,S}
9  H u0 p0 c0 {4,S}
10 H u0 p0 c0 {5,S}
11 H u0 p0 c0 {1,S}
12 H u0 p0 c0 {1,S}


>  <multiplicity>  (4) 
2

>  <reaction>  (4) 
rmg_rxn_16735

>  <type>  (4) 
r1

>  <role_mapnums>  (4) 
{}

>  <role_mapidx>  (4) 
{}

>  <ordered_mapped_smiles>  (4) 
[C:1]([C:2]([CH:3]([NH:4][N:5]([H:11])[H:12])[H:10])[H:9])([H:6])([H:7])[H:8]

>  <level_of_theory>  (4) 
wb97xd/def2tzvp

>  <lot_method>  (4) 
wb97xd

>  <lot_basis>  (4) 
def2tzvp

>  <spin_multiplicity>  (4) 
2.0

>  <optical_isomers>  (4) 
2.0

>  <modes>  (4) 
IdealGasTranslation(mass=(71.0609, 'amu')),         NonlinearRotor(             inertia = ([29.5336, 184.64, 210.701

>  <frequency_value>  (4) 
unknown

>  <frequency_units>  (4) 
unknown

>  <frequency_list>  (4) 
unknown

>  <arkane_path>  (4) 
/home/calvin/Dropbox/PersonalFolders/Calvin/ZEUS_Converged/rmg_rxn_16735/output/Species/rmg_rxn_16735_p2_Csbr-CH-sbrC=NN/arkane/output.py

>  <path_exists>  (4) 
True

>  <E0_value>  (4) 
-598275.2800468821

>  <E0_units>  (4) 
kJ/mol

>  <thermo_class>  (4) 
NASA

>  <Cp0_value>  (4) 
33.257888

>  <Cp0_units>  (4) 
J/(mol*K)

>  <CpInf_value>  (4) 
282.692048

>  <CpInf_units>  (4) 
J/(mol*K)

>  <Tmin_value>  (4) 
10.0

>  <Tmin_units>  (4) 
K

>  <Tmax_value>  (4) 
3000.0

>  <Tmax_units>  (4) 
K

>  <polynomials>  (4) 
[{"name": "polynomial1", "class": "NASAPolynomial", "Tmin_value": 10.0, "Tmin_units": "K", "Tmax_value": 366.7174735517215, "Tmax_units": "K", "coeffs": [3.7971464582164076, 0.01712840359899359, 7.532734518680577e-05, -1.7422019347854378e-07, 1.2273335988277786e-10, -71955893.35815866, 11.070679841005424]}, {"name": "polynomial2", "class": "NASAPolynomial", "Tmin_value": 366.7174735517215, "Tmin_units": "K", "Tmax_value": 3000.0, "Tmax_units": "K", "coeffs": [1.5634281556089815, 0.04149259727204526, -2.4329457873497574e-05, 6.946910059379756e-09, -7.712017446099328e-13, -71955729.52766144, 19.606319064288527]}]

>  <H298_value>  (4) 
-142986.70658008612

>  <H298_units>  (4) 
kcal/mol

>  <S298_value>  (4) 
79.20502345005374

>  <S298_units>  (4) 
cal/(mol*K)

>  <Cp_T_value_list>  (4) 
[23.857057095767413, 29.197256633611634, 33.87695443606276, 37.95756482540437, 44.56824599166819, 49.485964495331025, 56.83938487509146, 60.5439099973707, 62.508466614878564]

>  <Cp_T_units>  (4) 
cal/(mol*K)

>  <T_list>  (4) 
[300.0, 400.0, 500.0, 600.0, 800.0, 1000.0, 1500.0, 2000.0, 2400.0]

>  <T_units>  (4) 
K

>  <yaml_path>  (4) 
/home/calvin/Dropbox/PersonalFolders/Calvin/ZEUS_Converged/rmg_rxn_16735/output/Species/rmg_rxn_16735_p2_Csbr-CH-sbrC=NN/rmg_rxn_16735_p2_Csbr-CH-sbrC=NN.yml

>  <frequencies_cm1>  (4) 
[102.20820950288, 176.13817345799998, 210.80958233868, 366.32619888072, 419.83374849416, 450.85878816991993, 605.60630235612, 675.42980908988, 714.09093644148, 933.4361815329199, 945.3160661365198, 1018.3876569266398, 1029.10702101116, 1134.1306944952398, 1222.9688835800798, 1246.50890925704, 1330.9728286930401, 1386.72588250612, 1446.1390394947598, 1461.01292969788, 1471.12799907424, 1556.1275433651997, 1644.9863334059999, 3000.3781618969597, 3032.3783134881596, 3048.60499979932, 3116.86970086544, 3157.53598793048, 3449.68501138456, 3630.6575425078395]

>  <ZPE_kJmol>  (4) 
263.0849686240226

>  <E_elec_kJmol>  (4) 
-598538.3650155062

>  <E0_minus_Eelec_plus_ZPE_kJmol>  (4) 
0.0

>  <rxn>  (4) 
rmg_rxn_16735

>  <species_type>  (4) 
p1

>  <species_folder>  (4) 
rmg_rxn_16735_p2_Csbr-CH-sbrC=NN

>  <frequencies_cm1_list>  (4) 
[102.20820950288, 176.13817345799998, 210.80958233868, 366.32619888072, 419.83374849416, 450.85878816991993, 605.60630235612, 675.42980908988, 714.09093644148, 933.4361815329199, 945.3160661365198, 1018.3876569266398, 1029.10702101116, 1134.1306944952398, 1222.9688835800798, 1246.50890925704, 1330.9728286930401, 1386.72588250612, 1446.1390394947598, 1461.01292969788, 1471.12799907424, 1556.1275433651997, 1644.9863334059999, 3000.3781618969597, 3032.3783134881596, 3048.60499979932, 3116.86970086544, 3157.53598793048, 3449.68501138456, 3630.6575425078395]

>  <E0_kJmol>  (4) 
-598275

>  <H298_kJmol>  (4) 
-598256

$$$$

     RDKit          3D

  7  6  0  0  0  0  0  0  0  0999 V2000
   -0.6441   -0.1356    0.0624 C   0  0  0  0  0  0  0  0  0  1  0  0
    0.8523    0.0148   -0.0333 C   0  0  0  0  0  0  0  0  0  2  0  0
    1.6700   -0.6077    0.6603 N   0  0  0  0  0  2  0  0  0  3  0  0
   -1.0940    0.8275    0.3091 H   0  0  0  0  0  0  0  0  0  4  0  0
   -0.9104   -0.8656    0.8237 H   0  0  0  0  0  0  0  0  0  5  0  0
   -1.0427   -0.4545   -0.9022 H   0  0  0  0  0  0  0  0  0  6  0  0
    1.2362    0.7308   -0.7748 H   0  0  0  0  0  0  0  0  0  7  0  0
  1  5  1  0
  1  4  1  0
  1  6  1  0
  1  2  1  0
  2  3  1  0
  2  7  1  0
M  RAD  1   3   2
M  END
>  <rmg_smiles>  (5) 
C[CH][N]

>  <rmg_adjacency_list>  (5) 
multiplicity 2
1 N u1 p2 c0 {3,S}
2 C u0 p0 c0 {3,S} {4,S} {5,S} {6,S}
3 C u0 p0 c0 {1,S} {2,S} {7,S}
4 H u0 p0 c0 {2,S}
5 H u0 p0 c0 {2,S}
6 H u0 p0 c0 {2,S}
7 H u0 p0 c0 {3,S}


>  <multiplicity>  (5) 
2

>  <reaction>  (5) 
rmg_rxn_16735

>  <type>  (5) 
r2

>  <role_mapnums>  (5) 
{}

>  <role_mapidx>  (5) 
{}

>  <ordered_mapped_smiles>  (5) 
[C:1]([CH:2]([NH:3])[H:7])([H:4])([H:5])[H:6]

>  <level_of_theory>  (5) 
wb97xd/def2tzvp

>  <lot_method>  (5) 
wb97xd

>  <lot_basis>  (5) 
def2tzvp

>  <spin_multiplicity>  (5) 
2.0

>  <optical_isomers>  (5) 
1.0

>  <modes>  (5) 
IdealGasTranslation(mass=(42.0344, 'amu')),         NonlinearRotor(             inertia = ([8.81492, 48.174, 53.8511

>  <frequency_value>  (5) 
unknown

>  <frequency_units>  (5) 
unknown

>  <frequency_list>  (5) 
unknown

>  <arkane_path>  (5) 
/home/calvin/Dropbox/PersonalFolders/Calvin/ZEUS_Converged/rmg_rxn_16735/output/Species/rmg_rxn_16735_r1_CC=sbr-N-sbr/arkane/output.py

>  <path_exists>  (5) 
True

>  <E0_value>  (5) 
-349854.82234455534

>  <E0_units>  (5) 
kJ/mol

>  <thermo_class>  (5) 
NASA

>  <Cp0_value>  (5) 
33.257888

>  <Cp0_units>  (5) 
J/(mol*K)

>  <CpInf_value>  (5) 
157.97496800000002

>  <CpInf_units>  (5) 
J/(mol*K)

>  <Tmin_value>  (5) 
10.0

>  <Tmin_units>  (5) 
K

>  <Tmax_value>  (5) 
3000.0

>  <Tmax_units>  (5) 
K

>  <polynomials>  (5) 
[{"name": "polynomial1", "class": "NASAPolynomial", "Tmin_value": 10.0, "Tmin_units": "K", "Tmax_value": 503.5856077016928, "Tmax_units": "K", "coeffs": [3.976811592049577, 0.0012685228752087534, 4.786155959427562e-05, -7.554553197268183e-08, 3.869280929218241e-11, -42077814.38325793, 7.559402827950991]}, {"name": "polynomial2", "class": "NASAPolynomial", "Tmin_value": 503.5856077016928, "Tmin_units": "K", "Tmax_value": 3000.0, "Tmax_units": "K", "coeffs": [1.4688672877735052, 0.02118998940112054, -1.1479594923736429e-05, 3.0156770231218235e-09, -3.096140671693614e-13, -42077561.800061174, 17.93823402033286]}]

>  <H298_value>  (5) 
-83614.2601862362

>  <H298_units>  (5) 
kcal/mol

>  <S298_value>  (5) 
63.84640386523673

>  <S298_units>  (5) 
cal/(mol*K)

>  <Cp_T_value_list>  (5) 
[13.788413560189577, 16.48922778111735, 18.980945997388957, 21.186536551582613, 24.822448324400693, 27.593007553675324, 31.86535612271467, 33.985319854322825, 35.01227851918305]

>  <Cp_T_units>  (5) 
cal/(mol*K)

>  <T_list>  (5) 
[300.0, 400.0, 500.0, 600.0, 800.0, 1000.0, 1500.0, 2000.0, 2400.0]

>  <T_units>  (5) 
K

>  <yaml_path>  (5) 
/home/calvin/Dropbox/PersonalFolders/Calvin/ZEUS_Converged/rmg_rxn_16735/output/Species/rmg_rxn_16735_r1_CC=sbr-N-sbr/rmg_rxn_16735_r1_CC=sbr-N-sbr.yml

>  <frequencies_cm1>  (5) 
[183.94593576684, 430.87586088872, 744.9511684695599, 909.3948659275999, 1050.2642027820798, 1063.7578289358798, 1237.9320445923597, 1377.0846351168398, 1461.72709617116, 1465.6893467008, 1739.36617964408, 2963.10416558, 3026.2186276561197, 3097.525403219, 3131.35217290532]

>  <ZPE_kJmol>  (5) 
142.8532380575317

>  <E_elec_kJmol>  (5) 
-349997.67558261286

>  <E0_minus_Eelec_plus_ZPE_kJmol>  (5) 
0.0

>  <rxn>  (5) 
rmg_rxn_16735

>  <species_type>  (5) 
r0

>  <species_folder>  (5) 
rmg_rxn_16735_r1_CC=sbr-N-sbr

>  <frequencies_cm1_list>  (5) 
[183.94593576684, 430.87586088872, 744.9511684695599, 909.3948659275999, 1050.2642027820798, 1063.7578289358798, 1237.9320445923597, 1377.0846351168398, 1461.72709617116, 1465.6893467008, 1739.36617964408, 2963.10416558, 3026.2186276561197, 3097.525403219, 3131.35217290532]

>  <E0_kJmol>  (5) 
-349855

>  <H298_kJmol>  (5) 
-349842

$$$$
