
     RDKit          3D

  6  5  0  0  0  0  0  0  0  0999 V2000
    0.1807    0.9046    0.7041 C   0  0  0  0  0  0  0  0  0  1  0  0
    0.2786   -0.3843    0.1637 N   0  0  0  0  0  0  0  0  0  2  0  0
   -0.3806   -0.5761   -0.8453 O   0  0  0  0  0  0  0  0  0  3  0  0
   -0.7779    0.9205    1.2201 H   0  0  0  0  0  0  0  0  0  4  0  0
    0.0525    1.6988   -0.0335 H   0  0  0  0  0  0  0  0  0  5  0  0
    0.9268    1.0896    1.4714 H   0  0  0  0  0  0  0  0  0  6  0  0
  1  5  1  0
  1  2  1  0
  1  4  1  0
  1  6  1  0
  2  3  1  0
M  END
>  <rmg_smiles>  (1) 
C[N][O]

>  <rmg_adjacency_list>  (1) 
1 O u0 p2 c0 {2,S}
2 N u0 p1 c0 {1,S} {3,S}
3 C u0 p0 c0 {2,S} {4,S} {5,S} {6,S}
4 H u0 p0 c0 {3,S}
5 H u0 p0 c0 {3,S}
6 H u0 p0 c0 {3,S}


>  <multiplicity>  (1) 
1

>  <reaction>  (1) 
rmg_rxn_618

>  <type>  (1) 
r1h

>  <role_mapnums>  (1) 
{"r1h_a": 1, "r1h_h": 4}

>  <role_mapidx>  (1) 
{"r1h_a": 0, "r1h_h": 3}

>  <ordered_mapped_smiles>  (1) 
[C:1]([NH:2][OH:3])([H:4])([H:5])[H:6]

>  <mol_properties>  (1) 
{"0": {"label": "donator", "atom_type": "Cs"}, "3": {"label": "d_hydrogen", "atom_type": "H0"}}

>  <level_of_theory>  (1) 
wb97xd/def2tzvp

>  <lot_method>  (1) 
wb97xd

>  <lot_basis>  (1) 
def2tzvp

>  <spin_multiplicity>  (1) 
1.0

>  <optical_isomers>  (1) 
1.0

>  <modes>  (1) 
IdealGasTranslation(mass=(45.0215, 'amu')),         NonlinearRotor(             inertia = ([8.07699, 43.5338, 48.4889

>  <frequency_value>  (1) 
unknown

>  <frequency_units>  (1) 
unknown

>  <frequency_list>  (1) 
unknown

>  <arkane_path>  (1) 
/home/calvin/Dropbox/PersonalFolders/Calvin/ATLAS_Converged/rmg_rxn_618/output/Species/rmg_rxn_618_r1_CN=O/arkane/output.py

>  <path_exists>  (1) 
True

>  <E0_value>  (1) 
-445718.776356613

>  <E0_units>  (1) 
kJ/mol

>  <thermo_class>  (1) 
NASA

>  <Cp0_value>  (1) 
33.257888

>  <Cp0_units>  (1) 
J/(mol*K)

>  <CpInf_value>  (1) 
133.031552

>  <CpInf_units>  (1) 
J/(mol*K)

>  <Tmin_value>  (1) 
10.0

>  <Tmin_units>  (1) 
K

>  <Tmax_value>  (1) 
3000.0

>  <Tmax_units>  (1) 
K

>  <polynomials>  (1) 
[{"name": "polynomial1", "class": "NASAPolynomial", "Tmin_value": 10.0, "Tmin_units": "K", "Tmax_value": 511.90687785810604, "Tmax_units": "K", "coeffs": [3.9789352478099715, 0.001161265651303563, 3.748997662509957e-05, -5.8505700772999076e-08, 2.9515965803367326e-11, -53607585.080265164, 6.986782485664598]}, {"name": "polynomial2", "class": "NASAPolynomial", "Tmin_value": 511.90687785810604, "Tmin_units": "K", "Tmax_value": 3000.0, "Tmax_units": "K", "coeffs": [1.9343545091495096, 0.0171365636524948, -9.318546376811868e-06, 2.45056971641056e-09, -2.5158502413706336e-13, -53607375.74155318, 15.481740257492172]}]

>  <H298_value>  (1) 
-106526.42729706276

>  <H298_units>  (1) 
kcal/mol

>  <S298_value>  (1) 
62.01661564600373

>  <S298_units>  (1) 
cal/(mol*K)

>  <Cp_T_value_list>  (1) 
[12.640299105229849, 14.810812294003128, 16.818915965173034, 18.596941456685723, 21.524185210914364, 23.74981328654779, 27.164107834916802, 28.83932173030383, 29.643096991481094]

>  <Cp_T_units>  (1) 
cal/(mol*K)

>  <T_list>  (1) 
[300.0, 400.0, 500.0, 600.0, 800.0, 1000.0, 1500.0, 2000.0, 2400.0]

>  <T_units>  (1) 
K

>  <yaml_path>  (1) 
/home/calvin/Dropbox/PersonalFolders/Calvin/ATLAS_Converged/rmg_rxn_618/output/Species/rmg_rxn_618_r1_CN=O/rmg_rxn_618_r1_CN=O.yml

>  <frequencies_cm1>  (1) 
[159.67800964595997, 581.79159726636, 871.00155100348, 967.4689607788398, 1152.46554529964, 1368.8854546447599, 1439.8214130003598, 1441.90210955232, 1701.8724397968801, 3006.5378477289996, 3098.8369974151196, 3119.62336197876]

>  <ZPE_kJmol>  (1) 
113.10626417033984

>  <E_elec_kJmol>  (1) 
-445831.88262078335

>  <E0_minus_Eelec_plus_ZPE_kJmol>  (1) 
0.0

>  <rxn>  (1) 
rmg_rxn_618

>  <species_type>  (1) 
r0

>  <species_folder>  (1) 
rmg_rxn_618_r1_CN=O

>  <frequencies_cm1_list>  (1) 
[159.67800964595997, 581.79159726636, 871.00155100348, 967.4689607788398, 1152.46554529964, 1368.8854546447599, 1439.8214130003598, 1441.90210955232, 1701.8724397968801, 3006.5378477289996, 3098.8369974151196, 3119.62336197876]

>  <E0_kJmol>  (1) 
-445719

>  <H298_kJmol>  (1) 
-445707

$$$$

     RDKit          3D

 12 11  0  0  0  0  0  0  0  0999 V2000
    2.0492    0.9656    0.3241 H   0  0  0  0  0  0  0  0  0  1  0  0
    1.0663    1.0691    0.7750 C   0  0  0  0  0  0  0  0  0  2  0  0
    0.2676   -0.4635    0.7355 S   0  0  0  0  0  0  0  0  0  3  0  0
   -0.2820   -0.5558   -0.9871 C   0  0  0  0  0  0  0  0  0  4  0  0
   -1.4254    0.3816   -1.3368 C   0  0  0  0  0  0  0  0  0  5  0  0
    1.3144    1.3754    1.7871 H   0  0  0  0  0  0  0  0  0  6  0  0
    0.6321    1.8627    0.1732 H   0  0  0  0  0  0  0  0  0  7  0  0
   -0.5811   -1.5966   -1.1154 H   0  0  0  0  0  0  0  0  0  8  0  0
    0.5912   -0.3888   -1.6203 H   0  0  0  0  0  0  0  0  0  9  0  0
   -1.1419    1.4277   -1.2122 H   0  0  0  0  0  0  0  0  0 10  0  0
   -1.7100    0.2419   -2.3814 H   0  0  0  0  0  0  0  0  0 11  0  0
   -2.2991    0.1904   -0.7131 H   0  0  0  0  0  0  0  0  0 12  0  0
  1  2  1  0
  2  7  1  0
  2  3  1  0
  2  6  1  0
  3  4  1  0
  4  8  1  0
  4  5  1  0
  4  9  1  0
  5 11  1  0
  5 12  1  0
  5 10  1  0
M  END
>  <rmg_smiles>  (2) 
CSCC

>  <rmg_adjacency_list>  (2) 
1  S u0 p2 c0 {2,S} {4,S}
2  C u0 p0 c0 {1,S} {3,S} {5,S} {6,S}
3  C u0 p0 c0 {2,S} {7,S} {8,S} {9,S}
4  C u0 p0 c0 {1,S} {10,S} {11,S} {12,S}
5  H u0 p0 c0 {2,S}
6  H u0 p0 c0 {2,S}
7  H u0 p0 c0 {3,S}
8  H u0 p0 c0 {3,S}
9  H u0 p0 c0 {3,S}
10 H u0 p0 c0 {4,S}
11 H u0 p0 c0 {4,S}
12 H u0 p0 c0 {4,S}


>  <multiplicity>  (2) 
1

>  <reaction>  (2) 
rmg_rxn_618

>  <type>  (2) 
r2h

>  <role_mapnums>  (2) 
{"r2h_a": 2, "r2h_h": 1}

>  <role_mapidx>  (2) 
{"r2h_a": 1, "r2h_h": 0}

>  <ordered_mapped_smiles>  (2) 
[H:1][C:2]([S:3][C:4]([C:5]([H:10])([H:11])[H:12])([H:8])[H:9])([H:6])[H:7]

>  <mol_properties>  (2) 
{"0": {"label": "a_hydrogen", "atom_type": "H0"}, "1": {"label": "acceptor", "atom_type": "Cs"}}

>  <level_of_theory>  (2) 
wb97xd/def2tzvp

>  <lot_method>  (2) 
wb97xd

>  <lot_basis>  (2) 
def2tzvp

>  <spin_multiplicity>  (2) 
1.0

>  <optical_isomers>  (2) 
2.0

>  <modes>  (2) 
IdealGasTranslation(mass=(76.0347, 'amu')),         NonlinearRotor(             inertia = ([52.0964, 128.386, 157.856

>  <frequency_value>  (2) 
unknown

>  <frequency_units>  (2) 
unknown

>  <frequency_list>  (2) 
unknown

>  <arkane_path>  (2) 
/home/calvin/Dropbox/PersonalFolders/Calvin/ATLAS_Converged/rmg_rxn_618/output/Species/rmg_rxn_618_p2_CSCC/arkane/output.py

>  <path_exists>  (2) 
True

>  <E0_value>  (2) 
-1358024.3823847063

>  <E0_units>  (2) 
kJ/mol

>  <thermo_class>  (2) 
NASA

>  <Cp0_value>  (2) 
33.257888

>  <Cp0_units>  (2) 
J/(mol*K)

>  <CpInf_value>  (2) 
282.692048

>  <CpInf_units>  (2) 
J/(mol*K)

>  <Tmin_value>  (2) 
10.0

>  <Tmin_units>  (2) 
K

>  <Tmax_value>  (2) 
3000.0

>  <Tmax_units>  (2) 
K

>  <polynomials>  (2) 
[{"name": "polynomial1", "class": "NASAPolynomial", "Tmin_value": 10.0, "Tmin_units": "K", "Tmax_value": 1066.2668684701744, "Tmax_units": "K", "coeffs": [3.7938912313276787, 0.023010100947195324, 1.342493384076101e-05, -2.4396686231991315e-08, 8.539069834136729e-12, -163332607.1869712, 10.299389825114616]}, {"name": "polynomial2", "class": "NASAPolynomial", "Tmin_value": 1066.2668684701744, "Tmin_units": "K", "Tmax_value": 3000.0, "Tmax_units": "K", "coeffs": [3.879217425430389, 0.03360306179863777, -1.6829239210706833e-05, 4.118007320046649e-09, -3.971168214124496e-13, -163333245.74928793, 6.973208429713539]}]

>  <H298_value>  (2) 
-324571.19408104627

>  <H298_units>  (2) 
kcal/mol

>  <S298_value>  (2) 
77.83544863665438

>  <S298_units>  (2) 
cal/(mol*K)

>  <Cp_T_value_list>  (2) 
[22.486476604271342, 27.42967621467206, 32.072084622248504, 36.30607837304303, 43.32195482949402, 48.43082491651662, 56.2496539809613, 60.32875481300712, 62.28322095230064]

>  <Cp_T_units>  (2) 
cal/(mol*K)

>  <T_list>  (2) 
[300.0, 400.0, 500.0, 600.0, 800.0, 1000.0, 1500.0, 2000.0, 2400.0]

>  <T_units>  (2) 
K

>  <yaml_path>  (2) 
/home/calvin/Dropbox/PersonalFolders/Calvin/ATLAS_Converged/rmg_rxn_618/output/Species/rmg_rxn_618_p2_CSCC/rmg_rxn_618_p2_CSCC.yml

>  <frequencies_cm1>  (2) 
[86.86049731268, 173.63172381619998, 227.43455379839997, 277.98929972423997, 356.053188842, 666.01517221616, 740.88591316012, 758.5958683004, 952.29292322164, 966.1504995974, 986.7445885720799, 1060.0221889218, 1079.9089784085197, 1272.4729807519598, 1296.60356716644, 1348.6278479507598, 1400.27444454248, 1452.28499135616, 1457.8541164506798, 1470.393231645, 1480.8997191846001, 1487.8971772256798, 3015.3687908505194, 3018.78854953988, 3025.31218559388, 3073.71756511456, 3086.881575973, 3099.52369594712, 3104.7151368490404, 3118.41477256244]

>  <ZPE_kJmol>  (2) 
272.4054138316235

>  <E_elec_kJmol>  (2) 
-1358296.787798538

>  <E0_minus_Eelec_plus_ZPE_kJmol>  (2) 
0.0

>  <rxn>  (2) 
rmg_rxn_618

>  <species_type>  (2) 
p1

>  <species_folder>  (2) 
rmg_rxn_618_p2_CSCC

>  <frequencies_cm1_list>  (2) 
[86.86049731268, 173.63172381619998, 227.43455379839997, 277.98929972423997, 356.053188842, 666.01517221616, 740.88591316012, 758.5958683004, 952.29292322164, 966.1504995974, 986.7445885720799, 1060.0221889218, 1079.9089784085197, 1272.4729807519598, 1296.60356716644, 1348.6278479507598, 1400.27444454248, 1452.28499135616, 1457.8541164506798, 1470.393231645, 1480.8997191846001, 1487.8971772256798, 3015.3687908505194, 3018.78854953988, 3025.31218559388, 3073.71756511456, 3086.881575973, 3099.52369594712, 3104.7151368490404, 3118.41477256244]

>  <E0_kJmol>  (2) 
-1.35802e+06

>  <H298_kJmol>  (2) 
-1.35801e+06

$$$$

     RDKit          3D

 17 15  0  0  0  0  0  0  0  0999 V2000
    2.3176    0.9013    0.0107 C   0  0  0  0  0  0  0  0  0  1  0  0
    2.4155   -0.3877   -0.5297 N   0  0  0  0  0  0  0  0  0  2  0  0
    1.7563   -0.5794   -1.5387 O   0  0  0  0  0  0  0  0  0  3  0  0
    1.1759    0.9202    0.6252 H   0  0  0  0  0  0  0  0  0  4  0  0
    2.1894    1.6955   -0.7270 H   0  0  0  0  0  0  0  0  0  5  0  0
    3.0637    1.0863    0.7779 H   0  0  0  0  0  0  0  0  0  6  0  0
   -0.0979    1.0543    1.2097 C   0  0  0  0  0  3  0  0  0  7  0  0
   -0.8967   -0.4783    1.1701 S   0  0  0  0  0  0  0  0  0  8  0  0
   -1.4462   -0.5706   -0.5524 C   0  0  0  0  0  0  0  0  0  9  0  0
   -2.5896    0.3669   -0.9021 C   0  0  0  0  0  0  0  0  0 10  0  0
    0.1502    1.3606    2.2218 H   0  0  0  0  0  0  0  0  0 11  0  0
   -0.5321    1.8479    0.6078 H   0  0  0  0  0  0  0  0  0 12  0  0
   -1.7453   -1.6114   -0.6808 H   0  0  0  0  0  0  0  0  0 13  0  0
   -0.5730   -0.4036   -1.1857 H   0  0  0  0  0  0  0  0  0 14  0  0
   -2.3062    1.4129   -0.7776 H   0  0  0  0  0  0  0  0  0 15  0  0
   -2.8743    0.2271   -1.9468 H   0  0  0  0  0  0  0  0  0 16  0  0
   -3.4633    0.1756   -0.2785 H   0  0  0  0  0  0  0  0  0 17  0  0
  1  5  1  0
  1  2  1  0
  1  4  1  0
  1  6  1  0
  2  3  1  0
  7  8  1  0
  7 12  1  0
  7 11  1  0
  8  9  1  0
  9 10  1  0
  9 14  1  0
  9 13  1  0
 10 16  1  0
 10 17  1  0
 10 15  1  0
M  RAD  1   7   2
M  END
>  <rmg_smiles>  (3) 
[CH2]SCC.C[N][O]

>  <rmg_adjacency_list>  (3) 
multiplicity 2
1  S u0 p2 c0 {4,S} {7,S}
2  O u0 p2 c0 {3,S}
3  N u0 p1 c0 {2,S} {6,S}
4  C u0 p0 c0 {1,S} {5,S} {8,S} {9,S}
5  C u0 p0 c0 {4,S} {10,S} {11,S} {12,S}
6  C u0 p0 c0 {3,S} {13,S} {14,S} {15,S}
7  C u1 p0 c0 {1,S} {16,S} {17,S}
8  H u0 p0 c0 {4,S}
9  H u0 p0 c0 {4,S}
10 H u0 p0 c0 {5,S}
11 H u0 p0 c0 {5,S}
12 H u0 p0 c0 {5,S}
13 H u0 p0 c0 {6,S}
14 H u0 p0 c0 {6,S}
15 H u0 p0 c0 {6,S}
16 H u0 p0 c0 {7,S}
17 H u0 p0 c0 {7,S}


>  <multiplicity>  (3) 
2

>  <reaction>  (3) 
rmg_rxn_618

>  <type>  (3) 
ts

>  <role_mapnums>  (3) 
{"*2": 4, "*1": 1, "*3": 7, "*0": 2, "*4": 8}

>  <role_mapidx>  (3) 
{"*2": 3, "*1": 0, "*3": 6, "*0": 1, "*4": 7}

>  <ordered_mapped_smiles>  (3) 
[C:1]([NH:2][OH:3])([H:4])([H:5])[H:6].[C:7]([S:8][C:9]([C:10]([H:15])([H:16])[H:17])([H:13])[H:14])([H:11])[H:12]

>  <mol_properties>  (3) 
{"0": {"label": "*1", "atom_type": "Cs"}, "1": {"label": "*0", "atom_type": "N3s"}, "3": {"label": "*2", "atom_type": "H0"}, "6": {"label": "*3", "atom_type": "Cs"}, "7": {"label": "*4", "atom_type": "S2s"}}

>  <level_of_theory>  (3) 
wb97xd/def2tzvp

>  <lot_method>  (3) 
wb97xd

>  <lot_basis>  (3) 
def2tzvp

>  <spin_multiplicity>  (3) 
2.0

>  <optical_isomers>  (3) 
2.0

>  <modes>  (3) 
IdealGasTranslation(mass=(120.048, 'amu')),         NonlinearRotor(             inertia = ([179.453, 432.525, 508.062

>  <frequency_value>  (3) 
-1518.98

>  <frequency_units>  (3) 
cm^-1

>  <frequency_list>  (3) 
unknown

>  <arkane_path>  (3) 
/home/calvin/Dropbox/PersonalFolders/Calvin/ATLAS_Converged/rmg_rxn_618/output/rxns/TS0/arkane/output.py

>  <path_exists>  (3) 
True

>  <E0_value>  (3) 
-1802010.0

>  <E0_units>  (3) 
kJ/mol

>  <thermo_class>  (3) 
unknown

>  <Cp0_value>  (3) 
unknown

>  <Cp0_units>  (3) 
unknown

>  <CpInf_value>  (3) 
unknown

>  <CpInf_units>  (3) 
unknown

>  <Tmin_value>  (3) 
unknown

>  <Tmin_units>  (3) 
unknown

>  <Tmax_value>  (3) 
unknown

>  <Tmax_units>  (3) 
unknown

>  <polynomials>  (3) 
unknown

>  <H298_value>  (3) 
unknown

>  <H298_units>  (3) 
unknown

>  <S298_value>  (3) 
unknown

>  <S298_units>  (3) 
unknown

>  <Cp_T_value_list>  (3) 
unknown

>  <Cp_T_units>  (3) 
unknown

>  <T_list>  (3) 
unknown

>  <T_units>  (3) 
unknown

>  <yaml_path>  (3) 
unknown

>  <frequencies_cm1>  (3) 
unknown

>  <ZPE_kJmol>  (3) 
unknown

>  <E_elec_kJmol>  (3) 
unknown

>  <E0_minus_Eelec_plus_ZPE_kJmol>  (3) 
unknown

>  <rxn>  (3) 
unknown

>  <species_type>  (3) 
unknown

>  <species_folder>  (3) 
unknown

>  <frequencies_cm1_list>  (3) 
[]

>  <ts_imag_freq_cm1>  (3) 
-1537.4294

>  <ts_freq_out_path>  (3) 
/home/calvin/Dropbox/PersonalFolders/Calvin/ATLAS_Converged/rmg_rxn_618/output/rxns/TS0/geometry/freq.out

>  <E0_kJmol>  (3) 
-1.80201e+06

>  <H298_kJmol>  (3) 
unknown

$$$$

     RDKit          3D

  5  4  0  0  0  0  0  0  0  0999 V2000
   -0.4986    0.0189   -0.0212 C   0  0  0  0  0  0  0  0  0  1  0  0
    0.6799   -0.4410    0.1054 N   0  0  0  0  0  0  0  0  0  2  0  0
    1.7950    0.0236    0.0595 O   0  0  0  0  0  1  0  0  0  3  0  0
   -1.3180   -0.6753    0.0776 H   0  0  0  0  0  0  0  0  0  4  0  0
   -0.6584    1.0737   -0.2213 H   0  0  0  0  0  0  0  0  0  5  0  0
  1  5  1  0
  1  4  1  0
  1  2  1  0
  2  3  1  0
M  RAD  1   3   2
M  END
>  <rmg_smiles>  (4) 
[CH2][N][O]

>  <rmg_adjacency_list>  (4) 
multiplicity 2
1 O u1 p2 c0 {2,S}
2 N u0 p1 c0 {1,S} {3,S}
3 C u0 p0 c0 {2,S} {4,S} {5,S}
4 H u0 p0 c0 {3,S}
5 H u0 p0 c0 {3,S}


>  <multiplicity>  (4) 
2

>  <reaction>  (4) 
rmg_rxn_618

>  <type>  (4) 
r1

>  <role_mapnums>  (4) 
{}

>  <role_mapidx>  (4) 
{}

>  <ordered_mapped_smiles>  (4) 
[CH:1]([NH:2][O:3])([H:4])[H:5]

>  <level_of_theory>  (4) 
wb97xd/def2tzvp

>  <lot_method>  (4) 
wb97xd

>  <lot_basis>  (4) 
def2tzvp

>  <spin_multiplicity>  (4) 
2.0

>  <optical_isomers>  (4) 
1.0

>  <modes>  (4) 
IdealGasTranslation(mass=(44.0136, 'amu')),         NonlinearRotor(             inertia = ([3.87779, 42.4322, 46.31

>  <frequency_value>  (4) 
unknown

>  <frequency_units>  (4) 
unknown

>  <frequency_list>  (4) 
unknown

>  <arkane_path>  (4) 
/home/calvin/Dropbox/PersonalFolders/Calvin/ATLAS_Converged/rmg_rxn_618/output/Species/rmg_rxn_618_p1_sbr-CH2-sbrN=O/arkane/output.py

>  <path_exists>  (4) 
True

>  <E0_value>  (4) 
-444125.8698569815

>  <E0_units>  (4) 
kJ/mol

>  <thermo_class>  (4) 
NASA

>  <Cp0_value>  (4) 
33.257888

>  <Cp0_units>  (4) 
J/(mol*K)

>  <CpInf_value>  (4) 
108.088136

>  <CpInf_units>  (4) 
J/(mol*K)

>  <Tmin_value>  (4) 
10.0

>  <Tmin_units>  (4) 
K

>  <Tmax_value>  (4) 
3000.0

>  <Tmax_units>  (4) 
K

>  <polynomials>  (4) 
[{"name": "polynomial1", "class": "NASAPolynomial", "Tmin_value": 10.0, "Tmin_units": "K", "Tmax_value": 562.3844127225133, "Tmax_units": "K", "coeffs": [4.053937176279305, -0.0047398271406768585, 5.7437859425445556e-05, -9.385630136446055e-08, 5.059118934882412e-11, -53416003.88498011, 6.9306587758022244]}, {"name": "polynomial2", "class": "NASAPolynomial", "Tmin_value": 562.3844127225133, "Tmin_units": "K", "Tmax_value": 3000.0, "Tmax_units": "K", "coeffs": [2.1822483082936537, 0.014293062944345295, -8.584392971883197e-06, 2.4949936009645337e-09, -2.805584349724308e-13, -53415883.824056074, 14.078927000603649]}]

>  <H298_value>  (4) 
-106145.96131022584

>  <H298_units>  (4) 
kcal/mol

>  <S298_value>  (4) 
60.48266213431546

>  <S298_units>  (4) 
cal/(mol*K)

>  <Cp_T_value_list>  (4) 
[11.281500234397477, 13.187887263233034, 14.851189314724579, 16.235999449361433, 18.451624012184585, 20.08142406383569, 22.469810630137335, 23.65136644158371, 24.287701175564127]

>  <Cp_T_units>  (4) 
cal/(mol*K)

>  <T_list>  (4) 
[300.0, 400.0, 500.0, 600.0, 800.0, 1000.0, 1500.0, 2000.0, 2400.0]

>  <T_units>  (4) 
K

>  <yaml_path>  (4) 
/home/calvin/Dropbox/PersonalFolders/Calvin/ATLAS_Converged/rmg_rxn_618/output/Species/rmg_rxn_618_p1_sbr-CH2-sbrN=O/rmg_rxn_618_p1_sbr-CH2-sbrN=O.yml

>  <frequencies_cm1>  (4) 
[458.37813709531997, 701.3458116875601, 834.5447259396, 1127.25684218992, 1261.9046903444798, 1486.4825782497596, 1744.7430291496398, 3101.34344705692, 3245.26172539348]

>  <ZPE_kJmol>  (4) 
83.50690918001081

>  <E_elec_kJmol>  (4) 
-444209.3767661615

>  <E0_minus_Eelec_plus_ZPE_kJmol>  (4) 
0.0

>  <rxn>  (4) 
rmg_rxn_618

>  <species_type>  (4) 
p0

>  <species_folder>  (4) 
rmg_rxn_618_p1_sbr-CH2-sbrN=O

>  <frequencies_cm1_list>  (4) 
[458.37813709531997, 701.3458116875601, 834.5447259396, 1127.25684218992, 1261.9046903444798, 1486.4825782497596, 1744.7430291496398, 3101.34344705692, 3245.26172539348]

>  <E0_kJmol>  (4) 
-444126

>  <H298_kJmol>  (4) 
-444115

$$$$

     RDKit          3D

 11 10  0  0  0  0  0  0  0  0999 V2000
    2.2312    0.7411   -0.3115 C   0  0  0  0  0  3  0  0  0  1  0  0
    0.6426    1.1039   -0.7896 S   0  0  0  0  0  0  0  0  0  2  0  0
    0.9085    2.4168   -2.0061 C   0  0  0  0  0  0  0  0  0  3  0  0
    1.5570    1.9429   -3.2967 C   0  0  0  0  0  0  0  0  0  4  0  0
    2.3707   -0.0938    0.3575 H   0  0  0  0  0  0  0  0  0  5  0  0
    3.0432    1.4267   -0.5066 H   0  0  0  0  0  0  0  0  0  6  0  0
    1.4997    3.2005   -1.5289 H   0  0  0  0  0  0  0  0  0  7  0  0
   -0.0844    2.8269   -2.1951 H   0  0  0  0  0  0  0  0  0  8  0  0
    0.9451    1.1830   -3.7838 H   0  0  0  0  0  0  0  0  0  9  0  0
    1.6803    2.7812   -3.9857 H   0  0  0  0  0  0  0  0  0 10  0  0
    2.5399    1.5119   -3.1043 H   0  0  0  0  0  0  0  0  0 11  0  0
  1  5  1  0
  1  2  1  0
  1  6  1  0
  2  3  1  0
  3  4  1  0
  3  7  1  0
  3  8  1  0
  4  9  1  0
  4 10  1  0
  4 11  1  0
M  RAD  1   1   2
M  END
>  <rmg_smiles>  (5) 
[CH2]SCC

>  <rmg_adjacency_list>  (5) 
multiplicity 2
1  S u0 p2 c0 {2,S} {4,S}
2  C u0 p0 c0 {1,S} {3,S} {5,S} {6,S}
3  C u0 p0 c0 {2,S} {7,S} {8,S} {9,S}
4  C u1 p0 c0 {1,S} {10,S} {11,S}
5  H u0 p0 c0 {2,S}
6  H u0 p0 c0 {2,S}
7  H u0 p0 c0 {3,S}
8  H u0 p0 c0 {3,S}
9  H u0 p0 c0 {3,S}
10 H u0 p0 c0 {4,S}
11 H u0 p0 c0 {4,S}


>  <multiplicity>  (5) 
2

>  <reaction>  (5) 
rmg_rxn_618

>  <type>  (5) 
r2

>  <role_mapnums>  (5) 
{}

>  <role_mapidx>  (5) 
{}

>  <ordered_mapped_smiles>  (5) 
[C:1]([S:2][C:3]([C:4]([H:9])([H:10])[H:11])([H:7])[H:8])([H:5])[H:6]

>  <level_of_theory>  (5) 
wb97xd/def2tzvp

>  <lot_method>  (5) 
wb97xd

>  <lot_basis>  (5) 
def2tzvp

>  <spin_multiplicity>  (5) 
2.0

>  <optical_isomers>  (5) 
2.0

>  <modes>  (5) 
IdealGasTranslation(mass=(75.0268, 'amu')),         NonlinearRotor(             inertia = ([46.1764, 125.175, 150.124

>  <frequency_value>  (5) 
unknown

>  <frequency_units>  (5) 
unknown

>  <frequency_list>  (5) 
unknown

>  <arkane_path>  (5) 
/home/calvin/Dropbox/PersonalFolders/Calvin/ATLAS_Converged/rmg_rxn_618/output/Species/rmg_rxn_618_r2_sbr-CH2-sbrSCC/arkane/output.py

>  <path_exists>  (5) 
True

>  <E0_value>  (5) 
-1356326.828812391

>  <E0_units>  (5) 
kJ/mol

>  <thermo_class>  (5) 
NASA

>  <Cp0_value>  (5) 
33.257888

>  <Cp0_units>  (5) 
J/(mol*K)

>  <CpInf_value>  (5) 
257.748632

>  <CpInf_units>  (5) 
J/(mol*K)

>  <Tmin_value>  (5) 
10.0

>  <Tmin_units>  (5) 
K

>  <Tmax_value>  (5) 
3000.0

>  <Tmax_units>  (5) 
K

>  <polynomials>  (5) 
[{"name": "polynomial1", "class": "NASAPolynomial", "Tmin_value": 10.0, "Tmin_units": "K", "Tmax_value": 163.4983384736605, "Tmax_units": "K", "coeffs": [3.8835361135606306, 0.01179835617528283, 0.0001860962387176214, -8.310788830243038e-07, 1.2781022117046402e-09, -163128450.95392784, 10.667754233192833]}, {"name": "polynomial2", "class": "NASAPolynomial", "Tmin_value": 163.4983384736605, "Tmin_units": "K", "Tmax_value": 3000.0, "Tmax_units": "K", "coeffs": [2.9698107402056713, 0.03415257681811664, -1.8989116425627386e-05, 5.154010868808518e-09, -5.461082436872671e-13, -163128421.07521912, 13.421243662452813]}]

>  <H298_value>  (5) 
-324165.39986954443

>  <H298_units>  (5) 
kcal/mol

>  <S298_value>  (5) 
78.93032022623957

>  <S298_units>  (5) 
cal/(mol*K)

>  <Cp_T_value_list>  (5) 
[23.133663311616047, 27.638980468817827, 31.614348268428742, 35.109498731473295, 40.84505297373627, 45.19140833090281, 51.87260315815638, 55.269883733256364, 57.01130488605395]

>  <Cp_T_units>  (5) 
cal/(mol*K)

>  <T_list>  (5) 
[300.0, 400.0, 500.0, 600.0, 800.0, 1000.0, 1500.0, 2000.0, 2400.0]

>  <T_units>  (5) 
K

>  <yaml_path>  (5) 
/home/calvin/Dropbox/PersonalFolders/Calvin/ATLAS_Converged/rmg_rxn_618/output/Species/rmg_rxn_618_r2_sbr-CH2-sbrSCC/rmg_rxn_618_r2_sbr-CH2-sbrSCC.yml

>  <frequencies_cm1>  (5) 
[110.60653254923999, 205.67307731931996, 220.086879506, 285.94813571012, 367.82320168047994, 369.88329727648, 670.6023184099199, 763.8628460408399, 854.34224461716, 913.1854418242399, 983.7231150312799, 1058.73119568164, 1076.4068158953198, 1269.6918516973599, 1295.3263078969198, 1396.0581155559998, 1402.33454013848, 1458.69188865972, 1476.6353213008802, 1485.0748462591598, 3018.4589342445192, 3035.15257555744, 3083.1459359589203, 3092.3408293024, 3109.00013568872, 3136.8045592493995, 3260.19741846448]

>  <ZPE_kJmol>  (5) 
235.6631361203891

>  <E_elec_kJmol>  (5) 
-1356562.4919485117

>  <E0_minus_Eelec_plus_ZPE_kJmol>  (5) 
0.0

>  <rxn>  (5) 
rmg_rxn_618

>  <species_type>  (5) 
r1

>  <species_folder>  (5) 
rmg_rxn_618_r2_sbr-CH2-sbrSCC

>  <frequencies_cm1_list>  (5) 
[110.60653254923999, 205.67307731931996, 220.086879506, 285.94813571012, 367.82320168047994, 369.88329727648, 670.6023184099199, 763.8628460408399, 854.34224461716, 913.1854418242399, 983.7231150312799, 1058.73119568164, 1076.4068158953198, 1269.6918516973599, 1295.3263078969198, 1396.0581155559998, 1402.33454013848, 1458.69188865972, 1476.6353213008802, 1485.0748462591598, 3018.4589342445192, 3035.15257555744, 3083.1459359589203, 3092.3408293024, 3109.00013568872, 3136.8045592493995, 3260.19741846448]

>  <E0_kJmol>  (5) 
-1.35633e+06

>  <H298_kJmol>  (5) 
-1.35631e+06

$$$$
