
     RDKit          3D

 11 10  0  0  0  0  0  0  0  0999 V2000
    0.2342   -0.6057   -2.3323 C   0  0  0  0  0  0  0  0  0  1  0  0
    0.0916   -0.5115   -0.8476 C   0  0  0  0  0  0  0  0  0  2  0  0
    0.0028    0.6433   -0.2081 C   0  0  0  0  0  0  0  0  0  3  0  0
   -0.1213    0.8390    1.1419 O   0  0  0  0  0  0  0  0  0  4  0  0
   -0.2371   -0.3277    1.8474 O   0  0  0  0  0  0  0  0  0  5  0  0
    1.1496   -1.1375   -2.6033 H   0  0  0  0  0  0  0  0  0  6  0  0
   -0.5987   -1.1618   -2.7693 H   0  0  0  0  0  0  0  0  0  7  0  0
    0.2641    0.3797   -2.7998 H   0  0  0  0  0  0  0  0  0  8  0  0
    0.0474   -1.4299   -0.2770 H   0  0  0  0  0  0  0  0  0  9  0  0
    0.0290    1.6120   -0.6933 H   0  0  0  0  0  0  0  0  0 10  0  0
    0.6538   -0.6510    1.9999 H   0  0  0  0  0  0  0  0  0 11  0  0
  1  8  1  0
  1  7  1  0
  1  6  1  0
  1  2  1  0
  2  9  1  0
  2  3  1  0
  3  4  1  0
  3 10  1  0
  4  5  1  0
  5 11  1  0
M  END
>  <rmg_smiles>  (1) 
C[CH][CH]OO

>  <rmg_adjacency_list>  (1) 
1  O u0 p2 c0 {2,S} {5,S}
2  O u0 p2 c0 {1,S} {11,S}
3  C u0 p0 c0 {4,S} {6,S} {7,S} {8,S}
4  C u0 p0 c0 {3,S} {5,S} {9,S}
5  C u0 p0 c0 {1,S} {4,S} {10,S}
6  H u0 p0 c0 {3,S}
7  H u0 p0 c0 {3,S}
8  H u0 p0 c0 {3,S}
9  H u0 p0 c0 {4,S}
10 H u0 p0 c0 {5,S}
11 H u0 p0 c0 {2,S}


>  <multiplicity>  (1) 
1

>  <reaction>  (1) 
rmg_rxn_16751

>  <type>  (1) 
r1h

>  <role_mapnums>  (1) 
{"r1h_a": 5, "r1h_h": 11}

>  <role_mapidx>  (1) 
{"r1h_a": 4, "r1h_h": 10}

>  <ordered_mapped_smiles>  (1) 
[C:1]([CH:2]([CH:3]([O:4][O:5][H:11])[H:10])[H:9])([H:6])([H:7])[H:8]

>  <mol_properties>  (1) 
{"4": {"label": "donator", "atom_type": "O2s"}, "10": {"label": "d_hydrogen", "atom_type": "H0"}}

>  <level_of_theory>  (1) 
wb97xd/def2tzvp

>  <lot_method>  (1) 
wb97xd

>  <lot_basis>  (1) 
def2tzvp

>  <spin_multiplicity>  (1) 
1.0

>  <optical_isomers>  (1) 
2.0

>  <modes>  (1) 
IdealGasTranslation(mass=(74.0368, 'amu')),         NonlinearRotor(             inertia = ([30.5945, 187.799, 213.694

>  <frequency_value>  (1) 
unknown

>  <frequency_units>  (1) 
unknown

>  <frequency_list>  (1) 
unknown

>  <arkane_path>  (1) 
/home/calvin/Dropbox/PersonalFolders/Calvin/ZEUS_Converged/rmg_rxn_16751/output/Species/rmg_rxn_16751_r2_CC=COO/arkane/output.py

>  <path_exists>  (1) 
True

>  <E0_value>  (1) 
-704131.5752938386

>  <E0_units>  (1) 
kJ/mol

>  <thermo_class>  (1) 
NASA

>  <Cp0_value>  (1) 
33.257888

>  <Cp0_units>  (1) 
J/(mol*K)

>  <CpInf_value>  (1) 
257.748632

>  <CpInf_units>  (1) 
J/(mol*K)

>  <Tmin_value>  (1) 
10.0

>  <Tmin_units>  (1) 
K

>  <Tmax_value>  (1) 
3000.0

>  <Tmax_units>  (1) 
K

>  <polynomials>  (1) 
[{"name": "polynomial1", "class": "NASAPolynomial", "Tmin_value": 10.0, "Tmin_units": "K", "Tmax_value": 750.1417362527471, "Tmax_units": "K", "coeffs": [3.6818974315147455, 0.026458476926090657, 7.4565760548245125e-06, -2.8134635217814823e-08, 1.3753848649313953e-11, -84687462.90022717, 10.337322085217703]}, {"name": "polynomial2", "class": "NASAPolynomial", "Tmin_value": 750.1417362527471, "Tmin_units": "K", "Tmax_value": 3000.0, "Tmax_units": "K", "coeffs": [3.140015060826594, 0.03467665267663805, -1.963202120085646e-05, 5.409202138465521e-09, -5.81266003306408e-13, -84687531.52835645, 11.79648705316321]}]

>  <H298_value>  (1) 
-168286.92853304607

>  <H298_units>  (1) 
kcal/mol

>  <S298_value>  (1) 
78.11328013427261

>  <S298_units>  (1) 
cal/(mol*K)

>  <Cp_T_value_list>  (1) 
[23.135660957780026, 27.8404098369485, 32.02992563068473, 35.66393512339761, 41.42981484299387, 45.7307538891239, 52.25626664130418, 55.51976092126689, 57.18254028819171]

>  <Cp_T_units>  (1) 
cal/(mol*K)

>  <T_list>  (1) 
[300.0, 400.0, 500.0, 600.0, 800.0, 1000.0, 1500.0, 2000.0, 2400.0]

>  <T_units>  (1) 
K

>  <yaml_path>  (1) 
/home/calvin/Dropbox/PersonalFolders/Calvin/ZEUS_Converged/rmg_rxn_16751/output/Species/rmg_rxn_16751_r2_CC=COO/rmg_rxn_16751_r2_CC=COO.yml

>  <frequencies_cm1>  (1) 
[152.93463006172001, 170.17763020023997, 205.04131466987997, 243.71617599212001, 326.86850123199997, 382.4155454854799, 686.7053989853199, 820.3850022097599, 909.6695453404, 952.2105193978, 973.53937580172, 1060.8393601748799, 1122.28514481824, 1156.69560825676, 1311.0585712650397, 1328.4938469925198, 1402.3208061678397, 1411.55690142324, 1466.7262614841197, 1486.0842931012, 1750.05807578732, 3005.8236812557197, 3062.42137426316, 3086.3871530299593, 3162.3978135370403, 3182.30520397972, 3766.69252169704]

>  <ZPE_kJmol>  (1) 
230.7944644621705

>  <E_elec_kJmol>  (1) 
-704362.3697583008

>  <E0_minus_Eelec_plus_ZPE_kJmol>  (1) 
0.0

>  <rxn>  (1) 
rmg_rxn_16751

>  <species_type>  (1) 
r1

>  <species_folder>  (1) 
rmg_rxn_16751_r2_CC=COO

>  <frequencies_cm1_list>  (1) 
[152.93463006172001, 170.17763020023997, 205.04131466987997, 243.71617599212001, 326.86850123199997, 382.4155454854799, 686.7053989853199, 820.3850022097599, 909.6695453404, 952.2105193978, 973.53937580172, 1060.8393601748799, 1122.28514481824, 1156.69560825676, 1311.0585712650397, 1328.4938469925198, 1402.3208061678397, 1411.55690142324, 1466.7262614841197, 1486.0842931012, 1750.05807578732, 3005.8236812557197, 3062.42137426316, 3086.3871530299593, 3162.3978135370403, 3182.30520397972, 3766.69252169704]

>  <E0_kJmol>  (1) 
-704132

>  <H298_kJmol>  (1) 
-704113

$$$$

     RDKit          3D

  8  7  0  0  0  0  0  0  0  0999 V2000
    1.1997    0.4295    0.0240 C   0  0  0  0  0  0  0  0  0  1  0  0
   -0.2885    0.2975   -0.1008 C   0  0  0  0  0  0  0  0  0  2  0  0
   -0.9064   -0.7686    0.0871 N   0  0  0  0  0  0  0  0  0  3  0  0
    1.6153    0.7729   -0.9252 H   0  0  0  0  0  0  0  0  0  4  0  0
    1.6517   -0.5206    0.2997 H   0  0  0  0  0  0  0  0  0  5  0  0
    1.4365    1.1821    0.7784 H   0  0  0  0  0  0  0  0  0  6  0  0
   -0.8505    1.2049   -0.3763 H   0  0  0  0  0  0  0  0  0  7  0  0
   -1.9294   -0.6396   -0.0490 H   0  0  0  0  0  0  0  0  0  8  0  0
  1  5  1  0
  1  4  1  0
  1  6  1  0
  1  2  1  0
  2  3  1  0
  2  7  1  0
  3  8  1  0
M  END
>  <rmg_smiles>  (2) 
C[CH][NH]

>  <rmg_adjacency_list>  (2) 
1 N u0 p1 c0 {3,S} {8,S}
2 C u0 p0 c0 {3,S} {4,S} {5,S} {6,S}
3 C u0 p0 c0 {1,S} {2,S} {7,S}
4 H u0 p0 c0 {2,S}
5 H u0 p0 c0 {2,S}
6 H u0 p0 c0 {2,S}
7 H u0 p0 c0 {3,S}
8 H u0 p0 c0 {1,S}


>  <multiplicity>  (2) 
1

>  <reaction>  (2) 
rmg_rxn_16751

>  <type>  (2) 
r2h

>  <role_mapnums>  (2) 
{"r2h_a": 3, "r2h_h": 8}

>  <role_mapidx>  (2) 
{"r2h_a": 2, "r2h_h": 7}

>  <ordered_mapped_smiles>  (2) 
[C:1]([CH:2]([NH:3][H:8])[H:7])([H:4])([H:5])[H:6]

>  <mol_properties>  (2) 
{"2": {"label": "acceptor", "atom_type": "N3s"}, "7": {"label": "a_hydrogen", "atom_type": "H0"}}

>  <level_of_theory>  (2) 
wb97xd/def2tzvp

>  <lot_method>  (2) 
wb97xd

>  <lot_basis>  (2) 
def2tzvp

>  <spin_multiplicity>  (2) 
1.0

>  <optical_isomers>  (2) 
1.0

>  <modes>  (2) 
IdealGasTranslation(mass=(43.0422, 'amu')),         NonlinearRotor(             inertia = ([9.32783, 51.3348, 57.5532

>  <frequency_value>  (2) 
unknown

>  <frequency_units>  (2) 
unknown

>  <frequency_list>  (2) 
unknown

>  <arkane_path>  (2) 
/home/calvin/Dropbox/PersonalFolders/Calvin/ZEUS_Converged/rmg_rxn_16751/output/Species/rmg_rxn_16751_p1_CC=N/arkane/output.py

>  <path_exists>  (2) 
True

>  <E0_value>  (2) 
-351535.20335661684

>  <E0_units>  (2) 
kJ/mol

>  <thermo_class>  (2) 
NASA

>  <Cp0_value>  (2) 
33.257888

>  <Cp0_units>  (2) 
J/(mol*K)

>  <CpInf_value>  (2) 
182.918384

>  <CpInf_units>  (2) 
J/(mol*K)

>  <Tmin_value>  (2) 
10.0

>  <Tmin_units>  (2) 
K

>  <Tmax_value>  (2) 
3000.0

>  <Tmax_units>  (2) 
K

>  <polynomials>  (2) 
[{"name": "polynomial1", "class": "NASAPolynomial", "Tmin_value": 10.0, "Tmin_units": "K", "Tmax_value": 834.0183041901832, "Tmax_units": "K", "coeffs": [4.020859284868709, 0.0012406595733239277, 4.4482903010182226e-05, -5.482114439751344e-08, 2.0739201558559772e-11, -42279921.71645892, 6.726586383468645]}, {"name": "polynomial2", "class": "NASAPolynomial", "Tmin_value": 834.0183041901832, "Tmin_units": "K", "Tmax_value": 3000.0, "Tmax_units": "K", "coeffs": [0.8146767610859666, 0.025012560508124084, -1.3369721411120483e-05, 3.4917002293006827e-09, -3.579375529269218e-13, -42279678.881200545, 19.862274208798944]}]

>  <H298_value>  (2) 
-84015.86036687854

>  <H298_units>  (2) 
kcal/mol

>  <S298_value>  (2) 
62.66843297179497

>  <S298_units>  (2) 
cal/(mol*K)

>  <Cp_T_value_list>  (2) 
[14.078036689508782, 17.202765604471058, 20.2803800489589, 23.1023356383003, 27.639649626797436, 30.983090061901617, 36.21499785066487, 38.88468928045463, 40.19916387517873]

>  <Cp_T_units>  (2) 
cal/(mol*K)

>  <T_list>  (2) 
[300.0, 400.0, 500.0, 600.0, 800.0, 1000.0, 1500.0, 2000.0, 2400.0]

>  <T_units>  (2) 
K

>  <yaml_path>  (2) 
/home/calvin/Dropbox/PersonalFolders/Calvin/ZEUS_Converged/rmg_rxn_16751/output/Species/rmg_rxn_16751_p1_CC=N/rmg_rxn_16751_p1_CC=N.yml

>  <frequencies_cm1>  (2) 
[185.42920459596, 489.9250676554, 680.6761858743599, 921.32968641376, 1055.89513074448, 1069.62910138448, 1130.4431233784, 1267.5150173509198, 1378.7876474762, 1425.071128533, 1456.56312321052, 1463.3683056626398, 1737.36788691596, 2989.2124437666403, 3014.6889593038395, 3075.43431144456, 3123.3452680222, 3455.8927661138396]

>  <ZPE_kJmol>  (2) 
178.96482902382195

>  <E_elec_kJmol>  (2) 
-351714.16818564065

>  <E0_minus_Eelec_plus_ZPE_kJmol>  (2) 
0.0

>  <rxn>  (2) 
rmg_rxn_16751

>  <species_type>  (2) 
p0

>  <species_folder>  (2) 
rmg_rxn_16751_p1_CC=N

>  <frequencies_cm1_list>  (2) 
[185.42920459596, 489.9250676554, 680.6761858743599, 921.32968641376, 1055.89513074448, 1069.62910138448, 1130.4431233784, 1267.5150173509198, 1378.7876474762, 1425.071128533, 1456.56312321052, 1463.3683056626398, 1737.36788691596, 2989.2124437666403, 3014.6889593038395, 3075.43431144456, 3123.3452680222, 3455.8927661138396]

>  <E0_kJmol>  (2) 
-351535

>  <H298_kJmol>  (2) 
-351522

$$$$

     RDKit          3D

 18 16  0  0  0  0  0  0  0  0999 V2000
    3.0571    0.3837    1.3757 C   0  0  0  0  0  0  0  0  0  1  0  0
    1.5689    0.2517    1.2508 C   0  0  0  0  0  0  0  0  0  2  0  0
    0.9510   -0.8144    1.4388 N   0  0  0  0  0  2  0  0  0  3  0  0
    3.4727    0.7270    0.4264 H   0  0  0  0  0  0  0  0  0  4  0  0
    3.5091   -0.5665    1.6514 H   0  0  0  0  0  0  0  0  0  5  0  0
    3.2939    1.1363    2.1301 H   0  0  0  0  0  0  0  0  0  6  0  0
    1.0069    1.1590    0.9754 H   0  0  0  0  0  0  0  0  0  7  0  0
   -0.9013   -0.5336   -3.0929 C   0  0  0  0  0  0  0  0  0  8  0  0
   -1.0439   -0.4394   -1.6082 C   0  0  0  0  0  0  0  0  0  9  0  0
   -1.1327    0.7154   -0.9687 C   0  0  0  0  0  0  0  0  0 10  0  0
   -1.2568    0.9111    0.3813 O   0  0  0  0  0  0  0  0  0 11  0  0
   -1.3726   -0.2556    1.0868 O   0  0  0  0  0  0  0  0  0 12  0  0
    0.0141   -1.0655   -3.3640 H   0  0  0  0  0  0  0  0  0 13  0  0
   -1.7341   -1.0898   -3.5300 H   0  0  0  0  0  0  0  0  0 14  0  0
   -0.8714    0.4517   -3.5604 H   0  0  0  0  0  0  0  0  0 15  0  0
   -1.0880   -1.3578   -1.0376 H   0  0  0  0  0  0  0  0  0 16  0  0
   -1.1065    1.6841   -1.4539 H   0  0  0  0  0  0  0  0  0 17  0  0
   -0.2502   -0.6630    1.2789 H   0  0  0  0  0  0  0  0  0 18  0  0
  1  5  1  0
  1  4  1  0
  1  6  1  0
  1  2  1  0
  2  3  1  0
  2  7  1  0
  8  9  1  0
  8 14  1  0
  8 13  1  0
  8 15  1  0
  9 10  1  0
  9 16  1  0
 10 11  1  0
 10 17  1  0
 11 12  1  0
 12 18  1  0
M  RAD  1   3   2
M  END
>  <rmg_smiles>  (3) 
C[CH][CH]OO.C[CH][N]

>  <rmg_adjacency_list>  (3) 
multiplicity 2
1  O u0 p2 c0 {2,S} {7,S}
2  O u0 p2 c0 {1,S} {18,S}
3  N u1 p2 c0 {8,S}
4  C u0 p0 c0 {6,S} {12,S} {13,S} {14,S}
5  C u0 p0 c0 {8,S} {9,S} {10,S} {11,S}
6  C u0 p0 c0 {4,S} {7,S} {15,S}
7  C u0 p0 c0 {1,S} {6,S} {17,S}
8  C u0 p0 c0 {3,S} {5,S} {16,S}
9  H u0 p0 c0 {5,S}
10 H u0 p0 c0 {5,S}
11 H u0 p0 c0 {5,S}
12 H u0 p0 c0 {4,S}
13 H u0 p0 c0 {4,S}
14 H u0 p0 c0 {4,S}
15 H u0 p0 c0 {6,S}
16 H u0 p0 c0 {8,S}
17 H u0 p0 c0 {7,S}
18 H u0 p0 c0 {2,S}


>  <multiplicity>  (3) 
2

>  <reaction>  (3) 
rmg_rxn_16751

>  <type>  (3) 
ts

>  <role_mapnums>  (3) 
{"*2": 18, "*1": 12, "*3": 3, "*0": 11, "*4": 2}

>  <role_mapidx>  (3) 
{"*2": 17, "*1": 11, "*3": 2, "*0": 10, "*4": 1}

>  <ordered_mapped_smiles>  (3) 
[C:1]([CH:2]([NH:3])[H:7])([H:4])([H:5])[H:6].[C:8]([CH:9]([CH:10]([O:11][O:12][H:18])[H:17])[H:16])([H:13])([H:14])[H:15]

>  <mol_properties>  (3) 
{"1": {"label": "*4", "atom_type": "Cs"}, "2": {"label": "*3", "atom_type": "N1s"}, "10": {"label": "*0", "atom_type": "O2s"}, "11": {"label": "*1", "atom_type": "O2s"}, "17": {"label": "*2", "atom_type": "H0"}}

>  <level_of_theory>  (3) 
wb97xd/def2tzvp

>  <lot_method>  (3) 
wb97xd

>  <lot_basis>  (3) 
def2tzvp

>  <spin_multiplicity>  (3) 
2.0

>  <optical_isomers>  (3) 
2.0

>  <modes>  (3) 
IdealGasTranslation(mass=(116.071, 'amu')),         NonlinearRotor(             inertia = ([187.451, 497.729, 591.987

>  <frequency_value>  (3) 
-1892.91

>  <frequency_units>  (3) 
cm^-1

>  <frequency_list>  (3) 
unknown

>  <arkane_path>  (3) 
/home/calvin/Dropbox/PersonalFolders/Calvin/ZEUS_Converged/rmg_rxn_16751/output/rxns/TS0/arkane/output.py

>  <path_exists>  (3) 
True

>  <E0_value>  (3) 
-1053980.0

>  <E0_units>  (3) 
kJ/mol

>  <thermo_class>  (3) 
unknown

>  <Cp0_value>  (3) 
unknown

>  <Cp0_units>  (3) 
unknown

>  <CpInf_value>  (3) 
unknown

>  <CpInf_units>  (3) 
unknown

>  <Tmin_value>  (3) 
unknown

>  <Tmin_units>  (3) 
unknown

>  <Tmax_value>  (3) 
unknown

>  <Tmax_units>  (3) 
unknown

>  <polynomials>  (3) 
unknown

>  <H298_value>  (3) 
unknown

>  <H298_units>  (3) 
unknown

>  <S298_value>  (3) 
unknown

>  <S298_units>  (3) 
unknown

>  <Cp_T_value_list>  (3) 
unknown

>  <Cp_T_units>  (3) 
unknown

>  <T_list>  (3) 
unknown

>  <T_units>  (3) 
unknown

>  <yaml_path>  (3) 
unknown

>  <frequencies_cm1>  (3) 
unknown

>  <ZPE_kJmol>  (3) 
unknown

>  <E_elec_kJmol>  (3) 
unknown

>  <E0_minus_Eelec_plus_ZPE_kJmol>  (3) 
unknown

>  <rxn>  (3) 
unknown

>  <species_type>  (3) 
unknown

>  <species_folder>  (3) 
unknown

>  <frequencies_cm1_list>  (3) 
[]

>  <ts_imag_freq_cm1>  (3) 
-1915.8966

>  <ts_freq_out_path>  (3) 
/home/calvin/Dropbox/PersonalFolders/Calvin/ZEUS_Converged/rmg_rxn_16751/output/rxns/TS0/geometry/freq.out

>  <E0_kJmol>  (3) 
-1.05398e+06

>  <H298_kJmol>  (3) 
unknown

$$$$

     RDKit          3D

 10  9  0  0  0  0  0  0  0  0999 V2000
   -1.3858    0.4213    0.0537 C   0  0  0  0  0  0  0  0  0  1  0  0
   -0.3891   -0.6569    0.3216 C   0  0  0  0  0  0  0  0  0  2  0  0
   -0.6393   -1.9540    0.4149 C   0  0  0  0  0  0  0  0  0  3  0  0
   -1.9270   -2.4250    0.2597 O   0  0  0  0  0  0  0  0  0  4  0  0
   -2.0151   -3.7214    0.3785 O   0  0  0  0  0  1  0  0  0  5  0  0
   -1.3902    1.1444    0.8724 H   0  0  0  0  0  0  0  0  0  6  0  0
   -1.1175    0.9676   -0.8534 H   0  0  0  0  0  0  0  0  0  7  0  0
   -2.3936    0.0289   -0.0653 H   0  0  0  0  0  0  0  0  0  8  0  0
    0.6461   -0.3661    0.4554 H   0  0  0  0  0  0  0  0  0  9  0  0
    0.0824   -2.7350    0.6089 H   0  0  0  0  0  0  0  0  0 10  0  0
  1  8  1  0
  1  7  1  0
  1  6  1  0
  1  2  1  0
  2  9  1  0
  2  3  1  0
  3  4  1  0
  3 10  1  0
  4  5  1  0
M  RAD  1   5   2
M  END
>  <rmg_smiles>  (4) 
C[CH][CH]O[O]

>  <rmg_adjacency_list>  (4) 
multiplicity 2
1  O u0 p2 c0 {2,S} {5,S}
2  O u1 p2 c0 {1,S}
3  C u0 p0 c0 {4,S} {6,S} {7,S} {8,S}
4  C u0 p0 c0 {3,S} {5,S} {9,S}
5  C u0 p0 c0 {1,S} {4,S} {10,S}
6  H u0 p0 c0 {3,S}
7  H u0 p0 c0 {3,S}
8  H u0 p0 c0 {3,S}
9  H u0 p0 c0 {4,S}
10 H u0 p0 c0 {5,S}


>  <multiplicity>  (4) 
2

>  <reaction>  (4) 
rmg_rxn_16751

>  <type>  (4) 
r1

>  <role_mapnums>  (4) 
{}

>  <role_mapidx>  (4) 
{}

>  <ordered_mapped_smiles>  (4) 
[C:1]([CH:2]([CH:3]([O:4][O:5])[H:10])[H:9])([H:6])([H:7])[H:8]

>  <level_of_theory>  (4) 
wb97xd/def2tzvp

>  <lot_method>  (4) 
wb97xd

>  <lot_basis>  (4) 
def2tzvp

>  <spin_multiplicity>  (4) 
2.0

>  <optical_isomers>  (4) 
1.0

>  <modes>  (4) 
IdealGasTranslation(mass=(73.0289, 'amu')),         NonlinearRotor(             inertia = ([28.9822, 174.992, 200.865

>  <frequency_value>  (4) 
unknown

>  <frequency_units>  (4) 
unknown

>  <frequency_list>  (4) 
unknown

>  <arkane_path>  (4) 
/home/calvin/Dropbox/PersonalFolders/Calvin/ZEUS_Converged/rmg_rxn_16751/output/Species/rmg_rxn_16751_p2_CC=COsbr-O-sbr/arkane/output.py

>  <path_exists>  (4) 
True

>  <E0_value>  (4) 
-702480.4161750708

>  <E0_units>  (4) 
kJ/mol

>  <thermo_class>  (4) 
NASA

>  <Cp0_value>  (4) 
33.257888

>  <Cp0_units>  (4) 
J/(mol*K)

>  <CpInf_value>  (4) 
232.805216

>  <CpInf_units>  (4) 
J/(mol*K)

>  <Tmin_value>  (4) 
10.0

>  <Tmin_units>  (4) 
K

>  <Tmax_value>  (4) 
3000.0

>  <Tmax_units>  (4) 
K

>  <polynomials>  (4) 
[{"name": "polynomial1", "class": "NASAPolynomial", "Tmin_value": 10.0, "Tmin_units": "K", "Tmax_value": 1013.8120483970304, "Tmax_units": "K", "coeffs": [3.8417198429520796, 0.021188176622346053, 1.0371863760257155e-05, -2.3048030022641927e-08, 8.80545170223189e-12, -84488881.34216082, 10.110843919901804]}, {"name": "polynomial2", "class": "NASAPolynomial", "Tmin_value": 1013.8120483970304, "Tmin_units": "K", "Tmax_value": 3000.0, "Tmax_units": "K", "coeffs": [5.104204559894564, 0.027003321362804766, -1.4205811125598202e-05, 3.6179711234222237e-09, -3.6047667103064236e-13, -84489692.1556592, 1.2664161045145885]}]

>  <H298_value>  (4) 
-167892.6099446233

>  <H298_units>  (4) 
kcal/mol

>  <S298_value>  (4) 
76.6786246787845

>  <S298_units>  (4) 
cal/(mol*K)

>  <Cp_T_value_list>  (4) 
[21.025972067640314, 25.290847928413278, 29.208181875539815, 32.6921478478071, 38.22665063331095, 42.04766383681569, 47.75625046956822, 50.60171967024907, 51.949126602081186]

>  <Cp_T_units>  (4) 
cal/(mol*K)

>  <T_list>  (4) 
[300.0, 400.0, 500.0, 600.0, 800.0, 1000.0, 1500.0, 2000.0, 2400.0]

>  <T_units>  (4) 
K

>  <yaml_path>  (4) 
/home/calvin/Dropbox/PersonalFolders/Calvin/ZEUS_Converged/rmg_rxn_16751/output/Species/rmg_rxn_16751_p2_CC=COsbr-O-sbr/rmg_rxn_16751_p2_CC=COsbr-O-sbr.yml

>  <frequencies_cm1>  (4) 
[107.983344157, 132.16199946871998, 202.50053010148, 427.39429933147994, 454.48455641888, 654.5953756289999, 750.85677584476, 939.17011427512, 961.0826644312399, 979.0260970724, 1055.8539288325599, 1142.5152835709598, 1242.88314100808, 1265.1871093274399, 1365.8159122067198, 1410.4719177426796, 1472.7486076097598, 1472.8996812868, 1715.2287262442799, 3018.2529246849203, 3074.06778136588, 3122.1092106646, 3161.3746327243593, 3204.4993005339597]

>  <ZPE_kJmol>  (4) 
199.37665331691412

>  <E_elec_kJmol>  (4) 
-702679.7928283877

>  <E0_minus_Eelec_plus_ZPE_kJmol>  (4) 
0.0

>  <rxn>  (4) 
rmg_rxn_16751

>  <species_type>  (4) 
p1

>  <species_folder>  (4) 
rmg_rxn_16751_p2_CC=COsbr-O-sbr

>  <frequencies_cm1_list>  (4) 
[107.983344157, 132.16199946871998, 202.50053010148, 427.39429933147994, 454.48455641888, 654.5953756289999, 750.85677584476, 939.17011427512, 961.0826644312399, 979.0260970724, 1055.8539288325599, 1142.5152835709598, 1242.88314100808, 1265.1871093274399, 1365.8159122067198, 1410.4719177426796, 1472.7486076097598, 1472.8996812868, 1715.2287262442799, 3018.2529246849203, 3074.06778136588, 3122.1092106646, 3161.3746327243593, 3204.4993005339597]

>  <E0_kJmol>  (4) 
-702480

>  <H298_kJmol>  (4) 
-702463

$$$$

     RDKit          3D

  7  6  0  0  0  0  0  0  0  0999 V2000
   -0.6441   -0.1356    0.0624 C   0  0  0  0  0  0  0  0  0  1  0  0
    0.8523    0.0148   -0.0333 C   0  0  0  0  0  0  0  0  0  2  0  0
    1.6700   -0.6077    0.6603 N   0  0  0  0  0  2  0  0  0  3  0  0
   -1.0940    0.8275    0.3091 H   0  0  0  0  0  0  0  0  0  4  0  0
   -0.9104   -0.8656    0.8237 H   0  0  0  0  0  0  0  0  0  5  0  0
   -1.0427   -0.4545   -0.9022 H   0  0  0  0  0  0  0  0  0  6  0  0
    1.2362    0.7308   -0.7748 H   0  0  0  0  0  0  0  0  0  7  0  0
  1  5  1  0
  1  4  1  0
  1  6  1  0
  1  2  1  0
  2  3  1  0
  2  7  1  0
M  RAD  1   3   2
M  END
>  <rmg_smiles>  (5) 
C[CH][N]

>  <rmg_adjacency_list>  (5) 
multiplicity 2
1 N u1 p2 c0 {3,S}
2 C u0 p0 c0 {3,S} {4,S} {5,S} {6,S}
3 C u0 p0 c0 {1,S} {2,S} {7,S}
4 H u0 p0 c0 {2,S}
5 H u0 p0 c0 {2,S}
6 H u0 p0 c0 {2,S}
7 H u0 p0 c0 {3,S}


>  <multiplicity>  (5) 
2

>  <reaction>  (5) 
rmg_rxn_16751

>  <type>  (5) 
r2

>  <role_mapnums>  (5) 
{}

>  <role_mapidx>  (5) 
{}

>  <ordered_mapped_smiles>  (5) 
[C:1]([CH:2]([NH:3])[H:7])([H:4])([H:5])[H:6]

>  <level_of_theory>  (5) 
wb97xd/def2tzvp

>  <lot_method>  (5) 
wb97xd

>  <lot_basis>  (5) 
def2tzvp

>  <spin_multiplicity>  (5) 
2.0

>  <optical_isomers>  (5) 
1.0

>  <modes>  (5) 
IdealGasTranslation(mass=(42.0344, 'amu')),         NonlinearRotor(             inertia = ([8.81492, 48.174, 53.8511

>  <frequency_value>  (5) 
unknown

>  <frequency_units>  (5) 
unknown

>  <frequency_list>  (5) 
unknown

>  <arkane_path>  (5) 
/home/calvin/Dropbox/PersonalFolders/Calvin/ZEUS_Converged/rmg_rxn_16751/output/Species/rmg_rxn_16751_r1_CC=sbr-N-sbr/arkane/output.py

>  <path_exists>  (5) 
True

>  <E0_value>  (5) 
-349854.82234455534

>  <E0_units>  (5) 
kJ/mol

>  <thermo_class>  (5) 
NASA

>  <Cp0_value>  (5) 
33.257888

>  <Cp0_units>  (5) 
J/(mol*K)

>  <CpInf_value>  (5) 
157.97496800000002

>  <CpInf_units>  (5) 
J/(mol*K)

>  <Tmin_value>  (5) 
10.0

>  <Tmin_units>  (5) 
K

>  <Tmax_value>  (5) 
3000.0

>  <Tmax_units>  (5) 
K

>  <polynomials>  (5) 
[{"name": "polynomial1", "class": "NASAPolynomial", "Tmin_value": 10.0, "Tmin_units": "K", "Tmax_value": 503.5856077016928, "Tmax_units": "K", "coeffs": [3.976811592049577, 0.0012685228752087534, 4.786155959427562e-05, -7.554553197268183e-08, 3.869280929218241e-11, -42077814.38325793, 7.559402827950991]}, {"name": "polynomial2", "class": "NASAPolynomial", "Tmin_value": 503.5856077016928, "Tmin_units": "K", "Tmax_value": 3000.0, "Tmax_units": "K", "coeffs": [1.4688672877735052, 0.02118998940112054, -1.1479594923736429e-05, 3.0156770231218235e-09, -3.096140671693614e-13, -42077561.800061174, 17.93823402033286]}]

>  <H298_value>  (5) 
-83614.2601862362

>  <H298_units>  (5) 
kcal/mol

>  <S298_value>  (5) 
63.84640386523673

>  <S298_units>  (5) 
cal/(mol*K)

>  <Cp_T_value_list>  (5) 
[13.788413560189577, 16.48922778111735, 18.980945997388957, 21.186536551582613, 24.822448324400693, 27.593007553675324, 31.86535612271467, 33.985319854322825, 35.01227851918305]

>  <Cp_T_units>  (5) 
cal/(mol*K)

>  <T_list>  (5) 
[300.0, 400.0, 500.0, 600.0, 800.0, 1000.0, 1500.0, 2000.0, 2400.0]

>  <T_units>  (5) 
K

>  <yaml_path>  (5) 
/home/calvin/Dropbox/PersonalFolders/Calvin/ZEUS_Converged/rmg_rxn_16751/output/Species/rmg_rxn_16751_r1_CC=sbr-N-sbr/rmg_rxn_16751_r1_CC=sbr-N-sbr.yml

>  <frequencies_cm1>  (5) 
[183.94593576684, 430.87586088872, 744.9511684695599, 909.3948659275999, 1050.2642027820798, 1063.7578289358798, 1237.9320445923597, 1377.0846351168398, 1461.72709617116, 1465.6893467008, 1739.36617964408, 2963.10416558, 3026.2186276561197, 3097.525403219, 3131.35217290532]

>  <ZPE_kJmol>  (5) 
142.8532380575317

>  <E_elec_kJmol>  (5) 
-349997.67558261286

>  <E0_minus_Eelec_plus_ZPE_kJmol>  (5) 
0.0

>  <rxn>  (5) 
rmg_rxn_16751

>  <species_type>  (5) 
r0

>  <species_folder>  (5) 
rmg_rxn_16751_r1_CC=sbr-N-sbr

>  <frequencies_cm1_list>  (5) 
[183.94593576684, 430.87586088872, 744.9511684695599, 909.3948659275999, 1050.2642027820798, 1063.7578289358798, 1237.9320445923597, 1377.0846351168398, 1461.72709617116, 1465.6893467008, 1739.36617964408, 2963.10416558, 3026.2186276561197, 3097.525403219, 3131.35217290532]

>  <E0_kJmol>  (5) 
-349855

>  <H298_kJmol>  (5) 
-349842

$$$$
