
     RDKit          3D

  3  2  0  0  0  0  0  0  0  0999 V2000
    0.0683    0.2696   -0.5923 O   0  0  0  0  0  1  0  0  0  1  0  0
   -0.0641   -0.3134    0.5116 O   0  0  0  0  0  0  0  0  0  2  0  0
   -0.0660    0.4495    1.0944 H   0  0  0  0  0  0  0  0  0  3  0  0
  1  2  1  0
  2  3  1  0
M  RAD  1   1   2
M  END
>  <rmg_smiles>  (1) 
[O]O

>  <rmg_adjacency_list>  (1) 
multiplicity 2
1 O u1 p2 c0 {2,S}
2 O u0 p2 c0 {1,S} {3,S}
3 H u0 p0 c0 {2,S}


>  <multiplicity>  (1) 
2

>  <reaction>  (1) 
rmg_rxn_614

>  <type>  (1) 
r1h

>  <role_mapnums>  (1) 
{"r1h_a": 2, "r1h_h": 3}

>  <role_mapidx>  (1) 
{"r1h_a": 1, "r1h_h": 2}

>  <ordered_mapped_smiles>  (1) 
[O:1][O:2][H:3]

>  <mol_properties>  (1) 
{"1": {"label": "donator", "atom_type": "O2s"}, "2": {"label": "d_hydrogen", "atom_type": "H0"}}

>  <level_of_theory>  (1) 
wb97xd/def2tzvp

>  <lot_method>  (1) 
wb97xd

>  <lot_basis>  (1) 
def2tzvp

>  <spin_multiplicity>  (1) 
2.0

>  <optical_isomers>  (1) 
1.0

>  <modes>  (1) 
IdealGasTranslation(mass=(32.9977, 'amu')),         NonlinearRotor(             inertia = ([0.803517, 14.5889, 15.3924

>  <frequency_value>  (1) 
unknown

>  <frequency_units>  (1) 
unknown

>  <frequency_list>  (1) 
unknown

>  <arkane_path>  (1) 
/home/calvin/Dropbox/PersonalFolders/Calvin/ATLAS_Converged/rmg_rxn_614/output/Species/rmg_rxn_614_r1_sbr-O-sbrO/arkane/output.py

>  <path_exists>  (1) 
True

>  <E0_value>  (1) 
-396214.7927695948

>  <E0_units>  (1) 
kJ/mol

>  <thermo_class>  (1) 
NASA

>  <Cp0_value>  (1) 
33.257888

>  <Cp0_units>  (1) 
J/(mol*K)

>  <CpInf_value>  (1) 
58.201304

>  <CpInf_units>  (1) 
J/(mol*K)

>  <Tmin_value>  (1) 
10.0

>  <Tmin_units>  (1) 
K

>  <Tmax_value>  (1) 
3000.0

>  <Tmax_units>  (1) 
K

>  <polynomials>  (1) 
[{"name": "polynomial1", "class": "NASAPolynomial", "Tmin_value": 10.0, "Tmin_units": "K", "Tmax_value": 938.1761657005266, "Tmax_units": "K", "coeffs": [4.028901041197694, -0.001700194588450402, 1.0116570391044709e-05, -1.0102604785693042e-08, 3.2944164308155567e-12, -47653633.38793454, 4.661311507836104]}, {"name": "polynomial2", "class": "NASAPolynomial", "Tmin_value": 938.1761657005266, "Tmin_units": "K", "Tmax_value": 3000.0, "Tmax_units": "K", "coeffs": [3.0224262557447976, 0.004282199494853047, -2.1523259427611133e-06, 5.370890698672739e-10, -5.2803327661120167e-14, -47653518.96521391, 9.05607970771492]}]

>  <H298_value>  (1) 
-94695.23338060974

>  <H298_units>  (1) 
kcal/mol

>  <S298_value>  (1) 
54.59701487407023

>  <S298_units>  (1) 
cal/(mol*K)

>  <Cp_T_value_list>  (1) 
[8.312978502499373, 8.75413115003035, 9.2425407042839, 9.728455599899984, 10.572355382757646, 11.20105944824, 12.218042861408723, 12.776507304533373, 13.066159424780023]

>  <Cp_T_units>  (1) 
cal/(mol*K)

>  <T_list>  (1) 
[300.0, 400.0, 500.0, 600.0, 800.0, 1000.0, 1500.0, 2000.0, 2400.0]

>  <T_units>  (1) 
K

>  <yaml_path>  (1) 
/home/calvin/Dropbox/PersonalFolders/Calvin/ATLAS_Converged/rmg_rxn_614/output/Species/rmg_rxn_614_r1_sbr-O-sbrO/rmg_rxn_614_r1_sbr-O-sbrO.yml

>  <frequencies_cm1>  (1) 
[1229.25217514788, 1446.77766912952, 3624.6283293968795]

>  <ZPE_kJmol>  (1) 
37.68631575394318

>  <E_elec_kJmol>  (1) 
-396252.4790853488

>  <E0_minus_Eelec_plus_ZPE_kJmol>  (1) 
0.0

>  <rxn>  (1) 
rmg_rxn_614

>  <species_type>  (1) 
r0

>  <species_folder>  (1) 
rmg_rxn_614_r1_sbr-O-sbrO

>  <frequencies_cm1_list>  (1) 
[1229.25217514788, 1446.77766912952, 3624.6283293968795]

>  <E0_kJmol>  (1) 
-396215

>  <H298_kJmol>  (1) 
-396205

$$$$

     RDKit          3D

  6  5  0  0  0  0  0  0  0  0999 V2000
    0.3286   -1.4914    0.8502 H   0  0  0  0  0  0  0  0  0  1  0  0
    0.4058   -0.4245    1.0348 C   0  0  0  0  0  0  0  0  0  2  0  0
    0.2850   -0.0218   -0.2476 N   0  0  0  0  0  0  0  0  0  3  0  0
   -0.6377    0.4771   -0.8057 O   0  0  0  0  0  0  0  0  0  4  0  0
    1.4233   -0.3510    1.4018 H   0  0  0  0  0  0  0  0  0  5  0  0
   -0.4050   -0.1326    1.6970 H   0  0  0  0  0  0  0  0  0  6  0  0
  1  2  1  0
  2  3  1  0
  2  5  1  0
  2  6  1  0
  3  4  1  0
M  END
>  <rmg_smiles>  (2) 
C[N][O]

>  <rmg_adjacency_list>  (2) 
1 O u0 p2 c0 {2,S}
2 N u0 p1 c0 {1,S} {3,S}
3 C u0 p0 c0 {2,S} {4,S} {5,S} {6,S}
4 H u0 p0 c0 {3,S}
5 H u0 p0 c0 {3,S}
6 H u0 p0 c0 {3,S}


>  <multiplicity>  (2) 
1

>  <reaction>  (2) 
rmg_rxn_614

>  <type>  (2) 
r2h

>  <role_mapnums>  (2) 
{"r2h_a": 2, "r2h_h": 1}

>  <role_mapidx>  (2) 
{"r2h_a": 1, "r2h_h": 0}

>  <ordered_mapped_smiles>  (2) 
[H:1][C:2]([NH:3][OH:4])([H:5])[H:6]

>  <mol_properties>  (2) 
{"0": {"label": "a_hydrogen", "atom_type": "H0"}, "1": {"label": "acceptor", "atom_type": "Cs"}}

>  <level_of_theory>  (2) 
wb97xd/def2tzvp

>  <lot_method>  (2) 
wb97xd

>  <lot_basis>  (2) 
def2tzvp

>  <spin_multiplicity>  (2) 
1.0

>  <optical_isomers>  (2) 
1.0

>  <modes>  (2) 
IdealGasTranslation(mass=(45.0215, 'amu')),         NonlinearRotor(             inertia = ([8.07699, 43.5338, 48.4889

>  <frequency_value>  (2) 
unknown

>  <frequency_units>  (2) 
unknown

>  <frequency_list>  (2) 
unknown

>  <arkane_path>  (2) 
/home/calvin/Dropbox/PersonalFolders/Calvin/ATLAS_Converged/rmg_rxn_614/output/Species/rmg_rxn_614_p2_CN=O/arkane/output.py

>  <path_exists>  (2) 
True

>  <E0_value>  (2) 
-445718.776356613

>  <E0_units>  (2) 
kJ/mol

>  <thermo_class>  (2) 
NASA

>  <Cp0_value>  (2) 
33.257888

>  <Cp0_units>  (2) 
J/(mol*K)

>  <CpInf_value>  (2) 
133.031552

>  <CpInf_units>  (2) 
J/(mol*K)

>  <Tmin_value>  (2) 
10.0

>  <Tmin_units>  (2) 
K

>  <Tmax_value>  (2) 
3000.0

>  <Tmax_units>  (2) 
K

>  <polynomials>  (2) 
[{"name": "polynomial1", "class": "NASAPolynomial", "Tmin_value": 10.0, "Tmin_units": "K", "Tmax_value": 511.90687785810604, "Tmax_units": "K", "coeffs": [3.9789352478099715, 0.001161265651303563, 3.748997662509957e-05, -5.8505700772999076e-08, 2.9515965803367326e-11, -53607585.080265164, 6.986782485664598]}, {"name": "polynomial2", "class": "NASAPolynomial", "Tmin_value": 511.90687785810604, "Tmin_units": "K", "Tmax_value": 3000.0, "Tmax_units": "K", "coeffs": [1.9343545091495096, 0.0171365636524948, -9.318546376811868e-06, 2.45056971641056e-09, -2.5158502413706336e-13, -53607375.74155318, 15.481740257492172]}]

>  <H298_value>  (2) 
-106526.42729706276

>  <H298_units>  (2) 
kcal/mol

>  <S298_value>  (2) 
62.01661564600373

>  <S298_units>  (2) 
cal/(mol*K)

>  <Cp_T_value_list>  (2) 
[12.640299105229849, 14.810812294003128, 16.818915965173034, 18.596941456685723, 21.524185210914364, 23.74981328654779, 27.164107834916802, 28.83932173030383, 29.643096991481094]

>  <Cp_T_units>  (2) 
cal/(mol*K)

>  <T_list>  (2) 
[300.0, 400.0, 500.0, 600.0, 800.0, 1000.0, 1500.0, 2000.0, 2400.0]

>  <T_units>  (2) 
K

>  <yaml_path>  (2) 
/home/calvin/Dropbox/PersonalFolders/Calvin/ATLAS_Converged/rmg_rxn_614/output/Species/rmg_rxn_614_p2_CN=O/rmg_rxn_614_p2_CN=O.yml

>  <frequencies_cm1>  (2) 
[159.67800964595997, 581.79159726636, 871.00155100348, 967.4689607788398, 1152.46554529964, 1368.8854546447599, 1439.8214130003598, 1441.90210955232, 1701.8724397968801, 3006.5378477289996, 3098.8369974151196, 3119.62336197876]

>  <ZPE_kJmol>  (2) 
113.10626417033984

>  <E_elec_kJmol>  (2) 
-445831.88262078335

>  <E0_minus_Eelec_plus_ZPE_kJmol>  (2) 
0.0

>  <rxn>  (2) 
rmg_rxn_614

>  <species_type>  (2) 
p1

>  <species_folder>  (2) 
rmg_rxn_614_p2_CN=O

>  <frequencies_cm1_list>  (2) 
[159.67800964595997, 581.79159726636, 871.00155100348, 967.4689607788398, 1152.46554529964, 1368.8854546447599, 1439.8214130003598, 1441.90210955232, 1701.8724397968801, 3006.5378477289996, 3098.8369974151196, 3119.62336197876]

>  <E0_kJmol>  (2) 
-445719

>  <H298_kJmol>  (2) 
-445707

$$$$

     RDKit          3D

  8  6  0  0  0  0  0  0  0  0999 V2000
    0.2652   -1.1427   -0.9357 O   0  0  0  0  0  1  0  0  0  1  0  0
    0.1328   -1.7256    0.1682 O   0  0  0  0  0  0  0  0  0  2  0  0
    0.1303   -0.7175    0.9384 H   0  0  0  0  0  0  0  0  0  3  0  0
    0.2248    0.5900    1.1646 C   0  0  0  0  0  0  0  0  0  4  0  0
    0.1041    0.9927   -0.1178 N   0  0  0  0  0  0  0  0  0  5  0  0
   -0.8187    1.4916   -0.6759 O   0  0  0  0  0  1  0  0  0  6  0  0
    1.2423    0.6635    1.5317 H   0  0  0  0  0  0  0  0  0  7  0  0
   -0.5859    0.8819    1.8269 H   0  0  0  0  0  0  0  0  0  8  0  0
  1  2  1  0
  2  3  1  0
  4  5  1  0
  4  8  1  0
  4  7  1  0
  5  6  1  0
M  RAD  2   1   2   6   2
M  END
>  <rmg_smiles>  (3) 
[CH2][N][O].[O]O

>  <rmg_adjacency_list>  (3) 
multiplicity 3
1 O u0 p2 c0 {3,S} {8,S}
2 O u1 p2 c0 {4,S}
3 O u1 p2 c0 {1,S}
4 N u0 p1 c0 {2,S} {5,S}
5 C u0 p0 c0 {4,S} {6,S} {7,S}
6 H u0 p0 c0 {5,S}
7 H u0 p0 c0 {5,S}
8 H u0 p0 c0 {1,S}


>  <multiplicity>  (3) 
3

>  <reaction>  (3) 
rmg_rxn_614

>  <type>  (3) 
ts

>  <role_mapnums>  (3) 
{"*2": 3, "*1": 2, "*3": 4, "*0": 1, "*4": 5}

>  <role_mapidx>  (3) 
{"*2": 2, "*1": 1, "*3": 3, "*0": 0, "*4": 4}

>  <ordered_mapped_smiles>  (3) 
[O:1][O:2][H:3].[CH:4]([NH:5][O:6])([H:7])[H:8]

>  <mol_properties>  (3) 
{"0": {"label": "*0", "atom_type": "O2s"}, "1": {"label": "*1", "atom_type": "O2s"}, "2": {"label": "*2", "atom_type": "H0"}, "3": {"label": "*3", "atom_type": "Cs"}, "4": {"label": "*4", "atom_type": "N3s"}}

>  <level_of_theory>  (3) 
wb97xd/def2tzvp

>  <lot_method>  (3) 
wb97xd

>  <lot_basis>  (3) 
def2tzvp

>  <spin_multiplicity>  (3) 
3.0

>  <optical_isomers>  (3) 
2.0

>  <modes>  (3) 
IdealGasTranslation(mass=(77.0113, 'amu')),         NonlinearRotor(             inertia = ([53.6038, 136.084, 176.093

>  <frequency_value>  (3) 
-1826.03

>  <frequency_units>  (3) 
cm^-1

>  <frequency_list>  (3) 
unknown

>  <arkane_path>  (3) 
/home/calvin/Dropbox/PersonalFolders/Calvin/ATLAS_Converged/rmg_rxn_614/output/rxns/TS0/arkane/output.py

>  <path_exists>  (3) 
True

>  <E0_value>  (3) 
-840277.0

>  <E0_units>  (3) 
kJ/mol

>  <thermo_class>  (3) 
unknown

>  <Cp0_value>  (3) 
unknown

>  <Cp0_units>  (3) 
unknown

>  <CpInf_value>  (3) 
unknown

>  <CpInf_units>  (3) 
unknown

>  <Tmin_value>  (3) 
unknown

>  <Tmin_units>  (3) 
unknown

>  <Tmax_value>  (3) 
unknown

>  <Tmax_units>  (3) 
unknown

>  <polynomials>  (3) 
unknown

>  <H298_value>  (3) 
unknown

>  <H298_units>  (3) 
unknown

>  <S298_value>  (3) 
unknown

>  <S298_units>  (3) 
unknown

>  <Cp_T_value_list>  (3) 
unknown

>  <Cp_T_units>  (3) 
unknown

>  <T_list>  (3) 
unknown

>  <T_units>  (3) 
unknown

>  <yaml_path>  (3) 
unknown

>  <frequencies_cm1>  (3) 
unknown

>  <ZPE_kJmol>  (3) 
unknown

>  <E_elec_kJmol>  (3) 
unknown

>  <E0_minus_Eelec_plus_ZPE_kJmol>  (3) 
unknown

>  <rxn>  (3) 
unknown

>  <species_type>  (3) 
unknown

>  <species_folder>  (3) 
unknown

>  <frequencies_cm1_list>  (3) 
[]

>  <ts_imag_freq_cm1>  (3) 
-1848.2059

>  <ts_freq_out_path>  (3) 
/home/calvin/Dropbox/PersonalFolders/Calvin/ATLAS_Converged/rmg_rxn_614/output/rxns/TS0/geometry/freq.out

>  <E0_kJmol>  (3) 
-840277

>  <H298_kJmol>  (3) 
unknown

$$$$

     RDKit          3D

  2  1  0  0  0  0  0  0  0  0999 V2000
    0.0000    0.0000    0.5973 O   0  0  0  0  0  1  0  0  0  1  0  0
    0.0000    0.0000   -0.5973 O   0  0  0  0  0  1  0  0  0  2  0  0
  1  2  1  0
M  RAD  2   1   2   2   2
M  END
>  <rmg_smiles>  (4) 
[O][O]

>  <rmg_adjacency_list>  (4) 
multiplicity 3
1 O u1 p2 c0 {2,S}
2 O u1 p2 c0 {1,S}


>  <multiplicity>  (4) 
3

>  <reaction>  (4) 
rmg_rxn_614

>  <type>  (4) 
r1

>  <role_mapnums>  (4) 
{}

>  <role_mapidx>  (4) 
{}

>  <ordered_mapped_smiles>  (4) 
[O:1][O:2]

>  <level_of_theory>  (4) 
wb97xd/def2tzvp

>  <lot_method>  (4) 
wb97xd

>  <lot_basis>  (4) 
def2tzvp

>  <spin_multiplicity>  (4) 
3.0

>  <optical_isomers>  (4) 
1.0

>  <modes>  (4) 
IdealGasTranslation(mass=(31.9898, 'amu')),         LinearRotor(inertia=(11.4119, 'amu*angstrom^2'), symmetry=2),         HarmonicOscillator(frequencies=([1715.95

>  <frequency_value>  (4) 
unknown

>  <frequency_units>  (4) 
unknown

>  <frequency_list>  (4) 
unknown

>  <arkane_path>  (4) 
/home/calvin/Dropbox/PersonalFolders/Calvin/ATLAS_Converged/rmg_rxn_614/output/Species/rmg_rxn_614_p1_sbr-O-sbrsbr-O-sbr/arkane/output.py

>  <path_exists>  (4) 
True

>  <E0_value>  (4) 
-394707.785445247

>  <E0_units>  (4) 
kJ/mol

>  <thermo_class>  (4) 
NASA

>  <Cp0_value>  (4) 
29.100652

>  <Cp0_units>  (4) 
J/(mol*K)

>  <CpInf_value>  (4) 
37.415124

>  <CpInf_units>  (4) 
J/(mol*K)

>  <Tmin_value>  (4) 
10.0

>  <Tmin_units>  (4) 
K

>  <Tmax_value>  (4) 
3000.0

>  <Tmax_units>  (4) 
K

>  <polynomials>  (4) 
[{"name": "polynomial1", "class": "NASAPolynomial", "Tmin_value": 10.0, "Tmin_units": "K", "Tmax_value": 623.1067365812339, "Tmax_units": "K", "coeffs": [3.5071717169867545, -0.0004204533575713959, 1.3190555577599089e-06, 1.5870895922619425e-09, -2.1298492787888263e-12, -47472381.678587586, 4.703409616269141]}, {"name": "polynomial2", "class": "NASAPolynomial", "Tmin_value": 623.1067365812339, "Tmin_units": "K", "Tmax_value": 3000.0, "Tmax_units": "K", "coeffs": [2.875523834466992, 0.0021105290197265814, -1.1054134882145092e-06, 2.5625703544572847e-10, -2.1212509987924437e-14, -47472273.37918193, 7.689332260333164]}]

>  <H298_value>  (4) 
-94335.358332164

>  <H298_units>  (4) 
kcal/mol

>  <S298_value>  (4) 
48.93927096892353

>  <S298_units>  (4) 
cal/(mol*K)

>  <Cp_T_value_list>  (4) 
[7.005599133164053, 7.148158358300299, 7.336725756697227, 7.544514113291943, 7.907089452572359, 8.178713784943326, 8.568071699323143, 8.715061124357609, 8.768208627382272]

>  <Cp_T_units>  (4) 
cal/(mol*K)

>  <T_list>  (4) 
[300.0, 400.0, 500.0, 600.0, 800.0, 1000.0, 1500.0, 2000.0, 2400.0]

>  <T_units>  (4) 
K

>  <yaml_path>  (4) 
/home/calvin/Dropbox/PersonalFolders/Calvin/ATLAS_Converged/rmg_rxn_614/output/Species/rmg_rxn_614_p1_sbr-O-sbrsbr-O-sbr/rmg_rxn_614_p1_sbr-O-sbrsbr-O-sbr.yml

>  <frequencies_cm1>  (4) 
[1695.3556707281998]

>  <ZPE_kJmol>  (4) 
10.140481733996705

>  <E_elec_kJmol>  (4) 
-394717.925926981

>  <E0_minus_Eelec_plus_ZPE_kJmol>  (4) 
0.0

>  <rxn>  (4) 
rmg_rxn_614

>  <species_type>  (4) 
p0

>  <species_folder>  (4) 
rmg_rxn_614_p1_sbr-O-sbrsbr-O-sbr

>  <frequencies_cm1_list>  (4) 
[1695.3556707281998]

>  <E0_kJmol>  (4) 
-394708

>  <H298_kJmol>  (4) 
-394699

$$$$

     RDKit          3D

  5  4  0  0  0  0  0  0  0  0999 V2000
   -0.4986    0.0189   -0.0212 C   0  0  0  0  0  0  0  0  0  1  0  0
    0.6799   -0.4410    0.1054 N   0  0  0  0  0  0  0  0  0  2  0  0
    1.7950    0.0236    0.0595 O   0  0  0  0  0  1  0  0  0  3  0  0
   -1.3180   -0.6753    0.0776 H   0  0  0  0  0  0  0  0  0  4  0  0
   -0.6584    1.0737   -0.2213 H   0  0  0  0  0  0  0  0  0  5  0  0
  1  5  1  0
  1  4  1  0
  1  2  1  0
  2  3  1  0
M  RAD  1   3   2
M  END
>  <rmg_smiles>  (5) 
[CH2][N][O]

>  <rmg_adjacency_list>  (5) 
multiplicity 2
1 O u1 p2 c0 {2,S}
2 N u0 p1 c0 {1,S} {3,S}
3 C u0 p0 c0 {2,S} {4,S} {5,S}
4 H u0 p0 c0 {3,S}
5 H u0 p0 c0 {3,S}


>  <multiplicity>  (5) 
2

>  <reaction>  (5) 
rmg_rxn_614

>  <type>  (5) 
r2

>  <role_mapnums>  (5) 
{}

>  <role_mapidx>  (5) 
{}

>  <ordered_mapped_smiles>  (5) 
[CH:1]([NH:2][O:3])([H:4])[H:5]

>  <level_of_theory>  (5) 
wb97xd/def2tzvp

>  <lot_method>  (5) 
wb97xd

>  <lot_basis>  (5) 
def2tzvp

>  <spin_multiplicity>  (5) 
2.0

>  <optical_isomers>  (5) 
1.0

>  <modes>  (5) 
IdealGasTranslation(mass=(44.0136, 'amu')),         NonlinearRotor(             inertia = ([3.87779, 42.4322, 46.31

>  <frequency_value>  (5) 
unknown

>  <frequency_units>  (5) 
unknown

>  <frequency_list>  (5) 
unknown

>  <arkane_path>  (5) 
/home/calvin/Dropbox/PersonalFolders/Calvin/ATLAS_Converged/rmg_rxn_614/output/Species/rmg_rxn_614_r2_sbr-CH2-sbrN=O/arkane/output.py

>  <path_exists>  (5) 
True

>  <E0_value>  (5) 
-444125.8698569815

>  <E0_units>  (5) 
kJ/mol

>  <thermo_class>  (5) 
NASA

>  <Cp0_value>  (5) 
33.257888

>  <Cp0_units>  (5) 
J/(mol*K)

>  <CpInf_value>  (5) 
108.088136

>  <CpInf_units>  (5) 
J/(mol*K)

>  <Tmin_value>  (5) 
10.0

>  <Tmin_units>  (5) 
K

>  <Tmax_value>  (5) 
3000.0

>  <Tmax_units>  (5) 
K

>  <polynomials>  (5) 
[{"name": "polynomial1", "class": "NASAPolynomial", "Tmin_value": 10.0, "Tmin_units": "K", "Tmax_value": 562.3844127225133, "Tmax_units": "K", "coeffs": [4.053937176279305, -0.0047398271406768585, 5.7437859425445556e-05, -9.385630136446055e-08, 5.059118934882412e-11, -53416003.88498011, 6.9306587758022244]}, {"name": "polynomial2", "class": "NASAPolynomial", "Tmin_value": 562.3844127225133, "Tmin_units": "K", "Tmax_value": 3000.0, "Tmax_units": "K", "coeffs": [2.1822483082936537, 0.014293062944345295, -8.584392971883197e-06, 2.4949936009645337e-09, -2.805584349724308e-13, -53415883.824056074, 14.078927000603649]}]

>  <H298_value>  (5) 
-106145.96131022584

>  <H298_units>  (5) 
kcal/mol

>  <S298_value>  (5) 
60.48266213431546

>  <S298_units>  (5) 
cal/(mol*K)

>  <Cp_T_value_list>  (5) 
[11.281500234397477, 13.187887263233034, 14.851189314724579, 16.235999449361433, 18.451624012184585, 20.08142406383569, 22.469810630137335, 23.65136644158371, 24.287701175564127]

>  <Cp_T_units>  (5) 
cal/(mol*K)

>  <T_list>  (5) 
[300.0, 400.0, 500.0, 600.0, 800.0, 1000.0, 1500.0, 2000.0, 2400.0]

>  <T_units>  (5) 
K

>  <yaml_path>  (5) 
/home/calvin/Dropbox/PersonalFolders/Calvin/ATLAS_Converged/rmg_rxn_614/output/Species/rmg_rxn_614_r2_sbr-CH2-sbrN=O/rmg_rxn_614_r2_sbr-CH2-sbrN=O.yml

>  <frequencies_cm1>  (5) 
[458.37813709531997, 701.3458116875601, 834.5447259396, 1127.25684218992, 1261.9046903444798, 1486.4825782497596, 1744.7430291496398, 3101.34344705692, 3245.26172539348]

>  <ZPE_kJmol>  (5) 
83.50690918001081

>  <E_elec_kJmol>  (5) 
-444209.3767661615

>  <E0_minus_Eelec_plus_ZPE_kJmol>  (5) 
0.0

>  <rxn>  (5) 
rmg_rxn_614

>  <species_type>  (5) 
r1

>  <species_folder>  (5) 
rmg_rxn_614_r2_sbr-CH2-sbrN=O

>  <frequencies_cm1_list>  (5) 
[458.37813709531997, 701.3458116875601, 834.5447259396, 1127.25684218992, 1261.9046903444798, 1486.4825782497596, 1744.7430291496398, 3101.34344705692, 3245.26172539348]

>  <E0_kJmol>  (5) 
-444126

>  <H298_kJmol>  (5) 
-444115

$$$$
