
     RDKit          3D

 10  9  0  0  0  0  0  0  0  0999 V2000
   -0.4595    0.8046   -1.6444 C   0  0  0  0  0  0  0  0  0  1  0  0
    0.0836    0.3456   -0.5857 C   0  0  0  0  0  2  0  0  0  2  0  0
    0.5743   -0.0495    0.5716 C   0  0  0  0  0  0  0  0  0  3  0  0
   -0.1183   -1.0079    1.4953 C   0  0  0  0  0  0  0  0  0  4  0  0
   -1.0507    1.6991   -1.5186 H   0  0  0  0  0  0  0  0  0  5  0  0
   -0.4384    0.4425   -2.6612 H   0  0  0  0  0  0  0  0  0  6  0  0
    1.5575    0.3096    0.8604 H   0  0  0  0  0  0  0  0  0  7  0  0
    0.4065   -1.9664    1.5313 H   0  0  0  0  0  0  0  0  0  8  0  0
   -1.1450   -1.1939    1.1812 H   0  0  0  0  0  0  0  0  0  9  0  0
   -0.1350   -0.6205    2.5178 H   0  0  0  0  0  0  0  0  0 10  0  0
  1  5  1  0
  1  6  1  0
  1  2  1  0
  2  3  1  0
  3  4  1  0
  3  7  1  0
  4  8  1  0
  4  9  1  0
  4 10  1  0
M  RAD  1   2   3
M  END
>  <rmg_smiles>  (1) 
[CH2][C][CH]C

>  <rmg_adjacency_list>  (1) 
1  C u0 p0 c0 {2,S} {5,S} {6,S} {7,S}
2  C u0 p0 c0 {1,S} {4,S} {8,S}
3  C u0 p0 c0 {4,S} {9,S} {10,S}
4  C u0 p1 c0 {2,S} {3,S}
5  H u0 p0 c0 {1,S}
6  H u0 p0 c0 {1,S}
7  H u0 p0 c0 {1,S}
8  H u0 p0 c0 {2,S}
9  H u0 p0 c0 {3,S}
10 H u0 p0 c0 {3,S}


>  <multiplicity>  (1) 
1

>  <reaction>  (1) 
rmg_rxn_14073

>  <type>  (1) 
r1h

>  <role_mapnums>  (1) 
{"r1h_a": 1, "r1h_h": 5}

>  <role_mapidx>  (1) 
{"r1h_a": 0, "r1h_h": 4}

>  <ordered_mapped_smiles>  (1) 
[CH:1]([C:2][CH:3]([C:4]([H:8])([H:9])[H:10])[H:7])([H:5])[H:6]

>  <mol_properties>  (1) 
{"0": {"label": "donator", "atom_type": "Cs"}, "4": {"label": "d_hydrogen", "atom_type": "H0"}}

>  <level_of_theory>  (1) 
wb97xd/def2tzvp

>  <lot_method>  (1) 
wb97xd

>  <lot_basis>  (1) 
def2tzvp

>  <spin_multiplicity>  (1) 
1.0

>  <optical_isomers>  (1) 
1.0

>  <modes>  (1) 
IdealGasTranslation(mass=(54.047, 'amu')),         NonlinearRotor(             inertia = ([14.6121, 119.467, 127.49

>  <frequency_value>  (1) 
unknown

>  <frequency_units>  (1) 
unknown

>  <frequency_list>  (1) 
unknown

>  <arkane_path>  (1) 
/home/calvin/Dropbox/PersonalFolders/Calvin/ZEUS_Converged/rmg_rxn_14073/output/Species/rmg_rxn_14073_r1_C=C=CC/arkane/output.py

>  <path_exists>  (1) 
True

>  <E0_value>  (1) 
-409296.6502421279

>  <E0_units>  (1) 
kJ/mol

>  <thermo_class>  (1) 
NASA

>  <Cp0_value>  (1) 
33.257888

>  <Cp0_units>  (1) 
J/(mol*K)

>  <CpInf_value>  (1) 
232.805216

>  <CpInf_units>  (1) 
J/(mol*K)

>  <Tmin_value>  (1) 
10.0

>  <Tmin_units>  (1) 
K

>  <Tmax_value>  (1) 
3000.0

>  <Tmax_units>  (1) 
K

>  <polynomials>  (1) 
[{"name": "polynomial1", "class": "NASAPolynomial", "Tmin_value": 10.0, "Tmin_units": "K", "Tmax_value": 452.8802664009696, "Tmax_units": "K", "coeffs": [3.9021943352433452, 0.007937521032632688, 6.664442489196733e-05, -1.2131953588307993e-07, 6.938885885775227e-11, -49227014.555544384, 8.255511443201872]}, {"name": "polynomial2", "class": "NASAPolynomial", "Tmin_value": 452.8802664009696, "Tmin_units": "K", "Tmax_value": 3000.0, "Tmax_units": "K", "coeffs": [0.958037882717614, 0.033941191741253485, -1.948265019694705e-05, 5.463813645242153e-09, -5.979209978345261e-13, -49226747.88374059, 20.12723627389473]}]

>  <H298_value>  (1) 
-97820.47439749332

>  <H298_units>  (1) 
kcal/mol

>  <S298_value>  (1) 
69.30943774444917

>  <S298_units>  (1) 
cal/(mol*K)

>  <Cp_T_value_list>  (1) 
[19.013335795722274, 23.35407848830737, 27.231838984706652, 30.626214617830076, 36.15654523435027, 40.30546036176962, 46.594544625367064, 49.786664420046236, 51.450781523093035]

>  <Cp_T_units>  (1) 
cal/(mol*K)

>  <T_list>  (1) 
[300.0, 400.0, 500.0, 600.0, 800.0, 1000.0, 1500.0, 2000.0, 2400.0]

>  <T_units>  (1) 
K

>  <yaml_path>  (1) 
/home/calvin/Dropbox/PersonalFolders/Calvin/ZEUS_Converged/rmg_rxn_14073/output/Species/rmg_rxn_14073_r1_C=C=CC/rmg_rxn_14073_r1_C=C=CC.yml

>  <frequencies_cm1>  (1) 
[164.84884959192, 210.28769145436, 340.98015606459995, 540.2944049775999, 574.7186023867599, 878.6239047086799, 884.0282221555199, 895.09093550604, 1017.79709618912, 1055.91573170044, 1088.91159616304, 1146.5530709391198, 1353.77808694076, 1399.01778622892, 1463.354571692, 1470.3726306890399, 1494.8053644576, 2061.4346581373993, 3012.63573069316, 3072.0282867258397, 3106.42501619372, 3110.62074422424, 3124.134971334, 3189.66661224276]

>  <ZPE_kJmol>  (1) 
219.25357474583132

>  <E_elec_kJmol>  (1) 
-409515.9038168737

>  <E0_minus_Eelec_plus_ZPE_kJmol>  (1) 
0.0

>  <rxn>  (1) 
rmg_rxn_14073

>  <species_type>  (1) 
r0

>  <species_folder>  (1) 
rmg_rxn_14073_r1_C=C=CC

>  <frequencies_cm1_list>  (1) 
[164.84884959192, 210.28769145436, 340.98015606459995, 540.2944049775999, 574.7186023867599, 878.6239047086799, 884.0282221555199, 895.09093550604, 1017.79709618912, 1055.91573170044, 1088.91159616304, 1146.5530709391198, 1353.77808694076, 1399.01778622892, 1463.354571692, 1470.3726306890399, 1494.8053644576, 2061.4346581373993, 3012.63573069316, 3072.0282867258397, 3106.42501619372, 3110.62074422424, 3124.134971334, 3189.66661224276]

>  <E0_kJmol>  (1) 
-409297

>  <H298_kJmol>  (1) 
-409281

$$$$

     RDKit          3D

 14 13  0  0  0  0  0  0  0  0999 V2000
    1.0805    0.2717   -2.7926 H   0  0  0  0  0  0  0  0  0  1  0  0
    0.5163    1.1414   -2.4538 C   0  0  0  0  0  0  0  0  0  2  0  0
    0.6469    1.1643   -1.0928 O   0  0  0  0  0  0  0  0  0  3  0  0
   -0.1182    0.1798   -0.4229 C   0  0  0  0  0  0  0  0  0  4  0  0
    0.3801    0.1045    1.0006 C   0  0  0  0  0  0  0  0  0  5  0  0
   -0.2968   -0.9499    1.8230 C   0  0  0  0  0  0  0  0  0  6  0  0
   -1.1535   -1.6883    1.4200 O   0  0  0  0  0  0  0  0  0  7  0  0
   -0.5045    0.9794   -2.8137 H   0  0  0  0  0  0  0  0  0  8  0  0
    1.0100    2.0032   -2.8954 H   0  0  0  0  0  0  0  0  0  9  0  0
   -0.0012   -0.7895   -0.9150 H   0  0  0  0  0  0  0  0  0 10  0  0
   -1.1810    0.4454   -0.4560 H   0  0  0  0  0  0  0  0  0 11  0  0
    1.4557   -0.1047    1.0051 H   0  0  0  0  0  0  0  0  0 12  0  0
    0.2633    1.0656    1.5126 H   0  0  0  0  0  0  0  0  0 13  0  0
    0.0552   -1.0192    2.8732 H   0  0  0  0  0  0  0  0  0 14  0  0
  1  2  1  0
  2  9  1  0
  2  8  1  0
  2  3  1  0
  3  4  1  0
  4  5  1  0
  4 10  1  0
  4 11  1  0
  5 12  1  0
  5  6  1  0
  5 13  1  0
  6 14  1  0
  6  7  1  0
M  END
>  <rmg_smiles>  (2) 
COCC[CH]O

>  <rmg_adjacency_list>  (2) 
1  O u0 p2 c0 {4,S} {5,S}
2  O u0 p2 c0 {6,S}
3  C u0 p0 c0 {4,S} {6,S} {7,S} {8,S}
4  C u0 p0 c0 {1,S} {3,S} {9,S} {10,S}
5  C u0 p0 c0 {1,S} {11,S} {12,S} {13,S}
6  C u0 p0 c0 {2,S} {3,S} {14,S}
7  H u0 p0 c0 {3,S}
8  H u0 p0 c0 {3,S}
9  H u0 p0 c0 {4,S}
10 H u0 p0 c0 {4,S}
11 H u0 p0 c0 {5,S}
12 H u0 p0 c0 {5,S}
13 H u0 p0 c0 {5,S}
14 H u0 p0 c0 {6,S}


>  <multiplicity>  (2) 
1

>  <reaction>  (2) 
rmg_rxn_14073

>  <type>  (2) 
r2h

>  <role_mapnums>  (2) 
{"r2h_a": 2, "r2h_h": 1}

>  <role_mapidx>  (2) 
{"r2h_a": 1, "r2h_h": 0}

>  <ordered_mapped_smiles>  (2) 
[H:1][C:2]([O:3][C:4]([C:5]([CH:6]([OH:7])[H:14])([H:12])[H:13])([H:10])[H:11])([H:8])[H:9]

>  <mol_properties>  (2) 
{"0": {"label": "a_hydrogen", "atom_type": "H0"}, "1": {"label": "acceptor", "atom_type": "Cs"}}

>  <level_of_theory>  (2) 
wb97xd/def2tzvp

>  <lot_method>  (2) 
wb97xd

>  <lot_basis>  (2) 
def2tzvp

>  <spin_multiplicity>  (2) 
1.0

>  <optical_isomers>  (2) 
1.0

>  <modes>  (2) 
IdealGasTranslation(mass=(88.0524, 'amu')),         NonlinearRotor(             inertia = ([42.2252, 321.863, 354.694

>  <frequency_value>  (2) 
unknown

>  <frequency_units>  (2) 
unknown

>  <frequency_list>  (2) 
unknown

>  <arkane_path>  (2) 
/home/calvin/Dropbox/PersonalFolders/Calvin/ZEUS_Converged/rmg_rxn_14073/output/Species/rmg_rxn_14073_p2_COCCC=O/arkane/output.py

>  <path_exists>  (2) 
True

>  <E0_value>  (2) 
-807522.6100537925

>  <E0_units>  (2) 
kJ/mol

>  <thermo_class>  (2) 
NASA

>  <Cp0_value>  (2) 
33.257888

>  <Cp0_units>  (2) 
J/(mol*K)

>  <CpInf_value>  (2) 
332.57888

>  <CpInf_units>  (2) 
J/(mol*K)

>  <Tmin_value>  (2) 
10.0

>  <Tmin_units>  (2) 
K

>  <Tmax_value>  (2) 
3000.0

>  <Tmax_units>  (2) 
K

>  <polynomials>  (2) 
[{"name": "polynomial1", "class": "NASAPolynomial", "Tmin_value": 10.0, "Tmin_units": "K", "Tmax_value": 420.00192444716464, "Tmax_units": "K", "coeffs": [3.4815818701554897, 0.05515157389046968, -0.0001820077560420329, 4.74484230967253e-07, -4.124947682445814e-10, -97122534.66875581, 10.742579115213127]}, {"name": "polynomial2", "class": "NASAPolynomial", "Tmin_value": 420.00192444716464, "Tmin_units": "K", "Tmax_value": 3000.0, "Tmax_units": "K", "coeffs": [-0.4194230434848318, 0.05252343910960219, -3.0549424746644766e-05, 8.564921448695528e-09, -9.313737256728422e-13, -97121856.11656621, 30.355527057949544]}]

>  <H298_value>  (2) 
-192997.32101247305

>  <H298_units>  (2) 
kcal/mol

>  <S298_value>  (2) 
84.06560586374717

>  <S298_units>  (2) 
cal/(mol*K)

>  <Cp_T_value_list>  (2) 
[26.064642832315013, 32.24857622882198, 38.18883221539439, 43.37309600829853, 51.769601876854644, 58.002859656054916, 67.20943098501424, 71.63312718025382, 73.8701758084071]

>  <Cp_T_units>  (2) 
cal/(mol*K)

>  <T_list>  (2) 
[300.0, 400.0, 500.0, 600.0, 800.0, 1000.0, 1500.0, 2000.0, 2400.0]

>  <T_units>  (2) 
K

>  <yaml_path>  (2) 
/home/calvin/Dropbox/PersonalFolders/Calvin/ZEUS_Converged/rmg_rxn_14073/output/Species/rmg_rxn_14073_p2_COCCC=O/rmg_rxn_14073_p2_COCCC=O.yml

>  <frequencies_cm1>  (2) 
[83.92142759571999, 101.70691957452, 147.16636239292, 174.02314197943997, 230.32555461812, 307.31819402595994, 439.28791790572, 677.99119461424, 694.39642254372, 892.9209681449199, 910.4661156375198, 1006.6107771028398, 1094.1579729475197, 1124.7435255628, 1176.4450580370801, 1178.51888760372, 1225.7912145465998, 1230.8727836834, 1298.89714026332, 1325.85692462964, 1408.7002355301197, 1418.6710982147597, 1449.29785274196, 1473.5383109215597, 1476.52544953576, 1492.4019195956, 1511.0732526806798, 1821.48159010064, 2872.5766981064403, 2954.7951133427996, 2967.9316562599597, 2997.0614079873994, 3007.2108122903596, 3014.4829497442397, 3050.8230360576795, 3104.4610583922]

>  <ZPE_kJmol>  (2) 
307.0961421103297

>  <E_elec_kJmol>  (2) 
-807829.7061959028

>  <E0_minus_Eelec_plus_ZPE_kJmol>  (2) 
0.0

>  <rxn>  (2) 
rmg_rxn_14073

>  <species_type>  (2) 
p1

>  <species_folder>  (2) 
rmg_rxn_14073_p2_COCCC=O

>  <frequencies_cm1_list>  (2) 
[83.92142759571999, 101.70691957452, 147.16636239292, 174.02314197943997, 230.32555461812, 307.31819402595994, 439.28791790572, 677.99119461424, 694.39642254372, 892.9209681449199, 910.4661156375198, 1006.6107771028398, 1094.1579729475197, 1124.7435255628, 1176.4450580370801, 1178.51888760372, 1225.7912145465998, 1230.8727836834, 1298.89714026332, 1325.85692462964, 1408.7002355301197, 1418.6710982147597, 1449.29785274196, 1473.5383109215597, 1476.52544953576, 1492.4019195956, 1511.0732526806798, 1821.48159010064, 2872.5766981064403, 2954.7951133427996, 2967.9316562599597, 2997.0614079873994, 3007.2108122903596, 3014.4829497442397, 3050.8230360576795, 3104.4610583922]

>  <E0_kJmol>  (2) 
-807523

>  <H298_kJmol>  (2) 
-807501

$$$$

     RDKit          3D

 23 21  0  0  0  0  0  0  0  0999 V2000
    1.0813   -0.6537   -2.7666 C   0  0  0  0  0  0  0  0  0  1  0  0
    1.6244   -1.1126   -1.7078 C   0  0  0  0  0  0  0  0  0  2  0  0
    2.1151   -1.5077   -0.5506 C   0  0  0  0  0  3  0  0  0  3  0  0
    1.4225   -2.4662    0.3731 C   0  0  0  0  0  0  0  0  0  4  0  0
    0.3416    0.4656   -2.6091 H   0  0  0  0  0  0  0  0  0  5  0  0
    1.1024   -1.0158   -3.7834 H   0  0  0  0  0  0  0  0  0  6  0  0
    3.0983   -1.1486   -0.2618 H   0  0  0  0  0  0  0  0  0  7  0  0
    1.9473   -3.4246    0.4091 H   0  0  0  0  0  0  0  0  0  8  0  0
    0.3958   -2.6521    0.0590 H   0  0  0  0  0  0  0  0  0  9  0  0
    1.4058   -2.0788    1.3956 H   0  0  0  0  0  0  0  0  0 10  0  0
   -0.3531    1.5365   -2.1920 C   0  0  0  0  0  0  0  0  0 11  0  0
   -0.2224    1.5594   -0.8310 O   0  0  0  0  0  0  0  0  0 12  0  0
   -0.9875    0.5749   -0.1610 C   0  0  0  0  0  0  0  0  0 13  0  0
   -0.4893    0.4996    1.2624 C   0  0  0  0  0  0  0  0  0 14  0  0
   -1.1661   -0.5548    2.0848 C   0  0  0  0  0  0  0  0  0 15  0  0
   -2.0229   -1.2932    1.6818 O   0  0  0  0  0  0  0  0  0 16  0  0
   -1.3739    1.3745   -2.5519 H   0  0  0  0  0  0  0  0  0 17  0  0
    0.1407    2.3983   -2.6336 H   0  0  0  0  0  0  0  0  0 18  0  0
   -0.8705   -0.3944   -0.6532 H   0  0  0  0  0  0  0  0  0 19  0  0
   -2.0504    0.8405   -0.1942 H   0  0  0  0  0  0  0  0  0 20  0  0
    0.5864    0.2904    1.2670 H   0  0  0  0  0  0  0  0  0 21  0  0
   -0.6060    1.4607    1.7745 H   0  0  0  0  0  0  0  0  0 22  0  0
   -0.8141   -0.6241    3.1350 H   0  0  0  0  0  0  0  0  0 23  0  0
  1  6  1  0
  1  2  1  0
  2  3  1  0
  3  4  1  0
  3  7  1  0
  4 10  1  0
  4  9  1  0
  4  8  1  0
  5 11  1  0
 11 12  1  0
 11 17  1  0
 11 18  1  0
 12 13  1  0
 13 19  1  0
 13 20  1  0
 13 14  1  0
 14 15  1  0
 14 22  1  0
 14 21  1  0
 15 16  1  0
 15 23  1  0
M  RAD  1   3   2
M  END
>  <rmg_smiles>  (3) 
COCC[CH]O.[CH]C[CH]C

>  <rmg_adjacency_list>  (3) 
multiplicity 2
1  O u0 p2 c0 {4,S} {6,S}
2  O u0 p2 c0 {8,S}
3  C u0 p0 c0 {4,S} {8,S} {11,S} {12,S}
4  C u0 p0 c0 {1,S} {3,S} {13,S} {14,S}
5  C u0 p0 c0 {7,S} {15,S} {16,S} {17,S}
6  C u0 p0 c0 {1,S} {18,S} {19,S} {20,S}
7  C u1 p0 c0 {5,S} {9,S} {21,S}
8  C u0 p0 c0 {2,S} {3,S} {22,S}
9  C u0 p1 c0 {7,S} {10,S}
10 C u0 p1 c0 {9,S} {23,S}
11 H u0 p0 c0 {3,S}
12 H u0 p0 c0 {3,S}
13 H u0 p0 c0 {4,S}
14 H u0 p0 c0 {4,S}
15 H u0 p0 c0 {5,S}
16 H u0 p0 c0 {5,S}
17 H u0 p0 c0 {5,S}
18 H u0 p0 c0 {6,S}
19 H u0 p0 c0 {6,S}
20 H u0 p0 c0 {6,S}
21 H u0 p0 c0 {7,S}
22 H u0 p0 c0 {8,S}
23 H u0 p0 c0 {10,S}


>  <multiplicity>  (3) 
2

>  <reaction>  (3) 
rmg_rxn_14073

>  <type>  (3) 
ts

>  <role_mapnums>  (3) 
{"*2": 5, "*1": 1, "*3": 11, "*0": 12, "*4": 2}

>  <role_mapidx>  (3) 
{"*2": 4, "*1": 0, "*3": 10, "*0": 11, "*4": 1}

>  <ordered_mapped_smiles>  (3) 
[CH2:1]([CH2:2][C:3]([C:4]([H:8])([H:9])[H:10])[H:7])[H:6].[H:5][C:11]([O:12][C:13]([C:14]([CH:15]([OH:16])[H:23])([H:21])[H:22])([H:19])[H:20])([H:17])[H:18]

>  <mol_properties>  (3) 
{"0": {"label": "*1", "atom_type": "C2s"}, "1": {"label": "*4", "atom_type": "C2s"}, "4": {"label": "*2", "atom_type": "H0"}, "10": {"label": "*3", "atom_type": "Cs"}, "11": {"label": "*0", "atom_type": "O2s"}}

>  <level_of_theory>  (3) 
wb97xd/def2tzvp

>  <lot_method>  (3) 
wb97xd

>  <lot_basis>  (3) 
def2tzvp

>  <spin_multiplicity>  (3) 
2.0

>  <optical_isomers>  (3) 
2.0

>  <modes>  (3) 
IdealGasTranslation(mass=(141.092, 'amu')),         NonlinearRotor(             inertia = ([387.415, 524.214, 801.222

>  <frequency_value>  (3) 
-1724.07

>  <frequency_units>  (3) 
cm^-1

>  <frequency_list>  (3) 
unknown

>  <arkane_path>  (3) 
/home/calvin/Dropbox/PersonalFolders/Calvin/ZEUS_Converged/rmg_rxn_14073/output/rxns/TS0/arkane/output.py

>  <path_exists>  (3) 
True

>  <E0_value>  (3) 
-1215060.0

>  <E0_units>  (3) 
kJ/mol

>  <thermo_class>  (3) 
unknown

>  <Cp0_value>  (3) 
unknown

>  <Cp0_units>  (3) 
unknown

>  <CpInf_value>  (3) 
unknown

>  <CpInf_units>  (3) 
unknown

>  <Tmin_value>  (3) 
unknown

>  <Tmin_units>  (3) 
unknown

>  <Tmax_value>  (3) 
unknown

>  <Tmax_units>  (3) 
unknown

>  <polynomials>  (3) 
unknown

>  <H298_value>  (3) 
unknown

>  <H298_units>  (3) 
unknown

>  <S298_value>  (3) 
unknown

>  <S298_units>  (3) 
unknown

>  <Cp_T_value_list>  (3) 
unknown

>  <Cp_T_units>  (3) 
unknown

>  <T_list>  (3) 
unknown

>  <T_units>  (3) 
unknown

>  <yaml_path>  (3) 
unknown

>  <frequencies_cm1>  (3) 
unknown

>  <ZPE_kJmol>  (3) 
unknown

>  <E_elec_kJmol>  (3) 
unknown

>  <E0_minus_Eelec_plus_ZPE_kJmol>  (3) 
unknown

>  <rxn>  (3) 
unknown

>  <species_type>  (3) 
unknown

>  <species_folder>  (3) 
unknown

>  <frequencies_cm1_list>  (3) 
[]

>  <ts_imag_freq_cm1>  (3) 
-1745.0138

>  <ts_freq_out_path>  (3) 
/home/calvin/Dropbox/PersonalFolders/Calvin/ZEUS_Converged/rmg_rxn_14073/output/rxns/TS0/geometry/freq.out

>  <E0_kJmol>  (3) 
-1.21506e+06

>  <H298_kJmol>  (3) 
unknown

$$$$

     RDKit          3D

  9  8  0  0  0  0  0  0  0  0999 V2000
    2.3032   -0.0159    0.1474 C   0  0  0  0  0  0  0  0  0  1  0  0
    1.1288    0.2882    0.0537 C   0  0  0  0  0  0  0  0  0  2  0  0
   -0.1975    0.6198   -0.0514 C   0  0  0  0  0  3  0  0  0  3  0  0
   -1.2977   -0.3866   -0.0637 C   0  0  0  0  0  0  0  0  0  4  0  0
    3.3305   -0.2768    0.2290 H   0  0  0  0  0  0  0  0  0  5  0  0
   -0.4545    1.6699   -0.1294 H   0  0  0  0  0  0  0  0  0  6  0  0
   -1.9941   -0.2122    0.7624 H   0  0  0  0  0  0  0  0  0  7  0  0
   -0.9106   -1.4008    0.0205 H   0  0  0  0  0  0  0  0  0  8  0  0
   -1.8810   -0.3144   -0.9870 H   0  0  0  0  0  0  0  0  0  9  0  0
  1  5  1  0
  1  2  1  0
  2  3  1  0
  3  4  1  0
  3  6  1  0
  4  8  1  0
  4  9  1  0
  4  7  1  0
M  RAD  1   3   2
M  END
>  <rmg_smiles>  (4) 
[CH]C[CH]C

>  <rmg_adjacency_list>  (4) 
multiplicity 2
1 C u0 p0 c0 {2,S} {5,S} {6,S} {7,S}
2 C u1 p0 c0 {1,S} {3,S} {8,S}
3 C u0 p1 c0 {2,S} {4,S}
4 C u0 p1 c0 {3,S} {9,S}
5 H u0 p0 c0 {1,S}
6 H u0 p0 c0 {1,S}
7 H u0 p0 c0 {1,S}
8 H u0 p0 c0 {2,S}
9 H u0 p0 c0 {4,S}


>  <multiplicity>  (4) 
2

>  <reaction>  (4) 
rmg_rxn_14073

>  <type>  (4) 
r1

>  <role_mapnums>  (4) 
{}

>  <role_mapidx>  (4) 
{}

>  <ordered_mapped_smiles>  (4) 
[CH2:1]([CH2:2][C:3]([C:4]([H:7])([H:8])[H:9])[H:6])[H:5]

>  <level_of_theory>  (4) 
wb97xd/def2tzvp

>  <lot_method>  (4) 
wb97xd

>  <lot_basis>  (4) 
def2tzvp

>  <spin_multiplicity>  (4) 
2.0

>  <optical_isomers>  (4) 
1.0

>  <modes>  (4) 
IdealGasTranslation(mass=(53.0391, 'amu')),         NonlinearRotor(             inertia = ([13.0163, 113.224, 123.133

>  <frequency_value>  (4) 
unknown

>  <frequency_units>  (4) 
unknown

>  <frequency_list>  (4) 
unknown

>  <arkane_path>  (4) 
/home/calvin/Dropbox/PersonalFolders/Calvin/ZEUS_Converged/rmg_rxn_14073/output/Species/rmg_rxn_14073_p1_CtCsbr-CH-sbrC/arkane/output.py

>  <path_exists>  (4) 
True

>  <E0_value>  (4) 
-407611.0178676695

>  <E0_units>  (4) 
kJ/mol

>  <thermo_class>  (4) 
NASA

>  <Cp0_value>  (4) 
33.257888

>  <Cp0_units>  (4) 
J/(mol*K)

>  <CpInf_value>  (4) 
207.8618

>  <CpInf_units>  (4) 
J/(mol*K)

>  <Tmin_value>  (4) 
10.0

>  <Tmin_units>  (4) 
K

>  <Tmax_value>  (4) 
3000.0

>  <Tmax_units>  (4) 
K

>  <polynomials>  (4) 
[{"name": "polynomial1", "class": "NASAPolynomial", "Tmin_value": 10.0, "Tmin_units": "K", "Tmax_value": 225.11887521318957, "Tmax_units": "K", "coeffs": [3.926630915296947, 0.006749895207816258, 0.00012836532533525932, -4.255246557274593e-07, 4.774973939090027e-10, -49024283.36301313, 9.039132667777825]}, {"name": "polynomial2", "class": "NASAPolynomial", "Tmin_value": 225.11887521318957, "Tmin_units": "K", "Tmax_value": 3000.0, "Tmax_units": "K", "coeffs": [2.6986748332678068, 0.028568074177661083, -1.700823692128483e-05, 4.972064259878094e-09, -5.660420030452739e-13, -49024228.07421419, 13.132307964760544]}]

>  <H298_value>  (4) 
-97417.4250763192

>  <H298_units>  (4) 
kcal/mol

>  <S298_value>  (4) 
72.15097842486317

>  <S298_units>  (4) 
cal/(mol*K)

>  <Cp_T_value_list>  (4) 
[19.60978665647869, 23.26682584091865, 26.463197946296326, 29.246037785772845, 33.74616181148779, 37.09028399063582, 42.12357583735745, 44.755303495765276, 46.19958894045869]

>  <Cp_T_units>  (4) 
cal/(mol*K)

>  <T_list>  (4) 
[300.0, 400.0, 500.0, 600.0, 800.0, 1000.0, 1500.0, 2000.0, 2400.0]

>  <T_units>  (4) 
K

>  <yaml_path>  (4) 
/home/calvin/Dropbox/PersonalFolders/Calvin/ZEUS_Converged/rmg_rxn_14073/output/Species/rmg_rxn_14073_p1_CtCsbr-CH-sbrC/rmg_rxn_14073_p1_CtCsbr-CH-sbrC.yml

>  <frequencies_cm1>  (4) 
[83.48880752056, 211.55808373855996, 392.1460636839199, 478.7318815838, 554.46786267808, 595.8689171723599, 660.0408949877599, 865.1234115695598, 998.98842339764, 1092.3794237496397, 1143.5041294570399, 1380.42198998236, 1394.47184194708, 1461.2464071987597, 1480.32289241772, 2005.2901861610799, 2994.3489487859997, 3043.5921005157197, 3109.5494945143196, 3150.5453968747197, 3427.4428459330793]

>  <ZPE_kJmol>  (4) 
182.57130571804632

>  <E_elec_kJmol>  (4) 
-407793.5891733875

>  <E0_minus_Eelec_plus_ZPE_kJmol>  (4) 
0.0

>  <rxn>  (4) 
rmg_rxn_14073

>  <species_type>  (4) 
p0

>  <species_folder>  (4) 
rmg_rxn_14073_p1_CtCsbr-CH-sbrC

>  <frequencies_cm1_list>  (4) 
[83.48880752056, 211.55808373855996, 392.1460636839199, 478.7318815838, 554.46786267808, 595.8689171723599, 660.0408949877599, 865.1234115695598, 998.98842339764, 1092.3794237496397, 1143.5041294570399, 1380.42198998236, 1394.47184194708, 1461.2464071987597, 1480.32289241772, 2005.2901861610799, 2994.3489487859997, 3043.5921005157197, 3109.5494945143196, 3150.5453968747197, 3427.4428459330793]

>  <E0_kJmol>  (4) 
-407611

>  <H298_kJmol>  (4) 
-407595

$$$$

     RDKit          3D

 13 12  0  0  0  0  0  0  0  0999 V2000
    2.2389    0.7017    0.3130 C   0  0  0  0  0  3  0  0  0  1  0  0
    0.9433    0.8223   -0.0376 O   0  0  0  0  0  0  0  0  0  2  0  0
    0.4736    2.1521   -0.1615 C   0  0  0  0  0  0  0  0  0  3  0  0
   -0.9782    2.0920   -0.5770 C   0  0  0  0  0  0  0  0  0  4  0  0
   -1.6070    3.4420   -0.7601 C   0  0  0  0  0  0  0  0  0  5  0  0
   -1.0369    4.4869   -0.6064 O   0  0  0  0  0  0  0  0  0  6  0  0
    2.5950   -0.3170    0.3352 H   0  0  0  0  0  0  0  0  0  7  0  0
    2.9060    1.5360    0.1249 H   0  0  0  0  0  0  0  0  0  8  0  0
    1.0668    2.6899   -0.9083 H   0  0  0  0  0  0  0  0  0  9  0  0
    0.5827    2.6771    0.7919 H   0  0  0  0  0  0  0  0  0 10  0  0
   -1.0904    1.5380   -1.5153 H   0  0  0  0  0  0  0  0  0 11  0  0
   -1.5701    1.5405    0.1613 H   0  0  0  0  0  0  0  0  0 12  0  0
   -2.6749    3.4222   -1.0597 H   0  0  0  0  0  0  0  0  0 13  0  0
  1  8  1  0
  1  7  1  0
  1  2  1  0
  2  3  1  0
  3  4  1  0
  3  9  1  0
  3 10  1  0
  4  5  1  0
  4 12  1  0
  4 11  1  0
  5  6  1  0
  5 13  1  0
M  RAD  1   1   2
M  END
>  <rmg_smiles>  (5) 
[CH2]OCC[CH]O

>  <rmg_adjacency_list>  (5) 
multiplicity 2
1  O u0 p2 c0 {4,S} {6,S}
2  O u0 p2 c0 {5,S}
3  C u0 p0 c0 {4,S} {5,S} {7,S} {8,S}
4  C u0 p0 c0 {1,S} {3,S} {9,S} {10,S}
5  C u0 p0 c0 {2,S} {3,S} {11,S}
6  C u1 p0 c0 {1,S} {12,S} {13,S}
7  H u0 p0 c0 {3,S}
8  H u0 p0 c0 {3,S}
9  H u0 p0 c0 {4,S}
10 H u0 p0 c0 {4,S}
11 H u0 p0 c0 {5,S}
12 H u0 p0 c0 {6,S}
13 H u0 p0 c0 {6,S}


>  <multiplicity>  (5) 
2

>  <reaction>  (5) 
rmg_rxn_14073

>  <type>  (5) 
r2

>  <role_mapnums>  (5) 
{}

>  <role_mapidx>  (5) 
{}

>  <ordered_mapped_smiles>  (5) 
[C:1]([O:2][C:3]([C:4]([CH:5]([OH:6])[H:13])([H:11])[H:12])([H:9])[H:10])([H:7])[H:8]

>  <level_of_theory>  (5) 
wb97xd/def2tzvp

>  <lot_method>  (5) 
wb97xd

>  <lot_basis>  (5) 
def2tzvp

>  <spin_multiplicity>  (5) 
2.0

>  <optical_isomers>  (5) 
2.0

>  <modes>  (5) 
IdealGasTranslation(mass=(87.0446, 'amu')),         NonlinearRotor(             inertia = ([39.3973, 312.178, 345.105

>  <frequency_value>  (5) 
unknown

>  <frequency_units>  (5) 
unknown

>  <frequency_list>  (5) 
unknown

>  <arkane_path>  (5) 
/home/calvin/Dropbox/PersonalFolders/Calvin/ZEUS_Converged/rmg_rxn_14073/output/Species/rmg_rxn_14073_r2_sbr-CH2-sbrOCCC=O/arkane/output.py

>  <path_exists>  (5) 
True

>  <E0_value>  (5) 
-805813.0942219706

>  <E0_units>  (5) 
kJ/mol

>  <thermo_class>  (5) 
NASA

>  <Cp0_value>  (5) 
33.257888

>  <Cp0_units>  (5) 
J/(mol*K)

>  <CpInf_value>  (5) 
307.635464

>  <CpInf_units>  (5) 
J/(mol*K)

>  <Tmin_value>  (5) 
10.0

>  <Tmin_units>  (5) 
K

>  <Tmax_value>  (5) 
3000.0

>  <Tmax_units>  (5) 
K

>  <polynomials>  (5) 
[{"name": "polynomial1", "class": "NASAPolynomial", "Tmin_value": 10.0, "Tmin_units": "K", "Tmax_value": 414.6583286272444, "Tmax_units": "K", "coeffs": [3.5213955153033742, 0.04950404286745499, -0.00011628352768887289, 2.7743390074715546e-07, -2.402472941983462e-10, -96916927.6005055, 12.199171526820466]}, {"name": "polynomial2", "class": "NASAPolynomial", "Tmin_value": 414.6583286272444, "Tmin_units": "K", "Tmax_value": 3000.0, "Tmax_units": "K", "coeffs": [1.4929641498847677, 0.04711565325611982, -2.8220538080782138e-05, 8.15817678604303e-09, -9.127599307789776e-13, -96916570.62495346, 22.475574150745093]}]

>  <H298_value>  (5) 
-192588.6710645513

>  <H298_units>  (5) 
kcal/mol

>  <S298_value>  (5) 
87.08637821339352

>  <S298_units>  (5) 
cal/(mol*K)

>  <Cp_T_value_list>  (5) 
[26.731510611051267, 32.4373448969841, 37.67421769324967, 42.221848424568755, 49.5360153930085, 54.91346325400621, 62.762405651918456, 66.57812208990578, 68.58979288190937]

>  <Cp_T_units>  (5) 
cal/(mol*K)

>  <T_list>  (5) 
[300.0, 400.0, 500.0, 600.0, 800.0, 1000.0, 1500.0, 2000.0, 2400.0]

>  <T_units>  (5) 
K

>  <yaml_path>  (5) 
/home/calvin/Dropbox/PersonalFolders/Calvin/ZEUS_Converged/rmg_rxn_14073/output/Species/rmg_rxn_14073_r2_sbr-CH2-sbrOCCC=O/rmg_rxn_14073_r2_sbr-CH2-sbrOCCC=O.yml

>  <frequencies_cm1>  (5) 
[80.60467368615998, 88.38496805372, 151.38955836472002, 173.47378315383997, 276.47169596852, 308.33450785331996, 451.06479772951997, 539.39482990068, 678.3894797627999, 693.0024245237599, 889.8926276188, 911.8875815987599, 1010.22281138116, 1095.8472513362399, 1123.5074682051998, 1202.08638122196, 1221.6229544573598, 1296.50742937196, 1300.0576607823998, 1325.6028461728001, 1408.20581258708, 1416.80327820772, 1451.6738296626797, 1476.58725240364, 1502.1805066912798, 1822.3811651775598, 2879.2926097493996, 3002.54812925808, 3016.6323161493997, 3039.33456961732, 3059.7501169736797, 3097.4567333657997, 3244.59562781744]

>  <ZPE_kJmol>  (5) 
270.56658511886525

>  <E_elec_kJmol>  (5) 
-806083.6608070895

>  <E0_minus_Eelec_plus_ZPE_kJmol>  (5) 
0.0

>  <rxn>  (5) 
rmg_rxn_14073

>  <species_type>  (5) 
r1

>  <species_folder>  (5) 
rmg_rxn_14073_r2_sbr-CH2-sbrOCCC=O

>  <frequencies_cm1_list>  (5) 
[80.60467368615998, 88.38496805372, 151.38955836472002, 173.47378315383997, 276.47169596852, 308.33450785331996, 451.06479772951997, 539.39482990068, 678.3894797627999, 693.0024245237599, 889.8926276188, 911.8875815987599, 1010.22281138116, 1095.8472513362399, 1123.5074682051998, 1202.08638122196, 1221.6229544573598, 1296.50742937196, 1300.0576607823998, 1325.6028461728001, 1408.20581258708, 1416.80327820772, 1451.6738296626797, 1476.58725240364, 1502.1805066912798, 1822.3811651775598, 2879.2926097493996, 3002.54812925808, 3016.6323161493997, 3039.33456961732, 3059.7501169736797, 3097.4567333657997, 3244.59562781744]

>  <E0_kJmol>  (5) 
-805813

>  <H298_kJmol>  (5) 
-805791

$$$$
