
     RDKit          3D

 18 17  0  0  0  0  0  0  0  0999 V2000
    0.8673   -1.8283   -1.5399 C   0  0  0  0  0  0  0  0  0  1  0  0
    0.7642   -1.8491   -0.0206 C   0  0  0  0  0  0  0  0  0  2  0  0
    0.7853   -0.4661    0.5971 C   0  0  0  0  0  0  0  0  0  3  0  0
   -0.3389    0.2556    0.1589 O   0  0  0  0  0  0  0  0  0  4  0  0
   -0.3889    1.5654    0.6613 C   0  0  0  0  0  0  0  0  0  5  0  0
   -1.6273    2.2390    0.1537 C   0  0  0  0  0  0  0  0  0  6  0  0
    1.7948   -1.3478   -1.8610 H   0  0  0  0  0  0  0  0  0  7  0  0
    0.0351   -1.2759   -1.9761 H   0  0  0  0  0  0  0  0  0  8  0  0
    0.8561   -2.8402   -1.9476 H   0  0  0  0  0  0  0  0  0  9  0  0
    1.5942   -2.4196    0.4053 H   0  0  0  0  0  0  0  0  0 10  0  0
   -0.1562   -2.3525    0.2863 H   0  0  0  0  0  0  0  0  0 11  0  0
    1.7065    0.0637    0.3076 H   0  0  0  0  0  0  0  0  0 12  0  0
    0.7795   -0.5380    1.6944 H   0  0  0  0  0  0  0  0  0 13  0  0
   -0.3866    1.5512    1.7616 H   0  0  0  0  0  0  0  0  0 14  0  0
    0.5084    2.1230    0.3453 H   0  0  0  0  0  0  0  0  0 15  0  0
   -2.4728    1.6803    0.5507 H   0  0  0  0  0  0  0  0  0 16  0  0
   -1.7405    2.1879   -0.9275 H   0  0  0  0  0  0  0  0  0 17  0  0
   -1.7559    3.2508    0.5335 H   0  0  0  0  0  0  0  0  0 18  0  0
  1  8  1  0
  1  7  1  0
  1  9  1  0
  1  2  1  0
  2 10  1  0
  2 11  1  0
  2  3  1  0
  3  4  1  0
  3 13  1  0
  3 12  1  0
  4  5  1  0
  5  6  1  0
  5 14  1  0
  5 15  1  0
  6 17  1  0
  6 18  1  0
  6 16  1  0
M  END
>  <rmg_smiles>  (1) 
CCCOCC

>  <rmg_adjacency_list>  (1) 
1  O u0 p2 c0 {3,S} {4,S}
2  C u0 p0 c0 {3,S} {5,S} {7,S} {8,S}
3  C u0 p0 c0 {1,S} {2,S} {9,S} {10,S}
4  C u0 p0 c0 {1,S} {6,S} {11,S} {12,S}
5  C u0 p0 c0 {2,S} {13,S} {14,S} {15,S}
6  C u0 p0 c0 {4,S} {16,S} {17,S} {18,S}
7  H u0 p0 c0 {2,S}
8  H u0 p0 c0 {2,S}
9  H u0 p0 c0 {3,S}
10 H u0 p0 c0 {3,S}
11 H u0 p0 c0 {4,S}
12 H u0 p0 c0 {4,S}
13 H u0 p0 c0 {5,S}
14 H u0 p0 c0 {5,S}
15 H u0 p0 c0 {5,S}
16 H u0 p0 c0 {6,S}
17 H u0 p0 c0 {6,S}
18 H u0 p0 c0 {6,S}


>  <multiplicity>  (1) 
1

>  <reaction>  (1) 
rmg_rxn_3138

>  <type>  (1) 
r1h

>  <role_mapnums>  (1) 
{"r1h_a": 6, "r1h_h": 16}

>  <role_mapidx>  (1) 
{"r1h_a": 5, "r1h_h": 15}

>  <ordered_mapped_smiles>  (1) 
[C:1]([C:2]([C:3]([O:4][C:5]([C:6]([H:16])([H:17])[H:18])([H:14])[H:15])([H:12])[H:13])([H:10])[H:11])([H:7])([H:8])[H:9]

>  <mol_properties>  (1) 
{"5": {"label": "donator", "atom_type": "Cs"}, "15": {"label": "d_hydrogen", "atom_type": "H0"}}

>  <level_of_theory>  (1) 
wb97xd/def2tzvp

>  <lot_method>  (1) 
wb97xd

>  <lot_basis>  (1) 
def2tzvp

>  <spin_multiplicity>  (1) 
1.0

>  <optical_isomers>  (1) 
2.0

>  <modes>  (1) 
IdealGasTranslation(mass=(88.0888, 'amu')),         NonlinearRotor(             inertia = ([59.5652, 317.445, 349.634

>  <frequency_value>  (1) 
unknown

>  <frequency_units>  (1) 
unknown

>  <frequency_list>  (1) 
unknown

>  <arkane_path>  (1) 
/home/calvin/Dropbox/PersonalFolders/Calvin/ATLAS_Converged/rmg_rxn_3138/output/Species/rmg_rxn_3138_r2_CCCOCC/arkane/output.py

>  <path_exists>  (1) 
True

>  <E0_value>  (1) 
-716327.3605709573

>  <E0_units>  (1) 
kJ/mol

>  <thermo_class>  (1) 
NASA

>  <Cp0_value>  (1) 
33.257888

>  <Cp0_units>  (1) 
J/(mol*K)

>  <CpInf_value>  (1) 
432.352544

>  <CpInf_units>  (1) 
J/(mol*K)

>  <Tmin_value>  (1) 
10.0

>  <Tmin_units>  (1) 
K

>  <Tmax_value>  (1) 
3000.0

>  <Tmax_units>  (1) 
K

>  <polynomials>  (1) 
[{"name": "polynomial1", "class": "NASAPolynomial", "Tmin_value": 10.0, "Tmin_units": "K", "Tmax_value": 424.14701041358796, "Tmax_units": "K", "coeffs": [3.4707042336928127, 0.05746545203879795, -0.00016719847115372115, 4.780470157694204e-07, -4.3347206706639054e-10, -86154279.58985142, 11.635447004604476]}, {"name": "polynomial2", "class": "NASAPolynomial", "Tmin_value": 424.14701041358796, "Tmin_units": "K", "Tmax_value": 3000.0, "Tmax_units": "K", "coeffs": [-2.8535624465972114, 0.06921008708460846, -3.934323609424939e-05, 1.0841890934368647e-08, -1.163418506360095e-12, -86153312.26572455, 41.80111524234505]}]

>  <H298_value>  (1) 
-171200.6815246165

>  <H298_units>  (1) 
kcal/mol

>  <S298_value>  (1) 
88.37399878129293

>  <S298_units>  (1) 
cal/(mol*K)

>  <Cp_T_value_list>  (1) 
[29.924593767526826, 38.16083070533892, 46.09960348181722, 53.05840207682852, 64.40406715451496, 72.91410593462665, 85.72980278110597, 92.03567805993791, 95.21197800865355]

>  <Cp_T_units>  (1) 
cal/(mol*K)

>  <T_list>  (1) 
[300.0, 400.0, 500.0, 600.0, 800.0, 1000.0, 1500.0, 2000.0, 2400.0]

>  <T_units>  (1) 
K

>  <yaml_path>  (1) 
/home/calvin/Dropbox/PersonalFolders/Calvin/ATLAS_Converged/rmg_rxn_3138/output/Species/rmg_rxn_3138_r2_CCCOCC/rmg_rxn_3138_r2_CCCOCC.yml

>  <frequencies_cm1>  (1) 
[76.60808822992, 85.88538539723999, 152.39213822143998, 171.44115549912, 250.05440344247998, 256.05614861216003, 329.51915756551995, 440.0707542322, 493.7774464199199, 767.98990421816, 823.02879155796, 891.3896304185598, 900.4815189822399, 929.41899512072, 1002.9850088538799, 1082.00340893112, 1102.9065122452, 1152.52734816752, 1174.9617892079598, 1182.44680320676, 1190.2339645596398, 1270.1176047871998, 1295.23017010244, 1305.6473868328799, 1368.30176089256, 1380.4425909383199, 1399.7456866728398, 1405.4521514737598, 1443.92787022172, 1468.7794900948002, 1470.37949767436, 1482.5752636026798, 1487.2448136202797, 1494.6336898246, 1500.58049911172, 1519.49904366832, 2928.8997117010795, 2942.5512785172396, 2962.4655359452395, 2968.54281795344, 3015.14904732028, 3021.7276192568397, 3024.0692612509597, 3058.7338031463196, 3085.2403664815197, 3101.8035350733594, 3104.27564978856, 3105.2988306012394]

>  <ZPE_kJmol>  (1) 
431.0594598774012

>  <E_elec_kJmol>  (1) 
-716758.4200308347

>  <E0_minus_Eelec_plus_ZPE_kJmol>  (1) 
0.0

>  <rxn>  (1) 
rmg_rxn_3138

>  <species_type>  (1) 
r1

>  <species_folder>  (1) 
rmg_rxn_3138_r2_CCCOCC

>  <frequencies_cm1_list>  (1) 
[76.60808822992, 85.88538539723999, 152.39213822143998, 171.44115549912, 250.05440344247998, 256.05614861216003, 329.51915756551995, 440.0707542322, 493.7774464199199, 767.98990421816, 823.02879155796, 891.3896304185598, 900.4815189822399, 929.41899512072, 1002.9850088538799, 1082.00340893112, 1102.9065122452, 1152.52734816752, 1174.9617892079598, 1182.44680320676, 1190.2339645596398, 1270.1176047871998, 1295.23017010244, 1305.6473868328799, 1368.30176089256, 1380.4425909383199, 1399.7456866728398, 1405.4521514737598, 1443.92787022172, 1468.7794900948002, 1470.37949767436, 1482.5752636026798, 1487.2448136202797, 1494.6336898246, 1500.58049911172, 1519.49904366832, 2928.8997117010795, 2942.5512785172396, 2962.4655359452395, 2968.54281795344, 3015.14904732028, 3021.7276192568397, 3024.0692612509597, 3058.7338031463196, 3085.2403664815197, 3101.8035350733594, 3104.27564978856, 3105.2988306012394]

>  <E0_kJmol>  (1) 
-716327

>  <H298_kJmol>  (1) 
-716304

$$$$

     RDKit          3D

  4  3  0  0  0  0  0  0  0  0999 V2000
   -0.0186   -0.0127    0.0104 C   0  0  0  0  0  3  0  0  0  1  0  0
    0.1469   -1.0819    0.0205 H   0  0  0  0  0  0  0  0  0  2  0  0
   -0.9043    0.4764    0.3957 H   0  0  0  0  0  0  0  0  0  3  0  0
    0.7666    0.5935   -0.4226 H   0  0  0  0  0  0  0  0  0  4  0  0
  1  3  1  0
  1  4  1  0
  1  2  1  0
M  RAD  1   1   2
M  END
>  <rmg_smiles>  (2) 
[CH3]

>  <rmg_adjacency_list>  (2) 
multiplicity 2
1 C u1 p0 c0 {2,S} {3,S} {4,S}
2 H u0 p0 c0 {1,S}
3 H u0 p0 c0 {1,S}
4 H u0 p0 c0 {1,S}


>  <multiplicity>  (2) 
2

>  <reaction>  (2) 
rmg_rxn_3138

>  <type>  (2) 
r2h

>  <role_mapnums>  (2) 
{"r2h_a": 1, "r2h_h": 4}

>  <role_mapidx>  (2) 
{"r2h_a": 0, "r2h_h": 3}

>  <ordered_mapped_smiles>  (2) 
[C:1]([H:2])([H:3])[H:4]

>  <mol_properties>  (2) 
{"0": {"label": "acceptor", "atom_type": "Cs"}, "3": {"label": "a_hydrogen", "atom_type": "H0"}}

>  <level_of_theory>  (2) 
wb97xd/def2tzvp

>  <lot_method>  (2) 
wb97xd

>  <lot_basis>  (2) 
def2tzvp

>  <spin_multiplicity>  (2) 
2.0

>  <optical_isomers>  (2) 
1.0

>  <modes>  (2) 
IdealGasTranslation(mass=(15.0235, 'amu')),         NonlinearRotor(             inertia = ([1.76141, 1.76141, 3.52282

>  <frequency_value>  (2) 
unknown

>  <frequency_units>  (2) 
unknown

>  <frequency_list>  (2) 
unknown

>  <arkane_path>  (2) 
/home/calvin/Dropbox/PersonalFolders/Calvin/ATLAS_Converged/rmg_rxn_3138/output/Species/rmg_rxn_3138_p1_sbr-CH3-sbr/arkane/output.py

>  <path_exists>  (2) 
True

>  <E0_value>  (2) 
-104520.13119505523

>  <E0_units>  (2) 
kJ/mol

>  <thermo_class>  (2) 
NASA

>  <Cp0_value>  (2) 
33.257888

>  <Cp0_units>  (2) 
J/(mol*K)

>  <CpInf_value>  (2) 
83.14472

>  <CpInf_units>  (2) 
J/(mol*K)

>  <Tmin_value>  (2) 
10.0

>  <Tmin_units>  (2) 
K

>  <Tmax_value>  (2) 
3000.0

>  <Tmax_units>  (2) 
K

>  <polynomials>  (2) 
[{"name": "polynomial1", "class": "NASAPolynomial", "Tmin_value": 10.0, "Tmin_units": "K", "Tmax_value": 646.7595511850164, "Tmax_units": "K", "coeffs": [3.9912257858476514, 0.00042746838227036415, 9.381039991476058e-06, -1.0944339285143208e-08, 4.263092042587705e-12, -12570867.748455517, 0.20527880717700853]}, {"name": "polynomial2", "class": "NASAPolynomial", "Tmin_value": 646.7595511850164, "Tmin_units": "K", "Tmax_value": 3000.0, "Tmax_units": "K", "coeffs": [3.248853600439243, 0.005018843892609398, -1.2676259453269182e-06, 3.2190850906026965e-11, 2.015866016283914e-14, -12570771.722075555, 3.4632772013773527]}]

>  <H298_value>  (2) 
-24978.38329133143

>  <H298_units>  (2) 
kcal/mol

>  <S298_value>  (2) 
46.49953999396712

>  <S298_units>  (2) 
cal/(mol*K)

>  <Cp_T_value_list>  (2) 
[9.345422381427998, 10.078866905578547, 10.827534708529729, 11.55242757481392, 12.87190518277653, 14.014616975507817, 16.16723326452146, 17.479673013416814, 18.09624915803834]

>  <Cp_T_units>  (2) 
cal/(mol*K)

>  <T_list>  (2) 
[300.0, 400.0, 500.0, 600.0, 800.0, 1000.0, 1500.0, 2000.0, 2400.0]

>  <T_units>  (2) 
K

>  <yaml_path>  (2) 
/home/calvin/Dropbox/PersonalFolders/Calvin/ATLAS_Converged/rmg_rxn_3138/output/Species/rmg_rxn_3138_p1_sbr-CH3-sbr/rmg_rxn_3138_p1_sbr-CH3-sbr.yml

>  <frequencies_cm1>  (2) 
[520.22220688724, 1393.4280601784399, 1393.43492716376, 3088.8592677451597, 3268.6163424668, 3268.6232094521197]

>  <ZPE_kJmol>  (2) 
77.35764153782172

>  <E_elec_kJmol>  (2) 
-104597.48883659308

>  <E0_minus_Eelec_plus_ZPE_kJmol>  (2) 
0.0

>  <rxn>  (2) 
rmg_rxn_3138

>  <species_type>  (2) 
p0

>  <species_folder>  (2) 
rmg_rxn_3138_p1_sbr-CH3-sbr

>  <frequencies_cm1_list>  (2) 
[520.22220688724, 1393.4280601784399, 1393.43492716376, 3088.8592677451597, 3268.6163424668, 3268.6232094521197]

>  <E0_kJmol>  (2) 
-104520

>  <H298_kJmol>  (2) 
-104510

$$$$

     RDKit          3D

 21 19  0  0  0  0  0  0  0  0999 V2000
   -3.1161    0.7252    0.9842 C   0  0  0  0  0  2  0  0  0  1  0  0
   -2.9507   -0.3440    0.9944 H   0  0  0  0  0  0  0  0  0  2  0  0
   -4.0018    1.2143    1.3695 H   0  0  0  0  0  0  0  0  0  3  0  0
    1.3747   -1.9121   -1.7284 C   0  0  0  0  0  0  0  0  0  4  0  0
    1.2717   -1.9328   -0.2092 C   0  0  0  0  0  0  0  0  0  5  0  0
    1.2928   -0.5498    0.4086 C   0  0  0  0  0  0  0  0  0  6  0  0
    0.1685    0.1718   -0.0296 O   0  0  0  0  0  0  0  0  0  7  0  0
    0.1185    1.4817    0.4728 C   0  0  0  0  0  0  0  0  0  8  0  0
   -1.1199    2.1552   -0.0348 C   0  0  0  0  0  0  0  0  0  9  0  0
    2.3022   -1.4315   -2.0495 H   0  0  0  0  0  0  0  0  0 10  0  0
    0.5426   -1.3596   -2.1646 H   0  0  0  0  0  0  0  0  0 11  0  0
    1.3635   -2.9239   -2.1361 H   0  0  0  0  0  0  0  0  0 12  0  0
    2.1017   -2.5033    0.2167 H   0  0  0  0  0  0  0  0  0 13  0  0
    0.3512   -2.4362    0.0978 H   0  0  0  0  0  0  0  0  0 14  0  0
    2.2140   -0.0200    0.1191 H   0  0  0  0  0  0  0  0  0 15  0  0
    1.2869   -0.6217    1.5059 H   0  0  0  0  0  0  0  0  0 16  0  0
    0.1209    1.4674    1.5731 H   0  0  0  0  0  0  0  0  0 17  0  0
    1.0159    2.0393    0.1568 H   0  0  0  0  0  0  0  0  0 18  0  0
   -2.1189    1.4951    0.4343 H   0  0  0  0  0  0  0  0  0 19  0  0
   -1.2330    2.1041   -1.1160 H   0  0  0  0  0  0  0  0  0 20  0  0
   -1.2485    3.1671    0.3450 H   0  0  0  0  0  0  0  0  0 21  0  0
  1  2  1  0
  1  3  1  0
  4 10  1  0
  4 11  1  0
  4 12  1  0
  4  5  1  0
  5 14  1  0
  5 13  1  0
  5  6  1  0
  6 16  1  0
  6 15  1  0
  6  7  1  0
  7  8  1  0
  8 17  1  0
  8  9  1  0
  8 18  1  0
  9 21  1  0
  9 20  1  0
  9 19  1  0
M  RAD  1   1   3
M  END
>  <rmg_smiles>  (3) 
CCCOCC.[CH2]

>  <rmg_adjacency_list>  (3) 
multiplicity 3
1  O u0 p2 c0 {3,S} {4,S}
2  C u0 p0 c0 {3,S} {5,S} {8,S} {9,S}
3  C u0 p0 c0 {1,S} {2,S} {10,S} {11,S}
4  C u0 p0 c0 {1,S} {6,S} {12,S} {13,S}
5  C u0 p0 c0 {2,S} {14,S} {15,S} {16,S}
6  C u0 p0 c0 {4,S} {17,S} {18,S} {19,S}
7  C u2 p1 c0 {20,S} {21,S}
8  H u0 p0 c0 {2,S}
9  H u0 p0 c0 {2,S}
10 H u0 p0 c0 {3,S}
11 H u0 p0 c0 {3,S}
12 H u0 p0 c0 {4,S}
13 H u0 p0 c0 {4,S}
14 H u0 p0 c0 {5,S}
15 H u0 p0 c0 {5,S}
16 H u0 p0 c0 {5,S}
17 H u0 p0 c0 {6,S}
18 H u0 p0 c0 {6,S}
19 H u0 p0 c0 {6,S}
20 H u0 p0 c0 {7,S}
21 H u0 p0 c0 {7,S}


>  <multiplicity>  (3) 
3

>  <reaction>  (3) 
rmg_rxn_3138

>  <type>  (3) 
ts

>  <role_mapnums>  (3) 
{"*2": 19, "*1": 9, "*3": 1, "*0": 8, "*4": 2}

>  <role_mapidx>  (3) 
{"*2": 18, "*1": 8, "*3": 0, "*0": 7, "*4": 1}

>  <ordered_mapped_smiles>  (3) 
[C:1]([H:2])[H:3].[C:4]([C:5]([C:6]([O:7][C:8]([C:9]([H:19])([H:20])[H:21])([H:17])[H:18])([H:15])[H:16])([H:13])[H:14])([H:10])([H:11])[H:12]

>  <mol_properties>  (3) 
{"0": {"label": "*3", "atom_type": "C2s"}, "1": {"label": "*4", "atom_type": "H0"}, "7": {"label": "*0", "atom_type": "Cs"}, "8": {"label": "*1", "atom_type": "Cs"}, "18": {"label": "*2", "atom_type": "H0"}}

>  <level_of_theory>  (3) 
wb97xd/def2tzvp

>  <lot_method>  (3) 
wb97xd

>  <lot_basis>  (3) 
def2tzvp

>  <spin_multiplicity>  (3) 
3.0

>  <optical_isomers>  (3) 
2.0

>  <modes>  (3) 
IdealGasTranslation(mass=(102.104, 'amu')),         NonlinearRotor(             inertia = ([133.244, 464.213, 509.203

>  <frequency_value>  (3) 
-1518.97

>  <frequency_units>  (3) 
cm^-1

>  <frequency_list>  (3) 
unknown

>  <arkane_path>  (3) 
/home/calvin/Dropbox/PersonalFolders/Calvin/ATLAS_Converged/rmg_rxn_3138/output/rxns/TS0/arkane/output.py

>  <path_exists>  (3) 
True

>  <E0_value>  (3) 
-819045.0

>  <E0_units>  (3) 
kJ/mol

>  <thermo_class>  (3) 
unknown

>  <Cp0_value>  (3) 
unknown

>  <Cp0_units>  (3) 
unknown

>  <CpInf_value>  (3) 
unknown

>  <CpInf_units>  (3) 
unknown

>  <Tmin_value>  (3) 
unknown

>  <Tmin_units>  (3) 
unknown

>  <Tmax_value>  (3) 
unknown

>  <Tmax_units>  (3) 
unknown

>  <polynomials>  (3) 
unknown

>  <H298_value>  (3) 
unknown

>  <H298_units>  (3) 
unknown

>  <S298_value>  (3) 
unknown

>  <S298_units>  (3) 
unknown

>  <Cp_T_value_list>  (3) 
unknown

>  <Cp_T_units>  (3) 
unknown

>  <T_list>  (3) 
unknown

>  <T_units>  (3) 
unknown

>  <yaml_path>  (3) 
unknown

>  <frequencies_cm1>  (3) 
unknown

>  <ZPE_kJmol>  (3) 
unknown

>  <E_elec_kJmol>  (3) 
unknown

>  <E0_minus_Eelec_plus_ZPE_kJmol>  (3) 
unknown

>  <rxn>  (3) 
unknown

>  <species_type>  (3) 
unknown

>  <species_folder>  (3) 
unknown

>  <frequencies_cm1_list>  (3) 
[]

>  <ts_imag_freq_cm1>  (3) 
-1537.4181

>  <ts_freq_out_path>  (3) 
/home/calvin/Dropbox/PersonalFolders/Calvin/ATLAS_Converged/rmg_rxn_3138/output/rxns/TS0/geometry/freq.out

>  <E0_kJmol>  (3) 
-819045

>  <H298_kJmol>  (3) 
unknown

$$$$

     RDKit          3D

 17 16  0  0  0  0  0  0  0  0999 V2000
    3.3619    0.3511   -1.0290 C   0  0  0  0  0  3  0  0  0  1  0  0
    2.1806    1.0643   -0.5073 C   0  0  0  0  0  0  0  0  0  2  0  0
    1.4028    0.1998    0.2757 O   0  0  0  0  0  0  0  0  0  3  0  0
    0.2433    0.8081    0.7885 C   0  0  0  0  0  0  0  0  0  4  0  0
   -0.5040   -0.1878    1.6510 C   0  0  0  0  0  0  0  0  0  5  0  0
    0.2852   -0.6298    2.8762 C   0  0  0  0  0  0  0  0  0  6  0  0
    4.1174    0.8902   -1.5820 H   0  0  0  0  0  0  0  0  0  7  0  0
    3.4399   -0.7198   -0.9141 H   0  0  0  0  0  0  0  0  0  8  0  0
    1.5724    1.4684   -1.3398 H   0  0  0  0  0  0  0  0  0  9  0  0
    2.4896    1.9442    0.0856 H   0  0  0  0  0  0  0  0  0 10  0  0
    0.5169    1.6937    1.3835 H   0  0  0  0  0  0  0  0  0 11  0  0
   -0.3954    1.1528   -0.0379 H   0  0  0  0  0  0  0  0  0 12  0  0
   -0.7611   -1.0545    1.0367 H   0  0  0  0  0  0  0  0  0 13  0  0
   -1.4466    0.2743    1.9571 H   0  0  0  0  0  0  0  0  0 14  0  0
    0.5263    0.2245    3.5136 H   0  0  0  0  0  0  0  0  0 15  0  0
    1.2220   -1.1033    2.5825 H   0  0  0  0  0  0  0  0  0 16  0  0
   -0.2849   -1.3427    3.4737 H   0  0  0  0  0  0  0  0  0 17  0  0
  1  8  1  0
  1  7  1  0
  1  2  1  0
  2 10  1  0
  2  9  1  0
  2  3  1  0
  3  4  1  0
  4  5  1  0
  4 12  1  0
  4 11  1  0
  5 14  1  0
  5  6  1  0
  5 13  1  0
  6 17  1  0
  6 15  1  0
  6 16  1  0
M  RAD  1   1   2
M  END
>  <rmg_smiles>  (4) 
[CH2]COCCC

>  <rmg_adjacency_list>  (4) 
multiplicity 2
1  O u0 p2 c0 {3,S} {4,S}
2  C u0 p0 c0 {3,S} {5,S} {7,S} {8,S}
3  C u0 p0 c0 {1,S} {2,S} {9,S} {10,S}
4  C u0 p0 c0 {1,S} {6,S} {11,S} {12,S}
5  C u0 p0 c0 {2,S} {13,S} {14,S} {15,S}
6  C u1 p0 c0 {4,S} {16,S} {17,S}
7  H u0 p0 c0 {2,S}
8  H u0 p0 c0 {2,S}
9  H u0 p0 c0 {3,S}
10 H u0 p0 c0 {3,S}
11 H u0 p0 c0 {4,S}
12 H u0 p0 c0 {4,S}
13 H u0 p0 c0 {5,S}
14 H u0 p0 c0 {5,S}
15 H u0 p0 c0 {5,S}
16 H u0 p0 c0 {6,S}
17 H u0 p0 c0 {6,S}


>  <multiplicity>  (4) 
2

>  <reaction>  (4) 
rmg_rxn_3138

>  <type>  (4) 
r1

>  <role_mapnums>  (4) 
{}

>  <role_mapidx>  (4) 
{}

>  <ordered_mapped_smiles>  (4) 
[C:1]([C:2]([O:3][C:4]([C:5]([C:6]([H:15])([H:16])[H:17])([H:13])[H:14])([H:11])[H:12])([H:9])[H:10])([H:7])[H:8]

>  <level_of_theory>  (4) 
wb97xd/def2tzvp

>  <lot_method>  (4) 
wb97xd

>  <lot_basis>  (4) 
def2tzvp

>  <spin_multiplicity>  (4) 
2.0

>  <optical_isomers>  (4) 
2.0

>  <modes>  (4) 
IdealGasTranslation(mass=(87.081, 'amu')),         NonlinearRotor(             inertia = ([56.6963, 308.928, 339.863

>  <frequency_value>  (4) 
unknown

>  <frequency_units>  (4) 
unknown

>  <frequency_list>  (4) 
unknown

>  <arkane_path>  (4) 
/home/calvin/Dropbox/PersonalFolders/Calvin/ATLAS_Converged/rmg_rxn_3138/output/Species/rmg_rxn_3138_p2_sbr-CH2-sbrCOCCC/arkane/output.py

>  <path_exists>  (4) 
True

>  <E0_value>  (4) 
-714592.2874414226

>  <E0_units>  (4) 
kJ/mol

>  <thermo_class>  (4) 
NASA

>  <Cp0_value>  (4) 
33.257888

>  <Cp0_units>  (4) 
J/(mol*K)

>  <CpInf_value>  (4) 
407.409128

>  <CpInf_units>  (4) 
J/(mol*K)

>  <Tmin_value>  (4) 
10.0

>  <Tmin_units>  (4) 
K

>  <Tmax_value>  (4) 
3000.0

>  <Tmax_units>  (4) 
K

>  <polynomials>  (4) 
[{"name": "polynomial1", "class": "NASAPolynomial", "Tmin_value": 10.0, "Tmin_units": "K", "Tmax_value": 421.035855830905, "Tmax_units": "K", "coeffs": [3.3789406813208065, 0.06590596017086366, -0.00019249809040560733, 4.899813308840383e-07, -4.242410627799397e-10, -85945598.19070739, 12.514736539096582]}, {"name": "polynomial2", "class": "NASAPolynomial", "Tmin_value": 421.035855830905, "Tmin_units": "K", "Tmax_value": 3000.0, "Tmax_units": "K", "coeffs": [-0.7031553085295065, 0.06341059745348604, -3.655347709588294e-05, 1.021357311823544e-08, -1.1100139129408708e-12, -85944888.58939976, 33.02208008641289]}]

>  <H298_value>  (4) 
-170785.6861885609

>  <H298_units>  (4) 
kcal/mol

>  <S298_value>  (4) 
92.09384257836304

>  <S298_units>  (4) 
cal/(mol*K)

>  <Cp_T_value_list>  (4) 
[31.038265619376926, 38.63102462361129, 45.847029798195116, 52.15666973937588, 62.409780220359046, 70.06398140589506, 81.51278875283624, 87.14396027312499, 90.01864155696947]

>  <Cp_T_units>  (4) 
cal/(mol*K)

>  <T_list>  (4) 
[300.0, 400.0, 500.0, 600.0, 800.0, 1000.0, 1500.0, 2000.0, 2400.0]

>  <T_units>  (4) 
K

>  <yaml_path>  (4) 
/home/calvin/Dropbox/PersonalFolders/Calvin/ATLAS_Converged/rmg_rxn_3138/output/Species/rmg_rxn_3138_p2_sbr-CH2-sbrCOCCC/rmg_rxn_3138_p2_sbr-CH2-sbrCOCCC.yml

>  <frequencies_cm1>  (4) 
[70.26986077955999, 88.4467709216, 104.549851497, 153.07883675344, 172.60167601819998, 255.52052375720004, 329.3406159472, 414.08608178132, 453.8047248722, 492.96027516683995, 765.9229416368398, 873.5492025571998, 892.37160931932, 924.52970157288, 955.5272733073599, 1010.5936285884401, 1091.5691194818799, 1101.61551900504, 1147.9951378563198, 1175.99183700596, 1193.5163835426, 1228.5654766158798, 1271.8686860438, 1305.08429403664, 1367.51892456608, 1378.9249871825998, 1404.3190988959598, 1420.9784052822797, 1445.0952577261198, 1468.6833523003202, 1476.29197203488, 1483.39930184108, 1494.4551482062798, 1509.4526441451599, 2863.5603463812795, 2892.74503399128, 2932.77955840688, 2965.8028908107603, 3015.3275889386, 3021.99543168432, 3058.9535466765597, 3085.6249176594397, 3105.36750045444, 3142.87497427228, 3256.07036028716]

>  <ZPE_kJmol>  (4) 
390.3630165565436

>  <E_elec_kJmol>  (4) 
-714982.6504579792

>  <E0_minus_Eelec_plus_ZPE_kJmol>  (4) 
0.0

>  <rxn>  (4) 
rmg_rxn_3138

>  <species_type>  (4) 
p1

>  <species_folder>  (4) 
rmg_rxn_3138_p2_sbr-CH2-sbrCOCCC

>  <frequencies_cm1_list>  (4) 
[70.26986077955999, 88.4467709216, 104.549851497, 153.07883675344, 172.60167601819998, 255.52052375720004, 329.3406159472, 414.08608178132, 453.8047248722, 492.96027516683995, 765.9229416368398, 873.5492025571998, 892.37160931932, 924.52970157288, 955.5272733073599, 1010.5936285884401, 1091.5691194818799, 1101.61551900504, 1147.9951378563198, 1175.99183700596, 1193.5163835426, 1228.5654766158798, 1271.8686860438, 1305.08429403664, 1367.51892456608, 1378.9249871825998, 1404.3190988959598, 1420.9784052822797, 1445.0952577261198, 1468.6833523003202, 1476.29197203488, 1483.39930184108, 1494.4551482062798, 1509.4526441451599, 2863.5603463812795, 2892.74503399128, 2932.77955840688, 2965.8028908107603, 3015.3275889386, 3021.99543168432, 3058.9535466765597, 3085.6249176594397, 3105.36750045444, 3142.87497427228, 3256.07036028716]

>  <E0_kJmol>  (4) 
-714592

>  <H298_kJmol>  (4) 
-714567

$$$$

     RDKit          3D

  3  2  0  0  0  0  0  0  0  0999 V2000
    0.0000    0.0000    0.1037 C   0  0  0  0  0  2  0  0  0  1  0  0
    0.0000    0.9954   -0.3147 H   0  0  0  0  0  0  0  0  0  2  0  0
    0.0000   -0.9954   -0.3147 H   0  0  0  0  0  0  0  0  0  3  0  0
  1  3  1  0
  1  2  1  0
M  RAD  1   1   3
M  END
>  <rmg_smiles>  (5) 
[CH2]

>  <rmg_adjacency_list>  (5) 
multiplicity 3
1 C u2 p1 c0 {2,S} {3,S}
2 H u0 p0 c0 {1,S}
3 H u0 p0 c0 {1,S}


>  <multiplicity>  (5) 
3

>  <reaction>  (5) 
rmg_rxn_3138

>  <type>  (5) 
r2

>  <role_mapnums>  (5) 
{}

>  <role_mapidx>  (5) 
{}

>  <ordered_mapped_smiles>  (5) 
[C:1]([H:2])[H:3]

>  <level_of_theory>  (5) 
wb97xd/def2tzvp

>  <lot_method>  (5) 
wb97xd

>  <lot_basis>  (5) 
def2tzvp

>  <spin_multiplicity>  (5) 
3.0

>  <optical_isomers>  (5) 
1.0

>  <modes>  (5) 
IdealGasTranslation(mass=(14.0157, 'amu')),         NonlinearRotor(             inertia = ([0.302189, 1.99708, 2.29927

>  <frequency_value>  (5) 
unknown

>  <frequency_units>  (5) 
unknown

>  <frequency_list>  (5) 
unknown

>  <arkane_path>  (5) 
/home/calvin/Dropbox/PersonalFolders/Calvin/ATLAS_Converged/rmg_rxn_3138/output/Species/rmg_rxn_3138_r1_sbr-CH2-sbr/arkane/output.py

>  <path_exists>  (5) 
True

>  <E0_value>  (5) 
-102746.3604097037

>  <E0_units>  (5) 
kJ/mol

>  <thermo_class>  (5) 
NASA

>  <Cp0_value>  (5) 
33.257888

>  <Cp0_units>  (5) 
J/(mol*K)

>  <CpInf_value>  (5) 
58.201304

>  <CpInf_units>  (5) 
J/(mol*K)

>  <Tmin_value>  (5) 
10.0

>  <Tmin_units>  (5) 
K

>  <Tmax_value>  (5) 
3000.0

>  <Tmax_units>  (5) 
K

>  <polynomials>  (5) 
[{"name": "polynomial1", "class": "NASAPolynomial", "Tmin_value": 10.0, "Tmin_units": "K", "Tmax_value": 961.2537703468265, "Tmax_units": "K", "coeffs": [4.003567274783497, -0.00017628649893863886, 3.2424154420246973e-06, -2.3237373613409304e-09, 5.265367404586338e-13, -12357532.895886488, 0.5988309128090271]}, {"name": "polynomial2", "class": "NASAPolynomial", "Tmin_value": 961.2537703468265, "Tmin_units": "K", "Tmax_value": 3000.0, "Tmax_units": "K", "coeffs": [3.235887744652184, 0.002682865290017016, -6.958956295252623e-07, 4.471411525242933e-11, 4.944011528851231e-15, -12357369.816021634, 4.352691540085104]}]

>  <H298_value>  (5) 
-24554.56617285692

>  <H298_units>  (5) 
kcal/mol

>  <S298_value>  (5) 
46.65862348821438

>  <S298_units>  (5) 
cal/(mol*K)

>  <Cp_T_value_list>  (5) 
[8.31451721635151, 8.577974181765384, 8.879771166632237, 9.20350213712947, 9.863697946528214, 10.477577141433397, 11.66561697983005, 12.429684371368914, 12.814628264430327]

>  <Cp_T_units>  (5) 
cal/(mol*K)

>  <T_list>  (5) 
[300.0, 400.0, 500.0, 600.0, 800.0, 1000.0, 1500.0, 2000.0, 2400.0]

>  <T_units>  (5) 
K

>  <yaml_path>  (5) 
/home/calvin/Dropbox/PersonalFolders/Calvin/ATLAS_Converged/rmg_rxn_3138/output/Species/rmg_rxn_3138_r1_sbr-CH2-sbr/rmg_rxn_3138_r1_sbr-CH2-sbr.yml

>  <frequencies_cm1>  (5) 
[1058.90973729996, 3101.0619006588, 3329.06641423876]

>  <ZPE_kJmol>  (5) 
44.79440797275059

>  <E_elec_kJmol>  (5) 
-102791.15481767643

>  <E0_minus_Eelec_plus_ZPE_kJmol>  (5) 
0.0

>  <rxn>  (5) 
rmg_rxn_3138

>  <species_type>  (5) 
r0

>  <species_folder>  (5) 
rmg_rxn_3138_r1_sbr-CH2-sbr

>  <frequencies_cm1_list>  (5) 
[1058.90973729996, 3101.0619006588, 3329.06641423876]

>  <E0_kJmol>  (5) 
-102746

>  <H298_kJmol>  (5) 
-102736

$$$$
