
     RDKit          3D

 15 14  0  0  0  0  0  0  0  0999 V2000
   -1.4028   -1.6084   -1.4384 C   0  0  0  0  0  0  0  0  0  1  0  0
   -0.4093   -1.1125   -0.4144 C   0  0  0  0  0  0  0  0  0  2  0  0
   -0.3699    0.6596   -0.2840 S   0  0  0  0  0  0  0  0  0  3  0  0
    1.2431    0.9259    0.4908 C   0  0  0  0  0  0  0  0  0  4  0  0
    1.3535    0.4502    1.9300 C   0  0  0  0  0  0  0  0  0  5  0  0
   -1.1036   -1.3279   -2.4508 H   0  0  0  0  0  0  0  0  0  6  0  0
   -1.4751   -2.6961   -1.3891 H   0  0  0  0  0  0  0  0  0  7  0  0
   -2.3978   -1.2038   -1.2500 H   0  0  0  0  0  0  0  0  0  8  0  0
   -0.7308   -1.5410    0.5367 H   0  0  0  0  0  0  0  0  0  9  0  0
    0.5953   -1.5149   -0.5570 H   0  0  0  0  0  0  0  0  0 10  0  0
    2.0023    0.4531   -0.1356 H   0  0  0  0  0  0  0  0  0 11  0  0
    1.4025    2.0035    0.4301 H   0  0  0  0  0  0  0  0  0 12  0  0
    1.1797   -0.6238    2.0048 H   0  0  0  0  0  0  0  0  0 13  0  0
    0.6274    0.9590    2.5654 H   0  0  0  0  0  0  0  0  0 14  0  0
    2.3521    0.6562    2.3215 H   0  0  0  0  0  0  0  0  0 15  0  0
  1  8  1  0
  1  7  1  0
  1  6  1  0
  1  2  1  0
  2 10  1  0
  2  9  1  0
  2  3  1  0
  3  4  1  0
  4  5  1  0
  4 12  1  0
  4 11  1  0
  5 14  1  0
  5 15  1  0
  5 13  1  0
M  END
>  <rmg_smiles>  (1) 
CCSCC

>  <rmg_adjacency_list>  (1) 
1  S u0 p2 c0 {2,S} {3,S}
2  C u0 p0 c0 {1,S} {4,S} {6,S} {7,S}
3  C u0 p0 c0 {1,S} {5,S} {8,S} {9,S}
4  C u0 p0 c0 {2,S} {10,S} {11,S} {12,S}
5  C u0 p0 c0 {3,S} {13,S} {14,S} {15,S}
6  H u0 p0 c0 {2,S}
7  H u0 p0 c0 {2,S}
8  H u0 p0 c0 {3,S}
9  H u0 p0 c0 {3,S}
10 H u0 p0 c0 {4,S}
11 H u0 p0 c0 {4,S}
12 H u0 p0 c0 {4,S}
13 H u0 p0 c0 {5,S}
14 H u0 p0 c0 {5,S}
15 H u0 p0 c0 {5,S}


>  <multiplicity>  (1) 
1

>  <reaction>  (1) 
rmg_rxn_180

>  <type>  (1) 
r1h

>  <role_mapnums>  (1) 
{"r1h_a": 2, "r1h_h": 9}

>  <role_mapidx>  (1) 
{"r1h_a": 1, "r1h_h": 8}

>  <ordered_mapped_smiles>  (1) 
[C:1]([C:2]([S:3][C:4]([C:5]([H:13])([H:14])[H:15])([H:11])[H:12])([H:9])[H:10])([H:6])([H:7])[H:8]

>  <mol_properties>  (1) 
{"1": {"label": "donator", "atom_type": "Cs"}, "8": {"label": "d_hydrogen", "atom_type": "H0"}}

>  <level_of_theory>  (1) 
wb97xd/def2tzvp

>  <lot_method>  (1) 
wb97xd

>  <lot_basis>  (1) 
def2tzvp

>  <spin_multiplicity>  (1) 
1.0

>  <optical_isomers>  (1) 
2.0

>  <modes>  (1) 
IdealGasTranslation(mass=(90.0503, 'amu')),         NonlinearRotor(             inertia = ([97.9259, 182.785, 231.685

>  <frequency_value>  (1) 
unknown

>  <frequency_units>  (1) 
unknown

>  <frequency_list>  (1) 
unknown

>  <arkane_path>  (1) 
/home/calvin/Dropbox/PersonalFolders/Calvin/ATLAS_Converged/rmg_rxn_180/output/Species/rmg_rxn_180_r2_CCSCC/arkane/output.py

>  <path_exists>  (1) 
True

>  <E0_value>  (1) 
-1461176.7123028408

>  <E0_units>  (1) 
kJ/mol

>  <thermo_class>  (1) 
NASA

>  <Cp0_value>  (1) 
33.257888

>  <Cp0_units>  (1) 
J/(mol*K)

>  <CpInf_value>  (1) 
357.522296

>  <CpInf_units>  (1) 
J/(mol*K)

>  <Tmin_value>  (1) 
10.0

>  <Tmin_units>  (1) 
K

>  <Tmax_value>  (1) 
3000.0

>  <Tmax_units>  (1) 
K

>  <polynomials>  (1) 
[{"name": "polynomial1", "class": "NASAPolynomial", "Tmin_value": 10.0, "Tmin_units": "K", "Tmax_value": 1062.740332266501, "Tmax_units": "K", "coeffs": [3.7240768769611408, 0.031177750271788266, 1.590200165997747e-05, -3.1138888238628924e-08, 1.1081299545578661e-11, -175738967.30653694, 10.691637972640313]}, {"name": "polynomial2", "class": "NASAPolynomial", "Tmin_value": 1062.740332266501, "Tmin_units": "K", "Tmax_value": 3000.0, "Tmax_units": "K", "coeffs": [4.272256190616837, 0.04355880957526612, -2.1960566897444118e-05, 5.4018330156847166e-09, -5.231130586129144e-13, -175739899.50439465, 4.175990433518907]}]

>  <H298_value>  (1) 
-349224.4948454063

>  <H298_units>  (1) 
kcal/mol

>  <S298_value>  (1) 
82.77165630085062

>  <S298_units>  (1) 
cal/(mol*K)

>  <Cp_T_value_list>  (1) 
[27.339173580692723, 33.84270235009273, 39.920340825285514, 45.438637568785964, 54.52765007672161, 61.099128237827436, 71.10646466743047, 76.29375194018085, 78.77254304981717]

>  <Cp_T_units>  (1) 
cal/(mol*K)

>  <T_list>  (1) 
[300.0, 400.0, 500.0, 600.0, 800.0, 1000.0, 1500.0, 2000.0, 2400.0]

>  <T_units>  (1) 
K

>  <yaml_path>  (1) 
/home/calvin/Dropbox/PersonalFolders/Calvin/ATLAS_Converged/rmg_rxn_180/output/Species/rmg_rxn_180_r2_CCSCC/rmg_rxn_180_r2_CCSCC.yml

>  <frequencies_cm1>  (1) 
[66.48615186823999, 121.63491097315999, 224.63969077315997, 254.99863287287997, 273.62876404604003, 341.45397805167994, 381.0490154068, 647.6597204558, 701.8333676452798, 742.1151035324, 786.8329119362398, 985.17891591912, 988.88708799192, 1023.0091380469999, 1055.1809642711999, 1060.18699656948, 1093.14852610548, 1263.72444145428, 1273.9013136985197, 1289.2490258887199, 1308.3598460342798, 1399.5396771132398, 1399.8967603498797, 1460.7725852116798, 1462.4000607325202, 1478.53747623452, 1481.2362014652797, 1489.1538355392402, 1493.6723118798, 3015.6091353367196, 3016.10355827976, 3035.3242501904397, 3036.18262335544, 3073.69009717328, 3077.2334615983996, 3086.3528181033594, 3086.8953099436403, 3101.4052499247996, 3104.1520440527997]

>  <ZPE_kJmol>  (1) 
348.0016505911852

>  <E_elec_kJmol>  (1) 
-1461524.713953432

>  <E0_minus_Eelec_plus_ZPE_kJmol>  (1) 
0.0

>  <rxn>  (1) 
rmg_rxn_180

>  <species_type>  (1) 
r1

>  <species_folder>  (1) 
rmg_rxn_180_r2_CCSCC

>  <frequencies_cm1_list>  (1) 
[66.48615186823999, 121.63491097315999, 224.63969077315997, 254.99863287287997, 273.62876404604003, 341.45397805167994, 381.0490154068, 647.6597204558, 701.8333676452798, 742.1151035324, 786.8329119362398, 985.17891591912, 988.88708799192, 1023.0091380469999, 1055.1809642711999, 1060.18699656948, 1093.14852610548, 1263.72444145428, 1273.9013136985197, 1289.2490258887199, 1308.3598460342798, 1399.5396771132398, 1399.8967603498797, 1460.7725852116798, 1462.4000607325202, 1478.53747623452, 1481.2362014652797, 1489.1538355392402, 1493.6723118798, 3015.6091353367196, 3016.10355827976, 3035.3242501904397, 3036.18262335544, 3073.69009717328, 3077.2334615983996, 3086.3528181033594, 3086.8953099436403, 3101.4052499247996, 3104.1520440527997]

>  <E0_kJmol>  (1) 
-1.46118e+06

>  <H298_kJmol>  (1) 
-1.46116e+06

$$$$

     RDKit          3D

  9  8  0  0  0  0  0  0  0  0999 V2000
    1.3297   -0.7856    0.0660 C   0  0  0  0  0  0  0  0  0  1  0  0
    0.5375    0.3000    0.7111 C   0  0  0  0  0  0  0  0  0  2  0  0
   -0.7879    0.6109    0.1278 N   0  0  0  0  0  0  0  0  0  3  0  0
   -1.1003   -0.0724   -0.8000 O   0  0  0  0  0  0  0  0  0  4  0  0
    2.2318   -1.0540    0.6092 H   0  0  0  0  0  0  0  0  0  5  0  0
    0.7567   -1.6465   -0.2657 H   0  0  0  0  0  0  0  0  0  6  0  0
    0.3089    0.1077    1.7685 H   0  0  0  0  0  0  0  0  0  7  0  0
    1.0550    1.2664    0.7004 H   0  0  0  0  0  0  0  0  0  8  0  0
    1.7085   -0.3616   -0.8597 H   0  0  0  0  0  0  0  0  0  9  0  0
  1  5  1  0
  1  9  1  0
  1  6  1  0
  1  2  1  0
  2  3  1  0
  2  8  1  0
  2  7  1  0
  3  4  1  0
M  END
>  <rmg_smiles>  (2) 
CC[N][O]

>  <rmg_adjacency_list>  (2) 
1 O u0 p2 c0 {2,S}
2 N u0 p1 c0 {1,S} {3,S}
3 C u0 p0 c0 {2,S} {4,S} {5,S} {6,S}
4 C u0 p0 c0 {3,S} {7,S} {8,S} {9,S}
5 H u0 p0 c0 {3,S}
6 H u0 p0 c0 {3,S}
7 H u0 p0 c0 {4,S}
8 H u0 p0 c0 {4,S}
9 H u0 p0 c0 {4,S}


>  <multiplicity>  (2) 
1

>  <reaction>  (2) 
rmg_rxn_180

>  <type>  (2) 
r2h

>  <role_mapnums>  (2) 
{"r2h_a": 1, "r2h_h": 9}

>  <role_mapidx>  (2) 
{"r2h_a": 0, "r2h_h": 8}

>  <ordered_mapped_smiles>  (2) 
[C:1]([C:2]([NH:3][OH:4])([H:7])[H:8])([H:5])([H:6])[H:9]

>  <mol_properties>  (2) 
{"0": {"label": "acceptor", "atom_type": "Cs"}, "8": {"label": "a_hydrogen", "atom_type": "H0"}}

>  <level_of_theory>  (2) 
wb97xd/def2tzvp

>  <lot_method>  (2) 
wb97xd

>  <lot_basis>  (2) 
def2tzvp

>  <spin_multiplicity>  (2) 
1.0

>  <optical_isomers>  (2) 
1.0

>  <modes>  (2) 
IdealGasTranslation(mass=(59.0371, 'amu')),         NonlinearRotor(             inertia = ([29.0143, 77.6306, 100.462

>  <frequency_value>  (2) 
unknown

>  <frequency_units>  (2) 
unknown

>  <frequency_list>  (2) 
unknown

>  <arkane_path>  (2) 
/home/calvin/Dropbox/PersonalFolders/Calvin/ATLAS_Converged/rmg_rxn_180/output/Species/rmg_rxn_180_p1_CCN=O/arkane/output.py

>  <path_exists>  (2) 
True

>  <E0_value>  (2) 
-548877.558747515

>  <E0_units>  (2) 
kJ/mol

>  <thermo_class>  (2) 
NASA

>  <Cp0_value>  (2) 
33.257888

>  <Cp0_units>  (2) 
J/(mol*K)

>  <CpInf_value>  (2) 
207.8618

>  <CpInf_units>  (2) 
J/(mol*K)

>  <Tmin_value>  (2) 
10.0

>  <Tmin_units>  (2) 
K

>  <Tmax_value>  (2) 
3000.0

>  <Tmax_units>  (2) 
K

>  <polynomials>  (2) 
[{"name": "polynomial1", "class": "NASAPolynomial", "Tmin_value": 10.0, "Tmin_units": "K", "Tmax_value": 852.4467273079296, "Tmax_units": "K", "coeffs": [3.8936881543548516, 0.010863357132079992, 2.9518886027981582e-05, -4.241660668924857e-08, 1.6548322072430634e-11, -66014722.52296326, 8.31212640355373]}, {"name": "polynomial2", "class": "NASAPolynomial", "Tmin_value": 852.4467273079296, "Tmin_units": "K", "Tmax_value": 3000.0, "Tmax_units": "K", "coeffs": [1.958278249526995, 0.028191398788375954, -1.5482894354402147e-05, 4.125838418636631e-09, -4.294786972329381e-13, -66014692.17386343, 15.58298456087749]}]

>  <H298_value>  (2) 
-131181.2546973709

>  <H298_units>  (2) 
kcal/mol

>  <S298_value>  (2) 
68.95858975357608

>  <S298_units>  (2) 
cal/(mol*K)

>  <Cp_T_value_list>  (2) 
[17.483816518754196, 21.205534203635445, 24.715448679483146, 27.862973885513348, 32.86313144341251, 36.49135596500743, 42.04796388055017, 44.80066956867266, 46.148264111815415]

>  <Cp_T_units>  (2) 
cal/(mol*K)

>  <T_list>  (2) 
[300.0, 400.0, 500.0, 600.0, 800.0, 1000.0, 1500.0, 2000.0, 2400.0]

>  <T_units>  (2) 
K

>  <yaml_path>  (2) 
/home/calvin/Dropbox/PersonalFolders/Calvin/ATLAS_Converged/rmg_rxn_180/output/Species/rmg_rxn_180_p1_CCN=O/rmg_rxn_180_p1_CCN=O.yml

>  <frequencies_cm1>  (2) 
[158.20847478748, 231.91869521236, 304.63320276584, 688.52515009512, 725.82661435336, 817.79614874412, 992.8287375655999, 1036.4272273622798, 1118.5151698775599, 1253.84971656412, 1336.8441011416398, 1399.8555584379599, 1435.5776160726, 1473.98466496736, 1481.49027992212, 1699.7642753036398, 3019.11129784992, 3032.8315345192796, 3052.86253069772, 3109.68683422072, 3112.3100226129595]

>  <ZPE_kJmol>  (2) 
188.30930234902567

>  <E_elec_kJmol>  (2) 
-549065.868049864

>  <E0_minus_Eelec_plus_ZPE_kJmol>  (2) 
0.0

>  <rxn>  (2) 
rmg_rxn_180

>  <species_type>  (2) 
p0

>  <species_folder>  (2) 
rmg_rxn_180_p1_CCN=O

>  <frequencies_cm1_list>  (2) 
[158.20847478748, 231.91869521236, 304.63320276584, 688.52515009512, 725.82661435336, 817.79614874412, 992.8287375655999, 1036.4272273622798, 1118.5151698775599, 1253.84971656412, 1336.8441011416398, 1399.8555584379599, 1435.5776160726, 1473.98466496736, 1481.49027992212, 1699.7642753036398, 3019.11129784992, 3032.8315345192796, 3052.86253069772, 3109.68683422072, 3112.3100226129595]

>  <E0_kJmol>  (2) 
-548878

>  <H298_kJmol>  (2) 
-548862

$$$$

     RDKit          3D

 23 21  0  0  0  0  0  0  0  0999 V2000
   -0.1821   -1.3890    0.5513 C   0  0  0  0  0  3  0  0  0  1  0  0
   -0.9743   -0.3034    1.1964 C   0  0  0  0  0  0  0  0  0  2  0  0
   -2.2997    0.0075    0.6131 N   0  0  0  0  0  0  0  0  0  3  0  0
   -2.6121   -0.6758   -0.3146 O   0  0  0  0  0  0  0  0  0  4  0  0
    0.7200   -1.6575    1.0946 H   0  0  0  0  0  0  0  0  0  5  0  0
   -0.7551   -2.2499    0.2196 H   0  0  0  0  0  0  0  0  0  6  0  0
   -1.2029   -0.4958    2.2539 H   0  0  0  0  0  0  0  0  0  7  0  0
   -0.4569    0.6630    1.1858 H   0  0  0  0  0  0  0  0  0  8  0  0
   -0.3013   -0.8253   -2.8043 C   0  0  0  0  0  0  0  0  0  9  0  0
    0.6922   -0.3294   -1.7803 C   0  0  0  0  0  0  0  0  0 10  0  0
    0.7316    1.4426   -1.6499 S   0  0  0  0  0  0  0  0  0 11  0  0
    2.3446    1.7090   -0.8751 C   0  0  0  0  0  0  0  0  0 12  0  0
    2.4550    1.2333    0.5641 C   0  0  0  0  0  0  0  0  0 13  0  0
   -0.0021   -0.5448   -3.8167 H   0  0  0  0  0  0  0  0  0 14  0  0
   -0.3736   -1.9130   -2.7550 H   0  0  0  0  0  0  0  0  0 15  0  0
   -1.2963   -0.4208   -2.6159 H   0  0  0  0  0  0  0  0  0 16  0  0
    0.3127   -0.8352   -0.6578 H   0  0  0  0  0  0  0  0  0 17  0  0
    1.6968   -0.7318   -1.9229 H   0  0  0  0  0  0  0  0  0 18  0  0
    3.1038    1.2362   -1.5015 H   0  0  0  0  0  0  0  0  0 19  0  0
    2.5040    2.7866   -0.9358 H   0  0  0  0  0  0  0  0  0 20  0  0
    2.2812    0.1593    0.6389 H   0  0  0  0  0  0  0  0  0 21  0  0
    1.7289    1.7421    1.1995 H   0  0  0  0  0  0  0  0  0 22  0  0
    3.4536    1.4393    0.9556 H   0  0  0  0  0  0  0  0  0 23  0  0
  1  5  1  0
  1  6  1  0
  1  2  1  0
  2  8  1  0
  2  3  1  0
  2  7  1  0
  3  4  1  0
  9 16  1  0
  9 15  1  0
  9 14  1  0
  9 10  1  0
 10 18  1  0
 10 11  1  0
 10 17  1  0
 11 12  1  0
 12 19  1  0
 12 20  1  0
 12 13  1  0
 13 23  1  0
 13 21  1  0
 13 22  1  0
M  RAD  1   1   2
M  END
>  <rmg_smiles>  (3) 
CCSCC.[CH2]C[N][O]

>  <rmg_adjacency_list>  (3) 
multiplicity 2
1  S u0 p2 c0 {4,S} {5,S}
2  O u0 p2 c0 {3,S}
3  N u0 p1 c0 {2,S} {8,S}
4  C u0 p0 c0 {1,S} {6,S} {10,S} {11,S}
5  C u0 p0 c0 {1,S} {7,S} {12,S} {13,S}
6  C u0 p0 c0 {4,S} {16,S} {17,S} {18,S}
7  C u0 p0 c0 {5,S} {19,S} {20,S} {21,S}
8  C u0 p0 c0 {3,S} {9,S} {14,S} {15,S}
9  C u1 p0 c0 {8,S} {22,S} {23,S}
10 H u0 p0 c0 {4,S}
11 H u0 p0 c0 {4,S}
12 H u0 p0 c0 {5,S}
13 H u0 p0 c0 {5,S}
14 H u0 p0 c0 {8,S}
15 H u0 p0 c0 {8,S}
16 H u0 p0 c0 {6,S}
17 H u0 p0 c0 {6,S}
18 H u0 p0 c0 {6,S}
19 H u0 p0 c0 {7,S}
20 H u0 p0 c0 {7,S}
21 H u0 p0 c0 {7,S}
22 H u0 p0 c0 {9,S}
23 H u0 p0 c0 {9,S}


>  <multiplicity>  (3) 
2

>  <reaction>  (3) 
rmg_rxn_180

>  <type>  (3) 
ts

>  <role_mapnums>  (3) 
{"*2": 17, "*1": 10, "*3": 1, "*0": 11, "*4": 2}

>  <role_mapidx>  (3) 
{"*2": 16, "*1": 9, "*3": 0, "*0": 10, "*4": 1}

>  <ordered_mapped_smiles>  (3) 
[C:1]([C:2]([NH:3][OH:4])([H:7])[H:8])([H:5])[H:6].[C:9]([C:10]([S:11][C:12]([C:13]([H:21])([H:22])[H:23])([H:19])[H:20])([H:17])[H:18])([H:14])([H:15])[H:16]

>  <mol_properties>  (3) 
{"0": {"label": "*3", "atom_type": "Cs"}, "1": {"label": "*4", "atom_type": "Cs"}, "9": {"label": "*1", "atom_type": "Cs"}, "10": {"label": "*0", "atom_type": "S2s"}, "16": {"label": "*2", "atom_type": "H0"}}

>  <level_of_theory>  (3) 
wb97xd/def2tzvp

>  <lot_method>  (3) 
wb97xd

>  <lot_basis>  (3) 
def2tzvp

>  <spin_multiplicity>  (3) 
2.0

>  <optical_isomers>  (3) 
2.0

>  <modes>  (3) 
IdealGasTranslation(mass=(148.08, 'amu')),         NonlinearRotor(             inertia = ([314.396, 602.409, 741.656

>  <frequency_value>  (3) 
-1649.86

>  <frequency_units>  (3) 
cm^-1

>  <frequency_list>  (3) 
unknown

>  <arkane_path>  (3) 
/home/calvin/Dropbox/PersonalFolders/Calvin/ATLAS_Converged/rmg_rxn_180/output/rxns/TS0/arkane/output.py

>  <path_exists>  (3) 
True

>  <E0_value>  (3) 
-2008290.0

>  <E0_units>  (3) 
kJ/mol

>  <thermo_class>  (3) 
unknown

>  <Cp0_value>  (3) 
unknown

>  <Cp0_units>  (3) 
unknown

>  <CpInf_value>  (3) 
unknown

>  <CpInf_units>  (3) 
unknown

>  <Tmin_value>  (3) 
unknown

>  <Tmin_units>  (3) 
unknown

>  <Tmax_value>  (3) 
unknown

>  <Tmax_units>  (3) 
unknown

>  <polynomials>  (3) 
unknown

>  <H298_value>  (3) 
unknown

>  <H298_units>  (3) 
unknown

>  <S298_value>  (3) 
unknown

>  <S298_units>  (3) 
unknown

>  <Cp_T_value_list>  (3) 
unknown

>  <Cp_T_units>  (3) 
unknown

>  <T_list>  (3) 
unknown

>  <T_units>  (3) 
unknown

>  <yaml_path>  (3) 
unknown

>  <frequencies_cm1>  (3) 
unknown

>  <ZPE_kJmol>  (3) 
unknown

>  <E_elec_kJmol>  (3) 
unknown

>  <E0_minus_Eelec_plus_ZPE_kJmol>  (3) 
unknown

>  <rxn>  (3) 
unknown

>  <species_type>  (3) 
unknown

>  <species_folder>  (3) 
unknown

>  <frequencies_cm1_list>  (3) 
[]

>  <ts_imag_freq_cm1>  (3) 
-1669.8974

>  <ts_freq_out_path>  (3) 
/home/calvin/Dropbox/PersonalFolders/Calvin/ATLAS_Converged/rmg_rxn_180/output/rxns/TS0/geometry/freq.out

>  <E0_kJmol>  (3) 
-2.00829e+06

>  <H298_kJmol>  (3) 
unknown

$$$$

     RDKit          3D

 14 13  0  0  0  0  0  0  0  0999 V2000
    2.6194    0.1388   -0.2451 C   0  0  0  0  0  0  0  0  0  1  0  0
    1.2416   -0.4914   -0.3670 C   0  0  0  0  0  0  0  0  0  2  0  0
    0.9567   -1.8675    0.7732 S   0  0  0  0  0  0  0  0  0  3  0  0
    1.9992   -3.0673    0.1320 C   0  0  0  0  0  3  0  0  0  4  0  0
    2.1769   -4.3519    0.8615 C   0  0  0  0  0  0  0  0  0  5  0  0
    3.4009   -0.5920   -0.4552 H   0  0  0  0  0  0  0  0  0  6  0  0
    2.7219    0.9635   -0.9540 H   0  0  0  0  0  0  0  0  0  7  0  0
    2.7821    0.5262    0.7612 H   0  0  0  0  0  0  0  0  0  8  0  0
    1.0587   -0.8507   -1.3815 H   0  0  0  0  0  0  0  0  0  9  0  0
    0.4587    0.2313   -0.1333 H   0  0  0  0  0  0  0  0  0 10  0  0
    2.2677   -2.9922   -0.9152 H   0  0  0  0  0  0  0  0  0 11  0  0
    1.3745   -5.0711    0.6500 H   0  0  0  0  0  0  0  0  0 12  0  0
    3.1173   -4.8269    0.5747 H   0  0  0  0  0  0  0  0  0 13  0  0
    2.1945   -4.1971    1.9428 H   0  0  0  0  0  0  0  0  0 14  0  0
  1  8  1  0
  1  7  1  0
  1  6  1  0
  1  2  1  0
  2 10  1  0
  2  9  1  0
  2  3  1  0
  3  4  1  0
  4  5  1  0
  4 11  1  0
  5 12  1  0
  5 14  1  0
  5 13  1  0
M  RAD  1   4   2
M  END
>  <rmg_smiles>  (4) 
CCS[CH]C

>  <rmg_adjacency_list>  (4) 
multiplicity 2
1  S u0 p2 c0 {2,S} {5,S}
2  C u0 p0 c0 {1,S} {3,S} {6,S} {7,S}
3  C u0 p0 c0 {2,S} {8,S} {9,S} {10,S}
4  C u0 p0 c0 {5,S} {11,S} {12,S} {13,S}
5  C u1 p0 c0 {1,S} {4,S} {14,S}
6  H u0 p0 c0 {2,S}
7  H u0 p0 c0 {2,S}
8  H u0 p0 c0 {3,S}
9  H u0 p0 c0 {3,S}
10 H u0 p0 c0 {3,S}
11 H u0 p0 c0 {4,S}
12 H u0 p0 c0 {4,S}
13 H u0 p0 c0 {4,S}
14 H u0 p0 c0 {5,S}


>  <multiplicity>  (4) 
2

>  <reaction>  (4) 
rmg_rxn_180

>  <type>  (4) 
r1

>  <role_mapnums>  (4) 
{}

>  <role_mapidx>  (4) 
{}

>  <ordered_mapped_smiles>  (4) 
[C:1]([C:2]([S:3][C:4]([C:5]([H:12])([H:13])[H:14])[H:11])([H:9])[H:10])([H:6])([H:7])[H:8]

>  <level_of_theory>  (4) 
wb97xd/def2tzvp

>  <lot_method>  (4) 
wb97xd

>  <lot_basis>  (4) 
def2tzvp

>  <spin_multiplicity>  (4) 
2.0

>  <optical_isomers>  (4) 
2.0

>  <modes>  (4) 
IdealGasTranslation(mass=(89.0425, 'amu')),         NonlinearRotor(             inertia = ([61.1392, 234.583, 269.728

>  <frequency_value>  (4) 
unknown

>  <frequency_units>  (4) 
unknown

>  <frequency_list>  (4) 
unknown

>  <arkane_path>  (4) 
/home/calvin/Dropbox/PersonalFolders/Calvin/ATLAS_Converged/rmg_rxn_180/output/Species/rmg_rxn_180_p2_CCSsbr-CH-sbrC/arkane/output.py

>  <path_exists>  (4) 
True

>  <E0_value>  (4) 
-1459485.5932708492

>  <E0_units>  (4) 
kJ/mol

>  <thermo_class>  (4) 
NASA

>  <Cp0_value>  (4) 
33.257888

>  <Cp0_units>  (4) 
J/(mol*K)

>  <CpInf_value>  (4) 
332.57888

>  <CpInf_units>  (4) 
J/(mol*K)

>  <Tmin_value>  (4) 
10.0

>  <Tmin_units>  (4) 
K

>  <Tmax_value>  (4) 
3000.0

>  <Tmax_units>  (4) 
K

>  <polynomials>  (4) 
[{"name": "polynomial1", "class": "NASAPolynomial", "Tmin_value": 10.0, "Tmin_units": "K", "Tmax_value": 454.73652427014537, "Tmax_units": "K", "coeffs": [3.493929872758391, 0.04996954034356644, -9.706557814371871e-05, 2.0442141353294147e-07, -1.6137135098939988e-10, -175535569.76703313, 12.309949975756851]}, {"name": "polynomial2", "class": "NASAPolynomial", "Tmin_value": 454.73652427014537, "Tmin_units": "K", "Tmax_value": 3000.0, "Tmax_units": "K", "coeffs": [1.385626895078579, 0.048785175139354195, -2.8078373702267293e-05, 7.871486597778785e-09, -8.60198315864174e-13, -175535174.03261974, 23.062818681609528]}]

>  <H298_value>  (4) 
-348819.9985643355

>  <H298_units>  (4) 
kcal/mol

>  <S298_value>  (4) 
87.9960956943955

>  <S298_units>  (4) 
cal/(mol*K)

>  <Cp_T_value_list>  (4) 
[27.74370824131066, 33.58998475979596, 39.12570036512099, 43.99134046831092, 51.90875846619441, 57.83509485748177, 66.76728096321004, 71.24374186653883, 73.55591166534288]

>  <Cp_T_units>  (4) 
cal/(mol*K)

>  <T_list>  (4) 
[300.0, 400.0, 500.0, 600.0, 800.0, 1000.0, 1500.0, 2000.0, 2400.0]

>  <T_units>  (4) 
K

>  <yaml_path>  (4) 
/home/calvin/Dropbox/PersonalFolders/Calvin/ATLAS_Converged/rmg_rxn_180/output/Species/rmg_rxn_180_p2_CCSsbr-CH-sbrC/rmg_rxn_180_p2_CCSsbr-CH-sbrC.yml

>  <frequencies_cm1>  (4) 
[75.52310454936, 94.65452565087999, 130.82293733132, 178.45921449616, 258.28105185583996, 303.93277026320004, 399.92635805147995, 433.28617273604, 673.1087680517201, 749.4147089275599, 777.8920970496, 982.3977868645198, 1001.81075436416, 1020.13873818324, 1056.2934158930398, 1066.42908622536, 1115.65850398444, 1268.2978536774, 1291.53573200028, 1305.242234699, 1399.3061996123597, 1400.4461191754801, 1458.1905987313598, 1459.3785871917198, 1474.98037783876, 1476.0447605633601, 1485.12978214172, 2961.25694652892, 3017.9164424042397, 3034.9122310712396, 3037.7551629937198, 3080.4884126400793, 3082.99486228188, 3091.5030570933595, 3108.8215940703994, 3146.2535310497196]

>  <ZPE_kJmol>  (4) 
310.42196217621137

>  <E_elec_kJmol>  (4) 
-1459796.0152330254

>  <E0_minus_Eelec_plus_ZPE_kJmol>  (4) 
0.0

>  <rxn>  (4) 
rmg_rxn_180

>  <species_type>  (4) 
p1

>  <species_folder>  (4) 
rmg_rxn_180_p2_CCSsbr-CH-sbrC

>  <frequencies_cm1_list>  (4) 
[75.52310454936, 94.65452565087999, 130.82293733132, 178.45921449616, 258.28105185583996, 303.93277026320004, 399.92635805147995, 433.28617273604, 673.1087680517201, 749.4147089275599, 777.8920970496, 982.3977868645198, 1001.81075436416, 1020.13873818324, 1056.2934158930398, 1066.42908622536, 1115.65850398444, 1268.2978536774, 1291.53573200028, 1305.242234699, 1399.3061996123597, 1400.4461191754801, 1458.1905987313598, 1459.3785871917198, 1474.98037783876, 1476.0447605633601, 1485.12978214172, 2961.25694652892, 3017.9164424042397, 3034.9122310712396, 3037.7551629937198, 3080.4884126400793, 3082.99486228188, 3091.5030570933595, 3108.8215940703994, 3146.2535310497196]

>  <E0_kJmol>  (4) 
-1.45949e+06

>  <H298_kJmol>  (4) 
-1.45946e+06

$$$$

     RDKit          3D

  8  7  0  0  0  0  0  0  0  0999 V2000
   -1.0336    0.3440   -0.0356 C   0  0  0  0  0  3  0  0  0  1  0  0
    0.1991   -0.4326   -0.0698 C   0  0  0  0  0  0  0  0  0  2  0  0
    0.9631   -0.0368    1.2269 N   0  0  0  0  0  0  0  0  0  3  0  0
    0.8138   -0.8074    2.1160 O   0  0  0  0  0  0  0  0  0  4  0  0
   -1.0668    1.3490   -0.4321 H   0  0  0  0  0  0  0  0  0  5  0  0
   -1.8598    0.0102    0.5774 H   0  0  0  0  0  0  0  0  0  6  0  0
    0.0447   -1.5108   -0.0264 H   0  0  0  0  0  0  0  0  0  7  0  0
    0.8639   -0.1518   -0.8851 H   0  0  0  0  0  0  0  0  0  8  0  0
  1  5  1  0
  1  6  1  0
  1  2  1  0
  2  3  1  0
  2  8  1  0
  2  7  1  0
  3  4  1  0
M  RAD  1   1   2
M  END
>  <rmg_smiles>  (5) 
[CH2]C[N][O]

>  <rmg_adjacency_list>  (5) 
multiplicity 2
1 O u0 p2 c0 {2,S}
2 N u0 p1 c0 {1,S} {3,S}
3 C u0 p0 c0 {2,S} {4,S} {5,S} {6,S}
4 C u1 p0 c0 {3,S} {7,S} {8,S}
5 H u0 p0 c0 {3,S}
6 H u0 p0 c0 {3,S}
7 H u0 p0 c0 {4,S}
8 H u0 p0 c0 {4,S}


>  <multiplicity>  (5) 
2

>  <reaction>  (5) 
rmg_rxn_180

>  <type>  (5) 
r2

>  <role_mapnums>  (5) 
{}

>  <role_mapidx>  (5) 
{}

>  <ordered_mapped_smiles>  (5) 
[C:1]([C:2]([NH:3][OH:4])([H:7])[H:8])([H:5])[H:6]

>  <level_of_theory>  (5) 
wb97xd/def2tzvp

>  <lot_method>  (5) 
wb97xd

>  <lot_basis>  (5) 
def2tzvp

>  <spin_multiplicity>  (5) 
2.0

>  <optical_isomers>  (5) 
2.0

>  <modes>  (5) 
IdealGasTranslation(mass=(58.0293, 'amu')),         NonlinearRotor(             inertia = ([22.1608, 91.4743, 98.1404

>  <frequency_value>  (5) 
unknown

>  <frequency_units>  (5) 
unknown

>  <frequency_list>  (5) 
unknown

>  <arkane_path>  (5) 
/home/calvin/Dropbox/PersonalFolders/Calvin/ATLAS_Converged/rmg_rxn_180/output/Species/rmg_rxn_180_r1_sbr-CH2-sbrCN=O/arkane/output.py

>  <path_exists>  (5) 
True

>  <E0_value>  (5) 
-547146.7023069542

>  <E0_units>  (5) 
kJ/mol

>  <thermo_class>  (5) 
NASA

>  <Cp0_value>  (5) 
33.257888

>  <Cp0_units>  (5) 
J/(mol*K)

>  <CpInf_value>  (5) 
182.918384

>  <CpInf_units>  (5) 
J/(mol*K)

>  <Tmin_value>  (5) 
10.0

>  <Tmin_units>  (5) 
K

>  <Tmax_value>  (5) 
3000.0

>  <Tmax_units>  (5) 
K

>  <polynomials>  (5) 
[{"name": "polynomial1", "class": "NASAPolynomial", "Tmin_value": 10.0, "Tmin_units": "K", "Tmax_value": 326.276374951593, "Tmax_units": "K", "coeffs": [3.940819341091196, 0.004854009289033578, 0.00011129338709514705, -3.1833863495678465e-07, 2.953593453648331e-10, -65806549.8293943, 9.702528517413192]}, {"name": "polynomial2", "class": "NASAPolynomial", "Tmin_value": 326.276374951593, "Tmin_units": "K", "Tmax_value": 3000.0, "Tmax_units": "K", "coeffs": [2.776819309550134, 0.02583522144291814, -1.601730093384169e-05, 4.83080636877528e-09, -5.633659676887055e-13, -65806509.594192296, 13.46704514990697]}]

>  <H298_value>  (5) 
-130767.46203572692

>  <H298_units>  (5) 
kcal/mol

>  <S298_value>  (5) 
72.16753555448764

>  <S298_units>  (5) 
cal/(mol*K)

>  <Cp_T_value_list>  (5) 
[18.30355202843712, 21.547059859954224, 24.360658196069355, 26.791847495636276, 30.675596667686673, 33.50863415290605, 37.64296846492696, 39.765301572518176, 40.959572893301356]

>  <Cp_T_units>  (5) 
cal/(mol*K)

>  <T_list>  (5) 
[300.0, 400.0, 500.0, 600.0, 800.0, 1000.0, 1500.0, 2000.0, 2400.0]

>  <T_units>  (5) 
K

>  <yaml_path>  (5) 
/home/calvin/Dropbox/PersonalFolders/Calvin/ATLAS_Converged/rmg_rxn_180/output/Species/rmg_rxn_180_r1_sbr-CH2-sbrCN=O/rmg_rxn_180_r1_sbr-CH2-sbrCN=O.yml

>  <frequencies_cm1>  (5) 
[131.04954784688, 262.09222870843996, 346.66601990955996, 500.3972202684, 632.2502053977199, 654.47176989324, 811.1695079103199, 1087.0025742440798, 1125.80104130208, 1214.38515193008, 1243.73464718776, 1448.1373322228799, 1472.8996812868, 1680.95560251216, 3043.1663474258803, 3120.3924643346, 3133.0826532059596, 3239.93981177048]

>  <ZPE_kJmol>  (5) 
150.41605726776052

>  <E_elec_kJmol>  (5) 
-547297.118364222

>  <E0_minus_Eelec_plus_ZPE_kJmol>  (5) 
0.0

>  <rxn>  (5) 
rmg_rxn_180

>  <species_type>  (5) 
r0

>  <species_folder>  (5) 
rmg_rxn_180_r1_sbr-CH2-sbrCN=O

>  <frequencies_cm1_list>  (5) 
[131.04954784688, 262.09222870843996, 346.66601990955996, 500.3972202684, 632.2502053977199, 654.47176989324, 811.1695079103199, 1087.0025742440798, 1125.80104130208, 1214.38515193008, 1243.73464718776, 1448.1373322228799, 1472.8996812868, 1680.95560251216, 3043.1663474258803, 3120.3924643346, 3133.0826532059596, 3239.93981177048]

>  <E0_kJmol>  (5) 
-547147

>  <H298_kJmol>  (5) 
-547131

$$$$
