
     RDKit          3D

 13 12  0  0  0  0  0  0  0  0999 V2000
    0.4958   -1.6134   -0.4175 N   0  0  0  0  0  1  0  0  0  1  0  0
    0.5291   -1.0487    0.6486 N   0  0  0  0  0  0  0  0  0  2  0  0
    0.3832    0.4022    0.8769 C   0  0  0  0  0  0  0  0  0  3  0  0
    0.0424    1.2180   -0.3387 C   0  0  0  0  0  0  0  0  0  4  0  0
   -1.3775    1.0020   -0.8532 C   0  0  0  0  0  0  0  0  0  5  0  0
    0.6568   -1.5578    1.5454 H   0  0  0  0  0  0  0  0  0  6  0  0
   -0.4259    0.4638    1.6079 H   0  0  0  0  0  0  0  0  0  7  0  0
    1.2492    0.7539    1.4419 H   0  0  0  0  0  0  0  0  0  8  0  0
    0.1926    2.2687   -0.0811 H   0  0  0  0  0  0  0  0  0  9  0  0
    0.7579    0.9763   -1.1294 H   0  0  0  0  0  0  0  0  0 10  0  0
   -2.1153    1.2561   -0.0889 H   0  0  0  0  0  0  0  0  0 11  0  0
   -1.5280   -0.0358   -1.1472 H   0  0  0  0  0  0  0  0  0 12  0  0
   -1.5676    1.6314   -1.7230 H   0  0  0  0  0  0  0  0  0 13  0  0
  1  2  1  0
  2  6  1  0
  2  3  1  0
  3  4  1  0
  3  7  1  0
  3  8  1  0
  4  5  1  0
  4  9  1  0
  4 10  1  0
  5 11  1  0
  5 12  1  0
  5 13  1  0
M  RAD  1   1   3
M  END
>  <rmg_smiles>  (1) 
CCCN[N]

>  <rmg_adjacency_list>  (1) 
multiplicity 3
1  N u0 p1 c0 {2,S} {4,S} {13,S}
2  N u2 p2 c0 {1,S}
3  C u0 p0 c0 {4,S} {5,S} {6,S} {7,S}
4  C u0 p0 c0 {1,S} {3,S} {8,S} {9,S}
5  C u0 p0 c0 {3,S} {10,S} {11,S} {12,S}
6  H u0 p0 c0 {3,S}
7  H u0 p0 c0 {3,S}
8  H u0 p0 c0 {4,S}
9  H u0 p0 c0 {4,S}
10 H u0 p0 c0 {5,S}
11 H u0 p0 c0 {5,S}
12 H u0 p0 c0 {5,S}
13 H u0 p0 c0 {1,S}


>  <multiplicity>  (1) 
3

>  <reaction>  (1) 
rmg_rxn_15458

>  <type>  (1) 
r1h

>  <role_mapnums>  (1) 
{"r1h_a": 3, "r1h_h": 7}

>  <role_mapidx>  (1) 
{"r1h_a": 2, "r1h_h": 6}

>  <ordered_mapped_smiles>  (1) 
[N:1][N:2]([C:3]([C:4]([C:5]([H:11])([H:12])[H:13])([H:9])[H:10])([H:7])[H:8])[H:6]

>  <mol_properties>  (1) 
{"2": {"label": "donator", "atom_type": "Cs"}, "6": {"label": "d_hydrogen", "atom_type": "H0"}}

>  <level_of_theory>  (1) 
wb97xd/def2tzvp

>  <lot_method>  (1) 
wb97xd

>  <lot_basis>  (1) 
def2tzvp

>  <spin_multiplicity>  (1) 
1.0

>  <optical_isomers>  (1) 
2.0

>  <modes>  (1) 
IdealGasTranslation(mass=(72.0687, 'amu')),         NonlinearRotor(             inertia = ([57.2768, 139.247, 168.498

>  <frequency_value>  (1) 
unknown

>  <frequency_units>  (1) 
unknown

>  <frequency_list>  (1) 
unknown

>  <arkane_path>  (1) 
/home/calvin/Dropbox/PersonalFolders/Calvin/ZEUS_Converged/rmg_rxn_15458/output/Species/rmg_rxn_15458_r2_sbr-N--sbr=sbr-NHp-sbrCCC/arkane/output.py

>  <path_exists>  (1) 
True

>  <E0_value>  (1) 
-599806.8849416103

>  <E0_units>  (1) 
kJ/mol

>  <thermo_class>  (1) 
NASA

>  <Cp0_value>  (1) 
33.257888

>  <Cp0_units>  (1) 
J/(mol*K)

>  <CpInf_value>  (1) 
307.635464

>  <CpInf_units>  (1) 
J/(mol*K)

>  <Tmin_value>  (1) 
10.0

>  <Tmin_units>  (1) 
K

>  <Tmax_value>  (1) 
3000.0

>  <Tmax_units>  (1) 
K

>  <polynomials>  (1) 
[{"name": "polynomial1", "class": "NASAPolynomial", "Tmin_value": 10.0, "Tmin_units": "K", "Tmax_value": 1042.7830422296283, "Tmax_units": "K", "coeffs": [3.8866418863799566, 0.02035469426564401, 2.9512879530510683e-05, -4.134957250218198e-08, 1.416539980781168e-11, -72140110.22040336, 10.00056724606051]}, {"name": "polynomial2", "class": "NASAPolynomial", "Tmin_value": 1042.7830422296283, "Tmin_units": "K", "Tmax_value": 3000.0, "Tmax_units": "K", "coeffs": [3.5071275615409494, 0.03802645475282213, -1.9233232716814573e-05, 4.727210944293843e-09, -4.563987361780829e-13, -72140912.73046388, 7.619964814937329]}]

>  <H298_value>  (1) 
-143352.82979672542

>  <H298_units>  (1) 
kcal/mol

>  <S298_value>  (1) 
77.86358770542918

>  <S298_units>  (1) 
cal/(mol*K)

>  <Cp_T_value_list>  (1) 
[23.14600879362098, 28.748602296742785, 34.09817792523218, 39.005730248897265, 47.07653815602756, 52.800162156761196, 61.43618687218622, 65.86082050934695, 67.9504355680974]

>  <Cp_T_units>  (1) 
cal/(mol*K)

>  <T_list>  (1) 
[300.0, 400.0, 500.0, 600.0, 800.0, 1000.0, 1500.0, 2000.0, 2400.0]

>  <T_units>  (1) 
K

>  <yaml_path>  (1) 
/home/calvin/Dropbox/PersonalFolders/Calvin/ZEUS_Converged/rmg_rxn_15458/output/Species/rmg_rxn_15458_r2_sbr-N--sbr=sbr-NHp-sbrCCC/rmg_rxn_15458_r2_sbr-N--sbr=sbr-NHp-sbrCCC.yml

>  <frequencies_cm1>  (1) 
[118.41429485808, 137.53884897428, 209.01729917016, 302.19542297723996, 382.5803531331599, 639.8313571909999, 738.4275324155599, 773.1950790907199, 828.3644391515999, 914.4627010937601, 943.64052171844, 1061.8900089288397, 1111.5863816896801, 1141.6775113619199, 1249.5715847097601, 1293.14260656516, 1348.87505942228, 1379.0279919624, 1404.985196472, 1458.4378102028802, 1464.06187117996, 1484.49801949228, 1495.6637376226001, 1540.4708168355999, 1688.3170107751998, 2994.3214808447196, 3015.47866261564, 3018.8091504958397, 3033.86158231728, 3065.0102277287992, 3074.73387894192, 3091.29704753376, 3107.1323156816798]

>  <ZPE_kJmol>  (1) 
296.1387454515404

>  <E_elec_kJmol>  (1) 
-600103.0236870619

>  <E0_minus_Eelec_plus_ZPE_kJmol>  (1) 
0.0

>  <rxn>  (1) 
rmg_rxn_15458

>  <species_type>  (1) 
r1

>  <species_folder>  (1) 
rmg_rxn_15458_r2_sbr-N--sbr=sbr-NHp-sbrCCC

>  <frequencies_cm1_list>  (1) 
[118.41429485808, 137.53884897428, 209.01729917016, 302.19542297723996, 382.5803531331599, 639.8313571909999, 738.4275324155599, 773.1950790907199, 828.3644391515999, 914.4627010937601, 943.64052171844, 1061.8900089288397, 1111.5863816896801, 1141.6775113619199, 1249.5715847097601, 1293.14260656516, 1348.87505942228, 1379.0279919624, 1404.985196472, 1458.4378102028802, 1464.06187117996, 1484.49801949228, 1495.6637376226001, 1540.4708168355999, 1688.3170107751998, 2994.3214808447196, 3015.47866261564, 3018.8091504958397, 3033.86158231728, 3065.0102277287992, 3074.73387894192, 3091.29704753376, 3107.1323156816798]

>  <E0_kJmol>  (1) 
-599807

>  <H298_kJmol>  (1) 
-599788

$$$$

     RDKit          3D

  6  5  0  0  0  0  0  0  0  0999 V2000
   -0.5472   -0.4829    0.8270 O   0  0  0  0  0  0  0  0  0  1  0  0
    0.3875   -0.2486   -0.1826 N   0  0  0  0  0  0  0  0  0  2  0  0
    0.2415    0.8308   -0.7819 C   0  0  0  0  0  0  0  0  0  3  0  0
   -0.2950   -1.3479    1.1592 H   0  0  0  0  0  0  0  0  0  4  0  0
   -0.5114    1.6019   -0.6225 H   0  0  0  0  0  0  0  0  0  5  0  0
    0.9916    0.9374   -1.5646 H   0  0  0  0  0  0  0  0  0  6  0  0
  1  4  1  0
  1  2  1  0
  2  3  1  0
  3  6  1  0
  3  5  1  0
M  END
>  <rmg_smiles>  (2) 
[CH2][N]O

>  <rmg_adjacency_list>  (2) 
1 O u0 p2 c0 {2,S} {6,S}
2 N u0 p1 c0 {1,S} {3,S}
3 C u0 p0 c0 {2,S} {4,S} {5,S}
4 H u0 p0 c0 {3,S}
5 H u0 p0 c0 {3,S}
6 H u0 p0 c0 {1,S}


>  <multiplicity>  (2) 
1

>  <reaction>  (2) 
rmg_rxn_15458

>  <type>  (2) 
r2h

>  <role_mapnums>  (2) 
{"r2h_a": 3, "r2h_h": 6}

>  <role_mapidx>  (2) 
{"r2h_a": 2, "r2h_h": 5}

>  <ordered_mapped_smiles>  (2) 
[O:1]([NH:2][CH:3]([H:5])[H:6])[H:4]

>  <mol_properties>  (2) 
{"2": {"label": "acceptor", "atom_type": "Cs"}, "5": {"label": "a_hydrogen", "atom_type": "H0"}}

>  <level_of_theory>  (2) 
wb97xd/def2tzvp

>  <lot_method>  (2) 
wb97xd

>  <lot_basis>  (2) 
def2tzvp

>  <spin_multiplicity>  (2) 
1.0

>  <optical_isomers>  (2) 
1.0

>  <modes>  (2) 
IdealGasTranslation(mass=(45.0215, 'amu')),         NonlinearRotor(             inertia = ([7.10552, 42.1368, 49.2423

>  <frequency_value>  (2) 
unknown

>  <frequency_units>  (2) 
unknown

>  <frequency_list>  (2) 
unknown

>  <arkane_path>  (2) 
/home/calvin/Dropbox/PersonalFolders/Calvin/ZEUS_Converged/rmg_rxn_15458/output/Species/rmg_rxn_15458_p1_ON=C/arkane/output.py

>  <path_exists>  (2) 
True

>  <E0_value>  (2) 
-445765.04652910994

>  <E0_units>  (2) 
kJ/mol

>  <thermo_class>  (2) 
NASA

>  <Cp0_value>  (2) 
33.257888

>  <Cp0_units>  (2) 
J/(mol*K)

>  <CpInf_value>  (2) 
133.031552

>  <CpInf_units>  (2) 
J/(mol*K)

>  <Tmin_value>  (2) 
10.0

>  <Tmin_units>  (2) 
K

>  <Tmax_value>  (2) 
3000.0

>  <Tmax_units>  (2) 
K

>  <polynomials>  (2) 
[{"name": "polynomial1", "class": "NASAPolynomial", "Tmin_value": 10.0, "Tmin_units": "K", "Tmax_value": 555.0008285415723, "Tmax_units": "K", "coeffs": [4.0729558966761115, -0.006525504673073184, 8.044401869233928e-05, -1.3643340673050255e-07, 7.605604608176978e-11, -53613151.050707266, 6.598063650688069]}, {"name": "polynomial2", "class": "NASAPolynomial", "Tmin_value": 555.0008285415723, "Tmin_units": "K", "Tmax_value": 3000.0, "Tmax_units": "K", "coeffs": [1.9629419554542669, 0.01794293278685335, -1.0716899102514014e-05, 3.1351804200574135e-09, -3.5588210478784073e-13, -53613059.472560614, 14.250328412630774]}]

>  <H298_value>  (2) 
-106537.6194767193

>  <H298_units>  (2) 
kcal/mol

>  <S298_value>  (2) 
60.36296822828259

>  <S298_units>  (2) 
cal/(mol*K)

>  <Cp_T_value_list>  (2) 
[12.494795700177992, 15.001608210431446, 17.130783734283074, 18.881829280437152, 21.69615330289245, 23.7834318087242, 26.9145239767162, 28.553257692891545, 29.47039525924992]

>  <Cp_T_units>  (2) 
cal/(mol*K)

>  <T_list>  (2) 
[300.0, 400.0, 500.0, 600.0, 800.0, 1000.0, 1500.0, 2000.0, 2400.0]

>  <T_units>  (2) 
K

>  <yaml_path>  (2) 
/home/calvin/Dropbox/PersonalFolders/Calvin/ZEUS_Converged/rmg_rxn_15458/output/Species/rmg_rxn_15458_p1_ON=C/rmg_rxn_15458_p1_ON=C.yml

>  <frequencies_cm1>  (2) 
[438.20980121048, 539.7244451960399, 801.7205361099999, 965.59427378648, 986.4836431299199, 1183.2914424011199, 1353.5034075279598, 1444.4016922088, 1728.97643085492, 3083.6403589019596, 3214.03754314344, 3841.1169085952]

>  <ZPE_kJmol>  (2) 
117.11863122037906

>  <E_elec_kJmol>  (2) 
-445882.1651603303

>  <E0_minus_Eelec_plus_ZPE_kJmol>  (2) 
0.0

>  <rxn>  (2) 
rmg_rxn_15458

>  <species_type>  (2) 
p0

>  <species_folder>  (2) 
rmg_rxn_15458_p1_ON=C

>  <frequencies_cm1_list>  (2) 
[438.20980121048, 539.7244451960399, 801.7205361099999, 965.59427378648, 986.4836431299199, 1183.2914424011199, 1353.5034075279598, 1444.4016922088, 1728.97643085492, 3083.6403589019596, 3214.03754314344, 3841.1169085952]

>  <E0_kJmol>  (2) 
-445765

>  <H298_kJmol>  (2) 
-445753

$$$$

     RDKit          3D

 18 16  0  0  0  0  0  0  0  0999 V2000
   -1.6038   -0.9293    3.1323 O   0  0  0  0  0  0  0  0  0  1  0  0
   -0.6692   -0.6950    2.1227 N   0  0  0  0  0  0  0  0  0  2  0  0
   -0.8151    0.3844    1.5234 C   0  0  0  0  0  3  0  0  0  3  0  0
   -1.3516   -1.7943    3.4645 H   0  0  0  0  0  0  0  0  0  4  0  0
   -1.5680    1.1555    1.6828 H   0  0  0  0  0  0  0  0  0  5  0  0
    1.2222   -1.5617   -1.6485 N   0  0  0  0  0  1  0  0  0  6  0  0
    1.2554   -0.9970   -0.5824 N   0  0  0  0  0  0  0  0  0  7  0  0
    1.1095    0.4539   -0.3542 C   0  0  0  0  0  0  0  0  0  8  0  0
    0.7688    1.2697   -1.5698 C   0  0  0  0  0  0  0  0  0  9  0  0
   -0.6512    1.0537   -2.0842 C   0  0  0  0  0  0  0  0  0 10  0  0
    1.3831   -1.5061    0.3144 H   0  0  0  0  0  0  0  0  0 11  0  0
    0.1746    0.5251    0.4906 H   0  0  0  0  0  0  0  0  0 12  0  0
    1.9755    0.8056    0.2108 H   0  0  0  0  0  0  0  0  0 13  0  0
    0.9189    2.3204   -1.3122 H   0  0  0  0  0  0  0  0  0 14  0  0
    1.4843    1.0280   -2.3605 H   0  0  0  0  0  0  0  0  0 15  0  0
   -1.3889    1.3078   -1.3199 H   0  0  0  0  0  0  0  0  0 16  0  0
   -0.8017    0.0159   -2.3782 H   0  0  0  0  0  0  0  0  0 17  0  0
   -0.8412    1.6831   -2.9540 H   0  0  0  0  0  0  0  0  0 18  0  0
  1  4  1  0
  1  2  1  0
  2  3  1  0
  3  5  1  0
  6  7  1  0
  7  8  1  0
  7 11  1  0
  8  9  1  0
  8 13  1  0
  8 12  1  0
  9 10  1  0
  9 15  1  0
  9 14  1  0
 10 16  1  0
 10 17  1  0
 10 18  1  0
M  RAD  2   3   2   6   3
M  END
>  <rmg_smiles>  (3) 
CCCN[N].[CH][N]O

>  <rmg_adjacency_list>  (3) 
multiplicity 4
1  O u0 p2 c0 {3,S} {17,S}
2  N u0 p1 c0 {4,S} {6,S} {16,S}
3  N u0 p1 c0 {1,S} {8,S}
4  N u2 p2 c0 {2,S}
5  C u0 p0 c0 {6,S} {7,S} {9,S} {10,S}
6  C u0 p0 c0 {2,S} {5,S} {11,S} {12,S}
7  C u0 p0 c0 {5,S} {13,S} {14,S} {15,S}
8  C u1 p1 c0 {3,S} {18,S}
9  H u0 p0 c0 {5,S}
10 H u0 p0 c0 {5,S}
11 H u0 p0 c0 {6,S}
12 H u0 p0 c0 {6,S}
13 H u0 p0 c0 {7,S}
14 H u0 p0 c0 {7,S}
15 H u0 p0 c0 {7,S}
16 H u0 p0 c0 {2,S}
17 H u0 p0 c0 {1,S}
18 H u0 p0 c0 {8,S}


>  <multiplicity>  (3) 
4

>  <reaction>  (3) 
rmg_rxn_15458

>  <type>  (3) 
ts

>  <role_mapnums>  (3) 
{"*2": 12, "*1": 8, "*3": 3, "*0": 7, "*4": 2}

>  <role_mapidx>  (3) 
{"*2": 11, "*1": 7, "*3": 2, "*0": 6, "*4": 1}

>  <ordered_mapped_smiles>  (3) 
[O:1]([NH:2][CH:3][H:5])[H:4].[N:6][N:7]([C:8]([C:9]([C:10]([H:16])([H:17])[H:18])([H:14])[H:15])([H:12])[H:13])[H:11]

>  <mol_properties>  (3) 
{"1": {"label": "*4", "atom_type": "N3s"}, "2": {"label": "*3", "atom_type": "C2s"}, "6": {"label": "*0", "atom_type": "N3s"}, "7": {"label": "*1", "atom_type": "Cs"}, "11": {"label": "*2", "atom_type": "H0"}}

>  <level_of_theory>  (3) 
wb97xd/def2tzvp

>  <lot_method>  (3) 
wb97xd

>  <lot_basis>  (3) 
def2tzvp

>  <spin_multiplicity>  (3) 
2.0

>  <optical_isomers>  (3) 
2.0

>  <modes>  (3) 
IdealGasTranslation(mass=(116.082, 'amu')),         NonlinearRotor(             inertia = ([173.882, 541.892, 633.633

>  <frequency_value>  (3) 
-1549.41

>  <frequency_units>  (3) 
cm^-1

>  <frequency_list>  (3) 
unknown

>  <arkane_path>  (3) 
/home/calvin/Dropbox/PersonalFolders/Calvin/ZEUS_Converged/rmg_rxn_15458/output/rxns/TS0/arkane/output.py

>  <path_exists>  (3) 
True

>  <E0_value>  (3) 
-1043780.0

>  <E0_units>  (3) 
kJ/mol

>  <thermo_class>  (3) 
unknown

>  <Cp0_value>  (3) 
unknown

>  <Cp0_units>  (3) 
unknown

>  <CpInf_value>  (3) 
unknown

>  <CpInf_units>  (3) 
unknown

>  <Tmin_value>  (3) 
unknown

>  <Tmin_units>  (3) 
unknown

>  <Tmax_value>  (3) 
unknown

>  <Tmax_units>  (3) 
unknown

>  <polynomials>  (3) 
unknown

>  <H298_value>  (3) 
unknown

>  <H298_units>  (3) 
unknown

>  <S298_value>  (3) 
unknown

>  <S298_units>  (3) 
unknown

>  <Cp_T_value_list>  (3) 
unknown

>  <Cp_T_units>  (3) 
unknown

>  <T_list>  (3) 
unknown

>  <T_units>  (3) 
unknown

>  <yaml_path>  (3) 
unknown

>  <frequencies_cm1>  (3) 
unknown

>  <ZPE_kJmol>  (3) 
unknown

>  <E_elec_kJmol>  (3) 
unknown

>  <E0_minus_Eelec_plus_ZPE_kJmol>  (3) 
unknown

>  <rxn>  (3) 
unknown

>  <species_type>  (3) 
unknown

>  <species_folder>  (3) 
unknown

>  <frequencies_cm1_list>  (3) 
[]

>  <ts_imag_freq_cm1>  (3) 
-1568.2262

>  <ts_freq_out_path>  (3) 
/home/calvin/Dropbox/PersonalFolders/Calvin/ZEUS_Converged/rmg_rxn_15458/output/rxns/TS0/geometry/freq.out

>  <E0_kJmol>  (3) 
-1.04378e+06

>  <H298_kJmol>  (3) 
unknown

$$$$

     RDKit          3D

 12 11  0  0  0  0  0  0  0  0999 V2000
    1.5035    1.1817    1.1767 N   0  0  0  0  0  2  0  0  0  1  0  0
    1.5580   -0.0511    0.8125 N   0  0  0  0  0  0  0  0  0  2  0  0
    0.8482   -0.7137   -0.0804 C   0  0  0  0  0  0  0  0  0  3  0  0
   -0.2212   -0.0125   -0.8376 C   0  0  0  0  0  0  0  0  0  4  0  0
   -1.4527    0.3302    0.0094 C   0  0  0  0  0  0  0  0  0  5  0  0
    2.2746   -0.5859    1.3051 H   0  0  0  0  0  0  0  0  0  6  0  0
    1.0804   -1.7613   -0.1832 H   0  0  0  0  0  0  0  0  0  7  0  0
    0.1929    0.9174   -1.2475 H   0  0  0  0  0  0  0  0  0  8  0  0
   -0.5138   -0.6336   -1.6852 H   0  0  0  0  0  0  0  0  0  9  0  0
   -1.1741    0.9508    0.8624 H   0  0  0  0  0  0  0  0  0 10  0  0
   -2.1844    0.8814   -0.5833 H   0  0  0  0  0  0  0  0  0 11  0  0
   -1.9295   -0.5758    0.3865 H   0  0  0  0  0  0  0  0  0 12  0  0
  1  2  1  0
  2  6  1  0
  2  3  1  0
  3  4  1  0
  3  7  1  0
  4  8  1  0
  4  5  1  0
  4  9  1  0
  5 11  1  0
  5 12  1  0
  5 10  1  0
M  RAD  1   1   2
M  END
>  <rmg_smiles>  (4) 
CC[CH]N[N]

>  <rmg_adjacency_list>  (4) 
multiplicity 2
1  N u0 p1 c0 {2,S} {5,S} {12,S}
2  N u1 p2 c0 {1,S}
3  C u0 p0 c0 {4,S} {5,S} {6,S} {7,S}
4  C u0 p0 c0 {3,S} {8,S} {9,S} {10,S}
5  C u0 p0 c0 {1,S} {3,S} {11,S}
6  H u0 p0 c0 {3,S}
7  H u0 p0 c0 {3,S}
8  H u0 p0 c0 {4,S}
9  H u0 p0 c0 {4,S}
10 H u0 p0 c0 {4,S}
11 H u0 p0 c0 {5,S}
12 H u0 p0 c0 {1,S}


>  <multiplicity>  (4) 
2

>  <reaction>  (4) 
rmg_rxn_15458

>  <type>  (4) 
r1

>  <role_mapnums>  (4) 
{}

>  <role_mapidx>  (4) 
{}

>  <ordered_mapped_smiles>  (4) 
[NH:1][N:2]([CH:3]([C:4]([C:5]([H:10])([H:11])[H:12])([H:8])[H:9])[H:7])[H:6]

>  <level_of_theory>  (4) 
wb97xd/def2tzvp

>  <lot_method>  (4) 
wb97xd

>  <lot_basis>  (4) 
def2tzvp

>  <spin_multiplicity>  (4) 
2.0

>  <optical_isomers>  (4) 
2.0

>  <modes>  (4) 
IdealGasTranslation(mass=(71.0609, 'amu')),         NonlinearRotor(             inertia = ([53.0504, 135.065, 165.702

>  <frequency_value>  (4) 
unknown

>  <frequency_units>  (4) 
unknown

>  <frequency_list>  (4) 
unknown

>  <arkane_path>  (4) 
/home/calvin/Dropbox/PersonalFolders/Calvin/ZEUS_Converged/rmg_rxn_15458/output/Species/rmg_rxn_15458_p2_sbr-N--sbrsbr-NHp-sbr=CCC/arkane/output.py

>  <path_exists>  (4) 
True

>  <E0_value>  (4) 
-598127.5170687059

>  <E0_units>  (4) 
kJ/mol

>  <thermo_class>  (4) 
NASA

>  <Cp0_value>  (4) 
33.257888

>  <Cp0_units>  (4) 
J/(mol*K)

>  <CpInf_value>  (4) 
282.692048

>  <CpInf_units>  (4) 
J/(mol*K)

>  <Tmin_value>  (4) 
10.0

>  <Tmin_units>  (4) 
K

>  <Tmax_value>  (4) 
3000.0

>  <Tmax_units>  (4) 
K

>  <polynomials>  (4) 
[{"name": "polynomial1", "class": "NASAPolynomial", "Tmin_value": 10.0, "Tmin_units": "K", "Tmax_value": 739.4999479299472, "Tmax_units": "K", "coeffs": [3.821238605880714, 0.016802318913101372, 4.763012085888799e-05, -7.711753468362967e-08, 3.416654210903353e-11, -71938122.5160064, 10.943746724720873]}, {"name": "polynomial2", "class": "NASAPolynomial", "Tmin_value": 739.4999479299472, "Tmin_units": "K", "Tmax_value": 3000.0, "Tmax_units": "K", "coeffs": [1.2981990534613113, 0.04113569623707684, -2.3403314004957645e-05, 6.460657288903463e-09, -6.945237299068545e-13, -71938041.548706, 20.378955278735056]}]

>  <H298_value>  (4) 
-142951.59456092006

>  <H298_units>  (4) 
kcal/mol

>  <S298_value>  (4) 
77.9437148946711

>  <S298_units>  (4) 
cal/(mol*K)

>  <Cp_T_value_list>  (4) 
[22.541321940141213, 28.023837988255732, 33.03859046947669, 37.39936511185603, 44.2193482555073, 49.276192941496355, 56.89964174289555, 60.66785280908497, 62.57768359723086]

>  <Cp_T_units>  (4) 
cal/(mol*K)

>  <T_list>  (4) 
[300.0, 400.0, 500.0, 600.0, 800.0, 1000.0, 1500.0, 2000.0, 2400.0]

>  <T_units>  (4) 
K

>  <yaml_path>  (4) 
/home/calvin/Dropbox/PersonalFolders/Calvin/ZEUS_Converged/rmg_rxn_15458/output/Species/rmg_rxn_15458_p2_sbr-N--sbrsbr-NHp-sbr=CCC/rmg_rxn_15458_p2_sbr-N--sbrsbr-NHp-sbr=CCC.yml

>  <frequencies_cm1>  (4) 
[108.841717322, 198.85416089656, 256.05614861216003, 294.31212382987997, 511.21958913272005, 575.24049327108, 667.51904200124, 801.3153839761201, 827.2931894416799, 887.88060092004, 1013.14128014216, 1072.8977863968, 1121.7838548898799, 1135.2019442051599, 1287.1133934542, 1337.173716437, 1345.67504426316, 1400.50105505804, 1452.9854238588, 1475.6464754148, 1488.28859538892, 1496.5701796848398, 1535.3961146841198, 2981.79609962104, 3018.4795352004803, 3067.0977912660796, 3094.0507086470793, 3099.5786318296796, 3217.4298338915196, 3404.94660202476]

>  <ZPE_kJmol>  (4) 
264.2209851653227

>  <E_elec_kJmol>  (4) 
-598391.7380538712

>  <E0_minus_Eelec_plus_ZPE_kJmol>  (4) 
0.0

>  <rxn>  (4) 
rmg_rxn_15458

>  <species_type>  (4) 
p1

>  <species_folder>  (4) 
rmg_rxn_15458_p2_sbr-N--sbrsbr-NHp-sbr=CCC

>  <frequencies_cm1_list>  (4) 
[108.841717322, 198.85416089656, 256.05614861216003, 294.31212382987997, 511.21958913272005, 575.24049327108, 667.51904200124, 801.3153839761201, 827.2931894416799, 887.88060092004, 1013.14128014216, 1072.8977863968, 1121.7838548898799, 1135.2019442051599, 1287.1133934542, 1337.173716437, 1345.67504426316, 1400.50105505804, 1452.9854238588, 1475.6464754148, 1488.28859538892, 1496.5701796848398, 1535.3961146841198, 2981.79609962104, 3018.4795352004803, 3067.0977912660796, 3094.0507086470793, 3099.5786318296796, 3217.4298338915196, 3404.94660202476]

>  <E0_kJmol>  (4) 
-598128

>  <H298_kJmol>  (4) 
-598109

$$$$

     RDKit          3D

  5  4  0  0  0  0  0  0  0  0999 V2000
    0.8934    0.3742    0.4948 O   0  0  0  0  0  0  0  0  0  1  0  0
    0.1582   -0.1610   -0.5904 N   0  0  0  0  0  0  0  0  0  2  0  0
   -1.0297   -0.3739   -0.4689 C   0  0  0  0  0  3  0  0  0  3  0  0
    1.7805    0.4382    0.1306 H   0  0  0  0  0  0  0  0  0  4  0  0
   -1.8023   -0.2775    0.2859 H   0  0  0  0  0  0  0  0  0  5  0  0
  1  4  1  0
  1  2  1  0
  2  3  1  0
  3  5  1  0
M  RAD  1   3   2
M  END
>  <rmg_smiles>  (5) 
[CH][N]O

>  <rmg_adjacency_list>  (5) 
multiplicity 2
1 O u0 p2 c0 {2,S} {4,S}
2 N u0 p1 c0 {1,S} {3,S}
3 C u1 p1 c0 {2,S} {5,S}
4 H u0 p0 c0 {1,S}
5 H u0 p0 c0 {3,S}


>  <multiplicity>  (5) 
2

>  <reaction>  (5) 
rmg_rxn_15458

>  <type>  (5) 
r2

>  <role_mapnums>  (5) 
{}

>  <role_mapidx>  (5) 
{}

>  <ordered_mapped_smiles>  (5) 
[O:1]([NH:2][CH:3][H:5])[H:4]

>  <level_of_theory>  (5) 
wb97xd/def2tzvp

>  <lot_method>  (5) 
wb97xd

>  <lot_basis>  (5) 
def2tzvp

>  <spin_multiplicity>  (5) 
2.0

>  <optical_isomers>  (5) 
1.0

>  <modes>  (5) 
IdealGasTranslation(mass=(44.0136, 'amu')),         NonlinearRotor(             inertia = ([5.81591, 41.4826, 47.2985

>  <frequency_value>  (5) 
unknown

>  <frequency_units>  (5) 
unknown

>  <frequency_list>  (5) 
unknown

>  <arkane_path>  (5) 
/home/calvin/Dropbox/PersonalFolders/Calvin/ZEUS_Converged/rmg_rxn_15458/output/Species/rmg_rxn_15458_r1_ON=sbr-CH-sbr/arkane/output.py

>  <path_exists>  (5) 
True

>  <E0_value>  (5) 
-444005.359324532

>  <E0_units>  (5) 
kJ/mol

>  <thermo_class>  (5) 
NASA

>  <Cp0_value>  (5) 
33.257888

>  <Cp0_units>  (5) 
J/(mol*K)

>  <CpInf_value>  (5) 
108.088136

>  <CpInf_units>  (5) 
J/(mol*K)

>  <Tmin_value>  (5) 
10.0

>  <Tmin_units>  (5) 
K

>  <Tmax_value>  (5) 
3000.0

>  <Tmax_units>  (5) 
K

>  <polynomials>  (5) 
[{"name": "polynomial1", "class": "NASAPolynomial", "Tmin_value": 10.0, "Tmin_units": "K", "Tmax_value": 581.5521855773558, "Tmax_units": "K", "coeffs": [3.9651854378376354, 0.0020096300724220997, 4.068547950040168e-05, -7.790242028845132e-08, 4.4772375189871534e-11, -53401508.17068676, 6.828671301777145]}, {"name": "polynomial2", "class": "NASAPolynomial", "Tmin_value": 581.5521855773558, "Tmin_units": "K", "Tmax_value": 3000.0, "Tmax_units": "K", "coeffs": [3.5849357627708427, 0.012844035212889389, -8.4590302800557e-06, 2.7367089532336234e-09, -3.401217371194876e-13, -53401602.928060964, 7.262096783490094]}]

>  <H298_value>  (5) 
-106116.84893693788

>  <H298_units>  (5) 
kcal/mol

>  <S298_value>  (5) 
62.05085615552054

>  <S298_units>  (5) 
cal/(mol*K)

>  <Cp_T_value_list>  (5) 
[12.895099247909474, 14.783091657217865, 16.298752276569193, 17.47381546838603, 19.292328661132526, 20.6004316585094, 22.520408903315662, 23.62512089396801, 24.312373577063074]

>  <Cp_T_units>  (5) 
cal/(mol*K)

>  <T_list>  (5) 
[300.0, 400.0, 500.0, 600.0, 800.0, 1000.0, 1500.0, 2000.0, 2400.0]

>  <T_units>  (5) 
K

>  <yaml_path>  (5) 
/home/calvin/Dropbox/PersonalFolders/Calvin/ZEUS_Converged/rmg_rxn_15458/output/Species/rmg_rxn_15458_r1_ON=sbr-CH-sbr/rmg_rxn_15458_r1_ON=sbr-CH-sbr.yml

>  <frequencies_cm1>  (5) 
[407.41137205027997, 410.42597860575995, 739.51938308144, 761.67227772376, 903.0703724478799, 1348.68965081864, 1755.81260948548, 3154.3291057860397, 3817.47387813844]

>  <ZPE_kJmol>  (5) 
79.54214655441899

>  <E_elec_kJmol>  (5) 
-444084.9014710864

>  <E0_minus_Eelec_plus_ZPE_kJmol>  (5) 
0.0

>  <rxn>  (5) 
rmg_rxn_15458

>  <species_type>  (5) 
r0

>  <species_folder>  (5) 
rmg_rxn_15458_r1_ON=sbr-CH-sbr

>  <frequencies_cm1_list>  (5) 
[407.41137205027997, 410.42597860575995, 739.51938308144, 761.67227772376, 903.0703724478799, 1348.68965081864, 1755.81260948548, 3154.3291057860397, 3817.47387813844]

>  <E0_kJmol>  (5) 
-444005

>  <H298_kJmol>  (5) 
-443993

$$$$
