
     RDKit          3D

  9  9  0  0  0  0  0  0  0  0999 V2000
    0.1692   -0.1536   -1.5465 C   0  0  0  0  0  0  0  0  0  1  0  0
    0.4623   -0.1950   -0.0816 C   0  0  0  0  0  0  0  0  0  2  0  0
   -0.0286    0.8422    0.7583 N   0  0  0  0  0  0  0  0  0  3  0  0
   -0.6013   -0.4657    0.7972 O   0  0  0  0  0  0  0  0  0  4  0  0
    0.9600    0.3909   -2.0654 H   0  0  0  0  0  0  0  0  0  5  0  0
   -0.7827    0.3448   -1.7232 H   0  0  0  0  0  0  0  0  0  6  0  0
    0.1281   -1.1655   -1.9531 H   0  0  0  0  0  0  0  0  0  7  0  0
    1.4036   -0.6592    0.2128 H   0  0  0  0  0  0  0  0  0  8  0  0
    0.6010    0.9165    1.5827 H   0  0  0  0  0  0  0  0  0  9  0  0
  1  5  1  0
  1  7  1  0
  1  6  1  0
  1  2  1  0
  2  4  1  0
  2  3  1  0
  2  8  1  0
  3  9  1  0
  3  4  1  0
M  END
>  <rmg_smiles>  (1) 
CC1NO1

>  <rmg_adjacency_list>  (1) 
1 O u0 p2 c0 {2,S} {3,S}
2 N u0 p1 c0 {1,S} {3,S} {9,S}
3 C u0 p0 c0 {1,S} {2,S} {4,S} {5,S}
4 C u0 p0 c0 {3,S} {6,S} {7,S} {8,S}
5 H u0 p0 c0 {3,S}
6 H u0 p0 c0 {4,S}
7 H u0 p0 c0 {4,S}
8 H u0 p0 c0 {4,S}
9 H u0 p0 c0 {2,S}


>  <multiplicity>  (1) 
1

>  <reaction>  (1) 
rmg_rxn_16633

>  <type>  (1) 
r1h

>  <role_mapnums>  (1) 
{"r1h_a": 3, "r1h_h": 9}

>  <role_mapidx>  (1) 
{"r1h_a": 2, "r1h_h": 8}

>  <ordered_mapped_smiles>  (1) 
[C:1]([C:2]1([H:8])[N:3]([H:9])[O:4]1)([H:5])([H:6])[H:7]

>  <mol_properties>  (1) 
{"2": {"label": "donator", "atom_type": "N3s"}, "8": {"label": "d_hydrogen", "atom_type": "H0"}}

>  <level_of_theory>  (1) 
wb97xd/def2tzvp

>  <lot_method>  (1) 
wb97xd

>  <lot_basis>  (1) 
def2tzvp

>  <spin_multiplicity>  (1) 
1.0

>  <optical_isomers>  (1) 
2.0

>  <modes>  (1) 
IdealGasTranslation(mass=(59.0371, 'amu')),         NonlinearRotor(             inertia = ([26.7838, 71.4813, 82.1467

>  <frequency_value>  (1) 
unknown

>  <frequency_units>  (1) 
unknown

>  <frequency_list>  (1) 
unknown

>  <arkane_path>  (1) 
/home/calvin/Dropbox/PersonalFolders/Calvin/ZEUS_Converged/rmg_rxn_16633/output/Species/rmg_rxn_16633_r2_CC1NO1/arkane/output.py

>  <path_exists>  (1) 
True

>  <E0_value>  (1) 
-548864.5742260589

>  <E0_units>  (1) 
kJ/mol

>  <thermo_class>  (1) 
NASA

>  <Cp0_value>  (1) 
33.257888

>  <Cp0_units>  (1) 
J/(mol*K)

>  <CpInf_value>  (1) 
207.8618

>  <CpInf_units>  (1) 
J/(mol*K)

>  <Tmin_value>  (1) 
10.0

>  <Tmin_units>  (1) 
K

>  <Tmax_value>  (1) 
3000.0

>  <Tmax_units>  (1) 
K

>  <polynomials>  (1) 
[{"name": "polynomial1", "class": "NASAPolynomial", "Tmin_value": 10.0, "Tmin_units": "K", "Tmax_value": 579.1032023564536, "Tmax_units": "K", "coeffs": [4.0166088171788665, -0.0016044037342157643, 8.660571354843975e-05, -1.359185288654033e-07, 6.880557229770487e-11, -66013159.76365993, 8.912935475829386]}, {"name": "polynomial2", "class": "NASAPolynomial", "Tmin_value": 579.1032023564536, "Tmin_units": "K", "Tmax_value": 3000.0, "Tmax_units": "K", "coeffs": [-0.04858164856923329, 0.03293942863289486, -1.9614867068158536e-05, 5.639792606053445e-09, -6.271939988533442e-13, -66012797.329610676, 25.36849885792513]}]

>  <H298_value>  (1) 
-131178.49329622858

>  <H298_units>  (1) 
kcal/mol

>  <S298_value>  (1) 
67.76369119756436

>  <S298_units>  (1) 
cal/(mol*K)

>  <Cp_T_value_list>  (1) 
[16.3295251828302, 20.457095214615418, 24.196956649284317, 27.404838028515023, 32.55068390441077, 36.34318213487999, 41.902714845484894, 44.62082262956933, 46.063673487093155]

>  <Cp_T_units>  (1) 
cal/(mol*K)

>  <T_list>  (1) 
[300.0, 400.0, 500.0, 600.0, 800.0, 1000.0, 1500.0, 2000.0, 2400.0]

>  <T_units>  (1) 
K

>  <yaml_path>  (1) 
/home/calvin/Dropbox/PersonalFolders/Calvin/ZEUS_Converged/rmg_rxn_16633/output/Species/rmg_rxn_16633_r2_CC1NO1/rmg_rxn_16633_r2_CC1NO1.yml

>  <frequencies_cm1>  (1) 
[205.92715577616, 388.21814808088, 439.6999370249199, 779.72558213004, 878.1844176481999, 942.2121887718798, 1011.1979232965999, 1063.70289305332, 1176.10170877108, 1226.8555972712, 1303.6284931488, 1344.02010080104, 1392.4186133364, 1456.2472418858, 1469.23957811124, 1494.1942027641198, 3024.87956551872, 3064.99649375816, 3098.0678950592796, 3125.2405559705194, 3405.2281484228797]

>  <ZPE_kJmol>  (1) 
193.1370645967614

>  <E_elec_kJmol>  (1) 
-549057.7112906557

>  <E0_minus_Eelec_plus_ZPE_kJmol>  (1) 
0.0

>  <rxn>  (1) 
rmg_rxn_16633

>  <species_type>  (1) 
r1

>  <species_folder>  (1) 
rmg_rxn_16633_r2_CC1NO1

>  <frequencies_cm1_list>  (1) 
[205.92715577616, 388.21814808088, 439.6999370249199, 779.72558213004, 878.1844176481999, 942.2121887718798, 1011.1979232965999, 1063.70289305332, 1176.10170877108, 1226.8555972712, 1303.6284931488, 1344.02010080104, 1392.4186133364, 1456.2472418858, 1469.23957811124, 1494.1942027641198, 3024.87956551872, 3064.99649375816, 3098.0678950592796, 3125.2405559705194, 3405.2281484228797]

>  <E0_kJmol>  (1) 
-548865

>  <H298_kJmol>  (1) 
-548851

$$$$

     RDKit          3D

  8  7  0  0  0  0  0  0  0  0999 V2000
    0.4030   -0.7343    0.9619 C   0  0  0  0  0  0  0  0  0  1  0  0
   -0.3021   -0.1819   -0.2427 C   0  0  0  0  0  0  0  0  0  2  0  0
   -0.0720    0.9525   -0.7134 N   0  0  0  0  0  0  0  0  0  3  0  0
   -0.3282   -0.9679    1.7385 H   0  0  0  0  0  0  0  0  0  4  0  0
    1.1286   -0.0209    1.3470 H   0  0  0  0  0  0  0  0  0  5  0  0
    0.9084   -1.6658    0.6984 H   0  0  0  0  0  0  0  0  0  6  0  0
   -1.0594   -0.8311   -0.7141 H   0  0  0  0  0  0  0  0  0  7  0  0
   -0.6993    1.1211   -1.5256 H   0  0  0  0  0  0  0  0  0  8  0  0
  1  5  1  0
  1  4  1  0
  1  6  1  0
  1  2  1  0
  2  3  1  0
  2  7  1  0
  3  8  1  0
M  END
>  <rmg_smiles>  (2) 
C[CH][NH]

>  <rmg_adjacency_list>  (2) 
1 N u0 p1 c0 {3,S} {8,S}
2 C u0 p0 c0 {3,S} {4,S} {5,S} {6,S}
3 C u0 p0 c0 {1,S} {2,S} {7,S}
4 H u0 p0 c0 {2,S}
5 H u0 p0 c0 {2,S}
6 H u0 p0 c0 {2,S}
7 H u0 p0 c0 {3,S}
8 H u0 p0 c0 {1,S}


>  <multiplicity>  (2) 
1

>  <reaction>  (2) 
rmg_rxn_16633

>  <type>  (2) 
r2h

>  <role_mapnums>  (2) 
{"r2h_a": 3, "r2h_h": 8}

>  <role_mapidx>  (2) 
{"r2h_a": 2, "r2h_h": 7}

>  <ordered_mapped_smiles>  (2) 
[C:1]([CH:2]([NH:3][H:8])[H:7])([H:4])([H:5])[H:6]

>  <mol_properties>  (2) 
{"2": {"label": "acceptor", "atom_type": "N3s"}, "7": {"label": "a_hydrogen", "atom_type": "H0"}}

>  <level_of_theory>  (2) 
wb97xd/def2tzvp

>  <lot_method>  (2) 
wb97xd

>  <lot_basis>  (2) 
def2tzvp

>  <spin_multiplicity>  (2) 
1.0

>  <optical_isomers>  (2) 
1.0

>  <modes>  (2) 
IdealGasTranslation(mass=(43.0422, 'amu')),         NonlinearRotor(             inertia = ([9.32783, 51.3348, 57.5532

>  <frequency_value>  (2) 
unknown

>  <frequency_units>  (2) 
unknown

>  <frequency_list>  (2) 
unknown

>  <arkane_path>  (2) 
/home/calvin/Dropbox/PersonalFolders/Calvin/ZEUS_Converged/rmg_rxn_16633/output/Species/rmg_rxn_16633_p2_CC=N/arkane/output.py

>  <path_exists>  (2) 
True

>  <E0_value>  (2) 
-351535.20335661684

>  <E0_units>  (2) 
kJ/mol

>  <thermo_class>  (2) 
NASA

>  <Cp0_value>  (2) 
33.257888

>  <Cp0_units>  (2) 
J/(mol*K)

>  <CpInf_value>  (2) 
182.918384

>  <CpInf_units>  (2) 
J/(mol*K)

>  <Tmin_value>  (2) 
10.0

>  <Tmin_units>  (2) 
K

>  <Tmax_value>  (2) 
3000.0

>  <Tmax_units>  (2) 
K

>  <polynomials>  (2) 
[{"name": "polynomial1", "class": "NASAPolynomial", "Tmin_value": 10.0, "Tmin_units": "K", "Tmax_value": 834.0183041901832, "Tmax_units": "K", "coeffs": [4.020859284868709, 0.0012406595733239277, 4.4482903010182226e-05, -5.482114439751344e-08, 2.0739201558559772e-11, -42279921.71645892, 6.726586383468645]}, {"name": "polynomial2", "class": "NASAPolynomial", "Tmin_value": 834.0183041901832, "Tmin_units": "K", "Tmax_value": 3000.0, "Tmax_units": "K", "coeffs": [0.8146767610859666, 0.025012560508124084, -1.3369721411120483e-05, 3.4917002293006827e-09, -3.579375529269218e-13, -42279678.881200545, 19.862274208798944]}]

>  <H298_value>  (2) 
-84015.86036687854

>  <H298_units>  (2) 
kcal/mol

>  <S298_value>  (2) 
62.66843297179497

>  <S298_units>  (2) 
cal/(mol*K)

>  <Cp_T_value_list>  (2) 
[14.078036689508782, 17.202765604471058, 20.2803800489589, 23.1023356383003, 27.639649626797436, 30.983090061901617, 36.21499785066487, 38.88468928045463, 40.19916387517873]

>  <Cp_T_units>  (2) 
cal/(mol*K)

>  <T_list>  (2) 
[300.0, 400.0, 500.0, 600.0, 800.0, 1000.0, 1500.0, 2000.0, 2400.0]

>  <T_units>  (2) 
K

>  <yaml_path>  (2) 
/home/calvin/Dropbox/PersonalFolders/Calvin/ZEUS_Converged/rmg_rxn_16633/output/Species/rmg_rxn_16633_p2_CC=N/rmg_rxn_16633_p2_CC=N.yml

>  <frequencies_cm1>  (2) 
[185.42920459596, 489.9250676554, 680.6761858743599, 921.32968641376, 1055.89513074448, 1069.62910138448, 1130.4431233784, 1267.5150173509198, 1378.7876474762, 1425.071128533, 1456.56312321052, 1463.3683056626398, 1737.36788691596, 2989.2124437666403, 3014.6889593038395, 3075.43431144456, 3123.3452680222, 3455.8927661138396]

>  <ZPE_kJmol>  (2) 
178.96482902382195

>  <E_elec_kJmol>  (2) 
-351714.16818564065

>  <E0_minus_Eelec_plus_ZPE_kJmol>  (2) 
0.0

>  <rxn>  (2) 
rmg_rxn_16633

>  <species_type>  (2) 
p1

>  <species_folder>  (2) 
rmg_rxn_16633_p2_CC=N

>  <frequencies_cm1_list>  (2) 
[185.42920459596, 489.9250676554, 680.6761858743599, 921.32968641376, 1055.89513074448, 1069.62910138448, 1130.4431233784, 1267.5150173509198, 1378.7876474762, 1425.071128533, 1456.56312321052, 1463.3683056626398, 1737.36788691596, 2989.2124437666403, 3014.6889593038395, 3075.43431144456, 3123.3452680222, 3455.8927661138396]

>  <E0_kJmol>  (2) 
-351535

>  <H298_kJmol>  (2) 
-351522

$$$$

     RDKit          3D

 16 15  0  0  0  0  0  0  0  0999 V2000
    1.3821   -0.9649    2.9670 C   0  0  0  0  0  0  0  0  0  1  0  0
    0.6770   -0.4124    1.7624 C   0  0  0  0  0  0  0  0  0  2  0  0
    0.9071    0.7219    1.2917 N   0  0  0  0  0  2  0  0  0  3  0  0
    0.6509   -1.1984    3.7435 H   0  0  0  0  0  0  0  0  0  4  0  0
    2.1077   -0.2514    3.3521 H   0  0  0  0  0  0  0  0  0  5  0  0
    1.8875   -1.8964    2.7035 H   0  0  0  0  0  0  0  0  0  6  0  0
   -0.0803   -1.0616    1.2910 H   0  0  0  0  0  0  0  0  0  7  0  0
   -0.4124   -0.1520   -2.9886 C   0  0  0  0  0  0  0  0  0  8  0  0
   -0.1193   -0.1934   -1.5237 C   0  0  0  0  0  0  0  0  0  9  0  0
   -0.6102    0.8438   -0.6839 N   0  0  0  0  0  0  0  0  0 10  0  0
   -1.1829   -0.4641   -0.6450 O   0  0  0  0  0  0  0  0  0 11  0  0
    0.3784    0.3926   -3.5075 H   0  0  0  0  0  0  0  0  0 12  0  0
   -1.3643    0.3464   -3.1653 H   0  0  0  0  0  0  0  0  0 13  0  0
   -0.4536   -1.1639   -3.3952 H   0  0  0  0  0  0  0  0  0 14  0  0
    0.8220   -0.6576   -1.2293 H   0  0  0  0  0  0  0  0  0 15  0  0
    0.1291    0.9311    0.2843 H   0  0  0  0  0  0  0  0  0 16  0  0
  1  5  1  0
  1  4  1  0
  1  6  1  0
  1  2  1  0
  2  3  1  0
  2  7  1  0
  8  9  1  0
  8 14  1  0
  8 13  1  0
  8 12  1  0
  9 11  1  0
  9 10  1  0
  9 15  1  0
 10 11  1  0
 10 16  1  0
M  RAD  1   3   2
M  END
>  <rmg_smiles>  (3) 
CC1NO1.C[CH][N]

>  <rmg_adjacency_list>  (3) 
multiplicity 2
1  O u0 p2 c0 {2,S} {4,S}
2  N u0 p1 c0 {1,S} {4,S} {15,S}
3  N u1 p2 c0 {7,S}
4  C u0 p0 c0 {1,S} {2,S} {5,S} {8,S}
5  C u0 p0 c0 {4,S} {9,S} {10,S} {11,S}
6  C u0 p0 c0 {7,S} {12,S} {13,S} {14,S}
7  C u0 p0 c0 {3,S} {6,S} {16,S}
8  H u0 p0 c0 {4,S}
9  H u0 p0 c0 {5,S}
10 H u0 p0 c0 {5,S}
11 H u0 p0 c0 {5,S}
12 H u0 p0 c0 {6,S}
13 H u0 p0 c0 {6,S}
14 H u0 p0 c0 {6,S}
15 H u0 p0 c0 {2,S}
16 H u0 p0 c0 {7,S}


>  <multiplicity>  (3) 
2

>  <reaction>  (3) 
rmg_rxn_16633

>  <type>  (3) 
ts

>  <role_mapnums>  (3) 
{"*2": 16, "*1": 10, "*3": 3, "*0": 11, "*4": 2}

>  <role_mapidx>  (3) 
{"*2": 15, "*1": 9, "*3": 2, "*0": 10, "*4": 1}

>  <ordered_mapped_smiles>  (3) 
[C:1]([CH:2]([NH:3])[H:7])([H:4])([H:5])[H:6].[C:8]([C:9]1([H:15])[N:10]([H:16])[O:11]1)([H:12])([H:13])[H:14]

>  <mol_properties>  (3) 
{"1": {"label": "*4", "atom_type": "Cs"}, "2": {"label": "*3", "atom_type": "N1s"}, "9": {"label": "*1", "atom_type": "N3s"}, "10": {"label": "*0", "atom_type": "O2s"}, "15": {"label": "*2", "atom_type": "H0"}}

>  <level_of_theory>  (3) 
wb97xd/def2tzvp

>  <lot_method>  (3) 
wb97xd

>  <lot_basis>  (3) 
def2tzvp

>  <spin_multiplicity>  (3) 
2.0

>  <optical_isomers>  (3) 
2.0

>  <modes>  (3) 
IdealGasTranslation(mass=(101.071, 'amu')),         NonlinearRotor(             inertia = ([70.1051, 468.455, 477.52

>  <frequency_value>  (3) 
-1911.13

>  <frequency_units>  (3) 
cm^-1

>  <frequency_list>  (3) 
unknown

>  <arkane_path>  (3) 
/home/calvin/Dropbox/PersonalFolders/Calvin/ZEUS_Converged/rmg_rxn_16633/output/rxns/TS0/arkane/output.py

>  <path_exists>  (3) 
True

>  <E0_value>  (3) 
-898708.0

>  <E0_units>  (3) 
kJ/mol

>  <thermo_class>  (3) 
unknown

>  <Cp0_value>  (3) 
unknown

>  <Cp0_units>  (3) 
unknown

>  <CpInf_value>  (3) 
unknown

>  <CpInf_units>  (3) 
unknown

>  <Tmin_value>  (3) 
unknown

>  <Tmin_units>  (3) 
unknown

>  <Tmax_value>  (3) 
unknown

>  <Tmax_units>  (3) 
unknown

>  <polynomials>  (3) 
unknown

>  <H298_value>  (3) 
unknown

>  <H298_units>  (3) 
unknown

>  <S298_value>  (3) 
unknown

>  <S298_units>  (3) 
unknown

>  <Cp_T_value_list>  (3) 
unknown

>  <Cp_T_units>  (3) 
unknown

>  <T_list>  (3) 
unknown

>  <T_units>  (3) 
unknown

>  <yaml_path>  (3) 
unknown

>  <frequencies_cm1>  (3) 
unknown

>  <ZPE_kJmol>  (3) 
unknown

>  <E_elec_kJmol>  (3) 
unknown

>  <E0_minus_Eelec_plus_ZPE_kJmol>  (3) 
unknown

>  <rxn>  (3) 
unknown

>  <species_type>  (3) 
unknown

>  <species_folder>  (3) 
unknown

>  <frequencies_cm1_list>  (3) 
[]

>  <ts_imag_freq_cm1>  (3) 
-1934.3428

>  <ts_freq_out_path>  (3) 
/home/calvin/Dropbox/PersonalFolders/Calvin/ZEUS_Converged/rmg_rxn_16633/output/rxns/TS0/geometry/freq.out

>  <E0_kJmol>  (3) 
-898708

>  <H298_kJmol>  (3) 
unknown

$$$$

     RDKit          3D

  8  8  0  0  0  0  0  0  0  0999 V2000
    0.8505    0.0495    0.0350 C   0  0  0  0  0  0  0  0  0  1  0  0
   -0.6272   -0.1047    0.2018 C   0  0  0  0  0  0  0  0  0  2  0  0
   -1.5230    0.8104   -0.4133 N   0  0  0  0  0  2  0  0  0  3  0  0
   -1.3933   -0.4445   -0.9420 O   0  0  0  0  0  0  0  0  0  4  0  0
    1.2510    0.6524    0.8519 H   0  0  0  0  0  0  0  0  0  5  0  0
    1.0765    0.5398   -0.9109 H   0  0  0  0  0  0  0  0  0  6  0  0
    1.3406   -0.9252    0.0594 H   0  0  0  0  0  0  0  0  0  7  0  0
   -0.9751   -0.5778    1.1183 H   0  0  0  0  0  0  0  0  0  8  0  0
  1  5  1  0
  1  7  1  0
  1  6  1  0
  1  2  1  0
  2  4  1  0
  2  3  1  0
  2  8  1  0
  3  4  1  0
M  RAD  1   3   2
M  END
>  <rmg_smiles>  (4) 
CC1[N]O1

>  <rmg_adjacency_list>  (4) 
multiplicity 2
1 O u0 p2 c0 {2,S} {3,S}
2 N u1 p1 c0 {1,S} {3,S}
3 C u0 p0 c0 {1,S} {2,S} {4,S} {5,S}
4 C u0 p0 c0 {3,S} {6,S} {7,S} {8,S}
5 H u0 p0 c0 {3,S}
6 H u0 p0 c0 {4,S}
7 H u0 p0 c0 {4,S}
8 H u0 p0 c0 {4,S}


>  <multiplicity>  (4) 
2

>  <reaction>  (4) 
rmg_rxn_16633

>  <type>  (4) 
r1

>  <role_mapnums>  (4) 
{}

>  <role_mapidx>  (4) 
{}

>  <ordered_mapped_smiles>  (4) 
[C:1]([C:2]1([H:8])[N:3][O:4]1)([H:5])([H:6])[H:7]

>  <level_of_theory>  (4) 
wb97xd/def2tzvp

>  <lot_method>  (4) 
wb97xd

>  <lot_basis>  (4) 
def2tzvp

>  <spin_multiplicity>  (4) 
2.0

>  <optical_isomers>  (4) 
2.0

>  <modes>  (4) 
IdealGasTranslation(mass=(58.0293, 'amu')),         NonlinearRotor(             inertia = ([23.4146, 70.9581, 78.7064

>  <frequency_value>  (4) 
unknown

>  <frequency_units>  (4) 
unknown

>  <frequency_list>  (4) 
unknown

>  <arkane_path>  (4) 
/home/calvin/Dropbox/PersonalFolders/Calvin/ZEUS_Converged/rmg_rxn_16633/output/Species/rmg_rxn_16633_p1_CC1sbr-N-sbrO1/arkane/output.py

>  <path_exists>  (4) 
True

>  <E0_value>  (4) 
-547227.3621526395

>  <E0_units>  (4) 
kJ/mol

>  <thermo_class>  (4) 
NASA

>  <Cp0_value>  (4) 
33.257888

>  <Cp0_units>  (4) 
J/(mol*K)

>  <CpInf_value>  (4) 
182.918384

>  <CpInf_units>  (4) 
J/(mol*K)

>  <Tmin_value>  (4) 
10.0

>  <Tmin_units>  (4) 
K

>  <Tmax_value>  (4) 
3000.0

>  <Tmax_units>  (4) 
K

>  <polynomials>  (4) 
[{"name": "polynomial1", "class": "NASAPolynomial", "Tmin_value": 10.0, "Tmin_units": "K", "Tmax_value": 452.90313759142083, "Tmax_units": "K", "coeffs": [3.993903921577576, 0.0001955042069371399, 7.708643812387396e-05, -1.3413115389579475e-07, 7.629046883715244e-11, -65816248.71742715, 9.533991906529156]}, {"name": "polynomial2", "class": "NASAPolynomial", "Tmin_value": 452.90313759142083, "Tmin_units": "K", "Tmax_value": 3000.0, "Tmax_units": "K", "coeffs": [0.7597120819655714, 0.028759613302334033, -1.751698626413621e-05, 5.12375475034405e-09, -5.77505449262592e-13, -65815955.76246551, 22.575367203758603]}]

>  <H298_value>  (4) 
-130787.19788886789

>  <H298_units>  (4) 
kcal/mol

>  <S298_value>  (4) 
69.0274070004217

>  <S298_units>  (4) 
cal/(mol*K)

>  <Cp_T_value_list>  (4) 
[15.871314083797705, 19.424104661675273, 22.58390123471835, 25.319497469568212, 29.69551772518269, 32.885462492343336, 37.46870681090042, 39.666518565610055, 40.84799143796752]

>  <Cp_T_units>  (4) 
cal/(mol*K)

>  <T_list>  (4) 
[300.0, 400.0, 500.0, 600.0, 800.0, 1000.0, 1500.0, 2000.0, 2400.0]

>  <T_units>  (4) 
K

>  <yaml_path>  (4) 
/home/calvin/Dropbox/PersonalFolders/Calvin/ZEUS_Converged/rmg_rxn_16633/output/Species/rmg_rxn_16633_p1_CC1sbr-N-sbrO1/rmg_rxn_16633_p1_CC1sbr-N-sbrO1.yml

>  <frequencies_cm1>  (4) 
[180.01802016379997, 387.26363712140005, 441.6844957824, 820.21332757676, 862.3560164855999, 1008.71894159608, 1015.5103900775598, 1116.79155656224, 1170.3265741169598, 1313.1667357582799, 1395.7353672459599, 1444.9167161078, 1469.4593216414798, 1489.84053407124, 3025.02377221044, 3091.09790495948, 3098.1777668243994, 3123.06372162408]

>  <ZPE_kJmol>  (4) 
158.22630447874113

>  <E_elec_kJmol>  (4) 
-547385.5884571183

>  <E0_minus_Eelec_plus_ZPE_kJmol>  (4) 
0.0

>  <rxn>  (4) 
rmg_rxn_16633

>  <species_type>  (4) 
p0

>  <species_folder>  (4) 
rmg_rxn_16633_p1_CC1sbr-N-sbrO1

>  <frequencies_cm1_list>  (4) 
[180.01802016379997, 387.26363712140005, 441.6844957824, 820.21332757676, 862.3560164855999, 1008.71894159608, 1015.5103900775598, 1116.79155656224, 1170.3265741169598, 1313.1667357582799, 1395.7353672459599, 1444.9167161078, 1469.4593216414798, 1489.84053407124, 3025.02377221044, 3091.09790495948, 3098.1777668243994, 3123.06372162408]

>  <E0_kJmol>  (4) 
-547227

>  <H298_kJmol>  (4) 
-547214

$$$$

     RDKit          3D

  7  6  0  0  0  0  0  0  0  0999 V2000
   -0.6441   -0.1356    0.0624 C   0  0  0  0  0  0  0  0  0  1  0  0
    0.8523    0.0148   -0.0333 C   0  0  0  0  0  0  0  0  0  2  0  0
    1.6700   -0.6077    0.6603 N   0  0  0  0  0  2  0  0  0  3  0  0
   -1.0940    0.8275    0.3091 H   0  0  0  0  0  0  0  0  0  4  0  0
   -0.9104   -0.8656    0.8237 H   0  0  0  0  0  0  0  0  0  5  0  0
   -1.0427   -0.4545   -0.9022 H   0  0  0  0  0  0  0  0  0  6  0  0
    1.2362    0.7308   -0.7748 H   0  0  0  0  0  0  0  0  0  7  0  0
  1  5  1  0
  1  4  1  0
  1  6  1  0
  1  2  1  0
  2  3  1  0
  2  7  1  0
M  RAD  1   3   2
M  END
>  <rmg_smiles>  (5) 
C[CH][N]

>  <rmg_adjacency_list>  (5) 
multiplicity 2
1 N u1 p2 c0 {3,S}
2 C u0 p0 c0 {3,S} {4,S} {5,S} {6,S}
3 C u0 p0 c0 {1,S} {2,S} {7,S}
4 H u0 p0 c0 {2,S}
5 H u0 p0 c0 {2,S}
6 H u0 p0 c0 {2,S}
7 H u0 p0 c0 {3,S}


>  <multiplicity>  (5) 
2

>  <reaction>  (5) 
rmg_rxn_16633

>  <type>  (5) 
r2

>  <role_mapnums>  (5) 
{}

>  <role_mapidx>  (5) 
{}

>  <ordered_mapped_smiles>  (5) 
[C:1]([CH:2]([NH:3])[H:7])([H:4])([H:5])[H:6]

>  <level_of_theory>  (5) 
wb97xd/def2tzvp

>  <lot_method>  (5) 
wb97xd

>  <lot_basis>  (5) 
def2tzvp

>  <spin_multiplicity>  (5) 
2.0

>  <optical_isomers>  (5) 
1.0

>  <modes>  (5) 
IdealGasTranslation(mass=(42.0344, 'amu')),         NonlinearRotor(             inertia = ([8.81492, 48.174, 53.8511

>  <frequency_value>  (5) 
unknown

>  <frequency_units>  (5) 
unknown

>  <frequency_list>  (5) 
unknown

>  <arkane_path>  (5) 
/home/calvin/Dropbox/PersonalFolders/Calvin/ZEUS_Converged/rmg_rxn_16633/output/Species/rmg_rxn_16633_r1_CC=sbr-N-sbr/arkane/output.py

>  <path_exists>  (5) 
True

>  <E0_value>  (5) 
-349854.82234455534

>  <E0_units>  (5) 
kJ/mol

>  <thermo_class>  (5) 
NASA

>  <Cp0_value>  (5) 
33.257888

>  <Cp0_units>  (5) 
J/(mol*K)

>  <CpInf_value>  (5) 
157.97496800000002

>  <CpInf_units>  (5) 
J/(mol*K)

>  <Tmin_value>  (5) 
10.0

>  <Tmin_units>  (5) 
K

>  <Tmax_value>  (5) 
3000.0

>  <Tmax_units>  (5) 
K

>  <polynomials>  (5) 
[{"name": "polynomial1", "class": "NASAPolynomial", "Tmin_value": 10.0, "Tmin_units": "K", "Tmax_value": 503.5856077016928, "Tmax_units": "K", "coeffs": [3.976811592049577, 0.0012685228752087534, 4.786155959427562e-05, -7.554553197268183e-08, 3.869280929218241e-11, -42077814.38325793, 7.559402827950991]}, {"name": "polynomial2", "class": "NASAPolynomial", "Tmin_value": 503.5856077016928, "Tmin_units": "K", "Tmax_value": 3000.0, "Tmax_units": "K", "coeffs": [1.4688672877735052, 0.02118998940112054, -1.1479594923736429e-05, 3.0156770231218235e-09, -3.096140671693614e-13, -42077561.800061174, 17.93823402033286]}]

>  <H298_value>  (5) 
-83614.2601862362

>  <H298_units>  (5) 
kcal/mol

>  <S298_value>  (5) 
63.84640386523673

>  <S298_units>  (5) 
cal/(mol*K)

>  <Cp_T_value_list>  (5) 
[13.788413560189577, 16.48922778111735, 18.980945997388957, 21.186536551582613, 24.822448324400693, 27.593007553675324, 31.86535612271467, 33.985319854322825, 35.01227851918305]

>  <Cp_T_units>  (5) 
cal/(mol*K)

>  <T_list>  (5) 
[300.0, 400.0, 500.0, 600.0, 800.0, 1000.0, 1500.0, 2000.0, 2400.0]

>  <T_units>  (5) 
K

>  <yaml_path>  (5) 
/home/calvin/Dropbox/PersonalFolders/Calvin/ZEUS_Converged/rmg_rxn_16633/output/Species/rmg_rxn_16633_r1_CC=sbr-N-sbr/rmg_rxn_16633_r1_CC=sbr-N-sbr.yml

>  <frequencies_cm1>  (5) 
[183.94593576684, 430.87586088872, 744.9511684695599, 909.3948659275999, 1050.2642027820798, 1063.7578289358798, 1237.9320445923597, 1377.0846351168398, 1461.72709617116, 1465.6893467008, 1739.36617964408, 2963.10416558, 3026.2186276561197, 3097.525403219, 3131.35217290532]

>  <ZPE_kJmol>  (5) 
142.8532380575317

>  <E_elec_kJmol>  (5) 
-349997.67558261286

>  <E0_minus_Eelec_plus_ZPE_kJmol>  (5) 
0.0

>  <rxn>  (5) 
rmg_rxn_16633

>  <species_type>  (5) 
r0

>  <species_folder>  (5) 
rmg_rxn_16633_r1_CC=sbr-N-sbr

>  <frequencies_cm1_list>  (5) 
[183.94593576684, 430.87586088872, 744.9511684695599, 909.3948659275999, 1050.2642027820798, 1063.7578289358798, 1237.9320445923597, 1377.0846351168398, 1461.72709617116, 1465.6893467008, 1739.36617964408, 2963.10416558, 3026.2186276561197, 3097.525403219, 3131.35217290532]

>  <E0_kJmol>  (5) 
-349855

>  <H298_kJmol>  (5) 
-349842

$$$$
