
     RDKit          3D

  9  8  0  0  0  0  0  0  0  0999 V2000
    0.8251    1.4049   -0.4352 C   0  0  0  0  0  0  0  0  0  1  0  0
   -0.0872    0.5938    0.2387 O   0  0  0  0  0  0  0  0  0  2  0  0
    0.0267   -0.7122   -0.1718 N   0  0  0  0  0  0  0  0  0  3  0  0
   -0.8360   -1.4645    0.3631 C   0  0  0  0  0  0  0  0  0  4  0  0
    1.8390    1.1476   -0.1351 H   0  0  0  0  0  0  0  0  0  5  0  0
    0.6524    2.4287   -0.1162 H   0  0  0  0  0  0  0  0  0  6  0  0
    0.7981    1.2684   -1.5166 H   0  0  0  0  0  0  0  0  0  7  0  0
   -0.7977   -2.5116    0.0947 H   0  0  0  0  0  0  0  0  0  8  0  0
   -1.5824   -1.0915    1.0597 H   0  0  0  0  0  0  0  0  0  9  0  0
  1  6  1  0
  1  5  1  0
  1  7  1  0
  1  2  1  0
  2  3  1  0
  3  4  1  0
  4  8  1  0
  4  9  1  0
M  END
>  <rmg_smiles>  (1) 
CO[N][CH2]

>  <rmg_adjacency_list>  (1) 
1 O u0 p2 c0 {2,S} {3,S}
2 N u0 p1 c0 {1,S} {4,S}
3 C u0 p0 c0 {1,S} {5,S} {6,S} {7,S}
4 C u0 p0 c0 {2,S} {8,S} {9,S}
5 H u0 p0 c0 {3,S}
6 H u0 p0 c0 {3,S}
7 H u0 p0 c0 {3,S}
8 H u0 p0 c0 {4,S}
9 H u0 p0 c0 {4,S}


>  <multiplicity>  (1) 
1

>  <reaction>  (1) 
rmg_rxn_15702

>  <type>  (1) 
r1h

>  <role_mapnums>  (1) 
{"r1h_a": 1, "r1h_h": 5}

>  <role_mapidx>  (1) 
{"r1h_a": 0, "r1h_h": 4}

>  <ordered_mapped_smiles>  (1) 
[C:1]([O:2][NH:3][CH:4]([H:8])[H:9])([H:5])([H:6])[H:7]

>  <mol_properties>  (1) 
{"0": {"label": "donator", "atom_type": "Cs"}, "4": {"label": "d_hydrogen", "atom_type": "H0"}}

>  <level_of_theory>  (1) 
wb97xd/def2tzvp

>  <lot_method>  (1) 
wb97xd

>  <lot_basis>  (1) 
def2tzvp

>  <spin_multiplicity>  (1) 
1.0

>  <optical_isomers>  (1) 
1.0

>  <modes>  (1) 
IdealGasTranslation(mass=(59.0371, 'amu')),         NonlinearRotor(             inertia = ([11.9742, 101.538, 110.304

>  <frequency_value>  (1) 
unknown

>  <frequency_units>  (1) 
unknown

>  <frequency_list>  (1) 
unknown

>  <arkane_path>  (1) 
/home/calvin/Dropbox/PersonalFolders/Calvin/ZEUS_Converged/rmg_rxn_15702/output/Species/rmg_rxn_15702_r2_CON=C/arkane/output.py

>  <path_exists>  (1) 
True

>  <E0_value>  (1) 
-548882.9200394232

>  <E0_units>  (1) 
kJ/mol

>  <thermo_class>  (1) 
NASA

>  <Cp0_value>  (1) 
33.257888

>  <Cp0_units>  (1) 
J/(mol*K)

>  <CpInf_value>  (1) 
207.8618

>  <CpInf_units>  (1) 
J/(mol*K)

>  <Tmin_value>  (1) 
10.0

>  <Tmin_units>  (1) 
K

>  <Tmax_value>  (1) 
3000.0

>  <Tmax_units>  (1) 
K

>  <polynomials>  (1) 
[{"name": "polynomial1", "class": "NASAPolynomial", "Tmin_value": 10.0, "Tmin_units": "K", "Tmax_value": 1066.0445442103917, "Tmax_units": "K", "coeffs": [3.9488472240731216, 0.012909444164008412, 1.8432835387873368e-05, -2.5565901414715004e-08, 8.632634293818456e-12, -66015370.98001154, 7.906058800048573]}, {"name": "polynomial2", "class": "NASAPolynomial", "Tmin_value": 1066.0445442103917, "Tmin_units": "K", "Tmax_value": 3000.0, "Tmax_units": "K", "coeffs": [4.051174026649639, 0.02340322367340144, -1.163838712217072e-05, 2.8112466199843713e-09, -2.6680947262736413e-13, -66016010.897278614, 4.506810904924114]}]

>  <H298_value>  (1) 
-131182.46582067996

>  <H298_units>  (1) 
kcal/mol

>  <S298_value>  (1) 
69.27397375028742

>  <S298_units>  (1) 
cal/(mol*K)

>  <Cp_T_value_list>  (1) 
[17.607207323409234, 21.157104611048137, 24.5530891366924, 27.67560467885903, 32.827861850696166, 36.480858050170255, 41.94371504002133, 44.76201379304356, 46.08804102499818]

>  <Cp_T_units>  (1) 
cal/(mol*K)

>  <T_list>  (1) 
[300.0, 400.0, 500.0, 600.0, 800.0, 1000.0, 1500.0, 2000.0, 2400.0]

>  <T_units>  (1) 
K

>  <yaml_path>  (1) 
/home/calvin/Dropbox/PersonalFolders/Calvin/ZEUS_Converged/rmg_rxn_15702/output/Species/rmg_rxn_15702_r2_CON=C/rmg_rxn_15702_r2_CON=C.yml

>  <frequencies_cm1>  (1) 
[119.61601728907998, 180.59484693068, 346.29520270228, 574.9726808436, 796.6046320465999, 891.08061607916, 982.9746136314, 1126.32979917172, 1169.7222794088, 1171.7686410341598, 1237.71230106212, 1418.12173938916, 1456.2266409298397, 1467.4060930307999, 1493.1160860688801, 1708.0183916582798, 3005.45973103376, 3077.28153049564, 3083.54422110748, 3121.53925088304, 3213.405780494]

>  <ZPE_kJmol>  (1) 
189.2599943319938

>  <E_elec_kJmol>  (1) 
-549072.1800337551

>  <E0_minus_Eelec_plus_ZPE_kJmol>  (1) 
0.0

>  <rxn>  (1) 
rmg_rxn_15702

>  <species_type>  (1) 
r1

>  <species_folder>  (1) 
rmg_rxn_15702_r2_CON=C

>  <frequencies_cm1_list>  (1) 
[119.61601728907998, 180.59484693068, 346.29520270228, 574.9726808436, 796.6046320465999, 891.08061607916, 982.9746136314, 1126.32979917172, 1169.7222794088, 1171.7686410341598, 1237.71230106212, 1418.12173938916, 1456.2266409298397, 1467.4060930307999, 1493.1160860688801, 1708.0183916582798, 3005.45973103376, 3077.28153049564, 3083.54422110748, 3121.53925088304, 3213.405780494]

>  <E0_kJmol>  (1) 
-548883

>  <H298_kJmol>  (1) 
-548867

$$$$

     RDKit          3D

  9  8  0  0  0  0  0  0  0  0999 V2000
    0.2138    1.2365    0.2997 C   0  0  0  0  0  0  0  0  0  1  0  0
    0.1662   -0.2581    0.4686 C   0  0  0  0  0  0  0  0  0  2  0  0
   -0.2658   -0.9290   -0.6928 O   0  0  0  0  0  0  0  0  0  3  0  0
    0.8097    1.5672   -0.5497 H   0  0  0  0  0  0  0  0  0  4  0  0
    0.4358    1.7910    1.2107 H   0  0  0  0  0  0  0  0  0  5  0  0
    1.1690   -0.6408    0.6873 H   0  0  0  0  0  0  0  0  0  6  0  0
   -0.4648   -0.5158    1.3301 H   0  0  0  0  0  0  0  0  0  7  0  0
   -1.2091   -0.7459   -0.7914 H   0  0  0  0  0  0  0  0  0  8  0  0
   -0.7914    1.5573    0.0294 H   0  0  0  0  0  0  0  0  0  9  0  0
  1  5  1  0
  1  9  1  0
  1  4  1  0
  1  2  1  0
  2  7  1  0
  2  3  1  0
  2  6  1  0
  3  8  1  0
M  END
>  <rmg_smiles>  (2) 
CCO

>  <rmg_adjacency_list>  (2) 
1 O u0 p2 c0 {2,S} {9,S}
2 C u0 p0 c0 {1,S} {3,S} {4,S} {5,S}
3 C u0 p0 c0 {2,S} {6,S} {7,S} {8,S}
4 H u0 p0 c0 {2,S}
5 H u0 p0 c0 {2,S}
6 H u0 p0 c0 {3,S}
7 H u0 p0 c0 {3,S}
8 H u0 p0 c0 {3,S}
9 H u0 p0 c0 {1,S}


>  <multiplicity>  (2) 
1

>  <reaction>  (2) 
rmg_rxn_15702

>  <type>  (2) 
r2h

>  <role_mapnums>  (2) 
{"r2h_a": 1, "r2h_h": 9}

>  <role_mapidx>  (2) 
{"r2h_a": 0, "r2h_h": 8}

>  <ordered_mapped_smiles>  (2) 
[C:1]([C:2]([O:3][H:8])([H:6])[H:7])([H:4])([H:5])[H:9]

>  <mol_properties>  (2) 
{"0": {"label": "acceptor", "atom_type": "Cs"}, "8": {"label": "a_hydrogen", "atom_type": "H0"}}

>  <level_of_theory>  (2) 
wb97xd/def2tzvp

>  <lot_method>  (2) 
wb97xd

>  <lot_basis>  (2) 
def2tzvp

>  <spin_multiplicity>  (2) 
1.0

>  <optical_isomers>  (2) 
2.0

>  <modes>  (2) 
IdealGasTranslation(mass=(46.0419, 'amu')),         NonlinearRotor(             inertia = ([14.5784, 54.5856, 61.8154

>  <frequency_value>  (2) 
unknown

>  <frequency_units>  (2) 
unknown

>  <frequency_list>  (2) 
unknown

>  <arkane_path>  (2) 
/home/calvin/Dropbox/PersonalFolders/Calvin/ZEUS_Converged/rmg_rxn_15702/output/Species/rmg_rxn_15702_p2_CCO/arkane/output.py

>  <path_exists>  (2) 
True

>  <E0_value>  (2) 
-406893.3272689957

>  <E0_units>  (2) 
kJ/mol

>  <thermo_class>  (2) 
NASA

>  <Cp0_value>  (2) 
33.257888

>  <Cp0_units>  (2) 
J/(mol*K)

>  <CpInf_value>  (2) 
207.8618

>  <CpInf_units>  (2) 
J/(mol*K)

>  <Tmin_value>  (2) 
10.0

>  <Tmin_units>  (2) 
K

>  <Tmax_value>  (2) 
3000.0

>  <Tmax_units>  (2) 
K

>  <polynomials>  (2) 
[{"name": "polynomial1", "class": "NASAPolynomial", "Tmin_value": 10.0, "Tmin_units": "K", "Tmax_value": 551.3187644177538, "Tmax_units": "K", "coeffs": [3.9713940621371306, 0.0023957688295192063, 5.809032256050214e-05, -8.561591068586481e-08, 4.0358423418077714e-11, -48937962.79914544, 7.862489799764338]}, {"name": "polynomial2", "class": "NASAPolynomial", "Tmin_value": 551.3187644177538, "Tmin_units": "K", "Tmax_value": 3000.0, "Tmax_units": "K", "coeffs": [0.19952339087951126, 0.02976190624661279, -1.6365982652687387e-05, 4.418171321701085e-09, -4.682193007149357e-13, -48937546.89804419, 23.81365918801819]}]

>  <H298_value>  (2) 
-97246.55405342489

>  <H298_units>  (2) 
kcal/mol

>  <S298_value>  (2) 
65.78744884704368

>  <S298_units>  (2) 
cal/(mol*K)

>  <Cp_T_value_list>  (2) 
[15.765557190227591, 19.430727429073556, 22.877261252275424, 25.95004969734455, 31.01063681206419, 34.86633096617534, 40.85674665583515, 43.94362801037231, 45.51188954534454]

>  <Cp_T_units>  (2) 
cal/(mol*K)

>  <T_list>  (2) 
[300.0, 400.0, 500.0, 600.0, 800.0, 1000.0, 1500.0, 2000.0, 2400.0]

>  <T_units>  (2) 
K

>  <yaml_path>  (2) 
/home/calvin/Dropbox/PersonalFolders/Calvin/ZEUS_Converged/rmg_rxn_15702/output/Species/rmg_rxn_15702_p2_CCO/rmg_rxn_15702_p2_CCO.yml

>  <frequencies_cm1>  (2) 
[261.26819047004, 286.81337586044, 426.24064579772, 804.5016651646, 891.82911747904, 1059.86424825944, 1088.932197119, 1140.44145400432, 1273.9562495810799, 1364.90260315916, 1391.5053042888399, 1416.6247365893998, 1475.59153953224, 1480.8997191846001, 1506.73331795844, 2975.9454281283997, 3008.37133280944, 3061.6454049219997, 3084.9794210393593, 3098.7957955031998, 3839.53063498628]

>  <ZPE_kJmol>  (2) 
208.9839162086533

>  <E_elec_kJmol>  (2) 
-407102.3111852043

>  <E0_minus_Eelec_plus_ZPE_kJmol>  (2) 
0.0

>  <rxn>  (2) 
rmg_rxn_15702

>  <species_type>  (2) 
p1

>  <species_folder>  (2) 
rmg_rxn_15702_p2_CCO

>  <frequencies_cm1_list>  (2) 
[261.26819047004, 286.81337586044, 426.24064579772, 804.5016651646, 891.82911747904, 1059.86424825944, 1088.932197119, 1140.44145400432, 1273.9562495810799, 1364.90260315916, 1391.5053042888399, 1416.6247365893998, 1475.59153953224, 1480.8997191846001, 1506.73331795844, 2975.9454281283997, 3008.37133280944, 3061.6454049219997, 3084.9794210393593, 3098.7957955031998, 3839.53063498628]

>  <E0_kJmol>  (2) 
-406893

>  <H298_kJmol>  (2) 
-406880

$$$$

     RDKit          3D

 17 15  0  0  0  0  0  0  0  0999 V2000
    1.9825    0.9437    0.2697 C   0  0  0  0  0  3  0  0  0  1  0  0
    1.9350   -0.5508    0.4386 C   0  0  0  0  0  0  0  0  0  2  0  0
    1.5030   -1.2217   -0.7228 O   0  0  0  0  0  0  0  0  0  3  0  0
    2.5784    1.2745   -0.5797 H   0  0  0  0  0  0  0  0  0  4  0  0
    2.2046    1.4983    1.1807 H   0  0  0  0  0  0  0  0  0  5  0  0
    2.9378   -0.9335    0.6573 H   0  0  0  0  0  0  0  0  0  6  0  0
    1.3040   -0.8085    1.3001 H   0  0  0  0  0  0  0  0  0  7  0  0
    0.5596   -1.0386   -0.8214 H   0  0  0  0  0  0  0  0  0  8  0  0
   -0.5248    1.6624   -0.4384 C   0  0  0  0  0  0  0  0  0  9  0  0
   -1.4371    0.8514    0.2356 O   0  0  0  0  0  0  0  0  0 10  0  0
   -1.3232   -0.4546   -0.1749 N   0  0  0  0  0  0  0  0  0 11  0  0
   -2.1859   -1.2070    0.3600 C   0  0  0  0  0  0  0  0  0 12  0  0
    0.7221    1.3461   -0.0693 H   0  0  0  0  0  0  0  0  0 13  0  0
   -0.6975    2.6863   -0.1193 H   0  0  0  0  0  0  0  0  0 14  0  0
   -0.5519    1.5260   -1.5198 H   0  0  0  0  0  0  0  0  0 15  0  0
   -2.1476   -2.2540    0.0915 H   0  0  0  0  0  0  0  0  0 16  0  0
   -2.9323   -0.8339    1.0566 H   0  0  0  0  0  0  0  0  0 17  0  0
  1  5  1  0
  1  4  1  0
  1  2  1  0
  2  7  1  0
  2  3  1  0
  2  6  1  0
  3  8  1  0
  9 10  1  0
  9 14  1  0
  9 15  1  0
  9 13  1  0
 10 11  1  0
 11 12  1  0
 12 17  1  0
 12 16  1  0
M  RAD  1   1   2
M  END
>  <rmg_smiles>  (3) 
CO[N][CH2].[CH2]CO

>  <rmg_adjacency_list>  (3) 
multiplicity 2
1  O u0 p2 c0 {3,S} {5,S}
2  O u0 p2 c0 {4,S} {17,S}
3  N u0 p1 c0 {1,S} {7,S}
4  C u0 p0 c0 {2,S} {6,S} {8,S} {9,S}
5  C u0 p0 c0 {1,S} {10,S} {11,S} {12,S}
6  C u1 p0 c0 {4,S} {13,S} {14,S}
7  C u0 p0 c0 {3,S} {15,S} {16,S}
8  H u0 p0 c0 {4,S}
9  H u0 p0 c0 {4,S}
10 H u0 p0 c0 {5,S}
11 H u0 p0 c0 {5,S}
12 H u0 p0 c0 {5,S}
13 H u0 p0 c0 {6,S}
14 H u0 p0 c0 {6,S}
15 H u0 p0 c0 {7,S}
16 H u0 p0 c0 {7,S}
17 H u0 p0 c0 {2,S}


>  <multiplicity>  (3) 
2

>  <reaction>  (3) 
rmg_rxn_15702

>  <type>  (3) 
ts

>  <role_mapnums>  (3) 
{"*2": 13, "*1": 9, "*3": 1, "*0": 10, "*4": 2}

>  <role_mapidx>  (3) 
{"*2": 12, "*1": 8, "*3": 0, "*0": 9, "*4": 1}

>  <ordered_mapped_smiles>  (3) 
[C:1]([C:2]([O:3][H:8])([H:6])[H:7])([H:4])[H:5].[C:9]([O:10][NH:11][CH:12]([H:16])[H:17])([H:13])([H:14])[H:15]

>  <mol_properties>  (3) 
{"0": {"label": "*3", "atom_type": "Cs"}, "1": {"label": "*4", "atom_type": "Cs"}, "8": {"label": "*1", "atom_type": "Cs"}, "9": {"label": "*0", "atom_type": "O2s"}, "12": {"label": "*2", "atom_type": "H0"}}

>  <level_of_theory>  (3) 
wb97xd/def2tzvp

>  <lot_method>  (3) 
wb97xd

>  <lot_basis>  (3) 
def2tzvp

>  <spin_multiplicity>  (3) 
2.0

>  <optical_isomers>  (3) 
2.0

>  <modes>  (3) 
IdealGasTranslation(mass=(104.071, 'amu')),         NonlinearRotor(             inertia = ([151.606, 308.124, 410.737

>  <frequency_value>  (3) 
-1770.07

>  <frequency_units>  (3) 
cm^-1

>  <frequency_list>  (3) 
unknown

>  <arkane_path>  (3) 
/home/calvin/Dropbox/PersonalFolders/Calvin/ZEUS_Converged/rmg_rxn_15702/output/rxns/TS0/arkane/output.py

>  <path_exists>  (3) 
True

>  <E0_value>  (3) 
-954008.0

>  <E0_units>  (3) 
kJ/mol

>  <thermo_class>  (3) 
unknown

>  <Cp0_value>  (3) 
unknown

>  <Cp0_units>  (3) 
unknown

>  <CpInf_value>  (3) 
unknown

>  <CpInf_units>  (3) 
unknown

>  <Tmin_value>  (3) 
unknown

>  <Tmin_units>  (3) 
unknown

>  <Tmax_value>  (3) 
unknown

>  <Tmax_units>  (3) 
unknown

>  <polynomials>  (3) 
unknown

>  <H298_value>  (3) 
unknown

>  <H298_units>  (3) 
unknown

>  <S298_value>  (3) 
unknown

>  <S298_units>  (3) 
unknown

>  <Cp_T_value_list>  (3) 
unknown

>  <Cp_T_units>  (3) 
unknown

>  <T_list>  (3) 
unknown

>  <T_units>  (3) 
unknown

>  <yaml_path>  (3) 
unknown

>  <frequencies_cm1>  (3) 
unknown

>  <ZPE_kJmol>  (3) 
unknown

>  <E_elec_kJmol>  (3) 
unknown

>  <E0_minus_Eelec_plus_ZPE_kJmol>  (3) 
unknown

>  <rxn>  (3) 
unknown

>  <species_type>  (3) 
unknown

>  <species_folder>  (3) 
unknown

>  <frequencies_cm1_list>  (3) 
[]

>  <ts_imag_freq_cm1>  (3) 
-1791.5725

>  <ts_freq_out_path>  (3) 
/home/calvin/Dropbox/PersonalFolders/Calvin/ZEUS_Converged/rmg_rxn_15702/output/rxns/TS0/geometry/freq.out

>  <E0_kJmol>  (3) 
-954008

>  <H298_kJmol>  (3) 
unknown

$$$$

     RDKit          3D

  8  7  0  0  0  0  0  0  0  0999 V2000
    1.7077   -0.1964   -0.0607 C   0  0  0  0  0  3  0  0  0  1  0  0
    0.4209   -0.4565    0.2808 O   0  0  0  0  0  0  0  0  0  2  0  0
   -0.4607    0.4385   -0.2968 N   0  0  0  0  0  0  0  0  0  3  0  0
   -1.6584    0.1416   -0.0244 C   0  0  0  0  0  0  0  0  0  4  0  0
    2.4163   -0.7685    0.5170 H   0  0  0  0  0  0  0  0  0  5  0  0
    1.9214    0.7645   -0.5045 H   0  0  0  0  0  0  0  0  0  6  0  0
   -2.4185    0.7953   -0.4307 H   0  0  0  0  0  0  0  0  0  7  0  0
   -1.9286   -0.7185    0.5831 H   0  0  0  0  0  0  0  0  0  8  0  0
  1  6  1  0
  1  5  1  0
  1  2  1  0
  2  3  1  0
  3  4  1  0
  4  8  1  0
  4  7  1  0
M  RAD  1   1   2
M  END
>  <rmg_smiles>  (4) 
[CH2]O[N][CH2]

>  <rmg_adjacency_list>  (4) 
multiplicity 2
1 O u0 p2 c0 {2,S} {3,S}
2 N u0 p1 c0 {1,S} {4,S}
3 C u1 p0 c0 {1,S} {5,S} {6,S}
4 C u0 p0 c0 {2,S} {7,S} {8,S}
5 H u0 p0 c0 {3,S}
6 H u0 p0 c0 {3,S}
7 H u0 p0 c0 {4,S}
8 H u0 p0 c0 {4,S}


>  <multiplicity>  (4) 
2

>  <reaction>  (4) 
rmg_rxn_15702

>  <type>  (4) 
r1

>  <role_mapnums>  (4) 
{}

>  <role_mapidx>  (4) 
{}

>  <ordered_mapped_smiles>  (4) 
[C:1]([O:2][NH:3][CH:4]([H:7])[H:8])([H:5])[H:6]

>  <level_of_theory>  (4) 
wb97xd/def2tzvp

>  <lot_method>  (4) 
wb97xd

>  <lot_basis>  (4) 
def2tzvp

>  <spin_multiplicity>  (4) 
2.0

>  <optical_isomers>  (4) 
2.0

>  <modes>  (4) 
IdealGasTranslation(mass=(58.0293, 'amu')),         NonlinearRotor(             inertia = ([10.2741, 95.4529, 105.582

>  <frequency_value>  (4) 
unknown

>  <frequency_units>  (4) 
unknown

>  <frequency_list>  (4) 
unknown

>  <arkane_path>  (4) 
/home/calvin/Dropbox/PersonalFolders/Calvin/ZEUS_Converged/rmg_rxn_15702/output/Species/rmg_rxn_15702_p1_sbr-CH2-sbrON=C/arkane/output.py

>  <path_exists>  (4) 
True

>  <E0_value>  (4) 
-547168.2732446302

>  <E0_units>  (4) 
kJ/mol

>  <thermo_class>  (4) 
NASA

>  <Cp0_value>  (4) 
33.257888

>  <Cp0_units>  (4) 
J/(mol*K)

>  <CpInf_value>  (4) 
182.918384

>  <CpInf_units>  (4) 
J/(mol*K)

>  <Tmin_value>  (4) 
10.0

>  <Tmin_units>  (4) 
K

>  <Tmax_value>  (4) 
3000.0

>  <Tmax_units>  (4) 
K

>  <polynomials>  (4) 
[{"name": "polynomial1", "class": "NASAPolynomial", "Tmin_value": 10.0, "Tmin_units": "K", "Tmax_value": 253.2842427910515, "Tmax_units": "K", "coeffs": [3.956862909385456, 0.0038362890131335746, 0.00011727738047703725, -3.4736244039427427e-07, 3.472729073035136e-10, -65809144.38694886, 9.350338763280796]}, {"name": "polynomial2", "class": "NASAPolynomial", "Tmin_value": 253.2842427910515, "Tmin_units": "K", "Tmax_value": 3000.0, "Tmax_units": "K", "coeffs": [2.5252197328965313, 0.026445761179553072, -1.662161754135038e-05, 5.074735532607581e-09, -5.97403912324656e-13, -65809071.86505469, 14.291183066674913]}]

>  <H298_value>  (4) 
-130772.65860702786

>  <H298_units>  (4) 
kcal/mol

>  <S298_value>  (4) 
71.26914844977757

>  <S298_units>  (4) 
cal/(mol*K)

>  <Cp_T_value_list>  (4) 
[18.0740035969719, 21.369534269323825, 24.223451351766553, 26.683440747612977, 30.598134113509214, 33.438117676478754, 37.554421513360474, 39.68390492467901, 40.91110806828642]

>  <Cp_T_units>  (4) 
cal/(mol*K)

>  <T_list>  (4) 
[300.0, 400.0, 500.0, 600.0, 800.0, 1000.0, 1500.0, 2000.0, 2400.0]

>  <T_units>  (4) 
K

>  <yaml_path>  (4) 
/home/calvin/Dropbox/PersonalFolders/Calvin/ZEUS_Converged/rmg_rxn_15702/output/Species/rmg_rxn_15702_p1_sbr-CH2-sbrON=C/rmg_rxn_15702_p1_sbr-CH2-sbrON=C.yml

>  <frequencies_cm1>  (4) 
[132.13453152744, 273.14807507364, 360.4549264321199, 498.69420790903996, 595.9169860696, 789.3942974605999, 873.74834513148, 993.5360370535599, 1152.01232426852, 1206.54305469464, 1257.0497317232398, 1417.2771001948001, 1437.260027476, 1705.2166616477198, 3090.5210781926, 3134.7719315946797, 3218.94057066192, 3282.16490450316]

>  <ZPE_kJmol>  (4) 
152.0381400376291

>  <E_elec_kJmol>  (4) 
-547320.3113846679

>  <E0_minus_Eelec_plus_ZPE_kJmol>  (4) 
0.0

>  <rxn>  (4) 
rmg_rxn_15702

>  <species_type>  (4) 
p0

>  <species_folder>  (4) 
rmg_rxn_15702_p1_sbr-CH2-sbrON=C

>  <frequencies_cm1_list>  (4) 
[132.13453152744, 273.14807507364, 360.4549264321199, 498.69420790903996, 595.9169860696, 789.3942974605999, 873.74834513148, 993.5360370535599, 1152.01232426852, 1206.54305469464, 1257.0497317232398, 1417.2771001948001, 1437.260027476, 1705.2166616477198, 3090.5210781926, 3134.7719315946797, 3218.94057066192, 3282.16490450316]

>  <E0_kJmol>  (4) 
-547168

>  <H298_kJmol>  (4) 
-547153

$$$$

     RDKit          3D

  8  7  0  0  0  0  0  0  0  0999 V2000
    0.9383    0.2996   -0.2216 C   0  0  0  0  0  3  0  0  0  1  0  0
   -0.2599   -0.3612    0.3424 C   0  0  0  0  0  0  0  0  0  2  0  0
   -1.4623    0.3337    0.0690 O   0  0  0  0  0  0  0  0  0  3  0  0
    1.8278   -0.2698   -0.4548 H   0  0  0  0  0  0  0  0  0  4  0  0
    0.9841    1.3806   -0.2544 H   0  0  0  0  0  0  0  0  0  5  0  0
   -0.3172   -1.4027   -0.0032 H   0  0  0  0  0  0  0  0  0  6  0  0
   -0.1994   -0.4050    1.4381 H   0  0  0  0  0  0  0  0  0  7  0  0
   -1.5169    0.4672   -0.8790 H   0  0  0  0  0  0  0  0  0  8  0  0
  1  5  1  0
  1  4  1  0
  1  2  1  0
  2  7  1  0
  2  3  1  0
  2  6  1  0
  3  8  1  0
M  RAD  1   1   2
M  END
>  <rmg_smiles>  (5) 
[CH2]CO

>  <rmg_adjacency_list>  (5) 
multiplicity 2
1 O u0 p2 c0 {2,S} {8,S}
2 C u0 p0 c0 {1,S} {3,S} {4,S} {5,S}
3 C u1 p0 c0 {2,S} {6,S} {7,S}
4 H u0 p0 c0 {2,S}
5 H u0 p0 c0 {2,S}
6 H u0 p0 c0 {3,S}
7 H u0 p0 c0 {3,S}
8 H u0 p0 c0 {1,S}


>  <multiplicity>  (5) 
2

>  <reaction>  (5) 
rmg_rxn_15702

>  <type>  (5) 
r2

>  <role_mapnums>  (5) 
{}

>  <role_mapidx>  (5) 
{}

>  <ordered_mapped_smiles>  (5) 
[C:1]([C:2]([O:3][H:8])([H:6])[H:7])([H:4])[H:5]

>  <level_of_theory>  (5) 
wb97xd/def2tzvp

>  <lot_method>  (5) 
wb97xd

>  <lot_basis>  (5) 
def2tzvp

>  <spin_multiplicity>  (5) 
2.0

>  <optical_isomers>  (5) 
2.0

>  <modes>  (5) 
IdealGasTranslation(mass=(45.034, 'amu')),         NonlinearRotor(             inertia = ([12.9684, 50.7519, 58.6402

>  <frequency_value>  (5) 
unknown

>  <frequency_units>  (5) 
unknown

>  <frequency_list>  (5) 
unknown

>  <arkane_path>  (5) 
/home/calvin/Dropbox/PersonalFolders/Calvin/ZEUS_Converged/rmg_rxn_15702/output/Species/rmg_rxn_15702_r1_sbr-CH2-sbrCO/arkane/output.py

>  <path_exists>  (5) 
True

>  <E0_value>  (5) 
-405160.2801959205

>  <E0_units>  (5) 
kJ/mol

>  <thermo_class>  (5) 
NASA

>  <Cp0_value>  (5) 
33.257888

>  <Cp0_units>  (5) 
J/(mol*K)

>  <CpInf_value>  (5) 
182.918384

>  <CpInf_units>  (5) 
J/(mol*K)

>  <Tmin_value>  (5) 
10.0

>  <Tmin_units>  (5) 
K

>  <Tmax_value>  (5) 
3000.0

>  <Tmax_units>  (5) 
K

>  <polynomials>  (5) 
[{"name": "polynomial1", "class": "NASAPolynomial", "Tmin_value": 10.0, "Tmin_units": "K", "Tmax_value": 432.37106492057706, "Tmax_units": "K", "coeffs": [3.9682870721440966, 0.0021271080526700996, 8.113780199813727e-05, -1.697245262154038e-07, 1.1543298301949729e-10, -48729525.72806512, 8.402193619581457]}, {"name": "polynomial2", "class": "NASAPolynomial", "Tmin_value": 432.37106492057706, "Tmin_units": "K", "Tmax_value": 3000.0, "Tmax_units": "K", "coeffs": [2.0627788986688302, 0.02471769343071533, -1.444925513196767e-05, 4.203084264219392e-09, -4.807204096358159e-13, -48729407.33297884, 15.461084819761618]}]

>  <H298_value>  (5) 
-96832.22748875976

>  <H298_units>  (5) 
kcal/mol

>  <S298_value>  (5) 
67.51904077744345

>  <S298_units>  (5) 
cal/(mol*K)

>  <Cp_T_value_list>  (5) 
[16.416842738203048, 19.661209086374544, 22.464678618034952, 24.914060877408705, 28.902897971412052, 31.901780630158964, 36.52536682715, 39.01739427756058, 40.36378269391036]

>  <Cp_T_units>  (5) 
cal/(mol*K)

>  <T_list>  (5) 
[300.0, 400.0, 500.0, 600.0, 800.0, 1000.0, 1500.0, 2000.0, 2400.0]

>  <T_units>  (5) 
K

>  <yaml_path>  (5) 
/home/calvin/Dropbox/PersonalFolders/Calvin/ZEUS_Converged/rmg_rxn_15702/output/Species/rmg_rxn_15702_r1_sbr-CH2-sbrCO/rmg_rxn_15702_r1_sbr-CH2-sbrCO.yml

>  <frequencies_cm1>  (5) 
[207.47222747316, 325.43330130012004, 428.45868205608, 525.37244587724, 830.8022189401999, 950.9675950548799, 1100.2764568676398, 1120.35552194332, 1173.6707959678001, 1354.9592084158, 1391.16882200816, 1441.7098339633599, 1471.91083540072, 2956.1410424655196, 2981.25360778076, 3124.12123736336, 3233.9449335861195, 3835.0464935723203]

>  <ZPE_kJmol>  (5) 
170.1871728318145

>  <E_elec_kJmol>  (5) 
-405330.4673687523

>  <E0_minus_Eelec_plus_ZPE_kJmol>  (5) 
0.0

>  <rxn>  (5) 
rmg_rxn_15702

>  <species_type>  (5) 
r0

>  <species_folder>  (5) 
rmg_rxn_15702_r1_sbr-CH2-sbrCO

>  <frequencies_cm1_list>  (5) 
[207.47222747316, 325.43330130012004, 428.45868205608, 525.37244587724, 830.8022189401999, 950.9675950548799, 1100.2764568676398, 1120.35552194332, 1173.6707959678001, 1354.9592084158, 1391.16882200816, 1441.7098339633599, 1471.91083540072, 2956.1410424655196, 2981.25360778076, 3124.12123736336, 3233.9449335861195, 3835.0464935723203]

>  <E0_kJmol>  (5) 
-405160

>  <H298_kJmol>  (5) 
-405146

$$$$
