
     RDKit          3D

 14 13  0  0  0  0  0  0  0  0999 V2000
    0.9289   -0.7408   -1.5460 C   0  0  0  0  0  0  0  0  0  1  0  0
    0.4667   -0.6060   -0.1010 C   0  0  0  0  0  0  0  0  0  2  0  0
   -0.4810    0.5481    0.1159 C   0  0  0  0  0  0  0  0  0  3  0  0
   -0.9320    0.7712    1.5364 C   0  0  0  0  0  0  0  0  0  4  0  0
    1.4461    0.1628   -1.8758 H   0  0  0  0  0  0  0  0  0  5  0  0
    0.0791   -0.8967   -2.2144 H   0  0  0  0  0  0  0  0  0  6  0  0
    1.6113   -1.5830   -1.6698 H   0  0  0  0  0  0  0  0  0  7  0  0
   -0.0163   -1.5394    0.2171 H   0  0  0  0  0  0  0  0  0  8  0  0
    1.3352   -0.4822    0.5550 H   0  0  0  0  0  0  0  0  0  9  0  0
   -1.3056    0.5533   -0.6005 H   0  0  0  0  0  0  0  0  0 10  0  0
    0.0817    1.4447   -0.1537 H   0  0  0  0  0  0  0  0  0 11  0  0
   -0.0740    0.9014    2.2015 H   0  0  0  0  0  0  0  0  0 12  0  0
   -1.5088   -0.0806    1.9127 H   0  0  0  0  0  0  0  0  0 13  0  0
   -1.5601    1.6596    1.6218 H   0  0  0  0  0  0  0  0  0 14  0  0
  1  5  1  0
  1  7  1  0
  1  6  1  0
  1  2  1  0
  2  9  1  0
  2  8  1  0
  2  3  1  0
  3 11  1  0
  3  4  1  0
  3 10  1  0
  4 14  1  0
  4 13  1  0
  4 12  1  0
M  END
>  <rmg_smiles>  (1) 
CCCC

>  <rmg_adjacency_list>  (1) 
1  C u0 p0 c0 {2,S} {3,S} {5,S} {6,S}
2  C u0 p0 c0 {1,S} {4,S} {7,S} {8,S}
3  C u0 p0 c0 {1,S} {9,S} {10,S} {11,S}
4  C u0 p0 c0 {2,S} {12,S} {13,S} {14,S}
5  H u0 p0 c0 {1,S}
6  H u0 p0 c0 {1,S}
7  H u0 p0 c0 {2,S}
8  H u0 p0 c0 {2,S}
9  H u0 p0 c0 {3,S}
10 H u0 p0 c0 {3,S}
11 H u0 p0 c0 {3,S}
12 H u0 p0 c0 {4,S}
13 H u0 p0 c0 {4,S}
14 H u0 p0 c0 {4,S}


>  <multiplicity>  (1) 
1

>  <reaction>  (1) 
rmg_rxn_35

>  <type>  (1) 
r1h

>  <role_mapnums>  (1) 
{"r1h_a": 3, "r1h_h": 11}

>  <role_mapidx>  (1) 
{"r1h_a": 2, "r1h_h": 10}

>  <ordered_mapped_smiles>  (1) 
[C:1]([C:2]([C:3]([C:4]([H:12])([H:13])[H:14])([H:10])[H:11])([H:8])[H:9])([H:5])([H:6])[H:7]

>  <mol_properties>  (1) 
{"2": {"label": "donator", "atom_type": "Cs"}, "10": {"label": "d_hydrogen", "atom_type": "H0"}}

>  <level_of_theory>  (1) 
wb97xd/def2tzvp

>  <lot_method>  (1) 
wb97xd

>  <lot_basis>  (1) 
def2tzvp

>  <spin_multiplicity>  (1) 
1.0

>  <optical_isomers>  (1) 
1.0

>  <modes>  (1) 
IdealGasTranslation(mass=(58.0782, 'amu')),         NonlinearRotor(             inertia = ([21.4183, 138.436, 147.416

>  <frequency_value>  (1) 
unknown

>  <frequency_units>  (1) 
unknown

>  <frequency_list>  (1) 
unknown

>  <arkane_path>  (1) 
/home/calvin/Dropbox/PersonalFolders/Calvin/ATLAS_Converged/rmg_rxn_35/output/Species/rmg_rxn_35_r2_CCCC/arkane/output.py

>  <path_exists>  (1) 
True

>  <E0_value>  (1) 
-415711.4770347972

>  <E0_units>  (1) 
kJ/mol

>  <thermo_class>  (1) 
NASA

>  <Cp0_value>  (1) 
33.257888

>  <Cp0_units>  (1) 
J/(mol*K)

>  <CpInf_value>  (1) 
332.57888

>  <CpInf_units>  (1) 
J/(mol*K)

>  <Tmin_value>  (1) 
10.0

>  <Tmin_units>  (1) 
K

>  <Tmax_value>  (1) 
3000.0

>  <Tmax_units>  (1) 
K

>  <polynomials>  (1) 
[{"name": "polynomial1", "class": "NASAPolynomial", "Tmin_value": 10.0, "Tmin_units": "K", "Tmax_value": 1025.0239672813746, "Tmax_units": "K", "coeffs": [3.915013592071844, 0.015190476507378274, 4.499566831623061e-05, -5.4452087887537436e-08, 1.803189229500368e-11, -49998546.31449076, 7.728184054699678]}, {"name": "polynomial2", "class": "NASAPolynomial", "Tmin_value": 1025.0239672813746, "Tmin_units": "K", "Tmax_value": 3000.0, "Tmax_units": "K", "coeffs": [0.8557434606866323, 0.04413202068529884, -2.2238982520549216e-05, 5.4598853249734095e-09, -5.274578153178241e-13, -49998812.39100051, 18.205832942846666]}]

>  <H298_value>  (1) 
-99353.185245995

>  <H298_units>  (1) 
kcal/mol

>  <S298_value>  (1) 
71.76251802442486

>  <S298_units>  (1) 
cal/(mol*K)

>  <Cp_T_value_list>  (1) 
[22.251980571284225, 28.1531399049666, 33.94079391323614, 39.35269474865459, 48.430242634303475, 55.007789274879656, 65.12656285712895, 70.35428852741721, 72.83851882766015]

>  <Cp_T_units>  (1) 
cal/(mol*K)

>  <T_list>  (1) 
[300.0, 400.0, 500.0, 600.0, 800.0, 1000.0, 1500.0, 2000.0, 2400.0]

>  <T_units>  (1) 
K

>  <yaml_path>  (1) 
/home/calvin/Dropbox/PersonalFolders/Calvin/ATLAS_Converged/rmg_rxn_35/output/Species/rmg_rxn_35_r2_CCCC/rmg_rxn_35_r2_CCCC.yml

>  <frequencies_cm1>  (1) 
[117.85806904715999, 224.50921805207997, 259.37290252171994, 260.8081024536, 427.68957970024, 733.9639919575599, 810.5171443049198, 844.8383369342799, 959.6886664112799, 978.69648177704, 1024.40313606696, 1072.73297874912, 1166.6664709414, 1201.7086970293599, 1282.4438434365998, 1315.46030885516, 1324.99168447932, 1392.23320473276, 1403.41265683372, 1404.42210367576, 1477.30828586224, 1478.9082934418, 1485.02677736192, 1486.84652847172, 1491.0285225316, 1497.33241505536, 2994.3077468740794, 3001.82022881416, 3007.36875295272, 3008.254594059, 3019.68125763148, 3041.7654824206, 3075.78452769588, 3079.10128160544, 3084.83521434764, 3085.5356468502796]

>  <ZPE_kJmol>  (1) 
344.05401570070524

>  <E_elec_kJmol>  (1) 
-416055.5310504979

>  <E0_minus_Eelec_plus_ZPE_kJmol>  (1) 
0.0

>  <rxn>  (1) 
rmg_rxn_35

>  <species_type>  (1) 
r1

>  <species_folder>  (1) 
rmg_rxn_35_r2_CCCC

>  <frequencies_cm1_list>  (1) 
[117.85806904715999, 224.50921805207997, 259.37290252171994, 260.8081024536, 427.68957970024, 733.9639919575599, 810.5171443049198, 844.8383369342799, 959.6886664112799, 978.69648177704, 1024.40313606696, 1072.73297874912, 1166.6664709414, 1201.7086970293599, 1282.4438434365998, 1315.46030885516, 1324.99168447932, 1392.23320473276, 1403.41265683372, 1404.42210367576, 1477.30828586224, 1478.9082934418, 1485.02677736192, 1486.84652847172, 1491.0285225316, 1497.33241505536, 2994.3077468740794, 3001.82022881416, 3007.36875295272, 3008.254594059, 3019.68125763148, 3041.7654824206, 3075.78452769588, 3079.10128160544, 3084.83521434764, 3085.5356468502796]

>  <E0_kJmol>  (1) 
-415711

>  <H298_kJmol>  (1) 
-415694

$$$$

     RDKit          3D

 14 13  0  0  0  0  0  0  0  0999 V2000
   -1.8297   -0.2321   -0.6027 C   0  0  0  0  0  0  0  0  0  1  0  0
   -0.5067   -0.5543    0.0392 C   0  0  0  0  0  0  0  0  0  2  0  0
    0.5123    0.5837   -0.0482 C   0  0  0  0  0  0  0  0  0  3  0  0
    1.8436    0.2343    0.6040 C   0  0  0  0  0  0  0  0  0  4  0  0
   -1.7985   -0.1170   -1.6857 H   0  0  0  0  0  0  0  0  0  5  0  0
   -2.3810    0.5794   -0.1286 H   0  0  0  0  0  0  0  0  0  6  0  0
   -0.0779   -1.4472   -0.4286 H   0  0  0  0  0  0  0  0  0  7  0  0
   -0.6621   -0.8080    1.0937 H   0  0  0  0  0  0  0  0  0  8  0  0
    0.6717    0.8399   -1.0999 H   0  0  0  0  0  0  0  0  0  9  0  0
    0.0919    1.4766    0.4240 H   0  0  0  0  0  0  0  0  0 10  0  0
    2.2953   -0.6391    0.1277 H   0  0  0  0  0  0  0  0  0 11  0  0
    1.7112    0.0013    1.6632 H   0  0  0  0  0  0  0  0  0 12  0  0
    2.5537    1.0596    0.5299 H   0  0  0  0  0  0  0  0  0 13  0  0
   -2.4717   -1.0980   -0.4439 H   0  0  0  0  0  0  0  0  0 14  0  0
  1  5  1  0
  1  2  1  0
  1  6  1  0
  1 14  1  0
  2  7  1  0
  2  8  1  0
  2  3  1  0
  3  4  1  0
  3  9  1  0
  3 10  1  0
  4 13  1  0
  4 12  1  0
  4 11  1  0
M  END
>  <rmg_smiles>  (2) 
CCCC

>  <rmg_adjacency_list>  (2) 
1  C u0 p0 c0 {2,S} {3,S} {5,S} {6,S}
2  C u0 p0 c0 {1,S} {4,S} {7,S} {8,S}
3  C u0 p0 c0 {1,S} {9,S} {10,S} {14,S}
4  C u0 p0 c0 {2,S} {11,S} {12,S} {13,S}
5  H u0 p0 c0 {1,S}
6  H u0 p0 c0 {1,S}
7  H u0 p0 c0 {2,S}
8  H u0 p0 c0 {2,S}
9  H u0 p0 c0 {3,S}
10 H u0 p0 c0 {3,S}
11 H u0 p0 c0 {4,S}
12 H u0 p0 c0 {4,S}
13 H u0 p0 c0 {4,S}
14 H u0 p0 c0 {3,S}


>  <multiplicity>  (2) 
1

>  <reaction>  (2) 
rmg_rxn_35

>  <type>  (2) 
r2h

>  <role_mapnums>  (2) 
{"r2h_a": 1, "r2h_h": 14}

>  <role_mapidx>  (2) 
{"r2h_a": 0, "r2h_h": 13}

>  <ordered_mapped_smiles>  (2) 
[C:1]([C:2]([C:3]([C:4]([H:11])([H:12])[H:13])([H:9])[H:10])([H:7])[H:8])([H:5])([H:6])[H:14]

>  <mol_properties>  (2) 
{"0": {"label": "acceptor", "atom_type": "Cs"}, "13": {"label": "a_hydrogen", "atom_type": "H0"}}

>  <level_of_theory>  (2) 
wb97xd/def2tzvp

>  <lot_method>  (2) 
wb97xd

>  <lot_basis>  (2) 
def2tzvp

>  <spin_multiplicity>  (2) 
1.0

>  <optical_isomers>  (2) 
1.0

>  <modes>  (2) 
IdealGasTranslation(mass=(58.0782, 'amu')),         NonlinearRotor(             inertia = ([21.4183, 138.436, 147.416

>  <frequency_value>  (2) 
unknown

>  <frequency_units>  (2) 
unknown

>  <frequency_list>  (2) 
unknown

>  <arkane_path>  (2) 
/home/calvin/Dropbox/PersonalFolders/Calvin/ATLAS_Converged/rmg_rxn_35/output/Species/rmg_rxn_35_p2_CCCC/arkane/output.py

>  <path_exists>  (2) 
True

>  <E0_value>  (2) 
-415711.4770347972

>  <E0_units>  (2) 
kJ/mol

>  <thermo_class>  (2) 
NASA

>  <Cp0_value>  (2) 
33.257888

>  <Cp0_units>  (2) 
J/(mol*K)

>  <CpInf_value>  (2) 
332.57888

>  <CpInf_units>  (2) 
J/(mol*K)

>  <Tmin_value>  (2) 
10.0

>  <Tmin_units>  (2) 
K

>  <Tmax_value>  (2) 
3000.0

>  <Tmax_units>  (2) 
K

>  <polynomials>  (2) 
[{"name": "polynomial1", "class": "NASAPolynomial", "Tmin_value": 10.0, "Tmin_units": "K", "Tmax_value": 1025.0239672813746, "Tmax_units": "K", "coeffs": [3.915013592071844, 0.015190476507378274, 4.499566831623061e-05, -5.4452087887537436e-08, 1.803189229500368e-11, -49998546.31449076, 7.728184054699678]}, {"name": "polynomial2", "class": "NASAPolynomial", "Tmin_value": 1025.0239672813746, "Tmin_units": "K", "Tmax_value": 3000.0, "Tmax_units": "K", "coeffs": [0.8557434606866323, 0.04413202068529884, -2.2238982520549216e-05, 5.4598853249734095e-09, -5.274578153178241e-13, -49998812.39100051, 18.205832942846666]}]

>  <H298_value>  (2) 
-99353.185245995

>  <H298_units>  (2) 
kcal/mol

>  <S298_value>  (2) 
71.76251802442486

>  <S298_units>  (2) 
cal/(mol*K)

>  <Cp_T_value_list>  (2) 
[22.251980571284225, 28.1531399049666, 33.94079391323614, 39.35269474865459, 48.430242634303475, 55.007789274879656, 65.12656285712895, 70.35428852741721, 72.83851882766015]

>  <Cp_T_units>  (2) 
cal/(mol*K)

>  <T_list>  (2) 
[300.0, 400.0, 500.0, 600.0, 800.0, 1000.0, 1500.0, 2000.0, 2400.0]

>  <T_units>  (2) 
K

>  <yaml_path>  (2) 
/home/calvin/Dropbox/PersonalFolders/Calvin/ATLAS_Converged/rmg_rxn_35/output/Species/rmg_rxn_35_p2_CCCC/rmg_rxn_35_p2_CCCC.yml

>  <frequencies_cm1>  (2) 
[117.85806904715999, 224.50921805207997, 259.37290252171994, 260.8081024536, 427.68957970024, 733.9639919575599, 810.5171443049198, 844.8383369342799, 959.6886664112799, 978.69648177704, 1024.40313606696, 1072.73297874912, 1166.6664709414, 1201.7086970293599, 1282.4438434365998, 1315.46030885516, 1324.99168447932, 1392.23320473276, 1403.41265683372, 1404.42210367576, 1477.30828586224, 1478.9082934418, 1485.02677736192, 1486.84652847172, 1491.0285225316, 1497.33241505536, 2994.3077468740794, 3001.82022881416, 3007.36875295272, 3008.254594059, 3019.68125763148, 3041.7654824206, 3075.78452769588, 3079.10128160544, 3084.83521434764, 3085.5356468502796]

>  <ZPE_kJmol>  (2) 
344.05401570070524

>  <E_elec_kJmol>  (2) 
-416055.5310504979

>  <E0_minus_Eelec_plus_ZPE_kJmol>  (2) 
0.0

>  <rxn>  (2) 
rmg_rxn_35

>  <species_type>  (2) 
p1

>  <species_folder>  (2) 
rmg_rxn_35_p2_CCCC

>  <frequencies_cm1_list>  (2) 
[117.85806904715999, 224.50921805207997, 259.37290252171994, 260.8081024536, 427.68957970024, 733.9639919575599, 810.5171443049198, 844.8383369342799, 959.6886664112799, 978.69648177704, 1024.40313606696, 1072.73297874912, 1166.6664709414, 1201.7086970293599, 1282.4438434365998, 1315.46030885516, 1324.99168447932, 1392.23320473276, 1403.41265683372, 1404.42210367576, 1477.30828586224, 1478.9082934418, 1485.02677736192, 1486.84652847172, 1491.0285225316, 1497.33241505536, 2994.3077468740794, 3001.82022881416, 3007.36875295272, 3008.254594059, 3019.68125763148, 3041.7654824206, 3075.78452769588, 3079.10128160544, 3084.83521434764, 3085.5356468502796]

>  <E0_kJmol>  (2) 
-415711

>  <H298_kJmol>  (2) 
-415694

$$$$

     RDKit          3D

 27 25  0  0  0  0  0  0  0  0999 V2000
   -0.4518    1.2720   -0.5026 C   0  0  0  0  0  3  0  0  0  1  0  0
    0.8712    0.9498    0.1393 C   0  0  0  0  0  0  0  0  0  2  0  0
    1.8902    2.0878    0.0519 C   0  0  0  0  0  0  0  0  0  3  0  0
    3.2215    1.7384    0.7042 C   0  0  0  0  0  0  0  0  0  4  0  0
   -0.4206    1.3871   -1.5855 H   0  0  0  0  0  0  0  0  0  5  0  0
   -1.0031    2.0836   -0.0284 H   0  0  0  0  0  0  0  0  0  6  0  0
    1.3000    0.0569   -0.3285 H   0  0  0  0  0  0  0  0  0  7  0  0
    0.7158    0.6961    1.1938 H   0  0  0  0  0  0  0  0  0  8  0  0
    2.0496    2.3440   -0.9998 H   0  0  0  0  0  0  0  0  0  9  0  0
    1.4698    2.9807    0.5242 H   0  0  0  0  0  0  0  0  0 10  0  0
    3.6732    0.8650    0.2278 H   0  0  0  0  0  0  0  0  0 11  0  0
    3.0891    1.5055    1.7634 H   0  0  0  0  0  0  0  0  0 12  0  0
    3.9316    2.5637    0.6301 H   0  0  0  0  0  0  0  0  0 13  0  0
   -0.5309   -2.1917   -1.6384 C   0  0  0  0  0  0  0  0  0 14  0  0
   -0.9931   -2.0570   -0.1933 C   0  0  0  0  0  0  0  0  0 15  0  0
   -1.9408   -0.9028    0.0235 C   0  0  0  0  0  0  0  0  0 16  0  0
   -2.3917   -0.6797    1.4440 C   0  0  0  0  0  0  0  0  0 17  0  0
   -0.0137   -1.2881   -1.9682 H   0  0  0  0  0  0  0  0  0 18  0  0
   -1.3807   -2.3476   -2.3068 H   0  0  0  0  0  0  0  0  0 19  0  0
    0.1515   -3.0340   -1.7622 H   0  0  0  0  0  0  0  0  0 20  0  0
   -1.4761   -2.9903    0.1247 H   0  0  0  0  0  0  0  0  0 21  0  0
   -0.1246   -1.9331    0.4627 H   0  0  0  0  0  0  0  0  0 22  0  0
   -2.7654   -0.8976   -0.6929 H   0  0  0  0  0  0  0  0  0 23  0  0
   -1.2600    0.1819   -0.3026 H   0  0  0  0  0  0  0  0  0 24  0  0
   -1.5338   -0.5496    2.1092 H   0  0  0  0  0  0  0  0  0 25  0  0
   -2.9686   -1.5316    1.8203 H   0  0  0  0  0  0  0  0  0 26  0  0
   -3.0199    0.2087    1.5295 H   0  0  0  0  0  0  0  0  0 27  0  0
  1  5  1  0
  1  6  1  0
  1  2  1  0
  2  8  1  0
  2  3  1  0
  2  7  1  0
  3  4  1  0
  3  9  1  0
  3 10  1  0
  4 11  1  0
  4 12  1  0
  4 13  1  0
 14 15  1  0
 14 19  1  0
 14 18  1  0
 14 20  1  0
 15 16  1  0
 15 22  1  0
 15 21  1  0
 16 17  1  0
 16 23  1  0
 16 24  1  0
 17 27  1  0
 17 26  1  0
 17 25  1  0
M  RAD  1   1   2
M  END
>  <rmg_smiles>  (3) 
CCCC.[CH2]CCC

>  <rmg_adjacency_list>  (3) 
multiplicity 2
1  C u0 p0 c0 {2,S} {6,S} {11,S} {12,S}
2  C u0 p0 c0 {1,S} {7,S} {13,S} {14,S}
3  C u0 p0 c0 {4,S} {5,S} {9,S} {10,S}
4  C u0 p0 c0 {3,S} {8,S} {15,S} {16,S}
5  C u0 p0 c0 {3,S} {17,S} {18,S} {19,S}
6  C u0 p0 c0 {1,S} {20,S} {21,S} {22,S}
7  C u0 p0 c0 {2,S} {23,S} {24,S} {25,S}
8  C u1 p0 c0 {4,S} {26,S} {27,S}
9  H u0 p0 c0 {3,S}
10 H u0 p0 c0 {3,S}
11 H u0 p0 c0 {1,S}
12 H u0 p0 c0 {1,S}
13 H u0 p0 c0 {2,S}
14 H u0 p0 c0 {2,S}
15 H u0 p0 c0 {4,S}
16 H u0 p0 c0 {4,S}
17 H u0 p0 c0 {5,S}
18 H u0 p0 c0 {5,S}
19 H u0 p0 c0 {5,S}
20 H u0 p0 c0 {6,S}
21 H u0 p0 c0 {6,S}
22 H u0 p0 c0 {6,S}
23 H u0 p0 c0 {7,S}
24 H u0 p0 c0 {7,S}
25 H u0 p0 c0 {7,S}
26 H u0 p0 c0 {8,S}
27 H u0 p0 c0 {8,S}


>  <multiplicity>  (3) 
2

>  <reaction>  (3) 
rmg_rxn_35

>  <type>  (3) 
ts

>  <role_mapnums>  (3) 
{"*2": 24, "*1": 16, "*3": 1, "*0": 15, "*4": 2}

>  <role_mapidx>  (3) 
{"*2": 23, "*1": 15, "*3": 0, "*0": 14, "*4": 1}

>  <ordered_mapped_smiles>  (3) 
[C:1]([C:2]([C:3]([C:4]([H:11])([H:12])[H:13])([H:9])[H:10])([H:7])[H:8])([H:5])[H:6].[C:14]([C:15]([C:16]([C:17]([H:25])([H:26])[H:27])([H:23])[H:24])([H:21])[H:22])([H:18])([H:19])[H:20]

>  <mol_properties>  (3) 
{"0": {"label": "*3", "atom_type": "Cs"}, "1": {"label": "*4", "atom_type": "Cs"}, "14": {"label": "*0", "atom_type": "Cs"}, "15": {"label": "*1", "atom_type": "Cs"}, "23": {"label": "*2", "atom_type": "H0"}}

>  <level_of_theory>  (3) 
wb97xd/def2tzvp

>  <lot_method>  (3) 
wb97xd

>  <lot_basis>  (3) 
def2tzvp

>  <spin_multiplicity>  (3) 
2.0

>  <optical_isomers>  (3) 
2.0

>  <modes>  (3) 
IdealGasTranslation(mass=(115.149, 'amu')),         NonlinearRotor(             inertia = ([204.273, 652.228, 735.493

>  <frequency_value>  (3) 
-1704.51

>  <frequency_units>  (3) 
cm^-1

>  <frequency_list>  (3) 
unknown

>  <arkane_path>  (3) 
/home/calvin/Dropbox/PersonalFolders/Calvin/ATLAS_Converged/rmg_rxn_35/output/rxns/TS0/arkane/output.py

>  <path_exists>  (3) 
True

>  <E0_value>  (3) 
-829642.0

>  <E0_units>  (3) 
kJ/mol

>  <thermo_class>  (3) 
unknown

>  <Cp0_value>  (3) 
unknown

>  <Cp0_units>  (3) 
unknown

>  <CpInf_value>  (3) 
unknown

>  <CpInf_units>  (3) 
unknown

>  <Tmin_value>  (3) 
unknown

>  <Tmin_units>  (3) 
unknown

>  <Tmax_value>  (3) 
unknown

>  <Tmax_units>  (3) 
unknown

>  <polynomials>  (3) 
unknown

>  <H298_value>  (3) 
unknown

>  <H298_units>  (3) 
unknown

>  <S298_value>  (3) 
unknown

>  <S298_units>  (3) 
unknown

>  <Cp_T_value_list>  (3) 
unknown

>  <Cp_T_units>  (3) 
unknown

>  <T_list>  (3) 
unknown

>  <T_units>  (3) 
unknown

>  <yaml_path>  (3) 
unknown

>  <frequencies_cm1>  (3) 
unknown

>  <ZPE_kJmol>  (3) 
unknown

>  <E_elec_kJmol>  (3) 
unknown

>  <E0_minus_Eelec_plus_ZPE_kJmol>  (3) 
unknown

>  <rxn>  (3) 
unknown

>  <species_type>  (3) 
unknown

>  <species_folder>  (3) 
unknown

>  <frequencies_cm1_list>  (3) 
[]

>  <ts_imag_freq_cm1>  (3) 
-1725.2111

>  <ts_freq_out_path>  (3) 
/home/calvin/Dropbox/PersonalFolders/Calvin/ATLAS_Converged/rmg_rxn_35/output/rxns/TS0/geometry/freq.out

>  <E0_kJmol>  (3) 
-829642

>  <H298_kJmol>  (3) 
unknown

$$$$

     RDKit          3D

 13 12  0  0  0  0  0  0  0  0999 V2000
    1.9060    0.2628    0.3980 C   0  0  0  0  0  0  0  0  0  1  0  0
    0.6330   -0.4250    0.0685 C   0  0  0  0  0  3  0  0  0  2  0  0
   -0.2610   -0.9325    1.1416 C   0  0  0  0  0  0  0  0  0  3  0  0
   -1.4364   -1.7546    0.6268 C   0  0  0  0  0  0  0  0  0  4  0  0
    2.4899   -0.3070    1.1292 H   0  0  0  0  0  0  0  0  0  5  0  0
    1.7297    1.2496    0.8515 H   0  0  0  0  0  0  0  0  0  6  0  0
    2.5269    0.4197   -0.4845 H   0  0  0  0  0  0  0  0  0  7  0  0
    0.2597   -0.3936   -0.9489 H   0  0  0  0  0  0  0  0  0  8  0  0
   -0.6439   -0.0868    1.7356 H   0  0  0  0  0  0  0  0  0  9  0  0
    0.3260   -1.5277    1.8536 H   0  0  0  0  0  0  0  0  0 10  0  0
   -1.0872   -2.6320    0.0792 H   0  0  0  0  0  0  0  0  0 11  0  0
   -2.0701   -2.0976    1.4459 H   0  0  0  0  0  0  0  0  0 12  0  0
   -2.0561   -1.1637   -0.0512 H   0  0  0  0  0  0  0  0  0 13  0  0
  1  5  1  0
  1  7  1  0
  1  6  1  0
  1  2  1  0
  2  8  1  0
  2  3  1  0
  3  4  1  0
  3  9  1  0
  3 10  1  0
  4 13  1  0
  4 12  1  0
  4 11  1  0
M  RAD  1   2   2
M  END
>  <rmg_smiles>  (4) 
C[CH]CC

>  <rmg_adjacency_list>  (4) 
multiplicity 2
1  C u0 p0 c0 {2,S} {4,S} {5,S} {6,S}
2  C u0 p0 c0 {1,S} {7,S} {8,S} {9,S}
3  C u0 p0 c0 {4,S} {10,S} {11,S} {12,S}
4  C u1 p0 c0 {1,S} {3,S} {13,S}
5  H u0 p0 c0 {1,S}
6  H u0 p0 c0 {1,S}
7  H u0 p0 c0 {2,S}
8  H u0 p0 c0 {2,S}
9  H u0 p0 c0 {2,S}
10 H u0 p0 c0 {3,S}
11 H u0 p0 c0 {3,S}
12 H u0 p0 c0 {3,S}
13 H u0 p0 c0 {4,S}


>  <multiplicity>  (4) 
2

>  <reaction>  (4) 
rmg_rxn_35

>  <type>  (4) 
r1

>  <role_mapnums>  (4) 
{}

>  <role_mapidx>  (4) 
{}

>  <ordered_mapped_smiles>  (4) 
[C:1]([C:2]([C:3]([C:4]([H:11])([H:12])[H:13])([H:9])[H:10])[H:8])([H:5])([H:6])[H:7]

>  <level_of_theory>  (4) 
wb97xd/def2tzvp

>  <lot_method>  (4) 
wb97xd

>  <lot_basis>  (4) 
def2tzvp

>  <spin_multiplicity>  (4) 
2.0

>  <optical_isomers>  (4) 
2.0

>  <modes>  (4) 
IdealGasTranslation(mass=(57.0704, 'amu')),         NonlinearRotor(             inertia = ([18.7542, 137.737, 146.856

>  <frequency_value>  (4) 
unknown

>  <frequency_units>  (4) 
unknown

>  <frequency_list>  (4) 
unknown

>  <arkane_path>  (4) 
/home/calvin/Dropbox/PersonalFolders/Calvin/ATLAS_Converged/rmg_rxn_35/output/Species/rmg_rxn_35_p1_Csbr-CH-sbrCC/arkane/output.py

>  <path_exists>  (4) 
True

>  <E0_value>  (4) 
-413995.2264405356

>  <E0_units>  (4) 
kJ/mol

>  <thermo_class>  (4) 
NASA

>  <Cp0_value>  (4) 
33.257888

>  <Cp0_units>  (4) 
J/(mol*K)

>  <CpInf_value>  (4) 
307.635464

>  <CpInf_units>  (4) 
J/(mol*K)

>  <Tmin_value>  (4) 
10.0

>  <Tmin_units>  (4) 
K

>  <Tmax_value>  (4) 
3000.0

>  <Tmax_units>  (4) 
K

>  <polynomials>  (4) 
[{"name": "polynomial1", "class": "NASAPolynomial", "Tmin_value": 10.0, "Tmin_units": "K", "Tmax_value": 437.64132334566835, "Tmax_units": "K", "coeffs": [3.6274282376646756, 0.03980524048628293, -0.00011211913315348379, 3.0275669442783334e-07, -2.6334100357152647e-10, -49792123.767797455, 10.477759673967103]}, {"name": "polynomial2", "class": "NASAPolynomial", "Tmin_value": 437.64132334566835, "Tmin_units": "K", "Tmax_value": 3000.0, "Tmax_units": "K", "coeffs": [-0.4712203043918067, 0.04588815729464738, -2.541997261504284e-05, 6.85639015424627e-09, -7.228277482308085e-13, -49791464.52563959, 30.297543071931177]}]

>  <H298_value>  (4) 
-98942.59688263848

>  <H298_units>  (4) 
kcal/mol

>  <S298_value>  (4) 
79.84336435797195

>  <S298_units>  (4) 
cal/(mol*K)

>  <Cp_T_value_list>  (4) 
[22.891917447574397, 28.308475735554, 33.64288387138264, 38.34868525299168, 46.07323283166112, 51.92675269306213, 60.90207372767515, 65.40111428959476, 67.64920413290923]

>  <Cp_T_units>  (4) 
cal/(mol*K)

>  <T_list>  (4) 
[300.0, 400.0, 500.0, 600.0, 800.0, 1000.0, 1500.0, 2000.0, 2400.0]

>  <T_units>  (4) 
K

>  <yaml_path>  (4) 
/home/calvin/Dropbox/PersonalFolders/Calvin/ATLAS_Converged/rmg_rxn_35/output/Species/rmg_rxn_35_p1_Csbr-CH-sbrCC/rmg_rxn_35_p1_Csbr-CH-sbrCC.yml

>  <frequencies_cm1>  (4) 
[56.84490447896, 98.78845081352, 231.15645984184, 255.98747875895998, 343.02651768996, 433.15570001495996, 765.0302335452399, 850.6821414415999, 969.8792726261601, 986.4561751886399, 1035.713060889, 1061.1277735583199, 1129.08346028504, 1177.0836876718397, 1262.3853793168798, 1303.7933007964798, 1389.89842972396, 1402.2452693293199, 1414.45476922828, 1456.0687002674797, 1460.55284168144, 1471.1898019421196, 1484.2096061088398, 1489.95040583636, 2924.0516200651596, 2943.40278469692, 2976.8244022493595, 3009.05803134144, 3013.50097084348, 3083.1390689736, 3085.4944449383597, 3091.2352446658797, 3146.1642602405595]

>  <ZPE_kJmol>  (4) 
303.861341375402

>  <E_elec_kJmol>  (4) 
-414299.087781911

>  <E0_minus_Eelec_plus_ZPE_kJmol>  (4) 
0.0

>  <rxn>  (4) 
rmg_rxn_35

>  <species_type>  (4) 
p0

>  <species_folder>  (4) 
rmg_rxn_35_p1_Csbr-CH-sbrCC

>  <frequencies_cm1_list>  (4) 
[56.84490447896, 98.78845081352, 231.15645984184, 255.98747875895998, 343.02651768996, 433.15570001495996, 765.0302335452399, 850.6821414415999, 969.8792726261601, 986.4561751886399, 1035.713060889, 1061.1277735583199, 1129.08346028504, 1177.0836876718397, 1262.3853793168798, 1303.7933007964798, 1389.89842972396, 1402.2452693293199, 1414.45476922828, 1456.0687002674797, 1460.55284168144, 1471.1898019421196, 1484.2096061088398, 1489.95040583636, 2924.0516200651596, 2943.40278469692, 2976.8244022493595, 3009.05803134144, 3013.50097084348, 3083.1390689736, 3085.4944449383597, 3091.2352446658797, 3146.1642602405595]

>  <E0_kJmol>  (4) 
-413995

>  <H298_kJmol>  (4) 
-413976

$$$$

     RDKit          3D

 13 12  0  0  0  0  0  0  0  0999 V2000
    2.0654   -0.2739   -0.0844 C   0  0  0  0  0  3  0  0  0  1  0  0
    0.6326   -0.4110   -0.4406 C   0  0  0  0  0  0  0  0  0  2  0  0
   -0.3055    0.4151    0.4359 C   0  0  0  0  0  0  0  0  0  3  0  0
   -1.7714    0.2357    0.0671 C   0  0  0  0  0  0  0  0  0  4  0  0
    2.3610    0.0676    0.8995 H   0  0  0  0  0  0  0  0  0  5  0  0
    2.8408   -0.6127   -0.7582 H   0  0  0  0  0  0  0  0  0  6  0  0
    0.3313   -1.4695   -0.3768 H   0  0  0  0  0  0  0  0  0  7  0  0
    0.4826   -0.1432   -1.4940 H   0  0  0  0  0  0  0  0  0  8  0  0
   -0.1518    0.1351    1.4826 H   0  0  0  0  0  0  0  0  0  9  0  0
   -0.0303    1.4705    0.3565 H   0  0  0  0  0  0  0  0  0 10  0  0
   -2.0768   -0.8084    0.1692 H   0  0  0  0  0  0  0  0  0 11  0  0
   -1.9546    0.5339   -0.9679 H   0  0  0  0  0  0  0  0  0 12  0  0
   -2.4194    0.8370    0.7066 H   0  0  0  0  0  0  0  0  0 13  0  0
  1  5  1  0
  1  6  1  0
  1  2  1  0
  2  8  1  0
  2  7  1  0
  2  3  1  0
  3  4  1  0
  3  9  1  0
  3 10  1  0
  4 13  1  0
  4 12  1  0
  4 11  1  0
M  RAD  1   1   2
M  END
>  <rmg_smiles>  (5) 
[CH2]CCC

>  <rmg_adjacency_list>  (5) 
multiplicity 2
1  C u0 p0 c0 {2,S} {3,S} {5,S} {6,S}
2  C u0 p0 c0 {1,S} {4,S} {7,S} {8,S}
3  C u0 p0 c0 {1,S} {9,S} {10,S} {11,S}
4  C u1 p0 c0 {2,S} {12,S} {13,S}
5  H u0 p0 c0 {1,S}
6  H u0 p0 c0 {1,S}
7  H u0 p0 c0 {2,S}
8  H u0 p0 c0 {2,S}
9  H u0 p0 c0 {3,S}
10 H u0 p0 c0 {3,S}
11 H u0 p0 c0 {3,S}
12 H u0 p0 c0 {4,S}
13 H u0 p0 c0 {4,S}


>  <multiplicity>  (5) 
2

>  <reaction>  (5) 
rmg_rxn_35

>  <type>  (5) 
r2

>  <role_mapnums>  (5) 
{}

>  <role_mapidx>  (5) 
{}

>  <ordered_mapped_smiles>  (5) 
[C:1]([C:2]([C:3]([C:4]([H:11])([H:12])[H:13])([H:9])[H:10])([H:7])[H:8])([H:5])[H:6]

>  <level_of_theory>  (5) 
wb97xd/def2tzvp

>  <lot_method>  (5) 
wb97xd

>  <lot_basis>  (5) 
def2tzvp

>  <spin_multiplicity>  (5) 
2.0

>  <optical_isomers>  (5) 
2.0

>  <modes>  (5) 
IdealGasTranslation(mass=(57.0704, 'amu')),         NonlinearRotor(             inertia = ([19.9061, 131.501, 141.822

>  <frequency_value>  (5) 
unknown

>  <frequency_units>  (5) 
unknown

>  <frequency_list>  (5) 
unknown

>  <arkane_path>  (5) 
/home/calvin/Dropbox/PersonalFolders/Calvin/ATLAS_Converged/rmg_rxn_35/output/Species/rmg_rxn_35_r1_sbr-CH2-sbrCCC/arkane/output.py

>  <path_exists>  (5) 
True

>  <E0_value>  (5) 
-413980.515065041

>  <E0_units>  (5) 
kJ/mol

>  <thermo_class>  (5) 
NASA

>  <Cp0_value>  (5) 
33.257888

>  <Cp0_units>  (5) 
J/(mol*K)

>  <CpInf_value>  (5) 
307.635464

>  <CpInf_units>  (5) 
J/(mol*K)

>  <Tmin_value>  (5) 
10.0

>  <Tmin_units>  (5) 
K

>  <Tmax_value>  (5) 
3000.0

>  <Tmax_units>  (5) 
K

>  <polynomials>  (5) 
[{"name": "polynomial1", "class": "NASAPolynomial", "Tmin_value": 10.0, "Tmin_units": "K", "Tmax_value": 1154.93799035051, "Tmax_units": "K", "coeffs": [3.8608583449208367, 0.02312895427514024, 1.718157563784362e-05, -2.653261595233422e-08, 8.598323666501713e-12, -49790358.451797806, 9.98302976614612]}, {"name": "polynomial2", "class": "NASAPolynomial", "Tmin_value": 1154.93799035051, "Tmin_units": "K", "Tmax_value": 3000.0, "Tmax_units": "K", "coeffs": [5.006671859828862, 0.03390757519761412, -1.5970386346220703e-05, 3.659460065945614e-09, -3.3024942479245143e-13, -49791606.659514256, 0.032118084025620754]}]

>  <H298_value>  (5) 
-98939.19157782634

>  <H298_units>  (5) 
kcal/mol

>  <S298_value>  (5) 
78.32957530726806

>  <S298_units>  (5) 
cal/(mol*K)

>  <Cp_T_value_list>  (5) 
[23.248631358892137, 28.583028071211853, 33.66635358076252, 38.36678892872091, 46.296753040816824, 52.13852768190894, 60.835257561392275, 65.44261811889302, 67.61851586744878]

>  <Cp_T_units>  (5) 
cal/(mol*K)

>  <T_list>  (5) 
[300.0, 400.0, 500.0, 600.0, 800.0, 1000.0, 1500.0, 2000.0, 2400.0]

>  <T_units>  (5) 
K

>  <yaml_path>  (5) 
/home/calvin/Dropbox/PersonalFolders/Calvin/ATLAS_Converged/rmg_rxn_35/output/Species/rmg_rxn_35_r1_sbr-CH2-sbrCCC/rmg_rxn_35_r1_sbr-CH2-sbrCCC.yml

>  <frequencies_cm1>  (5) 
[73.35313718823998, 132.16886645403997, 238.64147384063997, 264.99696349879997, 431.39775177304, 467.79277396904, 728.50473862816, 827.3275243682799, 860.37832471344, 963.38310451344, 1040.3208080387199, 1067.46600100868, 1094.96141022996, 1160.5617209919199, 1239.42904739212, 1306.10747484932, 1314.7118074552798, 1388.4151608948398, 1404.06502043912, 1451.2686775288, 1453.0952956239198, 1480.39842925624, 1485.157250083, 1493.0199482744, 2921.4421656435597, 2989.1849758253597, 3008.40566773604, 3009.2159720037994, 3044.3474689009204, 3079.04634572288, 3088.11076634528, 3121.2096355876797, 3223.96720391616]

>  <ZPE_kJmol>  (5) 
304.16171338229066

>  <E_elec_kJmol>  (5) 
-414284.6767784233

>  <E0_minus_Eelec_plus_ZPE_kJmol>  (5) 
0.0

>  <rxn>  (5) 
rmg_rxn_35

>  <species_type>  (5) 
r0

>  <species_folder>  (5) 
rmg_rxn_35_r1_sbr-CH2-sbrCCC

>  <frequencies_cm1_list>  (5) 
[73.35313718823998, 132.16886645403997, 238.64147384063997, 264.99696349879997, 431.39775177304, 467.79277396904, 728.50473862816, 827.3275243682799, 860.37832471344, 963.38310451344, 1040.3208080387199, 1067.46600100868, 1094.96141022996, 1160.5617209919199, 1239.42904739212, 1306.10747484932, 1314.7118074552798, 1388.4151608948398, 1404.06502043912, 1451.2686775288, 1453.0952956239198, 1480.39842925624, 1485.157250083, 1493.0199482744, 2921.4421656435597, 2989.1849758253597, 3008.40566773604, 3009.2159720037994, 3044.3474689009204, 3079.04634572288, 3088.11076634528, 3121.2096355876797, 3223.96720391616]

>  <E0_kJmol>  (5) 
-413981

>  <H298_kJmol>  (5) 
-413962

$$$$
