
     RDKit          3D

  6  5  0  0  0  0  0  0  0  0999 V2000
    0.0471    1.1218    0.2853 C   0  0  0  0  0  0  0  0  0  1  0  0
    0.4634   -0.1953    0.0471 N   0  0  0  0  0  0  0  0  0  2  0  0
   -0.4117   -0.9438   -0.3542 O   0  0  0  0  0  0  0  0  0  3  0  0
   -0.4720    1.0631    1.2395 H   0  0  0  0  0  0  0  0  0  4  0  0
   -0.7467    1.4852   -0.3683 H   0  0  0  0  0  0  0  0  0  5  0  0
    0.8715    1.7998    0.4811 H   0  0  0  0  0  0  0  0  0  6  0  0
  1  5  1  0
  1  2  1  0
  1  4  1  0
  1  6  1  0
  2  3  1  0
M  END
>  <rmg_smiles>  (1) 
C[N][O]

>  <rmg_adjacency_list>  (1) 
1 O u0 p2 c0 {2,S}
2 N u0 p1 c0 {1,S} {3,S}
3 C u0 p0 c0 {2,S} {4,S} {5,S} {6,S}
4 H u0 p0 c0 {3,S}
5 H u0 p0 c0 {3,S}
6 H u0 p0 c0 {3,S}


>  <multiplicity>  (1) 
1

>  <reaction>  (1) 
rmg_rxn_606

>  <type>  (1) 
r1h

>  <role_mapnums>  (1) 
{"r1h_a": 1, "r1h_h": 4}

>  <role_mapidx>  (1) 
{"r1h_a": 0, "r1h_h": 3}

>  <ordered_mapped_smiles>  (1) 
[C:1]([NH:2][OH:3])([H:4])([H:5])[H:6]

>  <mol_properties>  (1) 
{"0": {"label": "donator", "atom_type": "Cs"}, "3": {"label": "d_hydrogen", "atom_type": "H0"}}

>  <level_of_theory>  (1) 
wb97xd/def2tzvp

>  <lot_method>  (1) 
wb97xd

>  <lot_basis>  (1) 
def2tzvp

>  <spin_multiplicity>  (1) 
1.0

>  <optical_isomers>  (1) 
1.0

>  <modes>  (1) 
IdealGasTranslation(mass=(45.0215, 'amu')),         NonlinearRotor(             inertia = ([8.07699, 43.5338, 48.4889

>  <frequency_value>  (1) 
unknown

>  <frequency_units>  (1) 
unknown

>  <frequency_list>  (1) 
unknown

>  <arkane_path>  (1) 
/home/calvin/Dropbox/PersonalFolders/Calvin/ATLAS_Converged/rmg_rxn_606/output/Species/rmg_rxn_606_r2_CN=O/arkane/output.py

>  <path_exists>  (1) 
True

>  <E0_value>  (1) 
-445718.776356613

>  <E0_units>  (1) 
kJ/mol

>  <thermo_class>  (1) 
NASA

>  <Cp0_value>  (1) 
33.257888

>  <Cp0_units>  (1) 
J/(mol*K)

>  <CpInf_value>  (1) 
133.031552

>  <CpInf_units>  (1) 
J/(mol*K)

>  <Tmin_value>  (1) 
10.0

>  <Tmin_units>  (1) 
K

>  <Tmax_value>  (1) 
3000.0

>  <Tmax_units>  (1) 
K

>  <polynomials>  (1) 
[{"name": "polynomial1", "class": "NASAPolynomial", "Tmin_value": 10.0, "Tmin_units": "K", "Tmax_value": 511.90687785810604, "Tmax_units": "K", "coeffs": [3.9789352478099715, 0.001161265651303563, 3.748997662509957e-05, -5.8505700772999076e-08, 2.9515965803367326e-11, -53607585.080265164, 6.986782485664598]}, {"name": "polynomial2", "class": "NASAPolynomial", "Tmin_value": 511.90687785810604, "Tmin_units": "K", "Tmax_value": 3000.0, "Tmax_units": "K", "coeffs": [1.9343545091495096, 0.0171365636524948, -9.318546376811868e-06, 2.45056971641056e-09, -2.5158502413706336e-13, -53607375.74155318, 15.481740257492172]}]

>  <H298_value>  (1) 
-106526.42729706276

>  <H298_units>  (1) 
kcal/mol

>  <S298_value>  (1) 
62.01661564600373

>  <S298_units>  (1) 
cal/(mol*K)

>  <Cp_T_value_list>  (1) 
[12.640299105229849, 14.810812294003128, 16.818915965173034, 18.596941456685723, 21.524185210914364, 23.74981328654779, 27.164107834916802, 28.83932173030383, 29.643096991481094]

>  <Cp_T_units>  (1) 
cal/(mol*K)

>  <T_list>  (1) 
[300.0, 400.0, 500.0, 600.0, 800.0, 1000.0, 1500.0, 2000.0, 2400.0]

>  <T_units>  (1) 
K

>  <yaml_path>  (1) 
/home/calvin/Dropbox/PersonalFolders/Calvin/ATLAS_Converged/rmg_rxn_606/output/Species/rmg_rxn_606_r2_CN=O/rmg_rxn_606_r2_CN=O.yml

>  <frequencies_cm1>  (1) 
[159.67800964595997, 581.79159726636, 871.00155100348, 967.4689607788398, 1152.46554529964, 1368.8854546447599, 1439.8214130003598, 1441.90210955232, 1701.8724397968801, 3006.5378477289996, 3098.8369974151196, 3119.62336197876]

>  <ZPE_kJmol>  (1) 
113.10626417033984

>  <E_elec_kJmol>  (1) 
-445831.88262078335

>  <E0_minus_Eelec_plus_ZPE_kJmol>  (1) 
0.0

>  <rxn>  (1) 
rmg_rxn_606

>  <species_type>  (1) 
r1

>  <species_folder>  (1) 
rmg_rxn_606_r2_CN=O

>  <frequencies_cm1_list>  (1) 
[159.67800964595997, 581.79159726636, 871.00155100348, 967.4689607788398, 1152.46554529964, 1368.8854546447599, 1439.8214130003598, 1441.90210955232, 1701.8724397968801, 3006.5378477289996, 3098.8369974151196, 3119.62336197876]

>  <E0_kJmol>  (1) 
-445719

>  <H298_kJmol>  (1) 
-445707

$$$$

     RDKit          3D

  5  4  0  0  0  0  0  0  0  0999 V2000
    0.4746    0.4039    0.3320 N   0  0  0  0  0  2  0  0  0  1  0  0
   -0.4755   -0.3289   -0.2457 N   0  0  0  0  0  0  0  0  0  2  0  0
   -1.0932   -0.7787    0.4162 H   0  0  0  0  0  0  0  0  0  3  0  0
   -0.2133   -0.8961   -1.0479 H   0  0  0  0  0  0  0  0  0  4  0  0
    1.1743    0.5935   -0.4137 H   0  0  0  0  0  0  0  0  0  5  0  0
  1  5  1  0
  1  2  1  0
  2  4  1  0
  2  3  1  0
M  RAD  1   1   2
M  END
>  <rmg_smiles>  (2) 
[NH]N

>  <rmg_adjacency_list>  (2) 
multiplicity 2
1 N u0 p1 c0 {2,S} {3,S} {4,S}
2 N u1 p1 c0 {1,S} {5,S}
3 H u0 p0 c0 {1,S}
4 H u0 p0 c0 {1,S}
5 H u0 p0 c0 {2,S}


>  <multiplicity>  (2) 
2

>  <reaction>  (2) 
rmg_rxn_606

>  <type>  (2) 
r2h

>  <role_mapnums>  (2) 
{"r2h_a": 1, "r2h_h": 5}

>  <role_mapidx>  (2) 
{"r2h_a": 0, "r2h_h": 4}

>  <ordered_mapped_smiles>  (2) 
[N:1]([N:2]([H:3])[H:4])[H:5]

>  <mol_properties>  (2) 
{"0": {"label": "acceptor", "atom_type": "N3s"}, "4": {"label": "a_hydrogen", "atom_type": "H0"}}

>  <level_of_theory>  (2) 
wb97xd/def2tzvp

>  <lot_method>  (2) 
wb97xd

>  <lot_basis>  (2) 
def2tzvp

>  <spin_multiplicity>  (2) 
2.0

>  <optical_isomers>  (2) 
2.0

>  <modes>  (2) 
IdealGasTranslation(mass=(31.0296, 'amu')),         NonlinearRotor(             inertia = ([2.44556, 16.2707, 18.4662

>  <frequency_value>  (2) 
unknown

>  <frequency_units>  (2) 
unknown

>  <frequency_list>  (2) 
unknown

>  <arkane_path>  (2) 
/home/calvin/Dropbox/PersonalFolders/Calvin/ATLAS_Converged/rmg_rxn_606/output/Species/rmg_rxn_606_p1_sbr-NH-sbrN/arkane/output.py

>  <path_exists>  (2) 
True

>  <E0_value>  (2) 
-291956.40137108794

>  <E0_units>  (2) 
kJ/mol

>  <thermo_class>  (2) 
NASA

>  <Cp0_value>  (2) 
33.257888

>  <Cp0_units>  (2) 
J/(mol*K)

>  <CpInf_value>  (2) 
108.088136

>  <CpInf_units>  (2) 
J/(mol*K)

>  <Tmin_value>  (2) 
10.0

>  <Tmin_units>  (2) 
K

>  <Tmax_value>  (2) 
3000.0

>  <Tmax_units>  (2) 
K

>  <polynomials>  (2) 
[{"name": "polynomial1", "class": "NASAPolynomial", "Tmin_value": 10.0, "Tmin_units": "K", "Tmax_value": 509.83859825219446, "Tmax_units": "K", "coeffs": [4.052136584602748, -0.004531084504054963, 4.937184092156198e-05, -8.152448525744323e-08, 4.584783864816205e-11, -35114244.424322896, 5.945417615125596]}, {"name": "polynomial2", "class": "NASAPolynomial", "Tmin_value": 509.83859825219446, "Tmin_units": "K", "Tmax_value": 3000.0, "Tmax_units": "K", "coeffs": [2.3652619552133953, 0.011493157855311688, -5.980697508799935e-06, 1.5868265846776409e-09, -1.6841948466854505e-13, -35114108.67419368, 12.591661130242505]}]

>  <H298_value>  (2) 
-69776.66608848934

>  <H298_units>  (2) 
kcal/mol

>  <S298_value>  (2) 
58.113888817126096

>  <S298_units>  (2) 
cal/(mol*K)

>  <Cp_T_value_list>  (2) 
[10.545078125731532, 12.11268922492409, 13.52191448532847, 14.763022558774402, 16.842792109084044, 18.473328780854715, 21.16642287354857, 22.71116419064153, 23.545534603114234]

>  <Cp_T_units>  (2) 
cal/(mol*K)

>  <T_list>  (2) 
[300.0, 400.0, 500.0, 600.0, 800.0, 1000.0, 1500.0, 2000.0, 2400.0]

>  <T_units>  (2) 
K

>  <yaml_path>  (2) 
/home/calvin/Dropbox/PersonalFolders/Calvin/ATLAS_Converged/rmg_rxn_606/output/Species/rmg_rxn_606_p1_sbr-NH-sbrN/rmg_rxn_606_p1_sbr-NH-sbrN.yml

>  <frequencies_cm1>  (2) 
[540.35620784548, 695.94149424072, 1137.64659097908, 1263.87551513132, 1471.0593292210397, 1653.85847843944, 3424.7853226142397, 3492.4045270602796, 3632.23008214612]

>  <ZPE_kJmol>  (2) 
103.5497273046512

>  <E_elec_kJmol>  (2) 
-292059.9510983926

>  <E0_minus_Eelec_plus_ZPE_kJmol>  (2) 
0.0

>  <rxn>  (2) 
rmg_rxn_606

>  <species_type>  (2) 
p0

>  <species_folder>  (2) 
rmg_rxn_606_p1_sbr-NH-sbrN

>  <frequencies_cm1_list>  (2) 
[540.35620784548, 695.94149424072, 1137.64659097908, 1263.87551513132, 1471.0593292210397, 1653.85847843944, 3424.7853226142397, 3492.4045270602796, 3632.23008214612]

>  <E0_kJmol>  (2) 
-291956

>  <H298_kJmol>  (2) 
-291946

$$$$

     RDKit          3D

 10  8  0  0  0  0  0  0  0  0999 V2000
   -0.5175    0.5540    1.8563 N   0  0  0  0  0  2  0  0  0  1  0  0
   -1.4676   -0.1789    1.2786 N   0  0  0  0  0  0  0  0  0  2  0  0
   -2.0853   -0.6287    1.9405 H   0  0  0  0  0  0  0  0  0  3  0  0
   -1.2054   -0.7461    0.4763 H   0  0  0  0  0  0  0  0  0  4  0  0
    0.9638    0.8546   -0.2150 C   0  0  0  0  0  0  0  0  0  5  0  0
    1.3802   -0.4624   -0.4532 N   0  0  0  0  0  0  0  0  0  6  0  0
    0.5051   -1.2110   -0.8544 O   0  0  0  0  0  1  0  0  0  7  0  0
    0.3263    0.7825    0.9570 H   0  0  0  0  0  0  0  0  0  8  0  0
    0.1700    1.2180   -0.8686 H   0  0  0  0  0  0  0  0  0  9  0  0
    1.7883    1.5326   -0.0191 H   0  0  0  0  0  0  0  0  0 10  0  0
  1  8  1  0
  1  2  1  0
  2  3  1  0
  2  4  1  0
  5  6  1  0
  5 10  1  0
  5  9  1  0
  6  7  1  0
M  RAD  2   1   2   7   2
M  END
>  <rmg_smiles>  (3) 
[CH2][N][O].[NH]N

>  <rmg_adjacency_list>  (3) 
multiplicity 3
1  O u1 p2 c0 {4,S}
2  N u0 p1 c0 {3,S} {6,S} {7,S}
3  N u1 p1 c0 {2,S} {10,S}
4  N u0 p1 c0 {1,S} {5,S}
5  C u0 p0 c0 {4,S} {8,S} {9,S}
6  H u0 p0 c0 {2,S}
7  H u0 p0 c0 {2,S}
8  H u0 p0 c0 {5,S}
9  H u0 p0 c0 {5,S}
10 H u0 p0 c0 {3,S}


>  <multiplicity>  (3) 
3

>  <reaction>  (3) 
rmg_rxn_606

>  <type>  (3) 
ts

>  <role_mapnums>  (3) 
{"*2": 8, "*1": 5, "*3": 1, "*0": 2, "*4": 6}

>  <role_mapidx>  (3) 
{"*2": 7, "*1": 4, "*3": 0, "*0": 1, "*4": 5}

>  <ordered_mapped_smiles>  (3) 
[N:1]([N:2]([H:3])[H:4])[H:8].[CH:5]([NH:6][O:7])([H:9])[H:10]

>  <mol_properties>  (3) 
{"0": {"label": "*3", "atom_type": "N3s"}, "1": {"label": "*0", "atom_type": "N3s"}, "4": {"label": "*1", "atom_type": "Cs"}, "5": {"label": "*4", "atom_type": "N3s"}, "7": {"label": "*2", "atom_type": "H0"}}

>  <level_of_theory>  (3) 
wb97xd/def2tzvp

>  <lot_method>  (3) 
wb97xd

>  <lot_basis>  (3) 
def2tzvp

>  <spin_multiplicity>  (3) 
3.0

>  <optical_isomers>  (3) 
2.0

>  <modes>  (3) 
IdealGasTranslation(mass=(75.0433, 'amu')),         NonlinearRotor(             inertia = ([58.1877, 162.211, 204.714

>  <frequency_value>  (3) 
-1833.76

>  <frequency_units>  (3) 
cm^-1

>  <frequency_list>  (3) 
unknown

>  <arkane_path>  (3) 
/home/calvin/Dropbox/PersonalFolders/Calvin/ATLAS_Converged/rmg_rxn_606/output/rxns/TS0/arkane/output.py

>  <path_exists>  (3) 
True

>  <E0_value>  (3) 
-735962.0

>  <E0_units>  (3) 
kJ/mol

>  <thermo_class>  (3) 
unknown

>  <Cp0_value>  (3) 
unknown

>  <Cp0_units>  (3) 
unknown

>  <CpInf_value>  (3) 
unknown

>  <CpInf_units>  (3) 
unknown

>  <Tmin_value>  (3) 
unknown

>  <Tmin_units>  (3) 
unknown

>  <Tmax_value>  (3) 
unknown

>  <Tmax_units>  (3) 
unknown

>  <polynomials>  (3) 
unknown

>  <H298_value>  (3) 
unknown

>  <H298_units>  (3) 
unknown

>  <S298_value>  (3) 
unknown

>  <S298_units>  (3) 
unknown

>  <Cp_T_value_list>  (3) 
unknown

>  <Cp_T_units>  (3) 
unknown

>  <T_list>  (3) 
unknown

>  <T_units>  (3) 
unknown

>  <yaml_path>  (3) 
unknown

>  <frequencies_cm1>  (3) 
unknown

>  <ZPE_kJmol>  (3) 
unknown

>  <E_elec_kJmol>  (3) 
unknown

>  <E0_minus_Eelec_plus_ZPE_kJmol>  (3) 
unknown

>  <rxn>  (3) 
unknown

>  <species_type>  (3) 
unknown

>  <species_folder>  (3) 
unknown

>  <frequencies_cm1_list>  (3) 
[]

>  <ts_imag_freq_cm1>  (3) 
-1856.0298

>  <ts_freq_out_path>  (3) 
/home/calvin/Dropbox/PersonalFolders/Calvin/ATLAS_Converged/rmg_rxn_606/output/rxns/TS0/geometry/freq.out

>  <E0_kJmol>  (3) 
-735962

>  <H298_kJmol>  (3) 
unknown

$$$$

     RDKit          3D

  5  4  0  0  0  0  0  0  0  0999 V2000
   -0.4986    0.0189   -0.0212 C   0  0  0  0  0  0  0  0  0  1  0  0
    0.6799   -0.4410    0.1054 N   0  0  0  0  0  0  0  0  0  2  0  0
    1.7950    0.0236    0.0595 O   0  0  0  0  0  1  0  0  0  3  0  0
   -1.3180   -0.6753    0.0776 H   0  0  0  0  0  0  0  0  0  4  0  0
   -0.6584    1.0737   -0.2213 H   0  0  0  0  0  0  0  0  0  5  0  0
  1  5  1  0
  1  4  1  0
  1  2  1  0
  2  3  1  0
M  RAD  1   3   2
M  END
>  <rmg_smiles>  (4) 
[CH2][N][O]

>  <rmg_adjacency_list>  (4) 
multiplicity 2
1 O u1 p2 c0 {2,S}
2 N u0 p1 c0 {1,S} {3,S}
3 C u0 p0 c0 {2,S} {4,S} {5,S}
4 H u0 p0 c0 {3,S}
5 H u0 p0 c0 {3,S}


>  <multiplicity>  (4) 
2

>  <reaction>  (4) 
rmg_rxn_606

>  <type>  (4) 
r1

>  <role_mapnums>  (4) 
{}

>  <role_mapidx>  (4) 
{}

>  <ordered_mapped_smiles>  (4) 
[CH:1]([NH:2][O:3])([H:4])[H:5]

>  <level_of_theory>  (4) 
wb97xd/def2tzvp

>  <lot_method>  (4) 
wb97xd

>  <lot_basis>  (4) 
def2tzvp

>  <spin_multiplicity>  (4) 
2.0

>  <optical_isomers>  (4) 
1.0

>  <modes>  (4) 
IdealGasTranslation(mass=(44.0136, 'amu')),         NonlinearRotor(             inertia = ([3.87779, 42.4322, 46.31

>  <frequency_value>  (4) 
unknown

>  <frequency_units>  (4) 
unknown

>  <frequency_list>  (4) 
unknown

>  <arkane_path>  (4) 
/home/calvin/Dropbox/PersonalFolders/Calvin/ATLAS_Converged/rmg_rxn_606/output/Species/rmg_rxn_606_p2_sbr-CH2-sbrN=O/arkane/output.py

>  <path_exists>  (4) 
True

>  <E0_value>  (4) 
-444125.8698569815

>  <E0_units>  (4) 
kJ/mol

>  <thermo_class>  (4) 
NASA

>  <Cp0_value>  (4) 
33.257888

>  <Cp0_units>  (4) 
J/(mol*K)

>  <CpInf_value>  (4) 
108.088136

>  <CpInf_units>  (4) 
J/(mol*K)

>  <Tmin_value>  (4) 
10.0

>  <Tmin_units>  (4) 
K

>  <Tmax_value>  (4) 
3000.0

>  <Tmax_units>  (4) 
K

>  <polynomials>  (4) 
[{"name": "polynomial1", "class": "NASAPolynomial", "Tmin_value": 10.0, "Tmin_units": "K", "Tmax_value": 562.3844127225133, "Tmax_units": "K", "coeffs": [4.053937176279305, -0.0047398271406768585, 5.7437859425445556e-05, -9.385630136446055e-08, 5.059118934882412e-11, -53416003.88498011, 6.9306587758022244]}, {"name": "polynomial2", "class": "NASAPolynomial", "Tmin_value": 562.3844127225133, "Tmin_units": "K", "Tmax_value": 3000.0, "Tmax_units": "K", "coeffs": [2.1822483082936537, 0.014293062944345295, -8.584392971883197e-06, 2.4949936009645337e-09, -2.805584349724308e-13, -53415883.824056074, 14.078927000603649]}]

>  <H298_value>  (4) 
-106145.96131022584

>  <H298_units>  (4) 
kcal/mol

>  <S298_value>  (4) 
60.48266213431546

>  <S298_units>  (4) 
cal/(mol*K)

>  <Cp_T_value_list>  (4) 
[11.281500234397477, 13.187887263233034, 14.851189314724579, 16.235999449361433, 18.451624012184585, 20.08142406383569, 22.469810630137335, 23.65136644158371, 24.287701175564127]

>  <Cp_T_units>  (4) 
cal/(mol*K)

>  <T_list>  (4) 
[300.0, 400.0, 500.0, 600.0, 800.0, 1000.0, 1500.0, 2000.0, 2400.0]

>  <T_units>  (4) 
K

>  <yaml_path>  (4) 
/home/calvin/Dropbox/PersonalFolders/Calvin/ATLAS_Converged/rmg_rxn_606/output/Species/rmg_rxn_606_p2_sbr-CH2-sbrN=O/rmg_rxn_606_p2_sbr-CH2-sbrN=O.yml

>  <frequencies_cm1>  (4) 
[458.37813709531997, 701.3458116875601, 834.5447259396, 1127.25684218992, 1261.9046903444798, 1486.4825782497596, 1744.7430291496398, 3101.34344705692, 3245.26172539348]

>  <ZPE_kJmol>  (4) 
83.50690918001081

>  <E_elec_kJmol>  (4) 
-444209.3767661615

>  <E0_minus_Eelec_plus_ZPE_kJmol>  (4) 
0.0

>  <rxn>  (4) 
rmg_rxn_606

>  <species_type>  (4) 
p1

>  <species_folder>  (4) 
rmg_rxn_606_p2_sbr-CH2-sbrN=O

>  <frequencies_cm1_list>  (4) 
[458.37813709531997, 701.3458116875601, 834.5447259396, 1127.25684218992, 1261.9046903444798, 1486.4825782497596, 1744.7430291496398, 3101.34344705692, 3245.26172539348]

>  <E0_kJmol>  (4) 
-444126

>  <H298_kJmol>  (4) 
-444115

$$$$

     RDKit          3D

  4  3  0  0  0  0  0  0  0  0999 V2000
    1.2191   -0.0447   -0.0369 N   0  0  0  0  0  1  0  0  0  1  0  0
   -0.0876   -0.0060    0.2202 N   0  0  0  0  0  0  0  0  0  2  0  0
   -0.5966   -0.8143   -0.1273 H   0  0  0  0  0  0  0  0  0  3  0  0
   -0.5329    0.8649   -0.0563 H   0  0  0  0  0  0  0  0  0  4  0  0
  1  2  1  0
  2  4  1  0
  2  3  1  0
M  RAD  1   1   3
M  END
>  <rmg_smiles>  (5) 
[N]N

>  <rmg_adjacency_list>  (5) 
multiplicity 3
1 N u0 p1 c0 {2,S} {3,S} {4,S}
2 N u2 p2 c0 {1,S}
3 H u0 p0 c0 {1,S}
4 H u0 p0 c0 {1,S}


>  <multiplicity>  (5) 
3

>  <reaction>  (5) 
rmg_rxn_606

>  <type>  (5) 
r2

>  <role_mapnums>  (5) 
{}

>  <role_mapidx>  (5) 
{}

>  <ordered_mapped_smiles>  (5) 
[N:1][N:2]([H:3])[H:4]

>  <level_of_theory>  (5) 
wb97xd/def2tzvp

>  <lot_method>  (5) 
wb97xd

>  <lot_basis>  (5) 
def2tzvp

>  <spin_multiplicity>  (5) 
3.0

>  <optical_isomers>  (5) 
1.0

>  <modes>  (5) 
IdealGasTranslation(mass=(30.0218, 'amu')),         NonlinearRotor(             inertia = ([1.67933, 14.8983, 16.0702

>  <frequency_value>  (5) 
unknown

>  <frequency_units>  (5) 
unknown

>  <frequency_list>  (5) 
unknown

>  <arkane_path>  (5) 
/home/calvin/Dropbox/PersonalFolders/Calvin/ATLAS_Converged/rmg_rxn_606/output/Species/rmg_rxn_606_r1_sbr-N-sbrN/arkane/output.py

>  <path_exists>  (5) 
True

>  <E0_value>  (5) 
-290291.658875472

>  <E0_units>  (5) 
kJ/mol

>  <thermo_class>  (5) 
NASA

>  <Cp0_value>  (5) 
33.257888

>  <Cp0_units>  (5) 
J/(mol*K)

>  <CpInf_value>  (5) 
83.14472

>  <CpInf_units>  (5) 
J/(mol*K)

>  <Tmin_value>  (5) 
10.0

>  <Tmin_units>  (5) 
K

>  <Tmax_value>  (5) 
3000.0

>  <Tmax_units>  (5) 
K

>  <polynomials>  (5) 
[{"name": "polynomial1", "class": "NASAPolynomial", "Tmin_value": 10.0, "Tmin_units": "K", "Tmax_value": 665.6119573607981, "Tmax_units": "K", "coeffs": [4.047267123950612, -0.0035112205795783526, 2.9209038912273934e-05, -3.950927572732792e-08, 1.778588065042579e-11, -34914022.810182706, 5.313683473131262]}, {"name": "polynomial2", "class": "NASAPolynomial", "Tmin_value": 665.6119573607981, "Tmin_units": "K", "Tmax_value": 3000.0, "Tmax_units": "K", "coeffs": [2.5909426252403573, 0.008335164579484087, -4.461429138664964e-06, 1.1994618608209155e-09, -1.2757979590043561e-13, -34913897.49207891, 11.231863346789027]}]

>  <H298_value>  (5) 
-69378.91233580558

>  <H298_units>  (5) 
kcal/mol

>  <S298_value>  (5) 
56.254805565389056

>  <S298_units>  (5) 
cal/(mol*K)

>  <Cp_T_value_list>  (5) 
[9.339929456908315, 10.418824356350346, 11.459970768776328, 12.374007707406347, 13.842140108996867, 14.976701287129353, 16.807365327729478, 17.825189417534663, 18.373860556614055]

>  <Cp_T_units>  (5) 
cal/(mol*K)

>  <T_list>  (5) 
[300.0, 400.0, 500.0, 600.0, 800.0, 1000.0, 1500.0, 2000.0, 2400.0]

>  <T_units>  (5) 
K

>  <yaml_path>  (5) 
/home/calvin/Dropbox/PersonalFolders/Calvin/ATLAS_Converged/rmg_rxn_606/output/Species/rmg_rxn_606_r1_sbr-N-sbrN/rmg_rxn_606_r1_sbr-N-sbrN.yml

>  <frequencies_cm1>  (5) 
[723.4575044179599, 1085.5811082828398, 1237.95951253364, 1573.04092820836, 3402.19980789676, 3509.68872911072]

>  <ZPE_kJmol>  (5) 
68.97626445458796

>  <E_elec_kJmol>  (5) 
-290360.63513992657

>  <E0_minus_Eelec_plus_ZPE_kJmol>  (5) 
0.0

>  <rxn>  (5) 
rmg_rxn_606

>  <species_type>  (5) 
r0

>  <species_folder>  (5) 
rmg_rxn_606_r1_sbr-N-sbrN

>  <frequencies_cm1_list>  (5) 
[723.4575044179599, 1085.5811082828398, 1237.95951253364, 1573.04092820836, 3402.19980789676, 3509.68872911072]

>  <E0_kJmol>  (5) 
-290292

>  <H298_kJmol>  (5) 
-290281

$$$$
