
     RDKit          3D

 12 11  0  0  0  0  0  0  0  0999 V2000
    1.0420    1.3489    0.0776 C   0  0  0  0  0  0  0  0  0  1  0  0
   -0.5490    0.6426    0.3726 S   0  0  0  0  0  0  0  0  0  2  0  0
   -0.1728   -1.1239    0.2818 C   0  0  0  0  0  0  0  0  0  3  0  0
    0.2011   -1.6298   -1.1017 C   0  0  0  0  0  0  0  0  0  4  0  0
    1.3156    1.3459   -0.9768 H   0  0  0  0  0  0  0  0  0  5  0  0
    1.8496    0.8313    0.5957 H   0  0  0  0  0  0  0  0  0  6  0  0
    1.0215    2.4071    0.3306 H   0  0  0  0  0  0  0  0  0  7  0  0
   -1.0783   -1.6166    0.6393 H   0  0  0  0  0  0  0  0  0  8  0  0
    0.6178   -1.3400    1.0037 H   0  0  0  0  0  0  0  0  0  9  0  0
    1.1019   -1.1389   -1.4706 H   0  0  0  0  0  0  0  0  0 10  0  0
   -0.6025   -1.4427   -1.8147 H   0  0  0  0  0  0  0  0  0 11  0  0
    0.3917   -2.7051   -1.0723 H   0  0  0  0  0  0  0  0  0 12  0  0
  1  5  1  0
  1  7  1  0
  1  2  1  0
  1  6  1  0
  2  3  1  0
  3  4  1  0
  3  9  1  0
  3  8  1  0
  4 12  1  0
  4 10  1  0
  4 11  1  0
M  END
>  <rmg_smiles>  (1) 
CSCC

>  <rmg_adjacency_list>  (1) 
1  S u0 p2 c0 {2,S} {4,S}
2  C u0 p0 c0 {1,S} {3,S} {5,S} {6,S}
3  C u0 p0 c0 {2,S} {7,S} {8,S} {9,S}
4  C u0 p0 c0 {1,S} {10,S} {11,S} {12,S}
5  H u0 p0 c0 {2,S}
6  H u0 p0 c0 {2,S}
7  H u0 p0 c0 {3,S}
8  H u0 p0 c0 {3,S}
9  H u0 p0 c0 {3,S}
10 H u0 p0 c0 {4,S}
11 H u0 p0 c0 {4,S}
12 H u0 p0 c0 {4,S}


>  <multiplicity>  (1) 
1

>  <reaction>  (1) 
rmg_rxn_520

>  <type>  (1) 
r1h

>  <role_mapnums>  (1) 
{"r1h_a": 1, "r1h_h": 5}

>  <role_mapidx>  (1) 
{"r1h_a": 0, "r1h_h": 4}

>  <ordered_mapped_smiles>  (1) 
[C:1]([S:2][C:3]([C:4]([H:10])([H:11])[H:12])([H:8])[H:9])([H:5])([H:6])[H:7]

>  <mol_properties>  (1) 
{"0": {"label": "donator", "atom_type": "Cs"}, "4": {"label": "d_hydrogen", "atom_type": "H0"}}

>  <level_of_theory>  (1) 
wb97xd/def2tzvp

>  <lot_method>  (1) 
wb97xd

>  <lot_basis>  (1) 
def2tzvp

>  <spin_multiplicity>  (1) 
1.0

>  <optical_isomers>  (1) 
2.0

>  <modes>  (1) 
IdealGasTranslation(mass=(76.0347, 'amu')),         NonlinearRotor(             inertia = ([52.0964, 128.386, 157.856

>  <frequency_value>  (1) 
unknown

>  <frequency_units>  (1) 
unknown

>  <frequency_list>  (1) 
unknown

>  <arkane_path>  (1) 
/home/calvin/Dropbox/PersonalFolders/Calvin/ATLAS_Converged/rmg_rxn_520/output/Species/rmg_rxn_520_r1_CSCC/arkane/output.py

>  <path_exists>  (1) 
True

>  <E0_value>  (1) 
-1358024.3823847063

>  <E0_units>  (1) 
kJ/mol

>  <thermo_class>  (1) 
NASA

>  <Cp0_value>  (1) 
33.257888

>  <Cp0_units>  (1) 
J/(mol*K)

>  <CpInf_value>  (1) 
282.692048

>  <CpInf_units>  (1) 
J/(mol*K)

>  <Tmin_value>  (1) 
10.0

>  <Tmin_units>  (1) 
K

>  <Tmax_value>  (1) 
3000.0

>  <Tmax_units>  (1) 
K

>  <polynomials>  (1) 
[{"name": "polynomial1", "class": "NASAPolynomial", "Tmin_value": 10.0, "Tmin_units": "K", "Tmax_value": 1066.2668684701744, "Tmax_units": "K", "coeffs": [3.7938912313276787, 0.023010100947195324, 1.342493384076101e-05, -2.4396686231991315e-08, 8.539069834136729e-12, -163332607.1869712, 10.299389825114616]}, {"name": "polynomial2", "class": "NASAPolynomial", "Tmin_value": 1066.2668684701744, "Tmin_units": "K", "Tmax_value": 3000.0, "Tmax_units": "K", "coeffs": [3.879217425430389, 0.03360306179863777, -1.6829239210706833e-05, 4.118007320046649e-09, -3.971168214124496e-13, -163333245.74928793, 6.973208429713539]}]

>  <H298_value>  (1) 
-324571.19408104627

>  <H298_units>  (1) 
kcal/mol

>  <S298_value>  (1) 
77.83544863665438

>  <S298_units>  (1) 
cal/(mol*K)

>  <Cp_T_value_list>  (1) 
[22.486476604271342, 27.42967621467206, 32.072084622248504, 36.30607837304303, 43.32195482949402, 48.43082491651662, 56.2496539809613, 60.32875481300712, 62.28322095230064]

>  <Cp_T_units>  (1) 
cal/(mol*K)

>  <T_list>  (1) 
[300.0, 400.0, 500.0, 600.0, 800.0, 1000.0, 1500.0, 2000.0, 2400.0]

>  <T_units>  (1) 
K

>  <yaml_path>  (1) 
/home/calvin/Dropbox/PersonalFolders/Calvin/ATLAS_Converged/rmg_rxn_520/output/Species/rmg_rxn_520_r1_CSCC/rmg_rxn_520_r1_CSCC.yml

>  <frequencies_cm1>  (1) 
[86.86049731268, 173.63172381619998, 227.43455379839997, 277.98929972423997, 356.053188842, 666.01517221616, 740.88591316012, 758.5958683004, 952.29292322164, 966.1504995974, 986.7445885720799, 1060.0221889218, 1079.9089784085197, 1272.4729807519598, 1296.60356716644, 1348.6278479507598, 1400.27444454248, 1452.28499135616, 1457.8541164506798, 1470.393231645, 1480.8997191846001, 1487.8971772256798, 3015.3687908505194, 3018.78854953988, 3025.31218559388, 3073.71756511456, 3086.881575973, 3099.52369594712, 3104.7151368490404, 3118.41477256244]

>  <ZPE_kJmol>  (1) 
272.4054138316235

>  <E_elec_kJmol>  (1) 
-1358296.787798538

>  <E0_minus_Eelec_plus_ZPE_kJmol>  (1) 
0.0

>  <rxn>  (1) 
rmg_rxn_520

>  <species_type>  (1) 
r0

>  <species_folder>  (1) 
rmg_rxn_520_r1_CSCC

>  <frequencies_cm1_list>  (1) 
[86.86049731268, 173.63172381619998, 227.43455379839997, 277.98929972423997, 356.053188842, 666.01517221616, 740.88591316012, 758.5958683004, 952.29292322164, 966.1504995974, 986.7445885720799, 1060.0221889218, 1079.9089784085197, 1272.4729807519598, 1296.60356716644, 1348.6278479507598, 1400.27444454248, 1452.28499135616, 1457.8541164506798, 1470.393231645, 1480.8997191846001, 1487.8971772256798, 3015.3687908505194, 3018.78854953988, 3025.31218559388, 3073.71756511456, 3086.881575973, 3099.52369594712, 3104.7151368490404, 3118.41477256244]

>  <E0_kJmol>  (1) 
-1.35802e+06

>  <H298_kJmol>  (1) 
-1.35801e+06

$$$$

     RDKit          3D

 14 13  0  0  0  0  0  0  0  0999 V2000
    1.0565   -0.2492    2.5003 H   0  0  0  0  0  0  0  0  0  1  0  0
    1.2866   -0.1702    1.4382 C   0  0  0  0  0  0  0  0  0  2  0  0
   -0.0433   -0.0403    0.7500 C   0  0  0  0  0  0  0  0  0  3  0  0
    0.0638    0.0422   -0.7748 C   0  0  0  0  0  0  0  0  0  4  0  0
   -1.2943    0.1708   -1.4523 C   0  0  0  0  0  0  0  0  0  5  0  0
    1.9272    0.7091    1.3810 H   0  0  0  0  0  0  0  0  0  6  0  0
    1.8365   -1.0843    1.2150 H   0  0  0  0  0  0  0  0  0  7  0  0
   -0.5628    0.8498    1.1198 H   0  0  0  0  0  0  0  0  0  8  0  0
   -0.6790   -0.8904    1.0167 H   0  0  0  0  0  0  0  0  0  9  0  0
    0.6943    0.8946   -1.0452 H   0  0  0  0  0  0  0  0  0 10  0  0
    0.5786   -0.8494   -1.1455 H   0  0  0  0  0  0  0  0  0 11  0  0
   -1.8151    1.0706   -1.1169 H   0  0  0  0  0  0  0  0  0 12  0  0
   -1.9309   -0.6854   -1.2173 H   0  0  0  0  0  0  0  0  0 13  0  0
   -1.1953    0.2264   -2.5376 H   0  0  0  0  0  0  0  0  0 14  0  0
  1  2  1  0
  2  7  1  0
  2  6  1  0
  2  3  1  0
  3  4  1  0
  3  8  1  0
  3  9  1  0
  4  5  1  0
  4 10  1  0
  4 11  1  0
  5 12  1  0
  5 14  1  0
  5 13  1  0
M  END
>  <rmg_smiles>  (2) 
CCCC

>  <rmg_adjacency_list>  (2) 
1  C u0 p0 c0 {2,S} {3,S} {5,S} {6,S}
2  C u0 p0 c0 {1,S} {4,S} {7,S} {8,S}
3  C u0 p0 c0 {1,S} {9,S} {10,S} {11,S}
4  C u0 p0 c0 {2,S} {12,S} {13,S} {14,S}
5  H u0 p0 c0 {1,S}
6  H u0 p0 c0 {1,S}
7  H u0 p0 c0 {2,S}
8  H u0 p0 c0 {2,S}
9  H u0 p0 c0 {3,S}
10 H u0 p0 c0 {3,S}
11 H u0 p0 c0 {3,S}
12 H u0 p0 c0 {4,S}
13 H u0 p0 c0 {4,S}
14 H u0 p0 c0 {4,S}


>  <multiplicity>  (2) 
1

>  <reaction>  (2) 
rmg_rxn_520

>  <type>  (2) 
r2h

>  <role_mapnums>  (2) 
{"r2h_a": 2, "r2h_h": 1}

>  <role_mapidx>  (2) 
{"r2h_a": 1, "r2h_h": 0}

>  <ordered_mapped_smiles>  (2) 
[H:1][C:2]([C:3]([C:4]([C:5]([H:12])([H:13])[H:14])([H:10])[H:11])([H:8])[H:9])([H:6])[H:7]

>  <mol_properties>  (2) 
{"0": {"label": "a_hydrogen", "atom_type": "H0"}, "1": {"label": "acceptor", "atom_type": "Cs"}}

>  <level_of_theory>  (2) 
wb97xd/def2tzvp

>  <lot_method>  (2) 
wb97xd

>  <lot_basis>  (2) 
def2tzvp

>  <spin_multiplicity>  (2) 
1.0

>  <optical_isomers>  (2) 
1.0

>  <modes>  (2) 
IdealGasTranslation(mass=(58.0782, 'amu')),         NonlinearRotor(             inertia = ([21.4183, 138.436, 147.416

>  <frequency_value>  (2) 
unknown

>  <frequency_units>  (2) 
unknown

>  <frequency_list>  (2) 
unknown

>  <arkane_path>  (2) 
/home/calvin/Dropbox/PersonalFolders/Calvin/ATLAS_Converged/rmg_rxn_520/output/Species/rmg_rxn_520_p2_CCCC/arkane/output.py

>  <path_exists>  (2) 
True

>  <E0_value>  (2) 
-415711.4770347972

>  <E0_units>  (2) 
kJ/mol

>  <thermo_class>  (2) 
NASA

>  <Cp0_value>  (2) 
33.257888

>  <Cp0_units>  (2) 
J/(mol*K)

>  <CpInf_value>  (2) 
332.57888

>  <CpInf_units>  (2) 
J/(mol*K)

>  <Tmin_value>  (2) 
10.0

>  <Tmin_units>  (2) 
K

>  <Tmax_value>  (2) 
3000.0

>  <Tmax_units>  (2) 
K

>  <polynomials>  (2) 
[{"name": "polynomial1", "class": "NASAPolynomial", "Tmin_value": 10.0, "Tmin_units": "K", "Tmax_value": 1025.0239672813746, "Tmax_units": "K", "coeffs": [3.915013592071844, 0.015190476507378274, 4.499566831623061e-05, -5.4452087887537436e-08, 1.803189229500368e-11, -49998546.31449076, 7.728184054699678]}, {"name": "polynomial2", "class": "NASAPolynomial", "Tmin_value": 1025.0239672813746, "Tmin_units": "K", "Tmax_value": 3000.0, "Tmax_units": "K", "coeffs": [0.8557434606866323, 0.04413202068529884, -2.2238982520549216e-05, 5.4598853249734095e-09, -5.274578153178241e-13, -49998812.39100051, 18.205832942846666]}]

>  <H298_value>  (2) 
-99353.185245995

>  <H298_units>  (2) 
kcal/mol

>  <S298_value>  (2) 
71.76251802442486

>  <S298_units>  (2) 
cal/(mol*K)

>  <Cp_T_value_list>  (2) 
[22.251980571284225, 28.1531399049666, 33.94079391323614, 39.35269474865459, 48.430242634303475, 55.007789274879656, 65.12656285712895, 70.35428852741721, 72.83851882766015]

>  <Cp_T_units>  (2) 
cal/(mol*K)

>  <T_list>  (2) 
[300.0, 400.0, 500.0, 600.0, 800.0, 1000.0, 1500.0, 2000.0, 2400.0]

>  <T_units>  (2) 
K

>  <yaml_path>  (2) 
/home/calvin/Dropbox/PersonalFolders/Calvin/ATLAS_Converged/rmg_rxn_520/output/Species/rmg_rxn_520_p2_CCCC/rmg_rxn_520_p2_CCCC.yml

>  <frequencies_cm1>  (2) 
[117.85806904715999, 224.50921805207997, 259.37290252171994, 260.8081024536, 427.68957970024, 733.9639919575599, 810.5171443049198, 844.8383369342799, 959.6886664112799, 978.69648177704, 1024.40313606696, 1072.73297874912, 1166.6664709414, 1201.7086970293599, 1282.4438434365998, 1315.46030885516, 1324.99168447932, 1392.23320473276, 1403.41265683372, 1404.42210367576, 1477.30828586224, 1478.9082934418, 1485.02677736192, 1486.84652847172, 1491.0285225316, 1497.33241505536, 2994.3077468740794, 3001.82022881416, 3007.36875295272, 3008.254594059, 3019.68125763148, 3041.7654824206, 3075.78452769588, 3079.10128160544, 3084.83521434764, 3085.5356468502796]

>  <ZPE_kJmol>  (2) 
344.05401570070524

>  <E_elec_kJmol>  (2) 
-416055.5310504979

>  <E0_minus_Eelec_plus_ZPE_kJmol>  (2) 
0.0

>  <rxn>  (2) 
rmg_rxn_520

>  <species_type>  (2) 
p1

>  <species_folder>  (2) 
rmg_rxn_520_p2_CCCC

>  <frequencies_cm1_list>  (2) 
[117.85806904715999, 224.50921805207997, 259.37290252171994, 260.8081024536, 427.68957970024, 733.9639919575599, 810.5171443049198, 844.8383369342799, 959.6886664112799, 978.69648177704, 1024.40313606696, 1072.73297874912, 1166.6664709414, 1201.7086970293599, 1282.4438434365998, 1315.46030885516, 1324.99168447932, 1392.23320473276, 1403.41265683372, 1404.42210367576, 1477.30828586224, 1478.9082934418, 1485.02677736192, 1486.84652847172, 1491.0285225316, 1497.33241505536, 2994.3077468740794, 3001.82022881416, 3007.36875295272, 3008.254594059, 3019.68125763148, 3041.7654824206, 3075.78452769588, 3079.10128160544, 3084.83521434764, 3085.5356468502796]

>  <E0_kJmol>  (2) 
-415711

>  <H298_kJmol>  (2) 
-415694

$$$$

     RDKit          3D

 25 23  0  0  0  0  0  0  0  0999 V2000
    0.8117    0.6412    1.7152 C   0  0  0  0  0  0  0  0  0  1  0  0
   -0.7793   -0.0651    2.0103 S   0  0  0  0  0  0  0  0  0  2  0  0
   -0.4031   -1.8317    1.9194 C   0  0  0  0  0  0  0  0  0  3  0  0
   -0.0292   -2.3376    0.5360 C   0  0  0  0  0  0  0  0  0  4  0  0
    1.1413    0.6376    0.4452 H   0  0  0  0  0  0  0  0  0  5  0  0
    1.6193    0.1235    2.2333 H   0  0  0  0  0  0  0  0  0  6  0  0
    0.7912    1.6994    1.9683 H   0  0  0  0  0  0  0  0  0  7  0  0
   -1.3086   -2.3244    2.2770 H   0  0  0  0  0  0  0  0  0  8  0  0
    0.3875   -2.0478    2.6413 H   0  0  0  0  0  0  0  0  0  9  0  0
    0.8717   -1.8467    0.1671 H   0  0  0  0  0  0  0  0  0 10  0  0
   -0.8328   -2.1504   -0.1770 H   0  0  0  0  0  0  0  0  0 11  0  0
    0.1614   -3.4128    0.5654 H   0  0  0  0  0  0  0  0  0 12  0  0
    1.4347    0.7383   -0.9093 C   0  0  0  0  0  3  0  0  0 13  0  0
    0.1048    0.8682   -1.5975 C   0  0  0  0  0  0  0  0  0 14  0  0
    0.2119    0.9507   -3.1223 C   0  0  0  0  0  0  0  0  0 15  0  0
   -1.1462    1.0793   -3.7997 C   0  0  0  0  0  0  0  0  0 16  0  0
    2.0753    1.6175   -0.9665 H   0  0  0  0  0  0  0  0  0 17  0  0
    1.9846   -0.1758   -1.1324 H   0  0  0  0  0  0  0  0  0 18  0  0
   -0.4147    1.7583   -1.2277 H   0  0  0  0  0  0  0  0  0 19  0  0
   -0.5309    0.0181   -1.3308 H   0  0  0  0  0  0  0  0  0 20  0  0
    0.8424    1.8031   -3.3926 H   0  0  0  0  0  0  0  0  0 21  0  0
    0.7267    0.0591   -3.4929 H   0  0  0  0  0  0  0  0  0 22  0  0
   -1.6670    1.9791   -3.4644 H   0  0  0  0  0  0  0  0  0 23  0  0
   -1.7828    0.2231   -3.5648 H   0  0  0  0  0  0  0  0  0 24  0  0
   -1.0472    1.1349   -4.8851 H   0  0  0  0  0  0  0  0  0 25  0  0
  1  7  1  0
  1  2  1  0
  1  5  1  0
  1  6  1  0
  2  3  1  0
  3  4  1  0
  3  8  1  0
  3  9  1  0
  4 10  1  0
  4 11  1  0
  4 12  1  0
 13 17  1  0
 13 18  1  0
 13 14  1  0
 14 15  1  0
 14 19  1  0
 14 20  1  0
 15 16  1  0
 15 22  1  0
 15 21  1  0
 16 23  1  0
 16 24  1  0
 16 25  1  0
M  RAD  1  13   2
M  END
>  <rmg_smiles>  (3) 
[CH2]CCC.CSCC

>  <rmg_adjacency_list>  (3) 
multiplicity 2
1  S u0 p2 c0 {4,S} {7,S}
2  C u0 p0 c0 {3,S} {5,S} {9,S} {10,S}
3  C u0 p0 c0 {2,S} {8,S} {11,S} {12,S}
4  C u0 p0 c0 {1,S} {6,S} {13,S} {14,S}
5  C u0 p0 c0 {2,S} {18,S} {19,S} {20,S}
6  C u0 p0 c0 {4,S} {15,S} {16,S} {17,S}
7  C u0 p0 c0 {1,S} {21,S} {22,S} {23,S}
8  C u1 p0 c0 {3,S} {24,S} {25,S}
9  H u0 p0 c0 {2,S}
10 H u0 p0 c0 {2,S}
11 H u0 p0 c0 {3,S}
12 H u0 p0 c0 {3,S}
13 H u0 p0 c0 {4,S}
14 H u0 p0 c0 {4,S}
15 H u0 p0 c0 {6,S}
16 H u0 p0 c0 {6,S}
17 H u0 p0 c0 {6,S}
18 H u0 p0 c0 {5,S}
19 H u0 p0 c0 {5,S}
20 H u0 p0 c0 {5,S}
21 H u0 p0 c0 {7,S}
22 H u0 p0 c0 {7,S}
23 H u0 p0 c0 {7,S}
24 H u0 p0 c0 {8,S}
25 H u0 p0 c0 {8,S}


>  <multiplicity>  (3) 
2

>  <reaction>  (3) 
rmg_rxn_520

>  <type>  (3) 
ts

>  <role_mapnums>  (3) 
{"*2": 5, "*1": 1, "*3": 13, "*0": 2, "*4": 14}

>  <role_mapidx>  (3) 
{"*2": 4, "*1": 0, "*3": 12, "*0": 1, "*4": 13}

>  <ordered_mapped_smiles>  (3) 
[C:1]([S:2][C:3]([C:4]([H:10])([H:11])[H:12])([H:8])[H:9])([H:5])([H:6])[H:7].[C:13]([C:14]([C:15]([C:16]([H:23])([H:24])[H:25])([H:21])[H:22])([H:19])[H:20])([H:17])[H:18]

>  <mol_properties>  (3) 
{"0": {"label": "*1", "atom_type": "Cs"}, "1": {"label": "*0", "atom_type": "S2s"}, "4": {"label": "*2", "atom_type": "H0"}, "12": {"label": "*3", "atom_type": "Cs"}, "13": {"label": "*4", "atom_type": "Cs"}}

>  <level_of_theory>  (3) 
wb97xd/def2tzvp

>  <lot_method>  (3) 
wb97xd

>  <lot_basis>  (3) 
def2tzvp

>  <spin_multiplicity>  (3) 
2.0

>  <optical_isomers>  (3) 
2.0

>  <modes>  (3) 
IdealGasTranslation(mass=(133.105, 'amu')),         NonlinearRotor(             inertia = ([222.836, 798.261, 849.305

>  <frequency_value>  (3) 
-1754.52

>  <frequency_units>  (3) 
cm^-1

>  <frequency_list>  (3) 
unknown

>  <arkane_path>  (3) 
/home/calvin/Dropbox/PersonalFolders/Calvin/ATLAS_Converged/rmg_rxn_520/output/rxns/TS0/arkane/output.py

>  <path_exists>  (3) 
True

>  <E0_value>  (3) 
-1771960.0

>  <E0_units>  (3) 
kJ/mol

>  <thermo_class>  (3) 
unknown

>  <Cp0_value>  (3) 
unknown

>  <Cp0_units>  (3) 
unknown

>  <CpInf_value>  (3) 
unknown

>  <CpInf_units>  (3) 
unknown

>  <Tmin_value>  (3) 
unknown

>  <Tmin_units>  (3) 
unknown

>  <Tmax_value>  (3) 
unknown

>  <Tmax_units>  (3) 
unknown

>  <polynomials>  (3) 
unknown

>  <H298_value>  (3) 
unknown

>  <H298_units>  (3) 
unknown

>  <S298_value>  (3) 
unknown

>  <S298_units>  (3) 
unknown

>  <Cp_T_value_list>  (3) 
unknown

>  <Cp_T_units>  (3) 
unknown

>  <T_list>  (3) 
unknown

>  <T_units>  (3) 
unknown

>  <yaml_path>  (3) 
unknown

>  <frequencies_cm1>  (3) 
unknown

>  <ZPE_kJmol>  (3) 
unknown

>  <E_elec_kJmol>  (3) 
unknown

>  <E0_minus_Eelec_plus_ZPE_kJmol>  (3) 
unknown

>  <rxn>  (3) 
unknown

>  <species_type>  (3) 
unknown

>  <species_folder>  (3) 
unknown

>  <frequencies_cm1_list>  (3) 
[]

>  <ts_imag_freq_cm1>  (3) 
-1775.8263

>  <ts_freq_out_path>  (3) 
/home/calvin/Dropbox/PersonalFolders/Calvin/ATLAS_Converged/rmg_rxn_520/output/rxns/TS0/geometry/freq.out

>  <E0_kJmol>  (3) 
-1.77196e+06

>  <H298_kJmol>  (3) 
unknown

$$$$

     RDKit          3D

 11 10  0  0  0  0  0  0  0  0999 V2000
    2.2312    0.7411   -0.3115 C   0  0  0  0  0  3  0  0  0  1  0  0
    0.6426    1.1039   -0.7896 S   0  0  0  0  0  0  0  0  0  2  0  0
    0.9085    2.4168   -2.0061 C   0  0  0  0  0  0  0  0  0  3  0  0
    1.5570    1.9429   -3.2967 C   0  0  0  0  0  0  0  0  0  4  0  0
    2.3707   -0.0938    0.3575 H   0  0  0  0  0  0  0  0  0  5  0  0
    3.0432    1.4267   -0.5066 H   0  0  0  0  0  0  0  0  0  6  0  0
    1.4997    3.2005   -1.5289 H   0  0  0  0  0  0  0  0  0  7  0  0
   -0.0844    2.8269   -2.1951 H   0  0  0  0  0  0  0  0  0  8  0  0
    0.9451    1.1830   -3.7838 H   0  0  0  0  0  0  0  0  0  9  0  0
    1.6803    2.7812   -3.9857 H   0  0  0  0  0  0  0  0  0 10  0  0
    2.5399    1.5119   -3.1043 H   0  0  0  0  0  0  0  0  0 11  0  0
  1  5  1  0
  1  2  1  0
  1  6  1  0
  2  3  1  0
  3  4  1  0
  3  7  1  0
  3  8  1  0
  4  9  1  0
  4 10  1  0
  4 11  1  0
M  RAD  1   1   2
M  END
>  <rmg_smiles>  (4) 
[CH2]SCC

>  <rmg_adjacency_list>  (4) 
multiplicity 2
1  S u0 p2 c0 {2,S} {4,S}
2  C u0 p0 c0 {1,S} {3,S} {5,S} {6,S}
3  C u0 p0 c0 {2,S} {7,S} {8,S} {9,S}
4  C u1 p0 c0 {1,S} {10,S} {11,S}
5  H u0 p0 c0 {2,S}
6  H u0 p0 c0 {2,S}
7  H u0 p0 c0 {3,S}
8  H u0 p0 c0 {3,S}
9  H u0 p0 c0 {3,S}
10 H u0 p0 c0 {4,S}
11 H u0 p0 c0 {4,S}


>  <multiplicity>  (4) 
2

>  <reaction>  (4) 
rmg_rxn_520

>  <type>  (4) 
r1

>  <role_mapnums>  (4) 
{}

>  <role_mapidx>  (4) 
{}

>  <ordered_mapped_smiles>  (4) 
[C:1]([S:2][C:3]([C:4]([H:9])([H:10])[H:11])([H:7])[H:8])([H:5])[H:6]

>  <level_of_theory>  (4) 
wb97xd/def2tzvp

>  <lot_method>  (4) 
wb97xd

>  <lot_basis>  (4) 
def2tzvp

>  <spin_multiplicity>  (4) 
2.0

>  <optical_isomers>  (4) 
2.0

>  <modes>  (4) 
IdealGasTranslation(mass=(75.0268, 'amu')),         NonlinearRotor(             inertia = ([46.1764, 125.175, 150.124

>  <frequency_value>  (4) 
unknown

>  <frequency_units>  (4) 
unknown

>  <frequency_list>  (4) 
unknown

>  <arkane_path>  (4) 
/home/calvin/Dropbox/PersonalFolders/Calvin/ATLAS_Converged/rmg_rxn_520/output/Species/rmg_rxn_520_p1_sbr-CH2-sbrSCC/arkane/output.py

>  <path_exists>  (4) 
True

>  <E0_value>  (4) 
-1356326.828812391

>  <E0_units>  (4) 
kJ/mol

>  <thermo_class>  (4) 
NASA

>  <Cp0_value>  (4) 
33.257888

>  <Cp0_units>  (4) 
J/(mol*K)

>  <CpInf_value>  (4) 
257.748632

>  <CpInf_units>  (4) 
J/(mol*K)

>  <Tmin_value>  (4) 
10.0

>  <Tmin_units>  (4) 
K

>  <Tmax_value>  (4) 
3000.0

>  <Tmax_units>  (4) 
K

>  <polynomials>  (4) 
[{"name": "polynomial1", "class": "NASAPolynomial", "Tmin_value": 10.0, "Tmin_units": "K", "Tmax_value": 163.4983384736605, "Tmax_units": "K", "coeffs": [3.8835361135606306, 0.01179835617528283, 0.0001860962387176214, -8.310788830243038e-07, 1.2781022117046402e-09, -163128450.95392784, 10.667754233192833]}, {"name": "polynomial2", "class": "NASAPolynomial", "Tmin_value": 163.4983384736605, "Tmin_units": "K", "Tmax_value": 3000.0, "Tmax_units": "K", "coeffs": [2.9698107402056713, 0.03415257681811664, -1.8989116425627386e-05, 5.154010868808518e-09, -5.461082436872671e-13, -163128421.07521912, 13.421243662452813]}]

>  <H298_value>  (4) 
-324165.39986954443

>  <H298_units>  (4) 
kcal/mol

>  <S298_value>  (4) 
78.93032022623957

>  <S298_units>  (4) 
cal/(mol*K)

>  <Cp_T_value_list>  (4) 
[23.133663311616047, 27.638980468817827, 31.614348268428742, 35.109498731473295, 40.84505297373627, 45.19140833090281, 51.87260315815638, 55.269883733256364, 57.01130488605395]

>  <Cp_T_units>  (4) 
cal/(mol*K)

>  <T_list>  (4) 
[300.0, 400.0, 500.0, 600.0, 800.0, 1000.0, 1500.0, 2000.0, 2400.0]

>  <T_units>  (4) 
K

>  <yaml_path>  (4) 
/home/calvin/Dropbox/PersonalFolders/Calvin/ATLAS_Converged/rmg_rxn_520/output/Species/rmg_rxn_520_p1_sbr-CH2-sbrSCC/rmg_rxn_520_p1_sbr-CH2-sbrSCC.yml

>  <frequencies_cm1>  (4) 
[110.60653254923999, 205.67307731931996, 220.086879506, 285.94813571012, 367.82320168047994, 369.88329727648, 670.6023184099199, 763.8628460408399, 854.34224461716, 913.1854418242399, 983.7231150312799, 1058.73119568164, 1076.4068158953198, 1269.6918516973599, 1295.3263078969198, 1396.0581155559998, 1402.33454013848, 1458.69188865972, 1476.6353213008802, 1485.0748462591598, 3018.4589342445192, 3035.15257555744, 3083.1459359589203, 3092.3408293024, 3109.00013568872, 3136.8045592493995, 3260.19741846448]

>  <ZPE_kJmol>  (4) 
235.6631361203891

>  <E_elec_kJmol>  (4) 
-1356562.4919485117

>  <E0_minus_Eelec_plus_ZPE_kJmol>  (4) 
0.0

>  <rxn>  (4) 
rmg_rxn_520

>  <species_type>  (4) 
p0

>  <species_folder>  (4) 
rmg_rxn_520_p1_sbr-CH2-sbrSCC

>  <frequencies_cm1_list>  (4) 
[110.60653254923999, 205.67307731931996, 220.086879506, 285.94813571012, 367.82320168047994, 369.88329727648, 670.6023184099199, 763.8628460408399, 854.34224461716, 913.1854418242399, 983.7231150312799, 1058.73119568164, 1076.4068158953198, 1269.6918516973599, 1295.3263078969198, 1396.0581155559998, 1402.33454013848, 1458.69188865972, 1476.6353213008802, 1485.0748462591598, 3018.4589342445192, 3035.15257555744, 3083.1459359589203, 3092.3408293024, 3109.00013568872, 3136.8045592493995, 3260.19741846448]

>  <E0_kJmol>  (4) 
-1.35633e+06

>  <H298_kJmol>  (4) 
-1.35631e+06

$$$$

     RDKit          3D

 13 12  0  0  0  0  0  0  0  0999 V2000
    2.0654   -0.2739   -0.0844 C   0  0  0  0  0  3  0  0  0  1  0  0
    0.6326   -0.4110   -0.4406 C   0  0  0  0  0  0  0  0  0  2  0  0
   -0.3055    0.4151    0.4359 C   0  0  0  0  0  0  0  0  0  3  0  0
   -1.7714    0.2357    0.0671 C   0  0  0  0  0  0  0  0  0  4  0  0
    2.3610    0.0676    0.8995 H   0  0  0  0  0  0  0  0  0  5  0  0
    2.8408   -0.6127   -0.7582 H   0  0  0  0  0  0  0  0  0  6  0  0
    0.3313   -1.4695   -0.3768 H   0  0  0  0  0  0  0  0  0  7  0  0
    0.4826   -0.1432   -1.4940 H   0  0  0  0  0  0  0  0  0  8  0  0
   -0.1518    0.1351    1.4826 H   0  0  0  0  0  0  0  0  0  9  0  0
   -0.0303    1.4705    0.3565 H   0  0  0  0  0  0  0  0  0 10  0  0
   -2.0768   -0.8084    0.1692 H   0  0  0  0  0  0  0  0  0 11  0  0
   -1.9546    0.5339   -0.9679 H   0  0  0  0  0  0  0  0  0 12  0  0
   -2.4194    0.8370    0.7066 H   0  0  0  0  0  0  0  0  0 13  0  0
  1  5  1  0
  1  6  1  0
  1  2  1  0
  2  8  1  0
  2  7  1  0
  2  3  1  0
  3  4  1  0
  3  9  1  0
  3 10  1  0
  4 13  1  0
  4 12  1  0
  4 11  1  0
M  RAD  1   1   2
M  END
>  <rmg_smiles>  (5) 
[CH2]CCC

>  <rmg_adjacency_list>  (5) 
multiplicity 2
1  C u0 p0 c0 {2,S} {3,S} {5,S} {6,S}
2  C u0 p0 c0 {1,S} {4,S} {7,S} {8,S}
3  C u0 p0 c0 {1,S} {9,S} {10,S} {11,S}
4  C u1 p0 c0 {2,S} {12,S} {13,S}
5  H u0 p0 c0 {1,S}
6  H u0 p0 c0 {1,S}
7  H u0 p0 c0 {2,S}
8  H u0 p0 c0 {2,S}
9  H u0 p0 c0 {3,S}
10 H u0 p0 c0 {3,S}
11 H u0 p0 c0 {3,S}
12 H u0 p0 c0 {4,S}
13 H u0 p0 c0 {4,S}


>  <multiplicity>  (5) 
2

>  <reaction>  (5) 
rmg_rxn_520

>  <type>  (5) 
r2

>  <role_mapnums>  (5) 
{}

>  <role_mapidx>  (5) 
{}

>  <ordered_mapped_smiles>  (5) 
[C:1]([C:2]([C:3]([C:4]([H:11])([H:12])[H:13])([H:9])[H:10])([H:7])[H:8])([H:5])[H:6]

>  <level_of_theory>  (5) 
wb97xd/def2tzvp

>  <lot_method>  (5) 
wb97xd

>  <lot_basis>  (5) 
def2tzvp

>  <spin_multiplicity>  (5) 
2.0

>  <optical_isomers>  (5) 
2.0

>  <modes>  (5) 
IdealGasTranslation(mass=(57.0704, 'amu')),         NonlinearRotor(             inertia = ([19.9061, 131.501, 141.822

>  <frequency_value>  (5) 
unknown

>  <frequency_units>  (5) 
unknown

>  <frequency_list>  (5) 
unknown

>  <arkane_path>  (5) 
/home/calvin/Dropbox/PersonalFolders/Calvin/ATLAS_Converged/rmg_rxn_520/output/Species/rmg_rxn_520_r2_sbr-CH2-sbrCCC/arkane/output.py

>  <path_exists>  (5) 
True

>  <E0_value>  (5) 
-413980.515065041

>  <E0_units>  (5) 
kJ/mol

>  <thermo_class>  (5) 
NASA

>  <Cp0_value>  (5) 
33.257888

>  <Cp0_units>  (5) 
J/(mol*K)

>  <CpInf_value>  (5) 
307.635464

>  <CpInf_units>  (5) 
J/(mol*K)

>  <Tmin_value>  (5) 
10.0

>  <Tmin_units>  (5) 
K

>  <Tmax_value>  (5) 
3000.0

>  <Tmax_units>  (5) 
K

>  <polynomials>  (5) 
[{"name": "polynomial1", "class": "NASAPolynomial", "Tmin_value": 10.0, "Tmin_units": "K", "Tmax_value": 1154.93799035051, "Tmax_units": "K", "coeffs": [3.8608583449208367, 0.02312895427514024, 1.718157563784362e-05, -2.653261595233422e-08, 8.598323666501713e-12, -49790358.451797806, 9.98302976614612]}, {"name": "polynomial2", "class": "NASAPolynomial", "Tmin_value": 1154.93799035051, "Tmin_units": "K", "Tmax_value": 3000.0, "Tmax_units": "K", "coeffs": [5.006671859828862, 0.03390757519761412, -1.5970386346220703e-05, 3.659460065945614e-09, -3.3024942479245143e-13, -49791606.659514256, 0.032118084025620754]}]

>  <H298_value>  (5) 
-98939.19157782634

>  <H298_units>  (5) 
kcal/mol

>  <S298_value>  (5) 
78.32957530726806

>  <S298_units>  (5) 
cal/(mol*K)

>  <Cp_T_value_list>  (5) 
[23.248631358892137, 28.583028071211853, 33.66635358076252, 38.36678892872091, 46.296753040816824, 52.13852768190894, 60.835257561392275, 65.44261811889302, 67.61851586744878]

>  <Cp_T_units>  (5) 
cal/(mol*K)

>  <T_list>  (5) 
[300.0, 400.0, 500.0, 600.0, 800.0, 1000.0, 1500.0, 2000.0, 2400.0]

>  <T_units>  (5) 
K

>  <yaml_path>  (5) 
/home/calvin/Dropbox/PersonalFolders/Calvin/ATLAS_Converged/rmg_rxn_520/output/Species/rmg_rxn_520_r2_sbr-CH2-sbrCCC/rmg_rxn_520_r2_sbr-CH2-sbrCCC.yml

>  <frequencies_cm1>  (5) 
[73.35313718823998, 132.16886645403997, 238.64147384063997, 264.99696349879997, 431.39775177304, 467.79277396904, 728.50473862816, 827.3275243682799, 860.37832471344, 963.38310451344, 1040.3208080387199, 1067.46600100868, 1094.96141022996, 1160.5617209919199, 1239.42904739212, 1306.10747484932, 1314.7118074552798, 1388.4151608948398, 1404.06502043912, 1451.2686775288, 1453.0952956239198, 1480.39842925624, 1485.157250083, 1493.0199482744, 2921.4421656435597, 2989.1849758253597, 3008.40566773604, 3009.2159720037994, 3044.3474689009204, 3079.04634572288, 3088.11076634528, 3121.2096355876797, 3223.96720391616]

>  <ZPE_kJmol>  (5) 
304.16171338229066

>  <E_elec_kJmol>  (5) 
-414284.6767784233

>  <E0_minus_Eelec_plus_ZPE_kJmol>  (5) 
0.0

>  <rxn>  (5) 
rmg_rxn_520

>  <species_type>  (5) 
r1

>  <species_folder>  (5) 
rmg_rxn_520_r2_sbr-CH2-sbrCCC

>  <frequencies_cm1_list>  (5) 
[73.35313718823998, 132.16886645403997, 238.64147384063997, 264.99696349879997, 431.39775177304, 467.79277396904, 728.50473862816, 827.3275243682799, 860.37832471344, 963.38310451344, 1040.3208080387199, 1067.46600100868, 1094.96141022996, 1160.5617209919199, 1239.42904739212, 1306.10747484932, 1314.7118074552798, 1388.4151608948398, 1404.06502043912, 1451.2686775288, 1453.0952956239198, 1480.39842925624, 1485.157250083, 1493.0199482744, 2921.4421656435597, 2989.1849758253597, 3008.40566773604, 3009.2159720037994, 3044.3474689009204, 3079.04634572288, 3088.11076634528, 3121.2096355876797, 3223.96720391616]

>  <E0_kJmol>  (5) 
-413981

>  <H298_kJmol>  (5) 
-413962

$$$$
