
     RDKit          3D

  5  4  0  0  0  0  0  0  0  0999 V2000
    0.1191   -0.2780   -1.0432 N   0  0  0  0  0  0  0  0  0  1  0  0
   -0.1244   -0.3822    0.2108 N   0  0  0  0  0  0  0  0  0  2  0  0
    0.0115    0.5866    0.9254 O   0  0  0  0  0  0  0  0  0  3  0  0
    0.0897    0.6557   -1.4381 H   0  0  0  0  0  0  0  0  0  4  0  0
   -0.1877   -1.0990   -1.5535 H   0  0  0  0  0  0  0  0  0  5  0  0
  1  5  1  0
  1  2  1  0
  1  4  1  0
  2  3  1  0
M  END
>  <rmg_smiles>  (1) 
N[N][O]

>  <rmg_adjacency_list>  (1) 
1 O u0 p2 c0 {3,S}
2 N u0 p1 c0 {3,S} {4,S} {5,S}
3 N u0 p1 c0 {1,S} {2,S}
4 H u0 p0 c0 {2,S}
5 H u0 p0 c0 {2,S}


>  <multiplicity>  (1) 
1

>  <reaction>  (1) 
rmg_rxn_1476

>  <type>  (1) 
r1h

>  <role_mapnums>  (1) 
{"r1h_a": 1, "r1h_h": 4}

>  <role_mapidx>  (1) 
{"r1h_a": 0, "r1h_h": 3}

>  <ordered_mapped_smiles>  (1) 
[N:1]([NH:2][OH:3])([H:4])[H:5]

>  <mol_properties>  (1) 
{"0": {"label": "donator", "atom_type": "N3s"}, "3": {"label": "d_hydrogen", "atom_type": "H0"}}

>  <level_of_theory>  (1) 
wb97xd/def2tzvp

>  <lot_method>  (1) 
wb97xd

>  <lot_basis>  (1) 
def2tzvp

>  <spin_multiplicity>  (1) 
1.0

>  <optical_isomers>  (1) 
1.0

>  <modes>  (1) 
IdealGasTranslation(mass=(46.0167, 'amu')),         NonlinearRotor(             inertia = ([6.03621, 38.6456, 44.6818

>  <frequency_value>  (1) 
unknown

>  <frequency_units>  (1) 
unknown

>  <frequency_list>  (1) 
unknown

>  <arkane_path>  (1) 
/home/calvin/Dropbox/PersonalFolders/Calvin/ATLAS_Converged/rmg_rxn_1476/output/Species/rmg_rxn_1476_r1_NN=O/arkane/output.py

>  <path_exists>  (1) 
True

>  <E0_value>  (1) 
-487909.5710036975

>  <E0_units>  (1) 
kJ/mol

>  <thermo_class>  (1) 
NASA

>  <Cp0_value>  (1) 
33.257888

>  <Cp0_units>  (1) 
J/(mol*K)

>  <CpInf_value>  (1) 
108.088136

>  <CpInf_units>  (1) 
J/(mol*K)

>  <Tmin_value>  (1) 
10.0

>  <Tmin_units>  (1) 
K

>  <Tmax_value>  (1) 
3000.0

>  <Tmax_units>  (1) 
K

>  <polynomials>  (1) 
[{"name": "polynomial1", "class": "NASAPolynomial", "Tmin_value": 10.0, "Tmin_units": "K", "Tmax_value": 491.3889412835894, "Tmax_units": "K", "coeffs": [3.982254985154104, 0.001109066907410209, 3.807622400219672e-05, -7.34801373598144e-08, 4.5205197130692525e-11, -58681966.3266894, 6.4941530339393]}, {"name": "polynomial2", "class": "NASAPolynomial", "Tmin_value": 491.3889412835894, "Tmin_units": "K", "Tmax_value": 3000.0, "Tmax_units": "K", "coeffs": [2.9404368052929843, 0.012865713030583807, -7.812149749761828e-06, 2.344037732853415e-09, -2.738787635374175e-13, -58681903.491322435, 10.377638282690032]}]

>  <H298_value>  (1) 
-116610.30707517578

>  <H298_units>  (1) 
kcal/mol

>  <S298_value>  (1) 
60.89503268429048

>  <S298_units>  (1) 
cal/(mol*K)

>  <Cp_T_value_list>  (1) 
[12.16971939315822, 13.855999712949458, 15.293825753682395, 16.530196084841165, 18.5231451978899, 19.99956230160783, 22.22945931121974, 23.436130825769936, 24.119725013813046]

>  <Cp_T_units>  (1) 
cal/(mol*K)

>  <T_list>  (1) 
[300.0, 400.0, 500.0, 600.0, 800.0, 1000.0, 1500.0, 2000.0, 2400.0]

>  <T_units>  (1) 
K

>  <yaml_path>  (1) 
/home/calvin/Dropbox/PersonalFolders/Calvin/ATLAS_Converged/rmg_rxn_1476/output/Species/rmg_rxn_1476_r1_NN=O/rmg_rxn_1476_r1_NN=O.yml

>  <frequencies_cm1>  (1) 
[224.96930606852, 638.8425113049199, 713.1638934232799, 1118.09628377304, 1228.5792105865198, 1578.89846668632, 1626.84375819056, 3477.7435134020793, 3702.4793419697194]

>  <ZPE_kJmol>  (1) 
85.59053717638125

>  <E_elec_kJmol>  (1) 
-487995.1615408739

>  <E0_minus_Eelec_plus_ZPE_kJmol>  (1) 
0.0

>  <rxn>  (1) 
rmg_rxn_1476

>  <species_type>  (1) 
r0

>  <species_folder>  (1) 
rmg_rxn_1476_r1_NN=O

>  <frequencies_cm1_list>  (1) 
[224.96930606852, 638.8425113049199, 713.1638934232799, 1118.09628377304, 1228.5792105865198, 1578.89846668632, 1626.84375819056, 3477.7435134020793, 3702.4793419697194]

>  <E0_kJmol>  (1) 
-487910

>  <H298_kJmol>  (1) 
-487898

$$$$

     RDKit          3D

 18 17  0  0  0  0  0  0  0  0999 V2000
   -0.9081   -1.3839    0.4723 H   0  0  0  0  0  0  0  0  0  1  0  0
   -0.1905   -1.3198   -2.1657 C   0  0  0  0  0  0  0  0  0  2  0  0
   -1.2992   -0.5933   -1.4140 C   0  0  0  0  0  0  0  0  0  3  0  0
   -0.9968   -0.3774    0.0466 C   0  0  0  0  0  0  0  0  0  4  0  0
    0.1881    0.2629    0.2447 O   0  0  0  0  0  0  0  0  0  5  0  0
    0.4130    0.7250    1.5702 C   0  0  0  0  0  0  0  0  0  6  0  0
    1.8025    1.3070    1.6488 C   0  0  0  0  0  0  0  0  0  7  0  0
    0.0035   -2.3016   -1.7285 H   0  0  0  0  0  0  0  0  0  8  0  0
   -0.4632   -1.4635   -3.2116 H   0  0  0  0  0  0  0  0  0  9  0  0
    0.7390   -0.7525   -2.1297 H   0  0  0  0  0  0  0  0  0 10  0  0
   -1.4844    0.3817   -1.8782 H   0  0  0  0  0  0  0  0  0 11  0  0
   -2.2360   -1.1527   -1.4796 H   0  0  0  0  0  0  0  0  0 12  0  0
   -1.8236    0.0503    0.6260 H   0  0  0  0  0  0  0  0  0 13  0  0
   -0.3457    1.4781    1.8150 H   0  0  0  0  0  0  0  0  0 14  0  0
    0.2833   -0.1139    2.2628 H   0  0  0  0  0  0  0  0  0 15  0  0
    1.9186    2.1372    0.9511 H   0  0  0  0  0  0  0  0  0 16  0  0
    1.9907    1.6747    2.6582 H   0  0  0  0  0  0  0  0  0 17  0  0
    2.5500    0.5486    1.4144 H   0  0  0  0  0  0  0  0  0 18  0  0
  1  4  1  0
  2 10  1  0
  2  9  1  0
  2  8  1  0
  2  3  1  0
  3 11  1  0
  3  4  1  0
  3 12  1  0
  4 13  1  0
  4  5  1  0
  5  6  1  0
  6 15  1  0
  6 14  1  0
  6  7  1  0
  7 18  1  0
  7 17  1  0
  7 16  1  0
M  END
>  <rmg_smiles>  (2) 
CCCOCC

>  <rmg_adjacency_list>  (2) 
1  O u0 p2 c0 {3,S} {4,S}
2  C u0 p0 c0 {3,S} {5,S} {7,S} {8,S}
3  C u0 p0 c0 {1,S} {2,S} {9,S} {10,S}
4  C u0 p0 c0 {1,S} {6,S} {11,S} {12,S}
5  C u0 p0 c0 {2,S} {13,S} {14,S} {15,S}
6  C u0 p0 c0 {4,S} {16,S} {17,S} {18,S}
7  H u0 p0 c0 {2,S}
8  H u0 p0 c0 {2,S}
9  H u0 p0 c0 {3,S}
10 H u0 p0 c0 {3,S}
11 H u0 p0 c0 {4,S}
12 H u0 p0 c0 {4,S}
13 H u0 p0 c0 {5,S}
14 H u0 p0 c0 {5,S}
15 H u0 p0 c0 {5,S}
16 H u0 p0 c0 {6,S}
17 H u0 p0 c0 {6,S}
18 H u0 p0 c0 {6,S}


>  <multiplicity>  (2) 
1

>  <reaction>  (2) 
rmg_rxn_1476

>  <type>  (2) 
r2h

>  <role_mapnums>  (2) 
{"r2h_a": 4, "r2h_h": 1}

>  <role_mapidx>  (2) 
{"r2h_a": 3, "r2h_h": 0}

>  <ordered_mapped_smiles>  (2) 
[H:1][C:4]([C:3]([C:2]([H:8])([H:9])[H:10])([H:11])[H:12])([O:5][C:6]([C:7]([H:16])([H:17])[H:18])([H:14])[H:15])[H:13]

>  <mol_properties>  (2) 
{"0": {"label": "a_hydrogen", "atom_type": "H0"}, "3": {"label": "acceptor", "atom_type": "Cs"}}

>  <level_of_theory>  (2) 
wb97xd/def2tzvp

>  <lot_method>  (2) 
wb97xd

>  <lot_basis>  (2) 
def2tzvp

>  <spin_multiplicity>  (2) 
1.0

>  <optical_isomers>  (2) 
2.0

>  <modes>  (2) 
IdealGasTranslation(mass=(88.0888, 'amu')),         NonlinearRotor(             inertia = ([59.5652, 317.445, 349.634

>  <frequency_value>  (2) 
unknown

>  <frequency_units>  (2) 
unknown

>  <frequency_list>  (2) 
unknown

>  <arkane_path>  (2) 
/home/calvin/Dropbox/PersonalFolders/Calvin/ATLAS_Converged/rmg_rxn_1476/output/Species/rmg_rxn_1476_p2_CCCOCC/arkane/output.py

>  <path_exists>  (2) 
True

>  <E0_value>  (2) 
-716327.3605709573

>  <E0_units>  (2) 
kJ/mol

>  <thermo_class>  (2) 
NASA

>  <Cp0_value>  (2) 
33.257888

>  <Cp0_units>  (2) 
J/(mol*K)

>  <CpInf_value>  (2) 
432.352544

>  <CpInf_units>  (2) 
J/(mol*K)

>  <Tmin_value>  (2) 
10.0

>  <Tmin_units>  (2) 
K

>  <Tmax_value>  (2) 
3000.0

>  <Tmax_units>  (2) 
K

>  <polynomials>  (2) 
[{"name": "polynomial1", "class": "NASAPolynomial", "Tmin_value": 10.0, "Tmin_units": "K", "Tmax_value": 424.14701041358796, "Tmax_units": "K", "coeffs": [3.4707042336928127, 0.05746545203879795, -0.00016719847115372115, 4.780470157694204e-07, -4.3347206706639054e-10, -86154279.58985142, 11.635447004604476]}, {"name": "polynomial2", "class": "NASAPolynomial", "Tmin_value": 424.14701041358796, "Tmin_units": "K", "Tmax_value": 3000.0, "Tmax_units": "K", "coeffs": [-2.8535624465972114, 0.06921008708460846, -3.934323609424939e-05, 1.0841890934368647e-08, -1.163418506360095e-12, -86153312.26572455, 41.80111524234505]}]

>  <H298_value>  (2) 
-171200.6815246165

>  <H298_units>  (2) 
kcal/mol

>  <S298_value>  (2) 
88.37399878129293

>  <S298_units>  (2) 
cal/(mol*K)

>  <Cp_T_value_list>  (2) 
[29.924593767526826, 38.16083070533892, 46.09960348181722, 53.05840207682852, 64.40406715451496, 72.91410593462665, 85.72980278110597, 92.03567805993791, 95.21197800865355]

>  <Cp_T_units>  (2) 
cal/(mol*K)

>  <T_list>  (2) 
[300.0, 400.0, 500.0, 600.0, 800.0, 1000.0, 1500.0, 2000.0, 2400.0]

>  <T_units>  (2) 
K

>  <yaml_path>  (2) 
/home/calvin/Dropbox/PersonalFolders/Calvin/ATLAS_Converged/rmg_rxn_1476/output/Species/rmg_rxn_1476_p2_CCCOCC/rmg_rxn_1476_p2_CCCOCC.yml

>  <frequencies_cm1>  (2) 
[76.60808822992, 85.88538539723999, 152.39213822143998, 171.44115549912, 250.05440344247998, 256.05614861216003, 329.51915756551995, 440.0707542322, 493.7774464199199, 767.98990421816, 823.02879155796, 891.3896304185598, 900.4815189822399, 929.41899512072, 1002.9850088538799, 1082.00340893112, 1102.9065122452, 1152.52734816752, 1174.9617892079598, 1182.44680320676, 1190.2339645596398, 1270.1176047871998, 1295.23017010244, 1305.6473868328799, 1368.30176089256, 1380.4425909383199, 1399.7456866728398, 1405.4521514737598, 1443.92787022172, 1468.7794900948002, 1470.37949767436, 1482.5752636026798, 1487.2448136202797, 1494.6336898246, 1500.58049911172, 1519.49904366832, 2928.8997117010795, 2942.5512785172396, 2962.4655359452395, 2968.54281795344, 3015.14904732028, 3021.7276192568397, 3024.0692612509597, 3058.7338031463196, 3085.2403664815197, 3101.8035350733594, 3104.27564978856, 3105.2988306012394]

>  <ZPE_kJmol>  (2) 
431.0594598774012

>  <E_elec_kJmol>  (2) 
-716758.4200308347

>  <E0_minus_Eelec_plus_ZPE_kJmol>  (2) 
0.0

>  <rxn>  (2) 
rmg_rxn_1476

>  <species_type>  (2) 
p1

>  <species_folder>  (2) 
rmg_rxn_1476_p2_CCCOCC

>  <frequencies_cm1_list>  (2) 
[76.60808822992, 85.88538539723999, 152.39213822143998, 171.44115549912, 250.05440344247998, 256.05614861216003, 329.51915756551995, 440.0707542322, 493.7774464199199, 767.98990421816, 823.02879155796, 891.3896304185598, 900.4815189822399, 929.41899512072, 1002.9850088538799, 1082.00340893112, 1102.9065122452, 1152.52734816752, 1174.9617892079598, 1182.44680320676, 1190.2339645596398, 1270.1176047871998, 1295.23017010244, 1305.6473868328799, 1368.30176089256, 1380.4425909383199, 1399.7456866728398, 1405.4521514737598, 1443.92787022172, 1468.7794900948002, 1470.37949767436, 1482.5752636026798, 1487.2448136202797, 1494.6336898246, 1500.58049911172, 1519.49904366832, 2928.8997117010795, 2942.5512785172396, 2962.4655359452395, 2968.54281795344, 3015.14904732028, 3021.7276192568397, 3024.0692612509597, 3058.7338031463196, 3085.2403664815197, 3101.8035350733594, 3104.27564978856, 3105.2988306012394]

>  <E0_kJmol>  (2) 
-716327

>  <H298_kJmol>  (2) 
-716304

$$$$

     RDKit          3D

 22 20  0  0  0  0  0  0  0  0999 V2000
   -0.4996   -1.7741    0.7562 N   0  0  0  0  0  0  0  0  0  1  0  0
   -0.7431   -1.8784    2.0102 N   0  0  0  0  0  0  0  0  0  2  0  0
   -0.6072   -0.9096    2.7248 O   0  0  0  0  0  1  0  0  0  3  0  0
   -0.5386   -0.5352    0.2322 H   0  0  0  0  0  0  0  0  0  4  0  0
   -0.8063   -2.5952    0.2459 H   0  0  0  0  0  0  0  0  0  5  0  0
    0.1616   -0.2740   -2.4891 C   0  0  0  0  0  0  0  0  0  6  0  0
   -0.9471    0.4525   -1.7374 C   0  0  0  0  0  0  0  0  0  7  0  0
   -0.6447    0.6684   -0.2769 C   0  0  0  0  0  0  0  0  0  8  0  0
    0.5402    1.3088   -0.0787 O   0  0  0  0  0  0  0  0  0  9  0  0
    0.7651    1.7708    1.2468 C   0  0  0  0  0  0  0  0  0 10  0  0
    2.1546    2.3528    1.3253 C   0  0  0  0  0  0  0  0  0 11  0  0
    0.3556   -1.2558   -2.0519 H   0  0  0  0  0  0  0  0  0 12  0  0
   -0.1111   -0.4177   -3.5350 H   0  0  0  0  0  0  0  0  0 13  0  0
    1.0911    0.2933   -2.4531 H   0  0  0  0  0  0  0  0  0 14  0  0
   -1.1323    1.4276   -2.2017 H   0  0  0  0  0  0  0  0  0 15  0  0
   -1.8839   -0.1069   -1.8030 H   0  0  0  0  0  0  0  0  0 16  0  0
   -1.4715    1.0962    0.3025 H   0  0  0  0  0  0  0  0  0 17  0  0
    0.0064    2.5239    1.4916 H   0  0  0  0  0  0  0  0  0 18  0  0
    0.6354    0.9320    1.9393 H   0  0  0  0  0  0  0  0  0 19  0  0
    2.2707    3.1831    0.6276 H   0  0  0  0  0  0  0  0  0 20  0  0
    2.3428    2.7205    2.3348 H   0  0  0  0  0  0  0  0  0 21  0  0
    2.9021    1.5944    1.0910 H   0  0  0  0  0  0  0  0  0 22  0  0
  1  2  1  0
  1  5  1  0
  2  3  1  0
  4  8  1  0
  6  7  1  0
  6 12  1  0
  6 13  1  0
  6 14  1  0
  7 15  1  0
  7  8  1  0
  7 16  1  0
  8 17  1  0
  8  9  1  0
  9 10  1  0
 10 18  1  0
 10 11  1  0
 10 19  1  0
 11 21  1  0
 11 20  1  0
 11 22  1  0
M  RAD  1   3   2
M  END
>  <rmg_smiles>  (3) 
CCOCCC.[NH][N][O]

>  <rmg_adjacency_list>  (3) 
multiplicity 2
1  O u0 p2 c0 {6,S} {7,S}
2  O u1 p2 c0 {4,S}
3  N u0 p1 c0 {4,S} {22,S}
4  N u0 p1 c0 {2,S} {3,S}
5  C u0 p0 c0 {6,S} {8,S} {10,S} {11,S}
6  C u0 p0 c0 {1,S} {5,S} {12,S} {13,S}
7  C u0 p0 c0 {1,S} {9,S} {14,S} {15,S}
8  C u0 p0 c0 {5,S} {16,S} {17,S} {18,S}
9  C u0 p0 c0 {7,S} {19,S} {20,S} {21,S}
10 H u0 p0 c0 {5,S}
11 H u0 p0 c0 {5,S}
12 H u0 p0 c0 {6,S}
13 H u0 p0 c0 {6,S}
14 H u0 p0 c0 {7,S}
15 H u0 p0 c0 {7,S}
16 H u0 p0 c0 {8,S}
17 H u0 p0 c0 {8,S}
18 H u0 p0 c0 {8,S}
19 H u0 p0 c0 {9,S}
20 H u0 p0 c0 {9,S}
21 H u0 p0 c0 {9,S}
22 H u0 p0 c0 {3,S}


>  <multiplicity>  (3) 
2

>  <reaction>  (3) 
rmg_rxn_1476

>  <type>  (3) 
ts

>  <role_mapnums>  (3) 
{"*2": 4, "*1": 1, "*3": 8, "*0": 9, "*4": 2}

>  <role_mapidx>  (3) 
{"*2": 3, "*1": 0, "*3": 7, "*0": 8, "*4": 1}

>  <ordered_mapped_smiles>  (3) 
[NH:1]([NH:2][O:3])[H:5].[H:4][C:8]([C:7]([C:6]([H:12])([H:13])[H:14])([H:15])[H:16])([O:9][C:10]([C:11]([H:20])([H:21])[H:22])([H:18])[H:19])[H:17]

>  <mol_properties>  (3) 
{"0": {"label": "*1", "atom_type": "N3s"}, "1": {"label": "*4", "atom_type": "N3s"}, "3": {"label": "*2", "atom_type": "H0"}, "7": {"label": "*3", "atom_type": "Cs"}, "8": {"label": "*0", "atom_type": "O2s"}}

>  <level_of_theory>  (3) 
wb97xd/def2tzvp

>  <lot_method>  (3) 
wb97xd

>  <lot_basis>  (3) 
def2tzvp

>  <spin_multiplicity>  (3) 
2.0

>  <optical_isomers>  (3) 
2.0

>  <modes>  (3) 
IdealGasTranslation(mass=(133.098, 'amu')),         NonlinearRotor(             inertia = ([377.661, 435.413, 724.786

>  <frequency_value>  (3) 
-1752.83

>  <frequency_units>  (3) 
cm^-1

>  <frequency_list>  (3) 
unknown

>  <arkane_path>  (3) 
/home/calvin/Dropbox/PersonalFolders/Calvin/ATLAS_Converged/rmg_rxn_1476/output/rxns/TS0/arkane/output.py

>  <path_exists>  (3) 
True

>  <E0_value>  (3) 
-1202510.0

>  <E0_units>  (3) 
kJ/mol

>  <thermo_class>  (3) 
unknown

>  <Cp0_value>  (3) 
unknown

>  <Cp0_units>  (3) 
unknown

>  <CpInf_value>  (3) 
unknown

>  <CpInf_units>  (3) 
unknown

>  <Tmin_value>  (3) 
unknown

>  <Tmin_units>  (3) 
unknown

>  <Tmax_value>  (3) 
unknown

>  <Tmax_units>  (3) 
unknown

>  <polynomials>  (3) 
unknown

>  <H298_value>  (3) 
unknown

>  <H298_units>  (3) 
unknown

>  <S298_value>  (3) 
unknown

>  <S298_units>  (3) 
unknown

>  <Cp_T_value_list>  (3) 
unknown

>  <Cp_T_units>  (3) 
unknown

>  <T_list>  (3) 
unknown

>  <T_units>  (3) 
unknown

>  <yaml_path>  (3) 
unknown

>  <frequencies_cm1>  (3) 
unknown

>  <ZPE_kJmol>  (3) 
unknown

>  <E_elec_kJmol>  (3) 
unknown

>  <E0_minus_Eelec_plus_ZPE_kJmol>  (3) 
unknown

>  <rxn>  (3) 
unknown

>  <species_type>  (3) 
unknown

>  <species_folder>  (3) 
unknown

>  <frequencies_cm1_list>  (3) 
[]

>  <ts_imag_freq_cm1>  (3) 
-1774.1236

>  <ts_freq_out_path>  (3) 
/home/calvin/Dropbox/PersonalFolders/Calvin/ATLAS_Converged/rmg_rxn_1476/output/rxns/TS0/geometry/freq.out

>  <E0_kJmol>  (3) 
-1.20251e+06

>  <H298_kJmol>  (3) 
unknown

$$$$

     RDKit          3D

  4  3  0  0  0  0  0  0  0  0999 V2000
   -0.8019    0.4189    0.0192 N   0  0  0  0  0  0  0  0  0  1  0  0
    0.3609    0.8266    0.0061 N   0  0  0  0  0  0  0  0  0  2  0  0
    0.8339    1.9183    0.0142 O   0  0  0  0  0  1  0  0  0  3  0  0
   -0.7779   -0.6002    0.0040 H   0  0  0  0  0  0  0  0  0  4  0  0
  1  2  1  0
  1  4  1  0
  2  3  1  0
M  RAD  1   3   2
M  END
>  <rmg_smiles>  (4) 
[NH][N][O]

>  <rmg_adjacency_list>  (4) 
multiplicity 2
1 O u1 p2 c0 {3,S}
2 N u0 p1 c0 {3,S} {4,S}
3 N u0 p1 c0 {1,S} {2,S}
4 H u0 p0 c0 {2,S}


>  <multiplicity>  (4) 
2

>  <reaction>  (4) 
rmg_rxn_1476

>  <type>  (4) 
r1

>  <role_mapnums>  (4) 
{}

>  <role_mapidx>  (4) 
{}

>  <ordered_mapped_smiles>  (4) 
[NH:1]([NH:2][O:3])[H:4]

>  <level_of_theory>  (4) 
wb97xd/def2tzvp

>  <lot_method>  (4) 
wb97xd

>  <lot_basis>  (4) 
def2tzvp

>  <spin_multiplicity>  (4) 
2.0

>  <optical_isomers>  (4) 
1.0

>  <modes>  (4) 
IdealGasTranslation(mass=(45.0089, 'amu')),         NonlinearRotor(             inertia = ([2.57086, 40.1656, 42.7365

>  <frequency_value>  (4) 
unknown

>  <frequency_units>  (4) 
unknown

>  <frequency_list>  (4) 
unknown

>  <arkane_path>  (4) 
/home/calvin/Dropbox/PersonalFolders/Calvin/ATLAS_Converged/rmg_rxn_1476/output/Species/rmg_rxn_1476_p1_sbr-NH-sbrN=O/arkane/output.py

>  <path_exists>  (4) 
True

>  <E0_value>  (4) 
-486262.5359899363

>  <E0_units>  (4) 
kJ/mol

>  <thermo_class>  (4) 
NASA

>  <Cp0_value>  (4) 
33.257888

>  <Cp0_units>  (4) 
J/(mol*K)

>  <CpInf_value>  (4) 
83.14472

>  <CpInf_units>  (4) 
J/(mol*K)

>  <Tmin_value>  (4) 
10.0

>  <Tmin_units>  (4) 
K

>  <Tmax_value>  (4) 
3000.0

>  <Tmax_units>  (4) 
K

>  <polynomials>  (4) 
[{"name": "polynomial1", "class": "NASAPolynomial", "Tmin_value": 10.0, "Tmin_units": "K", "Tmax_value": 676.9921071589606, "Tmax_units": "K", "coeffs": [4.052620261454503, -0.003954731767705262, 3.6687508557980155e-05, -5.192217441285821e-08, 2.3892499392073696e-11, -58483875.09093844, 6.697601255809246]}, {"name": "polynomial2", "class": "NASAPolynomial", "Tmin_value": 676.9921071589606, "Tmin_units": "K", "Tmax_value": 3000.0, "Tmax_units": "K", "coeffs": [2.568708180565944, 0.010096638421347922, -6.1528648012201994e-06, 1.7932353366274705e-09, -2.0078179070337678e-13, -58483795.25224596, 12.38349699742211]}]

>  <H298_value>  (4) 
-116217.0238123498

>  <H298_units>  (4) 
kcal/mol

>  <S298_value>  (4) 
59.269100903572784

>  <S298_units>  (4) 
cal/(mol*K)

>  <Cp_T_value_list>  (4) 
[9.855962067339554, 11.186696308389417, 12.420320683007862, 13.450531461225838, 14.991648229270968, 16.10618021062707, 17.69693128223604, 18.449026156308282, 18.8553435745084]

>  <Cp_T_units>  (4) 
cal/(mol*K)

>  <T_list>  (4) 
[300.0, 400.0, 500.0, 600.0, 800.0, 1000.0, 1500.0, 2000.0, 2400.0]

>  <T_units>  (4) 
K

>  <yaml_path>  (4) 
/home/calvin/Dropbox/PersonalFolders/Calvin/ATLAS_Converged/rmg_rxn_1476/output/Species/rmg_rxn_1476_p1_sbr-NH-sbrN=O/rmg_rxn_1476_p1_sbr-NH-sbrN=O.yml

>  <frequencies_cm1>  (4) 
[669.5654036266, 780.2955419115999, 1274.34766774432, 1377.4211173975198, 1744.5026846634398, 3450.4884486669994]

>  <ZPE_kJmol>  (4) 
55.6061572725318

>  <E_elec_kJmol>  (4) 
-486318.14214720886

>  <E0_minus_Eelec_plus_ZPE_kJmol>  (4) 
0.0

>  <rxn>  (4) 
rmg_rxn_1476

>  <species_type>  (4) 
p0

>  <species_folder>  (4) 
rmg_rxn_1476_p1_sbr-NH-sbrN=O

>  <frequencies_cm1_list>  (4) 
[669.5654036266, 780.2955419115999, 1274.34766774432, 1377.4211173975198, 1744.5026846634398, 3450.4884486669994]

>  <E0_kJmol>  (4) 
-486263

>  <H298_kJmol>  (4) 
-486252

$$$$

     RDKit          3D

 17 16  0  0  0  0  0  0  0  0999 V2000
   -2.5196    0.7765    0.6863 C   0  0  0  0  0  0  0  0  0  1  0  0
   -1.7832    0.2264   -0.5439 C   0  0  0  0  0  0  0  0  0  2  0  0
   -0.5364   -0.5090   -0.2164 C   0  0  0  0  0  3  0  0  0  3  0  0
   -0.7195   -1.6896    0.4220 O   0  0  0  0  0  0  0  0  0  4  0  0
    0.4618   -2.3470    0.8423 C   0  0  0  0  0  0  0  0  0  5  0  0
    0.0797   -3.6206    1.5573 C   0  0  0  0  0  0  0  0  0  6  0  0
   -1.8902    1.4809    1.2340 H   0  0  0  0  0  0  0  0  0  7  0  0
   -3.4347    1.2951    0.3937 H   0  0  0  0  0  0  0  0  0  8  0  0
   -2.7882   -0.0345    1.3642 H   0  0  0  0  0  0  0  0  0  9  0  0
   -2.4551   -0.4399   -1.0937 H   0  0  0  0  0  0  0  0  0 10  0  0
   -1.5294    1.0480   -1.2176 H   0  0  0  0  0  0  0  0  0 11  0  0
    0.3864    0.0229    0.0104 H   0  0  0  0  0  0  0  0  0 12  0  0
    1.0871   -2.5604   -0.0319 H   0  0  0  0  0  0  0  0  0 13  0  0
    1.0283   -1.6824    1.5065 H   0  0  0  0  0  0  0  0  0 14  0  0
   -0.4799   -4.2803    0.8934 H   0  0  0  0  0  0  0  0  0 15  0  0
    0.9764   -4.1449    1.8908 H   0  0  0  0  0  0  0  0  0 16  0  0
   -0.5383   -3.4025    2.4289 H   0  0  0  0  0  0  0  0  0 17  0  0
  1  8  1  0
  1  7  1  0
  1  9  1  0
  1  2  1  0
  2 10  1  0
  2 11  1  0
  2  3  1  0
  3  4  1  0
  3 12  1  0
  4  5  1  0
  5 13  1  0
  5 14  1  0
  5  6  1  0
  6 17  1  0
  6 15  1  0
  6 16  1  0
M  RAD  1   3   2
M  END
>  <rmg_smiles>  (5) 
CC[CH]OCC

>  <rmg_adjacency_list>  (5) 
multiplicity 2
1  O u0 p2 c0 {3,S} {6,S}
2  C u0 p0 c0 {4,S} {6,S} {7,S} {8,S}
3  C u0 p0 c0 {1,S} {5,S} {9,S} {10,S}
4  C u0 p0 c0 {2,S} {11,S} {12,S} {13,S}
5  C u0 p0 c0 {3,S} {14,S} {15,S} {16,S}
6  C u1 p0 c0 {1,S} {2,S} {17,S}
7  H u0 p0 c0 {2,S}
8  H u0 p0 c0 {2,S}
9  H u0 p0 c0 {3,S}
10 H u0 p0 c0 {3,S}
11 H u0 p0 c0 {4,S}
12 H u0 p0 c0 {4,S}
13 H u0 p0 c0 {4,S}
14 H u0 p0 c0 {5,S}
15 H u0 p0 c0 {5,S}
16 H u0 p0 c0 {5,S}
17 H u0 p0 c0 {6,S}


>  <multiplicity>  (5) 
2

>  <reaction>  (5) 
rmg_rxn_1476

>  <type>  (5) 
r2

>  <role_mapnums>  (5) 
{}

>  <role_mapidx>  (5) 
{}

>  <ordered_mapped_smiles>  (5) 
[C:1]([C:2]([C:3]([O:4][C:5]([C:6]([H:15])([H:16])[H:17])([H:13])[H:14])[H:12])([H:10])[H:11])([H:7])([H:8])[H:9]

>  <level_of_theory>  (5) 
wb97xd/def2tzvp

>  <lot_method>  (5) 
wb97xd

>  <lot_basis>  (5) 
def2tzvp

>  <spin_multiplicity>  (5) 
2.0

>  <optical_isomers>  (5) 
2.0

>  <modes>  (5) 
IdealGasTranslation(mass=(87.081, 'amu')),         NonlinearRotor(             inertia = ([54.0033, 326.681, 352.519

>  <frequency_value>  (5) 
unknown

>  <frequency_units>  (5) 
unknown

>  <frequency_list>  (5) 
unknown

>  <arkane_path>  (5) 
/home/calvin/Dropbox/PersonalFolders/Calvin/ATLAS_Converged/rmg_rxn_1476/output/Species/rmg_rxn_1476_r2_CCsbr-CH-sbrOCC/arkane/output.py

>  <path_exists>  (5) 
True

>  <E0_value>  (5) 
-714624.8903626137

>  <E0_units>  (5) 
kJ/mol

>  <thermo_class>  (5) 
NASA

>  <Cp0_value>  (5) 
33.257888

>  <Cp0_units>  (5) 
J/(mol*K)

>  <CpInf_value>  (5) 
407.409128

>  <CpInf_units>  (5) 
J/(mol*K)

>  <Tmin_value>  (5) 
10.0

>  <Tmin_units>  (5) 
K

>  <Tmax_value>  (5) 
3000.0

>  <Tmax_units>  (5) 
K

>  <polynomials>  (5) 
[{"name": "polynomial1", "class": "NASAPolynomial", "Tmin_value": 10.0, "Tmin_units": "K", "Tmax_value": 423.9444908476886, "Tmax_units": "K", "coeffs": [3.4364747383725662, 0.05979522973071814, -0.00016092814605265254, 4.228478801898717e-07, -3.7248711232237204e-10, -85949519.65292636, 12.64316366492574]}, {"name": "polynomial2", "class": "NASAPolynomial", "Tmin_value": 423.9444908476886, "Tmin_units": "K", "Tmax_value": 3000.0, "Tmax_units": "K", "coeffs": [-1.111744104574418, 0.06368295204270104, -3.660326677346525e-05, 1.020691789066353e-08, -1.107737677672226e-12, -85948783.31280652, 34.81879818509147]}]

>  <H298_value>  (5) 
-170793.64533219274

>  <H298_units>  (5) 
kcal/mol

>  <S298_value>  (5) 
91.19326537010946

>  <S298_units>  (5) 
cal/(mol*K)

>  <Cp_T_value_list>  (5) 
[30.386886645970332, 38.020541402191725, 45.279585844268674, 51.6315646190747, 61.96256804390006, 69.68561157148531, 81.2683193524739, 86.98526119843194, 89.90296990808856]

>  <Cp_T_units>  (5) 
cal/(mol*K)

>  <T_list>  (5) 
[300.0, 400.0, 500.0, 600.0, 800.0, 1000.0, 1500.0, 2000.0, 2400.0]

>  <T_units>  (5) 
K

>  <yaml_path>  (5) 
/home/calvin/Dropbox/PersonalFolders/Calvin/ATLAS_Converged/rmg_rxn_1476/output/Species/rmg_rxn_1476_r2_CCsbr-CH-sbrOCC/rmg_rxn_1476_r2_CCsbr-CH-sbrOCC.yml

>  <frequencies_cm1>  (5) 
[54.48952851419999, 82.85704487112, 127.80146379052002, 170.37677277452, 246.99859497507998, 250.43895462039995, 310.97143021619996, 438.9033667278, 491.6418139854, 605.5238985322799, 772.5633164412799, 819.403023309, 898.5106941954, 905.0823991466399, 1001.87255723204, 1052.16635771572, 1097.2069144296, 1121.5503773889998, 1171.49396162136, 1174.68024280984, 1255.65573370328, 1288.36318478244, 1294.21385627508, 1330.67754832428, 1376.8580246012798, 1387.8520680986, 1405.8641705929597, 1448.5974202393202, 1460.0240838118, 1470.9013885586799, 1481.4353440395598, 1487.3203504587998, 1491.1589952526797, 1509.26723554152, 2975.12825687532, 3009.9438724477195, 3012.71126753168, 3014.66835834788, 3025.43579132964, 3056.8316482126797, 3084.32019044864, 3088.30304193424, 3099.2284155783595, 3103.8086947867996, 3106.4799520762795]

>  <ZPE_kJmol>  (5) 
395.124157254276

>  <E_elec_kJmol>  (5) 
-715020.014519868

>  <E0_minus_Eelec_plus_ZPE_kJmol>  (5) 
0.0

>  <rxn>  (5) 
rmg_rxn_1476

>  <species_type>  (5) 
r1

>  <species_folder>  (5) 
rmg_rxn_1476_r2_CCsbr-CH-sbrOCC

>  <frequencies_cm1_list>  (5) 
[54.48952851419999, 82.85704487112, 127.80146379052002, 170.37677277452, 246.99859497507998, 250.43895462039995, 310.97143021619996, 438.9033667278, 491.6418139854, 605.5238985322799, 772.5633164412799, 819.403023309, 898.5106941954, 905.0823991466399, 1001.87255723204, 1052.16635771572, 1097.2069144296, 1121.5503773889998, 1171.49396162136, 1174.68024280984, 1255.65573370328, 1288.36318478244, 1294.21385627508, 1330.67754832428, 1376.8580246012798, 1387.8520680986, 1405.8641705929597, 1448.5974202393202, 1460.0240838118, 1470.9013885586799, 1481.4353440395598, 1487.3203504587998, 1491.1589952526797, 1509.26723554152, 2975.12825687532, 3009.9438724477195, 3012.71126753168, 3014.66835834788, 3025.43579132964, 3056.8316482126797, 3084.32019044864, 3088.30304193424, 3099.2284155783595, 3103.8086947867996, 3106.4799520762795]

>  <E0_kJmol>  (5) 
-714625

>  <H298_kJmol>  (5) 
-714601

$$$$
