
     RDKit          3D

 21 21  0  0  0  0  0  0  0  0999 V2000
    3.7603   -0.6436   -0.0466 C   0  0  0  0  0  0  0  0  0  1  0  0
    2.5444    0.2243   -0.0040 C   0  0  0  0  0  0  0  0  0  2  0  0
    1.2944   -0.2146   -0.0157 C   0  0  0  0  0  0  0  0  0  3  0  0
    0.0655    0.6648    0.0274 C   0  0  0  0  0  0  0  0  0  4  0  0
   -0.7384    0.3820    1.2672 C   0  0  0  0  0  0  0  0  0  5  0  0
   -1.9582   -0.1496    1.2456 C   0  0  0  0  0  0  0  0  0  6  0  0
   -2.6330   -0.5261   -0.0082 C   0  0  0  0  0  0  0  0  0  7  0  0
   -1.9712   -0.0462   -1.2332 C   0  0  0  0  0  0  0  0  0  8  0  0
   -0.7515    0.4860   -1.2232 C   0  0  0  0  0  0  0  0  0  9  0  0
    4.3855   -0.4830    0.8355 H   0  0  0  0  0  0  0  0  0 10  0  0
    3.4945   -1.7004   -0.0893 H   0  0  0  0  0  0  0  0  0 11  0  0
    4.3763   -0.4098   -0.9187 H   0  0  0  0  0  0  0  0  0 12  0  0
    2.7187    1.2974    0.0399 H   0  0  0  0  0  0  0  0  0 13  0  0
    1.0988   -1.2842   -0.0593 H   0  0  0  0  0  0  0  0  0 14  0  0
    0.4171    1.7032    0.0689 H   0  0  0  0  0  0  0  0  0 15  0  0
   -0.2661    0.6245    2.2127 H   0  0  0  0  0  0  0  0  0 16  0  0
   -2.4815   -0.3387    2.1759 H   0  0  0  0  0  0  0  0  0 17  0  0
   -2.6214   -1.6158   -0.0537 H   0  0  0  0  0  0  0  0  0 18  0  0
   -3.7136   -0.3784    0.0037 H   0  0  0  0  0  0  0  0  0 19  0  0
   -2.5043   -0.1574   -2.1704 H   0  0  0  0  0  0  0  0  0 20  0  0
   -0.2890    0.8066   -2.1501 H   0  0  0  0  0  0  0  0  0 21  0  0
  1 11  1  0
  1 10  1  0
  1 12  1  0
  1  2  1  0
  2 13  1  0
  2  3  1  0
  3  4  1  0
  3 14  1  0
  4  9  1  0
  4  5  1  0
  4 15  1  0
  5 16  1  0
  5  6  1  0
  6  7  1  0
  6 17  1  0
  7 18  1  0
  7 19  1  0
  7  8  1  0
  8 20  1  0
  8  9  1  0
  9 21  1  0
M  END
>  <rmg_smiles>  (1) 
C[CH][CH]C1[CH][CH]C[CH][CH]1

>  <rmg_adjacency_list>  (1) 
1  C u0 p0 c0 {4,S} {5,S} {6,S} {10,S}
2  C u0 p0 c0 {7,S} {8,S} {11,S} {12,S}
3  C u0 p0 c0 {9,S} {13,S} {14,S} {15,S}
4  C u0 p0 c0 {1,S} {9,S} {17,S}
5  C u0 p0 c0 {1,S} {7,S} {18,S}
6  C u0 p0 c0 {1,S} {8,S} {21,S}
7  C u0 p0 c0 {2,S} {5,S} {19,S}
8  C u0 p0 c0 {2,S} {6,S} {20,S}
9  C u0 p0 c0 {3,S} {4,S} {16,S}
10 H u0 p0 c0 {1,S}
11 H u0 p0 c0 {2,S}
12 H u0 p0 c0 {2,S}
13 H u0 p0 c0 {3,S}
14 H u0 p0 c0 {3,S}
15 H u0 p0 c0 {3,S}
16 H u0 p0 c0 {9,S}
17 H u0 p0 c0 {4,S}
18 H u0 p0 c0 {5,S}
19 H u0 p0 c0 {7,S}
20 H u0 p0 c0 {8,S}
21 H u0 p0 c0 {6,S}


>  <multiplicity>  (1) 
1

>  <reaction>  (1) 
rmg_rxn_14502

>  <type>  (1) 
r1h

>  <role_mapnums>  (1) 
{"r1h_a": 7, "r1h_h": 18}

>  <role_mapidx>  (1) 
{"r1h_a": 6, "r1h_h": 17}

>  <ordered_mapped_smiles>  (1) 
[C:1]([CH:2]([CH:3]([C:4]1([H:15])[CH:5]([H:16])[CH:6]([H:17])[C:7]([H:18])([H:19])[CH:8]([H:20])[CH:9]1[H:21])[H:14])[H:13])([H:10])([H:11])[H:12]

>  <mol_properties>  (1) 
{"6": {"label": "donator", "atom_type": "Cs"}, "17": {"label": "d_hydrogen", "atom_type": "H0"}}

>  <level_of_theory>  (1) 
wb97xd/def2tzvp

>  <lot_method>  (1) 
wb97xd

>  <lot_basis>  (1) 
def2tzvp

>  <spin_multiplicity>  (1) 
1.0

>  <optical_isomers>  (1) 
1.0

>  <modes>  (1) 
IdealGasTranslation(mass=(120.094, 'amu')),         NonlinearRotor(             inertia = ([123.126, 594.032, 661.794

>  <frequency_value>  (1) 
unknown

>  <frequency_units>  (1) 
unknown

>  <frequency_list>  (1) 
unknown

>  <arkane_path>  (1) 
/home/calvin/Dropbox/PersonalFolders/Calvin/ZEUS_Converged/rmg_rxn_14502/output/Species/rmg_rxn_14502_r2_CC=CC1C=CCC=C1/arkane/output.py

>  <path_exists>  (1) 
True

>  <E0_value>  (1) 
-918815.1030920484

>  <E0_units>  (1) 
kJ/mol

>  <thermo_class>  (1) 
NASA

>  <Cp0_value>  (1) 
33.257888

>  <Cp0_units>  (1) 
J/(mol*K)

>  <CpInf_value>  (1) 
507.182792

>  <CpInf_units>  (1) 
J/(mol*K)

>  <Tmin_value>  (1) 
10.0

>  <Tmin_units>  (1) 
K

>  <Tmax_value>  (1) 
3000.0

>  <Tmax_units>  (1) 
K

>  <polynomials>  (1) 
[{"name": "polynomial1", "class": "NASAPolynomial", "Tmin_value": 10.0, "Tmin_units": "K", "Tmax_value": 900.1883191296835, "Tmax_units": "K", "coeffs": [3.782160835894679, 0.03597916755508645, 7.24748983971408e-05, -1.1107772614449696e-07, 4.3391770608448577e-11, -110507940.25991882, 12.39480849585958]}, {"name": "polynomial2", "class": "NASAPolynomial", "Tmin_value": 900.1883191296835, "Tmin_units": "K", "Tmax_value": 3000.0, "Tmax_units": "K", "coeffs": [2.6783001151363197, 0.07210954727614964, -3.976118049879479e-05, 1.0576415333222445e-08, -1.0955426966738148e-12, -110509006.67971465, 10.577050271869538]}]

>  <H298_value>  (1) 
-219595.80709332135

>  <H298_units>  (1) 
kcal/mol

>  <S298_value>  (1) 
93.37419274624186

>  <S298_units>  (1) 
cal/(mol*K)

>  <Cp_T_value_list>  (1) 
[36.66600019600808, 47.23921011952451, 57.06807784755864, 65.75946391639982, 79.191974125354, 88.44567189366505, 102.39912497205734, 109.16780951851052, 112.43157741857577]

>  <Cp_T_units>  (1) 
cal/(mol*K)

>  <T_list>  (1) 
[300.0, 400.0, 500.0, 600.0, 800.0, 1000.0, 1500.0, 2000.0, 2400.0]

>  <T_units>  (1) 
K

>  <yaml_path>  (1) 
/home/calvin/Dropbox/PersonalFolders/Calvin/ZEUS_Converged/rmg_rxn_14502/output/Species/rmg_rxn_14502_r2_CC=CC1C=CCC=C1/rmg_rxn_14502_r2_CC=CC1C=CCC=C1.yml

>  <frequencies_cm1>  (1) 
[57.524736025639996, 67.77027812307999, 149.91315652092, 199.27304700108, 209.05850108208, 304.66067070712, 330.06851639111994, 382.8687665165999, 468.1223892644, 529.7192475848, 579.45682225756, 580.68601262984, 713.23256327648, 742.2181083121999, 819.92491419332, 871.8393232125198, 901.7862461930399, 937.71431338728, 968.06638850168, 973.5531097723599, 973.9651288915599, 1002.2021725274, 1012.4408476395199, 1024.58167768528, 1066.11320490064, 1078.43257656472, 1094.2197758154, 1137.50238428736, 1180.8124607005998, 1217.2898867204399, 1222.38518982788, 1240.56209996992, 1321.57879277528, 1335.9788609913198, 1346.97977147396, 1369.2906067786398, 1400.21950865992, 1403.39892286308, 1429.52093502036, 1458.63008579184, 1466.43098111536, 1478.5580771904797, 1712.0561790264398, 1739.4417164826, 1759.0057576592799, 2981.38408050184, 2987.1386141999997, 3005.2468544888397, 3006.0159568446797, 3063.04626992728, 3089.30562179096, 3106.4799520762795, 3110.40786767932, 3128.4199701736798, 3129.1410036322795, 3150.79260834624, 3153.2372551201597]

>  <ZPE_kJmol>  (1) 
479.5212568493421

>  <E_elec_kJmol>  (1) 
-919294.6243488976

>  <E0_minus_Eelec_plus_ZPE_kJmol>  (1) 
0.0

>  <rxn>  (1) 
rmg_rxn_14502

>  <species_type>  (1) 
r1

>  <species_folder>  (1) 
rmg_rxn_14502_r2_CC=CC1C=CCC=C1

>  <frequencies_cm1_list>  (1) 
[57.524736025639996, 67.77027812307999, 149.91315652092, 199.27304700108, 209.05850108208, 304.66067070712, 330.06851639111994, 382.8687665165999, 468.1223892644, 529.7192475848, 579.45682225756, 580.68601262984, 713.23256327648, 742.2181083121999, 819.92491419332, 871.8393232125198, 901.7862461930399, 937.71431338728, 968.06638850168, 973.5531097723599, 973.9651288915599, 1002.2021725274, 1012.4408476395199, 1024.58167768528, 1066.11320490064, 1078.43257656472, 1094.2197758154, 1137.50238428736, 1180.8124607005998, 1217.2898867204399, 1222.38518982788, 1240.56209996992, 1321.57879277528, 1335.9788609913198, 1346.97977147396, 1369.2906067786398, 1400.21950865992, 1403.39892286308, 1429.52093502036, 1458.63008579184, 1466.43098111536, 1478.5580771904797, 1712.0561790264398, 1739.4417164826, 1759.0057576592799, 2981.38408050184, 2987.1386141999997, 3005.2468544888397, 3006.0159568446797, 3063.04626992728, 3089.30562179096, 3106.4799520762795, 3110.40786767932, 3128.4199701736798, 3129.1410036322795, 3150.79260834624, 3153.2372551201597]

>  <E0_kJmol>  (1) 
-918815

>  <H298_kJmol>  (1) 
-918789

$$$$

     RDKit          3D

  3  2  0  0  0  0  0  0  0  0999 V2000
   -0.0510   -0.0895   -0.0035 N   0  0  0  0  0  2  0  0  0  1  0  0
    0.9819   -0.0213   -0.0061 H   0  0  0  0  0  0  0  0  0  2  0  0
   -0.2189    0.9309    0.0400 H   0  0  0  0  0  0  0  0  0  3  0  0
  1  3  1  0
  1  2  1  0
M  RAD  1   1   2
M  END
>  <rmg_smiles>  (2) 
[NH2]

>  <rmg_adjacency_list>  (2) 
multiplicity 2
1 N u1 p1 c0 {2,S} {3,S}
2 H u0 p0 c0 {1,S}
3 H u0 p0 c0 {1,S}


>  <multiplicity>  (2) 
2

>  <reaction>  (2) 
rmg_rxn_14502

>  <type>  (2) 
r2h

>  <role_mapnums>  (2) 
{"r2h_a": 1, "r2h_h": 3}

>  <role_mapidx>  (2) 
{"r2h_a": 0, "r2h_h": 2}

>  <ordered_mapped_smiles>  (2) 
[N:1]([H:2])[H:3]

>  <mol_properties>  (2) 
{"0": {"label": "acceptor", "atom_type": "N3s"}, "2": {"label": "a_hydrogen", "atom_type": "H0"}}

>  <level_of_theory>  (2) 
wb97xd/def2tzvp

>  <lot_method>  (2) 
wb97xd

>  <lot_basis>  (2) 
def2tzvp

>  <spin_multiplicity>  (2) 
2.0

>  <optical_isomers>  (2) 
1.0

>  <modes>  (2) 
IdealGasTranslation(mass=(16.0187, 'amu')),         NonlinearRotor(             inertia = ([0.710442, 1.30616, 2.0166

>  <frequency_value>  (2) 
unknown

>  <frequency_units>  (2) 
unknown

>  <frequency_list>  (2) 
unknown

>  <arkane_path>  (2) 
/home/calvin/Dropbox/PersonalFolders/Calvin/ZEUS_Converged/rmg_rxn_14502/output/Species/rmg_rxn_14502_p1_sbr-NH2-sbr/arkane/output.py

>  <path_exists>  (2) 
True

>  <E0_value>  (2) 
-146665.82219964213

>  <E0_units>  (2) 
kJ/mol

>  <thermo_class>  (2) 
NASA

>  <Cp0_value>  (2) 
33.257888

>  <Cp0_units>  (2) 
J/(mol*K)

>  <CpInf_value>  (2) 
58.201304

>  <CpInf_units>  (2) 
J/(mol*K)

>  <Tmin_value>  (2) 
10.0

>  <Tmin_units>  (2) 
K

>  <Tmax_value>  (2) 
3000.0

>  <Tmax_units>  (2) 
K

>  <polynomials>  (2) 
[{"name": "polynomial1", "class": "NASAPolynomial", "Tmin_value": 10.0, "Tmin_units": "K", "Tmax_value": 785.7865750647027, "Tmax_units": "K", "coeffs": [4.006151608375513, -0.0003084801043868945, 1.192087457245553e-06, 1.4831713626345916e-09, -1.3499457570330705e-12, -17639824.212463364, 0.5976382433244958]}, {"name": "polynomial2", "class": "NASAPolynomial", "Tmin_value": 785.7865750647027, "Tmin_units": "K", "Tmax_value": 3000.0, "Tmax_units": "K", "coeffs": [3.2706173092735047, 0.0018201245801067914, 2.127841353634995e-07, -3.024868389204131e-10, 5.0613927895422387e-14, -17639658.73974233, 4.2862278156336115]}]

>  <H298_value>  (2) 
-35051.60272998558

>  <H298_units>  (2) 
kcal/mol

>  <S298_value>  (2) 
46.48569697774424

>  <S298_units>  (2) 
cal/(mol*K)

>  <Cp_T_value_list>  (2) 
[8.048199274271719, 8.214829323925944, 8.44753183195203, 8.73501869836254, 9.397016698203402, 10.038677908156746, 11.356703149918278, 12.225157566575335, 12.64305192781627]

>  <Cp_T_units>  (2) 
cal/(mol*K)

>  <T_list>  (2) 
[300.0, 400.0, 500.0, 600.0, 800.0, 1000.0, 1500.0, 2000.0, 2400.0]

>  <T_units>  (2) 
K

>  <yaml_path>  (2) 
/home/calvin/Dropbox/PersonalFolders/Calvin/ZEUS_Converged/rmg_rxn_14502/output/Species/rmg_rxn_14502_p1_sbr-NH2-sbr/rmg_rxn_14502_p1_sbr-NH2-sbr.yml

>  <frequencies_cm1>  (2) 
[1514.64408504708, 3360.6064778135196, 3454.89705324244]

>  <ZPE_kJmol>  (2) 
49.8253618406256

>  <E_elec_kJmol>  (2) 
-146715.64756148277

>  <E0_minus_Eelec_plus_ZPE_kJmol>  (2) 
0.0

>  <rxn>  (2) 
rmg_rxn_14502

>  <species_type>  (2) 
p0

>  <species_folder>  (2) 
rmg_rxn_14502_p1_sbr-NH2-sbr

>  <frequencies_cm1_list>  (2) 
[1514.64408504708, 3360.6064778135196, 3454.89705324244]

>  <E0_kJmol>  (2) 
-146666

>  <H298_kJmol>  (2) 
-146656

$$$$

     RDKit          3D

 23 22  0  0  0  0  0  0  0  0999 V2000
   -2.2090   -2.8663   -0.0810 N   0  0  0  0  0  1  0  0  0  1  0  0
   -1.1762   -2.7981   -0.0836 H   0  0  0  0  0  0  0  0  0  2  0  0
    3.9480   -0.3694   -0.0091 C   0  0  0  0  0  0  0  0  0  3  0  0
    2.7321    0.4985    0.0335 C   0  0  0  0  0  0  0  0  0  4  0  0
    1.4821    0.0596    0.0217 C   0  0  0  0  0  0  0  0  0  5  0  0
    0.2532    0.9390    0.0649 C   0  0  0  0  0  0  0  0  0  6  0  0
   -0.5507    0.6563    1.3046 C   0  0  0  0  0  0  0  0  0  7  0  0
   -1.7705    0.1246    1.2831 C   0  0  0  0  0  0  0  0  0  8  0  0
   -2.4453   -0.2518    0.0293 C   0  0  0  0  0  0  0  0  0  9  0  0
   -1.7835    0.2280   -1.1957 C   0  0  0  0  0  0  0  0  0 10  0  0
   -0.5638    0.7602   -1.1857 C   0  0  0  0  0  0  0  0  0 11  0  0
    4.5732   -0.2088    0.8730 H   0  0  0  0  0  0  0  0  0 12  0  0
    3.6822   -1.4262   -0.0518 H   0  0  0  0  0  0  0  0  0 13  0  0
    4.5640   -0.1356   -0.8812 H   0  0  0  0  0  0  0  0  0 14  0  0
    2.9064    1.5717    0.0773 H   0  0  0  0  0  0  0  0  0 15  0  0
    1.2865   -1.0100   -0.0219 H   0  0  0  0  0  0  0  0  0 16  0  0
    0.6048    1.9775    0.1063 H   0  0  0  0  0  0  0  0  0 17  0  0
   -0.0784    0.8988    2.2501 H   0  0  0  0  0  0  0  0  0 18  0  0
   -2.2938   -0.0645    2.2133 H   0  0  0  0  0  0  0  0  0 19  0  0
   -2.4319   -1.5118   -0.0233 H   0  0  0  0  0  0  0  0  0 20  0  0
   -3.5259   -0.1041    0.0411 H   0  0  0  0  0  0  0  0  0 21  0  0
   -2.3166    0.1169   -2.1330 H   0  0  0  0  0  0  0  0  0 22  0  0
   -0.1013    1.0808   -2.1126 H   0  0  0  0  0  0  0  0  0 23  0  0
  1  2  1  0
  3  4  1  0
  3 13  1  0
  3 12  1  0
  3 14  1  0
  4  5  1  0
  4 15  1  0
  5 16  1  0
  5  6  1  0
  6  7  1  0
  6 17  1  0
  6 11  1  0
  7 18  1  0
  7  8  1  0
  8 19  1  0
  8  9  1  0
  9 21  1  0
  9 20  1  0
  9 10  1  0
 10 22  1  0
 10 11  1  0
 11 23  1  0
M  RAD  1   1   3
M  END
>  <rmg_smiles>  (3) 
C[CH][CH]C1[CH][CH]C[CH][CH]1.[NH]

>  <rmg_adjacency_list>  (3) 
multiplicity 3
1  N u2 p2 c0 {23,S}
2  C u0 p0 c0 {5,S} {6,S} {7,S} {11,S}
3  C u0 p0 c0 {8,S} {9,S} {12,S} {13,S}
4  C u0 p0 c0 {10,S} {14,S} {15,S} {16,S}
5  C u0 p0 c0 {2,S} {10,S} {18,S}
6  C u0 p0 c0 {2,S} {8,S} {19,S}
7  C u0 p0 c0 {2,S} {9,S} {22,S}
8  C u0 p0 c0 {3,S} {6,S} {20,S}
9  C u0 p0 c0 {3,S} {7,S} {21,S}
10 C u0 p0 c0 {4,S} {5,S} {17,S}
11 H u0 p0 c0 {2,S}
12 H u0 p0 c0 {3,S}
13 H u0 p0 c0 {3,S}
14 H u0 p0 c0 {4,S}
15 H u0 p0 c0 {4,S}
16 H u0 p0 c0 {4,S}
17 H u0 p0 c0 {10,S}
18 H u0 p0 c0 {5,S}
19 H u0 p0 c0 {6,S}
20 H u0 p0 c0 {8,S}
21 H u0 p0 c0 {9,S}
22 H u0 p0 c0 {7,S}
23 H u0 p0 c0 {1,S}


>  <multiplicity>  (3) 
3

>  <reaction>  (3) 
rmg_rxn_14502

>  <type>  (3) 
ts

>  <role_mapnums>  (3) 
{"*2": 20, "*1": 9, "*3": 1, "*0": 8, "*4": 2}

>  <role_mapidx>  (3) 
{"*2": 19, "*1": 8, "*3": 0, "*0": 7, "*4": 1}

>  <ordered_mapped_smiles>  (3) 
[N:1][H:2].[C:3]([CH:4]([CH:5]([C:6]1([H:17])[CH:7]([H:18])[CH:8]([H:19])[C:9]([H:20])([H:21])[CH:10]([H:22])[CH:11]1[H:23])[H:16])[H:15])([H:12])([H:13])[H:14]

>  <mol_properties>  (3) 
{"0": {"label": "*3", "atom_type": "N1s"}, "1": {"label": "*4", "atom_type": "H0"}, "7": {"label": "*0", "atom_type": "Cs"}, "8": {"label": "*1", "atom_type": "Cs"}, "19": {"label": "*2", "atom_type": "H0"}}

>  <level_of_theory>  (3) 
wb97xd/def2tzvp

>  <lot_method>  (3) 
wb97xd

>  <lot_basis>  (3) 
def2tzvp

>  <spin_multiplicity>  (3) 
3.0

>  <optical_isomers>  (3) 
1.0

>  <modes>  (3) 
IdealGasTranslation(mass=(135.105, 'amu')),         NonlinearRotor(             inertia = ([244.466, 733.731, 788.386

>  <frequency_value>  (3) 
-1672.68

>  <frequency_units>  (3) 
cm^-1

>  <frequency_list>  (3) 
unknown

>  <arkane_path>  (3) 
/home/calvin/Dropbox/PersonalFolders/Calvin/ZEUS_Converged/rmg_rxn_14502/output/rxns/TS0/arkane/output.py

>  <path_exists>  (3) 
True

>  <E0_value>  (3) 
-1063750.0

>  <E0_units>  (3) 
kJ/mol

>  <thermo_class>  (3) 
unknown

>  <Cp0_value>  (3) 
unknown

>  <Cp0_units>  (3) 
unknown

>  <CpInf_value>  (3) 
unknown

>  <CpInf_units>  (3) 
unknown

>  <Tmin_value>  (3) 
unknown

>  <Tmin_units>  (3) 
unknown

>  <Tmax_value>  (3) 
unknown

>  <Tmax_units>  (3) 
unknown

>  <polynomials>  (3) 
unknown

>  <H298_value>  (3) 
unknown

>  <H298_units>  (3) 
unknown

>  <S298_value>  (3) 
unknown

>  <S298_units>  (3) 
unknown

>  <Cp_T_value_list>  (3) 
unknown

>  <Cp_T_units>  (3) 
unknown

>  <T_list>  (3) 
unknown

>  <T_units>  (3) 
unknown

>  <yaml_path>  (3) 
unknown

>  <frequencies_cm1>  (3) 
unknown

>  <ZPE_kJmol>  (3) 
unknown

>  <E_elec_kJmol>  (3) 
unknown

>  <E0_minus_Eelec_plus_ZPE_kJmol>  (3) 
unknown

>  <rxn>  (3) 
unknown

>  <species_type>  (3) 
unknown

>  <species_folder>  (3) 
unknown

>  <frequencies_cm1_list>  (3) 
[]

>  <ts_imag_freq_cm1>  (3) 
-1692.9963

>  <ts_freq_out_path>  (3) 
/home/calvin/Dropbox/PersonalFolders/Calvin/ZEUS_Converged/rmg_rxn_14502/output/rxns/TS0/geometry/freq.out

>  <E0_kJmol>  (3) 
-1.06375e+06

>  <H298_kJmol>  (3) 
unknown

$$$$

     RDKit          3D

 20 20  0  0  0  0  0  0  0  0999 V2000
    3.4966    0.0809    0.0134 C   0  0  0  0  0  0  0  0  0  1  0  0
    2.1510   -0.5658    0.0876 C   0  0  0  0  0  0  0  0  0  2  0  0
    0.9936    0.0751    0.0193 C   0  0  0  0  0  0  0  0  0  3  0  0
   -0.3683   -0.5864    0.0952 C   0  0  0  0  0  0  0  0  0  4  0  0
   -1.1263   -0.1007    1.2973 C   0  0  0  0  0  3  0  0  0  5  0  0
   -2.3297    0.5159    1.2045 C   0  0  0  0  0  0  0  0  0  6  0  0
   -2.9612    0.7154   -0.0431 C   0  0  0  0  0  0  0  0  0  7  0  0
   -2.3348    0.2483   -1.2198 C   0  0  0  0  0  0  0  0  0  8  0  0
   -1.1315   -0.3743   -1.1808 C   0  0  0  0  0  0  0  0  0  9  0  0
    4.0769   -0.1202    0.9176 H   0  0  0  0  0  0  0  0  0 10  0  0
    3.4128    1.1617   -0.1057 H   0  0  0  0  0  0  0  0  0 11  0  0
    4.0732   -0.3129   -0.8276 H   0  0  0  0  0  0  0  0  0 12  0  0
    2.1415   -1.6475    0.2071 H   0  0  0  0  0  0  0  0  0 13  0  0
    0.9777    1.1561   -0.1000 H   0  0  0  0  0  0  0  0  0 14  0  0
   -0.1789   -1.6648    0.2138 H   0  0  0  0  0  0  0  0  0 15  0  0
   -0.6548   -0.2441    2.2623 H   0  0  0  0  0  0  0  0  0 16  0  0
   -2.8226    0.8604    2.1061 H   0  0  0  0  0  0  0  0  0 17  0  0
   -3.9203    1.2118   -0.0959 H   0  0  0  0  0  0  0  0  0 18  0  0
   -2.8316    0.3880   -2.1728 H   0  0  0  0  0  0  0  0  0 19  0  0
   -0.6640   -0.7249   -2.0932 H   0  0  0  0  0  0  0  0  0 20  0  0
  1 11  1  0
  1 10  1  0
  1 12  1  0
  1  2  1  0
  2 13  1  0
  2  3  1  0
  3  4  1  0
  3 14  1  0
  4  9  1  0
  4  5  1  0
  4 15  1  0
  5 16  1  0
  5  6  1  0
  6  7  1  0
  6 17  1  0
  7 18  1  0
  7  8  1  0
  8 19  1  0
  8  9  1  0
  9 20  1  0
M  RAD  1   5   2
M  END
>  <rmg_smiles>  (4) 
C[CH][CH]C1[CH][CH][CH][CH][CH]1

>  <rmg_adjacency_list>  (4) 
multiplicity 2
1  C u0 p0 c0 {3,S} {4,S} {5,S} {10,S}
2  C u0 p0 c0 {6,S} {11,S} {12,S} {13,S}
3  C u0 p0 c0 {1,S} {6,S} {15,S}
4  C u1 p0 c0 {1,S} {7,S} {16,S}
5  C u0 p0 c0 {1,S} {8,S} {17,S}
6  C u0 p0 c0 {2,S} {3,S} {14,S}
7  C u0 p0 c0 {4,S} {9,S} {18,S}
8  C u0 p0 c0 {5,S} {9,S} {20,S}
9  C u0 p0 c0 {7,S} {8,S} {19,S}
10 H u0 p0 c0 {1,S}
11 H u0 p0 c0 {2,S}
12 H u0 p0 c0 {2,S}
13 H u0 p0 c0 {2,S}
14 H u0 p0 c0 {6,S}
15 H u0 p0 c0 {3,S}
16 H u0 p0 c0 {4,S}
17 H u0 p0 c0 {5,S}
18 H u0 p0 c0 {7,S}
19 H u0 p0 c0 {9,S}
20 H u0 p0 c0 {8,S}


>  <multiplicity>  (4) 
2

>  <reaction>  (4) 
rmg_rxn_14502

>  <type>  (4) 
r1

>  <role_mapnums>  (4) 
{}

>  <role_mapidx>  (4) 
{}

>  <ordered_mapped_smiles>  (4) 
[C:1]([CH:2]([CH:3]([C:4]1([H:15])[C:5]([H:16])[CH:6]([H:17])[CH:7]([H:18])[CH:8]([H:19])[CH:9]1[H:20])[H:14])[H:13])([H:10])([H:11])[H:12]

>  <level_of_theory>  (4) 
wb97xd/def2tzvp

>  <lot_method>  (4) 
wb97xd

>  <lot_basis>  (4) 
def2tzvp

>  <spin_multiplicity>  (4) 
2.0

>  <optical_isomers>  (4) 
1.0

>  <modes>  (4) 
IdealGasTranslation(mass=(119.086, 'amu')),         NonlinearRotor(             inertia = ([118.163, 582.663, 651.606

>  <frequency_value>  (4) 
unknown

>  <frequency_units>  (4) 
unknown

>  <frequency_list>  (4) 
unknown

>  <arkane_path>  (4) 
/home/calvin/Dropbox/PersonalFolders/Calvin/ZEUS_Converged/rmg_rxn_14502/output/Species/rmg_rxn_14502_p2_CC=CC1sbr-CH-sbrC=CC=C1/arkane/output.py

>  <path_exists>  (4) 
True

>  <E0_value>  (4) 
-917193.1107626656

>  <E0_units>  (4) 
kJ/mol

>  <thermo_class>  (4) 
NASA

>  <Cp0_value>  (4) 
33.257888

>  <Cp0_units>  (4) 
J/(mol*K)

>  <CpInf_value>  (4) 
482.239376

>  <CpInf_units>  (4) 
J/(mol*K)

>  <Tmin_value>  (4) 
10.0

>  <Tmin_units>  (4) 
K

>  <Tmax_value>  (4) 
3000.0

>  <Tmax_units>  (4) 
K

>  <polynomials>  (4) 
[{"name": "polynomial1", "class": "NASAPolynomial", "Tmin_value": 10.0, "Tmin_units": "K", "Tmax_value": 801.5006130358141, "Tmax_units": "K", "coeffs": [3.7418969876697656, 0.033027325361813485, 8.82654728294995e-05, -1.432751135922189e-07, 6.160054740955542e-11, -110312854.2309099, 13.272527699565524]}, {"name": "polynomial2", "class": "NASAPolynomial", "Tmin_value": 801.5006130358141, "Tmin_units": "K", "Tmax_value": 3000.0, "Tmax_units": "K", "coeffs": [1.7852001417896757, 0.07271357740227118, -4.2003929134704184e-05, 1.16562705280266e-08, -1.2528608958415535e-12, -110313501.64225152, 16.2840594997492]}]

>  <H298_value>  (4) 
-219208.247506362

>  <H298_units>  (4) 
kcal/mol

>  <S298_value>  (4) 
93.8147488532354

>  <S298_units>  (4) 
cal/(mol*K)

>  <Cp_T_value_list>  (4) 
[36.21589161158936, 46.6649135476274, 56.163568580793644, 64.32561377752106, 76.56385902668775, 85.24769725984068, 98.0567780717605, 104.1316640910892, 107.15915712803202]

>  <Cp_T_units>  (4) 
cal/(mol*K)

>  <T_list>  (4) 
[300.0, 400.0, 500.0, 600.0, 800.0, 1000.0, 1500.0, 2000.0, 2400.0]

>  <T_units>  (4) 
K

>  <yaml_path>  (4) 
/home/calvin/Dropbox/PersonalFolders/Calvin/ZEUS_Converged/rmg_rxn_14502/output/Species/rmg_rxn_14502_p2_CC=CC1sbr-CH-sbrC=CC=C1/rmg_rxn_14502_p2_CC=CC1sbr-CH-sbrC=CC=C1.yml

>  <frequencies_cm1>  (4) 
[61.44578464336, 67.02864370852, 151.97325211692, 208.39927049136, 233.52556977723998, 333.31660044747997, 333.44020618324, 441.65702784111994, 451.0579307442, 583.7280871265999, 588.96759692576, 614.48531437488, 674.17315077632, 749.9365998118799, 795.7256579256399, 818.3180396284399, 885.9097761331999, 933.6559250631601, 972.48872704776, 972.52306197436, 983.3042289267601, 987.8845081351999, 998.8648176618798, 1026.2640890886798, 1065.83165850252, 1087.2978546128397, 1101.27216973904, 1120.30745304608, 1166.62526902948, 1192.25972522904, 1223.010085492, 1293.9803787741998, 1317.1564542291999, 1336.3290772426399, 1338.53337953036, 1392.6658248079198, 1403.9208137474, 1445.0197208876, 1466.7949313373201, 1477.76150689336, 1543.1077391984797, 1603.5990128823598, 1736.7635922077998, 2929.43533655604, 3006.93613287756, 3064.0831847106, 3090.7064867962395, 3108.4233089218396, 3114.5349258566403, 3145.0586756040398, 3146.4320726680403, 3163.8879493514796, 3165.22701148888, 3186.34299134788]

>  <ZPE_kJmol>  (4) 
444.42106480245934

>  <E_elec_kJmol>  (4) 
-917637.531827468

>  <E0_minus_Eelec_plus_ZPE_kJmol>  (4) 
0.0

>  <rxn>  (4) 
rmg_rxn_14502

>  <species_type>  (4) 
p1

>  <species_folder>  (4) 
rmg_rxn_14502_p2_CC=CC1sbr-CH-sbrC=CC=C1

>  <frequencies_cm1_list>  (4) 
[61.44578464336, 67.02864370852, 151.97325211692, 208.39927049136, 233.52556977723998, 333.31660044747997, 333.44020618324, 441.65702784111994, 451.0579307442, 583.7280871265999, 588.96759692576, 614.48531437488, 674.17315077632, 749.9365998118799, 795.7256579256399, 818.3180396284399, 885.9097761331999, 933.6559250631601, 972.48872704776, 972.52306197436, 983.3042289267601, 987.8845081351999, 998.8648176618798, 1026.2640890886798, 1065.83165850252, 1087.2978546128397, 1101.27216973904, 1120.30745304608, 1166.62526902948, 1192.25972522904, 1223.010085492, 1293.9803787741998, 1317.1564542291999, 1336.3290772426399, 1338.53337953036, 1392.6658248079198, 1403.9208137474, 1445.0197208876, 1466.7949313373201, 1477.76150689336, 1543.1077391984797, 1603.5990128823598, 1736.7635922077998, 2929.43533655604, 3006.93613287756, 3064.0831847106, 3090.7064867962395, 3108.4233089218396, 3114.5349258566403, 3145.0586756040398, 3146.4320726680403, 3163.8879493514796, 3165.22701148888, 3186.34299134788]

>  <E0_kJmol>  (4) 
-917193

>  <H298_kJmol>  (4) 
-917167

$$$$

     RDKit          3D

  2  1  0  0  0  0  0  0  0  0999 V2000
    0.0000    0.0000    0.5193 N   0  0  0  0  0  1  0  0  0  1  0  0
    0.0000    0.0000   -0.5193 H   0  0  0  0  0  0  0  0  0  2  0  0
  1  2  1  0
M  RAD  1   1   3
M  END
>  <rmg_smiles>  (5) 
[NH]

>  <rmg_adjacency_list>  (5) 
multiplicity 3
1 N u2 p2 c0 {2,S}
2 H u0 p0 c0 {1,S}


>  <multiplicity>  (5) 
3

>  <reaction>  (5) 
rmg_rxn_14502

>  <type>  (5) 
r2

>  <role_mapnums>  (5) 
{}

>  <role_mapidx>  (5) 
{}

>  <ordered_mapped_smiles>  (5) 
[N:1][H:2]

>  <level_of_theory>  (5) 
wb97xd/def2tzvp

>  <lot_method>  (5) 
wb97xd

>  <lot_basis>  (5) 
def2tzvp

>  <spin_multiplicity>  (5) 
3.0

>  <optical_isomers>  (5) 
1.0

>  <modes>  (5) 
IdealGasTranslation(mass=(15.0109, 'amu')),         LinearRotor(inertia=(1.01413, 'amu*angstrom^2'), symmetry=1),         HarmonicOscillator(frequencies=([3308.97

>  <frequency_value>  (5) 
unknown

>  <frequency_units>  (5) 
unknown

>  <frequency_list>  (5) 
unknown

>  <arkane_path>  (5) 
/home/calvin/Dropbox/PersonalFolders/Calvin/ZEUS_Converged/rmg_rxn_14502/output/Species/rmg_rxn_14502_r1_sbr-NH-sbr/arkane/output.py

>  <path_exists>  (5) 
True

>  <E0_value>  (5) 
-144966.3474842053

>  <E0_units>  (5) 
kJ/mol

>  <thermo_class>  (5) 
NASA

>  <Cp0_value>  (5) 
29.100652

>  <Cp0_units>  (5) 
J/(mol*K)

>  <CpInf_value>  (5) 
37.415124

>  <CpInf_units>  (5) 
J/(mol*K)

>  <Tmin_value>  (5) 
10.0

>  <Tmin_units>  (5) 
K

>  <Tmax_value>  (5) 
3000.0

>  <Tmax_units>  (5) 
K

>  <polynomials>  (5) 
[{"name": "polynomial1", "class": "NASAPolynomial", "Tmin_value": 10.0, "Tmin_units": "K", "Tmax_value": 881.8532314575099, "Tmax_units": "K", "coeffs": [3.4965222173500043, 0.0002338015188054286, -1.416284727278064e-06, 2.4966001638027773e-09, -1.1039266984453466e-12, -17435424.22138544, 1.815522623970134]}, {"name": "polynomial2", "class": "NASAPolynomial", "Tmin_value": 881.8532314575099, "Tmin_units": "K", "Tmax_value": 3000.0, "Tmax_units": "K", "coeffs": [3.323744851669466, 4.024022670769713e-05, 5.752436354689638e-07, -2.6562521732107694e-10, 3.5403420025862914e-14, -17435355.749380853, 2.842800830910405]}]

>  <H298_value>  (5) 
-34645.71320967995

>  <H298_units>  (5) 
kcal/mol

>  <S298_value>  (5) 
43.24592594077102

>  <S298_units>  (5) 
cal/(mol*K)

>  <Cp_T_value_list>  (5) 
[6.950579537455009, 6.945205554406958, 6.960054440785441, 7.001201469678563, 7.1603662836203705, 7.3705626566608275, 7.871619209781334, 8.24025545861078, 8.418447095616996]

>  <Cp_T_units>  (5) 
cal/(mol*K)

>  <T_list>  (5) 
[300.0, 400.0, 500.0, 600.0, 800.0, 1000.0, 1500.0, 2000.0, 2400.0]

>  <T_units>  (5) 
K

>  <yaml_path>  (5) 
/home/calvin/Dropbox/PersonalFolders/Calvin/ZEUS_Converged/rmg_rxn_14502/output/Species/rmg_rxn_14502_r1_sbr-NH-sbr/rmg_rxn_14502_r1_sbr-NH-sbr.yml

>  <frequencies_cm1>  (5) 
[3269.2618390868797]

>  <ZPE_kJmol>  (5) 
19.554533915985527

>  <E_elec_kJmol>  (5) 
-144985.90201812127

>  <E0_minus_Eelec_plus_ZPE_kJmol>  (5) 
0.0

>  <rxn>  (5) 
rmg_rxn_14502

>  <species_type>  (5) 
r0

>  <species_folder>  (5) 
rmg_rxn_14502_r1_sbr-NH-sbr

>  <frequencies_cm1_list>  (5) 
[3269.2618390868797]

>  <E0_kJmol>  (5) 
-144966

>  <H298_kJmol>  (5) 
-144958

$$$$
