
     RDKit          3D

  9  9  0  0  0  0  0  0  0  0999 V2000
    0.3460   -0.7740   -0.6169 C   0  0  0  0  0  0  0  0  0  1  0  0
   -0.1370   -0.6845    0.8223 C   0  0  0  0  0  0  0  0  0  2  0  0
   -0.3056    0.7704    0.5933 N   0  0  0  0  0  0  0  0  0  3  0  0
    0.0269    0.6188   -0.7764 O   0  0  0  0  0  0  0  0  0  4  0  0
   -0.2254   -1.4009   -1.3026 H   0  0  0  0  0  0  0  0  0  5  0  0
    1.4166   -0.9517   -0.7420 H   0  0  0  0  0  0  0  0  0  6  0  0
    0.5824   -0.9375    1.6005 H   0  0  0  0  0  0  0  0  0  7  0  0
   -1.0933   -1.1663    1.0260 H   0  0  0  0  0  0  0  0  0  8  0  0
    0.5346    1.2333    0.9950 H   0  0  0  0  0  0  0  0  0  9  0  0
  1  5  1  0
  1  4  1  0
  1  6  1  0
  1  2  1  0
  2  3  1  0
  2  8  1  0
  2  7  1  0
  3  9  1  0
  3  4  1  0
M  END
>  <rmg_smiles>  (1) 
C1CNO1

>  <rmg_adjacency_list>  (1) 
1 O u0 p2 c0 {2,S} {4,S}
2 N u0 p1 c0 {1,S} {3,S} {9,S}
3 C u0 p0 c0 {2,S} {4,S} {5,S} {6,S}
4 C u0 p0 c0 {1,S} {3,S} {7,S} {8,S}
5 H u0 p0 c0 {3,S}
6 H u0 p0 c0 {3,S}
7 H u0 p0 c0 {4,S}
8 H u0 p0 c0 {4,S}
9 H u0 p0 c0 {2,S}


>  <multiplicity>  (1) 
1

>  <reaction>  (1) 
rmg_rxn_14070

>  <type>  (1) 
r1h

>  <role_mapnums>  (1) 
{"r1h_a": 3, "r1h_h": 9}

>  <role_mapidx>  (1) 
{"r1h_a": 2, "r1h_h": 8}

>  <ordered_mapped_smiles>  (1) 
[C:1]1([H:5])([H:6])[C:2]([H:7])([H:8])[N:3]([H:9])[O:4]1

>  <mol_properties>  (1) 
{"2": {"label": "donator", "atom_type": "N3s"}, "8": {"label": "d_hydrogen", "atom_type": "H0"}}

>  <level_of_theory>  (1) 
wb97xd/def2tzvp

>  <lot_method>  (1) 
wb97xd

>  <lot_basis>  (1) 
def2tzvp

>  <spin_multiplicity>  (1) 
1.0

>  <optical_isomers>  (1) 
2.0

>  <modes>  (1) 
IdealGasTranslation(mass=(59.0371, 'amu')),         NonlinearRotor(             inertia = ([39.1516, 41.075, 71.4672

>  <frequency_value>  (1) 
unknown

>  <frequency_units>  (1) 
unknown

>  <frequency_list>  (1) 
unknown

>  <arkane_path>  (1) 
/home/calvin/Dropbox/PersonalFolders/Calvin/ZEUS_Converged/rmg_rxn_14070/output/Species/rmg_rxn_14070_r1_C1CNO1/arkane/output.py

>  <path_exists>  (1) 
True

>  <E0_value>  (1) 
-548813.9925652791

>  <E0_units>  (1) 
kJ/mol

>  <thermo_class>  (1) 
NASA

>  <Cp0_value>  (1) 
33.257888

>  <Cp0_units>  (1) 
J/(mol*K)

>  <CpInf_value>  (1) 
207.8618

>  <CpInf_units>  (1) 
J/(mol*K)

>  <Tmin_value>  (1) 
10.0

>  <Tmin_units>  (1) 
K

>  <Tmax_value>  (1) 
3000.0

>  <Tmax_units>  (1) 
K

>  <polynomials>  (1) 
[{"name": "polynomial1", "class": "NASAPolynomial", "Tmin_value": 10.0, "Tmin_units": "K", "Tmax_value": 733.6104995939062, "Tmax_units": "K", "coeffs": [4.077827212604522, -0.005386596362494975, 8.406479709387594e-05, -1.0955987033055228e-07, 4.5560761872445825e-11, -66007078.65566898, 9.13400291644228]}, {"name": "polynomial2", "class": "NASAPolynomial", "Tmin_value": 733.6104995939062, "Tmin_units": "K", "Tmax_value": 3000.0, "Tmax_units": "K", "coeffs": [-1.381871719366429, 0.035186850356113145, -2.098679790853313e-05, 5.981373096893418e-09, -6.548792766584922e-13, -66006568.338417664, 31.801027157418137]}]

>  <H298_value>  (1) 
-131166.66933424954

>  <H298_units>  (1) 
kcal/mol

>  <S298_value>  (1) 
66.80308769165718

>  <S298_units>  (1) 
cal/(mol*K)

>  <Cp_T_value_list>  (1) 
[14.782045633995951, 18.9342625283718, 22.958777229242912, 26.527098552780135, 32.054202003724576, 36.057215220408175, 41.83053068392948, 44.54830846275449, 45.987519872501906]

>  <Cp_T_units>  (1) 
cal/(mol*K)

>  <T_list>  (1) 
[300.0, 400.0, 500.0, 600.0, 800.0, 1000.0, 1500.0, 2000.0, 2400.0]

>  <T_units>  (1) 
K

>  <yaml_path>  (1) 
/home/calvin/Dropbox/PersonalFolders/Calvin/ZEUS_Converged/rmg_rxn_14070/output/Species/rmg_rxn_14070_r1_C1CNO1/rmg_rxn_14070_r1_C1CNO1.yml

>  <frequencies_cm1>  (1) 
[126.69587915399998, 749.09882760284, 874.66852116436, 913.45325425172, 960.7324481799199, 981.1136606096799, 1029.57397601292, 1083.25320025936, 1154.1548236883598, 1199.9164138608398, 1247.03080014136, 1307.63194559036, 1350.2553234716, 1386.89755713912, 1499.0972302826, 1522.45871434124, 2991.80129723228, 3049.64191458264, 3068.4093854622, 3104.5503292013595, 3404.23243555148]

>  <ZPE_kJmol>  (1) 
197.41181047628305

>  <E_elec_kJmol>  (1) 
-549011.4043757555

>  <E0_minus_Eelec_plus_ZPE_kJmol>  (1) 
0.0

>  <rxn>  (1) 
rmg_rxn_14070

>  <species_type>  (1) 
r0

>  <species_folder>  (1) 
rmg_rxn_14070_r1_C1CNO1

>  <frequencies_cm1_list>  (1) 
[126.69587915399998, 749.09882760284, 874.66852116436, 913.45325425172, 960.7324481799199, 981.1136606096799, 1029.57397601292, 1083.25320025936, 1154.1548236883598, 1199.9164138608398, 1247.03080014136, 1307.63194559036, 1350.2553234716, 1386.89755713912, 1499.0972302826, 1522.45871434124, 2991.80129723228, 3049.64191458264, 3068.4093854622, 3104.5503292013595, 3404.23243555148]

>  <E0_kJmol>  (1) 
-548814

>  <H298_kJmol>  (1) 
-548801

$$$$

     RDKit          3D

 10  9  0  0  0  0  0  0  0  0999 V2000
   -2.1084    0.1547    1.2158 H   0  0  0  0  0  0  0  0  0  1  0  0
   -1.0956    0.4200    1.4734 C   0  0  0  0  0  0  0  0  0  2  0  0
   -0.3353    0.3863    0.4619 C   0  0  0  0  0  2  0  0  0  3  0  0
    0.3335    0.2935   -0.6770 C   0  0  0  0  0  0  0  0  0  4  0  0
    1.0428   -0.9426   -1.1349 C   0  0  0  0  0  0  0  0  0  5  0  0
   -0.9663    0.6789    2.5121 H   0  0  0  0  0  0  0  0  0  6  0  0
    0.3714    1.1665   -1.3207 H   0  0  0  0  0  0  0  0  0  7  0  0
    0.6185   -1.3008   -2.0779 H   0  0  0  0  0  0  0  0  0  8  0  0
    0.9673   -1.7396   -0.3957 H   0  0  0  0  0  0  0  0  0  9  0  0
    2.1020   -0.7441   -1.3178 H   0  0  0  0  0  0  0  0  0 10  0  0
  1  2  1  0
  2  6  1  0
  2  3  1  0
  3  4  1  0
  4  5  1  0
  4  7  1  0
  5  8  1  0
  5  9  1  0
  5 10  1  0
M  RAD  1   3   3
M  END
>  <rmg_smiles>  (2) 
[CH2][C][CH]C

>  <rmg_adjacency_list>  (2) 
1  C u0 p0 c0 {2,S} {5,S} {6,S} {7,S}
2  C u0 p0 c0 {1,S} {4,S} {8,S}
3  C u0 p0 c0 {4,S} {9,S} {10,S}
4  C u0 p1 c0 {2,S} {3,S}
5  H u0 p0 c0 {1,S}
6  H u0 p0 c0 {1,S}
7  H u0 p0 c0 {1,S}
8  H u0 p0 c0 {2,S}
9  H u0 p0 c0 {3,S}
10 H u0 p0 c0 {3,S}


>  <multiplicity>  (2) 
1

>  <reaction>  (2) 
rmg_rxn_14070

>  <type>  (2) 
r2h

>  <role_mapnums>  (2) 
{"r2h_a": 2, "r2h_h": 1}

>  <role_mapidx>  (2) 
{"r2h_a": 1, "r2h_h": 0}

>  <ordered_mapped_smiles>  (2) 
[H:1][CH:2]([C:3][CH:4]([C:5]([H:8])([H:9])[H:10])[H:7])[H:6]

>  <mol_properties>  (2) 
{"0": {"label": "a_hydrogen", "atom_type": "H0"}, "1": {"label": "acceptor", "atom_type": "Cs"}}

>  <level_of_theory>  (2) 
wb97xd/def2tzvp

>  <lot_method>  (2) 
wb97xd

>  <lot_basis>  (2) 
def2tzvp

>  <spin_multiplicity>  (2) 
1.0

>  <optical_isomers>  (2) 
1.0

>  <modes>  (2) 
IdealGasTranslation(mass=(54.047, 'amu')),         NonlinearRotor(             inertia = ([14.6121, 119.467, 127.49

>  <frequency_value>  (2) 
unknown

>  <frequency_units>  (2) 
unknown

>  <frequency_list>  (2) 
unknown

>  <arkane_path>  (2) 
/home/calvin/Dropbox/PersonalFolders/Calvin/ZEUS_Converged/rmg_rxn_14070/output/Species/rmg_rxn_14070_p2_C=C=CC/arkane/output.py

>  <path_exists>  (2) 
True

>  <E0_value>  (2) 
-409296.6502421279

>  <E0_units>  (2) 
kJ/mol

>  <thermo_class>  (2) 
NASA

>  <Cp0_value>  (2) 
33.257888

>  <Cp0_units>  (2) 
J/(mol*K)

>  <CpInf_value>  (2) 
232.805216

>  <CpInf_units>  (2) 
J/(mol*K)

>  <Tmin_value>  (2) 
10.0

>  <Tmin_units>  (2) 
K

>  <Tmax_value>  (2) 
3000.0

>  <Tmax_units>  (2) 
K

>  <polynomials>  (2) 
[{"name": "polynomial1", "class": "NASAPolynomial", "Tmin_value": 10.0, "Tmin_units": "K", "Tmax_value": 452.8802664009696, "Tmax_units": "K", "coeffs": [3.9021943352433452, 0.007937521032632688, 6.664442489196733e-05, -1.2131953588307993e-07, 6.938885885775227e-11, -49227014.555544384, 8.255511443201872]}, {"name": "polynomial2", "class": "NASAPolynomial", "Tmin_value": 452.8802664009696, "Tmin_units": "K", "Tmax_value": 3000.0, "Tmax_units": "K", "coeffs": [0.958037882717614, 0.033941191741253485, -1.948265019694705e-05, 5.463813645242153e-09, -5.979209978345261e-13, -49226747.88374059, 20.12723627389473]}]

>  <H298_value>  (2) 
-97820.47439749332

>  <H298_units>  (2) 
kcal/mol

>  <S298_value>  (2) 
69.30943774444917

>  <S298_units>  (2) 
cal/(mol*K)

>  <Cp_T_value_list>  (2) 
[19.013335795722274, 23.35407848830737, 27.231838984706652, 30.626214617830076, 36.15654523435027, 40.30546036176962, 46.594544625367064, 49.786664420046236, 51.450781523093035]

>  <Cp_T_units>  (2) 
cal/(mol*K)

>  <T_list>  (2) 
[300.0, 400.0, 500.0, 600.0, 800.0, 1000.0, 1500.0, 2000.0, 2400.0]

>  <T_units>  (2) 
K

>  <yaml_path>  (2) 
/home/calvin/Dropbox/PersonalFolders/Calvin/ZEUS_Converged/rmg_rxn_14070/output/Species/rmg_rxn_14070_p2_C=C=CC/rmg_rxn_14070_p2_C=C=CC.yml

>  <frequencies_cm1>  (2) 
[164.84884959192, 210.28769145436, 340.98015606459995, 540.2944049775999, 574.7186023867599, 878.6239047086799, 884.0282221555199, 895.09093550604, 1017.79709618912, 1055.91573170044, 1088.91159616304, 1146.5530709391198, 1353.77808694076, 1399.01778622892, 1463.354571692, 1470.3726306890399, 1494.8053644576, 2061.4346581373993, 3012.63573069316, 3072.0282867258397, 3106.42501619372, 3110.62074422424, 3124.134971334, 3189.66661224276]

>  <ZPE_kJmol>  (2) 
219.25357474583132

>  <E_elec_kJmol>  (2) 
-409515.9038168737

>  <E0_minus_Eelec_plus_ZPE_kJmol>  (2) 
0.0

>  <rxn>  (2) 
rmg_rxn_14070

>  <species_type>  (2) 
p1

>  <species_folder>  (2) 
rmg_rxn_14070_p2_C=C=CC

>  <frequencies_cm1_list>  (2) 
[164.84884959192, 210.28769145436, 340.98015606459995, 540.2944049775999, 574.7186023867599, 878.6239047086799, 884.0282221555199, 895.09093550604, 1017.79709618912, 1055.91573170044, 1088.91159616304, 1146.5530709391198, 1353.77808694076, 1399.01778622892, 1463.354571692, 1470.3726306890399, 1494.8053644576, 2061.4346581373993, 3012.63573069316, 3072.0282867258397, 3106.42501619372, 3110.62074422424, 3124.134971334, 3189.66661224276]

>  <E0_kJmol>  (2) 
-409297

>  <H298_kJmol>  (2) 
-409281

$$$$

     RDKit          3D

 18 17  0  0  0  0  0  0  0  0999 V2000
   -1.0820   -1.3023   -0.5889 C   0  0  0  0  0  0  0  0  0  1  0  0
   -1.5650   -1.2127    0.8503 C   0  0  0  0  0  0  0  0  0  2  0  0
   -1.7336    0.2421    0.6213 N   0  0  0  0  0  0  0  0  0  3  0  0
   -1.4011    0.0906   -0.7484 O   0  0  0  0  0  0  0  0  0  4  0  0
   -1.6534   -1.9292   -1.2745 H   0  0  0  0  0  0  0  0  0  5  0  0
   -0.0114   -1.4799   -0.7140 H   0  0  0  0  0  0  0  0  0  6  0  0
   -0.8456   -1.4658    1.6285 H   0  0  0  0  0  0  0  0  0  7  0  0
   -2.5213   -1.6946    1.0540 H   0  0  0  0  0  0  0  0  0  8  0  0
   -0.7766    0.7694    1.0788 H   0  0  0  0  0  0  0  0  0  9  0  0
    0.5717    1.1226    1.4218 C   0  0  0  0  0  0  0  0  0 10  0  0
    1.3320    1.0889    0.4103 C   0  0  0  0  0  0  0  0  0 11  0  0
    2.0008    0.9961   -0.7286 C   0  0  0  0  0  3  0  0  0 12  0  0
    2.7101   -0.2400   -1.1866 C   0  0  0  0  0  0  0  0  0 13  0  0
    0.7009    1.3815    2.4605 H   0  0  0  0  0  0  0  0  0 14  0  0
    2.0387    1.8691   -1.3723 H   0  0  0  0  0  0  0  0  0 15  0  0
    2.2857   -0.5982   -2.1295 H   0  0  0  0  0  0  0  0  0 16  0  0
    2.6346   -1.0370   -0.4473 H   0  0  0  0  0  0  0  0  0 17  0  0
    3.7692   -0.0415   -1.3694 H   0  0  0  0  0  0  0  0  0 18  0  0
  1  5  1  0
  1  4  1  0
  1  6  1  0
  1  2  1  0
  2  3  1  0
  2  8  1  0
  2  7  1  0
  3  9  1  0
  3  4  1  0
 10 14  1  0
 10 11  1  0
 11 12  1  0
 12 15  1  0
 12 13  1  0
 13 17  1  0
 13 16  1  0
 13 18  1  0
M  RAD  1  12   2
M  END
>  <rmg_smiles>  (3) 
C1CNO1.[CH][C][CH]C

>  <rmg_adjacency_list>  (3) 
multiplicity 2
1  O u0 p2 c0 {2,S} {4,S}
2  N u0 p1 c0 {1,S} {3,S} {16,S}
3  C u0 p0 c0 {2,S} {4,S} {9,S} {10,S}
4  C u0 p0 c0 {1,S} {3,S} {11,S} {12,S}
5  C u0 p0 c0 {6,S} {13,S} {14,S} {15,S}
6  C u1 p0 c0 {5,S} {7,S} {17,S}
7  C u0 p1 c0 {6,S} {8,S}
8  C u0 p1 c0 {7,S} {18,S}
9  H u0 p0 c0 {3,S}
10 H u0 p0 c0 {3,S}
11 H u0 p0 c0 {4,S}
12 H u0 p0 c0 {4,S}
13 H u0 p0 c0 {5,S}
14 H u0 p0 c0 {5,S}
15 H u0 p0 c0 {5,S}
16 H u0 p0 c0 {2,S}
17 H u0 p0 c0 {6,S}
18 H u0 p0 c0 {8,S}


>  <multiplicity>  (3) 
2

>  <reaction>  (3) 
rmg_rxn_14070

>  <type>  (3) 
ts

>  <role_mapnums>  (3) 
{"*2": 9, "*1": 3, "*3": 10, "*0": 4, "*4": 11}

>  <role_mapidx>  (3) 
{"*2": 8, "*1": 2, "*3": 9, "*0": 3, "*4": 10}

>  <ordered_mapped_smiles>  (3) 
[C:1]1([H:5])([H:6])[C:2]([H:7])([H:8])[N:3]([H:9])[O:4]1.[CH2:10]([CH2:11][C:12]([C:13]([H:16])([H:17])[H:18])[H:15])[H:14]

>  <mol_properties>  (3) 
{"2": {"label": "*1", "atom_type": "N3s"}, "3": {"label": "*0", "atom_type": "O2s"}, "8": {"label": "*2", "atom_type": "H0"}, "9": {"label": "*3", "atom_type": "C2s"}, "10": {"label": "*4", "atom_type": "C2s"}}

>  <level_of_theory>  (3) 
wb97xd/def2tzvp

>  <lot_method>  (3) 
wb97xd

>  <lot_basis>  (3) 
def2tzvp

>  <spin_multiplicity>  (3) 
2.0

>  <optical_isomers>  (3) 
2.0

>  <modes>  (3) 
IdealGasTranslation(mass=(112.076, 'amu')),         NonlinearRotor(             inertia = ([160.103, 398.916, 475.458

>  <frequency_value>  (3) 
-1768.32

>  <frequency_units>  (3) 
cm^-1

>  <frequency_list>  (3) 
unknown

>  <arkane_path>  (3) 
/home/calvin/Dropbox/PersonalFolders/Calvin/ZEUS_Converged/rmg_rxn_14070/output/rxns/TS0/arkane/output.py

>  <path_exists>  (3) 
True

>  <E0_value>  (3) 
-956396.0

>  <E0_units>  (3) 
kJ/mol

>  <thermo_class>  (3) 
unknown

>  <Cp0_value>  (3) 
unknown

>  <Cp0_units>  (3) 
unknown

>  <CpInf_value>  (3) 
unknown

>  <CpInf_units>  (3) 
unknown

>  <Tmin_value>  (3) 
unknown

>  <Tmin_units>  (3) 
unknown

>  <Tmax_value>  (3) 
unknown

>  <Tmax_units>  (3) 
unknown

>  <polynomials>  (3) 
unknown

>  <H298_value>  (3) 
unknown

>  <H298_units>  (3) 
unknown

>  <S298_value>  (3) 
unknown

>  <S298_units>  (3) 
unknown

>  <Cp_T_value_list>  (3) 
unknown

>  <Cp_T_units>  (3) 
unknown

>  <T_list>  (3) 
unknown

>  <T_units>  (3) 
unknown

>  <yaml_path>  (3) 
unknown

>  <frequencies_cm1>  (3) 
unknown

>  <ZPE_kJmol>  (3) 
unknown

>  <E_elec_kJmol>  (3) 
unknown

>  <E0_minus_Eelec_plus_ZPE_kJmol>  (3) 
unknown

>  <rxn>  (3) 
unknown

>  <species_type>  (3) 
unknown

>  <species_folder>  (3) 
unknown

>  <frequencies_cm1_list>  (3) 
[]

>  <ts_imag_freq_cm1>  (3) 
-1789.7987

>  <ts_freq_out_path>  (3) 
/home/calvin/Dropbox/PersonalFolders/Calvin/ZEUS_Converged/rmg_rxn_14070/output/rxns/TS0/geometry/freq.out

>  <E0_kJmol>  (3) 
-956396

>  <H298_kJmol>  (3) 
unknown

$$$$

     RDKit          3D

  8  8  0  0  0  0  0  0  0  0999 V2000
    0.7709   -0.0208    0.0860 C   0  0  0  0  0  0  0  0  0  1  0  0
   -0.7145   -0.3116   -0.0627 C   0  0  0  0  0  0  0  0  0  2  0  0
   -0.9103    1.1413   -0.1588 N   0  0  0  0  0  2  0  0  0  3  0  0
    0.4415    1.3771   -0.0220 O   0  0  0  0  0  0  0  0  0  4  0  0
    1.4230   -0.3408   -0.7273 H   0  0  0  0  0  0  0  0  0  5  0  0
    1.2274   -0.2496    1.0495 H   0  0  0  0  0  0  0  0  0  6  0  0
   -1.2163   -0.7525    0.8013 H   0  0  0  0  0  0  0  0  0  7  0  0
   -1.0217   -0.8432   -0.9658 H   0  0  0  0  0  0  0  0  0  8  0  0
  1  5  1  0
  1  4  1  0
  1  6  1  0
  1  2  1  0
  2  3  1  0
  2  8  1  0
  2  7  1  0
  3  4  1  0
M  RAD  1   3   2
M  END
>  <rmg_smiles>  (4) 
C1C[N]O1

>  <rmg_adjacency_list>  (4) 
multiplicity 2
1 O u0 p2 c0 {2,S} {3,S}
2 N u1 p1 c0 {1,S} {4,S}
3 C u0 p0 c0 {1,S} {4,S} {5,S} {6,S}
4 C u0 p0 c0 {2,S} {3,S} {7,S} {8,S}
5 H u0 p0 c0 {3,S}
6 H u0 p0 c0 {3,S}
7 H u0 p0 c0 {4,S}
8 H u0 p0 c0 {4,S}


>  <multiplicity>  (4) 
2

>  <reaction>  (4) 
rmg_rxn_14070

>  <type>  (4) 
r1

>  <role_mapnums>  (4) 
{}

>  <role_mapidx>  (4) 
{}

>  <ordered_mapped_smiles>  (4) 
[C:1]1([H:5])([H:6])[C:2]([H:7])([H:8])[N:3][O:4]1

>  <level_of_theory>  (4) 
wb97xd/def2tzvp

>  <lot_method>  (4) 
wb97xd

>  <lot_basis>  (4) 
def2tzvp

>  <spin_multiplicity>  (4) 
2.0

>  <optical_isomers>  (4) 
1.0

>  <modes>  (4) 
IdealGasTranslation(mass=(58.0293, 'amu')),         NonlinearRotor(             inertia = ([36.1616, 38.1823, 67.9218

>  <frequency_value>  (4) 
unknown

>  <frequency_units>  (4) 
unknown

>  <frequency_list>  (4) 
unknown

>  <arkane_path>  (4) 
/home/calvin/Dropbox/PersonalFolders/Calvin/ZEUS_Converged/rmg_rxn_14070/output/Species/rmg_rxn_14070_p1_C1Csbr-N-sbrO1/arkane/output.py

>  <path_exists>  (4) 
True

>  <E0_value>  (4) 
-547192.5830183756

>  <E0_units>  (4) 
kJ/mol

>  <thermo_class>  (4) 
NASA

>  <Cp0_value>  (4) 
33.257888

>  <Cp0_units>  (4) 
J/(mol*K)

>  <CpInf_value>  (4) 
182.918384

>  <CpInf_units>  (4) 
J/(mol*K)

>  <Tmin_value>  (4) 
10.0

>  <Tmin_units>  (4) 
K

>  <Tmax_value>  (4) 
3000.0

>  <Tmax_units>  (4) 
K

>  <polynomials>  (4) 
[{"name": "polynomial1", "class": "NASAPolynomial", "Tmin_value": 10.0, "Tmin_units": "K", "Tmax_value": 721.2803246966065, "Tmax_units": "K", "coeffs": [4.081269324774337, -0.005774051499114103, 8.141477702070275e-05, -1.094902134935083e-07, 4.6973439735583125e-11, -65812067.94543052, 8.759725089878335]}, {"name": "polynomial2", "class": "NASAPolynomial", "Tmin_value": 721.2803246966065, "Tmin_units": "K", "Tmax_value": 3000.0, "Tmax_units": "K", "coeffs": [-0.4125713126623395, 0.030769588098054256, -1.8752548272813556e-05, 5.432472985850902e-09, -6.025436910445359e-13, -65811722.00074655, 26.87593611455925]}]

>  <H298_value>  (4) 
-130779.21979346684

>  <H298_units>  (4) 
kcal/mol

>  <S298_value>  (4) 
65.64177214242952

>  <S298_units>  (4) 
cal/(mol*K)

>  <Cp_T_value_list>  (4) 
[14.110423868599161, 17.871264907450385, 21.45686443400886, 24.569880452002437, 29.283658902293713, 32.65854216213234, 37.424654864791464, 39.61594848759476, 40.79201394168856]

>  <Cp_T_units>  (4) 
cal/(mol*K)

>  <T_list>  (4) 
[300.0, 400.0, 500.0, 600.0, 800.0, 1000.0, 1500.0, 2000.0, 2400.0]

>  <T_units>  (4) 
K

>  <yaml_path>  (4) 
/home/calvin/Dropbox/PersonalFolders/Calvin/ZEUS_Converged/rmg_rxn_14070/output/Species/rmg_rxn_14070_p1_C1Csbr-N-sbrO1/rmg_rxn_14070_p1_C1Csbr-N-sbrO1.yml

>  <frequencies_cm1>  (4) 
[190.59317755659998, 781.9436183884001, 878.41789514908, 959.5101247929599, 964.2964135609999, 1028.5851301268399, 1068.7707282194801, 1111.6069826456398, 1143.19511511764, 1178.53948855968, 1287.1477283808001, 1337.64067143876, 1467.2138174418399, 1509.27410252684, 3025.8958793460793, 3044.0109866202397, 3070.5312839260796, 3103.69882302168]

>  <ZPE_kJmol>  (4) 
162.39832502129732

>  <E_elec_kJmol>  (4) 
-547354.9813433968

>  <E0_minus_Eelec_plus_ZPE_kJmol>  (4) 
0.0

>  <rxn>  (4) 
rmg_rxn_14070

>  <species_type>  (4) 
p0

>  <species_folder>  (4) 
rmg_rxn_14070_p1_C1Csbr-N-sbrO1

>  <frequencies_cm1_list>  (4) 
[190.59317755659998, 781.9436183884001, 878.41789514908, 959.5101247929599, 964.2964135609999, 1028.5851301268399, 1068.7707282194801, 1111.6069826456398, 1143.19511511764, 1178.53948855968, 1287.1477283808001, 1337.64067143876, 1467.2138174418399, 1509.27410252684, 3025.8958793460793, 3044.0109866202397, 3070.5312839260796, 3103.69882302168]

>  <E0_kJmol>  (4) 
-547193

>  <H298_kJmol>  (4) 
-547180

$$$$

     RDKit          3D

  9  8  0  0  0  0  0  0  0  0999 V2000
    2.3032   -0.0159    0.1474 C   0  0  0  0  0  0  0  0  0  1  0  0
    1.1288    0.2882    0.0537 C   0  0  0  0  0  0  0  0  0  2  0  0
   -0.1975    0.6198   -0.0514 C   0  0  0  0  0  3  0  0  0  3  0  0
   -1.2977   -0.3866   -0.0637 C   0  0  0  0  0  0  0  0  0  4  0  0
    3.3305   -0.2768    0.2290 H   0  0  0  0  0  0  0  0  0  5  0  0
   -0.4545    1.6699   -0.1294 H   0  0  0  0  0  0  0  0  0  6  0  0
   -1.9941   -0.2122    0.7624 H   0  0  0  0  0  0  0  0  0  7  0  0
   -0.9106   -1.4008    0.0205 H   0  0  0  0  0  0  0  0  0  8  0  0
   -1.8810   -0.3144   -0.9870 H   0  0  0  0  0  0  0  0  0  9  0  0
  1  5  1  0
  1  2  1  0
  2  3  1  0
  3  4  1  0
  3  6  1  0
  4  8  1  0
  4  9  1  0
  4  7  1  0
M  RAD  1   3   2
M  END
>  <rmg_smiles>  (5) 
[CH]C[CH]C

>  <rmg_adjacency_list>  (5) 
multiplicity 2
1 C u0 p0 c0 {2,S} {5,S} {6,S} {7,S}
2 C u1 p0 c0 {1,S} {3,S} {8,S}
3 C u0 p1 c0 {2,S} {4,S}
4 C u0 p1 c0 {3,S} {9,S}
5 H u0 p0 c0 {1,S}
6 H u0 p0 c0 {1,S}
7 H u0 p0 c0 {1,S}
8 H u0 p0 c0 {2,S}
9 H u0 p0 c0 {4,S}


>  <multiplicity>  (5) 
2

>  <reaction>  (5) 
rmg_rxn_14070

>  <type>  (5) 
r2

>  <role_mapnums>  (5) 
{}

>  <role_mapidx>  (5) 
{}

>  <ordered_mapped_smiles>  (5) 
[CH2:1]([CH2:2][C:3]([C:4]([H:7])([H:8])[H:9])[H:6])[H:5]

>  <level_of_theory>  (5) 
wb97xd/def2tzvp

>  <lot_method>  (5) 
wb97xd

>  <lot_basis>  (5) 
def2tzvp

>  <spin_multiplicity>  (5) 
2.0

>  <optical_isomers>  (5) 
1.0

>  <modes>  (5) 
IdealGasTranslation(mass=(53.0391, 'amu')),         NonlinearRotor(             inertia = ([13.0163, 113.224, 123.133

>  <frequency_value>  (5) 
unknown

>  <frequency_units>  (5) 
unknown

>  <frequency_list>  (5) 
unknown

>  <arkane_path>  (5) 
/home/calvin/Dropbox/PersonalFolders/Calvin/ZEUS_Converged/rmg_rxn_14070/output/Species/rmg_rxn_14070_r2_CtCsbr-CH-sbrC/arkane/output.py

>  <path_exists>  (5) 
True

>  <E0_value>  (5) 
-407611.0178676695

>  <E0_units>  (5) 
kJ/mol

>  <thermo_class>  (5) 
NASA

>  <Cp0_value>  (5) 
33.257888

>  <Cp0_units>  (5) 
J/(mol*K)

>  <CpInf_value>  (5) 
207.8618

>  <CpInf_units>  (5) 
J/(mol*K)

>  <Tmin_value>  (5) 
10.0

>  <Tmin_units>  (5) 
K

>  <Tmax_value>  (5) 
3000.0

>  <Tmax_units>  (5) 
K

>  <polynomials>  (5) 
[{"name": "polynomial1", "class": "NASAPolynomial", "Tmin_value": 10.0, "Tmin_units": "K", "Tmax_value": 225.11887521318957, "Tmax_units": "K", "coeffs": [3.926630915296947, 0.006749895207816258, 0.00012836532533525932, -4.255246557274593e-07, 4.774973939090027e-10, -49024283.36301313, 9.039132667777825]}, {"name": "polynomial2", "class": "NASAPolynomial", "Tmin_value": 225.11887521318957, "Tmin_units": "K", "Tmax_value": 3000.0, "Tmax_units": "K", "coeffs": [2.6986748332678068, 0.028568074177661083, -1.700823692128483e-05, 4.972064259878094e-09, -5.660420030452739e-13, -49024228.07421419, 13.132307964760544]}]

>  <H298_value>  (5) 
-97417.4250763192

>  <H298_units>  (5) 
kcal/mol

>  <S298_value>  (5) 
72.15097842486317

>  <S298_units>  (5) 
cal/(mol*K)

>  <Cp_T_value_list>  (5) 
[19.60978665647869, 23.26682584091865, 26.463197946296326, 29.246037785772845, 33.74616181148779, 37.09028399063582, 42.12357583735745, 44.755303495765276, 46.19958894045869]

>  <Cp_T_units>  (5) 
cal/(mol*K)

>  <T_list>  (5) 
[300.0, 400.0, 500.0, 600.0, 800.0, 1000.0, 1500.0, 2000.0, 2400.0]

>  <T_units>  (5) 
K

>  <yaml_path>  (5) 
/home/calvin/Dropbox/PersonalFolders/Calvin/ZEUS_Converged/rmg_rxn_14070/output/Species/rmg_rxn_14070_r2_CtCsbr-CH-sbrC/rmg_rxn_14070_r2_CtCsbr-CH-sbrC.yml

>  <frequencies_cm1>  (5) 
[83.48880752056, 211.55808373855996, 392.1460636839199, 478.7318815838, 554.46786267808, 595.8689171723599, 660.0408949877599, 865.1234115695598, 998.98842339764, 1092.3794237496397, 1143.5041294570399, 1380.42198998236, 1394.47184194708, 1461.2464071987597, 1480.32289241772, 2005.2901861610799, 2994.3489487859997, 3043.5921005157197, 3109.5494945143196, 3150.5453968747197, 3427.4428459330793]

>  <ZPE_kJmol>  (5) 
182.57130571804632

>  <E_elec_kJmol>  (5) 
-407793.5891733875

>  <E0_minus_Eelec_plus_ZPE_kJmol>  (5) 
0.0

>  <rxn>  (5) 
rmg_rxn_14070

>  <species_type>  (5) 
r1

>  <species_folder>  (5) 
rmg_rxn_14070_r2_CtCsbr-CH-sbrC

>  <frequencies_cm1_list>  (5) 
[83.48880752056, 211.55808373855996, 392.1460636839199, 478.7318815838, 554.46786267808, 595.8689171723599, 660.0408949877599, 865.1234115695598, 998.98842339764, 1092.3794237496397, 1143.5041294570399, 1380.42198998236, 1394.47184194708, 1461.2464071987597, 1480.32289241772, 2005.2901861610799, 2994.3489487859997, 3043.5921005157197, 3109.5494945143196, 3150.5453968747197, 3427.4428459330793]

>  <E0_kJmol>  (5) 
-407611

>  <H298_kJmol>  (5) 
-407595

$$$$
