
     RDKit          3D

  6  5  0  0  0  0  0  0  0  0999 V2000
    0.3938   -0.2720    1.1717 C   0  0  0  0  0  0  0  0  0  1  0  0
   -0.0233    0.0575   -0.1511 C   0  0  0  0  0  2  0  0  0  2  0  0
   -0.4037    0.2812   -1.2144 N   0  0  0  0  0  0  0  0  0  3  0  0
   -0.3441   -0.9640    1.5682 H   0  0  0  0  0  0  0  0  0  4  0  0
    1.3299   -0.8221    1.2116 H   0  0  0  0  0  0  0  0  0  5  0  0
    0.3474    0.5615    1.8673 H   0  0  0  0  0  0  0  0  0  6  0  0
  1  5  1  0
  1  4  1  0
  1  6  1  0
  1  2  1  0
  2  3  1  0
M  RAD  1   2   3
M  END
>  <rmg_smiles>  (1) 
C[C][N]

>  <rmg_adjacency_list>  (1) 
1 N u0 p2 c0 {3,S}
2 C u0 p0 c0 {3,S} {4,S} {5,S} {6,S}
3 C u0 p1 c0 {1,S} {2,S}
4 H u0 p0 c0 {2,S}
5 H u0 p0 c0 {2,S}
6 H u0 p0 c0 {2,S}


>  <multiplicity>  (1) 
1

>  <reaction>  (1) 
rmg_rxn_307

>  <type>  (1) 
r1h

>  <role_mapnums>  (1) 
{"r1h_a": 1, "r1h_h": 4}

>  <role_mapidx>  (1) 
{"r1h_a": 0, "r1h_h": 3}

>  <ordered_mapped_smiles>  (1) 
[C:1]([C:2][NH2:3])([H:4])([H:5])[H:6]

>  <mol_properties>  (1) 
{"0": {"label": "donator", "atom_type": "Cs"}, "3": {"label": "d_hydrogen", "atom_type": "H0"}}

>  <level_of_theory>  (1) 
wb97xd/def2tzvp

>  <lot_method>  (1) 
wb97xd

>  <lot_basis>  (1) 
def2tzvp

>  <spin_multiplicity>  (1) 
1.0

>  <optical_isomers>  (1) 
1.0

>  <modes>  (1) 
IdealGasTranslation(mass=(41.0266, 'amu')),         NonlinearRotor(             inertia = ([3.17088, 54.2986, 54.2986

>  <frequency_value>  (1) 
unknown

>  <frequency_units>  (1) 
unknown

>  <frequency_list>  (1) 
unknown

>  <arkane_path>  (1) 
/home/calvin/Dropbox/PersonalFolders/Calvin/ATLAS_Converged/rmg_rxn_307/output/Species/rmg_rxn_307_r1_CCtN/arkane/output.py

>  <path_exists>  (1) 
True

>  <E0_value>  (1) 
-348435.7290944858

>  <E0_units>  (1) 
kJ/mol

>  <thermo_class>  (1) 
NASA

>  <Cp0_value>  (1) 
33.257888

>  <Cp0_units>  (1) 
J/(mol*K)

>  <CpInf_value>  (1) 
133.031552

>  <CpInf_units>  (1) 
J/(mol*K)

>  <Tmin_value>  (1) 
10.0

>  <Tmin_units>  (1) 
K

>  <Tmax_value>  (1) 
3000.0

>  <Tmax_units>  (1) 
K

>  <polynomials>  (1) 
[{"name": "polynomial1", "class": "NASAPolynomial", "Tmin_value": 10.0, "Tmin_units": "K", "Tmax_value": 511.0047217811454, "Tmax_units": "K", "coeffs": [3.9891826765760365, 0.0005009089420291138, 3.81914805026896e-05, -5.897492548510201e-08, 2.9733594077892804e-11, -41907137.48145763, 5.038698918911015]}, {"name": "polynomial2", "class": "NASAPolynomial", "Tmin_value": 511.0047217811454, "Tmin_units": "K", "Tmax_value": 3000.0, "Tmax_units": "K", "coeffs": [1.9459503138127907, 0.016494897079574664, -8.757595355908857e-06, 2.2763036875881413e-09, -2.327551492775615e-13, -41906928.66307153, 13.524317380785753]}]

>  <H298_value>  (1) 
-83275.2633014586

>  <H298_units>  (1) 
kcal/mol

>  <S298_value>  (1) 
57.92485573002877

>  <S298_units>  (1) 
cal/(mol*K)

>  <Cp_T_value_list>  (1) 
[12.37077326759869, 14.480710005326102, 16.442129136256206, 18.18625963405398, 21.078573448235012, 23.303574339623086, 26.803259226518527, 28.599299992988165, 29.480842343276066]

>  <Cp_T_units>  (1) 
cal/(mol*K)

>  <T_list>  (1) 
[300.0, 400.0, 500.0, 600.0, 800.0, 1000.0, 1500.0, 2000.0, 2400.0]

>  <T_units>  (1) 
K

>  <yaml_path>  (1) 
/home/calvin/Dropbox/PersonalFolders/Calvin/ATLAS_Converged/rmg_rxn_307/output/Species/rmg_rxn_307_r1_CCtN/rmg_rxn_307_r1_CCtN.yml

>  <frequencies_cm1>  (1) 
[383.692804755, 383.87134637331997, 927.5237071724, 1053.3268782348, 1053.59469066228, 1399.2855986564, 1460.8824569768, 1461.14340241896, 2373.9992289478396, 3039.28650072008, 3120.96242411616, 3121.60792073624]

>  <ZPE_kJmol>  (1) 
118.30578452478277

>  <E_elec_kJmol>  (1) 
-348554.0348790106

>  <E0_minus_Eelec_plus_ZPE_kJmol>  (1) 
0.0

>  <rxn>  (1) 
rmg_rxn_307

>  <species_type>  (1) 
r0

>  <species_folder>  (1) 
rmg_rxn_307_r1_CCtN

>  <frequencies_cm1_list>  (1) 
[383.692804755, 383.87134637331997, 927.5237071724, 1053.3268782348, 1053.59469066228, 1399.2855986564, 1460.8824569768, 1461.14340241896, 2373.9992289478396, 3039.28650072008, 3120.96242411616, 3121.60792073624]

>  <E0_kJmol>  (1) 
-348436

>  <H298_kJmol>  (1) 
-348424

$$$$

     RDKit          3D

 12 11  0  0  0  0  0  0  0  0999 V2000
    0.6102    1.7679    0.7189 H   0  0  0  0  0  0  0  0  0  1  0  0
    0.5390   -1.5836   -0.0110 C   0  0  0  0  0  0  0  0  0  2  0  0
    0.1902   -0.3928   -0.8922 C   0  0  0  0  0  0  0  0  0  3  0  0
   -0.6701    0.6438   -0.1863 C   0  0  0  0  0  0  0  0  0  4  0  0
   -0.0987    1.1719    0.9716 O   0  0  0  0  0  0  0  0  0  5  0  0
   -0.3626   -2.1170    0.2994 H   0  0  0  0  0  0  0  0  0  6  0  0
    1.1800   -2.2899   -0.5397 H   0  0  0  0  0  0  0  0  0  7  0  0
    1.0601   -1.2600    0.8908 H   0  0  0  0  0  0  0  0  0  8  0  0
    1.1032    0.0952   -1.2476 H   0  0  0  0  0  0  0  0  0  9  0  0
   -0.3445   -0.7229   -1.7871 H   0  0  0  0  0  0  0  0  0 10  0  0
   -0.9616    1.4470   -0.8770 H   0  0  0  0  0  0  0  0  0 11  0  0
   -1.6094    0.1897    0.1619 H   0  0  0  0  0  0  0  0  0 12  0  0
  1  5  1  0
  2  7  1  0
  2  8  1  0
  2  6  1  0
  2  3  1  0
  3  4  1  0
  3  9  1  0
  3 10  1  0
  4 12  1  0
  4 11  1  0
  4  5  1  0
M  END
>  <rmg_smiles>  (2) 
CCCO

>  <rmg_adjacency_list>  (2) 
1  O u0 p2 c0 {3,S} {12,S}
2  C u0 p0 c0 {3,S} {4,S} {5,S} {6,S}
3  C u0 p0 c0 {1,S} {2,S} {7,S} {8,S}
4  C u0 p0 c0 {2,S} {9,S} {10,S} {11,S}
5  H u0 p0 c0 {2,S}
6  H u0 p0 c0 {2,S}
7  H u0 p0 c0 {3,S}
8  H u0 p0 c0 {3,S}
9  H u0 p0 c0 {4,S}
10 H u0 p0 c0 {4,S}
11 H u0 p0 c0 {4,S}
12 H u0 p0 c0 {1,S}


>  <multiplicity>  (2) 
1

>  <reaction>  (2) 
rmg_rxn_307

>  <type>  (2) 
r2h

>  <role_mapnums>  (2) 
{"r2h_a": 5, "r2h_h": 1}

>  <role_mapidx>  (2) 
{"r2h_a": 4, "r2h_h": 0}

>  <ordered_mapped_smiles>  (2) 
[H:1][O:5][C:4]([C:3]([C:2]([H:6])([H:7])[H:8])([H:9])[H:10])([H:11])[H:12]

>  <mol_properties>  (2) 
{"0": {"label": "a_hydrogen", "atom_type": "H0"}, "4": {"label": "acceptor", "atom_type": "O2s"}}

>  <level_of_theory>  (2) 
wb97xd/def2tzvp

>  <lot_method>  (2) 
wb97xd

>  <lot_basis>  (2) 
def2tzvp

>  <spin_multiplicity>  (2) 
1.0

>  <optical_isomers>  (2) 
2.0

>  <modes>  (2) 
IdealGasTranslation(mass=(60.0575, 'amu')),         NonlinearRotor(             inertia = ([35.1424, 100.065, 117.206

>  <frequency_value>  (2) 
unknown

>  <frequency_units>  (2) 
unknown

>  <frequency_list>  (2) 
unknown

>  <arkane_path>  (2) 
/home/calvin/Dropbox/PersonalFolders/Calvin/ATLAS_Converged/rmg_rxn_307/output/Species/rmg_rxn_307_p2_CCCO/arkane/output.py

>  <path_exists>  (2) 
True

>  <E0_value>  (2) 
-510044.1612319262

>  <E0_units>  (2) 
kJ/mol

>  <thermo_class>  (2) 
NASA

>  <Cp0_value>  (2) 
33.257888

>  <Cp0_units>  (2) 
J/(mol*K)

>  <CpInf_value>  (2) 
282.692048

>  <CpInf_units>  (2) 
J/(mol*K)

>  <Tmin_value>  (2) 
10.0

>  <Tmin_units>  (2) 
K

>  <Tmax_value>  (2) 
3000.0

>  <Tmax_units>  (2) 
K

>  <polynomials>  (2) 
[{"name": "polynomial1", "class": "NASAPolynomial", "Tmin_value": 10.0, "Tmin_units": "K", "Tmax_value": 846.630243671272, "Tmax_units": "K", "coeffs": [3.8720978777463686, 0.013345662780498998, 4.415015699122346e-05, -6.075841520168734e-08, 2.3383100872024888e-11, -61344143.9223187, 9.28781423359728]}, {"name": "polynomial2", "class": "NASAPolynomial", "Tmin_value": 846.630243671272, "Tmin_units": "K", "Tmax_value": 3000.0, "Tmax_units": "K", "coeffs": [0.5209390554344657, 0.03976278268823128, -2.1406169220008097e-05, 5.629208352304104e-09, -5.806874827181009e-13, -61343955.81217305, 22.657055508437733]}]

>  <H298_value>  (2) 
-121899.45329310188

>  <H298_units>  (2) 
kcal/mol

>  <S298_value>  (2) 
73.11930156339949

>  <S298_units>  (2) 
cal/(mol*K)

>  <Cp_T_value_list>  (2) 
[20.66344366355699, 25.80279719874869, 30.70057266079499, 35.13417708434275, 42.2761055553147, 47.546048589404705, 55.76117369247855, 59.943079860189705, 62.009670071783674]

>  <Cp_T_units>  (2) 
cal/(mol*K)

>  <T_list>  (2) 
[300.0, 400.0, 500.0, 600.0, 800.0, 1000.0, 1500.0, 2000.0, 2400.0]

>  <T_units>  (2) 
K

>  <yaml_path>  (2) 
/home/calvin/Dropbox/PersonalFolders/Calvin/ATLAS_Converged/rmg_rxn_307/output/Species/rmg_rxn_307_p2_CCCO/rmg_rxn_307_p2_CCCO.yml

>  <frequencies_cm1>  (2) 
[147.21443129015998, 221.70748804151998, 281.96528422451996, 327.68567248508, 495.52852767651996, 773.66203409248, 866.8264239289199, 907.7811243773999, 991.0089864557999, 1085.4025666645198, 1095.06441500976, 1132.10493382584, 1235.87194899636, 1297.47567430208, 1365.5206318379599, 1374.09062951732, 1401.64784160648, 1415.7594964390798, 1471.3065406925598, 1481.4628119808397, 1492.95814540652, 1498.9667575615201, 2976.8724711465998, 2996.07942908664, 3016.6597840906798, 3038.2633199074, 3059.4823045462003, 3086.4558228831597, 3100.9245609523996, 3838.2877106433593]

>  <ZPE_kJmol>  (2) 
283.9578863328584

>  <E_elec_kJmol>  (2) 
-510328.1191182591

>  <E0_minus_Eelec_plus_ZPE_kJmol>  (2) 
0.0

>  <rxn>  (2) 
rmg_rxn_307

>  <species_type>  (2) 
p1

>  <species_folder>  (2) 
rmg_rxn_307_p2_CCCO

>  <frequencies_cm1_list>  (2) 
[147.21443129015998, 221.70748804151998, 281.96528422451996, 327.68567248508, 495.52852767651996, 773.66203409248, 866.8264239289199, 907.7811243773999, 991.0089864557999, 1085.4025666645198, 1095.06441500976, 1132.10493382584, 1235.87194899636, 1297.47567430208, 1365.5206318379599, 1374.09062951732, 1401.64784160648, 1415.7594964390798, 1471.3065406925598, 1481.4628119808397, 1492.95814540652, 1498.9667575615201, 2976.8724711465998, 2996.07942908664, 3016.6597840906798, 3038.2633199074, 3059.4823045462003, 3086.4558228831597, 3100.9245609523996, 3838.2877106433593]

>  <E0_kJmol>  (2) 
-510044

>  <H298_kJmol>  (2) 
-510027

$$$$

     RDKit          3D

 17 15  0  0  0  0  0  0  0  0999 V2000
    1.0624    1.6339    0.5973 C   0  0  0  0  0  0  0  0  0  1  0  0
    0.6453    1.9633   -0.7256 C   0  0  0  0  0  0  0  0  0  2  0  0
    0.2648    2.1870   -1.7888 N   0  0  0  0  0  2  0  0  0  3  0  0
    0.1880    0.8139    1.0670 H   0  0  0  0  0  0  0  0  0  4  0  0
    1.9984    1.0837    0.6371 H   0  0  0  0  0  0  0  0  0  5  0  0
    1.0159    2.4674    1.2929 H   0  0  0  0  0  0  0  0  0  6  0  0
   -0.0709   -2.6953    0.4040 C   0  0  0  0  0  0  0  0  0  7  0  0
   -0.4197   -1.5045   -0.4772 C   0  0  0  0  0  0  0  0  0  8  0  0
   -1.2800   -0.4680    0.2288 C   0  0  0  0  0  0  0  0  0  9  0  0
   -0.7086    0.0602    1.3867 O   0  0  0  0  0  0  0  0  0 10  0  0
   -0.9725   -3.2288    0.7144 H   0  0  0  0  0  0  0  0  0 11  0  0
    0.5701   -3.4017   -0.1246 H   0  0  0  0  0  0  0  0  0 12  0  0
    0.4501   -2.3718    1.3059 H   0  0  0  0  0  0  0  0  0 13  0  0
    0.4933   -1.0165   -0.8325 H   0  0  0  0  0  0  0  0  0 14  0  0
   -0.9544   -1.8346   -1.3720 H   0  0  0  0  0  0  0  0  0 15  0  0
   -1.5715    0.3353   -0.4620 H   0  0  0  0  0  0  0  0  0 16  0  0
   -2.2194   -0.9221    0.5770 H   0  0  0  0  0  0  0  0  0 17  0  0
  1  5  1  0
  1  6  1  0
  1  2  1  0
  2  3  1  0
  4 10  1  0
  7 13  1  0
  7 12  1  0
  7  8  1  0
  7 11  1  0
  8  9  1  0
  8 14  1  0
  8 15  1  0
  9 10  1  0
  9 17  1  0
  9 16  1  0
M  RAD  1   3   2
M  END
>  <rmg_smiles>  (3) 
CCCO.[CH2][C][N]

>  <rmg_adjacency_list>  (3) 
multiplicity 2
1  O u0 p2 c0 {4,S} {17,S}
2  N u1 p2 c0 {7,S}
3  C u0 p0 c0 {4,S} {5,S} {8,S} {9,S}
4  C u0 p0 c0 {1,S} {3,S} {10,S} {11,S}
5  C u0 p0 c0 {3,S} {12,S} {13,S} {14,S}
6  C u0 p0 c0 {7,S} {15,S} {16,S}
7  C u0 p1 c0 {2,S} {6,S}
8  H u0 p0 c0 {3,S}
9  H u0 p0 c0 {3,S}
10 H u0 p0 c0 {4,S}
11 H u0 p0 c0 {4,S}
12 H u0 p0 c0 {5,S}
13 H u0 p0 c0 {5,S}
14 H u0 p0 c0 {5,S}
15 H u0 p0 c0 {6,S}
16 H u0 p0 c0 {6,S}
17 H u0 p0 c0 {1,S}


>  <multiplicity>  (3) 
2

>  <reaction>  (3) 
rmg_rxn_307

>  <type>  (3) 
ts

>  <role_mapnums>  (3) 
{"*2": 4, "*1": 1, "*3": 10, "*0": 9, "*4": 2}

>  <role_mapidx>  (3) 
{"*2": 3, "*1": 0, "*3": 9, "*0": 8, "*4": 1}

>  <ordered_mapped_smiles>  (3) 
[CH:1]([CH2:2][NH:3])([H:5])[H:6].[H:4][O:10][C:9]([C:8]([C:7]([H:11])([H:12])[H:13])([H:14])[H:15])([H:16])[H:17]

>  <mol_properties>  (3) 
{"0": {"label": "*1", "atom_type": "Cs"}, "1": {"label": "*4", "atom_type": "C2s"}, "3": {"label": "*2", "atom_type": "H0"}, "8": {"label": "*0", "atom_type": "Cs"}, "9": {"label": "*3", "atom_type": "O2s"}}

>  <level_of_theory>  (3) 
wb97xd/def2tzvp

>  <lot_method>  (3) 
wb97xd

>  <lot_basis>  (3) 
def2tzvp

>  <spin_multiplicity>  (3) 
2.0

>  <optical_isomers>  (3) 
2.0

>  <modes>  (3) 
IdealGasTranslation(mass=(100.076, 'amu')),         NonlinearRotor(             inertia = ([127.518, 383.659, 421.286

>  <frequency_value>  (3) 
-1866.67

>  <frequency_units>  (3) 
cm^-1

>  <frequency_list>  (3) 
unknown

>  <arkane_path>  (3) 
/home/calvin/Dropbox/PersonalFolders/Calvin/ATLAS_Converged/rmg_rxn_307/output/rxns/TS0/arkane/output.py

>  <path_exists>  (3) 
True

>  <E0_value>  (3) 
-856714.0

>  <E0_units>  (3) 
kJ/mol

>  <thermo_class>  (3) 
unknown

>  <Cp0_value>  (3) 
unknown

>  <Cp0_units>  (3) 
unknown

>  <CpInf_value>  (3) 
unknown

>  <CpInf_units>  (3) 
unknown

>  <Tmin_value>  (3) 
unknown

>  <Tmin_units>  (3) 
unknown

>  <Tmax_value>  (3) 
unknown

>  <Tmax_units>  (3) 
unknown

>  <polynomials>  (3) 
unknown

>  <H298_value>  (3) 
unknown

>  <H298_units>  (3) 
unknown

>  <S298_value>  (3) 
unknown

>  <S298_units>  (3) 
unknown

>  <Cp_T_value_list>  (3) 
unknown

>  <Cp_T_units>  (3) 
unknown

>  <T_list>  (3) 
unknown

>  <T_units>  (3) 
unknown

>  <yaml_path>  (3) 
unknown

>  <frequencies_cm1>  (3) 
unknown

>  <ZPE_kJmol>  (3) 
unknown

>  <E_elec_kJmol>  (3) 
unknown

>  <E0_minus_Eelec_plus_ZPE_kJmol>  (3) 
unknown

>  <rxn>  (3) 
unknown

>  <species_type>  (3) 
unknown

>  <species_folder>  (3) 
unknown

>  <frequencies_cm1_list>  (3) 
[]

>  <ts_imag_freq_cm1>  (3) 
-1889.3384

>  <ts_freq_out_path>  (3) 
/home/calvin/Dropbox/PersonalFolders/Calvin/ATLAS_Converged/rmg_rxn_307/output/rxns/TS0/geometry/freq.out

>  <E0_kJmol>  (3) 
-856714

>  <H298_kJmol>  (3) 
unknown

$$$$

     RDKit          3D

  5  4  0  0  0  0  0  0  0  0999 V2000
   -0.5684   -0.0010    0.0059 C   0  0  0  0  0  0  0  0  0  1  0  0
    0.8107    0.0015   -0.0083 C   0  0  0  0  0  0  0  0  0  2  0  0
    1.9722    0.0036   -0.0203 N   0  0  0  0  0  2  0  0  0  3  0  0
   -1.1085    0.9327    0.0554 H   0  0  0  0  0  0  0  0  0  4  0  0
   -1.1060   -0.9368   -0.0326 H   0  0  0  0  0  0  0  0  0  5  0  0
  1  5  1  0
  1  4  1  0
  1  2  1  0
  2  3  1  0
M  RAD  1   3   2
M  END
>  <rmg_smiles>  (4) 
[CH2][C][N]

>  <rmg_adjacency_list>  (4) 
multiplicity 2
1 N u1 p2 c0 {3,S}
2 C u0 p0 c0 {3,S} {4,S} {5,S}
3 C u0 p1 c0 {1,S} {2,S}
4 H u0 p0 c0 {2,S}
5 H u0 p0 c0 {2,S}


>  <multiplicity>  (4) 
2

>  <reaction>  (4) 
rmg_rxn_307

>  <type>  (4) 
r1

>  <role_mapnums>  (4) 
{}

>  <role_mapidx>  (4) 
{}

>  <ordered_mapped_smiles>  (4) 
[CH:1]([CH2:2][NH:3])([H:4])[H:5]

>  <level_of_theory>  (4) 
wb97xd/def2tzvp

>  <lot_method>  (4) 
wb97xd

>  <lot_basis>  (4) 
def2tzvp

>  <spin_multiplicity>  (4) 
2.0

>  <optical_isomers>  (4) 
1.0

>  <modes>  (4) 
IdealGasTranslation(mass=(40.0187, 'amu')),         NonlinearRotor(             inertia = ([1.76513, 48.7017, 50.4668

>  <frequency_value>  (4) 
unknown

>  <frequency_units>  (4) 
unknown

>  <frequency_list>  (4) 
unknown

>  <arkane_path>  (4) 
/home/calvin/Dropbox/PersonalFolders/Calvin/ATLAS_Converged/rmg_rxn_307/output/Species/rmg_rxn_307_p1_C=C=sbr-N-sbr/arkane/output.py

>  <path_exists>  (4) 
True

>  <E0_value>  (4) 
-346728.38264853635

>  <E0_units>  (4) 
kJ/mol

>  <thermo_class>  (4) 
NASA

>  <Cp0_value>  (4) 
33.257888

>  <Cp0_units>  (4) 
J/(mol*K)

>  <CpInf_value>  (4) 
108.088136

>  <CpInf_units>  (4) 
J/(mol*K)

>  <Tmin_value>  (4) 
10.0

>  <Tmin_units>  (4) 
K

>  <Tmax_value>  (4) 
3000.0

>  <Tmax_units>  (4) 
K

>  <polynomials>  (4) 
[{"name": "polynomial1", "class": "NASAPolynomial", "Tmin_value": 10.0, "Tmin_units": "K", "Tmax_value": 527.0040671405167, "Tmax_units": "K", "coeffs": [3.9747449037282667, 0.0015353266756051366, 3.910302806424709e-05, -7.628994234029245e-08, 4.625865338238857e-11, -41701791.02109744, 5.577294410619089]}, {"name": "polynomial2", "class": "NASAPolynomial", "Tmin_value": 527.0040671405167, "Tmin_units": "K", "Tmax_value": 3000.0, "Tmax_units": "K", "coeffs": [3.239686817488942, 0.012530223097608446, -7.6062340101612755e-06, 2.2976789442675366e-09, -2.720349597801524e-13, -41701788.75209308, 7.939154814916592]}]

>  <H298_value>  (4) 
-82867.15118152696

>  <H298_units>  (4) 
kcal/mol

>  <S298_value>  (4) 
59.28592081605119

>  <S298_units>  (4) 
cal/(mol*K)

>  <Cp_T_value_list>  (4) 
[12.458755549788354, 14.202615101020045, 15.645452255252858, 16.852741911548225, 18.800685733817065, 20.248282724582875, 22.45242163881558, 23.65584364189494, 24.31935565202786]

>  <Cp_T_units>  (4) 
cal/(mol*K)

>  <T_list>  (4) 
[300.0, 400.0, 500.0, 600.0, 800.0, 1000.0, 1500.0, 2000.0, 2400.0]

>  <T_units>  (4) 
K

>  <yaml_path>  (4) 
/home/calvin/Dropbox/PersonalFolders/Calvin/ATLAS_Converged/rmg_rxn_307/output/Species/rmg_rxn_307_p1_C=C=sbr-N-sbr/rmg_rxn_307_p1_C=C=sbr-N-sbr.yml

>  <frequencies_cm1>  (4) 
[384.97006402451996, 436.79520223456, 664.47696750448, 1026.5799704134, 1046.4118240175599, 1433.3733137848799, 2141.73031748416, 3149.6183538565197, 3258.5150070610794]

>  <ZPE_kJmol>  (4) 
81.00198818833644

>  <E_elec_kJmol>  (4) 
-346809.3846367247

>  <E0_minus_Eelec_plus_ZPE_kJmol>  (4) 
0.0

>  <rxn>  (4) 
rmg_rxn_307

>  <species_type>  (4) 
p0

>  <species_folder>  (4) 
rmg_rxn_307_p1_C=C=sbr-N-sbr

>  <frequencies_cm1_list>  (4) 
[384.97006402451996, 436.79520223456, 664.47696750448, 1026.5799704134, 1046.4118240175599, 1433.3733137848799, 2141.73031748416, 3149.6183538565197, 3258.5150070610794]

>  <E0_kJmol>  (4) 
-346728

>  <H298_kJmol>  (4) 
-346716

$$$$

     RDKit          3D

 11 10  0  0  0  0  0  0  0  0999 V2000
   -1.2230    0.3768   -0.0849 C   0  0  0  0  0  0  0  0  0  1  0  0
   -0.0734   -0.5533    0.2746 C   0  0  0  0  0  0  0  0  0  2  0  0
   -0.0853   -1.8426   -0.5372 C   0  0  0  0  0  0  0  0  0  3  0  0
    0.0319   -1.6944   -1.8815 O   0  0  0  0  0  1  0  0  0  4  0  0
   -2.1874   -0.0885    0.1341 H   0  0  0  0  0  0  0  0  0  5  0  0
   -1.1670    1.3099    0.4765 H   0  0  0  0  0  0  0  0  0  6  0  0
   -1.2014    0.6189   -1.1483 H   0  0  0  0  0  0  0  0  0  7  0  0
    0.8834   -0.0518    0.1071 H   0  0  0  0  0  0  0  0  0  8  0  0
   -0.1104   -0.8149    1.3362 H   0  0  0  0  0  0  0  0  0  9  0  0
    0.6767   -2.5604   -0.1861 H   0  0  0  0  0  0  0  0  0 10  0  0
   -1.0401   -2.3871   -0.3877 H   0  0  0  0  0  0  0  0  0 11  0  0
  1  5  1  0
  1  7  1  0
  1  6  1  0
  1  2  1  0
  2  9  1  0
  2  8  1  0
  2  3  1  0
  3 11  1  0
  3  4  1  0
  3 10  1  0
M  RAD  1   4   2
M  END
>  <rmg_smiles>  (5) 
CCC[O]

>  <rmg_adjacency_list>  (5) 
multiplicity 2
1  O u1 p2 c0 {4,S}
2  C u0 p0 c0 {3,S} {4,S} {5,S} {6,S}
3  C u0 p0 c0 {2,S} {7,S} {8,S} {9,S}
4  C u0 p0 c0 {1,S} {2,S} {10,S} {11,S}
5  H u0 p0 c0 {2,S}
6  H u0 p0 c0 {2,S}
7  H u0 p0 c0 {3,S}
8  H u0 p0 c0 {3,S}
9  H u0 p0 c0 {3,S}
10 H u0 p0 c0 {4,S}
11 H u0 p0 c0 {4,S}


>  <multiplicity>  (5) 
2

>  <reaction>  (5) 
rmg_rxn_307

>  <type>  (5) 
r2

>  <role_mapnums>  (5) 
{}

>  <role_mapidx>  (5) 
{}

>  <ordered_mapped_smiles>  (5) 
[C:1]([C:2]([C:3]([O:4])([H:10])[H:11])([H:8])[H:9])([H:5])([H:6])[H:7]

>  <level_of_theory>  (5) 
wb97xd/def2tzvp

>  <lot_method>  (5) 
wb97xd

>  <lot_basis>  (5) 
def2tzvp

>  <spin_multiplicity>  (5) 
2.0

>  <optical_isomers>  (5) 
2.0

>  <modes>  (5) 
IdealGasTranslation(mass=(59.0497, 'amu')),         NonlinearRotor(             inertia = ([32.4351, 96.9472, 113.933

>  <frequency_value>  (5) 
unknown

>  <frequency_units>  (5) 
unknown

>  <frequency_list>  (5) 
unknown

>  <arkane_path>  (5) 
/home/calvin/Dropbox/PersonalFolders/Calvin/ATLAS_Converged/rmg_rxn_307/output/Species/rmg_rxn_307_r2_CCCsbr-O-sbr/arkane/output.py

>  <path_exists>  (5) 
True

>  <E0_value>  (5) 
-508312.7768161693

>  <E0_units>  (5) 
kJ/mol

>  <thermo_class>  (5) 
NASA

>  <Cp0_value>  (5) 
33.257888

>  <Cp0_units>  (5) 
J/(mol*K)

>  <CpInf_value>  (5) 
257.748632

>  <CpInf_units>  (5) 
J/(mol*K)

>  <Tmin_value>  (5) 
10.0

>  <Tmin_units>  (5) 
K

>  <Tmax_value>  (5) 
3000.0

>  <Tmax_units>  (5) 
K

>  <polynomials>  (5) 
[{"name": "polynomial1", "class": "NASAPolynomial", "Tmin_value": 10.0, "Tmin_units": "K", "Tmax_value": 785.3717716926154, "Tmax_units": "K", "coeffs": [3.8724275172824187, 0.01202069912351536, 4.544202486520592e-05, -6.564450088148968e-08, 2.686947096257633e-11, -61135905.34396986, 9.973124702618271]}, {"name": "polynomial2", "class": "NASAPolynomial", "Tmin_value": 785.3717716926154, "Tmin_units": "K", "Tmax_value": 3000.0, "Tmax_units": "K", "coeffs": [0.6849760368426276, 0.037501340839522466, -2.0884233759964417e-05, 5.647799967688214e-09, -5.962580160166516e-13, -61135689.844430506, 22.765160719957294]}]

>  <H298_value>  (5) 
-121485.75019145291

>  <H298_units>  (5) 
kcal/mol

>  <S298_value>  (5) 
73.74225739173869

>  <S298_units>  (5) 
cal/(mol*K)

>  <Cp_T_value_list>  (5) 
[19.89921160802715, 24.71695701807689, 29.245842514069615, 33.279841046223126, 39.679715519605324, 44.42126905520667, 51.647954059212324, 55.2304186783069, 57.00855164862186]

>  <Cp_T_units>  (5) 
cal/(mol*K)

>  <T_list>  (5) 
[300.0, 400.0, 500.0, 600.0, 800.0, 1000.0, 1500.0, 2000.0, 2400.0]

>  <T_units>  (5) 
K

>  <yaml_path>  (5) 
/home/calvin/Dropbox/PersonalFolders/Calvin/ATLAS_Converged/rmg_rxn_307/output/Species/rmg_rxn_307_r2_CCCsbr-O-sbr/rmg_rxn_307_r2_CCCsbr-O-sbr.yml

>  <frequencies_cm1>  (5) 
[137.93713412284, 222.36671863223998, 308.28643895607996, 429.70160639899996, 504.1397272677999, 783.2964144964401, 869.12686401112, 973.4157700659599, 995.0261728679999, 1094.40518441904, 1104.0052298964, 1206.5018527827199, 1284.0026491042397, 1339.0209354880799, 1351.92400090436, 1370.7120727398797, 1408.8169742805599, 1470.9906593678397, 1485.0061764059599, 1493.1984898927199, 2865.86078646348, 2916.58720702232, 3013.99539378652, 3016.570513281519, 3055.2591085743998, 3086.8403740610793, 3099.85331124248]

>  <ZPE_kJmol>  (5) 
244.5577291513973

>  <E_elec_kJmol>  (5) 
-508557.3345453207

>  <E0_minus_Eelec_plus_ZPE_kJmol>  (5) 
0.0

>  <rxn>  (5) 
rmg_rxn_307

>  <species_type>  (5) 
r1

>  <species_folder>  (5) 
rmg_rxn_307_r2_CCCsbr-O-sbr

>  <frequencies_cm1_list>  (5) 
[137.93713412284, 222.36671863223998, 308.28643895607996, 429.70160639899996, 504.1397272677999, 783.2964144964401, 869.12686401112, 973.4157700659599, 995.0261728679999, 1094.40518441904, 1104.0052298964, 1206.5018527827199, 1284.0026491042397, 1339.0209354880799, 1351.92400090436, 1370.7120727398797, 1408.8169742805599, 1470.9906593678397, 1485.0061764059599, 1493.1984898927199, 2865.86078646348, 2916.58720702232, 3013.99539378652, 3016.570513281519, 3055.2591085743998, 3086.8403740610793, 3099.85331124248]

>  <E0_kJmol>  (5) 
-508313

>  <H298_kJmol>  (5) 
-508296

$$$$
