
     RDKit          3D

  8  7  0  0  0  0  0  0  0  0999 V2000
   -1.2091    0.3828    0.0889 C   0  0  0  0  0  0  0  0  0  1  0  0
    0.1759   -0.1110    0.3795 C   0  0  0  0  0  0  0  0  0  2  0  0
    1.0426   -0.2695   -0.5157 N   0  0  0  0  0  0  0  0  0  3  0  0
   -1.3381    0.5652   -0.9765 H   0  0  0  0  0  0  0  0  0  4  0  0
   -1.9452   -0.3515    0.4241 H   0  0  0  0  0  0  0  0  0  5  0  0
   -1.3957    1.3050    0.6445 H   0  0  0  0  0  0  0  0  0  6  0  0
    0.3950   -0.3173    1.4367 H   0  0  0  0  0  0  0  0  0  7  0  0
    1.9040   -0.6149   -0.0464 H   0  0  0  0  0  0  0  0  0  8  0  0
  1  5  1  0
  1  4  1  0
  1  6  1  0
  1  2  1  0
  2  3  1  0
  2  7  1  0
  3  8  1  0
M  END
>  <rmg_smiles>  (1) 
C[CH][NH]

>  <rmg_adjacency_list>  (1) 
1 N u0 p1 c0 {3,S} {8,S}
2 C u0 p0 c0 {3,S} {4,S} {5,S} {6,S}
3 C u0 p0 c0 {1,S} {2,S} {7,S}
4 H u0 p0 c0 {2,S}
5 H u0 p0 c0 {2,S}
6 H u0 p0 c0 {2,S}
7 H u0 p0 c0 {3,S}
8 H u0 p0 c0 {1,S}


>  <multiplicity>  (1) 
1

>  <reaction>  (1) 
rmg_rxn_16643

>  <type>  (1) 
r1h

>  <role_mapnums>  (1) 
{"r1h_a": 3, "r1h_h": 8}

>  <role_mapidx>  (1) 
{"r1h_a": 2, "r1h_h": 7}

>  <ordered_mapped_smiles>  (1) 
[C:1]([CH:2]([NH:3][H:8])[H:7])([H:4])([H:5])[H:6]

>  <mol_properties>  (1) 
{"2": {"label": "donator", "atom_type": "N3s"}, "7": {"label": "d_hydrogen", "atom_type": "H0"}}

>  <level_of_theory>  (1) 
wb97xd/def2tzvp

>  <lot_method>  (1) 
wb97xd

>  <lot_basis>  (1) 
def2tzvp

>  <spin_multiplicity>  (1) 
1.0

>  <optical_isomers>  (1) 
1.0

>  <modes>  (1) 
IdealGasTranslation(mass=(43.0422, 'amu')),         NonlinearRotor(             inertia = ([9.32783, 51.3348, 57.5532

>  <frequency_value>  (1) 
unknown

>  <frequency_units>  (1) 
unknown

>  <frequency_list>  (1) 
unknown

>  <arkane_path>  (1) 
/home/calvin/Dropbox/PersonalFolders/Calvin/ZEUS_Converged/rmg_rxn_16643/output/Species/rmg_rxn_16643_r1_CC=N/arkane/output.py

>  <path_exists>  (1) 
True

>  <E0_value>  (1) 
-351535.20335661684

>  <E0_units>  (1) 
kJ/mol

>  <thermo_class>  (1) 
NASA

>  <Cp0_value>  (1) 
33.257888

>  <Cp0_units>  (1) 
J/(mol*K)

>  <CpInf_value>  (1) 
182.918384

>  <CpInf_units>  (1) 
J/(mol*K)

>  <Tmin_value>  (1) 
10.0

>  <Tmin_units>  (1) 
K

>  <Tmax_value>  (1) 
3000.0

>  <Tmax_units>  (1) 
K

>  <polynomials>  (1) 
[{"name": "polynomial1", "class": "NASAPolynomial", "Tmin_value": 10.0, "Tmin_units": "K", "Tmax_value": 834.0183041901832, "Tmax_units": "K", "coeffs": [4.020859284868709, 0.0012406595733239277, 4.4482903010182226e-05, -5.482114439751344e-08, 2.0739201558559772e-11, -42279921.71645892, 6.726586383468645]}, {"name": "polynomial2", "class": "NASAPolynomial", "Tmin_value": 834.0183041901832, "Tmin_units": "K", "Tmax_value": 3000.0, "Tmax_units": "K", "coeffs": [0.8146767610859666, 0.025012560508124084, -1.3369721411120483e-05, 3.4917002293006827e-09, -3.579375529269218e-13, -42279678.881200545, 19.862274208798944]}]

>  <H298_value>  (1) 
-84015.86036687854

>  <H298_units>  (1) 
kcal/mol

>  <S298_value>  (1) 
62.66843297179497

>  <S298_units>  (1) 
cal/(mol*K)

>  <Cp_T_value_list>  (1) 
[14.078036689508782, 17.202765604471058, 20.2803800489589, 23.1023356383003, 27.639649626797436, 30.983090061901617, 36.21499785066487, 38.88468928045463, 40.19916387517873]

>  <Cp_T_units>  (1) 
cal/(mol*K)

>  <T_list>  (1) 
[300.0, 400.0, 500.0, 600.0, 800.0, 1000.0, 1500.0, 2000.0, 2400.0]

>  <T_units>  (1) 
K

>  <yaml_path>  (1) 
/home/calvin/Dropbox/PersonalFolders/Calvin/ZEUS_Converged/rmg_rxn_16643/output/Species/rmg_rxn_16643_r1_CC=N/rmg_rxn_16643_r1_CC=N.yml

>  <frequencies_cm1>  (1) 
[185.42920459596, 489.9250676554, 680.6761858743599, 921.32968641376, 1055.89513074448, 1069.62910138448, 1130.4431233784, 1267.5150173509198, 1378.7876474762, 1425.071128533, 1456.56312321052, 1463.3683056626398, 1737.36788691596, 2989.2124437666403, 3014.6889593038395, 3075.43431144456, 3123.3452680222, 3455.8927661138396]

>  <ZPE_kJmol>  (1) 
178.96482902382195

>  <E_elec_kJmol>  (1) 
-351714.16818564065

>  <E0_minus_Eelec_plus_ZPE_kJmol>  (1) 
0.0

>  <rxn>  (1) 
rmg_rxn_16643

>  <species_type>  (1) 
r0

>  <species_folder>  (1) 
rmg_rxn_16643_r1_CC=N

>  <frequencies_cm1_list>  (1) 
[185.42920459596, 489.9250676554, 680.6761858743599, 921.32968641376, 1055.89513074448, 1069.62910138448, 1130.4431233784, 1267.5150173509198, 1378.7876474762, 1425.071128533, 1456.56312321052, 1463.3683056626398, 1737.36788691596, 2989.2124437666403, 3014.6889593038395, 3075.43431144456, 3123.3452680222, 3455.8927661138396]

>  <E0_kJmol>  (1) 
-351535

>  <H298_kJmol>  (1) 
-351522

$$$$

     RDKit          3D

 14 13  0  0  0  0  0  0  0  0999 V2000
   -1.2440   -1.4906   -0.2920 H   0  0  0  0  0  0  0  0  0  1  0  0
   -0.3806   -1.8286    0.2830 C   0  0  0  0  0  0  0  0  0  2  0  0
    0.7705   -1.4735   -0.3717 O   0  0  0  0  0  0  0  0  0  3  0  0
    1.1803   -0.1295   -0.2192 C   0  0  0  0  0  0  0  0  0  4  0  0
    0.2447    0.8653   -0.8958 C   0  0  0  0  0  0  0  0  0  5  0  0
   -0.8528    1.4260   -0.0300 C   0  0  0  0  0  0  0  0  0  6  0  0
   -0.9145    1.3183    1.1646 O   0  0  0  0  0  0  0  0  0  7  0  0
   -0.4802   -2.9119    0.2844 H   0  0  0  0  0  0  0  0  0  8  0  0
   -0.4999   -1.3662    1.2676 H   0  0  0  0  0  0  0  0  0  9  0  0
    2.1663   -0.0827   -0.6786 H   0  0  0  0  0  0  0  0  0 10  0  0
    1.2769    0.1148    0.8443 H   0  0  0  0  0  0  0  0  0 11  0  0
    0.8131    1.7341   -1.2488 H   0  0  0  0  0  0  0  0  0 12  0  0
   -0.2103    0.4223   -1.7858 H   0  0  0  0  0  0  0  0  0 13  0  0
   -1.6233    1.9994   -0.5821 H   0  0  0  0  0  0  0  0  0 14  0  0
  1  2  1  0
  2  9  1  0
  2  8  1  0
  2  3  1  0
  3  4  1  0
  4  5  1  0
  4 10  1  0
  4 11  1  0
  5 12  1  0
  5  6  1  0
  5 13  1  0
  6 14  1  0
  6  7  1  0
M  END
>  <rmg_smiles>  (2) 
COCC[CH]O

>  <rmg_adjacency_list>  (2) 
1  O u0 p2 c0 {4,S} {5,S}
2  O u0 p2 c0 {6,S}
3  C u0 p0 c0 {4,S} {6,S} {7,S} {8,S}
4  C u0 p0 c0 {1,S} {3,S} {9,S} {10,S}
5  C u0 p0 c0 {1,S} {11,S} {12,S} {13,S}
6  C u0 p0 c0 {2,S} {3,S} {14,S}
7  H u0 p0 c0 {3,S}
8  H u0 p0 c0 {3,S}
9  H u0 p0 c0 {4,S}
10 H u0 p0 c0 {4,S}
11 H u0 p0 c0 {5,S}
12 H u0 p0 c0 {5,S}
13 H u0 p0 c0 {5,S}
14 H u0 p0 c0 {6,S}


>  <multiplicity>  (2) 
1

>  <reaction>  (2) 
rmg_rxn_16643

>  <type>  (2) 
r2h

>  <role_mapnums>  (2) 
{"r2h_a": 2, "r2h_h": 1}

>  <role_mapidx>  (2) 
{"r2h_a": 1, "r2h_h": 0}

>  <ordered_mapped_smiles>  (2) 
[H:1][C:2]([O:3][C:4]([C:5]([CH:6]([OH:7])[H:14])([H:12])[H:13])([H:10])[H:11])([H:8])[H:9]

>  <mol_properties>  (2) 
{"0": {"label": "a_hydrogen", "atom_type": "H0"}, "1": {"label": "acceptor", "atom_type": "Cs"}}

>  <level_of_theory>  (2) 
wb97xd/def2tzvp

>  <lot_method>  (2) 
wb97xd

>  <lot_basis>  (2) 
def2tzvp

>  <spin_multiplicity>  (2) 
1.0

>  <optical_isomers>  (2) 
1.0

>  <modes>  (2) 
IdealGasTranslation(mass=(88.0524, 'amu')),         NonlinearRotor(             inertia = ([42.2252, 321.863, 354.694

>  <frequency_value>  (2) 
unknown

>  <frequency_units>  (2) 
unknown

>  <frequency_list>  (2) 
unknown

>  <arkane_path>  (2) 
/home/calvin/Dropbox/PersonalFolders/Calvin/ZEUS_Converged/rmg_rxn_16643/output/Species/rmg_rxn_16643_p2_COCCC=O/arkane/output.py

>  <path_exists>  (2) 
True

>  <E0_value>  (2) 
-807522.6100537925

>  <E0_units>  (2) 
kJ/mol

>  <thermo_class>  (2) 
NASA

>  <Cp0_value>  (2) 
33.257888

>  <Cp0_units>  (2) 
J/(mol*K)

>  <CpInf_value>  (2) 
332.57888

>  <CpInf_units>  (2) 
J/(mol*K)

>  <Tmin_value>  (2) 
10.0

>  <Tmin_units>  (2) 
K

>  <Tmax_value>  (2) 
3000.0

>  <Tmax_units>  (2) 
K

>  <polynomials>  (2) 
[{"name": "polynomial1", "class": "NASAPolynomial", "Tmin_value": 10.0, "Tmin_units": "K", "Tmax_value": 420.00192444716464, "Tmax_units": "K", "coeffs": [3.4815818701554897, 0.05515157389046968, -0.0001820077560420329, 4.74484230967253e-07, -4.124947682445814e-10, -97122534.66875581, 10.742579115213127]}, {"name": "polynomial2", "class": "NASAPolynomial", "Tmin_value": 420.00192444716464, "Tmin_units": "K", "Tmax_value": 3000.0, "Tmax_units": "K", "coeffs": [-0.4194230434848318, 0.05252343910960219, -3.0549424746644766e-05, 8.564921448695528e-09, -9.313737256728422e-13, -97121856.11656621, 30.355527057949544]}]

>  <H298_value>  (2) 
-192997.32101247305

>  <H298_units>  (2) 
kcal/mol

>  <S298_value>  (2) 
84.06560586374717

>  <S298_units>  (2) 
cal/(mol*K)

>  <Cp_T_value_list>  (2) 
[26.064642832315013, 32.24857622882198, 38.18883221539439, 43.37309600829853, 51.769601876854644, 58.002859656054916, 67.20943098501424, 71.63312718025382, 73.8701758084071]

>  <Cp_T_units>  (2) 
cal/(mol*K)

>  <T_list>  (2) 
[300.0, 400.0, 500.0, 600.0, 800.0, 1000.0, 1500.0, 2000.0, 2400.0]

>  <T_units>  (2) 
K

>  <yaml_path>  (2) 
/home/calvin/Dropbox/PersonalFolders/Calvin/ZEUS_Converged/rmg_rxn_16643/output/Species/rmg_rxn_16643_p2_COCCC=O/rmg_rxn_16643_p2_COCCC=O.yml

>  <frequencies_cm1>  (2) 
[83.92142759571999, 101.70691957452, 147.16636239292, 174.02314197943997, 230.32555461812, 307.31819402595994, 439.28791790572, 677.99119461424, 694.39642254372, 892.9209681449199, 910.4661156375198, 1006.6107771028398, 1094.1579729475197, 1124.7435255628, 1176.4450580370801, 1178.51888760372, 1225.7912145465998, 1230.8727836834, 1298.89714026332, 1325.85692462964, 1408.7002355301197, 1418.6710982147597, 1449.29785274196, 1473.5383109215597, 1476.52544953576, 1492.4019195956, 1511.0732526806798, 1821.48159010064, 2872.5766981064403, 2954.7951133427996, 2967.9316562599597, 2997.0614079873994, 3007.2108122903596, 3014.4829497442397, 3050.8230360576795, 3104.4610583922]

>  <ZPE_kJmol>  (2) 
307.0961421103297

>  <E_elec_kJmol>  (2) 
-807829.7061959028

>  <E0_minus_Eelec_plus_ZPE_kJmol>  (2) 
0.0

>  <rxn>  (2) 
rmg_rxn_16643

>  <species_type>  (2) 
p1

>  <species_folder>  (2) 
rmg_rxn_16643_p2_COCCC=O

>  <frequencies_cm1_list>  (2) 
[83.92142759571999, 101.70691957452, 147.16636239292, 174.02314197943997, 230.32555461812, 307.31819402595994, 439.28791790572, 677.99119461424, 694.39642254372, 892.9209681449199, 910.4661156375198, 1006.6107771028398, 1094.1579729475197, 1124.7435255628, 1176.4450580370801, 1178.51888760372, 1225.7912145465998, 1230.8727836834, 1298.89714026332, 1325.85692462964, 1408.7002355301197, 1418.6710982147597, 1449.29785274196, 1473.5383109215597, 1476.52544953576, 1492.4019195956, 1511.0732526806798, 1821.48159010064, 2872.5766981064403, 2954.7951133427996, 2967.9316562599597, 2997.0614079873994, 3007.2108122903596, 3014.4829497442397, 3050.8230360576795, 3104.4610583922]

>  <E0_kJmol>  (2) 
-807523

>  <H298_kJmol>  (2) 
-807501

$$$$

     RDKit          3D

 21 19  0  0  0  0  0  0  0  0999 V2000
   -3.5892   -0.1337   -0.2524 C   0  0  0  0  0  0  0  0  0  1  0  0
   -2.2043   -0.6275    0.0383 C   0  0  0  0  0  0  0  0  0  2  0  0
   -1.3376   -0.7859   -0.8569 N   0  0  0  0  0  0  0  0  0  3  0  0
   -3.7183    0.0488   -1.3177 H   0  0  0  0  0  0  0  0  0  4  0  0
   -4.3254   -0.8680    0.0829 H   0  0  0  0  0  0  0  0  0  5  0  0
   -3.7759    0.7885    0.3033 H   0  0  0  0  0  0  0  0  0  6  0  0
   -1.9852   -0.8338    1.0955 H   0  0  0  0  0  0  0  0  0  7  0  0
   -0.2806   -1.2098   -0.2811 H   0  0  0  0  0  0  0  0  0  8  0  0
    0.7781   -1.6243    0.4240 C   0  0  0  0  0  3  0  0  0  9  0  0
    1.9292   -1.2692   -0.2306 O   0  0  0  0  0  0  0  0  0 10  0  0
    2.3391    0.0749   -0.0782 C   0  0  0  0  0  0  0  0  0 11  0  0
    1.4035    1.0696   -0.7547 C   0  0  0  0  0  0  0  0  0 12  0  0
    0.3060    1.6304    0.1110 C   0  0  0  0  0  0  0  0  0 13  0  0
    0.2442    1.5227    1.3056 O   0  0  0  0  0  0  0  0  0 14  0  0
    0.6785   -2.7076    0.4254 H   0  0  0  0  0  0  0  0  0 15  0  0
    0.6588   -1.1619    1.4086 H   0  0  0  0  0  0  0  0  0 16  0  0
    3.3250    0.1216   -0.5376 H   0  0  0  0  0  0  0  0  0 17  0  0
    2.4356    0.3192    0.9853 H   0  0  0  0  0  0  0  0  0 18  0  0
    1.9719    1.9385   -1.1078 H   0  0  0  0  0  0  0  0  0 19  0  0
    0.9485    0.6266   -1.6447 H   0  0  0  0  0  0  0  0  0 20  0  0
   -0.4645    2.2037   -0.4411 H   0  0  0  0  0  0  0  0  0 21  0  0
  1  4  1  0
  1  5  1  0
  1  6  1  0
  1  2  1  0
  2  3  1  0
  2  7  1  0
  3  8  1  0
  9 10  1  0
  9 16  1  0
  9 15  1  0
 10 11  1  0
 11 17  1  0
 11 12  1  0
 11 18  1  0
 12 19  1  0
 12 20  1  0
 12 13  1  0
 13 21  1  0
 13 14  1  0
M  RAD  1   9   2
M  END
>  <rmg_smiles>  (3) 
[CH2]OCC[CH][O].C[CH][NH]

>  <rmg_adjacency_list>  (3) 
multiplicity 2
1  O u0 p2 c0 {5,S} {9,S}
2  O u0 p2 c0 {8,S}
3  N u0 p1 c0 {7,S} {21,S}
4  C u0 p0 c0 {5,S} {8,S} {10,S} {11,S}
5  C u0 p0 c0 {1,S} {4,S} {12,S} {13,S}
6  C u0 p0 c0 {7,S} {14,S} {15,S} {16,S}
7  C u0 p0 c0 {3,S} {6,S} {17,S}
8  C u0 p0 c0 {2,S} {4,S} {18,S}
9  C u1 p0 c0 {1,S} {19,S} {20,S}
10 H u0 p0 c0 {4,S}
11 H u0 p0 c0 {4,S}
12 H u0 p0 c0 {5,S}
13 H u0 p0 c0 {5,S}
14 H u0 p0 c0 {6,S}
15 H u0 p0 c0 {6,S}
16 H u0 p0 c0 {6,S}
17 H u0 p0 c0 {7,S}
18 H u0 p0 c0 {8,S}
19 H u0 p0 c0 {9,S}
20 H u0 p0 c0 {9,S}
21 H u0 p0 c0 {3,S}


>  <multiplicity>  (3) 
2

>  <reaction>  (3) 
rmg_rxn_16643

>  <type>  (3) 
ts

>  <role_mapnums>  (3) 
{"*2": 8, "*1": 3, "*3": 9, "*0": 2, "*4": 10}

>  <role_mapidx>  (3) 
{"*2": 7, "*1": 2, "*3": 8, "*0": 1, "*4": 9}

>  <ordered_mapped_smiles>  (3) 
[C:1]([CH:2]([NH:3][H:8])[H:7])([H:4])([H:5])[H:6].[C:9]([O:10][C:11]([C:12]([CH:13]([OH:14])[H:21])([H:19])[H:20])([H:17])[H:18])([H:15])[H:16]

>  <mol_properties>  (3) 
{"1": {"label": "*0", "atom_type": "Cs"}, "2": {"label": "*1", "atom_type": "N3s"}, "7": {"label": "*2", "atom_type": "H0"}, "8": {"label": "*3", "atom_type": "Cs"}, "9": {"label": "*4", "atom_type": "O2s"}}

>  <level_of_theory>  (3) 
wb97xd/def2tzvp

>  <lot_method>  (3) 
wb97xd

>  <lot_basis>  (3) 
def2tzvp

>  <spin_multiplicity>  (3) 
2.0

>  <optical_isomers>  (3) 
2.0

>  <modes>  (3) 
IdealGasTranslation(mass=(130.087, 'amu')),         NonlinearRotor(             inertia = ([232.571, 526.722, 650.181

>  <frequency_value>  (3) 
-1879.85

>  <frequency_units>  (3) 
cm^-1

>  <frequency_list>  (3) 
unknown

>  <arkane_path>  (3) 
/home/calvin/Dropbox/PersonalFolders/Calvin/ZEUS_Converged/rmg_rxn_16643/output/rxns/TS0/arkane/output.py

>  <path_exists>  (3) 
True

>  <E0_value>  (3) 
-1157320.0

>  <E0_units>  (3) 
kJ/mol

>  <thermo_class>  (3) 
unknown

>  <Cp0_value>  (3) 
unknown

>  <Cp0_units>  (3) 
unknown

>  <CpInf_value>  (3) 
unknown

>  <CpInf_units>  (3) 
unknown

>  <Tmin_value>  (3) 
unknown

>  <Tmin_units>  (3) 
unknown

>  <Tmax_value>  (3) 
unknown

>  <Tmax_units>  (3) 
unknown

>  <polynomials>  (3) 
unknown

>  <H298_value>  (3) 
unknown

>  <H298_units>  (3) 
unknown

>  <S298_value>  (3) 
unknown

>  <S298_units>  (3) 
unknown

>  <Cp_T_value_list>  (3) 
unknown

>  <Cp_T_units>  (3) 
unknown

>  <T_list>  (3) 
unknown

>  <T_units>  (3) 
unknown

>  <yaml_path>  (3) 
unknown

>  <frequencies_cm1>  (3) 
unknown

>  <ZPE_kJmol>  (3) 
unknown

>  <E_elec_kJmol>  (3) 
unknown

>  <E0_minus_Eelec_plus_ZPE_kJmol>  (3) 
unknown

>  <rxn>  (3) 
unknown

>  <species_type>  (3) 
unknown

>  <species_folder>  (3) 
unknown

>  <frequencies_cm1_list>  (3) 
[]

>  <ts_imag_freq_cm1>  (3) 
-1902.6813

>  <ts_freq_out_path>  (3) 
/home/calvin/Dropbox/PersonalFolders/Calvin/ZEUS_Converged/rmg_rxn_16643/output/rxns/TS0/geometry/freq.out

>  <E0_kJmol>  (3) 
-1.15732e+06

>  <H298_kJmol>  (3) 
unknown

$$$$

     RDKit          3D

  7  6  0  0  0  0  0  0  0  0999 V2000
   -0.6441   -0.1356    0.0624 C   0  0  0  0  0  0  0  0  0  1  0  0
    0.8523    0.0148   -0.0333 C   0  0  0  0  0  0  0  0  0  2  0  0
    1.6700   -0.6077    0.6603 N   0  0  0  0  0  2  0  0  0  3  0  0
   -1.0940    0.8275    0.3091 H   0  0  0  0  0  0  0  0  0  4  0  0
   -0.9104   -0.8656    0.8237 H   0  0  0  0  0  0  0  0  0  5  0  0
   -1.0427   -0.4545   -0.9022 H   0  0  0  0  0  0  0  0  0  6  0  0
    1.2362    0.7308   -0.7748 H   0  0  0  0  0  0  0  0  0  7  0  0
  1  5  1  0
  1  4  1  0
  1  6  1  0
  1  2  1  0
  2  3  1  0
  2  7  1  0
M  RAD  1   3   2
M  END
>  <rmg_smiles>  (4) 
C[CH][N]

>  <rmg_adjacency_list>  (4) 
multiplicity 2
1 N u1 p2 c0 {3,S}
2 C u0 p0 c0 {3,S} {4,S} {5,S} {6,S}
3 C u0 p0 c0 {1,S} {2,S} {7,S}
4 H u0 p0 c0 {2,S}
5 H u0 p0 c0 {2,S}
6 H u0 p0 c0 {2,S}
7 H u0 p0 c0 {3,S}


>  <multiplicity>  (4) 
2

>  <reaction>  (4) 
rmg_rxn_16643

>  <type>  (4) 
r1

>  <role_mapnums>  (4) 
{}

>  <role_mapidx>  (4) 
{}

>  <ordered_mapped_smiles>  (4) 
[C:1]([CH:2]([NH:3])[H:7])([H:4])([H:5])[H:6]

>  <level_of_theory>  (4) 
wb97xd/def2tzvp

>  <lot_method>  (4) 
wb97xd

>  <lot_basis>  (4) 
def2tzvp

>  <spin_multiplicity>  (4) 
2.0

>  <optical_isomers>  (4) 
1.0

>  <modes>  (4) 
IdealGasTranslation(mass=(42.0344, 'amu')),         NonlinearRotor(             inertia = ([8.81492, 48.174, 53.8511

>  <frequency_value>  (4) 
unknown

>  <frequency_units>  (4) 
unknown

>  <frequency_list>  (4) 
unknown

>  <arkane_path>  (4) 
/home/calvin/Dropbox/PersonalFolders/Calvin/ZEUS_Converged/rmg_rxn_16643/output/Species/rmg_rxn_16643_p1_CC=sbr-N-sbr/arkane/output.py

>  <path_exists>  (4) 
True

>  <E0_value>  (4) 
-349854.82234455534

>  <E0_units>  (4) 
kJ/mol

>  <thermo_class>  (4) 
NASA

>  <Cp0_value>  (4) 
33.257888

>  <Cp0_units>  (4) 
J/(mol*K)

>  <CpInf_value>  (4) 
157.97496800000002

>  <CpInf_units>  (4) 
J/(mol*K)

>  <Tmin_value>  (4) 
10.0

>  <Tmin_units>  (4) 
K

>  <Tmax_value>  (4) 
3000.0

>  <Tmax_units>  (4) 
K

>  <polynomials>  (4) 
[{"name": "polynomial1", "class": "NASAPolynomial", "Tmin_value": 10.0, "Tmin_units": "K", "Tmax_value": 503.5856077016928, "Tmax_units": "K", "coeffs": [3.976811592049577, 0.0012685228752087534, 4.786155959427562e-05, -7.554553197268183e-08, 3.869280929218241e-11, -42077814.38325793, 7.559402827950991]}, {"name": "polynomial2", "class": "NASAPolynomial", "Tmin_value": 503.5856077016928, "Tmin_units": "K", "Tmax_value": 3000.0, "Tmax_units": "K", "coeffs": [1.4688672877735052, 0.02118998940112054, -1.1479594923736429e-05, 3.0156770231218235e-09, -3.096140671693614e-13, -42077561.800061174, 17.93823402033286]}]

>  <H298_value>  (4) 
-83614.2601862362

>  <H298_units>  (4) 
kcal/mol

>  <S298_value>  (4) 
63.84640386523673

>  <S298_units>  (4) 
cal/(mol*K)

>  <Cp_T_value_list>  (4) 
[13.788413560189577, 16.48922778111735, 18.980945997388957, 21.186536551582613, 24.822448324400693, 27.593007553675324, 31.86535612271467, 33.985319854322825, 35.01227851918305]

>  <Cp_T_units>  (4) 
cal/(mol*K)

>  <T_list>  (4) 
[300.0, 400.0, 500.0, 600.0, 800.0, 1000.0, 1500.0, 2000.0, 2400.0]

>  <T_units>  (4) 
K

>  <yaml_path>  (4) 
/home/calvin/Dropbox/PersonalFolders/Calvin/ZEUS_Converged/rmg_rxn_16643/output/Species/rmg_rxn_16643_p1_CC=sbr-N-sbr/rmg_rxn_16643_p1_CC=sbr-N-sbr.yml

>  <frequencies_cm1>  (4) 
[183.94593576684, 430.87586088872, 744.9511684695599, 909.3948659275999, 1050.2642027820798, 1063.7578289358798, 1237.9320445923597, 1377.0846351168398, 1461.72709617116, 1465.6893467008, 1739.36617964408, 2963.10416558, 3026.2186276561197, 3097.525403219, 3131.35217290532]

>  <ZPE_kJmol>  (4) 
142.8532380575317

>  <E_elec_kJmol>  (4) 
-349997.67558261286

>  <E0_minus_Eelec_plus_ZPE_kJmol>  (4) 
0.0

>  <rxn>  (4) 
rmg_rxn_16643

>  <species_type>  (4) 
p0

>  <species_folder>  (4) 
rmg_rxn_16643_p1_CC=sbr-N-sbr

>  <frequencies_cm1_list>  (4) 
[183.94593576684, 430.87586088872, 744.9511684695599, 909.3948659275999, 1050.2642027820798, 1063.7578289358798, 1237.9320445923597, 1377.0846351168398, 1461.72709617116, 1465.6893467008, 1739.36617964408, 2963.10416558, 3026.2186276561197, 3097.525403219, 3131.35217290532]

>  <E0_kJmol>  (4) 
-349855

>  <H298_kJmol>  (4) 
-349842

$$$$

     RDKit          3D

 13 12  0  0  0  0  0  0  0  0999 V2000
    2.2389    0.7017    0.3130 C   0  0  0  0  0  3  0  0  0  1  0  0
    0.9433    0.8223   -0.0376 O   0  0  0  0  0  0  0  0  0  2  0  0
    0.4736    2.1521   -0.1615 C   0  0  0  0  0  0  0  0  0  3  0  0
   -0.9782    2.0920   -0.5770 C   0  0  0  0  0  0  0  0  0  4  0  0
   -1.6070    3.4420   -0.7601 C   0  0  0  0  0  0  0  0  0  5  0  0
   -1.0369    4.4869   -0.6064 O   0  0  0  0  0  0  0  0  0  6  0  0
    2.5950   -0.3170    0.3352 H   0  0  0  0  0  0  0  0  0  7  0  0
    2.9060    1.5360    0.1249 H   0  0  0  0  0  0  0  0  0  8  0  0
    1.0668    2.6899   -0.9083 H   0  0  0  0  0  0  0  0  0  9  0  0
    0.5827    2.6771    0.7919 H   0  0  0  0  0  0  0  0  0 10  0  0
   -1.0904    1.5380   -1.5153 H   0  0  0  0  0  0  0  0  0 11  0  0
   -1.5701    1.5405    0.1613 H   0  0  0  0  0  0  0  0  0 12  0  0
   -2.6749    3.4222   -1.0597 H   0  0  0  0  0  0  0  0  0 13  0  0
  1  8  1  0
  1  7  1  0
  1  2  1  0
  2  3  1  0
  3  4  1  0
  3  9  1  0
  3 10  1  0
  4  5  1  0
  4 12  1  0
  4 11  1  0
  5  6  1  0
  5 13  1  0
M  RAD  1   1   2
M  END
>  <rmg_smiles>  (5) 
[CH2]OCC[CH]O

>  <rmg_adjacency_list>  (5) 
multiplicity 2
1  O u0 p2 c0 {4,S} {6,S}
2  O u0 p2 c0 {5,S}
3  C u0 p0 c0 {4,S} {5,S} {7,S} {8,S}
4  C u0 p0 c0 {1,S} {3,S} {9,S} {10,S}
5  C u0 p0 c0 {2,S} {3,S} {11,S}
6  C u1 p0 c0 {1,S} {12,S} {13,S}
7  H u0 p0 c0 {3,S}
8  H u0 p0 c0 {3,S}
9  H u0 p0 c0 {4,S}
10 H u0 p0 c0 {4,S}
11 H u0 p0 c0 {5,S}
12 H u0 p0 c0 {6,S}
13 H u0 p0 c0 {6,S}


>  <multiplicity>  (5) 
2

>  <reaction>  (5) 
rmg_rxn_16643

>  <type>  (5) 
r2

>  <role_mapnums>  (5) 
{}

>  <role_mapidx>  (5) 
{}

>  <ordered_mapped_smiles>  (5) 
[C:1]([O:2][C:3]([C:4]([CH:5]([OH:6])[H:13])([H:11])[H:12])([H:9])[H:10])([H:7])[H:8]

>  <level_of_theory>  (5) 
wb97xd/def2tzvp

>  <lot_method>  (5) 
wb97xd

>  <lot_basis>  (5) 
def2tzvp

>  <spin_multiplicity>  (5) 
2.0

>  <optical_isomers>  (5) 
2.0

>  <modes>  (5) 
IdealGasTranslation(mass=(87.0446, 'amu')),         NonlinearRotor(             inertia = ([39.3973, 312.178, 345.105

>  <frequency_value>  (5) 
unknown

>  <frequency_units>  (5) 
unknown

>  <frequency_list>  (5) 
unknown

>  <arkane_path>  (5) 
/home/calvin/Dropbox/PersonalFolders/Calvin/ZEUS_Converged/rmg_rxn_16643/output/Species/rmg_rxn_16643_r2_sbr-CH2-sbrOCCC=O/arkane/output.py

>  <path_exists>  (5) 
True

>  <E0_value>  (5) 
-805813.0942219706

>  <E0_units>  (5) 
kJ/mol

>  <thermo_class>  (5) 
NASA

>  <Cp0_value>  (5) 
33.257888

>  <Cp0_units>  (5) 
J/(mol*K)

>  <CpInf_value>  (5) 
307.635464

>  <CpInf_units>  (5) 
J/(mol*K)

>  <Tmin_value>  (5) 
10.0

>  <Tmin_units>  (5) 
K

>  <Tmax_value>  (5) 
3000.0

>  <Tmax_units>  (5) 
K

>  <polynomials>  (5) 
[{"name": "polynomial1", "class": "NASAPolynomial", "Tmin_value": 10.0, "Tmin_units": "K", "Tmax_value": 414.6583286272444, "Tmax_units": "K", "coeffs": [3.5213955153033742, 0.04950404286745499, -0.00011628352768887289, 2.7743390074715546e-07, -2.402472941983462e-10, -96916927.6005055, 12.199171526820466]}, {"name": "polynomial2", "class": "NASAPolynomial", "Tmin_value": 414.6583286272444, "Tmin_units": "K", "Tmax_value": 3000.0, "Tmax_units": "K", "coeffs": [1.4929641498847677, 0.04711565325611982, -2.8220538080782138e-05, 8.15817678604303e-09, -9.127599307789776e-13, -96916570.62495346, 22.475574150745093]}]

>  <H298_value>  (5) 
-192588.6710645513

>  <H298_units>  (5) 
kcal/mol

>  <S298_value>  (5) 
87.08637821339352

>  <S298_units>  (5) 
cal/(mol*K)

>  <Cp_T_value_list>  (5) 
[26.731510611051267, 32.4373448969841, 37.67421769324967, 42.221848424568755, 49.5360153930085, 54.91346325400621, 62.762405651918456, 66.57812208990578, 68.58979288190937]

>  <Cp_T_units>  (5) 
cal/(mol*K)

>  <T_list>  (5) 
[300.0, 400.0, 500.0, 600.0, 800.0, 1000.0, 1500.0, 2000.0, 2400.0]

>  <T_units>  (5) 
K

>  <yaml_path>  (5) 
/home/calvin/Dropbox/PersonalFolders/Calvin/ZEUS_Converged/rmg_rxn_16643/output/Species/rmg_rxn_16643_r2_sbr-CH2-sbrOCCC=O/rmg_rxn_16643_r2_sbr-CH2-sbrOCCC=O.yml

>  <frequencies_cm1>  (5) 
[80.60467368615998, 88.38496805372, 151.38955836472002, 173.47378315383997, 276.47169596852, 308.33450785331996, 451.06479772951997, 539.39482990068, 678.3894797627999, 693.0024245237599, 889.8926276188, 911.8875815987599, 1010.22281138116, 1095.8472513362399, 1123.5074682051998, 1202.08638122196, 1221.6229544573598, 1296.50742937196, 1300.0576607823998, 1325.6028461728001, 1408.20581258708, 1416.80327820772, 1451.6738296626797, 1476.58725240364, 1502.1805066912798, 1822.3811651775598, 2879.2926097493996, 3002.54812925808, 3016.6323161493997, 3039.33456961732, 3059.7501169736797, 3097.4567333657997, 3244.59562781744]

>  <ZPE_kJmol>  (5) 
270.56658511886525

>  <E_elec_kJmol>  (5) 
-806083.6608070895

>  <E0_minus_Eelec_plus_ZPE_kJmol>  (5) 
0.0

>  <rxn>  (5) 
rmg_rxn_16643

>  <species_type>  (5) 
r1

>  <species_folder>  (5) 
rmg_rxn_16643_r2_sbr-CH2-sbrOCCC=O

>  <frequencies_cm1_list>  (5) 
[80.60467368615998, 88.38496805372, 151.38955836472002, 173.47378315383997, 276.47169596852, 308.33450785331996, 451.06479772951997, 539.39482990068, 678.3894797627999, 693.0024245237599, 889.8926276188, 911.8875815987599, 1010.22281138116, 1095.8472513362399, 1123.5074682051998, 1202.08638122196, 1221.6229544573598, 1296.50742937196, 1300.0576607823998, 1325.6028461728001, 1408.20581258708, 1416.80327820772, 1451.6738296626797, 1476.58725240364, 1502.1805066912798, 1822.3811651775598, 2879.2926097493996, 3002.54812925808, 3016.6323161493997, 3039.33456961732, 3059.7501169736797, 3097.4567333657997, 3244.59562781744]

>  <E0_kJmol>  (5) 
-805813

>  <H298_kJmol>  (5) 
-805791

$$$$
