
     RDKit          3D

 14 13  0  0  0  0  0  0  0  0999 V2000
    1.8006   -0.7410   -0.1552 C   0  0  0  0  0  0  0  0  0  1  0  0
    0.3854   -0.5416    0.3725 C   0  0  0  0  0  0  0  0  0  2  0  0
   -0.3809    0.5614   -0.3567 C   0  0  0  0  0  0  0  0  0  3  0  0
   -1.7886    0.7478    0.1443 C   0  0  0  0  0  0  0  0  0  4  0  0
    2.4018    0.1760   -0.0486 H   0  0  0  0  0  0  0  0  0  5  0  0
    1.7925   -1.0102   -1.2232 H   0  0  0  0  0  0  0  0  0  6  0  0
    2.3205   -1.5453    0.3858 H   0  0  0  0  0  0  0  0  0  7  0  0
   -0.1934   -1.4746    0.2793 H   0  0  0  0  0  0  0  0  0  8  0  0
    0.4185   -0.3054    1.4503 H   0  0  0  0  0  0  0  0  0  9  0  0
   -0.3984    0.3482   -1.4392 H   0  0  0  0  0  0  0  0  0 10  0  0
    0.1583    1.5228   -0.2506 H   0  0  0  0  0  0  0  0  0 11  0  0
   -1.8822    0.9051    1.2288 H   0  0  0  0  0  0  0  0  0 12  0  0
   -2.3089   -0.2110    0.0109 H   0  0  0  0  0  0  0  0  0 13  0  0
   -2.4154    1.4446   -0.4279 H   0  0  0  0  0  0  0  0  0 14  0  0
  1  5  1  0
  1  7  1  0
  1  6  1  0
  1  2  1  0
  2  9  1  0
  2  8  1  0
  2  3  1  0
  3 11  1  0
  3  4  1  0
  3 10  1  0
  4 14  1  0
  4 13  1  0
  4 12  1  0
M  END
>  <rmg_smiles>  (1) 
CCCC

>  <rmg_adjacency_list>  (1) 
1  C u0 p0 c0 {2,S} {3,S} {5,S} {6,S}
2  C u0 p0 c0 {1,S} {4,S} {7,S} {8,S}
3  C u0 p0 c0 {1,S} {9,S} {10,S} {11,S}
4  C u0 p0 c0 {2,S} {12,S} {13,S} {14,S}
5  H u0 p0 c0 {1,S}
6  H u0 p0 c0 {1,S}
7  H u0 p0 c0 {2,S}
8  H u0 p0 c0 {2,S}
9  H u0 p0 c0 {3,S}
10 H u0 p0 c0 {3,S}
11 H u0 p0 c0 {3,S}
12 H u0 p0 c0 {4,S}
13 H u0 p0 c0 {4,S}
14 H u0 p0 c0 {4,S}


>  <multiplicity>  (1) 
1

>  <reaction>  (1) 
rmg_rxn_1142

>  <type>  (1) 
r1h

>  <role_mapnums>  (1) 
{"r1h_a": 4, "r1h_h": 13}

>  <role_mapidx>  (1) 
{"r1h_a": 3, "r1h_h": 12}

>  <ordered_mapped_smiles>  (1) 
[C:1]([C:2]([C:3]([C:4]([H:12])([H:13])[H:14])([H:10])[H:11])([H:8])[H:9])([H:5])([H:6])[H:7]

>  <mol_properties>  (1) 
{"3": {"label": "donator", "atom_type": "Cs"}, "12": {"label": "d_hydrogen", "atom_type": "H0"}}

>  <level_of_theory>  (1) 
wb97xd/def2tzvp

>  <lot_method>  (1) 
wb97xd

>  <lot_basis>  (1) 
def2tzvp

>  <spin_multiplicity>  (1) 
1.0

>  <optical_isomers>  (1) 
1.0

>  <modes>  (1) 
IdealGasTranslation(mass=(58.0782, 'amu')),         NonlinearRotor(             inertia = ([21.8536, 136.213, 145.441

>  <frequency_value>  (1) 
unknown

>  <frequency_units>  (1) 
unknown

>  <frequency_list>  (1) 
unknown

>  <arkane_path>  (1) 
/home/calvin/Dropbox/PersonalFolders/Calvin/ATLAS_Converged/rmg_rxn_1142/output/Species/rmg_rxn_1142_r2_CCCC/arkane/output.py

>  <path_exists>  (1) 
True

>  <E0_value>  (1) 
-415710.7449196522

>  <E0_units>  (1) 
kJ/mol

>  <thermo_class>  (1) 
NASA

>  <Cp0_value>  (1) 
33.257888

>  <Cp0_units>  (1) 
J/(mol*K)

>  <CpInf_value>  (1) 
332.57888

>  <CpInf_units>  (1) 
J/(mol*K)

>  <Tmin_value>  (1) 
10.0

>  <Tmin_units>  (1) 
K

>  <Tmax_value>  (1) 
3000.0

>  <Tmax_units>  (1) 
K

>  <polynomials>  (1) 
[{"name": "polynomial1", "class": "NASAPolynomial", "Tmin_value": 10.0, "Tmin_units": "K", "Tmax_value": 498.1645900446274, "Tmax_units": "K", "coeffs": [3.9332024991365575, 0.0037460281962195382, 0.00011121469425510638, -1.7689132236010592e-07, 9.1418836462102e-11, -49998449.63836785, 8.583778798029885]}, {"name": "polynomial2", "class": "NASAPolynomial", "Tmin_value": 498.1645900446274, "Tmin_units": "K", "Tmax_value": 3000.0, "Tmax_units": "K", "coeffs": [-1.7370024675718316, 0.04927542980559146, -2.5878657485023858e-05, 6.575833400529572e-09, -6.540015232599041e-13, -49997884.70716785, 31.988021936840585]}]

>  <H298_value>  (1) 
-99353.24253617278

>  <H298_units>  (1) 
kcal/mol

>  <S298_value>  (1) 
70.87553776594574

>  <S298_units>  (1) 
cal/(mol*K)

>  <Cp_T_value_list>  (1) 
[21.92039860365096, 28.308238386100935, 34.20410063566389, 39.44120053489443, 48.13003864230397, 54.81033826516337, 65.24340327783635, 70.43031454077038, 72.86903802106619]

>  <Cp_T_units>  (1) 
cal/(mol*K)

>  <T_list>  (1) 
[300.0, 400.0, 500.0, 600.0, 800.0, 1000.0, 1500.0, 2000.0, 2400.0]

>  <T_units>  (1) 
K

>  <yaml_path>  (1) 
/home/calvin/Dropbox/PersonalFolders/Calvin/ATLAS_Converged/rmg_rxn_1142/output/Species/rmg_rxn_1142_r2_CCCC/rmg_rxn_1142_r2_CCCC.yml

>  <frequencies_cm1>  (1) 
[127.55425231899999, 267.11199497736, 273.03820330852, 301.1859761352, 438.60121937371997, 750.75377106496, 826.18760480516, 853.65554608516, 968.2929990172398, 991.5377443254399, 1031.32505726952, 1069.8213769734398, 1166.872480501, 1210.08641911976, 1286.99665470376, 1316.0714705486398, 1321.71613248168, 1390.50272443212, 1404.51137448492, 1405.87103757828, 1475.76321416524, 1478.0361863061598, 1488.00018200548, 1489.5521206878, 1491.55728040124, 1495.8697471821997, 2982.4141282998394, 2984.85190808844, 2987.2759539063995, 2990.5583728893594, 3014.21513731676, 3033.6830406989593, 3058.9466796912398, 3059.8943236653995, 3060.5123523442, 3065.62138942228]

>  <ZPE_kJmol>  (1) 
344.27606015157903

>  <E_elec_kJmol>  (1) 
-416055.02097980375

>  <E0_minus_Eelec_plus_ZPE_kJmol>  (1) 
0.0

>  <rxn>  (1) 
rmg_rxn_1142

>  <species_type>  (1) 
r1

>  <species_folder>  (1) 
rmg_rxn_1142_r2_CCCC

>  <frequencies_cm1_list>  (1) 
[127.55425231899999, 267.11199497736, 273.03820330852, 301.1859761352, 438.60121937371997, 750.75377106496, 826.18760480516, 853.65554608516, 968.2929990172398, 991.5377443254399, 1031.32505726952, 1069.8213769734398, 1166.872480501, 1210.08641911976, 1286.99665470376, 1316.0714705486398, 1321.71613248168, 1390.50272443212, 1404.51137448492, 1405.87103757828, 1475.76321416524, 1478.0361863061598, 1488.00018200548, 1489.5521206878, 1491.55728040124, 1495.8697471821997, 2982.4141282998394, 2984.85190808844, 2987.2759539063995, 2990.5583728893594, 3014.21513731676, 3033.6830406989593, 3058.9466796912398, 3059.8943236653995, 3060.5123523442, 3065.62138942228]

>  <E0_kJmol>  (1) 
-415711

>  <H298_kJmol>  (1) 
-415694

$$$$

     RDKit          3D

  2  1  0  0  0  0  0  0  0  0999 V2000
   -0.0247   -0.0677   -0.0095 O   0  0  0  0  0  1  0  0  0  1  0  0
    0.3017    0.8264    0.1161 H   0  0  0  0  0  0  0  0  0  2  0  0
  1  2  1  0
M  RAD  1   1   2
M  END
>  <rmg_smiles>  (2) 
[OH]

>  <rmg_adjacency_list>  (2) 
multiplicity 2
1 O u1 p2 c0 {2,S}
2 H u0 p0 c0 {1,S}


>  <multiplicity>  (2) 
2

>  <reaction>  (2) 
rmg_rxn_1142

>  <type>  (2) 
r2h

>  <role_mapnums>  (2) 
{"r2h_a": 1, "r2h_h": 2}

>  <role_mapidx>  (2) 
{"r2h_a": 0, "r2h_h": 1}

>  <ordered_mapped_smiles>  (2) 
[O:1][H:2]

>  <mol_properties>  (2) 
{"0": {"label": "acceptor", "atom_type": "O2s"}, "1": {"label": "a_hydrogen", "atom_type": "H0"}}

>  <level_of_theory>  (2) 
wb97xd/def2tzvp

>  <lot_method>  (2) 
wb97xd

>  <lot_basis>  (2) 
def2tzvp

>  <spin_multiplicity>  (2) 
2.0

>  <optical_isomers>  (2) 
1.0

>  <modes>  (2) 
IdealGasTranslation(mass=(17.0027, 'amu')),         LinearRotor(inertia=(0.893962, 'amu*angstrom^2'), symmetry=1),         HarmonicOscillator(frequencies=([3724.63

>  <frequency_value>  (2) 
unknown

>  <frequency_units>  (2) 
unknown

>  <frequency_list>  (2) 
unknown

>  <arkane_path>  (2) 
/home/calvin/Dropbox/PersonalFolders/Calvin/ATLAS_Converged/rmg_rxn_1142/output/Species/rmg_rxn_1142_p1_sbr-OH-sbr/arkane/output.py

>  <path_exists>  (2) 
True

>  <E0_value>  (2) 
-198836.1150058348

>  <E0_units>  (2) 
kJ/mol

>  <thermo_class>  (2) 
NASA

>  <Cp0_value>  (2) 
29.100652

>  <Cp0_units>  (2) 
J/(mol*K)

>  <CpInf_value>  (2) 
37.415124

>  <CpInf_units>  (2) 
J/(mol*K)

>  <Tmin_value>  (2) 
10.0

>  <Tmin_units>  (2) 
K

>  <Tmax_value>  (2) 
3000.0

>  <Tmax_units>  (2) 
K

>  <polynomials>  (2) 
[{"name": "polynomial1", "class": "NASAPolynomial", "Tmin_value": 10.0, "Tmin_units": "K", "Tmax_value": 985.4633103339054, "Tmax_units": "K", "coeffs": [3.496867247333508, 0.00018342449890259614, -9.934008380455364e-07, 1.5607090885398485e-09, -6.057976047375529e-13, -23914460.713186827, 1.4723763541989374]}, {"name": "polynomial2", "class": "NASAPolynomial", "Tmin_value": 985.4633103339054, "Tmin_units": "K", "Tmax_value": 3000.0, "Tmax_units": "K", "coeffs": [3.453605826539838, -0.000298394996284096, 7.406626419620715e-07, -2.893423009710026e-10, 3.527332886378172e-14, -23914420.264510144, 1.842419488011591]}]

>  <H298_value>  (2) 
-47520.896675322525

>  <H298_units>  (2) 
kcal/mol

>  <S298_value>  (2) 
42.56095640204575

>  <S298_units>  (2) 
cal/(mol*K)

>  <Cp_T_value_list>  (2) 
[6.954667739233619, 6.946617902371048, 6.950166451559511, 6.9709205689453935, 7.072028097634187, 7.2370175778306685, 7.699521485448446, 8.086144468717986, 8.29478093025019]

>  <Cp_T_units>  (2) 
cal/(mol*K)

>  <T_list>  (2) 
[300.0, 400.0, 500.0, 600.0, 800.0, 1000.0, 1500.0, 2000.0, 2400.0]

>  <T_units>  (2) 
K

>  <yaml_path>  (2) 
/home/calvin/Dropbox/PersonalFolders/Calvin/ATLAS_Converged/rmg_rxn_1142/output/Species/rmg_rxn_1142_p1_sbr-OH-sbr/rmg_rxn_1142_p1_sbr-OH-sbr.yml

>  <frequencies_cm1>  (2) 
[3724.62536962672]

>  <ZPE_kJmol>  (2) 
22.278213462109388

>  <E_elec_kJmol>  (2) 
-198858.39321929688

>  <E0_minus_Eelec_plus_ZPE_kJmol>  (2) 
0.0

>  <rxn>  (2) 
rmg_rxn_1142

>  <species_type>  (2) 
p0

>  <species_folder>  (2) 
rmg_rxn_1142_p1_sbr-OH-sbr

>  <frequencies_cm1_list>  (2) 
[3724.62536962672]

>  <E0_kJmol>  (2) 
-198836

>  <H298_kJmol>  (2) 
-198827

$$$$

     RDKit          3D

 15 13  0  0  0  0  0  0  0  0999 V2000
   -2.2769   -1.2253   -0.1389 O   0  0  0  0  0  1  0  0  0  1  0  0
    2.3392   -0.4481   -0.1217 C   0  0  0  0  0  0  0  0  0  2  0  0
    0.9240   -0.2487    0.4060 C   0  0  0  0  0  0  0  0  0  3  0  0
    0.1577    0.8543   -0.3232 C   0  0  0  0  0  0  0  0  0  4  0  0
   -1.2500    1.0407    0.1778 C   0  0  0  0  0  3  0  0  0  5  0  0
    2.9405    0.4689   -0.0151 H   0  0  0  0  0  0  0  0  0  6  0  0
    2.3312   -0.7173   -1.1897 H   0  0  0  0  0  0  0  0  0  7  0  0
    2.8591   -1.2524    0.4193 H   0  0  0  0  0  0  0  0  0  8  0  0
    0.3452   -1.1816    0.3128 H   0  0  0  0  0  0  0  0  0  9  0  0
    0.9571   -0.0125    1.4838 H   0  0  0  0  0  0  0  0  0 10  0  0
    0.1402    0.6411   -1.4057 H   0  0  0  0  0  0  0  0  0 11  0  0
    0.6969    1.8157   -0.2170 H   0  0  0  0  0  0  0  0  0 12  0  0
   -1.3436    1.1980    1.2623 H   0  0  0  0  0  0  0  0  0 13  0  0
   -1.8602   -0.0839    0.0214 H   0  0  0  0  0  0  0  0  0 14  0  0
   -1.8768    1.7375   -0.3944 H   0  0  0  0  0  0  0  0  0 15  0  0
  1 14  1  0
  2  7  1  0
  2  8  1  0
  2  6  1  0
  2  3  1  0
  3  4  1  0
  3  9  1  0
  3 10  1  0
  4  5  1  0
  4 12  1  0
  4 11  1  0
  5 13  1  0
  5 15  1  0
M  RAD  2   1   2   5   2
M  END
>  <rmg_smiles>  (3) 
[CH2]CCC.[OH]

>  <rmg_adjacency_list>  (3) 
multiplicity 3
1  O u1 p2 c0 {15,S}
2  C u0 p0 c0 {3,S} {4,S} {6,S} {7,S}
3  C u0 p0 c0 {2,S} {5,S} {8,S} {9,S}
4  C u0 p0 c0 {2,S} {10,S} {11,S} {12,S}
5  C u1 p0 c0 {3,S} {13,S} {14,S}
6  H u0 p0 c0 {2,S}
7  H u0 p0 c0 {2,S}
8  H u0 p0 c0 {3,S}
9  H u0 p0 c0 {3,S}
10 H u0 p0 c0 {4,S}
11 H u0 p0 c0 {4,S}
12 H u0 p0 c0 {4,S}
13 H u0 p0 c0 {5,S}
14 H u0 p0 c0 {5,S}
15 H u0 p0 c0 {1,S}


>  <multiplicity>  (3) 
3

>  <reaction>  (3) 
rmg_rxn_1142

>  <type>  (3) 
ts

>  <role_mapnums>  (3) 
{"*2": 14, "*1": 1, "*3": 5, "*0": null, "*4": 4}

>  <role_mapidx>  (3) 
{"*2": 13, "*1": 0, "*3": 4, "*4": 3}

>  <ordered_mapped_smiles>  (3) 
[O:1][H:14].[C:2]([C:3]([C:4]([C:5]([H:13])[H:15])([H:11])[H:12])([H:9])[H:10])([H:6])([H:7])[H:8]

>  <mol_properties>  (3) 
{"0": {"label": "*1", "atom_type": "O2s"}, "3": {"label": "*4", "atom_type": "Cs"}, "4": {"label": "*3", "atom_type": "Cs"}, "13": {"label": "*2", "atom_type": "H0"}}

>  <level_of_theory>  (3) 
wb97xd/def2tzvp

>  <lot_method>  (3) 
wb97xd

>  <lot_basis>  (3) 
def2tzvp

>  <spin_multiplicity>  (3) 
3.0

>  <optical_isomers>  (3) 
2.0

>  <modes>  (3) 
IdealGasTranslation(mass=(74.0732, 'amu')),         NonlinearRotor(             inertia = ([72.2363, 222.543, 271.17

>  <frequency_value>  (3) 
-1482.12

>  <frequency_units>  (3) 
cm^-1

>  <frequency_list>  (3) 
unknown

>  <arkane_path>  (3) 
/home/calvin/Dropbox/PersonalFolders/Calvin/ATLAS_Converged/rmg_rxn_1142/output/rxns/TS0/arkane/output.py

>  <path_exists>  (3) 
True

>  <E0_value>  (3) 
-612799.0

>  <E0_units>  (3) 
kJ/mol

>  <thermo_class>  (3) 
unknown

>  <Cp0_value>  (3) 
unknown

>  <Cp0_units>  (3) 
unknown

>  <CpInf_value>  (3) 
unknown

>  <CpInf_units>  (3) 
unknown

>  <Tmin_value>  (3) 
unknown

>  <Tmin_units>  (3) 
unknown

>  <Tmax_value>  (3) 
unknown

>  <Tmax_units>  (3) 
unknown

>  <polynomials>  (3) 
unknown

>  <H298_value>  (3) 
unknown

>  <H298_units>  (3) 
unknown

>  <S298_value>  (3) 
unknown

>  <S298_units>  (3) 
unknown

>  <Cp_T_value_list>  (3) 
unknown

>  <Cp_T_units>  (3) 
unknown

>  <T_list>  (3) 
unknown

>  <T_units>  (3) 
unknown

>  <yaml_path>  (3) 
unknown

>  <frequencies_cm1>  (3) 
unknown

>  <ZPE_kJmol>  (3) 
unknown

>  <E_elec_kJmol>  (3) 
unknown

>  <E0_minus_Eelec_plus_ZPE_kJmol>  (3) 
unknown

>  <rxn>  (3) 
unknown

>  <species_type>  (3) 
unknown

>  <species_folder>  (3) 
unknown

>  <frequencies_cm1_list>  (3) 
[]

>  <ts_imag_freq_cm1>  (3) 
-1500.1196

>  <ts_freq_out_path>  (3) 
/home/calvin/Dropbox/PersonalFolders/Calvin/ATLAS_Converged/rmg_rxn_1142/output/rxns/TS0/geometry/freq.out

>  <E0_kJmol>  (3) 
-612799

>  <H298_kJmol>  (3) 
unknown

$$$$

     RDKit          3D

 13 12  0  0  0  0  0  0  0  0999 V2000
    1.9724    0.1378   -0.0262 C   0  0  0  0  0  3  0  0  0  1  0  0
    0.6264   -0.4999    0.0560 C   0  0  0  0  0  0  0  0  0  2  0  0
   -0.4981    0.5271   -0.0633 C   0  0  0  0  0  0  0  0  0  3  0  0
   -1.8653   -0.1349    0.0103 C   0  0  0  0  0  0  0  0  0  4  0  0
    2.1609    1.0965    0.4439 H   0  0  0  0  0  0  0  0  0  5  0  0
    2.8194   -0.4391   -0.3801 H   0  0  0  0  0  0  0  0  0  6  0  0
    0.5478   -1.0360    1.0084 H   0  0  0  0  0  0  0  0  0  7  0  0
    0.5377   -1.2415   -0.7461 H   0  0  0  0  0  0  0  0  0  8  0  0
   -0.4169    1.2699    0.7397 H   0  0  0  0  0  0  0  0  0  9  0  0
   -0.4129    1.0697   -1.0127 H   0  0  0  0  0  0  0  0  0 10  0  0
   -1.9970   -0.6581    0.9628 H   0  0  0  0  0  0  0  0  0 11  0  0
   -1.9949   -0.8588   -0.8006 H   0  0  0  0  0  0  0  0  0 12  0  0
   -2.6557    0.6172   -0.0763 H   0  0  0  0  0  0  0  0  0 13  0  0
  1  5  1  0
  1  6  1  0
  1  2  1  0
  2  8  1  0
  2  7  1  0
  2  3  1  0
  3  4  1  0
  3  9  1  0
  3 10  1  0
  4 13  1  0
  4 12  1  0
  4 11  1  0
M  RAD  1   1   2
M  END
>  <rmg_smiles>  (4) 
[CH2]CCC

>  <rmg_adjacency_list>  (4) 
multiplicity 2
1  C u0 p0 c0 {2,S} {3,S} {5,S} {6,S}
2  C u0 p0 c0 {1,S} {4,S} {7,S} {8,S}
3  C u0 p0 c0 {1,S} {9,S} {10,S} {11,S}
4  C u1 p0 c0 {2,S} {12,S} {13,S}
5  H u0 p0 c0 {1,S}
6  H u0 p0 c0 {1,S}
7  H u0 p0 c0 {2,S}
8  H u0 p0 c0 {2,S}
9  H u0 p0 c0 {3,S}
10 H u0 p0 c0 {3,S}
11 H u0 p0 c0 {3,S}
12 H u0 p0 c0 {4,S}
13 H u0 p0 c0 {4,S}


>  <multiplicity>  (4) 
2

>  <reaction>  (4) 
rmg_rxn_1142

>  <type>  (4) 
r1

>  <role_mapnums>  (4) 
{}

>  <role_mapidx>  (4) 
{}

>  <ordered_mapped_smiles>  (4) 
[C:1]([C:2]([C:3]([C:4]([H:11])([H:12])[H:13])([H:9])[H:10])([H:7])[H:8])([H:5])[H:6]

>  <level_of_theory>  (4) 
wb97xd/def2tzvp

>  <lot_method>  (4) 
wb97xd

>  <lot_basis>  (4) 
def2tzvp

>  <spin_multiplicity>  (4) 
2.0

>  <optical_isomers>  (4) 
2.0

>  <modes>  (4) 
IdealGasTranslation(mass=(57.0704, 'amu')),         NonlinearRotor(             inertia = ([20.3573, 130.066, 140.062

>  <frequency_value>  (4) 
unknown

>  <frequency_units>  (4) 
unknown

>  <frequency_list>  (4) 
unknown

>  <arkane_path>  (4) 
/home/calvin/Dropbox/PersonalFolders/Calvin/ATLAS_Converged/rmg_rxn_1142/output/Species/rmg_rxn_1142_p2_sbr-CH2-sbrCCC/arkane/output.py

>  <path_exists>  (4) 
True

>  <E0_value>  (4) 
-413979.5734190806

>  <E0_units>  (4) 
kJ/mol

>  <thermo_class>  (4) 
NASA

>  <Cp0_value>  (4) 
33.257888

>  <Cp0_units>  (4) 
J/(mol*K)

>  <CpInf_value>  (4) 
307.635464

>  <CpInf_units>  (4) 
J/(mol*K)

>  <Tmin_value>  (4) 
10.0

>  <Tmin_units>  (4) 
K

>  <Tmax_value>  (4) 
3000.0

>  <Tmax_units>  (4) 
K

>  <polynomials>  (4) 
[{"name": "polynomial1", "class": "NASAPolynomial", "Tmin_value": 10.0, "Tmin_units": "K", "Tmax_value": 821.283433198155, "Tmax_units": "K", "coeffs": [3.805942239176828, 0.017716795041208766, 4.174586328563509e-05, -6.135484271183339e-08, 2.4339129645884715e-11, -49790241.057286344, 9.970668688476735]}, {"name": "polynomial2", "class": "NASAPolynomial", "Tmin_value": 821.283433198155, "Tmin_units": "K", "Tmax_value": 3000.0, "Tmax_units": "K", "coeffs": [0.430645541851476, 0.04389367814171992, -2.3848971681878154e-05, 6.327806398389734e-09, -6.581791699764232e-13, -49790015.05104328, 23.590608699218933]}]

>  <H298_value>  (4) 
-98939.15948379572

>  <H298_units>  (4) 
kcal/mol

>  <S298_value>  (4) 
76.0969818695503

>  <S298_units>  (4) 
cal/(mol*K)

>  <Cp_T_value_list>  (4) 
[22.69126448517403, 28.354197953391232, 33.68840803174531, 38.48470853435081, 46.20723858869311, 51.955472693427936, 60.8786494671955, 65.40631774662552, 67.65282896285866]

>  <Cp_T_units>  (4) 
cal/(mol*K)

>  <T_list>  (4) 
[300.0, 400.0, 500.0, 600.0, 800.0, 1000.0, 1500.0, 2000.0, 2400.0]

>  <T_units>  (4) 
K

>  <yaml_path>  (4) 
/home/calvin/Dropbox/PersonalFolders/Calvin/ATLAS_Converged/rmg_rxn_1142/output/Species/rmg_rxn_1142_p2_sbr-CH2-sbrCCC/rmg_rxn_1142_p2_sbr-CH2-sbrCCC.yml

>  <frequencies_cm1>  (4) 
[130.28044549104, 180.09355700231998, 270.044197709, 291.2288474212, 433.54025119287996, 510.84877192544, 739.18976778608, 833.1781958609198, 877.7655315436799, 972.65353469544, 1037.14139383556, 1065.28229967692, 1088.2386316016798, 1166.62526902948, 1239.3191756269998, 1301.32118608128, 1318.76332879408, 1383.0795133012, 1406.0152442699998, 1446.11157155348, 1452.22318848828, 1480.89285219928, 1489.2431063483998, 1494.53755203012, 2974.7574396680398, 2982.51026609432, 2984.6664994847993, 3009.2228389891197, 3029.6521203161196, 3058.2668481445594, 3061.8376805109597, 3099.9975179342005, 3205.65982105304]

>  <ZPE_kJmol>  (4) 
305.132695775679

>  <E_elec_kJmol>  (4) 
-414284.7061148562

>  <E0_minus_Eelec_plus_ZPE_kJmol>  (4) 
0.0

>  <rxn>  (4) 
rmg_rxn_1142

>  <species_type>  (4) 
p1

>  <species_folder>  (4) 
rmg_rxn_1142_p2_sbr-CH2-sbrCCC

>  <frequencies_cm1_list>  (4) 
[130.28044549104, 180.09355700231998, 270.044197709, 291.2288474212, 433.54025119287996, 510.84877192544, 739.18976778608, 833.1781958609198, 877.7655315436799, 972.65353469544, 1037.14139383556, 1065.28229967692, 1088.2386316016798, 1166.62526902948, 1239.3191756269998, 1301.32118608128, 1318.76332879408, 1383.0795133012, 1406.0152442699998, 1446.11157155348, 1452.22318848828, 1480.89285219928, 1489.2431063483998, 1494.53755203012, 2974.7574396680398, 2982.51026609432, 2984.6664994847993, 3009.2228389891197, 3029.6521203161196, 3058.2668481445594, 3061.8376805109597, 3099.9975179342005, 3205.65982105304]

>  <E0_kJmol>  (4) 
-413980

>  <H298_kJmol>  (4) 
-413961

$$$$

     RDKit          3D

  1  0  0  0  0  0  0  0  0  0999 V2000
    0.0000    0.0000    0.0000 O   0  0  0  0  0 15  0  0  0  1  0  0
M  END
>  <rmg_smiles>  (5) 
[O]

>  <rmg_adjacency_list>  (5) 
multiplicity 3
1 O u2 p3 c0


>  <multiplicity>  (5) 
3

>  <reaction>  (5) 
rmg_rxn_1142

>  <type>  (5) 
r2

>  <role_mapnums>  (5) 
{}

>  <role_mapidx>  (5) 
{}

>  <ordered_mapped_smiles>  (5) 
[O:1]

>  <level_of_theory>  (5) 
wb97xd/def2tzvp

>  <lot_method>  (5) 
wb97xd

>  <lot_basis>  (5) 
def2tzvp

>  <spin_multiplicity>  (5) 
3.0

>  <optical_isomers>  (5) 
1.0

>  <modes>  (5) 
IdealGasTranslation(mass=(15.9994, 'amu')),

>  <frequency_value>  (5) 
unknown

>  <frequency_units>  (5) 
unknown

>  <frequency_list>  (5) 
unknown

>  <arkane_path>  (5) 
/home/calvin/Dropbox/PersonalFolders/Calvin/ATLAS_Converged/rmg_rxn_1142/output/Species/rmg_rxn_1142_r1_sbr-O-sbr/arkane/output.py

>  <path_exists>  (5) 
True

>  <E0_value>  (5) 
-197098.59938458708

>  <E0_units>  (5) 
kJ/mol

>  <thermo_class>  (5) 
NASA

>  <Cp0_value>  (5) 
20.78618

>  <Cp0_units>  (5) 
J/(mol*K)

>  <CpInf_value>  (5) 
20.78618

>  <CpInf_units>  (5) 
J/(mol*K)

>  <Tmin_value>  (5) 
10.0

>  <Tmin_units>  (5) 
K

>  <Tmax_value>  (5) 
3000.0

>  <Tmax_units>  (5) 
K

>  <polynomials>  (5) 
[{"name": "polynomial1", "class": "NASAPolynomial", "Tmin_value": 10.0, "Tmin_units": "K", "Tmax_value": 1853.5663026740365, "Tmax_units": "K", "coeffs": [2.500000000000126, -2.814048095438137e-15, 9.047587538332909e-18, -8.591944598242694e-21, 2.4182720553650057e-24, -23705485.977386568, 4.091313385047355]}, {"name": "polynomial2", "class": "NASAPolynomial", "Tmin_value": 1853.5663026740365, "Tmin_units": "K", "Tmax_value": 3000.0, "Tmax_units": "K", "coeffs": [2.500000000696122, -1.3129776766613561e-12, 9.140875080033424e-16, -2.782806647322001e-19, 3.1263265306749967e-23, -23705485.97738686, 4.091313381171202]}]

>  <H298_value>  (5) 
-47106.215373741215

>  <H298_units>  (5) 
kcal/mol

>  <S298_value>  (5) 
36.4335375885593

>  <S298_units>  (5) 
cal/(mol*K)

>  <Cp_T_value_list>  (5) 
[4.968016252389826, 4.968016252389978, 4.968016252390173, 4.96801625239036, 4.968016252390567, 4.968016252390427, 4.968016252389077, 4.968016252391019, 4.968016252390868]

>  <Cp_T_units>  (5) 
cal/(mol*K)

>  <T_list>  (5) 
[300.0, 400.0, 500.0, 600.0, 800.0, 1000.0, 1500.0, 2000.0, 2400.0]

>  <T_units>  (5) 
K

>  <yaml_path>  (5) 
/home/calvin/Dropbox/PersonalFolders/Calvin/ATLAS_Converged/rmg_rxn_1142/output/Species/rmg_rxn_1142_r1_sbr-O-sbr/rmg_rxn_1142_r1_sbr-O-sbr.yml

>  <frequencies_cm1>  (5) 
[]

>  <ZPE_kJmol>  (5) 
unknown

>  <E_elec_kJmol>  (5) 
unknown

>  <E0_minus_Eelec_plus_ZPE_kJmol>  (5) 
unknown

>  <rxn>  (5) 
rmg_rxn_1142

>  <species_type>  (5) 
r0

>  <species_folder>  (5) 
rmg_rxn_1142_r1_sbr-O-sbr

>  <frequencies_cm1_list>  (5) 
[]

>  <E0_kJmol>  (5) 
-197099

>  <H298_kJmol>  (5) 
-197092

$$$$
