
     RDKit          3D

  9  8  0  0  0  0  0  0  0  0999 V2000
   -0.5810   -1.4877    0.5078 C   0  0  0  0  0  0  0  0  0  1  0  0
   -0.5603   -0.2871   -0.1875 O   0  0  0  0  0  0  0  0  0  2  0  0
    0.5468    0.4505    0.1911 N   0  0  0  0  0  0  0  0  0  3  0  0
    0.6867    1.4923   -0.5077 C   0  0  0  0  0  0  0  0  0  4  0  0
    0.2297   -2.1154    0.1409 H   0  0  0  0  0  0  0  0  0  5  0  0
   -1.5079   -2.0024    0.2677 H   0  0  0  0  0  0  0  0  0  6  0  0
   -0.4064   -1.3656    1.5776 H   0  0  0  0  0  0  0  0  0  7  0  0
    1.5455    2.1079   -0.2784 H   0  0  0  0  0  0  0  0  0  8  0  0
   -0.0005    1.7536   -1.3094 H   0  0  0  0  0  0  0  0  0  9  0  0
  1  5  1  0
  1  7  1  0
  1  2  1  0
  1  6  1  0
  2  3  1  0
  3  4  1  0
  4  8  1  0
  4  9  1  0
M  END
>  <rmg_smiles>  (1) 
CO[N][CH2]

>  <rmg_adjacency_list>  (1) 
1 O u0 p2 c0 {2,S} {3,S}
2 N u0 p1 c0 {1,S} {4,S}
3 C u0 p0 c0 {1,S} {5,S} {6,S} {7,S}
4 C u0 p0 c0 {2,S} {8,S} {9,S}
5 H u0 p0 c0 {3,S}
6 H u0 p0 c0 {3,S}
7 H u0 p0 c0 {3,S}
8 H u0 p0 c0 {4,S}
9 H u0 p0 c0 {4,S}


>  <multiplicity>  (1) 
1

>  <reaction>  (1) 
rmg_rxn_15633

>  <type>  (1) 
r1h

>  <role_mapnums>  (1) 
{"r1h_a": 1, "r1h_h": 5}

>  <role_mapidx>  (1) 
{"r1h_a": 0, "r1h_h": 4}

>  <ordered_mapped_smiles>  (1) 
[C:1]([O:2][NH:3][CH:4]([H:8])[H:9])([H:5])([H:6])[H:7]

>  <mol_properties>  (1) 
{"0": {"label": "donator", "atom_type": "Cs"}, "4": {"label": "d_hydrogen", "atom_type": "H0"}}

>  <level_of_theory>  (1) 
wb97xd/def2tzvp

>  <lot_method>  (1) 
wb97xd

>  <lot_basis>  (1) 
def2tzvp

>  <spin_multiplicity>  (1) 
1.0

>  <optical_isomers>  (1) 
1.0

>  <modes>  (1) 
IdealGasTranslation(mass=(59.0371, 'amu')),         NonlinearRotor(             inertia = ([11.9742, 101.538, 110.304

>  <frequency_value>  (1) 
unknown

>  <frequency_units>  (1) 
unknown

>  <frequency_list>  (1) 
unknown

>  <arkane_path>  (1) 
/home/calvin/Dropbox/PersonalFolders/Calvin/ZEUS_Converged/rmg_rxn_15633/output/Species/rmg_rxn_15633_r1_CON=C/arkane/output.py

>  <path_exists>  (1) 
True

>  <E0_value>  (1) 
-548882.9200394232

>  <E0_units>  (1) 
kJ/mol

>  <thermo_class>  (1) 
NASA

>  <Cp0_value>  (1) 
33.257888

>  <Cp0_units>  (1) 
J/(mol*K)

>  <CpInf_value>  (1) 
207.8618

>  <CpInf_units>  (1) 
J/(mol*K)

>  <Tmin_value>  (1) 
10.0

>  <Tmin_units>  (1) 
K

>  <Tmax_value>  (1) 
3000.0

>  <Tmax_units>  (1) 
K

>  <polynomials>  (1) 
[{"name": "polynomial1", "class": "NASAPolynomial", "Tmin_value": 10.0, "Tmin_units": "K", "Tmax_value": 1066.0445442103917, "Tmax_units": "K", "coeffs": [3.9488472240731216, 0.012909444164008412, 1.8432835387873368e-05, -2.5565901414715004e-08, 8.632634293818456e-12, -66015370.98001154, 7.906058800048573]}, {"name": "polynomial2", "class": "NASAPolynomial", "Tmin_value": 1066.0445442103917, "Tmin_units": "K", "Tmax_value": 3000.0, "Tmax_units": "K", "coeffs": [4.051174026649639, 0.02340322367340144, -1.163838712217072e-05, 2.8112466199843713e-09, -2.6680947262736413e-13, -66016010.897278614, 4.506810904924114]}]

>  <H298_value>  (1) 
-131182.46582067996

>  <H298_units>  (1) 
kcal/mol

>  <S298_value>  (1) 
69.27397375028742

>  <S298_units>  (1) 
cal/(mol*K)

>  <Cp_T_value_list>  (1) 
[17.607207323409234, 21.157104611048137, 24.5530891366924, 27.67560467885903, 32.827861850696166, 36.480858050170255, 41.94371504002133, 44.76201379304356, 46.08804102499818]

>  <Cp_T_units>  (1) 
cal/(mol*K)

>  <T_list>  (1) 
[300.0, 400.0, 500.0, 600.0, 800.0, 1000.0, 1500.0, 2000.0, 2400.0]

>  <T_units>  (1) 
K

>  <yaml_path>  (1) 
/home/calvin/Dropbox/PersonalFolders/Calvin/ZEUS_Converged/rmg_rxn_15633/output/Species/rmg_rxn_15633_r1_CON=C/rmg_rxn_15633_r1_CON=C.yml

>  <frequencies_cm1>  (1) 
[119.61601728907998, 180.59484693068, 346.29520270228, 574.9726808436, 796.6046320465999, 891.08061607916, 982.9746136314, 1126.32979917172, 1169.7222794088, 1171.7686410341598, 1237.71230106212, 1418.12173938916, 1456.2266409298397, 1467.4060930307999, 1493.1160860688801, 1708.0183916582798, 3005.45973103376, 3077.28153049564, 3083.54422110748, 3121.53925088304, 3213.405780494]

>  <ZPE_kJmol>  (1) 
189.2599943319938

>  <E_elec_kJmol>  (1) 
-549072.1800337551

>  <E0_minus_Eelec_plus_ZPE_kJmol>  (1) 
0.0

>  <rxn>  (1) 
rmg_rxn_15633

>  <species_type>  (1) 
r0

>  <species_folder>  (1) 
rmg_rxn_15633_r1_CON=C

>  <frequencies_cm1_list>  (1) 
[119.61601728907998, 180.59484693068, 346.29520270228, 574.9726808436, 796.6046320465999, 891.08061607916, 982.9746136314, 1126.32979917172, 1169.7222794088, 1171.7686410341598, 1237.71230106212, 1418.12173938916, 1456.2266409298397, 1467.4060930307999, 1493.1160860688801, 1708.0183916582798, 3005.45973103376, 3077.28153049564, 3083.54422110748, 3121.53925088304, 3213.405780494]

>  <E0_kJmol>  (1) 
-548883

>  <H298_kJmol>  (1) 
-548867

$$$$

     RDKit          3D

 14 13  0  0  0  0  0  0  0  0999 V2000
   -2.7758   -1.2439   -0.1227 H   0  0  0  0  0  0  0  0  0  1  0  0
   -1.9704   -1.8372   -0.5530 C   0  0  0  0  0  0  0  0  0  2  0  0
   -0.7237   -1.0015   -0.6911 C   0  0  0  0  0  0  0  0  0  3  0  0
   -0.2287   -0.4850    0.6485 C   0  0  0  0  0  0  0  0  0  4  0  0
    1.1291   -0.0113    0.5628 O   0  0  0  0  0  0  0  0  0  5  0  0
    1.3296    1.2343    0.1573 C   0  0  0  0  0  0  0  0  0  6  0  0
    0.4922    2.0326   -0.1511 O   0  0  0  0  0  0  0  0  0  7  0  0
   -1.8837   -2.6707    0.1444 H   0  0  0  0  0  0  0  0  0  8  0  0
   -2.4051   -2.1503   -1.4996 H   0  0  0  0  0  0  0  0  0  9  0  0
   -0.9031   -0.1555   -1.3577 H   0  0  0  0  0  0  0  0  0 10  0  0
    0.0747   -1.6031   -1.1426 H   0  0  0  0  0  0  0  0  0 11  0  0
   -0.1845   -1.2911    1.3808 H   0  0  0  0  0  0  0  0  0 12  0  0
   -0.8733    0.3135    1.0159 H   0  0  0  0  0  0  0  0  0 13  0  0
    2.4092    1.4391    0.1477 H   0  0  0  0  0  0  0  0  0 14  0  0
  1  2  1  0
  2  9  1  0
  2  8  1  0
  2  3  1  0
  3 11  1  0
  3  4  1  0
  3 10  1  0
  4 13  1  0
  4 12  1  0
  4  5  1  0
  5  6  1  0
  6 14  1  0
  6  7  1  0
M  END
>  <rmg_smiles>  (2) 
CCCO[CH]O

>  <rmg_adjacency_list>  (2) 
1  O u0 p2 c0 {4,S} {6,S}
2  O u0 p2 c0 {6,S}
3  C u0 p0 c0 {4,S} {5,S} {7,S} {8,S}
4  C u0 p0 c0 {1,S} {3,S} {9,S} {10,S}
5  C u0 p0 c0 {3,S} {11,S} {12,S} {13,S}
6  C u0 p0 c0 {1,S} {2,S} {14,S}
7  H u0 p0 c0 {3,S}
8  H u0 p0 c0 {3,S}
9  H u0 p0 c0 {4,S}
10 H u0 p0 c0 {4,S}
11 H u0 p0 c0 {5,S}
12 H u0 p0 c0 {5,S}
13 H u0 p0 c0 {5,S}
14 H u0 p0 c0 {6,S}


>  <multiplicity>  (2) 
1

>  <reaction>  (2) 
rmg_rxn_15633

>  <type>  (2) 
r2h

>  <role_mapnums>  (2) 
{"r2h_a": 2, "r2h_h": 1}

>  <role_mapidx>  (2) 
{"r2h_a": 1, "r2h_h": 0}

>  <ordered_mapped_smiles>  (2) 
[H:1][C:2]([C:3]([C:4]([O:5][CH:6]([OH:7])[H:14])([H:12])[H:13])([H:10])[H:11])([H:8])[H:9]

>  <mol_properties>  (2) 
{"0": {"label": "a_hydrogen", "atom_type": "H0"}, "1": {"label": "acceptor", "atom_type": "Cs"}}

>  <level_of_theory>  (2) 
wb97xd/def2tzvp

>  <lot_method>  (2) 
wb97xd

>  <lot_basis>  (2) 
def2tzvp

>  <spin_multiplicity>  (2) 
1.0

>  <optical_isomers>  (2) 
2.0

>  <modes>  (2) 
IdealGasTranslation(mass=(88.0524, 'amu')),         NonlinearRotor(             inertia = ([48.3633, 284.16, 302.217

>  <frequency_value>  (2) 
unknown

>  <frequency_units>  (2) 
unknown

>  <frequency_list>  (2) 
unknown

>  <arkane_path>  (2) 
/home/calvin/Dropbox/PersonalFolders/Calvin/ZEUS_Converged/rmg_rxn_15633/output/Species/rmg_rxn_15633_p2_CCCOC=O/arkane/output.py

>  <path_exists>  (2) 
True

>  <E0_value>  (2) 
-807618.4108643779

>  <E0_units>  (2) 
kJ/mol

>  <thermo_class>  (2) 
NASA

>  <Cp0_value>  (2) 
33.257888

>  <Cp0_units>  (2) 
J/(mol*K)

>  <CpInf_value>  (2) 
332.57888

>  <CpInf_units>  (2) 
J/(mol*K)

>  <Tmin_value>  (2) 
10.0

>  <Tmin_units>  (2) 
K

>  <Tmax_value>  (2) 
3000.0

>  <Tmax_units>  (2) 
K

>  <polynomials>  (2) 
[{"name": "polynomial1", "class": "NASAPolynomial", "Tmin_value": 10.0, "Tmin_units": "K", "Tmax_value": 405.10744411587814, "Tmax_units": "K", "coeffs": [3.6051186443860916, 0.0433857404928104, -0.00011712945642388352, 3.5153974457342437e-07, -3.3677062560376364e-10, -97134056.76009497, 11.602927682630103]}, {"name": "polynomial2", "class": "NASAPolynomial", "Tmin_value": 405.10744411587814, "Tmin_units": "K", "Tmax_value": 3000.0, "Tmax_units": "K", "coeffs": [-0.7474451635456619, 0.053294207334936367, -3.1374616587479094e-05, 8.91792929927193e-09, -9.826468132408713e-13, -97133432.76263109, 32.017607916268844]}]

>  <H298_value>  (2) 
-193020.456463745

>  <H298_units>  (2) 
kcal/mol

>  <S298_value>  (2) 
84.07242684194651

>  <S298_units>  (2) 
cal/(mol*K)

>  <Cp_T_value_list>  (2) 
[25.521535606004147, 31.985911797342972, 37.97418499098442, 43.188235042536576, 51.611039182396816, 57.842470286699886, 67.01722850328892, 71.46707694187613, 73.76600476206598]

>  <Cp_T_units>  (2) 
cal/(mol*K)

>  <T_list>  (2) 
[300.0, 400.0, 500.0, 600.0, 800.0, 1000.0, 1500.0, 2000.0, 2400.0]

>  <T_units>  (2) 
K

>  <yaml_path>  (2) 
/home/calvin/Dropbox/PersonalFolders/Calvin/ZEUS_Converged/rmg_rxn_15633/output/Species/rmg_rxn_15633_p2_CCCOC=O/rmg_rxn_15633_p2_CCCOC=O.yml

>  <frequencies_cm1>  (2) 
[46.4551556898, 126.02978157796, 189.48759292007998, 250.07500439844, 297.16878972300003, 346.86516248384, 461.00819247287995, 761.5486719879999, 784.73161442832, 897.4257105148399, 914.51763697632, 942.4594002434001, 1045.6633226176798, 1075.20509346432, 1123.17098592452, 1166.94801733952, 1239.2985746710401, 1272.15709942724, 1302.4817066003598, 1370.97301818204, 1394.12849268108, 1404.8547237509197, 1411.8865167186, 1469.7752029661997, 1483.13835639892, 1494.14613386688, 1498.0465815286398, 1809.5330356438396, 3017.80657063912, 3018.8022835105194, 3022.331913965, 3030.1602772297992, 3060.8351006542393, 3080.8180279354397, 3091.29704753376, 3102.77178000348]

>  <ZPE_kJmol>  (2) 
311.0531007319138

>  <E_elec_kJmol>  (2) 
-807929.4639651098

>  <E0_minus_Eelec_plus_ZPE_kJmol>  (2) 
0.0

>  <rxn>  (2) 
rmg_rxn_15633

>  <species_type>  (2) 
p1

>  <species_folder>  (2) 
rmg_rxn_15633_p2_CCCOC=O

>  <frequencies_cm1_list>  (2) 
[46.4551556898, 126.02978157796, 189.48759292007998, 250.07500439844, 297.16878972300003, 346.86516248384, 461.00819247287995, 761.5486719879999, 784.73161442832, 897.4257105148399, 914.51763697632, 942.4594002434001, 1045.6633226176798, 1075.20509346432, 1123.17098592452, 1166.94801733952, 1239.2985746710401, 1272.15709942724, 1302.4817066003598, 1370.97301818204, 1394.12849268108, 1404.8547237509197, 1411.8865167186, 1469.7752029661997, 1483.13835639892, 1494.14613386688, 1498.0465815286398, 1809.5330356438396, 3017.80657063912, 3018.8022835105194, 3022.331913965, 3030.1602772297992, 3060.8351006542393, 3080.8180279354397, 3091.29704753376, 3102.77178000348]

>  <E0_kJmol>  (2) 
-807618

>  <H298_kJmol>  (2) 
-807598

$$$$

     RDKit          3D

 22 20  0  0  0  0  0  0  0  0999 V2000
   -2.6076   -0.8169    0.5238 C   0  0  0  0  0  0  0  0  0  1  0  0
   -2.5869    0.3837   -0.1716 O   0  0  0  0  0  0  0  0  0  2  0  0
   -1.4798    1.1214    0.2071 N   0  0  0  0  0  0  0  0  0  3  0  0
   -1.3399    2.1631   -0.4917 C   0  0  0  0  0  0  0  0  0  4  0  0
   -1.6220   -1.5799    0.0778 H   0  0  0  0  0  0  0  0  0  5  0  0
   -3.5345   -1.3315    0.2836 H   0  0  0  0  0  0  0  0  0  6  0  0
   -2.4330   -0.6948    1.5936 H   0  0  0  0  0  0  0  0  0  7  0  0
   -0.4811    2.7788   -0.2624 H   0  0  0  0  0  0  0  0  0  8  0  0
   -2.0271    2.4244   -1.2935 H   0  0  0  0  0  0  0  0  0  9  0  0
   -0.5977   -2.3344   -0.4694 C   0  0  0  0  0  3  0  0  0 10  0  0
    0.6489   -1.4987   -0.6075 C   0  0  0  0  0  0  0  0  0 11  0  0
    1.1439   -0.9821    0.7321 C   0  0  0  0  0  0  0  0  0 12  0  0
    2.5018   -0.5084    0.6465 O   0  0  0  0  0  0  0  0  0 13  0  0
    2.7022    0.7372    0.2410 C   0  0  0  0  0  0  0  0  0 14  0  0
    1.8648    1.5354   -0.0674 O   0  0  0  0  0  0  0  0  0 15  0  0
   -0.5111   -3.1679    0.2280 H   0  0  0  0  0  0  0  0  0 16  0  0
   -1.0324   -2.6475   -1.4160 H   0  0  0  0  0  0  0  0  0 17  0  0
    0.4696   -0.6526   -1.2741 H   0  0  0  0  0  0  0  0  0 18  0  0
    1.4474   -2.1003   -1.0589 H   0  0  0  0  0  0  0  0  0 19  0  0
    1.1881   -1.7882    1.4644 H   0  0  0  0  0  0  0  0  0 20  0  0
    0.4993   -0.1836    1.0995 H   0  0  0  0  0  0  0  0  0 21  0  0
    3.7818    0.9419    0.2314 H   0  0  0  0  0  0  0  0  0 22  0  0
  1  7  1  0
  1  2  1  0
  1  5  1  0
  1  6  1  0
  2  3  1  0
  3  4  1  0
  4  9  1  0
  4  8  1  0
 10 16  1  0
 10 11  1  0
 10 17  1  0
 11 19  1  0
 11 12  1  0
 11 18  1  0
 12 13  1  0
 12 20  1  0
 12 21  1  0
 13 14  1  0
 14 22  1  0
 14 15  1  0
M  RAD  1  10   2
M  END
>  <rmg_smiles>  (3) 
[CH2]CCO[CH][O].CO[N][CH2]

>  <rmg_adjacency_list>  (3) 
multiplicity 2
1  O u0 p2 c0 {6,S} {9,S}
2  O u0 p2 c0 {4,S} {7,S}
3  O u0 p2 c0 {9,S}
4  N u0 p1 c0 {2,S} {10,S}
5  C u0 p0 c0 {6,S} {8,S} {11,S} {12,S}
6  C u0 p0 c0 {1,S} {5,S} {13,S} {14,S}
7  C u0 p0 c0 {2,S} {15,S} {16,S} {17,S}
8  C u1 p0 c0 {5,S} {18,S} {19,S}
9  C u0 p0 c0 {1,S} {3,S} {22,S}
10 C u0 p0 c0 {4,S} {20,S} {21,S}
11 H u0 p0 c0 {5,S}
12 H u0 p0 c0 {5,S}
13 H u0 p0 c0 {6,S}
14 H u0 p0 c0 {6,S}
15 H u0 p0 c0 {7,S}
16 H u0 p0 c0 {7,S}
17 H u0 p0 c0 {7,S}
18 H u0 p0 c0 {8,S}
19 H u0 p0 c0 {8,S}
20 H u0 p0 c0 {10,S}
21 H u0 p0 c0 {10,S}
22 H u0 p0 c0 {9,S}


>  <multiplicity>  (3) 
2

>  <reaction>  (3) 
rmg_rxn_15633

>  <type>  (3) 
ts

>  <role_mapnums>  (3) 
{"*2": 5, "*1": 1, "*3": 10, "*0": 2, "*4": 11}

>  <role_mapidx>  (3) 
{"*2": 4, "*1": 0, "*3": 9, "*0": 1, "*4": 10}

>  <ordered_mapped_smiles>  (3) 
[C:1]([O:2][NH:3][CH:4]([H:8])[H:9])([H:5])([H:6])[H:7].[C:10]([C:11]([C:12]([O:13][CH:14]([OH:15])[H:22])([H:20])[H:21])([H:18])[H:19])([H:16])[H:17]

>  <mol_properties>  (3) 
{"0": {"label": "*1", "atom_type": "Cs"}, "1": {"label": "*0", "atom_type": "O2s"}, "4": {"label": "*2", "atom_type": "H0"}, "9": {"label": "*3", "atom_type": "Cs"}, "10": {"label": "*4", "atom_type": "Cs"}}

>  <level_of_theory>  (3) 
wb97xd/def2tzvp

>  <lot_method>  (3) 
wb97xd

>  <lot_basis>  (3) 
def2tzvp

>  <spin_multiplicity>  (3) 
2.0

>  <optical_isomers>  (3) 
2.0

>  <modes>  (3) 
IdealGasTranslation(mass=(146.082, 'amu')),         NonlinearRotor(             inertia = ([319.141, 594.794, 838.094

>  <frequency_value>  (3) 
-1770.1

>  <frequency_units>  (3) 
cm^-1

>  <frequency_list>  (3) 
unknown

>  <arkane_path>  (3) 
/home/calvin/Dropbox/PersonalFolders/Calvin/ZEUS_Converged/rmg_rxn_15633/output/rxns/TS0/arkane/output.py

>  <path_exists>  (3) 
True

>  <E0_value>  (3) 
-1354720.0

>  <E0_units>  (3) 
kJ/mol

>  <thermo_class>  (3) 
unknown

>  <Cp0_value>  (3) 
unknown

>  <Cp0_units>  (3) 
unknown

>  <CpInf_value>  (3) 
unknown

>  <CpInf_units>  (3) 
unknown

>  <Tmin_value>  (3) 
unknown

>  <Tmin_units>  (3) 
unknown

>  <Tmax_value>  (3) 
unknown

>  <Tmax_units>  (3) 
unknown

>  <polynomials>  (3) 
unknown

>  <H298_value>  (3) 
unknown

>  <H298_units>  (3) 
unknown

>  <S298_value>  (3) 
unknown

>  <S298_units>  (3) 
unknown

>  <Cp_T_value_list>  (3) 
unknown

>  <Cp_T_units>  (3) 
unknown

>  <T_list>  (3) 
unknown

>  <T_units>  (3) 
unknown

>  <yaml_path>  (3) 
unknown

>  <frequencies_cm1>  (3) 
unknown

>  <ZPE_kJmol>  (3) 
unknown

>  <E_elec_kJmol>  (3) 
unknown

>  <E0_minus_Eelec_plus_ZPE_kJmol>  (3) 
unknown

>  <rxn>  (3) 
unknown

>  <species_type>  (3) 
unknown

>  <species_folder>  (3) 
unknown

>  <frequencies_cm1_list>  (3) 
[]

>  <ts_imag_freq_cm1>  (3) 
-1791.5982

>  <ts_freq_out_path>  (3) 
/home/calvin/Dropbox/PersonalFolders/Calvin/ZEUS_Converged/rmg_rxn_15633/output/rxns/TS0/geometry/freq.out

>  <E0_kJmol>  (3) 
-1.35472e+06

>  <H298_kJmol>  (3) 
unknown

$$$$

     RDKit          3D

  8  7  0  0  0  0  0  0  0  0999 V2000
    1.7077   -0.1964   -0.0607 C   0  0  0  0  0  3  0  0  0  1  0  0
    0.4209   -0.4565    0.2808 O   0  0  0  0  0  0  0  0  0  2  0  0
   -0.4607    0.4385   -0.2968 N   0  0  0  0  0  0  0  0  0  3  0  0
   -1.6584    0.1416   -0.0244 C   0  0  0  0  0  0  0  0  0  4  0  0
    2.4163   -0.7685    0.5170 H   0  0  0  0  0  0  0  0  0  5  0  0
    1.9214    0.7645   -0.5045 H   0  0  0  0  0  0  0  0  0  6  0  0
   -2.4185    0.7953   -0.4307 H   0  0  0  0  0  0  0  0  0  7  0  0
   -1.9286   -0.7185    0.5831 H   0  0  0  0  0  0  0  0  0  8  0  0
  1  6  1  0
  1  5  1  0
  1  2  1  0
  2  3  1  0
  3  4  1  0
  4  8  1  0
  4  7  1  0
M  RAD  1   1   2
M  END
>  <rmg_smiles>  (4) 
[CH2]O[N][CH2]

>  <rmg_adjacency_list>  (4) 
multiplicity 2
1 O u0 p2 c0 {2,S} {3,S}
2 N u0 p1 c0 {1,S} {4,S}
3 C u1 p0 c0 {1,S} {5,S} {6,S}
4 C u0 p0 c0 {2,S} {7,S} {8,S}
5 H u0 p0 c0 {3,S}
6 H u0 p0 c0 {3,S}
7 H u0 p0 c0 {4,S}
8 H u0 p0 c0 {4,S}


>  <multiplicity>  (4) 
2

>  <reaction>  (4) 
rmg_rxn_15633

>  <type>  (4) 
r1

>  <role_mapnums>  (4) 
{}

>  <role_mapidx>  (4) 
{}

>  <ordered_mapped_smiles>  (4) 
[C:1]([O:2][NH:3][CH:4]([H:7])[H:8])([H:5])[H:6]

>  <level_of_theory>  (4) 
wb97xd/def2tzvp

>  <lot_method>  (4) 
wb97xd

>  <lot_basis>  (4) 
def2tzvp

>  <spin_multiplicity>  (4) 
2.0

>  <optical_isomers>  (4) 
2.0

>  <modes>  (4) 
IdealGasTranslation(mass=(58.0293, 'amu')),         NonlinearRotor(             inertia = ([10.2741, 95.4529, 105.582

>  <frequency_value>  (4) 
unknown

>  <frequency_units>  (4) 
unknown

>  <frequency_list>  (4) 
unknown

>  <arkane_path>  (4) 
/home/calvin/Dropbox/PersonalFolders/Calvin/ZEUS_Converged/rmg_rxn_15633/output/Species/rmg_rxn_15633_p1_sbr-CH2-sbrON=C/arkane/output.py

>  <path_exists>  (4) 
True

>  <E0_value>  (4) 
-547168.2732446302

>  <E0_units>  (4) 
kJ/mol

>  <thermo_class>  (4) 
NASA

>  <Cp0_value>  (4) 
33.257888

>  <Cp0_units>  (4) 
J/(mol*K)

>  <CpInf_value>  (4) 
182.918384

>  <CpInf_units>  (4) 
J/(mol*K)

>  <Tmin_value>  (4) 
10.0

>  <Tmin_units>  (4) 
K

>  <Tmax_value>  (4) 
3000.0

>  <Tmax_units>  (4) 
K

>  <polynomials>  (4) 
[{"name": "polynomial1", "class": "NASAPolynomial", "Tmin_value": 10.0, "Tmin_units": "K", "Tmax_value": 253.2842427910515, "Tmax_units": "K", "coeffs": [3.956862909385456, 0.0038362890131335746, 0.00011727738047703725, -3.4736244039427427e-07, 3.472729073035136e-10, -65809144.38694886, 9.350338763280796]}, {"name": "polynomial2", "class": "NASAPolynomial", "Tmin_value": 253.2842427910515, "Tmin_units": "K", "Tmax_value": 3000.0, "Tmax_units": "K", "coeffs": [2.5252197328965313, 0.026445761179553072, -1.662161754135038e-05, 5.074735532607581e-09, -5.97403912324656e-13, -65809071.86505469, 14.291183066674913]}]

>  <H298_value>  (4) 
-130772.65860702786

>  <H298_units>  (4) 
kcal/mol

>  <S298_value>  (4) 
71.26914844977757

>  <S298_units>  (4) 
cal/(mol*K)

>  <Cp_T_value_list>  (4) 
[18.0740035969719, 21.369534269323825, 24.223451351766553, 26.683440747612977, 30.598134113509214, 33.438117676478754, 37.554421513360474, 39.68390492467901, 40.91110806828642]

>  <Cp_T_units>  (4) 
cal/(mol*K)

>  <T_list>  (4) 
[300.0, 400.0, 500.0, 600.0, 800.0, 1000.0, 1500.0, 2000.0, 2400.0]

>  <T_units>  (4) 
K

>  <yaml_path>  (4) 
/home/calvin/Dropbox/PersonalFolders/Calvin/ZEUS_Converged/rmg_rxn_15633/output/Species/rmg_rxn_15633_p1_sbr-CH2-sbrON=C/rmg_rxn_15633_p1_sbr-CH2-sbrON=C.yml

>  <frequencies_cm1>  (4) 
[132.13453152744, 273.14807507364, 360.4549264321199, 498.69420790903996, 595.9169860696, 789.3942974605999, 873.74834513148, 993.5360370535599, 1152.01232426852, 1206.54305469464, 1257.0497317232398, 1417.2771001948001, 1437.260027476, 1705.2166616477198, 3090.5210781926, 3134.7719315946797, 3218.94057066192, 3282.16490450316]

>  <ZPE_kJmol>  (4) 
152.0381400376291

>  <E_elec_kJmol>  (4) 
-547320.3113846679

>  <E0_minus_Eelec_plus_ZPE_kJmol>  (4) 
0.0

>  <rxn>  (4) 
rmg_rxn_15633

>  <species_type>  (4) 
p0

>  <species_folder>  (4) 
rmg_rxn_15633_p1_sbr-CH2-sbrON=C

>  <frequencies_cm1_list>  (4) 
[132.13453152744, 273.14807507364, 360.4549264321199, 498.69420790903996, 595.9169860696, 789.3942974605999, 873.74834513148, 993.5360370535599, 1152.01232426852, 1206.54305469464, 1257.0497317232398, 1417.2771001948001, 1437.260027476, 1705.2166616477198, 3090.5210781926, 3134.7719315946797, 3218.94057066192, 3282.16490450316]

>  <E0_kJmol>  (4) 
-547168

>  <H298_kJmol>  (4) 
-547153

$$$$

     RDKit          3D

 13 12  0  0  0  0  0  0  0  0999 V2000
   -1.5799    1.1067    0.0515 C   0  0  0  0  0  3  0  0  0  1  0  0
   -0.9928   -0.2393    0.2618 C   0  0  0  0  0  0  0  0  0  2  0  0
   -1.7555   -1.0997    1.2551 C   0  0  0  0  0  0  0  0  0  3  0  0
   -1.8361   -0.4775    2.5485 O   0  0  0  0  0  0  0  0  0  4  0  0
   -0.7917   -0.6299    3.3579 C   0  0  0  0  0  0  0  0  0  5  0  0
    0.2062   -1.2445    3.1186 O   0  0  0  0  0  0  0  0  0  6  0  0
   -1.2812    1.7056   -0.7974 H   0  0  0  0  0  0  0  0  0  7  0  0
   -2.2051    1.5632    0.8066 H   0  0  0  0  0  0  0  0  0  8  0  0
    0.0498   -0.1629    0.6011 H   0  0  0  0  0  0  0  0  0  9  0  0
   -0.9461   -0.7884   -0.6853 H   0  0  0  0  0  0  0  0  0 10  0  0
   -1.2850   -2.0771    1.3590 H   0  0  0  0  0  0  0  0  0 11  0  0
   -2.7930   -1.2235    0.9483 H   0  0  0  0  0  0  0  0  0 12  0  0
   -0.9863   -0.1022    4.3012 H   0  0  0  0  0  0  0  0  0 13  0  0
  1  8  1  0
  1  7  1  0
  1  2  1  0
  2 10  1  0
  2  9  1  0
  2  3  1  0
  3 11  1  0
  3  4  1  0
  3 12  1  0
  4  5  1  0
  5 13  1  0
  5  6  1  0
M  RAD  1   1   2
M  END
>  <rmg_smiles>  (5) 
[CH2]CCO[CH]O

>  <rmg_adjacency_list>  (5) 
multiplicity 2
1  O u0 p2 c0 {4,S} {6,S}
2  O u0 p2 c0 {6,S}
3  C u0 p0 c0 {4,S} {5,S} {7,S} {8,S}
4  C u0 p0 c0 {1,S} {3,S} {9,S} {10,S}
5  C u1 p0 c0 {3,S} {11,S} {12,S}
6  C u0 p0 c0 {1,S} {2,S} {13,S}
7  H u0 p0 c0 {3,S}
8  H u0 p0 c0 {3,S}
9  H u0 p0 c0 {4,S}
10 H u0 p0 c0 {4,S}
11 H u0 p0 c0 {5,S}
12 H u0 p0 c0 {5,S}
13 H u0 p0 c0 {6,S}


>  <multiplicity>  (5) 
2

>  <reaction>  (5) 
rmg_rxn_15633

>  <type>  (5) 
r2

>  <role_mapnums>  (5) 
{}

>  <role_mapidx>  (5) 
{}

>  <ordered_mapped_smiles>  (5) 
[C:1]([C:2]([C:3]([O:4][CH:5]([OH:6])[H:13])([H:11])[H:12])([H:9])[H:10])([H:7])[H:8]

>  <level_of_theory>  (5) 
wb97xd/def2tzvp

>  <lot_method>  (5) 
wb97xd

>  <lot_basis>  (5) 
def2tzvp

>  <spin_multiplicity>  (5) 
2.0

>  <optical_isomers>  (5) 
2.0

>  <modes>  (5) 
IdealGasTranslation(mass=(87.0446, 'amu')),         NonlinearRotor(             inertia = ([68.7019, 226.633, 235.582

>  <frequency_value>  (5) 
unknown

>  <frequency_units>  (5) 
unknown

>  <frequency_list>  (5) 
unknown

>  <arkane_path>  (5) 
/home/calvin/Dropbox/PersonalFolders/Calvin/ZEUS_Converged/rmg_rxn_15633/output/Species/rmg_rxn_15633_r2_sbr-CH2-sbrCCOC=O/arkane/output.py

>  <path_exists>  (5) 
True

>  <E0_value>  (5) 
-805884.7092282252

>  <E0_units>  (5) 
kJ/mol

>  <thermo_class>  (5) 
NASA

>  <Cp0_value>  (5) 
33.257888

>  <Cp0_units>  (5) 
J/(mol*K)

>  <CpInf_value>  (5) 
307.635464

>  <CpInf_units>  (5) 
J/(mol*K)

>  <Tmin_value>  (5) 
10.0

>  <Tmin_units>  (5) 
K

>  <Tmax_value>  (5) 
3000.0

>  <Tmax_units>  (5) 
K

>  <polynomials>  (5) 
[{"name": "polynomial1", "class": "NASAPolynomial", "Tmin_value": 10.0, "Tmin_units": "K", "Tmax_value": 1245.6156345789536, "Tmax_units": "K", "coeffs": [3.7898992775987246, 0.03413090532685847, -3.694764360672551e-06, -1.078896012834158e-08, 4.234943830035073e-12, -96925545.18115257, 11.846083892460978]}, {"name": "polynomial2", "class": "NASAPolynomial", "Tmin_value": 1245.6156345789536, "Tmin_units": "K", "Tmax_value": 3000.0, "Tmax_units": "K", "coeffs": [9.787666577815154, 0.028343486573329954, -1.2949915048374994e-05, 2.8480174994479122e-09, -2.448692168687387e-13, -96928084.5703585, -22.602507767213705]}]

>  <H298_value>  (5) 
-192605.9206705241

>  <H298_units>  (5) 
kcal/mol

>  <S298_value>  (5) 
86.16055833251279

>  <S298_units>  (5) 
cal/(mol*K)

>  <Cp_T_value_list>  (5) 
[26.707346347016184, 32.32990275425089, 37.454321298869154, 42.0428522760679, 49.562241203917154, 54.99002587906488, 62.672511133802836, 66.65331464893644, 68.49373137497159]

>  <Cp_T_units>  (5) 
cal/(mol*K)

>  <T_list>  (5) 
[300.0, 400.0, 500.0, 600.0, 800.0, 1000.0, 1500.0, 2000.0, 2400.0]

>  <T_units>  (5) 
K

>  <yaml_path>  (5) 
/home/calvin/Dropbox/PersonalFolders/Calvin/ZEUS_Converged/rmg_rxn_15633/output/Species/rmg_rxn_15633_r2_sbr-CH2-sbrCCOC=O/rmg_rxn_15633_r2_sbr-CH2-sbrCCOC=O.yml

>  <frequencies_cm1>  (5) 
[61.260376039719986, 108.80051541008, 142.00238943227998, 224.59848886123999, 308.3963107212, 363.84035019488, 458.33693518340004, 517.3655409941199, 763.2654183179999, 771.0045107736399, 901.1544835435999, 929.42586210604, 1012.3172419037601, 1046.5422967386398, 1078.02055744552, 1119.50401576364, 1201.87350467704, 1244.6685571912801, 1309.8431148634, 1369.0983311896798, 1392.2744066446799, 1405.6100921361199, 1446.4961227313997, 1453.4180439339602, 1479.2585096931198, 1807.7682204166, 2966.7917366968395, 3016.64605012004, 3022.0160326402797, 3059.5509743993994, 3115.6954463757197, 3132.8148407784797, 3237.440229114]

>  <ZPE_kJmol>  (5) 
271.95372629439447

>  <E_elec_kJmol>  (5) 
-806156.6629545196

>  <E0_minus_Eelec_plus_ZPE_kJmol>  (5) 
0.0

>  <rxn>  (5) 
rmg_rxn_15633

>  <species_type>  (5) 
r1

>  <species_folder>  (5) 
rmg_rxn_15633_r2_sbr-CH2-sbrCCOC=O

>  <frequencies_cm1_list>  (5) 
[61.260376039719986, 108.80051541008, 142.00238943227998, 224.59848886123999, 308.3963107212, 363.84035019488, 458.33693518340004, 517.3655409941199, 763.2654183179999, 771.0045107736399, 901.1544835435999, 929.42586210604, 1012.3172419037601, 1046.5422967386398, 1078.02055744552, 1119.50401576364, 1201.87350467704, 1244.6685571912801, 1309.8431148634, 1369.0983311896798, 1392.2744066446799, 1405.6100921361199, 1446.4961227313997, 1453.4180439339602, 1479.2585096931198, 1807.7682204166, 2966.7917366968395, 3016.64605012004, 3022.0160326402797, 3059.5509743993994, 3115.6954463757197, 3132.8148407784797, 3237.440229114]

>  <E0_kJmol>  (5) 
-805885

>  <H298_kJmol>  (5) 
-805863

$$$$
