
     RDKit          3D

 10  9  0  0  0  0  0  0  0  0999 V2000
    1.4008    1.1098   -0.2937 C   0  0  0  0  0  0  0  0  0  1  0  0
    0.5541    0.2058    0.5513 C   0  0  0  0  0  0  0  0  0  2  0  0
   -0.4936   -0.4575    0.1095 C   0  0  0  0  0  2  0  0  0  3  0  0
   -1.5689   -1.0116   -0.2963 C   0  0  0  0  0  0  0  0  0  4  0  0
    2.4224    0.7281   -0.3681 H   0  0  0  0  0  0  0  0  0  5  0  0
    0.9953    1.2028   -1.3004 H   0  0  0  0  0  0  0  0  0  6  0  0
    1.4628    2.1070    0.1495 H   0  0  0  0  0  0  0  0  0  7  0  0
   -2.4806   -0.4418   -0.1899 H   0  0  0  0  0  0  0  0  0  8  0  0
    0.8436    0.0683    1.5890 H   0  0  0  0  0  0  0  0  0  9  0  0
   -1.7328   -1.9782   -0.7502 H   0  0  0  0  0  0  0  0  0 10  0  0
  1  5  1  0
  1  7  1  0
  1  6  1  0
  1  2  1  0
  2  9  1  0
  2  3  1  0
  3  4  1  0
  4  8  1  0
  4 10  1  0
M  RAD  1   3   3
M  END
>  <rmg_smiles>  (1) 
[CH2][C][CH]C

>  <rmg_adjacency_list>  (1) 
1  C u0 p0 c0 {2,S} {5,S} {6,S} {7,S}
2  C u0 p0 c0 {1,S} {4,S} {8,S}
3  C u0 p0 c0 {4,S} {9,S} {10,S}
4  C u0 p1 c0 {2,S} {3,S}
5  H u0 p0 c0 {1,S}
6  H u0 p0 c0 {1,S}
7  H u0 p0 c0 {1,S}
8  H u0 p0 c0 {2,S}
9  H u0 p0 c0 {3,S}
10 H u0 p0 c0 {3,S}


>  <multiplicity>  (1) 
1

>  <reaction>  (1) 
rmg_rxn_16808

>  <type>  (1) 
r1h

>  <role_mapnums>  (1) 
{"r1h_a": 4, "r1h_h": 8}

>  <role_mapidx>  (1) 
{"r1h_a": 3, "r1h_h": 7}

>  <ordered_mapped_smiles>  (1) 
[C:1]([CH:2]([C:3][CH:4]([H:8])[H:10])[H:9])([H:5])([H:6])[H:7]

>  <mol_properties>  (1) 
{"3": {"label": "donator", "atom_type": "Cs"}, "7": {"label": "d_hydrogen", "atom_type": "H0"}}

>  <level_of_theory>  (1) 
wb97xd/def2tzvp

>  <lot_method>  (1) 
wb97xd

>  <lot_basis>  (1) 
def2tzvp

>  <spin_multiplicity>  (1) 
1.0

>  <optical_isomers>  (1) 
1.0

>  <modes>  (1) 
IdealGasTranslation(mass=(54.047, 'amu')),         NonlinearRotor(             inertia = ([14.4765, 119.159, 126.96

>  <frequency_value>  (1) 
unknown

>  <frequency_units>  (1) 
unknown

>  <frequency_list>  (1) 
unknown

>  <arkane_path>  (1) 
/home/calvin/Dropbox/PersonalFolders/Calvin/ZEUS_Converged/rmg_rxn_16808/output/Species/rmg_rxn_16808_r2_C=C=CC/arkane/output.py

>  <path_exists>  (1) 
True

>  <E0_value>  (1) 
-409295.803988148

>  <E0_units>  (1) 
kJ/mol

>  <thermo_class>  (1) 
NASA

>  <Cp0_value>  (1) 
33.257888

>  <Cp0_units>  (1) 
J/(mol*K)

>  <CpInf_value>  (1) 
232.805216

>  <CpInf_units>  (1) 
J/(mol*K)

>  <Tmin_value>  (1) 
10.0

>  <Tmin_units>  (1) 
K

>  <Tmax_value>  (1) 
3000.0

>  <Tmax_units>  (1) 
K

>  <polynomials>  (1) 
[{"name": "polynomial1", "class": "NASAPolynomial", "Tmin_value": 10.0, "Tmin_units": "K", "Tmax_value": 378.3338810114521, "Tmax_units": "K", "coeffs": [3.956788291646404, 0.0028758748884973595, 0.00010222157511154379, -2.0822145200867456e-07, 1.4048133398099896e-10, -49226913.492635585, 8.267336820593142]}, {"name": "polynomial2", "class": "NASAPolynomial", "Tmin_value": 378.3338810114521, "Tmin_units": "K", "Tmax_value": 3000.0, "Tmax_units": "K", "coeffs": [1.0662090645095545, 0.03343521113532414, -1.893143893726876e-05, 5.251083928678167e-09, -5.712549624407654e-13, -49226694.75887327, 19.403301870301277]}]

>  <H298_value>  (1) 
-97820.33827014855

>  <H298_units>  (1) 
kcal/mol

>  <S298_value>  (1) 
68.84793061803599

>  <S298_units>  (1) 
cal/(mol*K)

>  <Cp_T_value_list>  (1) 
[18.948832952661355, 23.315314670745117, 27.16836583327544, 30.547769981270978, 36.07341382159731, 40.24055452980178, 46.60738122015404, 49.83808108793718, 51.47608668501352]

>  <Cp_T_units>  (1) 
cal/(mol*K)

>  <T_list>  (1) 
[300.0, 400.0, 500.0, 600.0, 800.0, 1000.0, 1500.0, 2000.0, 2400.0]

>  <T_units>  (1) 
K

>  <yaml_path>  (1) 
/home/calvin/Dropbox/PersonalFolders/Calvin/ZEUS_Converged/rmg_rxn_16808/output/Species/rmg_rxn_16808_r2_C=C=CC/rmg_rxn_16808_r2_C=C=CC.yml

>  <frequencies_cm1>  (1) 
[200.28936082843998, 216.24823471212002, 340.54066900412, 547.08585345908, 575.89285687648, 877.2436406593599, 895.3724819041599, 896.74587896816, 1021.29925870232, 1068.82566410204, 1095.1811537602, 1158.02093642352, 1357.5137269548397, 1407.4229762606, 1462.1185143343998, 1477.7271719667597, 1497.33241505536, 2069.4690309618, 2987.76350986412, 3057.5458146859596, 3064.7561492719597, 3109.8516418684, 3124.4783205999997, 3194.5765067465595]

>  <ZPE_kJmol>  (1) 
219.53455996381652

>  <E_elec_kJmol>  (1) 
-409515.3385481118

>  <E0_minus_Eelec_plus_ZPE_kJmol>  (1) 
0.0

>  <rxn>  (1) 
rmg_rxn_16808

>  <species_type>  (1) 
r1

>  <species_folder>  (1) 
rmg_rxn_16808_r2_C=C=CC

>  <frequencies_cm1_list>  (1) 
[200.28936082843998, 216.24823471212002, 340.54066900412, 547.08585345908, 575.89285687648, 877.2436406593599, 895.3724819041599, 896.74587896816, 1021.29925870232, 1068.82566410204, 1095.1811537602, 1158.02093642352, 1357.5137269548397, 1407.4229762606, 1462.1185143343998, 1477.7271719667597, 1497.33241505536, 2069.4690309618, 2987.76350986412, 3057.5458146859596, 3064.7561492719597, 3109.8516418684, 3124.4783205999997, 3194.5765067465595]

>  <E0_kJmol>  (1) 
-409296

>  <H298_kJmol>  (1) 
-409280

$$$$

     RDKit          3D

  8  7  0  0  0  0  0  0  0  0999 V2000
   -0.9085   -0.7949    0.0790 N   0  0  0  0  0  0  0  0  0  1  0  0
    0.6111    1.1192   -0.0309 C   0  0  0  0  0  0  0  0  0  2  0  0
    0.2352   -0.3195   -0.0413 C   0  0  0  0  0  0  0  0  0  3  0  0
    1.0631    1.3836   -0.9891 H   0  0  0  0  0  0  0  0  0  4  0  0
   -0.2620    1.7467    0.1515 H   0  0  0  0  0  0  0  0  0  5  0  0
    1.3655    1.2957    0.7383 H   0  0  0  0  0  0  0  0  0  6  0  0
    1.1180   -0.9477   -0.1600 H   0  0  0  0  0  0  0  0  0  7  0  0
   -0.9392   -1.8122    0.0473 H   0  0  0  0  0  0  0  0  0  8  0  0
  1  8  1  0
  1  3  1  0
  2  5  1  0
  2  6  1  0
  2  3  1  0
  2  4  1  0
  3  7  1  0
M  END
>  <rmg_smiles>  (2) 
C[CH][NH]

>  <rmg_adjacency_list>  (2) 
1 N u0 p1 c0 {3,S} {8,S}
2 C u0 p0 c0 {3,S} {4,S} {5,S} {6,S}
3 C u0 p0 c0 {1,S} {2,S} {7,S}
4 H u0 p0 c0 {2,S}
5 H u0 p0 c0 {2,S}
6 H u0 p0 c0 {2,S}
7 H u0 p0 c0 {3,S}
8 H u0 p0 c0 {1,S}


>  <multiplicity>  (2) 
1

>  <reaction>  (2) 
rmg_rxn_16808

>  <type>  (2) 
r2h

>  <role_mapnums>  (2) 
{"r2h_a": 3, "r2h_h": 7}

>  <role_mapidx>  (2) 
{"r2h_a": 2, "r2h_h": 6}

>  <ordered_mapped_smiles>  (2) 
[NH:1]([CH:3]([C:2]([H:4])([H:5])[H:6])[H:7])[H:8]

>  <mol_properties>  (2) 
{"2": {"label": "acceptor", "atom_type": "Cs"}, "6": {"label": "a_hydrogen", "atom_type": "H0"}}

>  <level_of_theory>  (2) 
wb97xd/def2tzvp

>  <lot_method>  (2) 
wb97xd

>  <lot_basis>  (2) 
def2tzvp

>  <spin_multiplicity>  (2) 
1.0

>  <optical_isomers>  (2) 
2.0

>  <modes>  (2) 
IdealGasTranslation(mass=(43.0422, 'amu')),         NonlinearRotor(             inertia = ([9.58574, 51.8782, 58.2459

>  <frequency_value>  (2) 
unknown

>  <frequency_units>  (2) 
unknown

>  <frequency_list>  (2) 
unknown

>  <arkane_path>  (2) 
/home/calvin/Dropbox/PersonalFolders/Calvin/ZEUS_Converged/rmg_rxn_16808/output/Species/rmg_rxn_16808_p1_CC=N/arkane/output.py

>  <path_exists>  (2) 
True

>  <E0_value>  (2) 
-351532.73105076194

>  <E0_units>  (2) 
kJ/mol

>  <thermo_class>  (2) 
NASA

>  <Cp0_value>  (2) 
33.257888

>  <Cp0_units>  (2) 
J/(mol*K)

>  <CpInf_value>  (2) 
182.918384

>  <CpInf_units>  (2) 
J/(mol*K)

>  <Tmin_value>  (2) 
10.0

>  <Tmin_units>  (2) 
K

>  <Tmax_value>  (2) 
3000.0

>  <Tmax_units>  (2) 
K

>  <polynomials>  (2) 
[{"name": "polynomial1", "class": "NASAPolynomial", "Tmin_value": 10.0, "Tmin_units": "K", "Tmax_value": 595.5373651451594, "Tmax_units": "K", "coeffs": [4.030703313481149, -0.00229058814131209, 6.377490274321222e-05, -8.93766559780865e-08, 4.0934862340445074e-11, -42279622.021195926, 7.585695917242757]}, {"name": "polynomial2", "class": "NASAPolynomial", "Tmin_value": 595.5373651451594, "Tmin_units": "K", "Tmax_value": 3000.0, "Tmax_units": "K", "coeffs": [-0.11565217745608042, 0.027337056045592743, -1.5327895767727505e-05, 4.187529468154553e-09, -4.469900950756201e-13, -42279159.691402115, 25.175708204040994]}]

>  <H298_value>  (2) 
-84015.34890439233

>  <H298_units>  (2) 
kcal/mol

>  <S298_value>  (2) 
63.57157650832207

>  <S298_units>  (2) 
cal/(mol*K)

>  <Cp_T_value_list>  (2) 
[13.913765714474152, 17.18194181639411, 20.300271898294582, 23.081632876583395, 27.63224015948139, 31.06808077557062, 36.31061676624832, 38.93985005203162, 40.26666894785372]

>  <Cp_T_units>  (2) 
cal/(mol*K)

>  <T_list>  (2) 
[300.0, 400.0, 500.0, 600.0, 800.0, 1000.0, 1500.0, 2000.0, 2400.0]

>  <T_units>  (2) 
K

>  <yaml_path>  (2) 
/home/calvin/Dropbox/PersonalFolders/Calvin/ZEUS_Converged/rmg_rxn_16808/output/Species/rmg_rxn_16808_p1_CC=N/rmg_rxn_16808_p1_CC=N.yml

>  <frequencies_cm1>  (2) 
[234.89896684124, 508.23245051851995, 714.5510244579199, 916.92108183832, 1068.95613682312, 1083.47981077492, 1139.4045392209998, 1281.18718512304, 1373.1841874550798, 1414.5234390814799, 1449.02317332916, 1470.9357234852798, 1633.2506554941199, 2948.45001890712, 3002.78847374428, 3084.88328324488, 3091.9562781244804, 3362.8176470865596]

>  <ZPE_kJmol>  (2) 
178.12068223241255

>  <E_elec_kJmol>  (2) 
-351710.8517329944

>  <E0_minus_Eelec_plus_ZPE_kJmol>  (2) 
0.0

>  <rxn>  (2) 
rmg_rxn_16808

>  <species_type>  (2) 
p0

>  <species_folder>  (2) 
rmg_rxn_16808_p1_CC=N

>  <frequencies_cm1_list>  (2) 
[234.89896684124, 508.23245051851995, 714.5510244579199, 916.92108183832, 1068.95613682312, 1083.47981077492, 1139.4045392209998, 1281.18718512304, 1373.1841874550798, 1414.5234390814799, 1449.02317332916, 1470.9357234852798, 1633.2506554941199, 2948.45001890712, 3002.78847374428, 3084.88328324488, 3091.9562781244804, 3362.8176470865596]

>  <E0_kJmol>  (2) 
-351533

>  <H298_kJmol>  (2) 
-351520

$$$$

     RDKit          3D

 17 15  0  0  0  0  0  0  0  0999 V2000
   -3.1995   -0.3987    0.0992 N   0  0  0  0  0  0  0  0  0  1  0  0
   -1.6799    1.5154   -0.0108 C   0  0  0  0  0  0  0  0  0  2  0  0
    3.1379    0.7142   -0.2975 C   0  0  0  0  0  0  0  0  0  3  0  0
    2.2912   -0.1898    0.5476 C   0  0  0  0  0  3  0  0  0  4  0  0
   -2.0559    0.0766   -0.0211 C   0  0  0  0  0  0  0  0  0  5  0  0
    1.2435   -0.8531    0.1057 C   0  0  0  0  0  0  0  0  0  6  0  0
    0.1682   -1.4072   -0.3000 C   0  0  0  0  0  0  0  0  0  7  0  0
   -1.2280    1.7798   -0.9689 H   0  0  0  0  0  0  0  0  0  8  0  0
   -2.5530    2.1428    0.1716 H   0  0  0  0  0  0  0  0  0  9  0  0
   -0.9256    1.6918    0.7585 H   0  0  0  0  0  0  0  0  0 10  0  0
    4.1595    0.3325   -0.3719 H   0  0  0  0  0  0  0  0  0 11  0  0
    2.7323    0.8072   -1.3041 H   0  0  0  0  0  0  0  0  0 12  0  0
    3.1999    1.7114    0.1457 H   0  0  0  0  0  0  0  0  0 13  0  0
   -0.9723   -0.6944   -0.1669 H   0  0  0  0  0  0  0  0  0 14  0  0
    2.5807   -0.3272    1.5853 H   0  0  0  0  0  0  0  0  0 15  0  0
   -3.2303   -1.4161    0.0674 H   0  0  0  0  0  0  0  0  0 16  0  0
    0.0043   -2.3738   -0.7540 H   0  0  0  0  0  0  0  0  0 17  0  0
  1  5  1  0
  1 16  1  0
  2 10  1  0
  2  9  1  0
  2  8  1  0
  2  5  1  0
  3 11  1  0
  3  4  1  0
  3 13  1  0
  3 12  1  0
  4  6  1  0
  4 15  1  0
  5 14  1  0
  6  7  1  0
  7 17  1  0
M  RAD  1   4   2
M  END
>  <rmg_smiles>  (3) 
[CH][C][CH]C.C[CH][NH]

>  <rmg_adjacency_list>  (3) 
multiplicity 2
1  N u0 p1 c0 {5,S} {16,S}
2  C u0 p0 c0 {5,S} {8,S} {9,S} {10,S}
3  C u0 p0 c0 {4,S} {11,S} {12,S} {13,S}
4  C u1 p0 c0 {3,S} {6,S} {15,S}
5  C u0 p0 c0 {1,S} {2,S} {14,S}
6  C u0 p1 c0 {4,S} {7,S}
7  C u0 p1 c0 {6,S} {17,S}
8  H u0 p0 c0 {2,S}
9  H u0 p0 c0 {2,S}
10 H u0 p0 c0 {2,S}
11 H u0 p0 c0 {3,S}
12 H u0 p0 c0 {3,S}
13 H u0 p0 c0 {3,S}
14 H u0 p0 c0 {5,S}
15 H u0 p0 c0 {4,S}
16 H u0 p0 c0 {1,S}
17 H u0 p0 c0 {7,S}


>  <multiplicity>  (3) 
2

>  <reaction>  (3) 
rmg_rxn_16808

>  <type>  (3) 
ts

>  <role_mapnums>  (3) 
{"*2": 14, "*1": 5, "*3": 7, "*0": 1, "*4": 6}

>  <role_mapidx>  (3) 
{"*2": 13, "*1": 4, "*3": 6, "*0": 0, "*4": 5}

>  <ordered_mapped_smiles>  (3) 
[NH:1]([CH:5]([C:2]([H:8])([H:9])[H:10])[H:14])[H:16].[C:3]([C:4]([CH2:6][CH2:7][H:17])[H:15])([H:11])([H:12])[H:13]

>  <mol_properties>  (3) 
{"0": {"label": "*0", "atom_type": "N3s"}, "4": {"label": "*1", "atom_type": "Cs"}, "5": {"label": "*4", "atom_type": "C2s"}, "6": {"label": "*3", "atom_type": "C2s"}, "13": {"label": "*2", "atom_type": "H0"}}

>  <level_of_theory>  (3) 
wb97xd/def2tzvp

>  <lot_method>  (3) 
wb97xd

>  <lot_basis>  (3) 
def2tzvp

>  <spin_multiplicity>  (3) 
2.0

>  <optical_isomers>  (3) 
2.0

>  <modes>  (3) 
IdealGasTranslation(mass=(96.0813, 'amu')),         NonlinearRotor(             inertia = ([104.018, 502.875, 581.731

>  <frequency_value>  (3) 
-1728.67

>  <frequency_units>  (3) 
cm^-1

>  <frequency_list>  (3) 
unknown

>  <arkane_path>  (3) 
/home/calvin/Dropbox/PersonalFolders/Calvin/ZEUS_Converged/rmg_rxn_16808/output/rxns/TS0/arkane/output.py

>  <path_exists>  (3) 
True

>  <E0_value>  (3) 
-759076.0

>  <E0_units>  (3) 
kJ/mol

>  <thermo_class>  (3) 
unknown

>  <Cp0_value>  (3) 
unknown

>  <Cp0_units>  (3) 
unknown

>  <CpInf_value>  (3) 
unknown

>  <CpInf_units>  (3) 
unknown

>  <Tmin_value>  (3) 
unknown

>  <Tmin_units>  (3) 
unknown

>  <Tmax_value>  (3) 
unknown

>  <Tmax_units>  (3) 
unknown

>  <polynomials>  (3) 
unknown

>  <H298_value>  (3) 
unknown

>  <H298_units>  (3) 
unknown

>  <S298_value>  (3) 
unknown

>  <S298_units>  (3) 
unknown

>  <Cp_T_value_list>  (3) 
unknown

>  <Cp_T_units>  (3) 
unknown

>  <T_list>  (3) 
unknown

>  <T_units>  (3) 
unknown

>  <yaml_path>  (3) 
unknown

>  <frequencies_cm1>  (3) 
unknown

>  <ZPE_kJmol>  (3) 
unknown

>  <E_elec_kJmol>  (3) 
unknown

>  <E0_minus_Eelec_plus_ZPE_kJmol>  (3) 
unknown

>  <rxn>  (3) 
unknown

>  <species_type>  (3) 
unknown

>  <species_folder>  (3) 
unknown

>  <frequencies_cm1_list>  (3) 
[]

>  <ts_imag_freq_cm1>  (3) 
-1749.6677

>  <ts_freq_out_path>  (3) 
/home/calvin/Dropbox/PersonalFolders/Calvin/ZEUS_Converged/rmg_rxn_16808/output/rxns/TS0/geometry/freq.out

>  <E0_kJmol>  (3) 
-759076

>  <H298_kJmol>  (3) 
unknown

$$$$

     RDKit          3D

  9  8  0  0  0  0  0  0  0  0999 V2000
   -1.9702   -0.2235    0.0000 C   0  0  0  0  0  0  0  0  0  1  0  0
   -0.8275    0.1426   -0.0006 C   0  0  0  0  0  0  0  0  0  2  0  0
    0.5221    0.5772   -0.0014 C   0  0  0  0  0  3  0  0  0  3  0  0
    1.6699   -0.3696   -0.0009 C   0  0  0  0  0  0  0  0  0  4  0  0
   -2.9845   -0.5486    0.0006 H   0  0  0  0  0  0  0  0  0  5  0  0
    0.7255    1.6426   -0.0024 H   0  0  0  0  0  0  0  0  0  6  0  0
    2.3116   -0.2336   -0.8770 H   0  0  0  0  0  0  0  0  0  7  0  0
    1.3041   -1.4007   -0.0000 H   0  0  0  0  0  0  0  0  0  8  0  0
    2.2777   -0.2200    0.8964 H   0  0  0  0  0  0  0  0  0  9  0  0
  1  5  1  0
  1  2  1  0
  2  3  1  0
  3  4  1  0
  3  6  1  0
  4  8  1  0
  4  9  1  0
  4  7  1  0
M  RAD  1   3   2
M  END
>  <rmg_smiles>  (4) 
[CH]C[CH]C

>  <rmg_adjacency_list>  (4) 
multiplicity 2
1 C u0 p0 c0 {2,S} {5,S} {6,S} {7,S}
2 C u1 p0 c0 {1,S} {3,S} {8,S}
3 C u0 p1 c0 {2,S} {4,S}
4 C u0 p1 c0 {3,S} {9,S}
5 H u0 p0 c0 {1,S}
6 H u0 p0 c0 {1,S}
7 H u0 p0 c0 {1,S}
8 H u0 p0 c0 {2,S}
9 H u0 p0 c0 {4,S}


>  <multiplicity>  (4) 
2

>  <reaction>  (4) 
rmg_rxn_16808

>  <type>  (4) 
r1

>  <role_mapnums>  (4) 
{}

>  <role_mapidx>  (4) 
{}

>  <ordered_mapped_smiles>  (4) 
[CH2:1]([CH2:2][C:3]([C:4]([H:7])([H:8])[H:9])[H:6])[H:5]

>  <level_of_theory>  (4) 
wb97xd/def2tzvp

>  <lot_method>  (4) 
wb97xd

>  <lot_basis>  (4) 
def2tzvp

>  <spin_multiplicity>  (4) 
2.0

>  <optical_isomers>  (4) 
2.0

>  <modes>  (4) 
IdealGasTranslation(mass=(53.0391, 'amu')),         NonlinearRotor(             inertia = ([13.1588, 114.709, 124.698

>  <frequency_value>  (4) 
unknown

>  <frequency_units>  (4) 
unknown

>  <frequency_list>  (4) 
unknown

>  <arkane_path>  (4) 
/home/calvin/Dropbox/PersonalFolders/Calvin/ZEUS_Converged/rmg_rxn_16808/output/Species/rmg_rxn_16808_p2_CtCsbr-CH-sbrC/arkane/output.py

>  <path_exists>  (4) 
True

>  <E0_value>  (4) 
-407605.77436150593

>  <E0_units>  (4) 
kJ/mol

>  <thermo_class>  (4) 
NASA

>  <Cp0_value>  (4) 
33.257888

>  <Cp0_units>  (4) 
J/(mol*K)

>  <CpInf_value>  (4) 
207.8618

>  <CpInf_units>  (4) 
J/(mol*K)

>  <Tmin_value>  (4) 
10.0

>  <Tmin_units>  (4) 
K

>  <Tmax_value>  (4) 
3000.0

>  <Tmax_units>  (4) 
K

>  <polynomials>  (4) 
[{"name": "polynomial1", "class": "NASAPolynomial", "Tmin_value": 10.0, "Tmin_units": "K", "Tmax_value": 301.4546627678181, "Tmax_units": "K", "coeffs": [3.9420567458658105, 0.004895897223048264, 0.00013606604790561237, -4.1144222636846686e-07, 4.093156801223657e-10, -49023652.98554044, 9.638244117806048]}, {"name": "polynomial2", "class": "NASAPolynomial", "Tmin_value": 301.4546627678181, "Tmin_units": "K", "Tmax_value": 3000.0, "Tmax_units": "K", "coeffs": [2.688272314109474, 0.02860206411618699, -1.7070791305992798e-05, 5.0157801366112565e-09, -5.751896488575401e-13, -49023609.516668744, 13.650772435688035]}]

>  <H298_value>  (4) 
-97416.19996966752

>  <H298_units>  (4) 
kcal/mol

>  <S298_value>  (4) 
73.07884371037787

>  <S298_units>  (4) 
cal/(mol*K)

>  <Cp_T_value_list>  (4) 
[19.60038828829874, 23.25837701602711, 26.454944303990942, 29.23755034719865, 33.7370013431779, 37.081542797001426, 42.12569449774217, 44.776615291746964, 46.2228222135298]

>  <Cp_T_units>  (4) 
cal/(mol*K)

>  <T_list>  (4) 
[300.0, 400.0, 500.0, 600.0, 800.0, 1000.0, 1500.0, 2000.0, 2400.0]

>  <T_units>  (4) 
K

>  <yaml_path>  (4) 
/home/calvin/Dropbox/PersonalFolders/Calvin/ZEUS_Converged/rmg_rxn_16808/output/Species/rmg_rxn_16808_p2_CtCsbr-CH-sbrC/rmg_rxn_16808_p2_CtCsbr-CH-sbrC.yml

>  <frequencies_cm1>  (4) 
[127.36884371536, 166.00250312568, 378.9133829722799, 551.96141303628, 563.5666182270801, 576.7855649680799, 695.3097315912798, 828.8107931974, 999.6064520764401, 1068.64712248372, 1133.14871559448, 1353.25619605644, 1393.78514341508, 1466.2524394970399, 1473.85419224628, 2086.8081688948, 2985.31199610488, 3050.7612331897994, 3068.5810600952004, 3147.4758544366796, 3414.6908541938396]

>  <ZPE_kJmol>  (4) 
182.6153778038376

>  <E_elec_kJmol>  (4) 
-407788.3897393098

>  <E0_minus_Eelec_plus_ZPE_kJmol>  (4) 
0.0

>  <rxn>  (4) 
rmg_rxn_16808

>  <species_type>  (4) 
p1

>  <species_folder>  (4) 
rmg_rxn_16808_p2_CtCsbr-CH-sbrC

>  <frequencies_cm1_list>  (4) 
[127.36884371536, 166.00250312568, 378.9133829722799, 551.96141303628, 563.5666182270801, 576.7855649680799, 695.3097315912798, 828.8107931974, 999.6064520764401, 1068.64712248372, 1133.14871559448, 1353.25619605644, 1393.78514341508, 1466.2524394970399, 1473.85419224628, 2086.8081688948, 2985.31199610488, 3050.7612331897994, 3068.5810600952004, 3147.4758544366796, 3414.6908541938396]

>  <E0_kJmol>  (4) 
-407606

>  <H298_kJmol>  (4) 
-407589

$$$$

     RDKit          3D

  7  6  0  0  0  0  0  0  0  0999 V2000
    1.1980    0.1044   -0.0001 C   0  0  0  0  0  0  0  0  0  1  0  0
   -0.1891   -0.4252    0.0002 C   0  0  0  0  0  3  0  0  0  2  0  0
   -1.3234    0.0281   -0.0002 N   0  0  0  0  0  0  0  0  0  3  0  0
    1.7318   -0.2602   -0.8784 H   0  0  0  0  0  0  0  0  0  4  0  0
    1.2067    1.2008   -0.0009 H   0  0  0  0  0  0  0  0  0  5  0  0
    1.7300   -0.2581    0.8800 H   0  0  0  0  0  0  0  0  0  6  0  0
   -1.4574    1.0456    0.0003 H   0  0  0  0  0  0  0  0  0  7  0  0
  1  5  1  0
  1  4  1  0
  1  6  1  0
  1  2  1  0
  2  3  1  0
  3  7  1  0
M  RAD  1   2   2
M  END
>  <rmg_smiles>  (5) 
C[C][NH]

>  <rmg_adjacency_list>  (5) 
multiplicity 2
1 N u0 p1 c0 {3,S} {7,S}
2 C u0 p0 c0 {3,S} {4,S} {5,S} {6,S}
3 C u1 p1 c0 {1,S} {2,S}
4 H u0 p0 c0 {2,S}
5 H u0 p0 c0 {2,S}
6 H u0 p0 c0 {2,S}
7 H u0 p0 c0 {1,S}


>  <multiplicity>  (5) 
2

>  <reaction>  (5) 
rmg_rxn_16808

>  <type>  (5) 
r2

>  <role_mapnums>  (5) 
{}

>  <role_mapidx>  (5) 
{}

>  <ordered_mapped_smiles>  (5) 
[C:1]([CH:2][NH:3][H:7])([H:4])([H:5])[H:6]

>  <level_of_theory>  (5) 
wb97xd/def2tzvp

>  <lot_method>  (5) 
wb97xd

>  <lot_basis>  (5) 
def2tzvp

>  <spin_multiplicity>  (5) 
2.0

>  <optical_isomers>  (5) 
1.0

>  <modes>  (5) 
IdealGasTranslation(mass=(42.0344, 'amu')),         NonlinearRotor(             inertia = ([6.47544, 53.1549, 56.5142

>  <frequency_value>  (5) 
unknown

>  <frequency_units>  (5) 
unknown

>  <frequency_list>  (5) 
unknown

>  <arkane_path>  (5) 
/home/calvin/Dropbox/PersonalFolders/Calvin/ZEUS_Converged/rmg_rxn_16808/output/Species/rmg_rxn_16808_r1_Csbr-C-sbr=N/arkane/output.py

>  <path_exists>  (5) 
True

>  <E0_value>  (5) 
-349811.8005210185

>  <E0_units>  (5) 
kJ/mol

>  <thermo_class>  (5) 
NASA

>  <Cp0_value>  (5) 
33.257888

>  <Cp0_units>  (5) 
J/(mol*K)

>  <CpInf_value>  (5) 
157.97496800000002

>  <CpInf_units>  (5) 
J/(mol*K)

>  <Tmin_value>  (5) 
10.0

>  <Tmin_units>  (5) 
K

>  <Tmax_value>  (5) 
3000.0

>  <Tmax_units>  (5) 
K

>  <polynomials>  (5) 
[{"name": "polynomial1", "class": "NASAPolynomial", "Tmin_value": 10.0, "Tmin_units": "K", "Tmax_value": 523.8732683960214, "Tmax_units": "K", "coeffs": [3.9473534046229966, 0.00456362535065592, 3.5688539872161964e-05, -5.732693404770767e-08, 2.857676853043008e-11, -42072640.81257836, 7.405403626651339]}, {"name": "polynomial2", "class": "NASAPolynomial", "Tmin_value": 523.8732683960214, "Tmin_units": "K", "Tmax_value": 3000.0, "Tmax_units": "K", "coeffs": [1.7682449270833116, 0.021202382245262788, -1.1953919260357763e-05, 3.3026998111612085e-09, -3.571322966281477e-13, -42072412.501591645, 16.509495307932614]}]

>  <H298_value>  (5) 
-83603.85738945751

>  <H298_units>  (5) 
kcal/mol

>  <S298_value>  (5) 
64.36382188283201

>  <S298_units>  (5) 
cal/(mol*K)

>  <Cp_T_value_list>  (5) 
[14.331840999679898, 16.981894567985137, 19.417953200574313, 21.567871829817847, 25.087177098476747, 27.745924495721848, 31.823382388977233, 33.91130955571187, 34.988977526329464]

>  <Cp_T_units>  (5) 
cal/(mol*K)

>  <T_list>  (5) 
[300.0, 400.0, 500.0, 600.0, 800.0, 1000.0, 1500.0, 2000.0, 2400.0]

>  <T_units>  (5) 
K

>  <yaml_path>  (5) 
/home/calvin/Dropbox/PersonalFolders/Calvin/ZEUS_Converged/rmg_rxn_16808/output/Species/rmg_rxn_16808_r1_Csbr-C-sbr=N/rmg_rxn_16808_r1_Csbr-C-sbr=N.yml

>  <frequencies_cm1>  (5) 
[150.16723497776, 409.07318249772, 649.7953528903199, 894.71325131344, 925.0172575305999, 1030.8031663851998, 1055.68912118488, 1371.14469281504, 1446.0841036121997, 1454.3794218787598, 1898.0210084773598, 2978.898231816, 3079.7124432989203, 3106.60355781204, 3287.2396066546403]

>  <ZPE_kJmol>  (5) 
141.98087363057846

>  <E_elec_kJmol>  (5) 
-349953.78139464906

>  <E0_minus_Eelec_plus_ZPE_kJmol>  (5) 
0.0

>  <rxn>  (5) 
rmg_rxn_16808

>  <species_type>  (5) 
r0

>  <species_folder>  (5) 
rmg_rxn_16808_r1_Csbr-C-sbr=N

>  <frequencies_cm1_list>  (5) 
[150.16723497776, 409.07318249772, 649.7953528903199, 894.71325131344, 925.0172575305999, 1030.8031663851998, 1055.68912118488, 1371.14469281504, 1446.0841036121997, 1454.3794218787598, 1898.0210084773598, 2978.898231816, 3079.7124432989203, 3106.60355781204, 3287.2396066546403]

>  <E0_kJmol>  (5) 
-349812

>  <H298_kJmol>  (5) 
-349799

$$$$
