
     RDKit          3D

 18 17  0  0  0  0  0  0  0  0999 V2000
   -0.0427   -2.7818   -0.7012 C   0  0  0  0  0  0  0  0  0  1  0  0
   -0.7431   -2.0891    0.4564 C   0  0  0  0  0  0  0  0  0  2  0  0
   -1.1622   -0.7419    0.1007 N   0  0  0  0  0  0  0  0  0  3  0  0
    0.0035    0.0410    0.1050 O   0  0  0  0  0  0  0  0  0  4  0  0
   -0.1994    1.2219   -0.5411 C   0  0  0  0  0  0  0  0  0  5  0  0
    0.5438    2.2903   -0.2905 C   0  0  0  0  0  0  0  0  0  6  0  0
    1.6278    2.3674    0.7355 C   0  0  0  0  0  0  0  0  0  7  0  0
    0.8771   -2.2587   -0.9620 H   0  0  0  0  0  0  0  0  0  8  0  0
    0.2123   -3.8072   -0.4282 H   0  0  0  0  0  0  0  0  0  9  0  0
   -0.6868   -2.8063   -1.5813 H   0  0  0  0  0  0  0  0  0 10  0  0
   -1.6643   -2.6170    0.7150 H   0  0  0  0  0  0  0  0  0 11  0  0
   -0.1046   -2.0783    1.3467 H   0  0  0  0  0  0  0  0  0 12  0  0
   -1.6754   -0.3877    0.9331 H   0  0  0  0  0  0  0  0  0 13  0  0
   -0.9938    1.1955   -1.2773 H   0  0  0  0  0  0  0  0  0 14  0  0
    0.3467    3.1674   -0.8946 H   0  0  0  0  0  0  0  0  0 15  0  0
    2.6040    2.5242    0.2689 H   0  0  0  0  0  0  0  0  0 16  0  0
    1.4580    3.2071    1.4143 H   0  0  0  0  0  0  0  0  0 17  0  0
    1.6765    1.4514    1.3230 H   0  0  0  0  0  0  0  0  0 18  0  0
  1 10  1  0
  1  8  1  0
  1  9  1  0
  1  2  1  0
  2  3  1  0
  2 12  1  0
  2 11  1  0
  3 13  1  0
  3  4  1  0
  4  5  1  0
  5 14  1  0
  5  6  1  0
  6 15  1  0
  6  7  1  0
  7 18  1  0
  7 17  1  0
  7 16  1  0
M  END
>  <rmg_smiles>  (1) 
C[CH][CH]ONCC

>  <rmg_adjacency_list>  (1) 
1  O u0 p2 c0 {2,S} {7,S}
2  N u0 p1 c0 {1,S} {3,S} {17,S}
3  C u0 p0 c0 {2,S} {4,S} {8,S} {9,S}
4  C u0 p0 c0 {3,S} {10,S} {11,S} {12,S}
5  C u0 p0 c0 {6,S} {13,S} {14,S} {15,S}
6  C u0 p0 c0 {5,S} {7,S} {16,S}
7  C u0 p0 c0 {1,S} {6,S} {18,S}
8  H u0 p0 c0 {3,S}
9  H u0 p0 c0 {3,S}
10 H u0 p0 c0 {4,S}
11 H u0 p0 c0 {4,S}
12 H u0 p0 c0 {4,S}
13 H u0 p0 c0 {5,S}
14 H u0 p0 c0 {5,S}
15 H u0 p0 c0 {5,S}
16 H u0 p0 c0 {6,S}
17 H u0 p0 c0 {2,S}
18 H u0 p0 c0 {7,S}


>  <multiplicity>  (1) 
1

>  <reaction>  (1) 
rmg_rxn_15713

>  <type>  (1) 
r1h

>  <role_mapnums>  (1) 
{"r1h_a": 3, "r1h_h": 13}

>  <role_mapidx>  (1) 
{"r1h_a": 2, "r1h_h": 12}

>  <ordered_mapped_smiles>  (1) 
[C:1]([C:2]([N:3]([O:4][CH:5]([CH:6]([C:7]([H:16])([H:17])[H:18])[H:15])[H:14])[H:13])([H:11])[H:12])([H:8])([H:9])[H:10]

>  <mol_properties>  (1) 
{"2": {"label": "donator", "atom_type": "N3s"}, "12": {"label": "d_hydrogen", "atom_type": "H0"}}

>  <level_of_theory>  (1) 
wb97xd/def2tzvp

>  <lot_method>  (1) 
wb97xd

>  <lot_basis>  (1) 
def2tzvp

>  <spin_multiplicity>  (1) 
1.0

>  <optical_isomers>  (1) 
2.0

>  <modes>  (1) 
IdealGasTranslation(mass=(101.084, 'amu')),         NonlinearRotor(             inertia = ([97.5074, 378.473, 405.084

>  <frequency_value>  (1) 
unknown

>  <frequency_units>  (1) 
unknown

>  <frequency_list>  (1) 
unknown

>  <arkane_path>  (1) 
/home/calvin/Dropbox/PersonalFolders/Calvin/ZEUS_Converged/rmg_rxn_15713/output/Species/rmg_rxn_15713_r2_CCNOC=CC/arkane/output.py

>  <path_exists>  (1) 
True

>  <E0_value>  (1) 
-858317.3712866904

>  <E0_units>  (1) 
kJ/mol

>  <thermo_class>  (1) 
NASA

>  <Cp0_value>  (1) 
33.257888

>  <Cp0_units>  (1) 
J/(mol*K)

>  <CpInf_value>  (1) 
432.352544

>  <CpInf_units>  (1) 
J/(mol*K)

>  <Tmin_value>  (1) 
10.0

>  <Tmin_units>  (1) 
K

>  <Tmax_value>  (1) 
3000.0

>  <Tmax_units>  (1) 
K

>  <polynomials>  (1) 
[{"name": "polynomial1", "class": "NASAPolynomial", "Tmin_value": 10.0, "Tmin_units": "K", "Tmax_value": 408.6677282023958, "Tmax_units": "K", "coeffs": [3.377096545075076, 0.06680596161846936, -0.00018525243950417197, 4.972779587362321e-07, -4.513129840385662e-10, -103231732.61353938, 13.42458062897338]}, {"name": "polynomial2", "class": "NASAPolynomial", "Tmin_value": 408.6677282023958, "Tmin_units": "K", "Tmax_value": 3000.0, "Tmax_units": "K", "coeffs": [-1.1330265441930554, 0.06919936246800373, -4.0790905159712965e-05, 1.1621864195905055e-08, -1.2838024464157154e-12, -103231015.34284812, 35.41301758920739]}]

>  <H298_value>  (1) 
-205136.5962551752

>  <H298_units>  (1) 
kcal/mol

>  <S298_value>  (1) 
95.0751518725218

>  <S298_units>  (1) 
cal/(mol*K)

>  <Cp_T_value_list>  (1) 
[32.82275970689478, 41.19731022376831, 48.96759751147292, 55.7328098923635, 66.66051043811282, 74.74577684666089, 86.66410707689937, 92.4769441367092, 95.49917537844622]

>  <Cp_T_units>  (1) 
cal/(mol*K)

>  <T_list>  (1) 
[300.0, 400.0, 500.0, 600.0, 800.0, 1000.0, 1500.0, 2000.0, 2400.0]

>  <T_units>  (1) 
K

>  <yaml_path>  (1) 
/home/calvin/Dropbox/PersonalFolders/Calvin/ZEUS_Converged/rmg_rxn_15713/output/Species/rmg_rxn_15713_r2_CCNOC=CC/rmg_rxn_15713_r2_CCNOC=CC.yml

>  <frequencies_cm1>  (1) 
[28.16837378264, 73.99176682299999, 104.8245309098, 123.8117453196, 194.30821661471995, 239.32130538732, 332.21101581095996, 438.24413613708003, 454.6630980372, 488.07098161899995, 645.1807387552799, 741.00265191056, 809.2536190060399, 888.6016343786399, 926.06790628456, 944.7598403255998, 962.7856767906, 969.22690902076, 1053.0796667632799, 1062.3912988572, 1108.2421598388398, 1136.52727237192, 1173.8218696448398, 1189.6571377927598, 1270.5296239063998, 1308.24997426916, 1373.9189548843199, 1385.8606423558, 1408.41182214668, 1415.68395960056, 1466.959738985, 1475.24819026624, 1476.8481978457999, 1478.4962743226, 1492.65599805244, 1499.96933741824, 1742.1816436252798, 2980.099954247, 3008.1584562645194, 3023.3962966895997, 3047.7672275902796, 3060.0041954305198, 3100.49194087724, 3104.96234832056, 3106.61042479736, 3158.11968168268, 3182.6416862603996, 3484.97444894404]

>  <ZPE_kJmol>  (1) 
413.5518751389495

>  <E_elec_kJmol>  (1) 
-858730.9231618294

>  <E0_minus_Eelec_plus_ZPE_kJmol>  (1) 
0.0

>  <rxn>  (1) 
rmg_rxn_15713

>  <species_type>  (1) 
r1

>  <species_folder>  (1) 
rmg_rxn_15713_r2_CCNOC=CC

>  <frequencies_cm1_list>  (1) 
[28.16837378264, 73.99176682299999, 104.8245309098, 123.8117453196, 194.30821661471995, 239.32130538732, 332.21101581095996, 438.24413613708003, 454.6630980372, 488.07098161899995, 645.1807387552799, 741.00265191056, 809.2536190060399, 888.6016343786399, 926.06790628456, 944.7598403255998, 962.7856767906, 969.22690902076, 1053.0796667632799, 1062.3912988572, 1108.2421598388398, 1136.52727237192, 1173.8218696448398, 1189.6571377927598, 1270.5296239063998, 1308.24997426916, 1373.9189548843199, 1385.8606423558, 1408.41182214668, 1415.68395960056, 1466.959738985, 1475.24819026624, 1476.8481978457999, 1478.4962743226, 1492.65599805244, 1499.96933741824, 1742.1816436252798, 2980.099954247, 3008.1584562645194, 3023.3962966895997, 3047.7672275902796, 3060.0041954305198, 3100.49194087724, 3104.96234832056, 3106.61042479736, 3158.11968168268, 3182.6416862603996, 3484.97444894404]

>  <E0_kJmol>  (1) 
-858317

>  <H298_kJmol>  (1) 
-858292

$$$$

     RDKit          3D

  9  8  0  0  0  0  0  0  0  0999 V2000
   -1.4613   -0.1141   -0.8156 C   0  0  0  0  0  0  0  0  0  1  0  0
   -0.3720    0.4783   -0.2127 O   0  0  0  0  0  0  0  0  0  2  0  0
    0.4645   -0.4688    0.3432 N   0  0  0  0  0  0  0  0  0  3  0  0
    1.5116    0.0590    0.8130 C   0  0  0  0  0  0  0  0  0  4  0  0
   -1.8409   -0.9808   -0.2763 H   0  0  0  0  0  0  0  0  0  5  0  0
   -2.1918    0.6547   -1.0499 H   0  0  0  0  0  0  0  0  0  6  0  0
    2.2213   -0.6109    1.2796 H   0  0  0  0  0  0  0  0  0  7  0  0
    1.7052    1.1274    0.7581 H   0  0  0  0  0  0  0  0  0  8  0  0
   -1.1399   -0.4963   -1.7818 H   0  0  0  0  0  0  0  0  0  9  0  0
  1  6  1  0
  1  5  1  0
  1  9  1  0
  1  2  1  0
  2  3  1  0
  3  4  1  0
  4  8  1  0
  4  7  1  0
M  END
>  <rmg_smiles>  (2) 
CO[N][CH2]

>  <rmg_adjacency_list>  (2) 
1 O u0 p2 c0 {2,S} {3,S}
2 N u0 p1 c0 {1,S} {4,S}
3 C u0 p0 c0 {1,S} {5,S} {6,S} {7,S}
4 C u0 p0 c0 {2,S} {8,S} {9,S}
5 H u0 p0 c0 {3,S}
6 H u0 p0 c0 {3,S}
7 H u0 p0 c0 {3,S}
8 H u0 p0 c0 {4,S}
9 H u0 p0 c0 {4,S}


>  <multiplicity>  (2) 
1

>  <reaction>  (2) 
rmg_rxn_15713

>  <type>  (2) 
r2h

>  <role_mapnums>  (2) 
{"r2h_a": 1, "r2h_h": 9}

>  <role_mapidx>  (2) 
{"r2h_a": 0, "r2h_h": 8}

>  <ordered_mapped_smiles>  (2) 
[C:1]([O:2][NH:3][CH:4]([H:7])[H:8])([H:5])([H:6])[H:9]

>  <mol_properties>  (2) 
{"0": {"label": "acceptor", "atom_type": "Cs"}, "8": {"label": "a_hydrogen", "atom_type": "H0"}}

>  <level_of_theory>  (2) 
wb97xd/def2tzvp

>  <lot_method>  (2) 
wb97xd

>  <lot_basis>  (2) 
def2tzvp

>  <spin_multiplicity>  (2) 
1.0

>  <optical_isomers>  (2) 
1.0

>  <modes>  (2) 
IdealGasTranslation(mass=(59.0371, 'amu')),         NonlinearRotor(             inertia = ([11.9742, 101.538, 110.304

>  <frequency_value>  (2) 
unknown

>  <frequency_units>  (2) 
unknown

>  <frequency_list>  (2) 
unknown

>  <arkane_path>  (2) 
/home/calvin/Dropbox/PersonalFolders/Calvin/ZEUS_Converged/rmg_rxn_15713/output/Species/rmg_rxn_15713_p1_CON=C/arkane/output.py

>  <path_exists>  (2) 
True

>  <E0_value>  (2) 
-548882.9200394232

>  <E0_units>  (2) 
kJ/mol

>  <thermo_class>  (2) 
NASA

>  <Cp0_value>  (2) 
33.257888

>  <Cp0_units>  (2) 
J/(mol*K)

>  <CpInf_value>  (2) 
207.8618

>  <CpInf_units>  (2) 
J/(mol*K)

>  <Tmin_value>  (2) 
10.0

>  <Tmin_units>  (2) 
K

>  <Tmax_value>  (2) 
3000.0

>  <Tmax_units>  (2) 
K

>  <polynomials>  (2) 
[{"name": "polynomial1", "class": "NASAPolynomial", "Tmin_value": 10.0, "Tmin_units": "K", "Tmax_value": 1066.0445442103917, "Tmax_units": "K", "coeffs": [3.9488472240731216, 0.012909444164008412, 1.8432835387873368e-05, -2.5565901414715004e-08, 8.632634293818456e-12, -66015370.98001154, 7.906058800048573]}, {"name": "polynomial2", "class": "NASAPolynomial", "Tmin_value": 1066.0445442103917, "Tmin_units": "K", "Tmax_value": 3000.0, "Tmax_units": "K", "coeffs": [4.051174026649639, 0.02340322367340144, -1.163838712217072e-05, 2.8112466199843713e-09, -2.6680947262736413e-13, -66016010.897278614, 4.506810904924114]}]

>  <H298_value>  (2) 
-131182.46582067996

>  <H298_units>  (2) 
kcal/mol

>  <S298_value>  (2) 
69.27397375028742

>  <S298_units>  (2) 
cal/(mol*K)

>  <Cp_T_value_list>  (2) 
[17.607207323409234, 21.157104611048137, 24.5530891366924, 27.67560467885903, 32.827861850696166, 36.480858050170255, 41.94371504002133, 44.76201379304356, 46.08804102499818]

>  <Cp_T_units>  (2) 
cal/(mol*K)

>  <T_list>  (2) 
[300.0, 400.0, 500.0, 600.0, 800.0, 1000.0, 1500.0, 2000.0, 2400.0]

>  <T_units>  (2) 
K

>  <yaml_path>  (2) 
/home/calvin/Dropbox/PersonalFolders/Calvin/ZEUS_Converged/rmg_rxn_15713/output/Species/rmg_rxn_15713_p1_CON=C/rmg_rxn_15713_p1_CON=C.yml

>  <frequencies_cm1>  (2) 
[119.61601728907998, 180.59484693068, 346.29520270228, 574.9726808436, 796.6046320465999, 891.08061607916, 982.9746136314, 1126.32979917172, 1169.7222794088, 1171.7686410341598, 1237.71230106212, 1418.12173938916, 1456.2266409298397, 1467.4060930307999, 1493.1160860688801, 1708.0183916582798, 3005.45973103376, 3077.28153049564, 3083.54422110748, 3121.53925088304, 3213.405780494]

>  <ZPE_kJmol>  (2) 
189.2599943319938

>  <E_elec_kJmol>  (2) 
-549072.1800337551

>  <E0_minus_Eelec_plus_ZPE_kJmol>  (2) 
0.0

>  <rxn>  (2) 
rmg_rxn_15713

>  <species_type>  (2) 
p0

>  <species_folder>  (2) 
rmg_rxn_15713_p1_CON=C

>  <frequencies_cm1_list>  (2) 
[119.61601728907998, 180.59484693068, 346.29520270228, 574.9726808436, 796.6046320465999, 891.08061607916, 982.9746136314, 1126.32979917172, 1169.7222794088, 1171.7686410341598, 1237.71230106212, 1418.12173938916, 1456.2266409298397, 1467.4060930307999, 1493.1160860688801, 1708.0183916582798, 3005.45973103376, 3077.28153049564, 3083.54422110748, 3121.53925088304, 3213.405780494]

>  <E0_kJmol>  (2) 
-548883

>  <H298_kJmol>  (2) 
-548867

$$$$

     RDKit          3D

 26 24  0  0  0  0  0  0  0  0999 V2000
   -1.8599    0.0153    0.9546 C   0  0  0  0  0  3  0  0  0  1  0  0
   -0.7706    0.6077    1.5574 O   0  0  0  0  0  0  0  0  0  2  0  0
    0.0659   -0.3394    2.1134 N   0  0  0  0  0  0  0  0  0  3  0  0
    1.1130    0.1884    2.5832 C   0  0  0  0  0  0  0  0  0  4  0  0
   -2.2395   -0.8514    1.4939 H   0  0  0  0  0  0  0  0  0  5  0  0
   -2.5904    0.7841    0.7203 H   0  0  0  0  0  0  0  0  0  6  0  0
    1.8227   -0.4815    3.0498 H   0  0  0  0  0  0  0  0  0  7  0  0
    1.3066    1.2568    2.5282 H   0  0  0  0  0  0  0  0  0  8  0  0
    0.2741   -2.9336   -2.0722 C   0  0  0  0  0  0  0  0  0  9  0  0
   -0.4263   -2.2409   -0.9146 C   0  0  0  0  0  0  0  0  0 10  0  0
   -0.8454   -0.8937   -1.2703 N   0  0  0  0  0  0  0  0  0 11  0  0
    0.3203   -0.1109   -1.2660 O   0  0  0  0  0  0  0  0  0 12  0  0
    0.1174    1.0701   -1.9121 C   0  0  0  0  0  0  0  0  0 13  0  0
    0.8606    2.1385   -1.6615 C   0  0  0  0  0  0  0  0  0 14  0  0
    1.9447    2.2156   -0.6355 C   0  0  0  0  0  0  0  0  0 15  0  0
    1.1939   -2.4105   -2.3330 H   0  0  0  0  0  0  0  0  0 16  0  0
    0.5292   -3.9590   -1.7992 H   0  0  0  0  0  0  0  0  0 17  0  0
   -0.3700   -2.9581   -2.9523 H   0  0  0  0  0  0  0  0  0 18  0  0
   -1.3475   -2.7689   -0.6560 H   0  0  0  0  0  0  0  0  0 19  0  0
    0.2122   -2.2301   -0.0243 H   0  0  0  0  0  0  0  0  0 20  0  0
   -1.4416   -0.4822   -0.3031 H   0  0  0  0  0  0  0  0  0 21  0  0
   -0.6770    1.0437   -2.6483 H   0  0  0  0  0  0  0  0  0 22  0  0
    0.6635    3.0156   -2.2656 H   0  0  0  0  0  0  0  0  0 23  0  0
    2.9208    2.3723   -1.1021 H   0  0  0  0  0  0  0  0  0 24  0  0
    1.7748    3.0553    0.0433 H   0  0  0  0  0  0  0  0  0 25  0  0
    1.9933    1.2996   -0.0480 H   0  0  0  0  0  0  0  0  0 26  0  0
  1  2  1  0
  1  5  1  0
  1  6  1  0
  2  3  1  0
  3  4  1  0
  4  7  1  0
  4  8  1  0
  9 17  1  0
  9 18  1  0
  9 16  1  0
  9 10  1  0
 10 19  1  0
 10 20  1  0
 10 11  1  0
 11 21  1  0
 11 12  1  0
 12 13  1  0
 13 14  1  0
 13 22  1  0
 14 15  1  0
 14 23  1  0
 15 25  1  0
 15 24  1  0
 15 26  1  0
M  RAD  1   1   2
M  END
>  <rmg_smiles>  (3) 
C[CH][CH]ONCC.[CH2]O[N][CH2]

>  <rmg_adjacency_list>  (3) 
multiplicity 2
1  O u0 p2 c0 {3,S} {9,S}
2  O u0 p2 c0 {4,S} {10,S}
3  N u0 p1 c0 {1,S} {5,S} {21,S}
4  N u0 p1 c0 {2,S} {11,S}
5  C u0 p0 c0 {3,S} {6,S} {12,S} {13,S}
6  C u0 p0 c0 {5,S} {14,S} {15,S} {16,S}
7  C u0 p0 c0 {8,S} {17,S} {18,S} {19,S}
8  C u0 p0 c0 {7,S} {9,S} {20,S}
9  C u0 p0 c0 {1,S} {8,S} {22,S}
10 C u1 p0 c0 {2,S} {23,S} {24,S}
11 C u0 p0 c0 {4,S} {25,S} {26,S}
12 H u0 p0 c0 {5,S}
13 H u0 p0 c0 {5,S}
14 H u0 p0 c0 {6,S}
15 H u0 p0 c0 {6,S}
16 H u0 p0 c0 {6,S}
17 H u0 p0 c0 {7,S}
18 H u0 p0 c0 {7,S}
19 H u0 p0 c0 {7,S}
20 H u0 p0 c0 {8,S}
21 H u0 p0 c0 {3,S}
22 H u0 p0 c0 {9,S}
23 H u0 p0 c0 {10,S}
24 H u0 p0 c0 {10,S}
25 H u0 p0 c0 {11,S}
26 H u0 p0 c0 {11,S}


>  <multiplicity>  (3) 
2

>  <reaction>  (3) 
rmg_rxn_15713

>  <type>  (3) 
ts

>  <role_mapnums>  (3) 
{"*2": 21, "*1": 11, "*3": 1, "*0": 12, "*4": 2}

>  <role_mapidx>  (3) 
{"*2": 20, "*1": 10, "*3": 0, "*0": 11, "*4": 1}

>  <ordered_mapped_smiles>  (3) 
[C:1]([O:2][NH:3][CH:4]([H:7])[H:8])([H:5])[H:6].[C:9]([C:10]([N:11]([O:12][CH:13]([CH:14]([C:15]([H:24])([H:25])[H:26])[H:23])[H:22])[H:21])([H:19])[H:20])([H:16])([H:17])[H:18]

>  <mol_properties>  (3) 
{"0": {"label": "*3", "atom_type": "Cs"}, "1": {"label": "*4", "atom_type": "O2s"}, "10": {"label": "*1", "atom_type": "N3s"}, "11": {"label": "*0", "atom_type": "O2s"}, "20": {"label": "*2", "atom_type": "H0"}}

>  <level_of_theory>  (3) 
wb97xd/def2tzvp

>  <lot_method>  (3) 
wb97xd

>  <lot_basis>  (3) 
def2tzvp

>  <spin_multiplicity>  (3) 
2.0

>  <optical_isomers>  (3) 
2.0

>  <modes>  (3) 
IdealGasTranslation(mass=(159.113, 'amu')),         NonlinearRotor(             inertia = ([517.165, 593.949, 857.971

>  <frequency_value>  (3) 
-1883.81

>  <frequency_units>  (3) 
cm^-1

>  <frequency_list>  (3) 
unknown

>  <arkane_path>  (3) 
/home/calvin/Dropbox/PersonalFolders/Calvin/ZEUS_Converged/rmg_rxn_15713/output/rxns/TS0/arkane/output.py

>  <path_exists>  (3) 
True

>  <E0_value>  (3) 
-1405460.0

>  <E0_units>  (3) 
kJ/mol

>  <thermo_class>  (3) 
unknown

>  <Cp0_value>  (3) 
unknown

>  <Cp0_units>  (3) 
unknown

>  <CpInf_value>  (3) 
unknown

>  <CpInf_units>  (3) 
unknown

>  <Tmin_value>  (3) 
unknown

>  <Tmin_units>  (3) 
unknown

>  <Tmax_value>  (3) 
unknown

>  <Tmax_units>  (3) 
unknown

>  <polynomials>  (3) 
unknown

>  <H298_value>  (3) 
unknown

>  <H298_units>  (3) 
unknown

>  <S298_value>  (3) 
unknown

>  <S298_units>  (3) 
unknown

>  <Cp_T_value_list>  (3) 
unknown

>  <Cp_T_units>  (3) 
unknown

>  <T_list>  (3) 
unknown

>  <T_units>  (3) 
unknown

>  <yaml_path>  (3) 
unknown

>  <frequencies_cm1>  (3) 
unknown

>  <ZPE_kJmol>  (3) 
unknown

>  <E_elec_kJmol>  (3) 
unknown

>  <E0_minus_Eelec_plus_ZPE_kJmol>  (3) 
unknown

>  <rxn>  (3) 
unknown

>  <species_type>  (3) 
unknown

>  <species_folder>  (3) 
unknown

>  <frequencies_cm1_list>  (3) 
[]

>  <ts_imag_freq_cm1>  (3) 
-1906.6949

>  <ts_freq_out_path>  (3) 
/home/calvin/Dropbox/PersonalFolders/Calvin/ZEUS_Converged/rmg_rxn_15713/output/rxns/TS0/geometry/freq.out

>  <E0_kJmol>  (3) 
-1.40546e+06

>  <H298_kJmol>  (3) 
unknown

$$$$

     RDKit          3D

 17 16  0  0  0  0  0  0  0  0999 V2000
   -3.9569    0.9552    0.2194 C   0  0  0  0  0  0  0  0  0  1  0  0
   -2.7268    0.2170    0.7122 C   0  0  0  0  0  0  0  0  0  2  0  0
   -3.1329   -0.9651    1.4331 N   0  0  0  0  0  2  0  0  0  3  0  0
   -1.9936   -1.5736    1.8429 O   0  0  0  0  0  0  0  0  0  4  0  0
   -2.2420   -2.7226    2.5478 C   0  0  0  0  0  0  0  0  0  5  0  0
   -1.2555   -3.4592    3.0326 C   0  0  0  0  0  0  0  0  0  6  0  0
    0.2053   -3.1742    2.8978 C   0  0  0  0  0  0  0  0  0  7  0  0
   -4.5903    1.2537    1.0554 H   0  0  0  0  0  0  0  0  0  8  0  0
   -4.5473    0.3237   -0.4453 H   0  0  0  0  0  0  0  0  0  9  0  0
   -3.6652    1.8519   -0.3280 H   0  0  0  0  0  0  0  0  0 10  0  0
   -2.0800   -0.0725   -0.1260 H   0  0  0  0  0  0  0  0  0 11  0  0
   -2.1229    0.8548    1.3703 H   0  0  0  0  0  0  0  0  0 12  0  0
   -3.2943   -2.9484    2.6575 H   0  0  0  0  0  0  0  0  0 13  0  0
   -1.5512   -4.3487    3.5754 H   0  0  0  0  0  0  0  0  0 14  0  0
    0.6708   -3.0711    3.8810 H   0  0  0  0  0  0  0  0  0 15  0  0
    0.7136   -3.9963    2.3881 H   0  0  0  0  0  0  0  0  0 16  0  0
    0.3877   -2.2596    2.3363 H   0  0  0  0  0  0  0  0  0 17  0  0
  1 10  1  0
  1  8  1  0
  1  9  1  0
  1  2  1  0
  2 12  1  0
  2  3  1  0
  2 11  1  0
  3  4  1  0
  4  5  1  0
  5 13  1  0
  5  6  1  0
  6 14  1  0
  6  7  1  0
  7 17  1  0
  7 15  1  0
  7 16  1  0
M  RAD  1   3   2
M  END
>  <rmg_smiles>  (4) 
C[CH][CH]O[N]CC

>  <rmg_adjacency_list>  (4) 
multiplicity 2
1  O u0 p2 c0 {2,S} {7,S}
2  N u1 p1 c0 {1,S} {3,S}
3  C u0 p0 c0 {2,S} {4,S} {8,S} {9,S}
4  C u0 p0 c0 {3,S} {10,S} {11,S} {12,S}
5  C u0 p0 c0 {6,S} {13,S} {14,S} {15,S}
6  C u0 p0 c0 {5,S} {7,S} {16,S}
7  C u0 p0 c0 {1,S} {6,S} {17,S}
8  H u0 p0 c0 {3,S}
9  H u0 p0 c0 {3,S}
10 H u0 p0 c0 {4,S}
11 H u0 p0 c0 {4,S}
12 H u0 p0 c0 {4,S}
13 H u0 p0 c0 {5,S}
14 H u0 p0 c0 {5,S}
15 H u0 p0 c0 {5,S}
16 H u0 p0 c0 {6,S}
17 H u0 p0 c0 {7,S}


>  <multiplicity>  (4) 
2

>  <reaction>  (4) 
rmg_rxn_15713

>  <type>  (4) 
r1

>  <role_mapnums>  (4) 
{}

>  <role_mapidx>  (4) 
{}

>  <ordered_mapped_smiles>  (4) 
[C:1]([C:2]([N:3][O:4][CH:5]([CH:6]([C:7]([H:15])([H:16])[H:17])[H:14])[H:13])([H:11])[H:12])([H:8])([H:9])[H:10]

>  <level_of_theory>  (4) 
wb97xd/def2tzvp

>  <lot_method>  (4) 
wb97xd

>  <lot_basis>  (4) 
def2tzvp

>  <spin_multiplicity>  (4) 
2.0

>  <optical_isomers>  (4) 
1.0

>  <modes>  (4) 
IdealGasTranslation(mass=(100.076, 'amu')),         NonlinearRotor(             inertia = ([48.759, 495.431, 534.81

>  <frequency_value>  (4) 
unknown

>  <frequency_units>  (4) 
unknown

>  <frequency_list>  (4) 
unknown

>  <arkane_path>  (4) 
/home/calvin/Dropbox/PersonalFolders/Calvin/ZEUS_Converged/rmg_rxn_15713/output/Species/rmg_rxn_15713_p2_CCsbr-N-sbrOC=CC/arkane/output.py

>  <path_exists>  (4) 
True

>  <E0_value>  (4) 
-856676.8223331333

>  <E0_units>  (4) 
kJ/mol

>  <thermo_class>  (4) 
NASA

>  <Cp0_value>  (4) 
33.257888

>  <Cp0_units>  (4) 
J/(mol*K)

>  <CpInf_value>  (4) 
407.409128

>  <CpInf_units>  (4) 
J/(mol*K)

>  <Tmin_value>  (4) 
10.0

>  <Tmin_units>  (4) 
K

>  <Tmax_value>  (4) 
3000.0

>  <Tmax_units>  (4) 
K

>  <polynomials>  (4) 
[{"name": "polynomial1", "class": "NASAPolynomial", "Tmin_value": 10.0, "Tmin_units": "K", "Tmax_value": 405.8617016422642, "Tmax_units": "K", "coeffs": [3.3056821829666876, 0.07427222245103442, -0.0002334485157928309, 5.927295217898219e-07, -5.204043932585979e-10, -103034419.90991603, 12.815919936389687]}, {"name": "polynomial2", "class": "NASAPolynomial", "Tmin_value": 405.8617016422642, "Tmin_units": "K", "Tmax_value": 3000.0, "Tmax_units": "K", "coeffs": [-0.060423116103502865, 0.06444249773473294, -3.818120379550855e-05, 1.0913054719049007e-08, -1.2080186358157797e-12, -103033792.48118466, 30.383553447873673]}]

>  <H298_value>  (4) 
-204744.41408837505

>  <H298_units>  (4) 
kcal/mol

>  <S298_value>  (4) 
94.6284463739008

>  <S298_units>  (4) 
cal/(mol*K)

>  <Cp_T_value_list>  (4) 
[32.52143721927914, 40.29090107192689, 47.502493164808094, 53.77480700871094, 63.8892538204584, 71.35245162702867, 82.29336154543947, 87.58790855839342, 90.3398918368538]

>  <Cp_T_units>  (4) 
cal/(mol*K)

>  <T_list>  (4) 
[300.0, 400.0, 500.0, 600.0, 800.0, 1000.0, 1500.0, 2000.0, 2400.0]

>  <T_units>  (4) 
K

>  <yaml_path>  (4) 
/home/calvin/Dropbox/PersonalFolders/Calvin/ZEUS_Converged/rmg_rxn_15713/output/Species/rmg_rxn_15713_p2_CCsbr-N-sbrOC=CC/rmg_rxn_15713_p2_CCsbr-N-sbrOC=CC.yml

>  <frequencies_cm1>  (4) 
[41.256847802559996, 104.15843333375999, 120.12417420275999, 121.77911766487999, 126.90188871359999, 231.22512969504, 233.87578602856, 426.85180749119996, 449.615863827, 466.4056429344, 679.316522781, 752.8344676169199, 780.6388911775999, 916.6395354401998, 949.4568582844801, 962.7170069373999, 1006.871722545, 1055.6959881701998, 1078.78279281604, 1081.1175678248399, 1131.38390036724, 1169.43386602536, 1189.0871780112, 1259.78965886592, 1266.83518580424, 1366.7429552249198, 1375.2168151098, 1407.5122470697597, 1414.44103525764, 1457.00947725632, 1474.18380754164, 1476.51858255044, 1476.93060166964, 1489.9778737776398, 1747.07780415844, 2967.79431655356, 3000.9618556491596, 3012.9104101059593, 3026.2186276561197, 3066.33555589556, 3103.1219962547993, 3105.08595405632, 3114.0405029135995, 3160.2621811025197, 3192.88722835784]

>  <ZPE_kJmol>  (4) 
377.0512340360192

>  <E_elec_kJmol>  (4) 
-857053.8735671693

>  <E0_minus_Eelec_plus_ZPE_kJmol>  (4) 
0.0

>  <rxn>  (4) 
rmg_rxn_15713

>  <species_type>  (4) 
p1

>  <species_folder>  (4) 
rmg_rxn_15713_p2_CCsbr-N-sbrOC=CC

>  <frequencies_cm1_list>  (4) 
[41.256847802559996, 104.15843333375999, 120.12417420275999, 121.77911766487999, 126.90188871359999, 231.22512969504, 233.87578602856, 426.85180749119996, 449.615863827, 466.4056429344, 679.316522781, 752.8344676169199, 780.6388911775999, 916.6395354401998, 949.4568582844801, 962.7170069373999, 1006.871722545, 1055.6959881701998, 1078.78279281604, 1081.1175678248399, 1131.38390036724, 1169.43386602536, 1189.0871780112, 1259.78965886592, 1266.83518580424, 1366.7429552249198, 1375.2168151098, 1407.5122470697597, 1414.44103525764, 1457.00947725632, 1474.18380754164, 1476.51858255044, 1476.93060166964, 1489.9778737776398, 1747.07780415844, 2967.79431655356, 3000.9618556491596, 3012.9104101059593, 3026.2186276561197, 3066.33555589556, 3103.1219962547993, 3105.08595405632, 3114.0405029135995, 3160.2621811025197, 3192.88722835784]

>  <E0_kJmol>  (4) 
-856677

>  <H298_kJmol>  (4) 
-856651

$$$$

     RDKit          3D

  8  7  0  0  0  0  0  0  0  0999 V2000
    1.7077   -0.1964   -0.0607 C   0  0  0  0  0  3  0  0  0  1  0  0
    0.4209   -0.4565    0.2808 O   0  0  0  0  0  0  0  0  0  2  0  0
   -0.4607    0.4385   -0.2968 N   0  0  0  0  0  0  0  0  0  3  0  0
   -1.6584    0.1416   -0.0244 C   0  0  0  0  0  0  0  0  0  4  0  0
    2.4163   -0.7685    0.5170 H   0  0  0  0  0  0  0  0  0  5  0  0
    1.9214    0.7645   -0.5045 H   0  0  0  0  0  0  0  0  0  6  0  0
   -2.4185    0.7953   -0.4307 H   0  0  0  0  0  0  0  0  0  7  0  0
   -1.9286   -0.7185    0.5831 H   0  0  0  0  0  0  0  0  0  8  0  0
  1  6  1  0
  1  5  1  0
  1  2  1  0
  2  3  1  0
  3  4  1  0
  4  8  1  0
  4  7  1  0
M  RAD  1   1   2
M  END
>  <rmg_smiles>  (5) 
[CH2]O[N][CH2]

>  <rmg_adjacency_list>  (5) 
multiplicity 2
1 O u0 p2 c0 {2,S} {3,S}
2 N u0 p1 c0 {1,S} {4,S}
3 C u1 p0 c0 {1,S} {5,S} {6,S}
4 C u0 p0 c0 {2,S} {7,S} {8,S}
5 H u0 p0 c0 {3,S}
6 H u0 p0 c0 {3,S}
7 H u0 p0 c0 {4,S}
8 H u0 p0 c0 {4,S}


>  <multiplicity>  (5) 
2

>  <reaction>  (5) 
rmg_rxn_15713

>  <type>  (5) 
r2

>  <role_mapnums>  (5) 
{}

>  <role_mapidx>  (5) 
{}

>  <ordered_mapped_smiles>  (5) 
[C:1]([O:2][NH:3][CH:4]([H:7])[H:8])([H:5])[H:6]

>  <level_of_theory>  (5) 
wb97xd/def2tzvp

>  <lot_method>  (5) 
wb97xd

>  <lot_basis>  (5) 
def2tzvp

>  <spin_multiplicity>  (5) 
2.0

>  <optical_isomers>  (5) 
2.0

>  <modes>  (5) 
IdealGasTranslation(mass=(58.0293, 'amu')),         NonlinearRotor(             inertia = ([10.2741, 95.4529, 105.582

>  <frequency_value>  (5) 
unknown

>  <frequency_units>  (5) 
unknown

>  <frequency_list>  (5) 
unknown

>  <arkane_path>  (5) 
/home/calvin/Dropbox/PersonalFolders/Calvin/ZEUS_Converged/rmg_rxn_15713/output/Species/rmg_rxn_15713_r1_sbr-CH2-sbrON=C/arkane/output.py

>  <path_exists>  (5) 
True

>  <E0_value>  (5) 
-547168.2732446302

>  <E0_units>  (5) 
kJ/mol

>  <thermo_class>  (5) 
NASA

>  <Cp0_value>  (5) 
33.257888

>  <Cp0_units>  (5) 
J/(mol*K)

>  <CpInf_value>  (5) 
182.918384

>  <CpInf_units>  (5) 
J/(mol*K)

>  <Tmin_value>  (5) 
10.0

>  <Tmin_units>  (5) 
K

>  <Tmax_value>  (5) 
3000.0

>  <Tmax_units>  (5) 
K

>  <polynomials>  (5) 
[{"name": "polynomial1", "class": "NASAPolynomial", "Tmin_value": 10.0, "Tmin_units": "K", "Tmax_value": 253.2842427910515, "Tmax_units": "K", "coeffs": [3.956862909385456, 0.0038362890131335746, 0.00011727738047703725, -3.4736244039427427e-07, 3.472729073035136e-10, -65809144.38694886, 9.350338763280796]}, {"name": "polynomial2", "class": "NASAPolynomial", "Tmin_value": 253.2842427910515, "Tmin_units": "K", "Tmax_value": 3000.0, "Tmax_units": "K", "coeffs": [2.5252197328965313, 0.026445761179553072, -1.662161754135038e-05, 5.074735532607581e-09, -5.97403912324656e-13, -65809071.86505469, 14.291183066674913]}]

>  <H298_value>  (5) 
-130772.65860702786

>  <H298_units>  (5) 
kcal/mol

>  <S298_value>  (5) 
71.26914844977757

>  <S298_units>  (5) 
cal/(mol*K)

>  <Cp_T_value_list>  (5) 
[18.0740035969719, 21.369534269323825, 24.223451351766553, 26.683440747612977, 30.598134113509214, 33.438117676478754, 37.554421513360474, 39.68390492467901, 40.91110806828642]

>  <Cp_T_units>  (5) 
cal/(mol*K)

>  <T_list>  (5) 
[300.0, 400.0, 500.0, 600.0, 800.0, 1000.0, 1500.0, 2000.0, 2400.0]

>  <T_units>  (5) 
K

>  <yaml_path>  (5) 
/home/calvin/Dropbox/PersonalFolders/Calvin/ZEUS_Converged/rmg_rxn_15713/output/Species/rmg_rxn_15713_r1_sbr-CH2-sbrON=C/rmg_rxn_15713_r1_sbr-CH2-sbrON=C.yml

>  <frequencies_cm1>  (5) 
[132.13453152744, 273.14807507364, 360.4549264321199, 498.69420790903996, 595.9169860696, 789.3942974605999, 873.74834513148, 993.5360370535599, 1152.01232426852, 1206.54305469464, 1257.0497317232398, 1417.2771001948001, 1437.260027476, 1705.2166616477198, 3090.5210781926, 3134.7719315946797, 3218.94057066192, 3282.16490450316]

>  <ZPE_kJmol>  (5) 
152.0381400376291

>  <E_elec_kJmol>  (5) 
-547320.3113846679

>  <E0_minus_Eelec_plus_ZPE_kJmol>  (5) 
0.0

>  <rxn>  (5) 
rmg_rxn_15713

>  <species_type>  (5) 
r0

>  <species_folder>  (5) 
rmg_rxn_15713_r1_sbr-CH2-sbrON=C

>  <frequencies_cm1_list>  (5) 
[132.13453152744, 273.14807507364, 360.4549264321199, 498.69420790903996, 595.9169860696, 789.3942974605999, 873.74834513148, 993.5360370535599, 1152.01232426852, 1206.54305469464, 1257.0497317232398, 1417.2771001948001, 1437.260027476, 1705.2166616477198, 3090.5210781926, 3134.7719315946797, 3218.94057066192, 3282.16490450316]

>  <E0_kJmol>  (5) 
-547168

>  <H298_kJmol>  (5) 
-547153

$$$$
