
     RDKit          3D

  9  8  0  0  0  0  0  0  0  0999 V2000
   -0.8312   -0.3597   -0.8717 C   0  0  0  0  0  0  0  0  0  1  0  0
    0.3382   -0.4329    0.1192 C   0  0  0  0  0  0  0  0  0  2  0  0
    0.5762    0.8240    0.7171 N   0  0  0  0  0  2  0  0  0  3  0  0
   -0.6257    0.3730   -1.6517 H   0  0  0  0  0  0  0  0  0  4  0  0
   -0.9882   -1.3331   -1.3386 H   0  0  0  0  0  0  0  0  0  5  0  0
   -1.7420   -0.0627   -0.3507 H   0  0  0  0  0  0  0  0  0  6  0  0
    1.2463   -0.7702   -0.3978 H   0  0  0  0  0  0  0  0  0  7  0  0
    0.1011   -1.2003    0.8828 H   0  0  0  0  0  0  0  0  0  8  0  0
    0.0316    0.9467    1.5946 H   0  0  0  0  0  0  0  0  0  9  0  0
  1  5  1  0
  1  4  1  0
  1  6  1  0
  1  2  1  0
  2  3  1  0
  2  7  1  0
  2  8  1  0
  3  9  1  0
M  RAD  1   3   2
M  END
>  <rmg_smiles>  (1) 
CC[NH]

>  <rmg_adjacency_list>  (1) 
multiplicity 2
1 N u1 p1 c0 {2,S} {9,S}
2 C u0 p0 c0 {1,S} {3,S} {4,S} {5,S}
3 C u0 p0 c0 {2,S} {6,S} {7,S} {8,S}
4 H u0 p0 c0 {2,S}
5 H u0 p0 c0 {2,S}
6 H u0 p0 c0 {3,S}
7 H u0 p0 c0 {3,S}
8 H u0 p0 c0 {3,S}
9 H u0 p0 c0 {1,S}


>  <multiplicity>  (1) 
2

>  <reaction>  (1) 
rmg_rxn_2

>  <type>  (1) 
r1h

>  <role_mapnums>  (1) 
{"r1h_a": 3, "r1h_h": 9}

>  <role_mapidx>  (1) 
{"r1h_a": 2, "r1h_h": 8}

>  <ordered_mapped_smiles>  (1) 
[C:1]([C:2]([N:3][H:9])([H:7])[H:8])([H:4])([H:5])[H:6]

>  <mol_properties>  (1) 
{"2": {"label": "donator", "atom_type": "N3s"}, "8": {"label": "d_hydrogen", "atom_type": "H0"}}

>  <level_of_theory>  (1) 
wb97xd/def2tzvp

>  <lot_method>  (1) 
wb97xd

>  <lot_basis>  (1) 
def2tzvp

>  <spin_multiplicity>  (1) 
2.0

>  <optical_isomers>  (1) 
1.0

>  <modes>  (1) 
IdealGasTranslation(mass=(44.05, 'amu')),         NonlinearRotor(             inertia = ([13.5046, 54.0855, 61.3855

>  <frequency_value>  (1) 
unknown

>  <frequency_units>  (1) 
unknown

>  <frequency_list>  (1) 
unknown

>  <arkane_path>  (1) 
/home/calvin/Dropbox/PersonalFolders/Calvin/ATLAS_Converged/rmg_rxn_2/output/Species/rmg_rxn_2_r2_CCsbr-NH-sbr/arkane/output.py

>  <path_exists>  (1) 
True

>  <E0_value>  (1) 
-352969.95105561113

>  <E0_units>  (1) 
kJ/mol

>  <thermo_class>  (1) 
NASA

>  <Cp0_value>  (1) 
33.257888

>  <Cp0_units>  (1) 
J/(mol*K)

>  <CpInf_value>  (1) 
207.8618

>  <CpInf_units>  (1) 
J/(mol*K)

>  <Tmin_value>  (1) 
10.0

>  <Tmin_units>  (1) 
K

>  <Tmax_value>  (1) 
3000.0

>  <Tmax_units>  (1) 
K

>  <polynomials>  (1) 
[{"name": "polynomial1", "class": "NASAPolynomial", "Tmin_value": 10.0, "Tmin_units": "K", "Tmax_value": 494.98074748977484, "Tmax_units": "K", "coeffs": [3.96628511452133, 0.0018994782140610337, 6.762100082474034e-05, -1.0861292876060174e-07, 5.65918620315742e-11, -42452477.255166434, 7.84782322933281]}, {"name": "polynomial2", "class": "NASAPolynomial", "Tmin_value": 494.98074748977484, "Tmin_units": "K", "Tmax_value": 3000.0, "Tmax_units": "K", "coeffs": [0.5324488734331831, 0.029632058000791692, -1.6369867882593552e-05, 4.442442345004726e-09, -4.746642285780625e-13, -42452137.11437419, 22.001362446936305]}]

>  <H298_value>  (1) 
-84358.50970291646

>  <H298_units>  (1) 
kcal/mol

>  <S298_value>  (1) 
65.90798772684775

>  <S298_units>  (1) 
cal/(mol*K)

>  <Cp_T_value_list>  (1) 
[16.191487631841138, 19.95743690999345, 23.412570840096805, 26.46279891443655, 31.48030762408747, 35.29759074982531, 41.21185768118182, 44.23919996224711, 45.751558882208336]

>  <Cp_T_units>  (1) 
cal/(mol*K)

>  <T_list>  (1) 
[300.0, 400.0, 500.0, 600.0, 800.0, 1000.0, 1500.0, 2000.0, 2400.0]

>  <T_units>  (1) 
K

>  <yaml_path>  (1) 
/home/calvin/Dropbox/PersonalFolders/Calvin/ATLAS_Converged/rmg_rxn_2/output/Species/rmg_rxn_2_r2_CCsbr-NH-sbr/rmg_rxn_2_r2_CCsbr-NH-sbr.yml

>  <frequencies_cm1>  (1) 
[215.54780220947998, 313.0658607388, 421.33075129391995, 726.5957167091999, 902.32873803332, 1018.4151248679198, 1029.1207549817998, 1087.9845531448398, 1242.70459938976, 1258.69094121472, 1381.9189927821199, 1408.32255133752, 1429.1295168571198, 1475.1657864423998, 1485.8096136883998, 2923.26191675336, 2945.2843386746, 3021.78942212472, 3097.67647689604, 3102.6619082383595, 3400.85387877404]

>  <ZPE_kJmol>  (1) 
202.6932728728076

>  <E_elec_kJmol>  (1) 
-353172.644328484

>  <E0_minus_Eelec_plus_ZPE_kJmol>  (1) 
0.0

>  <rxn>  (1) 
rmg_rxn_2

>  <species_type>  (1) 
r1

>  <species_folder>  (1) 
rmg_rxn_2_r2_CCsbr-NH-sbr

>  <frequencies_cm1_list>  (1) 
[215.54780220947998, 313.0658607388, 421.33075129391995, 726.5957167091999, 902.32873803332, 1018.4151248679198, 1029.1207549817998, 1087.9845531448398, 1242.70459938976, 1258.69094121472, 1381.9189927821199, 1408.32255133752, 1429.1295168571198, 1475.1657864423998, 1485.8096136883998, 2923.26191675336, 2945.2843386746, 3021.78942212472, 3097.67647689604, 3102.6619082383595, 3400.85387877404]

>  <E0_kJmol>  (1) 
-352970

>  <H298_kJmol>  (1) 
-352956

$$$$

     RDKit          3D

  5  4  0  0  0  0  0  0  0  0999 V2000
   -0.0886    0.6238   -0.2579 N   0  0  0  0  0  2  0  0  0  1  0  0
    0.0199   -0.5430    0.2492 N   0  0  0  0  0  0  0  0  0  2  0  0
   -0.7890   -1.1499    0.2967 H   0  0  0  0  0  0  0  0  0  3  0  0
    0.8763   -0.8865    0.6753 H   0  0  0  0  0  0  0  0  0  4  0  0
    0.7671    0.8842   -0.7886 H   0  0  0  0  0  0  0  0  0  5  0  0
  1  5  1  0
  1  2  1  0
  2  4  1  0
  2  3  1  0
M  RAD  1   1   2
M  END
>  <rmg_smiles>  (2) 
[NH]N

>  <rmg_adjacency_list>  (2) 
multiplicity 2
1 N u0 p1 c0 {2,S} {3,S} {4,S}
2 N u1 p1 c0 {1,S} {5,S}
3 H u0 p0 c0 {1,S}
4 H u0 p0 c0 {1,S}
5 H u0 p0 c0 {2,S}


>  <multiplicity>  (2) 
2

>  <reaction>  (2) 
rmg_rxn_2

>  <type>  (2) 
r2h

>  <role_mapnums>  (2) 
{"r2h_a": 1, "r2h_h": 5}

>  <role_mapidx>  (2) 
{"r2h_a": 0, "r2h_h": 4}

>  <ordered_mapped_smiles>  (2) 
[N:1]([N:2]([H:3])[H:4])[H:5]

>  <mol_properties>  (2) 
{"0": {"label": "acceptor", "atom_type": "N3s"}, "4": {"label": "a_hydrogen", "atom_type": "H0"}}

>  <level_of_theory>  (2) 
wb97xd/def2tzvp

>  <lot_method>  (2) 
wb97xd

>  <lot_basis>  (2) 
def2tzvp

>  <spin_multiplicity>  (2) 
2.0

>  <optical_isomers>  (2) 
2.0

>  <modes>  (2) 
IdealGasTranslation(mass=(31.0296, 'amu')),         NonlinearRotor(             inertia = ([2.44556, 16.2707, 18.4662

>  <frequency_value>  (2) 
unknown

>  <frequency_units>  (2) 
unknown

>  <frequency_list>  (2) 
unknown

>  <arkane_path>  (2) 
/home/calvin/Dropbox/PersonalFolders/Calvin/ATLAS_Converged/rmg_rxn_2/output/Species/rmg_rxn_2_p1_sbr-NH-sbrN/arkane/output.py

>  <path_exists>  (2) 
True

>  <E0_value>  (2) 
-291956.400859452

>  <E0_units>  (2) 
kJ/mol

>  <thermo_class>  (2) 
NASA

>  <Cp0_value>  (2) 
33.257888

>  <Cp0_units>  (2) 
J/(mol*K)

>  <CpInf_value>  (2) 
108.088136

>  <CpInf_units>  (2) 
J/(mol*K)

>  <Tmin_value>  (2) 
10.0

>  <Tmin_units>  (2) 
K

>  <Tmax_value>  (2) 
3000.0

>  <Tmax_units>  (2) 
K

>  <polynomials>  (2) 
[{"name": "polynomial1", "class": "NASAPolynomial", "Tmin_value": 10.0, "Tmin_units": "K", "Tmax_value": 509.83859825219446, "Tmax_units": "K", "coeffs": [4.052136584602748, -0.004531084504054963, 4.937184092156198e-05, -8.152448525744323e-08, 4.584783864816205e-11, -35114244.36278732, 5.945417615125596]}, {"name": "polynomial2", "class": "NASAPolynomial", "Tmin_value": 509.83859825219446, "Tmin_units": "K", "Tmax_value": 3000.0, "Tmax_units": "K", "coeffs": [2.3652619552133953, 0.011493157855311688, -5.980697508799935e-06, 1.5868265846776409e-09, -1.6841948466854505e-13, -35114108.612658106, 12.591661130242505]}]

>  <H298_value>  (2) 
-69776.66596620544

>  <H298_units>  (2) 
kcal/mol

>  <S298_value>  (2) 
58.113888817126096

>  <S298_units>  (2) 
cal/(mol*K)

>  <Cp_T_value_list>  (2) 
[10.545078125731532, 12.11268922492409, 13.52191448532847, 14.763022558774402, 16.842792109084044, 18.473328780854715, 21.16642287354857, 22.71116419064153, 23.545534603114234]

>  <Cp_T_units>  (2) 
cal/(mol*K)

>  <T_list>  (2) 
[300.0, 400.0, 500.0, 600.0, 800.0, 1000.0, 1500.0, 2000.0, 2400.0]

>  <T_units>  (2) 
K

>  <yaml_path>  (2) 
/home/calvin/Dropbox/PersonalFolders/Calvin/ATLAS_Converged/rmg_rxn_2/output/Species/rmg_rxn_2_p1_sbr-NH-sbrN/rmg_rxn_2_p1_sbr-NH-sbrN.yml

>  <frequencies_cm1>  (2) 
[540.35620784548, 695.94149424072, 1137.64659097908, 1263.87551513132, 1471.0593292210397, 1653.85847843944, 3424.7853226142397, 3492.4045270602796, 3632.23008214612]

>  <ZPE_kJmol>  (2) 
103.5497273046512

>  <E_elec_kJmol>  (2) 
-292059.95058675663

>  <E0_minus_Eelec_plus_ZPE_kJmol>  (2) 
0.0

>  <rxn>  (2) 
rmg_rxn_2

>  <species_type>  (2) 
p0

>  <species_folder>  (2) 
rmg_rxn_2_p1_sbr-NH-sbrN

>  <frequencies_cm1_list>  (2) 
[540.35620784548, 695.94149424072, 1137.64659097908, 1263.87551513132, 1471.0593292210397, 1653.85847843944, 3424.7853226142397, 3492.4045270602796, 3632.23008214612]

>  <E0_kJmol>  (2) 
-291956

>  <H298_kJmol>  (2) 
-291946

$$$$

     RDKit          3D

 13 11  0  0  0  0  0  0  0  0999 V2000
   -0.5854    0.6484    1.2169 N   0  0  0  0  0  2  0  0  0  1  0  0
   -0.4770   -0.5183    1.7240 N   0  0  0  0  0  0  0  0  0  2  0  0
   -1.2858   -1.1252    1.7715 H   0  0  0  0  0  0  0  0  0  3  0  0
    0.3795   -0.8618    2.1501 H   0  0  0  0  0  0  0  0  0  4  0  0
   -0.3341   -0.4032   -2.0983 C   0  0  0  0  0  0  0  0  0  5  0  0
    0.8354   -0.4764   -1.1073 C   0  0  0  0  0  0  0  0  0  6  0  0
    1.0734    0.7805   -0.5094 N   0  0  0  0  0  1  0  0  0  7  0  0
   -0.1286    0.3295   -2.8783 H   0  0  0  0  0  0  0  0  0  8  0  0
   -0.4910   -1.3766   -2.5652 H   0  0  0  0  0  0  0  0  0  9  0  0
   -1.2448   -0.1062   -1.5772 H   0  0  0  0  0  0  0  0  0 10  0  0
    1.7435   -0.8136   -1.6243 H   0  0  0  0  0  0  0  0  0 11  0  0
    0.5983   -1.2438   -0.3438 H   0  0  0  0  0  0  0  0  0 12  0  0
    0.3694    0.9391    0.6247 H   0  0  0  0  0  0  0  0  0 13  0  0
  1  2  1  0
  1 13  1  0
  2  3  1  0
  2  4  1  0
  5  8  1  0
  5 10  1  0
  5  6  1  0
  5  9  1  0
  6  7  1  0
  6 11  1  0
  6 12  1  0
M  RAD  2   1   2   7   3
M  END
>  <rmg_smiles>  (3) 
CC[N].[NH]N

>  <rmg_adjacency_list>  (3) 
multiplicity 4
1  N u0 p1 c0 {2,S} {11,S} {12,S}
2  N u1 p1 c0 {1,S} {13,S}
3  N u2 p2 c0 {5,S}
4  C u0 p0 c0 {5,S} {6,S} {7,S} {8,S}
5  C u0 p0 c0 {3,S} {4,S} {9,S} {10,S}
6  H u0 p0 c0 {4,S}
7  H u0 p0 c0 {4,S}
8  H u0 p0 c0 {4,S}
9  H u0 p0 c0 {5,S}
10 H u0 p0 c0 {5,S}
11 H u0 p0 c0 {1,S}
12 H u0 p0 c0 {1,S}
13 H u0 p0 c0 {2,S}


>  <multiplicity>  (3) 
4

>  <reaction>  (3) 
rmg_rxn_2

>  <type>  (3) 
ts

>  <role_mapnums>  (3) 
{"*2": 13, "*1": 7, "*3": 1, "*0": 2, "*4": 6}

>  <role_mapidx>  (3) 
{"*2": 12, "*1": 6, "*3": 0, "*0": 1, "*4": 5}

>  <ordered_mapped_smiles>  (3) 
[N:1]([N:2]([H:3])[H:4])[H:13].[C:5]([C:6]([N:7])([H:11])[H:12])([H:8])([H:9])[H:10]

>  <mol_properties>  (3) 
{"0": {"label": "*3", "atom_type": "N3s"}, "1": {"label": "*0", "atom_type": "N3s"}, "5": {"label": "*4", "atom_type": "Cs"}, "6": {"label": "*1", "atom_type": "N1s"}, "12": {"label": "*2", "atom_type": "H0"}}

>  <level_of_theory>  (3) 
wb97xd/def2tzvp

>  <lot_method>  (3) 
wb97xd

>  <lot_basis>  (3) 
def2tzvp

>  <spin_multiplicity>  (3) 
2.0

>  <optical_isomers>  (3) 
2.0

>  <modes>  (3) 
IdealGasTranslation(mass=(74.0718, 'amu')),         NonlinearRotor(             inertia = ([62.0993, 191.002, 209.783

>  <frequency_value>  (3) 
-1733.24

>  <frequency_units>  (3) 
cm^-1

>  <frequency_list>  (3) 
unknown

>  <arkane_path>  (3) 
/home/calvin/Dropbox/PersonalFolders/Calvin/ATLAS_Converged/rmg_rxn_2/output/rxns/TS0/arkane/output.py

>  <path_exists>  (3) 
True

>  <E0_value>  (3) 
-643234.0

>  <E0_units>  (3) 
kJ/mol

>  <thermo_class>  (3) 
unknown

>  <Cp0_value>  (3) 
unknown

>  <Cp0_units>  (3) 
unknown

>  <CpInf_value>  (3) 
unknown

>  <CpInf_units>  (3) 
unknown

>  <Tmin_value>  (3) 
unknown

>  <Tmin_units>  (3) 
unknown

>  <Tmax_value>  (3) 
unknown

>  <Tmax_units>  (3) 
unknown

>  <polynomials>  (3) 
unknown

>  <H298_value>  (3) 
unknown

>  <H298_units>  (3) 
unknown

>  <S298_value>  (3) 
unknown

>  <S298_units>  (3) 
unknown

>  <Cp_T_value_list>  (3) 
unknown

>  <Cp_T_units>  (3) 
unknown

>  <T_list>  (3) 
unknown

>  <T_units>  (3) 
unknown

>  <yaml_path>  (3) 
unknown

>  <frequencies_cm1>  (3) 
unknown

>  <ZPE_kJmol>  (3) 
unknown

>  <E_elec_kJmol>  (3) 
unknown

>  <E0_minus_Eelec_plus_ZPE_kJmol>  (3) 
unknown

>  <rxn>  (3) 
unknown

>  <species_type>  (3) 
unknown

>  <species_folder>  (3) 
unknown

>  <frequencies_cm1_list>  (3) 
[]

>  <ts_imag_freq_cm1>  (3) 
-1754.2895

>  <ts_freq_out_path>  (3) 
/home/calvin/Dropbox/PersonalFolders/Calvin/ATLAS_Converged/rmg_rxn_2/output/rxns/TS0/geometry/freq.out

>  <E0_kJmol>  (3) 
-643234

>  <H298_kJmol>  (3) 
unknown

$$$$

     RDKit          3D

  8  7  0  0  0  0  0  0  0  0999 V2000
   -0.7853    0.0326    0.0393 C   0  0  0  0  0  0  0  0  0  1  0  0
    0.7379   -0.1211   -0.0579 C   0  0  0  0  0  0  0  0  0  2  0  0
    1.1315   -0.8282   -1.2106 N   0  0  0  0  0  1  0  0  0  3  0  0
   -1.2679   -0.9438    0.0768 H   0  0  0  0  0  0  0  0  0  4  0  0
   -1.0464    0.5840    0.9431 H   0  0  0  0  0  0  0  0  0  5  0  0
   -1.1718    0.5760   -0.8227 H   0  0  0  0  0  0  0  0  0  6  0  0
    1.2178    0.8698   -0.0686 H   0  0  0  0  0  0  0  0  0  7  0  0
    1.1219   -0.6479    0.8296 H   0  0  0  0  0  0  0  0  0  8  0  0
  1  5  1  0
  1  4  1  0
  1  6  1  0
  1  2  1  0
  2  3  1  0
  2  7  1  0
  2  8  1  0
M  RAD  1   3   3
M  END
>  <rmg_smiles>  (4) 
CC[N]

>  <rmg_adjacency_list>  (4) 
multiplicity 3
1 N u2 p2 c0 {3,S}
2 C u0 p0 c0 {3,S} {4,S} {5,S} {6,S}
3 C u0 p0 c0 {1,S} {2,S} {7,S} {8,S}
4 H u0 p0 c0 {2,S}
5 H u0 p0 c0 {2,S}
6 H u0 p0 c0 {2,S}
7 H u0 p0 c0 {3,S}
8 H u0 p0 c0 {3,S}


>  <multiplicity>  (4) 
3

>  <reaction>  (4) 
rmg_rxn_2

>  <type>  (4) 
r1

>  <role_mapnums>  (4) 
{}

>  <role_mapidx>  (4) 
{}

>  <ordered_mapped_smiles>  (4) 
[C:1]([C:2]([N:3])([H:7])[H:8])([H:4])([H:5])[H:6]

>  <level_of_theory>  (4) 
wb97xd/def2tzvp

>  <lot_method>  (4) 
wb97xd

>  <lot_basis>  (4) 
def2tzvp

>  <spin_multiplicity>  (4) 
3.0

>  <optical_isomers>  (4) 
1.0

>  <modes>  (4) 
IdealGasTranslation(mass=(43.0422, 'amu')),         NonlinearRotor(             inertia = ([13.2978, 49.7979, 56.7993

>  <frequency_value>  (4) 
unknown

>  <frequency_units>  (4) 
unknown

>  <frequency_list>  (4) 
unknown

>  <arkane_path>  (4) 
/home/calvin/Dropbox/PersonalFolders/Calvin/ATLAS_Converged/rmg_rxn_2/output/Species/rmg_rxn_2_p2_CCsbr-N-sbr/arkane/output.py

>  <path_exists>  (4) 
True

>  <E0_value>  (4) 
-351303.23848085233

>  <E0_units>  (4) 
kJ/mol

>  <thermo_class>  (4) 
NASA

>  <Cp0_value>  (4) 
33.257888

>  <Cp0_units>  (4) 
J/(mol*K)

>  <CpInf_value>  (4) 
182.918384

>  <CpInf_units>  (4) 
J/(mol*K)

>  <Tmin_value>  (4) 
10.0

>  <Tmin_units>  (4) 
K

>  <Tmax_value>  (4) 
3000.0

>  <Tmax_units>  (4) 
K

>  <polynomials>  (4) 
[{"name": "polynomial1", "class": "NASAPolynomial", "Tmin_value": 10.0, "Tmin_units": "K", "Tmax_value": 538.90863830612, "Tmax_units": "K", "coeffs": [4.011017893648797, -0.000996526599198243, 6.34493776247714e-05, -9.34151768570848e-08, 4.485816232808959e-11, -42252019.791687176, 8.154035590068796]}, {"name": "polynomial2", "class": "NASAPolynomial", "Tmin_value": 538.90863830612, "Tmin_units": "K", "Tmax_value": 3000.0, "Tmax_units": "K", "coeffs": [0.1889273408420262, 0.02737276498056165, -1.5514283778665416e-05, 4.268848130444583e-09, -4.577869697015348e-13, -42251607.842699245, 24.230537973141246]}]

>  <H298_value>  (4) 
-83960.41291340075

>  <H298_units>  (4) 
kcal/mol

>  <S298_value>  (4) 
65.16030182938087

>  <S298_units>  (4) 
cal/(mol*K)

>  <Cp_T_value_list>  (4) 
[14.434363041238354, 17.753912153606223, 20.869318835111557, 23.62825526207762, 28.131170270711078, 31.514054089972188, 36.62571062079461, 39.15495452180056, 40.43085357674264]

>  <Cp_T_units>  (4) 
cal/(mol*K)

>  <T_list>  (4) 
[300.0, 400.0, 500.0, 600.0, 800.0, 1000.0, 1500.0, 2000.0, 2400.0]

>  <T_units>  (4) 
K

>  <yaml_path>  (4) 
/home/calvin/Dropbox/PersonalFolders/Calvin/ATLAS_Converged/rmg_rxn_2/output/Species/rmg_rxn_2_p2_CCsbr-N-sbr/rmg_rxn_2_p2_CCsbr-N-sbr.yml

>  <frequencies_cm1>  (4) 
[219.85340200512002, 386.0619146904, 760.5529591165998, 905.2609407649599, 1021.4297314234, 1026.9988565179199, 1083.5347466574801, 1232.4178553804, 1304.0885811652397, 1390.88040862472, 1421.98785212432, 1476.3263069614798, 1486.33150457272, 2930.4447833980794, 2964.9719855870403, 3028.6838753859997, 3108.6361854667603, 3113.1134598954]

>  <ZPE_kJmol>  (4) 
172.63060648664862

>  <E_elec_kJmol>  (4) 
-351475.869087339

>  <E0_minus_Eelec_plus_ZPE_kJmol>  (4) 
0.0

>  <rxn>  (4) 
rmg_rxn_2

>  <species_type>  (4) 
p1

>  <species_folder>  (4) 
rmg_rxn_2_p2_CCsbr-N-sbr

>  <frequencies_cm1_list>  (4) 
[219.85340200512002, 386.0619146904, 760.5529591165998, 905.2609407649599, 1021.4297314234, 1026.9988565179199, 1083.5347466574801, 1232.4178553804, 1304.0885811652397, 1390.88040862472, 1421.98785212432, 1476.3263069614798, 1486.33150457272, 2930.4447833980794, 2964.9719855870403, 3028.6838753859997, 3108.6361854667603, 3113.1134598954]

>  <E0_kJmol>  (4) 
-351303

>  <H298_kJmol>  (4) 
-351290

$$$$

     RDKit          3D

  4  3  0  0  0  0  0  0  0  0999 V2000
    1.2191   -0.0447   -0.0369 N   0  0  0  0  0  1  0  0  0  1  0  0
   -0.0876   -0.0060    0.2202 N   0  0  0  0  0  0  0  0  0  2  0  0
   -0.5966   -0.8143   -0.1273 H   0  0  0  0  0  0  0  0  0  3  0  0
   -0.5329    0.8649   -0.0563 H   0  0  0  0  0  0  0  0  0  4  0  0
  1  2  1  0
  2  4  1  0
  2  3  1  0
M  RAD  1   1   3
M  END
>  <rmg_smiles>  (5) 
[N]N

>  <rmg_adjacency_list>  (5) 
multiplicity 3
1 N u0 p1 c0 {2,S} {3,S} {4,S}
2 N u2 p2 c0 {1,S}
3 H u0 p0 c0 {1,S}
4 H u0 p0 c0 {1,S}


>  <multiplicity>  (5) 
3

>  <reaction>  (5) 
rmg_rxn_2

>  <type>  (5) 
r2

>  <role_mapnums>  (5) 
{}

>  <role_mapidx>  (5) 
{}

>  <ordered_mapped_smiles>  (5) 
[N:1][N:2]([H:3])[H:4]

>  <level_of_theory>  (5) 
wb97xd/def2tzvp

>  <lot_method>  (5) 
wb97xd

>  <lot_basis>  (5) 
def2tzvp

>  <spin_multiplicity>  (5) 
3.0

>  <optical_isomers>  (5) 
1.0

>  <modes>  (5) 
IdealGasTranslation(mass=(30.0218, 'amu')),         NonlinearRotor(             inertia = ([1.67933, 14.8983, 16.0702

>  <frequency_value>  (5) 
unknown

>  <frequency_units>  (5) 
unknown

>  <frequency_list>  (5) 
unknown

>  <arkane_path>  (5) 
/home/calvin/Dropbox/PersonalFolders/Calvin/ATLAS_Converged/rmg_rxn_2/output/Species/rmg_rxn_2_r1_sbr-N-sbrN/arkane/output.py

>  <path_exists>  (5) 
True

>  <E0_value>  (5) 
-290291.658875472

>  <E0_units>  (5) 
kJ/mol

>  <thermo_class>  (5) 
NASA

>  <Cp0_value>  (5) 
33.257888

>  <Cp0_units>  (5) 
J/(mol*K)

>  <CpInf_value>  (5) 
83.14472

>  <CpInf_units>  (5) 
J/(mol*K)

>  <Tmin_value>  (5) 
10.0

>  <Tmin_units>  (5) 
K

>  <Tmax_value>  (5) 
3000.0

>  <Tmax_units>  (5) 
K

>  <polynomials>  (5) 
[{"name": "polynomial1", "class": "NASAPolynomial", "Tmin_value": 10.0, "Tmin_units": "K", "Tmax_value": 665.6119573607981, "Tmax_units": "K", "coeffs": [4.047267123950612, -0.0035112205795783526, 2.9209038912273934e-05, -3.950927572732792e-08, 1.778588065042579e-11, -34914022.810182706, 5.313683473131262]}, {"name": "polynomial2", "class": "NASAPolynomial", "Tmin_value": 665.6119573607981, "Tmin_units": "K", "Tmax_value": 3000.0, "Tmax_units": "K", "coeffs": [2.5909426252403573, 0.008335164579484087, -4.461429138664964e-06, 1.1994618608209155e-09, -1.2757979590043561e-13, -34913897.49207891, 11.231863346789027]}]

>  <H298_value>  (5) 
-69378.91233580558

>  <H298_units>  (5) 
kcal/mol

>  <S298_value>  (5) 
56.254805565389056

>  <S298_units>  (5) 
cal/(mol*K)

>  <Cp_T_value_list>  (5) 
[9.339929456908315, 10.418824356350346, 11.459970768776328, 12.374007707406347, 13.842140108996867, 14.976701287129353, 16.807365327729478, 17.825189417534663, 18.373860556614055]

>  <Cp_T_units>  (5) 
cal/(mol*K)

>  <T_list>  (5) 
[300.0, 400.0, 500.0, 600.0, 800.0, 1000.0, 1500.0, 2000.0, 2400.0]

>  <T_units>  (5) 
K

>  <yaml_path>  (5) 
/home/calvin/Dropbox/PersonalFolders/Calvin/ATLAS_Converged/rmg_rxn_2/output/Species/rmg_rxn_2_r1_sbr-N-sbrN/rmg_rxn_2_r1_sbr-N-sbrN.yml

>  <frequencies_cm1>  (5) 
[723.4575044179599, 1085.5811082828398, 1237.95951253364, 1573.04092820836, 3402.19980789676, 3509.68872911072]

>  <ZPE_kJmol>  (5) 
68.97626445458796

>  <E_elec_kJmol>  (5) 
-290360.63513992657

>  <E0_minus_Eelec_plus_ZPE_kJmol>  (5) 
0.0

>  <rxn>  (5) 
rmg_rxn_2

>  <species_type>  (5) 
r0

>  <species_folder>  (5) 
rmg_rxn_2_r1_sbr-N-sbrN

>  <frequencies_cm1_list>  (5) 
[723.4575044179599, 1085.5811082828398, 1237.95951253364, 1573.04092820836, 3402.19980789676, 3509.68872911072]

>  <E0_kJmol>  (5) 
-290292

>  <H298_kJmol>  (5) 
-290281

$$$$
