
     RDKit          3D

 18 17  0  0  0  0  0  0  0  0999 V2000
    2.2942    0.6258    0.9027 C   0  0  0  0  0  0  0  0  0  1  0  0
    1.7728    0.7643   -0.5214 C   0  0  0  0  0  0  0  0  0  2  0  0
    0.6581   -0.2079   -0.8462 C   0  0  0  0  0  0  0  0  0  3  0  0
   -0.4484    0.0607   -0.0173 O   0  0  0  0  0  0  0  0  0  4  0  0
   -1.5216   -0.8123   -0.2229 C   0  0  0  0  0  0  0  0  0  5  0  0
   -2.6555   -0.4164    0.6659 C   0  0  0  0  0  0  0  0  0  6  0  0
    2.6748   -0.3827    1.0830 H   0  0  0  0  0  0  0  0  0  7  0  0
    1.5025    0.8206    1.6260 H   0  0  0  0  0  0  0  0  0  8  0  0
    3.1070    1.3281    1.0926 H   0  0  0  0  0  0  0  0  0  9  0  0
    2.5817    0.5940   -1.2370 H   0  0  0  0  0  0  0  0  0 10  0  0
    1.4075    1.7802   -0.6913 H   0  0  0  0  0  0  0  0  0 11  0  0
    0.9993   -1.2429   -0.6886 H   0  0  0  0  0  0  0  0  0 12  0  0
    0.3644   -0.1135   -1.9010 H   0  0  0  0  0  0  0  0  0 13  0  0
   -1.8378   -0.8014   -1.2760 H   0  0  0  0  0  0  0  0  0 14  0  0
   -1.2233   -1.8495    0.0108 H   0  0  0  0  0  0  0  0  0 15  0  0
   -3.0173    0.5436    0.3040 H   0  0  0  0  0  0  0  0  0 16  0  0
   -2.3706   -0.2023    1.6936 H   0  0  0  0  0  0  0  0  0 17  0  0
   -3.5319   -1.0561    0.5863 H   0  0  0  0  0  0  0  0  0 18  0  0
  1  8  1  0
  1  7  1  0
  1  9  1  0
  1  2  1  0
  2 10  1  0
  2 11  1  0
  2  3  1  0
  3  4  1  0
  3 13  1  0
  3 12  1  0
  4  5  1  0
  5 14  1  0
  5  6  1  0
  5 15  1  0
  6 17  1  0
  6 18  1  0
  6 16  1  0
M  END
>  <rmg_smiles>  (1) 
CCCOCC

>  <rmg_adjacency_list>  (1) 
1  O u0 p2 c0 {3,S} {4,S}
2  C u0 p0 c0 {3,S} {5,S} {7,S} {8,S}
3  C u0 p0 c0 {1,S} {2,S} {9,S} {10,S}
4  C u0 p0 c0 {1,S} {6,S} {11,S} {12,S}
5  C u0 p0 c0 {2,S} {13,S} {14,S} {15,S}
6  C u0 p0 c0 {4,S} {16,S} {17,S} {18,S}
7  H u0 p0 c0 {2,S}
8  H u0 p0 c0 {2,S}
9  H u0 p0 c0 {3,S}
10 H u0 p0 c0 {3,S}
11 H u0 p0 c0 {4,S}
12 H u0 p0 c0 {4,S}
13 H u0 p0 c0 {5,S}
14 H u0 p0 c0 {5,S}
15 H u0 p0 c0 {5,S}
16 H u0 p0 c0 {6,S}
17 H u0 p0 c0 {6,S}
18 H u0 p0 c0 {6,S}


>  <multiplicity>  (1) 
1

>  <reaction>  (1) 
rmg_rxn_1152

>  <type>  (1) 
r1h

>  <role_mapnums>  (1) 
{"r1h_a": 6, "r1h_h": 16}

>  <role_mapidx>  (1) 
{"r1h_a": 5, "r1h_h": 15}

>  <ordered_mapped_smiles>  (1) 
[C:1]([C:2]([C:3]([O:4][C:5]([C:6]([H:16])([H:17])[H:18])([H:14])[H:15])([H:12])[H:13])([H:10])[H:11])([H:7])([H:8])[H:9]

>  <mol_properties>  (1) 
{"5": {"label": "donator", "atom_type": "Cs"}, "15": {"label": "d_hydrogen", "atom_type": "H0"}}

>  <level_of_theory>  (1) 
wb97xd/def2tzvp

>  <lot_method>  (1) 
wb97xd

>  <lot_basis>  (1) 
def2tzvp

>  <spin_multiplicity>  (1) 
1.0

>  <optical_isomers>  (1) 
2.0

>  <modes>  (1) 
IdealGasTranslation(mass=(88.0888, 'amu')),         NonlinearRotor(             inertia = ([58.9711, 322.806, 354.165

>  <frequency_value>  (1) 
unknown

>  <frequency_units>  (1) 
unknown

>  <frequency_list>  (1) 
unknown

>  <arkane_path>  (1) 
/home/calvin/Dropbox/PersonalFolders/Calvin/ATLAS_Converged/rmg_rxn_1152/output/Species/rmg_rxn_1152_r2_CCCOCC/arkane/output.py

>  <path_exists>  (1) 
True

>  <E0_value>  (1) 
-716327.6718123602

>  <E0_units>  (1) 
kJ/mol

>  <thermo_class>  (1) 
NASA

>  <Cp0_value>  (1) 
33.257888

>  <Cp0_units>  (1) 
J/(mol*K)

>  <CpInf_value>  (1) 
432.352544

>  <CpInf_units>  (1) 
J/(mol*K)

>  <Tmin_value>  (1) 
10.0

>  <Tmin_units>  (1) 
K

>  <Tmax_value>  (1) 
3000.0

>  <Tmax_units>  (1) 
K

>  <polynomials>  (1) 
[{"name": "polynomial1", "class": "NASAPolynomial", "Tmin_value": 10.0, "Tmin_units": "K", "Tmax_value": 1128.2117156298782, "Tmax_units": "K", "coeffs": [3.804267715822327, 0.0324484435394251, 3.13726610374143e-05, -4.5763142566312805e-08, 1.4963748269555625e-11, -86154324.12317792, 11.047926498109064]}, {"name": "polynomial2", "class": "NASAPolynomial", "Tmin_value": 1128.2117156298782, "Tmin_units": "K", "Tmax_value": 3000.0, "Tmax_units": "K", "coeffs": [5.025771470989986, 0.05146753648391503, -2.495845047700866e-05, 5.867605391842661e-09, -5.420126187305644e-13, -86156085.8028422, -1.5783723225617567]}]

>  <H298_value>  (1) 
-171200.93239262223

>  <H298_units>  (1) 
kcal/mol

>  <S298_value>  (1) 
86.26395115238546

>  <S298_units>  (1) 
cal/(mol*K)

>  <Cp_T_value_list>  (1) 
[30.300809036800477, 38.26863262811072, 45.8776353149455, 52.90332163550434, 64.66359602467148, 73.18082287752496, 85.7078029255419, 92.19780439577242, 95.2235242125213]

>  <Cp_T_units>  (1) 
cal/(mol*K)

>  <T_list>  (1) 
[300.0, 400.0, 500.0, 600.0, 800.0, 1000.0, 1500.0, 2000.0, 2400.0]

>  <T_units>  (1) 
K

>  <yaml_path>  (1) 
/home/calvin/Dropbox/PersonalFolders/Calvin/ATLAS_Converged/rmg_rxn_1152/output/Species/rmg_rxn_1152_r2_CCCOCC/rmg_rxn_1152_r2_CCCOCC.yml

>  <frequencies_cm1>  (1) 
[94.87426918112, 119.81515986335998, 172.05918417792, 211.846497122, 286.20221416695995, 290.91983308179994, 333.19986169704003, 440.2424288652, 493.92165311163996, 776.23715358748, 824.7592718585998, 886.52093782668, 893.21624851368, 930.3872400508399, 990.75490799896, 1062.6041754021198, 1098.5116416403998, 1122.9375084236399, 1145.32388056684, 1166.4741953524401, 1181.1626769519198, 1261.95962622704, 1287.27133411656, 1302.46797262972, 1358.0699527657598, 1373.28719223488, 1399.0589881408398, 1409.42126898872, 1428.73123170856, 1467.7631762674398, 1469.73400105428, 1481.5040138927598, 1487.5881628862799, 1495.2105165914797, 1497.6208284388, 1507.0491992831599, 2969.8338111936, 2979.79780689292, 2988.48454332272, 2992.7420742211198, 2993.9712645933996, 3016.5979812227997, 3020.3816901341197, 3038.3731916725196, 3059.19389116276, 3061.988754188, 3069.5767729666, 3077.01371806816]

>  <ZPE_kJmol>  (1) 
430.7554323107405

>  <E_elec_kJmol>  (1) 
-716758.4272446709

>  <E0_minus_Eelec_plus_ZPE_kJmol>  (1) 
0.0

>  <rxn>  (1) 
rmg_rxn_1152

>  <species_type>  (1) 
r1

>  <species_folder>  (1) 
rmg_rxn_1152_r2_CCCOCC

>  <frequencies_cm1_list>  (1) 
[94.87426918112, 119.81515986335998, 172.05918417792, 211.846497122, 286.20221416695995, 290.91983308179994, 333.19986169704003, 440.2424288652, 493.92165311163996, 776.23715358748, 824.7592718585998, 886.52093782668, 893.21624851368, 930.3872400508399, 990.75490799896, 1062.6041754021198, 1098.5116416403998, 1122.9375084236399, 1145.32388056684, 1166.4741953524401, 1181.1626769519198, 1261.95962622704, 1287.27133411656, 1302.46797262972, 1358.0699527657598, 1373.28719223488, 1399.0589881408398, 1409.42126898872, 1428.73123170856, 1467.7631762674398, 1469.73400105428, 1481.5040138927598, 1487.5881628862799, 1495.2105165914797, 1497.6208284388, 1507.0491992831599, 2969.8338111936, 2979.79780689292, 2988.48454332272, 2992.7420742211198, 2993.9712645933996, 3016.5979812227997, 3020.3816901341197, 3038.3731916725196, 3059.19389116276, 3061.988754188, 3069.5767729666, 3077.01371806816]

>  <E0_kJmol>  (1) 
-716328

>  <H298_kJmol>  (1) 
-716305

$$$$

     RDKit          3D

  2  1  0  0  0  0  0  0  0  0999 V2000
   -0.0246    0.0618   -0.0292 O   0  0  0  0  0  1  0  0  0  1  0  0
    0.3008   -0.7545    0.3572 H   0  0  0  0  0  0  0  0  0  2  0  0
  1  2  1  0
M  RAD  1   1   2
M  END
>  <rmg_smiles>  (2) 
[OH]

>  <rmg_adjacency_list>  (2) 
multiplicity 2
1 O u1 p2 c0 {2,S}
2 H u0 p0 c0 {1,S}


>  <multiplicity>  (2) 
2

>  <reaction>  (2) 
rmg_rxn_1152

>  <type>  (2) 
r2h

>  <role_mapnums>  (2) 
{"r2h_a": 1, "r2h_h": 2}

>  <role_mapidx>  (2) 
{"r2h_a": 0, "r2h_h": 1}

>  <ordered_mapped_smiles>  (2) 
[O:1][H:2]

>  <mol_properties>  (2) 
{"0": {"label": "acceptor", "atom_type": "O2s"}, "1": {"label": "a_hydrogen", "atom_type": "H0"}}

>  <level_of_theory>  (2) 
wb97xd/def2tzvp

>  <lot_method>  (2) 
wb97xd

>  <lot_basis>  (2) 
def2tzvp

>  <spin_multiplicity>  (2) 
2.0

>  <optical_isomers>  (2) 
1.0

>  <modes>  (2) 
IdealGasTranslation(mass=(17.0027, 'amu')),         LinearRotor(inertia=(0.893962, 'amu*angstrom^2'), symmetry=1),         HarmonicOscillator(frequencies=([3724.63

>  <frequency_value>  (2) 
unknown

>  <frequency_units>  (2) 
unknown

>  <frequency_list>  (2) 
unknown

>  <arkane_path>  (2) 
/home/calvin/Dropbox/PersonalFolders/Calvin/ATLAS_Converged/rmg_rxn_1152/output/Species/rmg_rxn_1152_p1_sbr-OH-sbr/arkane/output.py

>  <path_exists>  (2) 
True

>  <E0_value>  (2) 
-198836.11500662245

>  <E0_units>  (2) 
kJ/mol

>  <thermo_class>  (2) 
NASA

>  <Cp0_value>  (2) 
29.100652

>  <Cp0_units>  (2) 
J/(mol*K)

>  <CpInf_value>  (2) 
37.415124

>  <CpInf_units>  (2) 
J/(mol*K)

>  <Tmin_value>  (2) 
10.0

>  <Tmin_units>  (2) 
K

>  <Tmax_value>  (2) 
3000.0

>  <Tmax_units>  (2) 
K

>  <polynomials>  (2) 
[{"name": "polynomial1", "class": "NASAPolynomial", "Tmin_value": 10.0, "Tmin_units": "K", "Tmax_value": 985.4633103339054, "Tmax_units": "K", "coeffs": [3.496867247333508, 0.00018342449890259614, -9.934008380455364e-07, 1.5607090885398485e-09, -6.057976047375529e-13, -23914460.713281557, 1.4723763541989374]}, {"name": "polynomial2", "class": "NASAPolynomial", "Tmin_value": 985.4633103339054, "Tmin_units": "K", "Tmax_value": 3000.0, "Tmax_units": "K", "coeffs": [3.453605826539838, -0.000298394996284096, 7.406626419620715e-07, -2.893423009710026e-10, 3.527332886378172e-14, -23914420.264604878, 1.842419488011591]}]

>  <H298_value>  (2) 
-47520.896675510776

>  <H298_units>  (2) 
kcal/mol

>  <S298_value>  (2) 
42.56095640204575

>  <S298_units>  (2) 
cal/(mol*K)

>  <Cp_T_value_list>  (2) 
[6.954667739233619, 6.946617902371048, 6.950166451559511, 6.9709205689453935, 7.072028097634187, 7.2370175778306685, 7.699521485448446, 8.086144468717986, 8.29478093025019]

>  <Cp_T_units>  (2) 
cal/(mol*K)

>  <T_list>  (2) 
[300.0, 400.0, 500.0, 600.0, 800.0, 1000.0, 1500.0, 2000.0, 2400.0]

>  <T_units>  (2) 
K

>  <yaml_path>  (2) 
/home/calvin/Dropbox/PersonalFolders/Calvin/ATLAS_Converged/rmg_rxn_1152/output/Species/rmg_rxn_1152_p1_sbr-OH-sbr/rmg_rxn_1152_p1_sbr-OH-sbr.yml

>  <frequencies_cm1>  (2) 
[3724.62536962672]

>  <ZPE_kJmol>  (2) 
22.278213462109388

>  <E_elec_kJmol>  (2) 
-198858.39322008457

>  <E0_minus_Eelec_plus_ZPE_kJmol>  (2) 
0.0

>  <rxn>  (2) 
rmg_rxn_1152

>  <species_type>  (2) 
p0

>  <species_folder>  (2) 
rmg_rxn_1152_p1_sbr-OH-sbr

>  <frequencies_cm1_list>  (2) 
[3724.62536962672]

>  <E0_kJmol>  (2) 
-198836

>  <H298_kJmol>  (2) 
-198827

$$$$

     RDKit          3D

 19 17  0  0  0  0  0  0  0  0999 V2000
   -3.0204    1.5193   -0.2240 O   0  0  0  0  0  1  0  0  0  1  0  0
    2.7716    0.3868    0.9332 C   0  0  0  0  0  0  0  0  0  2  0  0
    2.2502    0.5253   -0.4909 C   0  0  0  0  0  0  0  0  0  3  0  0
    1.1355   -0.4470   -0.8157 C   0  0  0  0  0  0  0  0  0  4  0  0
    0.0290   -0.1784    0.0132 O   0  0  0  0  0  0  0  0  0  5  0  0
   -1.0442   -1.0513   -0.1924 C   0  0  0  0  0  0  0  0  0  6  0  0
   -2.1781   -0.6555    0.6964 C   0  0  0  0  0  3  0  0  0  7  0  0
    3.1522   -0.6217    1.1135 H   0  0  0  0  0  0  0  0  0  8  0  0
    1.9799    0.5815    1.6565 H   0  0  0  0  0  0  0  0  0  9  0  0
    3.5844    1.0891    1.1231 H   0  0  0  0  0  0  0  0  0 10  0  0
    3.0591    0.3549   -1.2064 H   0  0  0  0  0  0  0  0  0 11  0  0
    1.8849    1.5411   -0.6608 H   0  0  0  0  0  0  0  0  0 12  0  0
    1.4768   -1.4820   -0.6580 H   0  0  0  0  0  0  0  0  0 13  0  0
    0.8418   -0.3525   -1.8705 H   0  0  0  0  0  0  0  0  0 14  0  0
   -1.3604   -1.0404   -1.2455 H   0  0  0  0  0  0  0  0  0 15  0  0
   -0.7459   -2.0885    0.0413 H   0  0  0  0  0  0  0  0  0 16  0  0
   -2.6049    0.4772    0.2694 H   0  0  0  0  0  0  0  0  0 17  0  0
   -1.8932   -0.4413    1.7241 H   0  0  0  0  0  0  0  0  0 18  0  0
   -3.0545   -1.2951    0.6168 H   0  0  0  0  0  0  0  0  0 19  0  0
  1 17  1  0
  2 10  1  0
  2  9  1  0
  2  8  1  0
  2  3  1  0
  3 11  1  0
  3  4  1  0
  3 12  1  0
  4 14  1  0
  4 13  1  0
  4  5  1  0
  5  6  1  0
  6 15  1  0
  6  7  1  0
  6 16  1  0
  7 19  1  0
  7 18  1  0
M  RAD  2   1   2   7   2
M  END
>  <rmg_smiles>  (3) 
[CH2]COCCC.[OH]

>  <rmg_adjacency_list>  (3) 
multiplicity 3
1  O u0 p2 c0 {4,S} {6,S}
2  O u1 p2 c0 {19,S}
3  C u0 p0 c0 {4,S} {5,S} {8,S} {9,S}
4  C u0 p0 c0 {1,S} {3,S} {10,S} {11,S}
5  C u0 p0 c0 {3,S} {12,S} {13,S} {14,S}
6  C u0 p0 c0 {1,S} {7,S} {15,S} {16,S}
7  C u1 p0 c0 {6,S} {17,S} {18,S}
8  H u0 p0 c0 {3,S}
9  H u0 p0 c0 {3,S}
10 H u0 p0 c0 {4,S}
11 H u0 p0 c0 {4,S}
12 H u0 p0 c0 {5,S}
13 H u0 p0 c0 {5,S}
14 H u0 p0 c0 {5,S}
15 H u0 p0 c0 {6,S}
16 H u0 p0 c0 {6,S}
17 H u0 p0 c0 {7,S}
18 H u0 p0 c0 {7,S}
19 H u0 p0 c0 {2,S}


>  <multiplicity>  (3) 
3

>  <reaction>  (3) 
rmg_rxn_1152

>  <type>  (3) 
ts

>  <role_mapnums>  (3) 
{"*2": 17, "*1": 7, "*3": 1, "*0": null, "*4": 6}

>  <role_mapidx>  (3) 
{"*2": 16, "*1": 6, "*3": 0, "*4": 5}

>  <ordered_mapped_smiles>  (3) 
[O:1][H:17].[C:2]([C:3]([C:4]([O:5][C:6]([C:7]([H:18])[H:19])([H:15])[H:16])([H:13])[H:14])([H:11])[H:12])([H:8])([H:9])[H:10]

>  <mol_properties>  (3) 
{"0": {"label": "*3", "atom_type": "O2s"}, "5": {"label": "*4", "atom_type": "Cs"}, "6": {"label": "*1", "atom_type": "Cs"}, "16": {"label": "*2", "atom_type": "H0"}}

>  <level_of_theory>  (3) 
wb97xd/def2tzvp

>  <lot_method>  (3) 
wb97xd

>  <lot_basis>  (3) 
def2tzvp

>  <spin_multiplicity>  (3) 
3.0

>  <optical_isomers>  (3) 
2.0

>  <modes>  (3) 
IdealGasTranslation(mass=(104.084, 'amu')),         NonlinearRotor(             inertia = ([121.885, 493.915, 526.799

>  <frequency_value>  (3) 
-1514.58

>  <frequency_units>  (3) 
cm^-1

>  <frequency_list>  (3) 
unknown

>  <arkane_path>  (3) 
/home/calvin/Dropbox/PersonalFolders/Calvin/ATLAS_Converged/rmg_rxn_1152/output/rxns/TS0/arkane/output.py

>  <path_exists>  (3) 
True

>  <E0_value>  (3) 
-913409.0

>  <E0_units>  (3) 
kJ/mol

>  <thermo_class>  (3) 
unknown

>  <Cp0_value>  (3) 
unknown

>  <Cp0_units>  (3) 
unknown

>  <CpInf_value>  (3) 
unknown

>  <CpInf_units>  (3) 
unknown

>  <Tmin_value>  (3) 
unknown

>  <Tmin_units>  (3) 
unknown

>  <Tmax_value>  (3) 
unknown

>  <Tmax_units>  (3) 
unknown

>  <polynomials>  (3) 
unknown

>  <H298_value>  (3) 
unknown

>  <H298_units>  (3) 
unknown

>  <S298_value>  (3) 
unknown

>  <S298_units>  (3) 
unknown

>  <Cp_T_value_list>  (3) 
unknown

>  <Cp_T_units>  (3) 
unknown

>  <T_list>  (3) 
unknown

>  <T_units>  (3) 
unknown

>  <yaml_path>  (3) 
unknown

>  <frequencies_cm1>  (3) 
unknown

>  <ZPE_kJmol>  (3) 
unknown

>  <E_elec_kJmol>  (3) 
unknown

>  <E0_minus_Eelec_plus_ZPE_kJmol>  (3) 
unknown

>  <rxn>  (3) 
unknown

>  <species_type>  (3) 
unknown

>  <species_folder>  (3) 
unknown

>  <frequencies_cm1_list>  (3) 
[]

>  <ts_imag_freq_cm1>  (3) 
-1532.9734

>  <ts_freq_out_path>  (3) 
/home/calvin/Dropbox/PersonalFolders/Calvin/ATLAS_Converged/rmg_rxn_1152/output/rxns/TS0/geometry/freq.out

>  <E0_kJmol>  (3) 
-913409

>  <H298_kJmol>  (3) 
unknown

$$$$

     RDKit          3D

 17 16  0  0  0  0  0  0  0  0999 V2000
   -2.7385    0.6719   -0.1444 C   0  0  0  0  0  3  0  0  0  1  0  0
   -1.7596   -0.3661    0.2528 C   0  0  0  0  0  0  0  0  0  2  0  0
   -0.4835    0.0531   -0.2111 O   0  0  0  0  0  0  0  0  0  3  0  0
    0.5353   -0.8839    0.1305 C   0  0  0  0  0  0  0  0  0  4  0  0
    1.8778   -0.3813   -0.3894 C   0  0  0  0  0  0  0  0  0  5  0  0
    2.3014    0.9242    0.2687 C   0  0  0  0  0  0  0  0  0  6  0  0
   -3.7376    0.6637    0.2707 H   0  0  0  0  0  0  0  0  0  7  0  0
   -2.5021    1.3672   -0.9408 H   0  0  0  0  0  0  0  0  0  8  0  0
   -2.0292   -1.3238   -0.2040 H   0  0  0  0  0  0  0  0  0  9  0  0
   -1.7474   -0.4667    1.3430 H   0  0  0  0  0  0  0  0  0 10  0  0
    0.5732   -1.0120    1.2185 H   0  0  0  0  0  0  0  0  0 11  0  0
    0.3066   -1.8514   -0.3308 H   0  0  0  0  0  0  0  0  0 12  0  0
    1.8153   -0.2200   -1.4719 H   0  0  0  0  0  0  0  0  0 13  0  0
    2.6451   -1.1421   -0.2086 H   0  0  0  0  0  0  0  0  0 14  0  0
    2.3792    0.8078    1.3544 H   0  0  0  0  0  0  0  0  0 15  0  0
    1.5870    1.7265    0.0590 H   0  0  0  0  0  0  0  0  0 16  0  0
    3.2795    1.2373   -0.1099 H   0  0  0  0  0  0  0  0  0 17  0  0
  1  8  1  0
  1  7  1  0
  1  2  1  0
  2 10  1  0
  2  9  1  0
  2  3  1  0
  3  4  1  0
  4  5  1  0
  4 12  1  0
  4 11  1  0
  5 14  1  0
  5  6  1  0
  5 13  1  0
  6 17  1  0
  6 15  1  0
  6 16  1  0
M  RAD  1   1   2
M  END
>  <rmg_smiles>  (4) 
[CH2]COCCC

>  <rmg_adjacency_list>  (4) 
multiplicity 2
1  O u0 p2 c0 {3,S} {4,S}
2  C u0 p0 c0 {3,S} {5,S} {7,S} {8,S}
3  C u0 p0 c0 {1,S} {2,S} {9,S} {10,S}
4  C u0 p0 c0 {1,S} {6,S} {11,S} {12,S}
5  C u0 p0 c0 {2,S} {13,S} {14,S} {15,S}
6  C u1 p0 c0 {4,S} {16,S} {17,S}
7  H u0 p0 c0 {2,S}
8  H u0 p0 c0 {2,S}
9  H u0 p0 c0 {3,S}
10 H u0 p0 c0 {3,S}
11 H u0 p0 c0 {4,S}
12 H u0 p0 c0 {4,S}
13 H u0 p0 c0 {5,S}
14 H u0 p0 c0 {5,S}
15 H u0 p0 c0 {5,S}
16 H u0 p0 c0 {6,S}
17 H u0 p0 c0 {6,S}


>  <multiplicity>  (4) 
2

>  <reaction>  (4) 
rmg_rxn_1152

>  <type>  (4) 
r1

>  <role_mapnums>  (4) 
{}

>  <role_mapidx>  (4) 
{}

>  <ordered_mapped_smiles>  (4) 
[C:1]([C:2]([O:3][C:4]([C:5]([C:6]([H:15])([H:16])[H:17])([H:13])[H:14])([H:11])[H:12])([H:9])[H:10])([H:7])[H:8]

>  <level_of_theory>  (4) 
wb97xd/def2tzvp

>  <lot_method>  (4) 
wb97xd

>  <lot_basis>  (4) 
def2tzvp

>  <spin_multiplicity>  (4) 
2.0

>  <optical_isomers>  (4) 
2.0

>  <modes>  (4) 
IdealGasTranslation(mass=(87.081, 'amu')),         NonlinearRotor(             inertia = ([56.9298, 310.756, 341.433

>  <frequency_value>  (4) 
unknown

>  <frequency_units>  (4) 
unknown

>  <frequency_list>  (4) 
unknown

>  <arkane_path>  (4) 
/home/calvin/Dropbox/PersonalFolders/Calvin/ATLAS_Converged/rmg_rxn_1152/output/Species/rmg_rxn_1152_p2_sbr-CH2-sbrCOCCC/arkane/output.py

>  <path_exists>  (4) 
True

>  <E0_value>  (4) 
-714591.5478342165

>  <E0_units>  (4) 
kJ/mol

>  <thermo_class>  (4) 
NASA

>  <Cp0_value>  (4) 
33.257888

>  <Cp0_units>  (4) 
J/(mol*K)

>  <CpInf_value>  (4) 
407.409128

>  <CpInf_units>  (4) 
J/(mol*K)

>  <Tmin_value>  (4) 
10.0

>  <Tmin_units>  (4) 
K

>  <Tmax_value>  (4) 
3000.0

>  <Tmax_units>  (4) 
K

>  <polynomials>  (4) 
[{"name": "polynomial1", "class": "NASAPolynomial", "Tmin_value": 10.0, "Tmin_units": "K", "Tmax_value": 434.5472784902766, "Tmax_units": "K", "coeffs": [3.508010119182234, 0.05030966407090363, -7.977009840216545e-05, 2.1335361056771804e-07, -1.970261914814363e-10, -85945509.77056076, 12.294253178619853]}, {"name": "polynomial2", "class": "NASAPolynomial", "Tmin_value": 434.5472784902766, "Tmin_units": "K", "Tmax_value": 3000.0, "Tmax_units": "K", "coeffs": [-0.803336869425024, 0.06400218986823884, -3.730928344409115e-05, 1.0557991649827807e-08, -1.161775160575061e-12, -85944889.65581837, 32.324550311044376]}]

>  <H298_value>  (4) 
-170785.7056943678

>  <H298_units>  (4) 
kcal/mol

>  <S298_value>  (4) 
89.86869653701874

>  <S298_units>  (4) 
cal/(mol*K)

>  <Cp_T_value_list>  (4) 
[30.973069144130072, 38.70963120667596, 45.93939574834984, 52.25676482951996, 62.498245068137216, 70.12014341793125, 81.48698290062411, 87.1180196100714, 90.03875900235037]

>  <Cp_T_units>  (4) 
cal/(mol*K)

>  <T_list>  (4) 
[300.0, 400.0, 500.0, 600.0, 800.0, 1000.0, 1500.0, 2000.0, 2400.0]

>  <T_units>  (4) 
K

>  <yaml_path>  (4) 
/home/calvin/Dropbox/PersonalFolders/Calvin/ATLAS_Converged/rmg_rxn_1152/output/Species/rmg_rxn_1152_p2_sbr-CH2-sbrCOCCC/rmg_rxn_1152_p2_sbr-CH2-sbrCOCCC.yml

>  <frequencies_cm1>  (4) 
[75.49563660808, 101.06828993975999, 164.93125341576, 176.68066529828002, 211.22160145787998, 287.66488204012, 332.4582272824799, 440.78492070548, 468.69921603127995, 495.09590760136, 774.36933358044, 860.6804720675199, 889.06172239508, 923.7468652463999, 955.2319929385999, 1003.0948806189999, 1072.3003586739599, 1097.57773163688, 1129.93496646472, 1141.13501952164, 1169.9282889684, 1204.07093997944, 1264.68581939908, 1302.14522431968, 1344.59692756792, 1370.9867521526799, 1401.88818609268, 1414.02214915312, 1439.62227042608, 1455.6635481336002, 1468.06532362152, 1483.6808482391998, 1495.7530084317598, 1498.3075269708, 2967.3479625077603, 2974.7299717267597, 2988.2373318512005, 2993.84765885764, 3012.306115397799, 3018.3147275527995, 3038.35945770188, 3059.0634184416795, 3069.4943691427598, 3121.9444030169198, 3231.30114423792]

>  <ZPE_kJmol>  (4) 
391.1167601225786

>  <E_elec_kJmol>  (4) 
-714982.6645943391

>  <E0_minus_Eelec_plus_ZPE_kJmol>  (4) 
0.0

>  <rxn>  (4) 
rmg_rxn_1152

>  <species_type>  (4) 
p1

>  <species_folder>  (4) 
rmg_rxn_1152_p2_sbr-CH2-sbrCOCCC

>  <frequencies_cm1_list>  (4) 
[75.49563660808, 101.06828993975999, 164.93125341576, 176.68066529828002, 211.22160145787998, 287.66488204012, 332.4582272824799, 440.78492070548, 468.69921603127995, 495.09590760136, 774.36933358044, 860.6804720675199, 889.06172239508, 923.7468652463999, 955.2319929385999, 1003.0948806189999, 1072.3003586739599, 1097.57773163688, 1129.93496646472, 1141.13501952164, 1169.9282889684, 1204.07093997944, 1264.68581939908, 1302.14522431968, 1344.59692756792, 1370.9867521526799, 1401.88818609268, 1414.02214915312, 1439.62227042608, 1455.6635481336002, 1468.06532362152, 1483.6808482391998, 1495.7530084317598, 1498.3075269708, 2967.3479625077603, 2974.7299717267597, 2988.2373318512005, 2993.84765885764, 3012.306115397799, 3018.3147275527995, 3038.35945770188, 3059.0634184416795, 3069.4943691427598, 3121.9444030169198, 3231.30114423792]

>  <E0_kJmol>  (4) 
-714592

>  <H298_kJmol>  (4) 
-714567

$$$$

     RDKit          3D

  1  0  0  0  0  0  0  0  0  0999 V2000
    0.0000    0.0000    0.0000 O   0  0  0  0  0 15  0  0  0  1  0  0
M  END
>  <rmg_smiles>  (5) 
[O]

>  <rmg_adjacency_list>  (5) 
multiplicity 3
1 O u2 p3 c0


>  <multiplicity>  (5) 
3

>  <reaction>  (5) 
rmg_rxn_1152

>  <type>  (5) 
r2

>  <role_mapnums>  (5) 
{}

>  <role_mapidx>  (5) 
{}

>  <ordered_mapped_smiles>  (5) 
[O:1]

>  <level_of_theory>  (5) 
wb97xd/def2tzvp

>  <lot_method>  (5) 
wb97xd

>  <lot_basis>  (5) 
def2tzvp

>  <spin_multiplicity>  (5) 
3.0

>  <optical_isomers>  (5) 
1.0

>  <modes>  (5) 
IdealGasTranslation(mass=(15.9994, 'amu')),

>  <frequency_value>  (5) 
unknown

>  <frequency_units>  (5) 
unknown

>  <frequency_list>  (5) 
unknown

>  <arkane_path>  (5) 
/home/calvin/Dropbox/PersonalFolders/Calvin/ATLAS_Converged/rmg_rxn_1152/output/Species/rmg_rxn_1152_r1_sbr-O-sbr/arkane/output.py

>  <path_exists>  (5) 
True

>  <E0_value>  (5) 
-197098.59938458708

>  <E0_units>  (5) 
kJ/mol

>  <thermo_class>  (5) 
NASA

>  <Cp0_value>  (5) 
20.78618

>  <Cp0_units>  (5) 
J/(mol*K)

>  <CpInf_value>  (5) 
20.78618

>  <CpInf_units>  (5) 
J/(mol*K)

>  <Tmin_value>  (5) 
10.0

>  <Tmin_units>  (5) 
K

>  <Tmax_value>  (5) 
3000.0

>  <Tmax_units>  (5) 
K

>  <polynomials>  (5) 
[{"name": "polynomial1", "class": "NASAPolynomial", "Tmin_value": 10.0, "Tmin_units": "K", "Tmax_value": 1853.5663026740365, "Tmax_units": "K", "coeffs": [2.500000000000126, -2.814048095438137e-15, 9.047587538332909e-18, -8.591944598242694e-21, 2.4182720553650057e-24, -23705485.977386568, 4.091313385047355]}, {"name": "polynomial2", "class": "NASAPolynomial", "Tmin_value": 1853.5663026740365, "Tmin_units": "K", "Tmax_value": 3000.0, "Tmax_units": "K", "coeffs": [2.500000000696122, -1.3129776766613561e-12, 9.140875080033424e-16, -2.782806647322001e-19, 3.1263265306749967e-23, -23705485.97738686, 4.091313381171202]}]

>  <H298_value>  (5) 
-47106.215373741215

>  <H298_units>  (5) 
kcal/mol

>  <S298_value>  (5) 
36.4335375885593

>  <S298_units>  (5) 
cal/(mol*K)

>  <Cp_T_value_list>  (5) 
[4.968016252389826, 4.968016252389978, 4.968016252390173, 4.96801625239036, 4.968016252390567, 4.968016252390427, 4.968016252389077, 4.968016252391019, 4.968016252390868]

>  <Cp_T_units>  (5) 
cal/(mol*K)

>  <T_list>  (5) 
[300.0, 400.0, 500.0, 600.0, 800.0, 1000.0, 1500.0, 2000.0, 2400.0]

>  <T_units>  (5) 
K

>  <yaml_path>  (5) 
/home/calvin/Dropbox/PersonalFolders/Calvin/ATLAS_Converged/rmg_rxn_1152/output/Species/rmg_rxn_1152_r1_sbr-O-sbr/rmg_rxn_1152_r1_sbr-O-sbr.yml

>  <frequencies_cm1>  (5) 
[]

>  <ZPE_kJmol>  (5) 
unknown

>  <E_elec_kJmol>  (5) 
unknown

>  <E0_minus_Eelec_plus_ZPE_kJmol>  (5) 
unknown

>  <rxn>  (5) 
rmg_rxn_1152

>  <species_type>  (5) 
r0

>  <species_folder>  (5) 
rmg_rxn_1152_r1_sbr-O-sbr

>  <frequencies_cm1_list>  (5) 
[]

>  <E0_kJmol>  (5) 
-197099

>  <H298_kJmol>  (5) 
-197092

$$$$
