
     RDKit          3D

 10  9  0  0  0  0  0  0  0  0999 V2000
    0.3813   -1.5870   -1.1159 C   0  0  0  0  0  0  0  0  0  1  0  0
    0.1984   -0.4748   -0.4294 C   0  0  0  0  0  2  0  0  0  2  0  0
    0.1209    0.6454    0.1608 C   0  0  0  0  0  0  0  0  0  3  0  0
   -0.6480    1.2764    1.2621 C   0  0  0  0  0  0  0  0  0  4  0  0
   -0.1732   -1.7806   -2.0260 H   0  0  0  0  0  0  0  0  0  5  0  0
    1.0802   -2.3416   -0.7754 H   0  0  0  0  0  0  0  0  0  6  0  0
    0.8491    1.3190   -0.2912 H   0  0  0  0  0  0  0  0  0  7  0  0
    0.0234    1.6026    2.0584 H   0  0  0  0  0  0  0  0  0  8  0  0
   -1.3694    0.5735    1.6815 H   0  0  0  0  0  0  0  0  0  9  0  0
   -1.1851    2.1554    0.9027 H   0  0  0  0  0  0  0  0  0 10  0  0
  1  5  1  0
  1  6  1  0
  1  2  1  0
  2  3  1  0
  3  4  1  0
  3  7  1  0
  4  8  1  0
  4  9  1  0
  4 10  1  0
M  RAD  1   2   3
M  END
>  <rmg_smiles>  (1) 
[CH2][C][CH]C

>  <rmg_adjacency_list>  (1) 
1  C u0 p0 c0 {2,S} {5,S} {6,S} {7,S}
2  C u0 p0 c0 {1,S} {4,S} {8,S}
3  C u0 p0 c0 {4,S} {9,S} {10,S}
4  C u0 p1 c0 {2,S} {3,S}
5  H u0 p0 c0 {1,S}
6  H u0 p0 c0 {1,S}
7  H u0 p0 c0 {1,S}
8  H u0 p0 c0 {2,S}
9  H u0 p0 c0 {3,S}
10 H u0 p0 c0 {3,S}


>  <multiplicity>  (1) 
1

>  <reaction>  (1) 
rmg_rxn_14131

>  <type>  (1) 
r1h

>  <role_mapnums>  (1) 
{"r1h_a": 3, "r1h_h": 7}

>  <role_mapidx>  (1) 
{"r1h_a": 2, "r1h_h": 6}

>  <ordered_mapped_smiles>  (1) 
[CH:1]([C:2][CH:3]([C:4]([H:8])([H:9])[H:10])[H:7])([H:5])[H:6]

>  <mol_properties>  (1) 
{"2": {"label": "donator", "atom_type": "Cs"}, "6": {"label": "d_hydrogen", "atom_type": "H0"}}

>  <level_of_theory>  (1) 
wb97xd/def2tzvp

>  <lot_method>  (1) 
wb97xd

>  <lot_basis>  (1) 
def2tzvp

>  <spin_multiplicity>  (1) 
1.0

>  <optical_isomers>  (1) 
1.0

>  <modes>  (1) 
IdealGasTranslation(mass=(54.047, 'amu')),         NonlinearRotor(             inertia = ([14.6121, 119.467, 127.49

>  <frequency_value>  (1) 
unknown

>  <frequency_units>  (1) 
unknown

>  <frequency_list>  (1) 
unknown

>  <arkane_path>  (1) 
/home/calvin/Dropbox/PersonalFolders/Calvin/ZEUS_Converged/rmg_rxn_14131/output/Species/rmg_rxn_14131_r2_C=C=CC/arkane/output.py

>  <path_exists>  (1) 
True

>  <E0_value>  (1) 
-409296.6502421279

>  <E0_units>  (1) 
kJ/mol

>  <thermo_class>  (1) 
NASA

>  <Cp0_value>  (1) 
33.257888

>  <Cp0_units>  (1) 
J/(mol*K)

>  <CpInf_value>  (1) 
232.805216

>  <CpInf_units>  (1) 
J/(mol*K)

>  <Tmin_value>  (1) 
10.0

>  <Tmin_units>  (1) 
K

>  <Tmax_value>  (1) 
3000.0

>  <Tmax_units>  (1) 
K

>  <polynomials>  (1) 
[{"name": "polynomial1", "class": "NASAPolynomial", "Tmin_value": 10.0, "Tmin_units": "K", "Tmax_value": 452.8802664009696, "Tmax_units": "K", "coeffs": [3.9021943352433452, 0.007937521032632688, 6.664442489196733e-05, -1.2131953588307993e-07, 6.938885885775227e-11, -49227014.555544384, 8.255511443201872]}, {"name": "polynomial2", "class": "NASAPolynomial", "Tmin_value": 452.8802664009696, "Tmin_units": "K", "Tmax_value": 3000.0, "Tmax_units": "K", "coeffs": [0.958037882717614, 0.033941191741253485, -1.948265019694705e-05, 5.463813645242153e-09, -5.979209978345261e-13, -49226747.88374059, 20.12723627389473]}]

>  <H298_value>  (1) 
-97820.47439749332

>  <H298_units>  (1) 
kcal/mol

>  <S298_value>  (1) 
69.30943774444917

>  <S298_units>  (1) 
cal/(mol*K)

>  <Cp_T_value_list>  (1) 
[19.013335795722274, 23.35407848830737, 27.231838984706652, 30.626214617830076, 36.15654523435027, 40.30546036176962, 46.594544625367064, 49.786664420046236, 51.450781523093035]

>  <Cp_T_units>  (1) 
cal/(mol*K)

>  <T_list>  (1) 
[300.0, 400.0, 500.0, 600.0, 800.0, 1000.0, 1500.0, 2000.0, 2400.0]

>  <T_units>  (1) 
K

>  <yaml_path>  (1) 
/home/calvin/Dropbox/PersonalFolders/Calvin/ZEUS_Converged/rmg_rxn_14131/output/Species/rmg_rxn_14131_r2_C=C=CC/rmg_rxn_14131_r2_C=C=CC.yml

>  <frequencies_cm1>  (1) 
[164.84884959192, 210.28769145436, 340.98015606459995, 540.2944049775999, 574.7186023867599, 878.6239047086799, 884.0282221555199, 895.09093550604, 1017.79709618912, 1055.91573170044, 1088.91159616304, 1146.5530709391198, 1353.77808694076, 1399.01778622892, 1463.354571692, 1470.3726306890399, 1494.8053644576, 2061.4346581373993, 3012.63573069316, 3072.0282867258397, 3106.42501619372, 3110.62074422424, 3124.134971334, 3189.66661224276]

>  <ZPE_kJmol>  (1) 
219.25357474583132

>  <E_elec_kJmol>  (1) 
-409515.9038168737

>  <E0_minus_Eelec_plus_ZPE_kJmol>  (1) 
0.0

>  <rxn>  (1) 
rmg_rxn_14131

>  <species_type>  (1) 
r1

>  <species_folder>  (1) 
rmg_rxn_14131_r2_C=C=CC

>  <frequencies_cm1_list>  (1) 
[164.84884959192, 210.28769145436, 340.98015606459995, 540.2944049775999, 574.7186023867599, 878.6239047086799, 884.0282221555199, 895.09093550604, 1017.79709618912, 1055.91573170044, 1088.91159616304, 1146.5530709391198, 1353.77808694076, 1399.01778622892, 1463.354571692, 1470.3726306890399, 1494.8053644576, 2061.4346581373993, 3012.63573069316, 3072.0282867258397, 3106.42501619372, 3110.62074422424, 3124.134971334, 3189.66661224276]

>  <E0_kJmol>  (1) 
-409297

>  <H298_kJmol>  (1) 
-409281

$$$$

     RDKit          3D

 11 10  0  0  0  0  0  0  0  0999 V2000
    1.5521   -0.9467    1.5971 C   0  0  0  0  0  0  0  0  0  1  0  0
    0.5128   -0.1956    0.8295 C   0  0  0  0  0  0  0  0  0  2  0  0
    0.2882   -0.3977   -0.4591 C   0  0  0  0  0  0  0  0  0  3  0  0
   -0.6416    0.2192   -1.2488 O   0  0  0  0  0  0  0  0  0  4  0  0
   -1.3738    1.1563   -0.5823 O   0  0  0  0  0  0  0  0  0  5  0  0
    2.2869   -0.2646    2.0320 H   0  0  0  0  0  0  0  0  0  6  0  0
    1.1026   -1.5015    2.4246 H   0  0  0  0  0  0  0  0  0  7  0  0
    2.0855   -1.6582    0.9650 H   0  0  0  0  0  0  0  0  0  8  0  0
   -0.0739    0.5484    1.3520 H   0  0  0  0  0  0  0  0  0  9  0  0
    0.8285   -1.1150   -1.0653 H   0  0  0  0  0  0  0  0  0 10  0  0
   -2.0747    0.6367   -0.1818 H   0  0  0  0  0  0  0  0  0 11  0  0
  1  8  1  0
  1  7  1  0
  1  6  1  0
  1  2  1  0
  2  9  1  0
  2  3  1  0
  3  4  1  0
  3 10  1  0
  4  5  1  0
  5 11  1  0
M  END
>  <rmg_smiles>  (2) 
C[CH][CH]OO

>  <rmg_adjacency_list>  (2) 
1  O u0 p2 c0 {2,S} {5,S}
2  O u0 p2 c0 {1,S} {11,S}
3  C u0 p0 c0 {4,S} {6,S} {7,S} {8,S}
4  C u0 p0 c0 {3,S} {5,S} {9,S}
5  C u0 p0 c0 {1,S} {4,S} {10,S}
6  H u0 p0 c0 {3,S}
7  H u0 p0 c0 {3,S}
8  H u0 p0 c0 {3,S}
9  H u0 p0 c0 {4,S}
10 H u0 p0 c0 {5,S}
11 H u0 p0 c0 {2,S}


>  <multiplicity>  (2) 
1

>  <reaction>  (2) 
rmg_rxn_14131

>  <type>  (2) 
r2h

>  <role_mapnums>  (2) 
{"r2h_a": 5, "r2h_h": 11}

>  <role_mapidx>  (2) 
{"r2h_a": 4, "r2h_h": 10}

>  <ordered_mapped_smiles>  (2) 
[C:1]([CH:2]([CH:3]([O:4][O:5][H:11])[H:10])[H:9])([H:6])([H:7])[H:8]

>  <mol_properties>  (2) 
{"4": {"label": "acceptor", "atom_type": "O2s"}, "10": {"label": "a_hydrogen", "atom_type": "H0"}}

>  <level_of_theory>  (2) 
wb97xd/def2tzvp

>  <lot_method>  (2) 
wb97xd

>  <lot_basis>  (2) 
def2tzvp

>  <spin_multiplicity>  (2) 
1.0

>  <optical_isomers>  (2) 
2.0

>  <modes>  (2) 
IdealGasTranslation(mass=(74.0368, 'amu')),         NonlinearRotor(             inertia = ([30.5945, 187.799, 213.694

>  <frequency_value>  (2) 
unknown

>  <frequency_units>  (2) 
unknown

>  <frequency_list>  (2) 
unknown

>  <arkane_path>  (2) 
/home/calvin/Dropbox/PersonalFolders/Calvin/ZEUS_Converged/rmg_rxn_14131/output/Species/rmg_rxn_14131_p1_CC=COO/arkane/output.py

>  <path_exists>  (2) 
True

>  <E0_value>  (2) 
-704131.5752938386

>  <E0_units>  (2) 
kJ/mol

>  <thermo_class>  (2) 
NASA

>  <Cp0_value>  (2) 
33.257888

>  <Cp0_units>  (2) 
J/(mol*K)

>  <CpInf_value>  (2) 
257.748632

>  <CpInf_units>  (2) 
J/(mol*K)

>  <Tmin_value>  (2) 
10.0

>  <Tmin_units>  (2) 
K

>  <Tmax_value>  (2) 
3000.0

>  <Tmax_units>  (2) 
K

>  <polynomials>  (2) 
[{"name": "polynomial1", "class": "NASAPolynomial", "Tmin_value": 10.0, "Tmin_units": "K", "Tmax_value": 750.1417362527471, "Tmax_units": "K", "coeffs": [3.6818974315147455, 0.026458476926090657, 7.4565760548245125e-06, -2.8134635217814823e-08, 1.3753848649313953e-11, -84687462.90022717, 10.337322085217703]}, {"name": "polynomial2", "class": "NASAPolynomial", "Tmin_value": 750.1417362527471, "Tmin_units": "K", "Tmax_value": 3000.0, "Tmax_units": "K", "coeffs": [3.140015060826594, 0.03467665267663805, -1.963202120085646e-05, 5.409202138465521e-09, -5.81266003306408e-13, -84687531.52835645, 11.79648705316321]}]

>  <H298_value>  (2) 
-168286.92853304607

>  <H298_units>  (2) 
kcal/mol

>  <S298_value>  (2) 
78.11328013427261

>  <S298_units>  (2) 
cal/(mol*K)

>  <Cp_T_value_list>  (2) 
[23.135660957780026, 27.8404098369485, 32.02992563068473, 35.66393512339761, 41.42981484299387, 45.7307538891239, 52.25626664130418, 55.51976092126689, 57.18254028819171]

>  <Cp_T_units>  (2) 
cal/(mol*K)

>  <T_list>  (2) 
[300.0, 400.0, 500.0, 600.0, 800.0, 1000.0, 1500.0, 2000.0, 2400.0]

>  <T_units>  (2) 
K

>  <yaml_path>  (2) 
/home/calvin/Dropbox/PersonalFolders/Calvin/ZEUS_Converged/rmg_rxn_14131/output/Species/rmg_rxn_14131_p1_CC=COO/rmg_rxn_14131_p1_CC=COO.yml

>  <frequencies_cm1>  (2) 
[152.93463006172001, 170.17763020023997, 205.04131466987997, 243.71617599212001, 326.86850123199997, 382.4155454854799, 686.7053989853199, 820.3850022097599, 909.6695453404, 952.2105193978, 973.53937580172, 1060.8393601748799, 1122.28514481824, 1156.69560825676, 1311.0585712650397, 1328.4938469925198, 1402.3208061678397, 1411.55690142324, 1466.7262614841197, 1486.0842931012, 1750.05807578732, 3005.8236812557197, 3062.42137426316, 3086.3871530299593, 3162.3978135370403, 3182.30520397972, 3766.69252169704]

>  <ZPE_kJmol>  (2) 
230.7944644621705

>  <E_elec_kJmol>  (2) 
-704362.3697583008

>  <E0_minus_Eelec_plus_ZPE_kJmol>  (2) 
0.0

>  <rxn>  (2) 
rmg_rxn_14131

>  <species_type>  (2) 
p0

>  <species_folder>  (2) 
rmg_rxn_14131_p1_CC=COO

>  <frequencies_cm1_list>  (2) 
[152.93463006172001, 170.17763020023997, 205.04131466987997, 243.71617599212001, 326.86850123199997, 382.4155454854799, 686.7053989853199, 820.3850022097599, 909.6695453404, 952.2105193978, 973.53937580172, 1060.8393601748799, 1122.28514481824, 1156.69560825676, 1311.0585712650397, 1328.4938469925198, 1402.3208061678397, 1411.55690142324, 1466.7262614841197, 1486.0842931012, 1750.05807578732, 3005.8236812557197, 3062.42137426316, 3086.3871530299593, 3162.3978135370403, 3182.30520397972, 3766.69252169704]

>  <E0_kJmol>  (2) 
-704132

>  <H298_kJmol>  (2) 
-704113

$$$$

     RDKit          3D

 20 18  0  0  0  0  0  0  0  0999 V2000
    2.9348   -0.5546    1.4045 C   0  0  0  0  0  0  0  0  0  1  0  0
    1.8955    0.1964    0.6368 C   0  0  0  0  0  0  0  0  0  2  0  0
    1.6709   -0.0057   -0.6518 C   0  0  0  0  0  0  0  0  0  3  0  0
    0.7411    0.6113   -1.4414 O   0  0  0  0  0  0  0  0  0  4  0  0
    0.0089    1.5484   -0.7749 O   0  0  0  0  0  0  0  0  0  5  0  0
    3.6696    0.1275    1.8393 H   0  0  0  0  0  0  0  0  0  6  0  0
    2.4853   -1.1095    2.2319 H   0  0  0  0  0  0  0  0  0  7  0  0
    3.4682   -1.2661    0.7723 H   0  0  0  0  0  0  0  0  0  8  0  0
    1.3088    0.9405    1.1593 H   0  0  0  0  0  0  0  0  0  9  0  0
    2.2112   -0.7229   -1.2580 H   0  0  0  0  0  0  0  0  0 10  0  0
   -1.4954   -2.1533   -1.0000 C   0  0  0  0  0  0  0  0  0 11  0  0
   -1.6783   -1.0411   -0.3136 C   0  0  0  0  0  0  0  0  0 12  0  0
   -1.7558    0.0791    0.2767 C   0  0  0  0  0  3  0  0  0 13  0  0
   -2.5247    0.7101    1.3780 C   0  0  0  0  0  0  0  0  0 14  0  0
   -2.0498   -2.3469   -1.9101 H   0  0  0  0  0  0  0  0  0 15  0  0
   -0.7965   -2.9079   -0.6596 H   0  0  0  0  0  0  0  0  0 16  0  0
   -0.8789    0.8902   -0.2676 H   0  0  0  0  0  0  0  0  0 17  0  0
   -1.8533    1.0363    2.1742 H   0  0  0  0  0  0  0  0  0 18  0  0
   -3.2461    0.0072    1.7974 H   0  0  0  0  0  0  0  0  0 19  0  0
   -3.0618    1.5891    1.0186 H   0  0  0  0  0  0  0  0  0 20  0  0
  1  8  1  0
  1  7  1  0
  1  6  1  0
  1  2  1  0
  2  9  1  0
  2  3  1  0
  3  4  1  0
  3 10  1  0
  4  5  1  0
  5 17  1  0
 11 12  1  0
 11 16  1  0
 11 15  1  0
 12 13  1  0
 13 14  1  0
 14 18  1  0
 14 20  1  0
 14 19  1  0
M  RAD  1  13   2
M  END
>  <rmg_smiles>  (3) 
C[CH][CH]OO.[CH2]C[C]C

>  <rmg_adjacency_list>  (3) 
multiplicity 2
1  O u0 p2 c0 {2,S} {6,S}
2  O u0 p2 c0 {1,S} {20,S}
3  C u0 p0 c0 {5,S} {10,S} {11,S} {12,S}
4  C u0 p0 c0 {8,S} {13,S} {14,S} {15,S}
5  C u0 p0 c0 {3,S} {6,S} {16,S}
6  C u0 p0 c0 {1,S} {5,S} {17,S}
7  C u0 p0 c0 {9,S} {18,S} {19,S}
8  C u1 p1 c0 {4,S} {9,S}
9  C u0 p1 c0 {7,S} {8,S}
10 H u0 p0 c0 {3,S}
11 H u0 p0 c0 {3,S}
12 H u0 p0 c0 {3,S}
13 H u0 p0 c0 {4,S}
14 H u0 p0 c0 {4,S}
15 H u0 p0 c0 {4,S}
16 H u0 p0 c0 {5,S}
17 H u0 p0 c0 {6,S}
18 H u0 p0 c0 {7,S}
19 H u0 p0 c0 {7,S}
20 H u0 p0 c0 {2,S}


>  <multiplicity>  (3) 
2

>  <reaction>  (3) 
rmg_rxn_14131

>  <type>  (3) 
ts

>  <role_mapnums>  (3) 
{"*2": 17, "*1": 13, "*3": 5, "*0": 4, "*4": 12}

>  <role_mapidx>  (3) 
{"*2": 16, "*1": 12, "*3": 4, "*0": 3, "*4": 11}

>  <ordered_mapped_smiles>  (3) 
[C:1]([CH:2]([CH:3]([O:4][O:5][H:17])[H:10])[H:9])([H:6])([H:7])[H:8].[CH:11]([CH2:12][CH:13][C:14]([H:18])([H:19])[H:20])([H:15])[H:16]

>  <mol_properties>  (3) 
{"3": {"label": "*0", "atom_type": "O2s"}, "4": {"label": "*3", "atom_type": "O2s"}, "11": {"label": "*4", "atom_type": "C2s"}, "12": {"label": "*1", "atom_type": "C2s"}, "16": {"label": "*2", "atom_type": "H0"}}

>  <level_of_theory>  (3) 
wb97xd/def2tzvp

>  <lot_method>  (3) 
wb97xd

>  <lot_basis>  (3) 
def2tzvp

>  <spin_multiplicity>  (3) 
2.0

>  <optical_isomers>  (3) 
2.0

>  <modes>  (3) 
IdealGasTranslation(mass=(127.076, 'amu')),         NonlinearRotor(             inertia = ([281.617, 564.947, 582.885

>  <frequency_value>  (3) 
-1960.73

>  <frequency_units>  (3) 
cm^-1

>  <frequency_list>  (3) 
unknown

>  <arkane_path>  (3) 
/home/calvin/Dropbox/PersonalFolders/Calvin/ZEUS_Converged/rmg_rxn_14131/output/rxns/TS0/arkane/output.py

>  <path_exists>  (3) 
True

>  <E0_value>  (3) 
-1111710.0

>  <E0_units>  (3) 
kJ/mol

>  <thermo_class>  (3) 
unknown

>  <Cp0_value>  (3) 
unknown

>  <Cp0_units>  (3) 
unknown

>  <CpInf_value>  (3) 
unknown

>  <CpInf_units>  (3) 
unknown

>  <Tmin_value>  (3) 
unknown

>  <Tmin_units>  (3) 
unknown

>  <Tmax_value>  (3) 
unknown

>  <Tmax_units>  (3) 
unknown

>  <polynomials>  (3) 
unknown

>  <H298_value>  (3) 
unknown

>  <H298_units>  (3) 
unknown

>  <S298_value>  (3) 
unknown

>  <S298_units>  (3) 
unknown

>  <Cp_T_value_list>  (3) 
unknown

>  <Cp_T_units>  (3) 
unknown

>  <T_list>  (3) 
unknown

>  <T_units>  (3) 
unknown

>  <yaml_path>  (3) 
unknown

>  <frequencies_cm1>  (3) 
unknown

>  <ZPE_kJmol>  (3) 
unknown

>  <E_elec_kJmol>  (3) 
unknown

>  <E0_minus_Eelec_plus_ZPE_kJmol>  (3) 
unknown

>  <rxn>  (3) 
unknown

>  <species_type>  (3) 
unknown

>  <species_folder>  (3) 
unknown

>  <frequencies_cm1_list>  (3) 
[]

>  <ts_imag_freq_cm1>  (3) 
-1984.5404

>  <ts_freq_out_path>  (3) 
/home/calvin/Dropbox/PersonalFolders/Calvin/ZEUS_Converged/rmg_rxn_14131/output/rxns/TS0/geometry/freq.out

>  <E0_kJmol>  (3) 
-1.11171e+06

>  <H298_kJmol>  (3) 
unknown

$$$$

     RDKit          3D

  9  8  0  0  0  0  0  0  0  0999 V2000
    2.2285    0.1429   -0.1875 C   0  0  0  0  0  0  0  0  0  1  0  0
    0.8689    0.0588   -0.0734 C   0  0  0  0  0  0  0  0  0  2  0  0
   -0.3436   -0.0148    0.0282 C   0  0  0  0  0  3  0  0  0  3  0  0
   -1.7876   -0.1130    0.1500 C   0  0  0  0  0  0  0  0  0  4  0  0
    2.8646    0.0330    0.6803 H   0  0  0  0  0  0  0  0  0  5  0  0
    2.6934    0.3211   -1.1477 H   0  0  0  0  0  0  0  0  0  6  0  0
   -2.1322    0.3380    1.0826 H   0  0  0  0  0  0  0  0  0  7  0  0
   -2.1068   -1.1583    0.1470 H   0  0  0  0  0  0  0  0  0  8  0  0
   -2.2854    0.3923   -0.6795 H   0  0  0  0  0  0  0  0  0  9  0  0
  1  5  1  0
  1  6  1  0
  1  2  1  0
  2  3  1  0
  3  4  1  0
  4  8  1  0
  4  9  1  0
  4  7  1  0
M  RAD  1   3   2
M  END
>  <rmg_smiles>  (4) 
[CH2]C[C]C

>  <rmg_adjacency_list>  (4) 
multiplicity 2
1 C u0 p0 c0 {3,S} {5,S} {6,S} {7,S}
2 C u0 p0 c0 {4,S} {8,S} {9,S}
3 C u1 p1 c0 {1,S} {4,S}
4 C u0 p1 c0 {2,S} {3,S}
5 H u0 p0 c0 {1,S}
6 H u0 p0 c0 {1,S}
7 H u0 p0 c0 {1,S}
8 H u0 p0 c0 {2,S}
9 H u0 p0 c0 {2,S}


>  <multiplicity>  (4) 
2

>  <reaction>  (4) 
rmg_rxn_14131

>  <type>  (4) 
r1

>  <role_mapnums>  (4) 
{}

>  <role_mapidx>  (4) 
{}

>  <ordered_mapped_smiles>  (4) 
[CH:1]([CH2:2][CH:3][C:4]([H:7])([H:8])[H:9])([H:5])[H:6]

>  <level_of_theory>  (4) 
wb97xd/def2tzvp

>  <lot_method>  (4) 
wb97xd

>  <lot_basis>  (4) 
def2tzvp

>  <spin_multiplicity>  (4) 
2.0

>  <optical_isomers>  (4) 
2.0

>  <modes>  (4) 
IdealGasTranslation(mass=(53.0391, 'amu')),         NonlinearRotor(             inertia = ([4.88746, 139.242, 140.992

>  <frequency_value>  (4) 
unknown

>  <frequency_units>  (4) 
unknown

>  <frequency_list>  (4) 
unknown

>  <arkane_path>  (4) 
/home/calvin/Dropbox/PersonalFolders/Calvin/ZEUS_Converged/rmg_rxn_14131/output/Species/rmg_rxn_14131_p2_sbr-CH2-sbrCtCC/arkane/output.py

>  <path_exists>  (4) 
True

>  <E0_value>  (4) 
-407625.4064849041

>  <E0_units>  (4) 
kJ/mol

>  <thermo_class>  (4) 
NASA

>  <Cp0_value>  (4) 
33.257888

>  <Cp0_units>  (4) 
J/(mol*K)

>  <CpInf_value>  (4) 
207.8618

>  <CpInf_units>  (4) 
J/(mol*K)

>  <Tmin_value>  (4) 
10.0

>  <Tmin_units>  (4) 
K

>  <Tmax_value>  (4) 
3000.0

>  <Tmax_units>  (4) 
K

>  <polynomials>  (4) 
[{"name": "polynomial1", "class": "NASAPolynomial", "Tmin_value": 10.0, "Tmin_units": "K", "Tmax_value": 502.0268159976515, "Tmax_units": "K", "coeffs": [3.687270830426517, 0.029053628934412008, -4.470123428186127e-05, 7.503439468745092e-08, -5.158529094876398e-11, -49026010.75493378, 10.46372665339021]}, {"name": "polynomial2", "class": "NASAPolynomial", "Tmin_value": 502.0268159976515, "Tmin_units": "K", "Tmax_value": 3000.0, "Tmax_units": "K", "coeffs": [2.898462070883104, 0.02729908073702909, -1.54375900595206e-05, 4.274702323061024e-09, -4.631616133105543e-13, -49025830.24365362, 14.734719774038638]}]

>  <H298_value>  (4) 
-97420.5979578768

>  <H298_units>  (4) 
kcal/mol

>  <S298_value>  (4) 
76.91244568160063

>  <S298_units>  (4) 
cal/(mol*K)

>  <Cp_T_value_list>  (4) 
[19.848886680568814, 23.127392893703846, 26.219193390336713, 28.980799697634083, 33.49755626219656, 36.90539253248215, 42.11858387906473, 44.77831245492002, 46.14816382733488]

>  <Cp_T_units>  (4) 
cal/(mol*K)

>  <T_list>  (4) 
[300.0, 400.0, 500.0, 600.0, 800.0, 1000.0, 1500.0, 2000.0, 2400.0]

>  <T_units>  (4) 
K

>  <yaml_path>  (4) 
/home/calvin/Dropbox/PersonalFolders/Calvin/ZEUS_Converged/rmg_rxn_14131/output/Species/rmg_rxn_14131_p2_sbr-CH2-sbrCtCC/rmg_rxn_14131_p2_sbr-CH2-sbrCtCC.yml

>  <frequencies_cm1>  (4) 
[24.18552229704, 186.74766577739996, 206.32544092471997, 398.28514856, 428.84323323399997, 670.45124473288, 768.8002084859199, 1023.53102893132, 1025.11730254024, 1044.32426048028, 1244.297739984, 1401.51050190008, 1455.78715386936, 1460.16829050352, 1460.7931861676398, 2137.33544687936, 3007.2588811876003, 3071.0325738544398, 3085.0961597897995, 3128.557309880079, 3222.30539346872]

>  <ZPE_kJmol>  (4) 
182.1360065892337

>  <E_elec_kJmol>  (4) 
-407807.5424914933

>  <E0_minus_Eelec_plus_ZPE_kJmol>  (4) 
0.0

>  <rxn>  (4) 
rmg_rxn_14131

>  <species_type>  (4) 
p1

>  <species_folder>  (4) 
rmg_rxn_14131_p2_sbr-CH2-sbrCtCC

>  <frequencies_cm1_list>  (4) 
[24.18552229704, 186.74766577739996, 206.32544092471997, 398.28514856, 428.84323323399997, 670.45124473288, 768.8002084859199, 1023.53102893132, 1025.11730254024, 1044.32426048028, 1244.297739984, 1401.51050190008, 1455.78715386936, 1460.16829050352, 1460.7931861676398, 2137.33544687936, 3007.2588811876003, 3071.0325738544398, 3085.0961597897995, 3128.557309880079, 3222.30539346872]

>  <E0_kJmol>  (4) 
-407625

>  <H298_kJmol>  (4) 
-407608

$$$$

     RDKit          3D

 10  9  0  0  0  0  0  0  0  0999 V2000
   -1.3858    0.4213    0.0537 C   0  0  0  0  0  0  0  0  0  1  0  0
   -0.3891   -0.6569    0.3216 C   0  0  0  0  0  0  0  0  0  2  0  0
   -0.6393   -1.9540    0.4149 C   0  0  0  0  0  0  0  0  0  3  0  0
   -1.9270   -2.4250    0.2597 O   0  0  0  0  0  0  0  0  0  4  0  0
   -2.0151   -3.7214    0.3785 O   0  0  0  0  0  1  0  0  0  5  0  0
   -1.3902    1.1444    0.8724 H   0  0  0  0  0  0  0  0  0  6  0  0
   -1.1175    0.9676   -0.8534 H   0  0  0  0  0  0  0  0  0  7  0  0
   -2.3936    0.0289   -0.0653 H   0  0  0  0  0  0  0  0  0  8  0  0
    0.6461   -0.3661    0.4554 H   0  0  0  0  0  0  0  0  0  9  0  0
    0.0824   -2.7350    0.6089 H   0  0  0  0  0  0  0  0  0 10  0  0
  1  8  1  0
  1  7  1  0
  1  6  1  0
  1  2  1  0
  2  9  1  0
  2  3  1  0
  3  4  1  0
  3 10  1  0
  4  5  1  0
M  RAD  1   5   2
M  END
>  <rmg_smiles>  (5) 
C[CH][CH]O[O]

>  <rmg_adjacency_list>  (5) 
multiplicity 2
1  O u0 p2 c0 {2,S} {5,S}
2  O u1 p2 c0 {1,S}
3  C u0 p0 c0 {4,S} {6,S} {7,S} {8,S}
4  C u0 p0 c0 {3,S} {5,S} {9,S}
5  C u0 p0 c0 {1,S} {4,S} {10,S}
6  H u0 p0 c0 {3,S}
7  H u0 p0 c0 {3,S}
8  H u0 p0 c0 {3,S}
9  H u0 p0 c0 {4,S}
10 H u0 p0 c0 {5,S}


>  <multiplicity>  (5) 
2

>  <reaction>  (5) 
rmg_rxn_14131

>  <type>  (5) 
r2

>  <role_mapnums>  (5) 
{}

>  <role_mapidx>  (5) 
{}

>  <ordered_mapped_smiles>  (5) 
[C:1]([CH:2]([CH:3]([O:4][O:5])[H:10])[H:9])([H:6])([H:7])[H:8]

>  <level_of_theory>  (5) 
wb97xd/def2tzvp

>  <lot_method>  (5) 
wb97xd

>  <lot_basis>  (5) 
def2tzvp

>  <spin_multiplicity>  (5) 
2.0

>  <optical_isomers>  (5) 
1.0

>  <modes>  (5) 
IdealGasTranslation(mass=(73.0289, 'amu')),         NonlinearRotor(             inertia = ([28.9823, 174.992, 200.865

>  <frequency_value>  (5) 
unknown

>  <frequency_units>  (5) 
unknown

>  <frequency_list>  (5) 
unknown

>  <arkane_path>  (5) 
/home/calvin/Dropbox/PersonalFolders/Calvin/ZEUS_Converged/rmg_rxn_14131/output/Species/rmg_rxn_14131_r1_CC=COsbr-O-sbr/arkane/output.py

>  <path_exists>  (5) 
True

>  <E0_value>  (5) 
-702480.4161753881

>  <E0_units>  (5) 
kJ/mol

>  <thermo_class>  (5) 
NASA

>  <Cp0_value>  (5) 
33.257888

>  <Cp0_units>  (5) 
J/(mol*K)

>  <CpInf_value>  (5) 
232.805216

>  <CpInf_units>  (5) 
J/(mol*K)

>  <Tmin_value>  (5) 
10.0

>  <Tmin_units>  (5) 
K

>  <Tmax_value>  (5) 
3000.0

>  <Tmax_units>  (5) 
K

>  <polynomials>  (5) 
[{"name": "polynomial1", "class": "NASAPolynomial", "Tmin_value": 10.0, "Tmin_units": "K", "Tmax_value": 1013.7722720259943, "Tmax_units": "K", "coeffs": [3.841713089748067, 0.021187721177516484, 1.0373933843527463e-05, -2.3050902102717268e-08, 8.80670248533069e-12, -84488881.3417309, 10.110845219877678]}, {"name": "polynomial2", "class": "NASAPolynomial", "Tmin_value": 1013.7722720259943, "Tmin_units": "K", "Tmax_value": 3000.0, "Tmax_units": "K", "coeffs": [5.103677957609031, 0.027004476704447347, -1.4206726337096785e-05, 3.6182823140322286e-09, -3.6051503436381345e-13, -84489691.9836625, 1.2691514530935897]}]

>  <H298_value>  (5) 
-167892.6099617512

>  <H298_units>  (5) 
kcal/mol

>  <S298_value>  (5) 
76.67841830818476

>  <S298_units>  (5) 
cal/(mol*K)

>  <Cp_T_value_list>  (5) 
[21.025923393049013, 25.29082902831068, 29.208186265543347, 32.69216164313152, 38.22664181008234, 42.04763718491913, 47.75625690462202, 50.60171757683552, 51.949133944997804]

>  <Cp_T_units>  (5) 
cal/(mol*K)

>  <T_list>  (5) 
[300.0, 400.0, 500.0, 600.0, 800.0, 1000.0, 1500.0, 2000.0, 2400.0]

>  <T_units>  (5) 
K

>  <yaml_path>  (5) 
/home/calvin/Dropbox/PersonalFolders/Calvin/ZEUS_Converged/rmg_rxn_14131/output/Species/rmg_rxn_14131_r1_CC=COsbr-O-sbr/rmg_rxn_14131_r1_CC=COsbr-O-sbr.yml

>  <frequencies_cm1>  (5) 
[107.983344157, 132.17573343936, 202.50053010148, 427.39429933147994, 454.48455641888, 654.5953756289999, 750.8636428300799, 939.17011427512, 961.0826644312399, 979.0260970724, 1055.8539288325599, 1142.5152835709598, 1242.88314100808, 1265.1871093274399, 1365.8227791920401, 1410.4719177426796, 1472.7486076097598, 1472.8996812868, 1715.2287262442799, 3018.2529246849203, 3074.0609143805596, 3122.10234367928, 3161.3746327243593, 3204.49243354864]

>  <ZPE_kJmol>  (5) 
199.37669439061943

>  <E_elec_kJmol>  (5) 
-702679.7928697788

>  <E0_minus_Eelec_plus_ZPE_kJmol>  (5) 
0.0

>  <rxn>  (5) 
rmg_rxn_14131

>  <species_type>  (5) 
r0

>  <species_folder>  (5) 
rmg_rxn_14131_r1_CC=COsbr-O-sbr

>  <frequencies_cm1_list>  (5) 
[107.983344157, 132.17573343936, 202.50053010148, 427.39429933147994, 454.48455641888, 654.5953756289999, 750.8636428300799, 939.17011427512, 961.0826644312399, 979.0260970724, 1055.8539288325599, 1142.5152835709598, 1242.88314100808, 1265.1871093274399, 1365.8227791920401, 1410.4719177426796, 1472.7486076097598, 1472.8996812868, 1715.2287262442799, 3018.2529246849203, 3074.0609143805596, 3122.10234367928, 3161.3746327243593, 3204.49243354864]

>  <E0_kJmol>  (5) 
-702480

>  <H298_kJmol>  (5) 
-702463

$$$$
