
     RDKit          3D

 10  9  0  0  0  0  0  0  0  0999 V2000
   -1.0913   -1.6272   -0.1741 C   0  0  0  0  0  0  0  0  0  1  0  0
   -0.2669   -0.6168    0.0053 C   0  0  0  0  0  2  0  0  0  2  0  0
    0.5941    0.2999    0.2153 C   0  0  0  0  0  0  0  0  0  3  0  0
    0.6823    1.7598   -0.0438 C   0  0  0  0  0  0  0  0  0  4  0  0
   -1.0683   -2.2140   -1.0846 H   0  0  0  0  0  0  0  0  0  5  0  0
   -1.8309   -1.8868    0.5738 H   0  0  0  0  0  0  0  0  0  6  0  0
    1.5139   -0.0471    0.6862 H   0  0  0  0  0  0  0  0  0  7  0  0
    0.7468    2.3130    0.8957 H   0  0  0  0  0  0  0  0  0  8  0  0
   -0.1849    2.1198   -0.5995 H   0  0  0  0  0  0  0  0  0  9  0  0
    1.5852    1.9903   -0.6132 H   0  0  0  0  0  0  0  0  0 10  0  0
  1  5  1  0
  1  6  1  0
  1  2  1  0
  2  3  1  0
  3  4  1  0
  3  7  1  0
  4  8  1  0
  4  9  1  0
  4 10  1  0
M  RAD  1   2   3
M  END
>  <rmg_smiles>  (1) 
[CH2][C][CH]C

>  <rmg_adjacency_list>  (1) 
1  C u0 p0 c0 {2,S} {5,S} {6,S} {7,S}
2  C u0 p0 c0 {1,S} {4,S} {8,S}
3  C u0 p0 c0 {4,S} {9,S} {10,S}
4  C u0 p1 c0 {2,S} {3,S}
5  H u0 p0 c0 {1,S}
6  H u0 p0 c0 {1,S}
7  H u0 p0 c0 {1,S}
8  H u0 p0 c0 {2,S}
9  H u0 p0 c0 {3,S}
10 H u0 p0 c0 {3,S}


>  <multiplicity>  (1) 
1

>  <reaction>  (1) 
rmg_rxn_13857

>  <type>  (1) 
r1h

>  <role_mapnums>  (1) 
{"r1h_a": 3, "r1h_h": 7}

>  <role_mapidx>  (1) 
{"r1h_a": 2, "r1h_h": 6}

>  <ordered_mapped_smiles>  (1) 
[CH:1]([C:2][CH:3]([C:4]([H:8])([H:9])[H:10])[H:7])([H:5])[H:6]

>  <mol_properties>  (1) 
{"2": {"label": "donator", "atom_type": "Cs"}, "6": {"label": "d_hydrogen", "atom_type": "H0"}}

>  <level_of_theory>  (1) 
wb97xd/def2tzvp

>  <lot_method>  (1) 
wb97xd

>  <lot_basis>  (1) 
def2tzvp

>  <spin_multiplicity>  (1) 
1.0

>  <optical_isomers>  (1) 
1.0

>  <modes>  (1) 
IdealGasTranslation(mass=(54.047, 'amu')),         NonlinearRotor(             inertia = ([14.6121, 119.467, 127.49

>  <frequency_value>  (1) 
unknown

>  <frequency_units>  (1) 
unknown

>  <frequency_list>  (1) 
unknown

>  <arkane_path>  (1) 
/home/calvin/Dropbox/PersonalFolders/Calvin/ZEUS_Converged/rmg_rxn_13857/output/Species/rmg_rxn_13857_r1_C=C=CC/arkane/output.py

>  <path_exists>  (1) 
True

>  <E0_value>  (1) 
-409296.6502421279

>  <E0_units>  (1) 
kJ/mol

>  <thermo_class>  (1) 
NASA

>  <Cp0_value>  (1) 
33.257888

>  <Cp0_units>  (1) 
J/(mol*K)

>  <CpInf_value>  (1) 
232.805216

>  <CpInf_units>  (1) 
J/(mol*K)

>  <Tmin_value>  (1) 
10.0

>  <Tmin_units>  (1) 
K

>  <Tmax_value>  (1) 
3000.0

>  <Tmax_units>  (1) 
K

>  <polynomials>  (1) 
[{"name": "polynomial1", "class": "NASAPolynomial", "Tmin_value": 10.0, "Tmin_units": "K", "Tmax_value": 452.8802664009696, "Tmax_units": "K", "coeffs": [3.9021943352433452, 0.007937521032632688, 6.664442489196733e-05, -1.2131953588307993e-07, 6.938885885775227e-11, -49227014.555544384, 8.255511443201872]}, {"name": "polynomial2", "class": "NASAPolynomial", "Tmin_value": 452.8802664009696, "Tmin_units": "K", "Tmax_value": 3000.0, "Tmax_units": "K", "coeffs": [0.958037882717614, 0.033941191741253485, -1.948265019694705e-05, 5.463813645242153e-09, -5.979209978345261e-13, -49226747.88374059, 20.12723627389473]}]

>  <H298_value>  (1) 
-97820.47439749332

>  <H298_units>  (1) 
kcal/mol

>  <S298_value>  (1) 
69.30943774444917

>  <S298_units>  (1) 
cal/(mol*K)

>  <Cp_T_value_list>  (1) 
[19.013335795722274, 23.35407848830737, 27.231838984706652, 30.626214617830076, 36.15654523435027, 40.30546036176962, 46.594544625367064, 49.786664420046236, 51.450781523093035]

>  <Cp_T_units>  (1) 
cal/(mol*K)

>  <T_list>  (1) 
[300.0, 400.0, 500.0, 600.0, 800.0, 1000.0, 1500.0, 2000.0, 2400.0]

>  <T_units>  (1) 
K

>  <yaml_path>  (1) 
/home/calvin/Dropbox/PersonalFolders/Calvin/ZEUS_Converged/rmg_rxn_13857/output/Species/rmg_rxn_13857_r1_C=C=CC/rmg_rxn_13857_r1_C=C=CC.yml

>  <frequencies_cm1>  (1) 
[164.84884959192, 210.28769145436, 340.98015606459995, 540.2944049775999, 574.7186023867599, 878.6239047086799, 884.0282221555199, 895.09093550604, 1017.79709618912, 1055.91573170044, 1088.91159616304, 1146.5530709391198, 1353.77808694076, 1399.01778622892, 1463.354571692, 1470.3726306890399, 1494.8053644576, 2061.4346581373993, 3012.63573069316, 3072.0282867258397, 3106.42501619372, 3110.62074422424, 3124.134971334, 3189.66661224276]

>  <ZPE_kJmol>  (1) 
219.25357474583132

>  <E_elec_kJmol>  (1) 
-409515.9038168737

>  <E0_minus_Eelec_plus_ZPE_kJmol>  (1) 
0.0

>  <rxn>  (1) 
rmg_rxn_13857

>  <species_type>  (1) 
r0

>  <species_folder>  (1) 
rmg_rxn_13857_r1_C=C=CC

>  <frequencies_cm1_list>  (1) 
[164.84884959192, 210.28769145436, 340.98015606459995, 540.2944049775999, 574.7186023867599, 878.6239047086799, 884.0282221555199, 895.09093550604, 1017.79709618912, 1055.91573170044, 1088.91159616304, 1146.5530709391198, 1353.77808694076, 1399.01778622892, 1463.354571692, 1470.3726306890399, 1494.8053644576, 2061.4346581373993, 3012.63573069316, 3072.0282867258397, 3106.42501619372, 3110.62074422424, 3124.134971334, 3189.66661224276]

>  <E0_kJmol>  (1) 
-409297

>  <H298_kJmol>  (1) 
-409281

$$$$

     RDKit          3D

 15 14  0  0  0  0  0  0  0  0999 V2000
   -1.7263    0.3171    0.6590 H   0  0  0  0  0  0  0  0  0  1  0  0
   -0.2578    0.1732   -2.1264 C   0  0  0  0  0  0  0  0  0  2  0  0
    0.8347   -0.0972   -1.1052 C   0  0  0  0  0  0  0  0  0  3  0  0
    0.6096    0.7320    0.4877 S   0  0  0  0  0  0  0  0  0  4  0  0
   -0.8277   -0.0460    1.1568 C   0  0  0  0  0  0  0  0  0  5  0  0
   -0.9708   -1.5440    1.0830 C   0  0  0  0  0  0  0  0  0  6  0  0
   -0.0281   -0.3350   -3.0656 H   0  0  0  0  0  0  0  0  0  7  0  0
   -1.2285   -0.1816   -1.7784 H   0  0  0  0  0  0  0  0  0  8  0  0
   -0.3445    1.2416   -2.3279 H   0  0  0  0  0  0  0  0  0  9  0  0
    1.7957    0.2796   -1.4590 H   0  0  0  0  0  0  0  0  0 10  0  0
    0.9597   -1.1668   -0.9330 H   0  0  0  0  0  0  0  0  0 11  0  0
   -0.9639    0.3564    2.1601 H   0  0  0  0  0  0  0  0  0 12  0  0
   -0.1449   -2.0510    1.5893 H   0  0  0  0  0  0  0  0  0 13  0  0
   -1.9057   -1.8464    1.5571 H   0  0  0  0  0  0  0  0  0 14  0  0
   -1.0050   -1.8945    0.0503 H   0  0  0  0  0  0  0  0  0 15  0  0
  1  5  1  0
  2  9  1  0
  2  7  1  0
  2  8  1  0
  2  3  1  0
  3 11  1  0
  3  4  1  0
  3 10  1  0
  4  5  1  0
  5 12  1  0
  5  6  1  0
  6 15  1  0
  6 14  1  0
  6 13  1  0
M  END
>  <rmg_smiles>  (2) 
CCSCC

>  <rmg_adjacency_list>  (2) 
1  S u0 p2 c0 {2,S} {3,S}
2  C u0 p0 c0 {1,S} {4,S} {7,S} {8,S}
3  C u0 p0 c0 {1,S} {5,S} {6,S} {9,S}
4  C u0 p0 c0 {2,S} {10,S} {11,S} {12,S}
5  C u0 p0 c0 {3,S} {13,S} {14,S} {15,S}
6  H u0 p0 c0 {3,S}
7  H u0 p0 c0 {2,S}
8  H u0 p0 c0 {2,S}
9  H u0 p0 c0 {3,S}
10 H u0 p0 c0 {4,S}
11 H u0 p0 c0 {4,S}
12 H u0 p0 c0 {4,S}
13 H u0 p0 c0 {5,S}
14 H u0 p0 c0 {5,S}
15 H u0 p0 c0 {5,S}


>  <multiplicity>  (2) 
1

>  <reaction>  (2) 
rmg_rxn_13857

>  <type>  (2) 
r2h

>  <role_mapnums>  (2) 
{"r2h_a": 5, "r2h_h": 1}

>  <role_mapidx>  (2) 
{"r2h_a": 4, "r2h_h": 0}

>  <ordered_mapped_smiles>  (2) 
[H:1][C:5]([S:4][C:3]([C:2]([H:7])([H:8])[H:9])([H:10])[H:11])([C:6]([H:13])([H:14])[H:15])[H:12]

>  <mol_properties>  (2) 
{"0": {"label": "a_hydrogen", "atom_type": "H0"}, "4": {"label": "acceptor", "atom_type": "Cs"}}

>  <level_of_theory>  (2) 
wb97xd/def2tzvp

>  <lot_method>  (2) 
wb97xd

>  <lot_basis>  (2) 
def2tzvp

>  <spin_multiplicity>  (2) 
1.0

>  <optical_isomers>  (2) 
2.0

>  <modes>  (2) 
IdealGasTranslation(mass=(90.0503, 'amu')),         NonlinearRotor(             inertia = ([97.9259, 182.785, 231.685

>  <frequency_value>  (2) 
unknown

>  <frequency_units>  (2) 
unknown

>  <frequency_list>  (2) 
unknown

>  <arkane_path>  (2) 
/home/calvin/Dropbox/PersonalFolders/Calvin/ZEUS_Converged/rmg_rxn_13857/output/Species/rmg_rxn_13857_p2_CCSCC/arkane/output.py

>  <path_exists>  (2) 
True

>  <E0_value>  (2) 
-1461176.712302846

>  <E0_units>  (2) 
kJ/mol

>  <thermo_class>  (2) 
NASA

>  <Cp0_value>  (2) 
33.257888

>  <Cp0_units>  (2) 
J/(mol*K)

>  <CpInf_value>  (2) 
357.522296

>  <CpInf_units>  (2) 
J/(mol*K)

>  <Tmin_value>  (2) 
10.0

>  <Tmin_units>  (2) 
K

>  <Tmax_value>  (2) 
3000.0

>  <Tmax_units>  (2) 
K

>  <polynomials>  (2) 
[{"name": "polynomial1", "class": "NASAPolynomial", "Tmin_value": 10.0, "Tmin_units": "K", "Tmax_value": 1062.7399386544262, "Tmax_units": "K", "coeffs": [3.7240769323461183, 0.031177748628868452, 1.5902010367185058e-05, -3.113890231224712e-08, 1.1081306354986389e-11, -175738967.30653277, 10.691637870800792]}, {"name": "polynomial2", "class": "NASAPolynomial", "Tmin_value": 1062.7399386544262, "Tmin_units": "K", "Tmax_value": 3000.0, "Tmax_units": "K", "coeffs": [4.272241625082444, 0.043558842725107835, -2.1960593835054186e-05, 5.40184233033246e-09, -5.231142214717531e-13, -175739899.4995357, 4.176068557223208]}]

>  <H298_value>  (2) 
-349224.4948454063

>  <H298_units>  (2) 
kcal/mol

>  <S298_value>  (2) 
82.7716563008507

>  <S298_units>  (2) 
cal/(mol*K)

>  <Cp_T_value_list>  (2) 
[27.339173623072345, 33.842702479220485, 39.920340978524315, 45.43863766183797, 54.527649872243764, 61.09912795060114, 71.10646486529419, 76.29375173182082, 78.7725430861368]

>  <Cp_T_units>  (2) 
cal/(mol*K)

>  <T_list>  (2) 
[300.0, 400.0, 500.0, 600.0, 800.0, 1000.0, 1500.0, 2000.0, 2400.0]

>  <T_units>  (2) 
K

>  <yaml_path>  (2) 
/home/calvin/Dropbox/PersonalFolders/Calvin/ZEUS_Converged/rmg_rxn_13857/output/Species/rmg_rxn_13857_p2_CCSCC/rmg_rxn_13857_p2_CCSCC.yml

>  <frequencies_cm1>  (2) 
[66.48615186823999, 121.63491097315999, 224.63969077315997, 254.99863287287997, 273.62876404604003, 341.45397805167994, 381.0490154068, 647.6597204558, 701.8333676452798, 742.1151035324, 786.8329119362398, 985.17891591912, 988.88708799192, 1023.0091380469999, 1055.1809642711999, 1060.18699656948, 1093.14852610548, 1263.72444145428, 1273.9013136985197, 1289.2490258887199, 1308.3598460342798, 1399.5396771132398, 1399.8967603498797, 1460.7725852116798, 1462.4000607325202, 1478.53747623452, 1481.2362014652797, 1489.1538355392402, 1493.6723118798, 3015.6091353367196, 3016.10355827976, 3035.3242501904397, 3036.18262335544, 3073.69009717328, 3077.2334615983996, 3086.3528181033594, 3086.8953099436403, 3101.4052499247996, 3104.1520440527997]

>  <ZPE_kJmol>  (2) 
348.0016505911852

>  <E_elec_kJmol>  (2) 
-1461524.713953437

>  <E0_minus_Eelec_plus_ZPE_kJmol>  (2) 
0.0

>  <rxn>  (2) 
rmg_rxn_13857

>  <species_type>  (2) 
p1

>  <species_folder>  (2) 
rmg_rxn_13857_p2_CCSCC

>  <frequencies_cm1_list>  (2) 
[66.48615186823999, 121.63491097315999, 224.63969077315997, 254.99863287287997, 273.62876404604003, 341.45397805167994, 381.0490154068, 647.6597204558, 701.8333676452798, 742.1151035324, 786.8329119362398, 985.17891591912, 988.88708799192, 1023.0091380469999, 1055.1809642711999, 1060.18699656948, 1093.14852610548, 1263.72444145428, 1273.9013136985197, 1289.2490258887199, 1308.3598460342798, 1399.5396771132398, 1399.8967603498797, 1460.7725852116798, 1462.4000607325202, 1478.53747623452, 1481.2362014652797, 1489.1538355392402, 1493.6723118798, 3015.6091353367196, 3016.10355827976, 3035.3242501904397, 3036.18262335544, 3073.69009717328, 3077.2334615983996, 3086.3528181033594, 3086.8953099436403, 3101.4052499247996, 3104.1520440527997]

>  <E0_kJmol>  (2) 
-1.46118e+06

>  <H298_kJmol>  (2) 
-1.46116e+06

$$$$

     RDKit          3D

 24 22  0  0  0  0  0  0  0  0999 V2000
   -3.3888   -1.2985   -0.2531 C   0  0  0  0  0  0  0  0  0  1  0  0
   -2.5644   -0.2880   -0.0737 C   0  0  0  0  0  0  0  0  0  2  0  0
   -1.7034    0.6287    0.1363 C   0  0  0  0  0  3  0  0  0  3  0  0
   -1.6152    2.0885   -0.1228 C   0  0  0  0  0  0  0  0  0  4  0  0
   -3.3657   -1.8853   -1.1636 H   0  0  0  0  0  0  0  0  0  5  0  0
   -4.1284   -1.5581    0.4948 H   0  0  0  0  0  0  0  0  0  6  0  0
   -0.5719    0.2018    0.7155 H   0  0  0  0  0  0  0  0  0  7  0  0
   -1.5507    2.6417    0.8167 H   0  0  0  0  0  0  0  0  0  8  0  0
   -2.4824    2.4486   -0.6785 H   0  0  0  0  0  0  0  0  0  9  0  0
   -0.7123    2.3190   -0.6922 H   0  0  0  0  0  0  0  0  0 10  0  0
    1.1018   -0.0250   -1.9562 C   0  0  0  0  0  0  0  0  0 11  0  0
    2.1943   -0.2954   -0.9350 C   0  0  0  0  0  0  0  0  0 12  0  0
    1.9692    0.5338    0.6579 S   0  0  0  0  0  0  0  0  0 13  0  0
    0.5319   -0.2442    1.3270 C   0  0  0  0  0  0  0  0  0 14  0  0
    0.3888   -1.7422    1.2532 C   0  0  0  0  0  0  0  0  0 15  0  0
    1.3315   -0.5332   -2.8954 H   0  0  0  0  0  0  0  0  0 16  0  0
    0.1311   -0.3799   -1.6082 H   0  0  0  0  0  0  0  0  0 17  0  0
    1.0151    1.0434   -2.1577 H   0  0  0  0  0  0  0  0  0 18  0  0
    3.1553    0.0814   -1.2888 H   0  0  0  0  0  0  0  0  0 19  0  0
    2.3193   -1.3651   -0.7627 H   0  0  0  0  0  0  0  0  0 20  0  0
    0.3957    0.1582    2.3303 H   0  0  0  0  0  0  0  0  0 21  0  0
    1.2147   -2.2492    1.7596 H   0  0  0  0  0  0  0  0  0 22  0  0
   -0.5461   -2.0446    1.7273 H   0  0  0  0  0  0  0  0  0 23  0  0
    0.3545   -2.0927    0.2205 H   0  0  0  0  0  0  0  0  0 24  0  0
  1  5  1  0
  1  6  1  0
  1  2  1  0
  2  3  1  0
  3  4  1  0
  4 10  1  0
  4  9  1  0
  4  8  1  0
  7 14  1  0
 11 17  1  0
 11 12  1  0
 11 16  1  0
 11 18  1  0
 12 19  1  0
 12 13  1  0
 12 20  1  0
 13 14  1  0
 14 15  1  0
 14 21  1  0
 15 23  1  0
 15 22  1  0
 15 24  1  0
M  RAD  1   3   2
M  END
>  <rmg_smiles>  (3) 
CCSCC.[CH2][C][C]C

>  <rmg_adjacency_list>  (3) 
multiplicity 2
1  S u0 p2 c0 {2,S} {3,S}
2  C u0 p0 c0 {1,S} {4,S} {11,S} {12,S}
3  C u0 p0 c0 {1,S} {5,S} {10,S} {13,S}
4  C u0 p0 c0 {2,S} {14,S} {15,S} {16,S}
5  C u0 p0 c0 {3,S} {17,S} {18,S} {19,S}
6  C u0 p0 c0 {8,S} {20,S} {21,S} {22,S}
7  C u0 p0 c0 {9,S} {23,S} {24,S}
8  C u1 p1 c0 {6,S} {9,S}
9  C u0 p1 c0 {7,S} {8,S}
10 H u0 p0 c0 {3,S}
11 H u0 p0 c0 {2,S}
12 H u0 p0 c0 {2,S}
13 H u0 p0 c0 {3,S}
14 H u0 p0 c0 {4,S}
15 H u0 p0 c0 {4,S}
16 H u0 p0 c0 {4,S}
17 H u0 p0 c0 {5,S}
18 H u0 p0 c0 {5,S}
19 H u0 p0 c0 {5,S}
20 H u0 p0 c0 {6,S}
21 H u0 p0 c0 {6,S}
22 H u0 p0 c0 {6,S}
23 H u0 p0 c0 {7,S}
24 H u0 p0 c0 {7,S}


>  <multiplicity>  (3) 
2

>  <reaction>  (3) 
rmg_rxn_13857

>  <type>  (3) 
ts

>  <role_mapnums>  (3) 
{"*2": 7, "*1": 3, "*3": 14, "*0": 13, "*4": 2}

>  <role_mapidx>  (3) 
{"*2": 6, "*1": 2, "*3": 13, "*0": 12, "*4": 1}

>  <ordered_mapped_smiles>  (3) 
[CH:1]([CH2:2][CH:3][C:4]([H:8])([H:9])[H:10])([H:5])[H:6].[H:7][C:14]([S:13][C:12]([C:11]([H:16])([H:17])[H:18])([H:19])[H:20])([C:15]([H:22])([H:23])[H:24])[H:21]

>  <mol_properties>  (3) 
{"1": {"label": "*4", "atom_type": "C2s"}, "2": {"label": "*1", "atom_type": "C2s"}, "6": {"label": "*2", "atom_type": "H0"}, "12": {"label": "*0", "atom_type": "S2s"}, "13": {"label": "*3", "atom_type": "Cs"}}

>  <level_of_theory>  (3) 
wb97xd/def2tzvp

>  <lot_method>  (3) 
wb97xd

>  <lot_basis>  (3) 
def2tzvp

>  <spin_multiplicity>  (3) 
2.0

>  <optical_isomers>  (3) 
2.0

>  <modes>  (3) 
IdealGasTranslation(mass=(143.089, 'amu')),         NonlinearRotor(             inertia = ([310.205, 676.599, 721.764

>  <frequency_value>  (3) 
-1690.92

>  <frequency_units>  (3) 
cm^-1

>  <frequency_list>  (3) 
unknown

>  <arkane_path>  (3) 
/home/calvin/Dropbox/PersonalFolders/Calvin/ZEUS_Converged/rmg_rxn_13857/output/rxns/TS0/arkane/output.py

>  <path_exists>  (3) 
True

>  <E0_value>  (3) 
-1868730.0

>  <E0_units>  (3) 
kJ/mol

>  <thermo_class>  (3) 
unknown

>  <Cp0_value>  (3) 
unknown

>  <Cp0_units>  (3) 
unknown

>  <CpInf_value>  (3) 
unknown

>  <CpInf_units>  (3) 
unknown

>  <Tmin_value>  (3) 
unknown

>  <Tmin_units>  (3) 
unknown

>  <Tmax_value>  (3) 
unknown

>  <Tmax_units>  (3) 
unknown

>  <polynomials>  (3) 
unknown

>  <H298_value>  (3) 
unknown

>  <H298_units>  (3) 
unknown

>  <S298_value>  (3) 
unknown

>  <S298_units>  (3) 
unknown

>  <Cp_T_value_list>  (3) 
unknown

>  <Cp_T_units>  (3) 
unknown

>  <T_list>  (3) 
unknown

>  <T_units>  (3) 
unknown

>  <yaml_path>  (3) 
unknown

>  <frequencies_cm1>  (3) 
unknown

>  <ZPE_kJmol>  (3) 
unknown

>  <E_elec_kJmol>  (3) 
unknown

>  <E0_minus_Eelec_plus_ZPE_kJmol>  (3) 
unknown

>  <rxn>  (3) 
unknown

>  <species_type>  (3) 
unknown

>  <species_folder>  (3) 
unknown

>  <frequencies_cm1_list>  (3) 
[]

>  <ts_imag_freq_cm1>  (3) 
-1711.4554

>  <ts_freq_out_path>  (3) 
/home/calvin/Dropbox/PersonalFolders/Calvin/ZEUS_Converged/rmg_rxn_13857/output/rxns/TS0/geometry/freq.out

>  <E0_kJmol>  (3) 
-1.86873e+06

>  <H298_kJmol>  (3) 
unknown

$$$$

     RDKit          3D

  9  8  0  0  0  0  0  0  0  0999 V2000
    2.2285    0.1429   -0.1875 C   0  0  0  0  0  0  0  0  0  1  0  0
    0.8689    0.0588   -0.0734 C   0  0  0  0  0  0  0  0  0  2  0  0
   -0.3436   -0.0148    0.0282 C   0  0  0  0  0  3  0  0  0  3  0  0
   -1.7876   -0.1130    0.1500 C   0  0  0  0  0  0  0  0  0  4  0  0
    2.8646    0.0330    0.6803 H   0  0  0  0  0  0  0  0  0  5  0  0
    2.6934    0.3211   -1.1477 H   0  0  0  0  0  0  0  0  0  6  0  0
   -2.1322    0.3380    1.0826 H   0  0  0  0  0  0  0  0  0  7  0  0
   -2.1068   -1.1583    0.1470 H   0  0  0  0  0  0  0  0  0  8  0  0
   -2.2854    0.3923   -0.6795 H   0  0  0  0  0  0  0  0  0  9  0  0
  1  5  1  0
  1  6  1  0
  1  2  1  0
  2  3  1  0
  3  4  1  0
  4  8  1  0
  4  9  1  0
  4  7  1  0
M  RAD  1   3   2
M  END
>  <rmg_smiles>  (4) 
[CH2]C[C]C

>  <rmg_adjacency_list>  (4) 
multiplicity 2
1 C u0 p0 c0 {3,S} {5,S} {6,S} {7,S}
2 C u0 p0 c0 {4,S} {8,S} {9,S}
3 C u1 p1 c0 {1,S} {4,S}
4 C u0 p1 c0 {2,S} {3,S}
5 H u0 p0 c0 {1,S}
6 H u0 p0 c0 {1,S}
7 H u0 p0 c0 {1,S}
8 H u0 p0 c0 {2,S}
9 H u0 p0 c0 {2,S}


>  <multiplicity>  (4) 
2

>  <reaction>  (4) 
rmg_rxn_13857

>  <type>  (4) 
r1

>  <role_mapnums>  (4) 
{}

>  <role_mapidx>  (4) 
{}

>  <ordered_mapped_smiles>  (4) 
[CH:1]([CH2:2][CH:3][C:4]([H:7])([H:8])[H:9])([H:5])[H:6]

>  <level_of_theory>  (4) 
wb97xd/def2tzvp

>  <lot_method>  (4) 
wb97xd

>  <lot_basis>  (4) 
def2tzvp

>  <spin_multiplicity>  (4) 
2.0

>  <optical_isomers>  (4) 
2.0

>  <modes>  (4) 
IdealGasTranslation(mass=(53.0391, 'amu')),         NonlinearRotor(             inertia = ([4.88746, 139.242, 140.992

>  <frequency_value>  (4) 
unknown

>  <frequency_units>  (4) 
unknown

>  <frequency_list>  (4) 
unknown

>  <arkane_path>  (4) 
/home/calvin/Dropbox/PersonalFolders/Calvin/ZEUS_Converged/rmg_rxn_13857/output/Species/rmg_rxn_13857_p1_sbr-CH2-sbrCtCC/arkane/output.py

>  <path_exists>  (4) 
True

>  <E0_value>  (4) 
-407625.4064849041

>  <E0_units>  (4) 
kJ/mol

>  <thermo_class>  (4) 
NASA

>  <Cp0_value>  (4) 
33.257888

>  <Cp0_units>  (4) 
J/(mol*K)

>  <CpInf_value>  (4) 
207.8618

>  <CpInf_units>  (4) 
J/(mol*K)

>  <Tmin_value>  (4) 
10.0

>  <Tmin_units>  (4) 
K

>  <Tmax_value>  (4) 
3000.0

>  <Tmax_units>  (4) 
K

>  <polynomials>  (4) 
[{"name": "polynomial1", "class": "NASAPolynomial", "Tmin_value": 10.0, "Tmin_units": "K", "Tmax_value": 502.0268159976515, "Tmax_units": "K", "coeffs": [3.687270830426517, 0.029053628934412008, -4.470123428186127e-05, 7.503439468745092e-08, -5.158529094876398e-11, -49026010.75493378, 10.46372665339021]}, {"name": "polynomial2", "class": "NASAPolynomial", "Tmin_value": 502.0268159976515, "Tmin_units": "K", "Tmax_value": 3000.0, "Tmax_units": "K", "coeffs": [2.898462070883104, 0.02729908073702909, -1.54375900595206e-05, 4.274702323061024e-09, -4.631616133105543e-13, -49025830.24365362, 14.734719774038638]}]

>  <H298_value>  (4) 
-97420.5979578768

>  <H298_units>  (4) 
kcal/mol

>  <S298_value>  (4) 
76.91244568160063

>  <S298_units>  (4) 
cal/(mol*K)

>  <Cp_T_value_list>  (4) 
[19.848886680568814, 23.127392893703846, 26.219193390336713, 28.980799697634083, 33.49755626219656, 36.90539253248215, 42.11858387906473, 44.77831245492002, 46.14816382733488]

>  <Cp_T_units>  (4) 
cal/(mol*K)

>  <T_list>  (4) 
[300.0, 400.0, 500.0, 600.0, 800.0, 1000.0, 1500.0, 2000.0, 2400.0]

>  <T_units>  (4) 
K

>  <yaml_path>  (4) 
/home/calvin/Dropbox/PersonalFolders/Calvin/ZEUS_Converged/rmg_rxn_13857/output/Species/rmg_rxn_13857_p1_sbr-CH2-sbrCtCC/rmg_rxn_13857_p1_sbr-CH2-sbrCtCC.yml

>  <frequencies_cm1>  (4) 
[24.18552229704, 186.74766577739996, 206.32544092471997, 398.28514856, 428.84323323399997, 670.45124473288, 768.8002084859199, 1023.53102893132, 1025.11730254024, 1044.32426048028, 1244.297739984, 1401.51050190008, 1455.78715386936, 1460.16829050352, 1460.7931861676398, 2137.33544687936, 3007.2588811876003, 3071.0325738544398, 3085.0961597897995, 3128.557309880079, 3222.30539346872]

>  <ZPE_kJmol>  (4) 
182.1360065892337

>  <E_elec_kJmol>  (4) 
-407807.5424914933

>  <E0_minus_Eelec_plus_ZPE_kJmol>  (4) 
0.0

>  <rxn>  (4) 
rmg_rxn_13857

>  <species_type>  (4) 
p0

>  <species_folder>  (4) 
rmg_rxn_13857_p1_sbr-CH2-sbrCtCC

>  <frequencies_cm1_list>  (4) 
[24.18552229704, 186.74766577739996, 206.32544092471997, 398.28514856, 428.84323323399997, 670.45124473288, 768.8002084859199, 1023.53102893132, 1025.11730254024, 1044.32426048028, 1244.297739984, 1401.51050190008, 1455.78715386936, 1460.16829050352, 1460.7931861676398, 2137.33544687936, 3007.2588811876003, 3071.0325738544398, 3085.0961597897995, 3128.557309880079, 3222.30539346872]

>  <E0_kJmol>  (4) 
-407625

>  <H298_kJmol>  (4) 
-407608

$$$$

     RDKit          3D

 14 13  0  0  0  0  0  0  0  0999 V2000
    2.6194    0.1388   -0.2451 C   0  0  0  0  0  0  0  0  0  1  0  0
    1.2416   -0.4914   -0.3670 C   0  0  0  0  0  0  0  0  0  2  0  0
    0.9567   -1.8675    0.7732 S   0  0  0  0  0  0  0  0  0  3  0  0
    1.9992   -3.0673    0.1320 C   0  0  0  0  0  3  0  0  0  4  0  0
    2.1769   -4.3519    0.8615 C   0  0  0  0  0  0  0  0  0  5  0  0
    3.4009   -0.5920   -0.4552 H   0  0  0  0  0  0  0  0  0  6  0  0
    2.7219    0.9635   -0.9540 H   0  0  0  0  0  0  0  0  0  7  0  0
    2.7821    0.5262    0.7612 H   0  0  0  0  0  0  0  0  0  8  0  0
    1.0587   -0.8507   -1.3815 H   0  0  0  0  0  0  0  0  0  9  0  0
    0.4587    0.2313   -0.1333 H   0  0  0  0  0  0  0  0  0 10  0  0
    2.2677   -2.9922   -0.9152 H   0  0  0  0  0  0  0  0  0 11  0  0
    1.3745   -5.0711    0.6500 H   0  0  0  0  0  0  0  0  0 12  0  0
    3.1173   -4.8269    0.5747 H   0  0  0  0  0  0  0  0  0 13  0  0
    2.1945   -4.1971    1.9428 H   0  0  0  0  0  0  0  0  0 14  0  0
  1  8  1  0
  1  7  1  0
  1  6  1  0
  1  2  1  0
  2 10  1  0
  2  9  1  0
  2  3  1  0
  3  4  1  0
  4  5  1  0
  4 11  1  0
  5 12  1  0
  5 14  1  0
  5 13  1  0
M  RAD  1   4   2
M  END
>  <rmg_smiles>  (5) 
CCS[CH]C

>  <rmg_adjacency_list>  (5) 
multiplicity 2
1  S u0 p2 c0 {2,S} {5,S}
2  C u0 p0 c0 {1,S} {3,S} {6,S} {7,S}
3  C u0 p0 c0 {2,S} {8,S} {9,S} {10,S}
4  C u0 p0 c0 {5,S} {11,S} {12,S} {13,S}
5  C u1 p0 c0 {1,S} {4,S} {14,S}
6  H u0 p0 c0 {2,S}
7  H u0 p0 c0 {2,S}
8  H u0 p0 c0 {3,S}
9  H u0 p0 c0 {3,S}
10 H u0 p0 c0 {3,S}
11 H u0 p0 c0 {4,S}
12 H u0 p0 c0 {4,S}
13 H u0 p0 c0 {4,S}
14 H u0 p0 c0 {5,S}


>  <multiplicity>  (5) 
2

>  <reaction>  (5) 
rmg_rxn_13857

>  <type>  (5) 
r2

>  <role_mapnums>  (5) 
{}

>  <role_mapidx>  (5) 
{}

>  <ordered_mapped_smiles>  (5) 
[C:1]([C:2]([S:3][C:4]([C:5]([H:12])([H:13])[H:14])[H:11])([H:9])[H:10])([H:6])([H:7])[H:8]

>  <level_of_theory>  (5) 
wb97xd/def2tzvp

>  <lot_method>  (5) 
wb97xd

>  <lot_basis>  (5) 
def2tzvp

>  <spin_multiplicity>  (5) 
2.0

>  <optical_isomers>  (5) 
2.0

>  <modes>  (5) 
IdealGasTranslation(mass=(89.0425, 'amu')),         NonlinearRotor(             inertia = ([61.1392, 234.583, 269.728

>  <frequency_value>  (5) 
unknown

>  <frequency_units>  (5) 
unknown

>  <frequency_list>  (5) 
unknown

>  <arkane_path>  (5) 
/home/calvin/Dropbox/PersonalFolders/Calvin/ZEUS_Converged/rmg_rxn_13857/output/Species/rmg_rxn_13857_r2_CCSsbr-CH-sbrC/arkane/output.py

>  <path_exists>  (5) 
True

>  <E0_value>  (5) 
-1459485.5935266996

>  <E0_units>  (5) 
kJ/mol

>  <thermo_class>  (5) 
NASA

>  <Cp0_value>  (5) 
33.257888

>  <Cp0_units>  (5) 
J/(mol*K)

>  <CpInf_value>  (5) 
332.57888

>  <CpInf_units>  (5) 
J/(mol*K)

>  <Tmin_value>  (5) 
10.0

>  <Tmin_units>  (5) 
K

>  <Tmax_value>  (5) 
3000.0

>  <Tmax_units>  (5) 
K

>  <polynomials>  (5) 
[{"name": "polynomial1", "class": "NASAPolynomial", "Tmin_value": 10.0, "Tmin_units": "K", "Tmax_value": 454.73662304159825, "Tmax_units": "K", "coeffs": [3.4939298818212348, 0.04996952866924563, -9.706545502989563e-05, 2.0442104538035766e-07, -1.613710195314429e-10, -175535569.79780135, 12.309950530474422]}, {"name": "polynomial2", "class": "NASAPolynomial", "Tmin_value": 454.73662304159825, "Tmin_units": "K", "Tmax_value": 3000.0, "Tmax_units": "K", "coeffs": [1.385629129145083, 0.0487851670730694, -2.8078367222963885e-05, 7.871484428820364e-09, -8.601980512454448e-13, -175535174.0637414, 23.062808107356517]}]

>  <H298_value>  (5) 
-348819.99862547766

>  <H298_units>  (5) 
kcal/mol

>  <S298_value>  (5) 
87.9960956940717

>  <S298_units>  (5) 
cal/(mol*K)

>  <Cp_T_value_list>  (5) 
[27.743708900467787, 33.58998468250266, 39.125699503008875, 43.99133906264934, 51.90875633128673, 57.83509235905732, 66.76727844436545, 71.24373968248531, 73.5559096612526]

>  <Cp_T_units>  (5) 
cal/(mol*K)

>  <T_list>  (5) 
[300.0, 400.0, 500.0, 600.0, 800.0, 1000.0, 1500.0, 2000.0, 2400.0]

>  <T_units>  (5) 
K

>  <yaml_path>  (5) 
/home/calvin/Dropbox/PersonalFolders/Calvin/ZEUS_Converged/rmg_rxn_13857/output/Species/rmg_rxn_13857_r2_CCSsbr-CH-sbrC/rmg_rxn_13857_r2_CCSsbr-CH-sbrC.yml

>  <frequencies_cm1>  (5) 
[75.52310454936, 94.65452565087999, 130.82293733132, 178.45921449616, 258.28105185583996, 303.93277026320004, 399.92635805147995, 433.28617273604, 673.1087680517201, 749.4147089275599, 777.8920970496, 982.3977868645198, 1001.81075436416, 1020.13873818324, 1056.2934158930398, 1066.42908622536, 1115.65850398444, 1268.2978536774, 1291.53573200028, 1305.242234699, 1399.3061996123597, 1400.4461191754801, 1458.1905987313598, 1459.3785871917198, 1474.98037783876, 1476.0447605633601, 1485.12978214172, 2961.25694652892, 3017.9164424042397, 3034.9122310712396, 3037.7551629937198, 3080.4884126400793, 3082.99486228188, 3091.50992407868, 3108.8215940703994, 3146.2535310497196]

>  <ZPE_kJmol>  (5) 
310.42200324991666

>  <E_elec_kJmol>  (5) 
-1459796.0155299497

>  <E0_minus_Eelec_plus_ZPE_kJmol>  (5) 
0.0

>  <rxn>  (5) 
rmg_rxn_13857

>  <species_type>  (5) 
r1

>  <species_folder>  (5) 
rmg_rxn_13857_r2_CCSsbr-CH-sbrC

>  <frequencies_cm1_list>  (5) 
[75.52310454936, 94.65452565087999, 130.82293733132, 178.45921449616, 258.28105185583996, 303.93277026320004, 399.92635805147995, 433.28617273604, 673.1087680517201, 749.4147089275599, 777.8920970496, 982.3977868645198, 1001.81075436416, 1020.13873818324, 1056.2934158930398, 1066.42908622536, 1115.65850398444, 1268.2978536774, 1291.53573200028, 1305.242234699, 1399.3061996123597, 1400.4461191754801, 1458.1905987313598, 1459.3785871917198, 1474.98037783876, 1476.0447605633601, 1485.12978214172, 2961.25694652892, 3017.9164424042397, 3034.9122310712396, 3037.7551629937198, 3080.4884126400793, 3082.99486228188, 3091.50992407868, 3108.8215940703994, 3146.2535310497196]

>  <E0_kJmol>  (5) 
-1.45949e+06

>  <H298_kJmol>  (5) 
-1.45946e+06

$$$$
