
     RDKit          3D

 10  9  0  0  0  0  0  0  0  0999 V2000
    0.4344    0.5579    1.7480 C   0  0  0  0  0  0  0  0  0  1  0  0
    0.0240   -0.0151    0.6850 C   0  0  0  0  0  2  0  0  0  2  0  0
   -0.4776   -0.4916   -0.4358 C   0  0  0  0  0  0  0  0  0  3  0  0
    0.0108   -0.1108   -1.8018 C   0  0  0  0  0  0  0  0  0  4  0  0
   -0.1116    1.4450    2.0313 H   0  0  0  0  0  0  0  0  0  5  0  0
    1.2348    0.3023    2.4259 H   0  0  0  0  0  0  0  0  0  6  0  0
   -1.2828   -1.2169   -0.3714 H   0  0  0  0  0  0  0  0  0  7  0  0
    0.3939   -0.9822   -2.3393 H   0  0  0  0  0  0  0  0  0  8  0  0
    0.8073    0.6304   -1.7422 H   0  0  0  0  0  0  0  0  0  9  0  0
   -0.8026    0.3053   -2.4026 H   0  0  0  0  0  0  0  0  0 10  0  0
  1  5  1  0
  1  6  1  0
  1  2  1  0
  2  3  1  0
  3  4  1  0
  3  7  1  0
  4  8  1  0
  4  9  1  0
  4 10  1  0
M  RAD  1   2   3
M  END
>  <rmg_smiles>  (1) 
[CH2][C][CH]C

>  <rmg_adjacency_list>  (1) 
1  C u0 p0 c0 {2,S} {5,S} {6,S} {7,S}
2  C u0 p0 c0 {1,S} {4,S} {8,S}
3  C u0 p0 c0 {4,S} {9,S} {10,S}
4  C u0 p1 c0 {2,S} {3,S}
5  H u0 p0 c0 {1,S}
6  H u0 p0 c0 {1,S}
7  H u0 p0 c0 {1,S}
8  H u0 p0 c0 {2,S}
9  H u0 p0 c0 {3,S}
10 H u0 p0 c0 {3,S}


>  <multiplicity>  (1) 
1

>  <reaction>  (1) 
rmg_rxn_14055

>  <type>  (1) 
r1h

>  <role_mapnums>  (1) 
{"r1h_a": 1, "r1h_h": 5}

>  <role_mapidx>  (1) 
{"r1h_a": 0, "r1h_h": 4}

>  <ordered_mapped_smiles>  (1) 
[CH:1]([C:2][CH:3]([C:4]([H:8])([H:9])[H:10])[H:7])([H:5])[H:6]

>  <mol_properties>  (1) 
{"0": {"label": "donator", "atom_type": "Cs"}, "4": {"label": "d_hydrogen", "atom_type": "H0"}}

>  <level_of_theory>  (1) 
wb97xd/def2tzvp

>  <lot_method>  (1) 
wb97xd

>  <lot_basis>  (1) 
def2tzvp

>  <spin_multiplicity>  (1) 
1.0

>  <optical_isomers>  (1) 
1.0

>  <modes>  (1) 
IdealGasTranslation(mass=(54.047, 'amu')),         NonlinearRotor(             inertia = ([14.6121, 119.467, 127.49

>  <frequency_value>  (1) 
unknown

>  <frequency_units>  (1) 
unknown

>  <frequency_list>  (1) 
unknown

>  <arkane_path>  (1) 
/home/calvin/Dropbox/PersonalFolders/Calvin/ZEUS_Converged/rmg_rxn_14055/output/Species/rmg_rxn_14055_r1_C=C=CC/arkane/output.py

>  <path_exists>  (1) 
True

>  <E0_value>  (1) 
-409296.6502421279

>  <E0_units>  (1) 
kJ/mol

>  <thermo_class>  (1) 
NASA

>  <Cp0_value>  (1) 
33.257888

>  <Cp0_units>  (1) 
J/(mol*K)

>  <CpInf_value>  (1) 
232.805216

>  <CpInf_units>  (1) 
J/(mol*K)

>  <Tmin_value>  (1) 
10.0

>  <Tmin_units>  (1) 
K

>  <Tmax_value>  (1) 
3000.0

>  <Tmax_units>  (1) 
K

>  <polynomials>  (1) 
[{"name": "polynomial1", "class": "NASAPolynomial", "Tmin_value": 10.0, "Tmin_units": "K", "Tmax_value": 452.8802664009696, "Tmax_units": "K", "coeffs": [3.9021943352433452, 0.007937521032632688, 6.664442489196733e-05, -1.2131953588307993e-07, 6.938885885775227e-11, -49227014.555544384, 8.255511443201872]}, {"name": "polynomial2", "class": "NASAPolynomial", "Tmin_value": 452.8802664009696, "Tmin_units": "K", "Tmax_value": 3000.0, "Tmax_units": "K", "coeffs": [0.958037882717614, 0.033941191741253485, -1.948265019694705e-05, 5.463813645242153e-09, -5.979209978345261e-13, -49226747.88374059, 20.12723627389473]}]

>  <H298_value>  (1) 
-97820.47439749332

>  <H298_units>  (1) 
kcal/mol

>  <S298_value>  (1) 
69.30943774444917

>  <S298_units>  (1) 
cal/(mol*K)

>  <Cp_T_value_list>  (1) 
[19.013335795722274, 23.35407848830737, 27.231838984706652, 30.626214617830076, 36.15654523435027, 40.30546036176962, 46.594544625367064, 49.786664420046236, 51.450781523093035]

>  <Cp_T_units>  (1) 
cal/(mol*K)

>  <T_list>  (1) 
[300.0, 400.0, 500.0, 600.0, 800.0, 1000.0, 1500.0, 2000.0, 2400.0]

>  <T_units>  (1) 
K

>  <yaml_path>  (1) 
/home/calvin/Dropbox/PersonalFolders/Calvin/ZEUS_Converged/rmg_rxn_14055/output/Species/rmg_rxn_14055_r1_C=C=CC/rmg_rxn_14055_r1_C=C=CC.yml

>  <frequencies_cm1>  (1) 
[164.84884959192, 210.28769145436, 340.98015606459995, 540.2944049775999, 574.7186023867599, 878.6239047086799, 884.0282221555199, 895.09093550604, 1017.79709618912, 1055.91573170044, 1088.91159616304, 1146.5530709391198, 1353.77808694076, 1399.01778622892, 1463.354571692, 1470.3726306890399, 1494.8053644576, 2061.4346581373993, 3012.63573069316, 3072.0282867258397, 3106.42501619372, 3110.62074422424, 3124.134971334, 3189.66661224276]

>  <ZPE_kJmol>  (1) 
219.25357474583132

>  <E_elec_kJmol>  (1) 
-409515.9038168737

>  <E0_minus_Eelec_plus_ZPE_kJmol>  (1) 
0.0

>  <rxn>  (1) 
rmg_rxn_14055

>  <species_type>  (1) 
r0

>  <species_folder>  (1) 
rmg_rxn_14055_r1_C=C=CC

>  <frequencies_cm1_list>  (1) 
[164.84884959192, 210.28769145436, 340.98015606459995, 540.2944049775999, 574.7186023867599, 878.6239047086799, 884.0282221555199, 895.09093550604, 1017.79709618912, 1055.91573170044, 1088.91159616304, 1146.5530709391198, 1353.77808694076, 1399.01778622892, 1463.354571692, 1470.3726306890399, 1494.8053644576, 2061.4346581373993, 3012.63573069316, 3072.0282867258397, 3106.42501619372, 3110.62074422424, 3124.134971334, 3189.66661224276]

>  <E0_kJmol>  (1) 
-409297

>  <H298_kJmol>  (1) 
-409281

$$$$

     RDKit          3D

 15 14  0  0  0  0  0  0  0  0999 V2000
    1.5679   -1.1699    1.8948 H   0  0  0  0  0  0  0  0  0  1  0  0
    0.8975   -0.3161    2.0057 C   0  0  0  0  0  0  0  0  0  2  0  0
    0.0849   -0.3228    0.9091 O   0  0  0  0  0  0  0  0  0  3  0  0
    0.7070    0.1280   -0.2825 C   0  0  0  0  0  0  0  0  0  4  0  0
   -0.2255   -0.1209   -1.4469 C   0  0  0  0  0  0  0  0  0  5  0  0
   -1.5315    0.6565   -1.3538 C   0  0  0  0  0  0  0  0  0  6  0  0
    0.3222   -0.5173    2.9062 H   0  0  0  0  0  0  0  0  0  7  0  0
    1.5541    0.5566    2.0844 H   0  0  0  0  0  0  0  0  0  8  0  0
    1.6506   -0.4090   -0.4251 H   0  0  0  0  0  0  0  0  0  9  0  0
    0.9341    1.1993   -0.1852 H   0  0  0  0  0  0  0  0  0 10  0  0
   -0.4267   -1.1942   -1.4958 H   0  0  0  0  0  0  0  0  0 11  0  0
    0.3081    0.1456   -2.3635 H   0  0  0  0  0  0  0  0  0 12  0  0
   -2.1708    0.4519   -2.2138 H   0  0  0  0  0  0  0  0  0 13  0  0
   -2.0801    0.3859   -0.4515 H   0  0  0  0  0  0  0  0  0 14  0  0
   -1.3445    1.7327   -1.3237 H   0  0  0  0  0  0  0  0  0 15  0  0
  1  2  1  0
  2  8  1  0
  2  7  1  0
  2  3  1  0
  3  4  1  0
  4  5  1  0
  4  9  1  0
  4 10  1  0
  5 11  1  0
  5 12  1  0
  5  6  1  0
  6 15  1  0
  6 14  1  0
  6 13  1  0
M  END
>  <rmg_smiles>  (2) 
CCCOC

>  <rmg_adjacency_list>  (2) 
1  O u0 p2 c0 {3,S} {5,S}
2  C u0 p0 c0 {3,S} {4,S} {6,S} {7,S}
3  C u0 p0 c0 {1,S} {2,S} {8,S} {9,S}
4  C u0 p0 c0 {2,S} {10,S} {11,S} {12,S}
5  C u0 p0 c0 {1,S} {13,S} {14,S} {15,S}
6  H u0 p0 c0 {2,S}
7  H u0 p0 c0 {2,S}
8  H u0 p0 c0 {3,S}
9  H u0 p0 c0 {3,S}
10 H u0 p0 c0 {4,S}
11 H u0 p0 c0 {4,S}
12 H u0 p0 c0 {4,S}
13 H u0 p0 c0 {5,S}
14 H u0 p0 c0 {5,S}
15 H u0 p0 c0 {5,S}


>  <multiplicity>  (2) 
1

>  <reaction>  (2) 
rmg_rxn_14055

>  <type>  (2) 
r2h

>  <role_mapnums>  (2) 
{"r2h_a": 2, "r2h_h": 1}

>  <role_mapidx>  (2) 
{"r2h_a": 1, "r2h_h": 0}

>  <ordered_mapped_smiles>  (2) 
[H:1][C:2]([O:3][C:4]([C:5]([C:6]([H:13])([H:14])[H:15])([H:11])[H:12])([H:9])[H:10])([H:7])[H:8]

>  <mol_properties>  (2) 
{"0": {"label": "a_hydrogen", "atom_type": "H0"}, "1": {"label": "acceptor", "atom_type": "Cs"}}

>  <level_of_theory>  (2) 
wb97xd/def2tzvp

>  <lot_method>  (2) 
wb97xd

>  <lot_basis>  (2) 
def2tzvp

>  <spin_multiplicity>  (2) 
1.0

>  <optical_isomers>  (2) 
2.0

>  <modes>  (2) 
IdealGasTranslation(mass=(74.0732, 'amu')),         NonlinearRotor(             inertia = ([40.784, 192.218, 211.735

>  <frequency_value>  (2) 
unknown

>  <frequency_units>  (2) 
unknown

>  <frequency_list>  (2) 
unknown

>  <arkane_path>  (2) 
/home/calvin/Dropbox/PersonalFolders/Calvin/ZEUS_Converged/rmg_rxn_14055/output/Species/rmg_rxn_14055_p2_CCCOC/arkane/output.py

>  <path_exists>  (2) 
True

>  <E0_value>  (2) 
-613163.1274359095

>  <E0_units>  (2) 
kJ/mol

>  <thermo_class>  (2) 
NASA

>  <Cp0_value>  (2) 
33.257888

>  <Cp0_units>  (2) 
J/(mol*K)

>  <CpInf_value>  (2) 
357.522296

>  <CpInf_units>  (2) 
J/(mol*K)

>  <Tmin_value>  (2) 
10.0

>  <Tmin_units>  (2) 
K

>  <Tmax_value>  (2) 
3000.0

>  <Tmax_units>  (2) 
K

>  <polynomials>  (2) 
[{"name": "polynomial1", "class": "NASAPolynomial", "Tmin_value": 10.0, "Tmin_units": "K", "Tmax_value": 456.12560324554056, "Tmax_units": "K", "coeffs": [3.62223196701835, 0.03879795217402279, -8.359648491421e-05, 2.4522721819815076e-07, -2.187140949836333e-10, -73746489.62884024, 10.515609438787227]}, {"name": "polynomial2", "class": "NASAPolynomial", "Tmin_value": 456.12560324554056, "Tmin_units": "K", "Tmax_value": 3000.0, "Tmax_units": "K", "coeffs": [-2.20935170520275, 0.056485006605310945, -3.174876766111153e-05, 8.65420390010314e-09, -9.198389746305381e-13, -73745609.6450763, 37.88661603232218]}]

>  <H298_value>  (2) 
-146544.64412500645

>  <H298_units>  (2) 
kcal/mol

>  <S298_value>  (2) 
80.94634663649457

>  <S298_units>  (2) 
cal/(mol*K)

>  <Cp_T_value_list>  (2) 
[25.013931424396034, 31.51994949570118, 37.99587562842776, 43.72290058989096, 53.08549647523409, 60.13535702830284, 70.81347633831932, 76.07383878332065, 78.6922399009724]

>  <Cp_T_units>  (2) 
cal/(mol*K)

>  <T_list>  (2) 
[300.0, 400.0, 500.0, 600.0, 800.0, 1000.0, 1500.0, 2000.0, 2400.0]

>  <T_units>  (2) 
K

>  <yaml_path>  (2) 
/home/calvin/Dropbox/PersonalFolders/Calvin/ZEUS_Converged/rmg_rxn_14055/output/Species/rmg_rxn_14055_p2_CCCOC/rmg_rxn_14055_p2_CCCOC.yml

>  <frequencies_cm1>  (2) 
[91.63991909539999, 126.96369158147998, 202.90568223536002, 229.57705321824, 300.01172164547995, 354.24717170284, 509.22129640459997, 764.38473692516, 888.9449836446399, 924.72884414716, 957.6835066978399, 1072.9458552940398, 1116.4482072962398, 1154.8689901616399, 1177.001283848, 1188.20133690492, 1229.14230338276, 1271.07211574668, 1307.65941353164, 1369.5858871474, 1403.3027850685999, 1415.972372984, 1467.6807724436, 1468.93743075716, 1475.31686011944, 1481.9915698504797, 1490.39675988216, 1494.07059702836, 1510.75737135596, 2928.3984217727198, 2950.9908034755194, 2962.18398954712, 2998.10518975604, 3014.75762915704, 3020.7181724148, 3057.78615917216, 3085.0343569219203, 3099.33828734348, 3104.91427942332]

>  <ZPE_kJmol>  (2) 
356.89332738911673

>  <E_elec_kJmol>  (2) 
-613520.0207632986

>  <E0_minus_Eelec_plus_ZPE_kJmol>  (2) 
0.0

>  <rxn>  (2) 
rmg_rxn_14055

>  <species_type>  (2) 
p1

>  <species_folder>  (2) 
rmg_rxn_14055_p2_CCCOC

>  <frequencies_cm1_list>  (2) 
[91.63991909539999, 126.96369158147998, 202.90568223536002, 229.57705321824, 300.01172164547995, 354.24717170284, 509.22129640459997, 764.38473692516, 888.9449836446399, 924.72884414716, 957.6835066978399, 1072.9458552940398, 1116.4482072962398, 1154.8689901616399, 1177.001283848, 1188.20133690492, 1229.14230338276, 1271.07211574668, 1307.65941353164, 1369.5858871474, 1403.3027850685999, 1415.972372984, 1467.6807724436, 1468.93743075716, 1475.31686011944, 1481.9915698504797, 1490.39675988216, 1494.07059702836, 1510.75737135596, 2928.3984217727198, 2950.9908034755194, 2962.18398954712, 2998.10518975604, 3014.75762915704, 3020.7181724148, 3057.78615917216, 3085.0343569219203, 3099.33828734348, 3104.91427942332]

>  <E0_kJmol>  (2) 
-613163

>  <H298_kJmol>  (2) 
-613143

$$$$

     RDKit          3D

 24 22  0  0  0  0  0  0  0  0999 V2000
    1.6025   -1.1947    1.6542 C   0  0  0  0  0  0  0  0  0  1  0  0
    1.1921   -1.7676    0.5912 C   0  0  0  0  0  0  0  0  0  2  0  0
    0.6905   -2.2441   -0.5296 C   0  0  0  0  0  3  0  0  0  3  0  0
    1.1789   -1.8633   -1.8956 C   0  0  0  0  0  0  0  0  0  4  0  0
    0.9176   -0.0819    2.0095 H   0  0  0  0  0  0  0  0  0  5  0  0
    2.4029   -1.4502    2.3321 H   0  0  0  0  0  0  0  0  0  6  0  0
   -0.1148   -2.9694   -0.4652 H   0  0  0  0  0  0  0  0  0  7  0  0
    1.5620   -2.7347   -2.4331 H   0  0  0  0  0  0  0  0  0  8  0  0
    1.9754   -1.1221   -1.8360 H   0  0  0  0  0  0  0  0  0  9  0  0
    0.3655   -1.4472   -2.4964 H   0  0  0  0  0  0  0  0  0 10  0  0
    0.0935    0.9675    2.1459 C   0  0  0  0  0  0  0  0  0 11  0  0
   -0.7190    0.9609    1.0492 O   0  0  0  0  0  0  0  0  0 12  0  0
   -0.0969    1.4116   -0.1423 C   0  0  0  0  0  0  0  0  0 13  0  0
   -1.0294    1.1628   -1.3068 C   0  0  0  0  0  0  0  0  0 14  0  0
   -2.3354    1.9401   -1.2137 C   0  0  0  0  0  0  0  0  0 15  0  0
   -0.4817    0.7664    3.0464 H   0  0  0  0  0  0  0  0  0 16  0  0
    0.7502    1.8403    2.2246 H   0  0  0  0  0  0  0  0  0 17  0  0
    0.8467    0.8747   -0.2849 H   0  0  0  0  0  0  0  0  0 18  0  0
    0.1302    2.4830   -0.0450 H   0  0  0  0  0  0  0  0  0 19  0  0
   -1.2306    0.0895   -1.3557 H   0  0  0  0  0  0  0  0  0 20  0  0
   -0.4958    1.4292   -2.2234 H   0  0  0  0  0  0  0  0  0 21  0  0
   -2.9747    1.7356   -2.0736 H   0  0  0  0  0  0  0  0  0 22  0  0
   -2.8840    1.6695   -0.3114 H   0  0  0  0  0  0  0  0  0 23  0  0
   -2.1484    3.0163   -1.1836 H   0  0  0  0  0  0  0  0  0 24  0  0
  1  6  1  0
  1  2  1  0
  2  3  1  0
  3  4  1  0
  3  7  1  0
  4 10  1  0
  4  9  1  0
  4  8  1  0
  5 11  1  0
 11 12  1  0
 11 17  1  0
 11 16  1  0
 12 13  1  0
 13 19  1  0
 13 18  1  0
 13 14  1  0
 14 15  1  0
 14 20  1  0
 14 21  1  0
 15 23  1  0
 15 22  1  0
 15 24  1  0
M  RAD  1   3   2
M  END
>  <rmg_smiles>  (3) 
CCCOC.[CH]C[CH]C

>  <rmg_adjacency_list>  (3) 
multiplicity 2
1  O u0 p2 c0 {3,S} {6,S}
2  C u0 p0 c0 {3,S} {4,S} {10,S} {11,S}
3  C u0 p0 c0 {1,S} {2,S} {12,S} {13,S}
4  C u0 p0 c0 {2,S} {14,S} {15,S} {16,S}
5  C u0 p0 c0 {7,S} {17,S} {18,S} {19,S}
6  C u0 p0 c0 {1,S} {20,S} {21,S} {22,S}
7  C u1 p0 c0 {5,S} {8,S} {23,S}
8  C u0 p1 c0 {7,S} {9,S}
9  C u0 p1 c0 {8,S} {24,S}
10 H u0 p0 c0 {2,S}
11 H u0 p0 c0 {2,S}
12 H u0 p0 c0 {3,S}
13 H u0 p0 c0 {3,S}
14 H u0 p0 c0 {4,S}
15 H u0 p0 c0 {4,S}
16 H u0 p0 c0 {4,S}
17 H u0 p0 c0 {5,S}
18 H u0 p0 c0 {5,S}
19 H u0 p0 c0 {5,S}
20 H u0 p0 c0 {6,S}
21 H u0 p0 c0 {6,S}
22 H u0 p0 c0 {6,S}
23 H u0 p0 c0 {7,S}
24 H u0 p0 c0 {9,S}


>  <multiplicity>  (3) 
2

>  <reaction>  (3) 
rmg_rxn_14055

>  <type>  (3) 
ts

>  <role_mapnums>  (3) 
{"*2": 5, "*1": 1, "*3": 11, "*0": 12, "*4": 2}

>  <role_mapidx>  (3) 
{"*2": 4, "*1": 0, "*3": 10, "*0": 11, "*4": 1}

>  <ordered_mapped_smiles>  (3) 
[CH2:1]([CH2:2][C:3]([C:4]([H:8])([H:9])[H:10])[H:7])[H:6].[H:5][C:11]([O:12][C:13]([C:14]([C:15]([H:22])([H:23])[H:24])([H:20])[H:21])([H:18])[H:19])([H:16])[H:17]

>  <mol_properties>  (3) 
{"0": {"label": "*1", "atom_type": "C2s"}, "1": {"label": "*4", "atom_type": "C2s"}, "4": {"label": "*2", "atom_type": "H0"}, "10": {"label": "*3", "atom_type": "Cs"}, "11": {"label": "*0", "atom_type": "O2s"}}

>  <level_of_theory>  (3) 
wb97xd/def2tzvp

>  <lot_method>  (3) 
wb97xd

>  <lot_basis>  (3) 
def2tzvp

>  <spin_multiplicity>  (3) 
2.0

>  <optical_isomers>  (3) 
2.0

>  <modes>  (3) 
IdealGasTranslation(mass=(127.112, 'amu')),         NonlinearRotor(             inertia = ([293.179, 498.972, 729.031

>  <frequency_value>  (3) 
-1709.16

>  <frequency_units>  (3) 
cm^-1

>  <frequency_list>  (3) 
unknown

>  <arkane_path>  (3) 
/home/calvin/Dropbox/PersonalFolders/Calvin/ZEUS_Converged/rmg_rxn_14055/output/rxns/TS0/arkane/output.py

>  <path_exists>  (3) 
True

>  <E0_value>  (3) 
-1020700.0

>  <E0_units>  (3) 
kJ/mol

>  <thermo_class>  (3) 
unknown

>  <Cp0_value>  (3) 
unknown

>  <Cp0_units>  (3) 
unknown

>  <CpInf_value>  (3) 
unknown

>  <CpInf_units>  (3) 
unknown

>  <Tmin_value>  (3) 
unknown

>  <Tmin_units>  (3) 
unknown

>  <Tmax_value>  (3) 
unknown

>  <Tmax_units>  (3) 
unknown

>  <polynomials>  (3) 
unknown

>  <H298_value>  (3) 
unknown

>  <H298_units>  (3) 
unknown

>  <S298_value>  (3) 
unknown

>  <S298_units>  (3) 
unknown

>  <Cp_T_value_list>  (3) 
unknown

>  <Cp_T_units>  (3) 
unknown

>  <T_list>  (3) 
unknown

>  <T_units>  (3) 
unknown

>  <yaml_path>  (3) 
unknown

>  <frequencies_cm1>  (3) 
unknown

>  <ZPE_kJmol>  (3) 
unknown

>  <E_elec_kJmol>  (3) 
unknown

>  <E0_minus_Eelec_plus_ZPE_kJmol>  (3) 
unknown

>  <rxn>  (3) 
unknown

>  <species_type>  (3) 
unknown

>  <species_folder>  (3) 
unknown

>  <frequencies_cm1_list>  (3) 
[]

>  <ts_imag_freq_cm1>  (3) 
-1729.9171

>  <ts_freq_out_path>  (3) 
/home/calvin/Dropbox/PersonalFolders/Calvin/ZEUS_Converged/rmg_rxn_14055/output/rxns/TS0/geometry/freq.out

>  <E0_kJmol>  (3) 
-1.0207e+06

>  <H298_kJmol>  (3) 
unknown

$$$$

     RDKit          3D

  9  8  0  0  0  0  0  0  0  0999 V2000
    2.3032   -0.0159    0.1474 C   0  0  0  0  0  0  0  0  0  1  0  0
    1.1288    0.2882    0.0537 C   0  0  0  0  0  0  0  0  0  2  0  0
   -0.1975    0.6198   -0.0514 C   0  0  0  0  0  3  0  0  0  3  0  0
   -1.2977   -0.3866   -0.0637 C   0  0  0  0  0  0  0  0  0  4  0  0
    3.3305   -0.2768    0.2290 H   0  0  0  0  0  0  0  0  0  5  0  0
   -0.4545    1.6699   -0.1294 H   0  0  0  0  0  0  0  0  0  6  0  0
   -1.9941   -0.2122    0.7624 H   0  0  0  0  0  0  0  0  0  7  0  0
   -0.9106   -1.4008    0.0205 H   0  0  0  0  0  0  0  0  0  8  0  0
   -1.8810   -0.3144   -0.9870 H   0  0  0  0  0  0  0  0  0  9  0  0
  1  5  1  0
  1  2  1  0
  2  3  1  0
  3  4  1  0
  3  6  1  0
  4  8  1  0
  4  9  1  0
  4  7  1  0
M  RAD  1   3   2
M  END
>  <rmg_smiles>  (4) 
[CH]C[CH]C

>  <rmg_adjacency_list>  (4) 
multiplicity 2
1 C u0 p0 c0 {2,S} {5,S} {6,S} {7,S}
2 C u1 p0 c0 {1,S} {3,S} {8,S}
3 C u0 p1 c0 {2,S} {4,S}
4 C u0 p1 c0 {3,S} {9,S}
5 H u0 p0 c0 {1,S}
6 H u0 p0 c0 {1,S}
7 H u0 p0 c0 {1,S}
8 H u0 p0 c0 {2,S}
9 H u0 p0 c0 {4,S}


>  <multiplicity>  (4) 
2

>  <reaction>  (4) 
rmg_rxn_14055

>  <type>  (4) 
r1

>  <role_mapnums>  (4) 
{}

>  <role_mapidx>  (4) 
{}

>  <ordered_mapped_smiles>  (4) 
[CH2:1]([CH2:2][C:3]([C:4]([H:7])([H:8])[H:9])[H:6])[H:5]

>  <level_of_theory>  (4) 
wb97xd/def2tzvp

>  <lot_method>  (4) 
wb97xd

>  <lot_basis>  (4) 
def2tzvp

>  <spin_multiplicity>  (4) 
2.0

>  <optical_isomers>  (4) 
1.0

>  <modes>  (4) 
IdealGasTranslation(mass=(53.0391, 'amu')),         NonlinearRotor(             inertia = ([13.0163, 113.224, 123.133

>  <frequency_value>  (4) 
unknown

>  <frequency_units>  (4) 
unknown

>  <frequency_list>  (4) 
unknown

>  <arkane_path>  (4) 
/home/calvin/Dropbox/PersonalFolders/Calvin/ZEUS_Converged/rmg_rxn_14055/output/Species/rmg_rxn_14055_p1_CtCsbr-CH-sbrC/arkane/output.py

>  <path_exists>  (4) 
True

>  <E0_value>  (4) 
-407611.0178676695

>  <E0_units>  (4) 
kJ/mol

>  <thermo_class>  (4) 
NASA

>  <Cp0_value>  (4) 
33.257888

>  <Cp0_units>  (4) 
J/(mol*K)

>  <CpInf_value>  (4) 
207.8618

>  <CpInf_units>  (4) 
J/(mol*K)

>  <Tmin_value>  (4) 
10.0

>  <Tmin_units>  (4) 
K

>  <Tmax_value>  (4) 
3000.0

>  <Tmax_units>  (4) 
K

>  <polynomials>  (4) 
[{"name": "polynomial1", "class": "NASAPolynomial", "Tmin_value": 10.0, "Tmin_units": "K", "Tmax_value": 225.11887521318957, "Tmax_units": "K", "coeffs": [3.926630915296947, 0.006749895207816258, 0.00012836532533525932, -4.255246557274593e-07, 4.774973939090027e-10, -49024283.36301313, 9.039132667777825]}, {"name": "polynomial2", "class": "NASAPolynomial", "Tmin_value": 225.11887521318957, "Tmin_units": "K", "Tmax_value": 3000.0, "Tmax_units": "K", "coeffs": [2.6986748332678068, 0.028568074177661083, -1.700823692128483e-05, 4.972064259878094e-09, -5.660420030452739e-13, -49024228.07421419, 13.132307964760544]}]

>  <H298_value>  (4) 
-97417.4250763192

>  <H298_units>  (4) 
kcal/mol

>  <S298_value>  (4) 
72.15097842486317

>  <S298_units>  (4) 
cal/(mol*K)

>  <Cp_T_value_list>  (4) 
[19.60978665647869, 23.26682584091865, 26.463197946296326, 29.246037785772845, 33.74616181148779, 37.09028399063582, 42.12357583735745, 44.755303495765276, 46.19958894045869]

>  <Cp_T_units>  (4) 
cal/(mol*K)

>  <T_list>  (4) 
[300.0, 400.0, 500.0, 600.0, 800.0, 1000.0, 1500.0, 2000.0, 2400.0]

>  <T_units>  (4) 
K

>  <yaml_path>  (4) 
/home/calvin/Dropbox/PersonalFolders/Calvin/ZEUS_Converged/rmg_rxn_14055/output/Species/rmg_rxn_14055_p1_CtCsbr-CH-sbrC/rmg_rxn_14055_p1_CtCsbr-CH-sbrC.yml

>  <frequencies_cm1>  (4) 
[83.48880752056, 211.55808373855996, 392.1460636839199, 478.7318815838, 554.46786267808, 595.8689171723599, 660.0408949877599, 865.1234115695598, 998.98842339764, 1092.3794237496397, 1143.5041294570399, 1380.42198998236, 1394.47184194708, 1461.2464071987597, 1480.32289241772, 2005.2901861610799, 2994.3489487859997, 3043.5921005157197, 3109.5494945143196, 3150.5453968747197, 3427.4428459330793]

>  <ZPE_kJmol>  (4) 
182.57130571804632

>  <E_elec_kJmol>  (4) 
-407793.5891733875

>  <E0_minus_Eelec_plus_ZPE_kJmol>  (4) 
0.0

>  <rxn>  (4) 
rmg_rxn_14055

>  <species_type>  (4) 
p0

>  <species_folder>  (4) 
rmg_rxn_14055_p1_CtCsbr-CH-sbrC

>  <frequencies_cm1_list>  (4) 
[83.48880752056, 211.55808373855996, 392.1460636839199, 478.7318815838, 554.46786267808, 595.8689171723599, 660.0408949877599, 865.1234115695598, 998.98842339764, 1092.3794237496397, 1143.5041294570399, 1380.42198998236, 1394.47184194708, 1461.2464071987597, 1480.32289241772, 2005.2901861610799, 2994.3489487859997, 3043.5921005157197, 3109.5494945143196, 3150.5453968747197, 3427.4428459330793]

>  <E0_kJmol>  (4) 
-407611

>  <H298_kJmol>  (4) 
-407595

$$$$

     RDKit          3D

 14 13  0  0  0  0  0  0  0  0999 V2000
    2.7687   -0.0362   -0.0732 C   0  0  0  0  0  3  0  0  0  1  0  0
    1.6543    0.2105    0.6386 O   0  0  0  0  0  0  0  0  0  2  0  0
    1.8652    0.6968    1.9544 C   0  0  0  0  0  0  0  0  0  3  0  0
    0.5252    0.9355    2.6156 C   0  0  0  0  0  0  0  0  0  4  0  0
   -0.2992    2.0181    1.9317 C   0  0  0  0  0  0  0  0  0  5  0  0
    2.5851   -0.4757   -1.0422 H   0  0  0  0  0  0  0  0  0  6  0  0
    3.6974   -0.2083    0.4611 H   0  0  0  0  0  0  0  0  0  7  0  0
    2.4441    1.6271    1.9039 H   0  0  0  0  0  0  0  0  0  8  0  0
    2.4506   -0.0397    2.5179 H   0  0  0  0  0  0  0  0  0  9  0  0
    0.7150    1.2089    3.6572 H   0  0  0  0  0  0  0  0  0 10  0  0
   -0.0287   -0.0066    2.6327 H   0  0  0  0  0  0  0  0  0 11  0  0
   -0.5056    1.7522    0.8949 H   0  0  0  0  0  0  0  0  0 12  0  0
   -1.2524    2.1635    2.4416 H   0  0  0  0  0  0  0  0  0 13  0  0
    0.2319    2.9729    1.9340 H   0  0  0  0  0  0  0  0  0 14  0  0
  1  6  1  0
  1  7  1  0
  1  2  1  0
  2  3  1  0
  3  4  1  0
  3  9  1  0
  3  8  1  0
  4  5  1  0
  4 10  1  0
  4 11  1  0
  5 12  1  0
  5 14  1  0
  5 13  1  0
M  RAD  1   1   2
M  END
>  <rmg_smiles>  (5) 
[CH2]OCCC

>  <rmg_adjacency_list>  (5) 
multiplicity 2
1  O u0 p2 c0 {3,S} {5,S}
2  C u0 p0 c0 {3,S} {4,S} {6,S} {7,S}
3  C u0 p0 c0 {1,S} {2,S} {8,S} {9,S}
4  C u0 p0 c0 {2,S} {10,S} {11,S} {12,S}
5  C u1 p0 c0 {1,S} {13,S} {14,S}
6  H u0 p0 c0 {2,S}
7  H u0 p0 c0 {2,S}
8  H u0 p0 c0 {3,S}
9  H u0 p0 c0 {3,S}
10 H u0 p0 c0 {4,S}
11 H u0 p0 c0 {4,S}
12 H u0 p0 c0 {4,S}
13 H u0 p0 c0 {5,S}
14 H u0 p0 c0 {5,S}


>  <multiplicity>  (5) 
2

>  <reaction>  (5) 
rmg_rxn_14055

>  <type>  (5) 
r2

>  <role_mapnums>  (5) 
{}

>  <role_mapidx>  (5) 
{}

>  <ordered_mapped_smiles>  (5) 
[C:1]([O:2][C:3]([C:4]([C:5]([H:12])([H:13])[H:14])([H:10])[H:11])([H:8])[H:9])([H:6])[H:7]

>  <level_of_theory>  (5) 
wb97xd/def2tzvp

>  <lot_method>  (5) 
wb97xd

>  <lot_basis>  (5) 
def2tzvp

>  <spin_multiplicity>  (5) 
2.0

>  <optical_isomers>  (5) 
2.0

>  <modes>  (5) 
IdealGasTranslation(mass=(73.0653, 'amu')),         NonlinearRotor(             inertia = ([39.3229, 184.047, 204.898

>  <frequency_value>  (5) 
unknown

>  <frequency_units>  (5) 
unknown

>  <frequency_list>  (5) 
unknown

>  <arkane_path>  (5) 
/home/calvin/Dropbox/PersonalFolders/Calvin/ZEUS_Converged/rmg_rxn_14055/output/Species/rmg_rxn_14055_r2_sbr-CH2-sbrOCCC/arkane/output.py

>  <path_exists>  (5) 
True

>  <E0_value>  (5) 
-611455.1532625885

>  <E0_units>  (5) 
kJ/mol

>  <thermo_class>  (5) 
NASA

>  <Cp0_value>  (5) 
33.257888

>  <Cp0_units>  (5) 
J/(mol*K)

>  <CpInf_value>  (5) 
332.57888

>  <CpInf_units>  (5) 
J/(mol*K)

>  <Tmin_value>  (5) 
10.0

>  <Tmin_units>  (5) 
K

>  <Tmax_value>  (5) 
3000.0

>  <Tmax_units>  (5) 
K

>  <polynomials>  (5) 
[{"name": "polynomial1", "class": "NASAPolynomial", "Tmin_value": 10.0, "Tmin_units": "K", "Tmax_value": 1109.3056835189027, "Tmax_units": "K", "coeffs": [3.766077454752429, 0.02887154275827062, 1.3341842735734053e-05, -2.640470384303258e-08, 9.144010343931049e-12, -73541070.10703768, 11.047285254369589]}, {"name": "polynomial2", "class": "NASAPolynomial", "Tmin_value": 1109.3056835189027, "Tmin_units": "K", "Tmax_value": 3000.0, "Tmax_units": "K", "coeffs": [4.990743337834248, 0.03863055175051041, -1.9021631506903658e-05, 4.564123452357677e-09, -4.3134097115964196e-13, -73542213.97043335, 1.080843504244336]}]

>  <H298_value>  (5) 
-146136.37590473582

>  <H298_units>  (5) 
kcal/mol

>  <S298_value>  (5) 
82.43769476343623

>  <S298_units>  (5) 
cal/(mol*K)

>  <Cp_T_value_list>  (5) 
[25.81271075697348, 31.782536242597924, 37.37582139534663, 42.473983817866326, 50.92866332440899, 57.07012534981277, 66.28953861729629, 71.09599464983064, 73.37373385794714]

>  <Cp_T_units>  (5) 
cal/(mol*K)

>  <T_list>  (5) 
[300.0, 400.0, 500.0, 600.0, 800.0, 1000.0, 1500.0, 2000.0, 2400.0]

>  <T_units>  (5) 
K

>  <yaml_path>  (5) 
/home/calvin/Dropbox/PersonalFolders/Calvin/ZEUS_Converged/rmg_rxn_14055/output/Species/rmg_rxn_14055_r2_sbr-CH2-sbrOCCC/rmg_rxn_14055_r2_sbr-CH2-sbrOCCC.yml

>  <frequencies_cm1>  (5) 
[79.56089191752, 133.9748835932, 204.21040944615999, 276.052809864, 302.19542297723996, 360.72273885959993, 511.54233744275996, 544.8334822741199, 763.2310833913999, 886.9054890046, 919.7640137608, 955.60281014588, 1080.2385937038798, 1111.8129922052399, 1161.9831869531602, 1207.84091492012, 1267.4394805124, 1296.41129157748, 1308.06456566552, 1371.5429779635997, 1405.5826241948398, 1414.2350256980396, 1468.23699825452, 1474.5271568076398, 1482.83620904484, 1494.26973960264, 1500.99938521624, 2973.8097956938796, 3010.5481671558796, 3017.55249218228, 3026.25982956804, 3060.5123523442, 3088.9622725249596, 3092.3682972436795, 3104.9898162618397, 3239.2187783118798]

>  <ZPE_kJmol>  (5) 
320.59234556766944

>  <E_elec_kJmol>  (5) 
-611775.7456081562

>  <E0_minus_Eelec_plus_ZPE_kJmol>  (5) 
0.0

>  <rxn>  (5) 
rmg_rxn_14055

>  <species_type>  (5) 
r1

>  <species_folder>  (5) 
rmg_rxn_14055_r2_sbr-CH2-sbrOCCC

>  <frequencies_cm1_list>  (5) 
[79.56089191752, 133.9748835932, 204.21040944615999, 276.052809864, 302.19542297723996, 360.72273885959993, 511.54233744275996, 544.8334822741199, 763.2310833913999, 886.9054890046, 919.7640137608, 955.60281014588, 1080.2385937038798, 1111.8129922052399, 1161.9831869531602, 1207.84091492012, 1267.4394805124, 1296.41129157748, 1308.06456566552, 1371.5429779635997, 1405.5826241948398, 1414.2350256980396, 1468.23699825452, 1474.5271568076398, 1482.83620904484, 1494.26973960264, 1500.99938521624, 2973.8097956938796, 3010.5481671558796, 3017.55249218228, 3026.25982956804, 3060.5123523442, 3088.9622725249596, 3092.3682972436795, 3104.9898162618397, 3239.2187783118798]

>  <E0_kJmol>  (5) 
-611455

>  <H298_kJmol>  (5) 
-611435

$$$$
