
     RDKit          3D

 13 12  0  0  0  0  0  0  0  0999 V2000
   -1.2330   -0.8208    0.8557 N   0  0  0  0  0  0  0  0  0  1  0  0
   -1.2292   -0.1659   -0.2744 N   0  0  0  0  0  0  0  0  0  2  0  0
   -0.1874    0.2270   -0.9544 C   0  0  0  0  0  0  0  0  0  3  0  0
    1.1878   -0.0544   -0.4663 C   0  0  0  0  0  0  0  0  0  4  0  0
    1.5966    0.8187    0.7260 C   0  0  0  0  0  0  0  0  0  5  0  0
   -2.2349   -0.9973    1.0714 H   0  0  0  0  0  0  0  0  0  6  0  0
   -2.1485    0.0763   -0.6738 H   0  0  0  0  0  0  0  0  0  7  0  0
   -0.4003    0.7724   -1.8616 H   0  0  0  0  0  0  0  0  0  8  0  0
    1.8911    0.0830   -1.2892 H   0  0  0  0  0  0  0  0  0  9  0  0
    1.2362   -1.1062   -0.1620 H   0  0  0  0  0  0  0  0  0 10  0  0
    1.6062    1.8748    0.4509 H   0  0  0  0  0  0  0  0  0 11  0  0
    2.5942    0.5483    1.0758 H   0  0  0  0  0  0  0  0  0 12  0  0
    0.8971    0.6816    1.5510 H   0  0  0  0  0  0  0  0  0 13  0  0
  1  2  1  0
  1  6  1  0
  2  3  1  0
  2  7  1  0
  3  4  1  0
  3  8  1  0
  4  5  1  0
  4  9  1  0
  4 10  1  0
  5 11  1  0
  5 12  1  0
  5 13  1  0
M  END
>  <rmg_smiles>  (1) 
CC[CH]N[NH]

>  <rmg_adjacency_list>  (1) 
1  N u0 p1 c0 {2,S} {5,S} {12,S}
2  N u0 p1 c0 {1,S} {13,S}
3  C u0 p0 c0 {4,S} {5,S} {6,S} {7,S}
4  C u0 p0 c0 {3,S} {8,S} {9,S} {10,S}
5  C u0 p0 c0 {1,S} {3,S} {11,S}
6  H u0 p0 c0 {3,S}
7  H u0 p0 c0 {3,S}
8  H u0 p0 c0 {4,S}
9  H u0 p0 c0 {4,S}
10 H u0 p0 c0 {4,S}
11 H u0 p0 c0 {5,S}
12 H u0 p0 c0 {1,S}
13 H u0 p0 c0 {2,S}


>  <multiplicity>  (1) 
1

>  <reaction>  (1) 
rmg_rxn_2513

>  <type>  (1) 
r1h

>  <role_mapnums>  (1) 
{"r1h_a": 1, "r1h_h": 6}

>  <role_mapidx>  (1) 
{"r1h_a": 0, "r1h_h": 5}

>  <ordered_mapped_smiles>  (1) 
[NH:1]([N:2]([CH:3]([C:4]([C:5]([H:11])([H:12])[H:13])([H:9])[H:10])[H:8])[H:7])[H:6]

>  <mol_properties>  (1) 
{"0": {"label": "donator", "atom_type": "N3s"}, "5": {"label": "d_hydrogen", "atom_type": "H0"}}

>  <level_of_theory>  (1) 
wb97xd/def2tzvp

>  <lot_method>  (1) 
wb97xd

>  <lot_basis>  (1) 
def2tzvp

>  <spin_multiplicity>  (1) 
1.0

>  <optical_isomers>  (1) 
2.0

>  <modes>  (1) 
IdealGasTranslation(mass=(72.0687, 'amu')),         NonlinearRotor(             inertia = ([54.1798, 139.96, 170.595

>  <frequency_value>  (1) 
unknown

>  <frequency_units>  (1) 
unknown

>  <frequency_list>  (1) 
unknown

>  <arkane_path>  (1) 
/home/calvin/Dropbox/PersonalFolders/Calvin/ATLAS_Converged/rmg_rxn_2513/output/Species/rmg_rxn_2513_r1_sbr-NH--sbrsbr-NHp-sbr=CCC/arkane/output.py

>  <path_exists>  (1) 
True

>  <E0_value>  (1) 
-599821.0790303417

>  <E0_units>  (1) 
kJ/mol

>  <thermo_class>  (1) 
NASA

>  <Cp0_value>  (1) 
33.257888

>  <Cp0_units>  (1) 
J/(mol*K)

>  <CpInf_value>  (1) 
307.635464

>  <CpInf_units>  (1) 
J/(mol*K)

>  <Tmin_value>  (1) 
10.0

>  <Tmin_units>  (1) 
K

>  <Tmax_value>  (1) 
3000.0

>  <Tmax_units>  (1) 
K

>  <polynomials>  (1) 
[{"name": "polynomial1", "class": "NASAPolynomial", "Tmin_value": 10.0, "Tmin_units": "K", "Tmax_value": 474.62100371348544, "Tmax_units": "K", "coeffs": [3.863855633630711, 0.011851722313415683, 8.535210099928715e-05, -1.5102960252155107e-07, 8.284035082151498e-11, -72141810.52784279, 10.255640547811005]}, {"name": "polynomial2", "class": "NASAPolynomial", "Tmin_value": 474.62100371348544, "Tmin_units": "K", "Tmax_value": 3000.0, "Tmax_units": "K", "coeffs": [-0.3841308393730185, 0.04765291504748579, -2.7794922536047773e-05, 7.900533067068031e-09, -8.741403182726763e-13, -72141407.29235935, 27.583942845321094]}]

>  <H298_value>  (1) 
-143356.35915096157

>  <H298_units>  (1) 
kcal/mol

>  <S298_value>  (1) 
76.35059111278113

>  <S298_units>  (1) 
cal/(mol*K)

>  <Cp_T_value_list>  (1) 
[23.23892736316884, 29.24313299420859, 34.630111546699624, 39.33610214134865, 46.97055843208524, 52.66147786212228, 61.1972756717267, 65.4983830173624, 67.76215740722176]

>  <Cp_T_units>  (1) 
cal/(mol*K)

>  <T_list>  (1) 
[300.0, 400.0, 500.0, 600.0, 800.0, 1000.0, 1500.0, 2000.0, 2400.0]

>  <T_units>  (1) 
K

>  <yaml_path>  (1) 
/home/calvin/Dropbox/PersonalFolders/Calvin/ATLAS_Converged/rmg_rxn_2513/output/Species/rmg_rxn_2513_r1_sbr-NH--sbrsbr-NHp-sbr=CCC/rmg_rxn_2513_r1_sbr-NH--sbrsbr-NHp-sbr=CCC.yml

>  <frequencies_cm1>  (1) 
[136.9620222074, 209.61472689299998, 254.75142140136, 308.30703991204, 470.9447202309199, 604.68612632324, 687.9689242841999, 696.47711909568, 805.7651904634799, 897.4737794120799, 920.54685008728, 1021.0932491427199, 1079.8334415699999, 1128.5341014594399, 1155.1642705303998, 1288.91941059336, 1343.4638749901198, 1373.9807577522, 1387.87266905456, 1398.0289403428399, 1456.3021777683598, 1482.71260330908, 1494.942704164, 1535.7257299794799, 1699.6338025825598, 3005.54900184292, 3019.50958299848, 3066.781909941359, 3090.26699973576, 3110.5040054737997, 3206.03750524564, 3439.3227305366795, 3491.6972275723197]

>  <ZPE_kJmol>  (1) 
300.6777184772831

>  <E_elec_kJmol>  (1) 
-600121.756748819

>  <E0_minus_Eelec_plus_ZPE_kJmol>  (1) 
0.0

>  <rxn>  (1) 
rmg_rxn_2513

>  <species_type>  (1) 
r0

>  <species_folder>  (1) 
rmg_rxn_2513_r1_sbr-NH--sbrsbr-NHp-sbr=CCC

>  <frequencies_cm1_list>  (1) 
[136.9620222074, 209.61472689299998, 254.75142140136, 308.30703991204, 470.9447202309199, 604.68612632324, 687.9689242841999, 696.47711909568, 805.7651904634799, 897.4737794120799, 920.54685008728, 1021.0932491427199, 1079.8334415699999, 1128.5341014594399, 1155.1642705303998, 1288.91941059336, 1343.4638749901198, 1373.9807577522, 1387.87266905456, 1398.0289403428399, 1456.3021777683598, 1482.71260330908, 1494.942704164, 1535.7257299794799, 1699.6338025825598, 3005.54900184292, 3019.50958299848, 3066.781909941359, 3090.26699973576, 3110.5040054737997, 3206.03750524564, 3439.3227305366795, 3491.6972275723197]

>  <E0_kJmol>  (1) 
-599821

>  <H298_kJmol>  (1) 
-599803

$$$$

     RDKit          3D

 15 14  0  0  0  0  0  0  0  0999 V2000
    1.5634   -1.4019    1.0714 H   0  0  0  0  0  0  0  0  0  1  0  0
    0.5035   -1.5472    1.2703 C   0  0  0  0  0  0  0  0  0  2  0  0
   -0.3492   -1.5360    0.0352 C   0  0  0  0  0  0  0  0  0  3  0  0
   -0.1919   -0.0718   -1.0381 S   0  0  0  0  0  0  0  0  0  4  0  0
   -0.5266    1.2943    0.1135 C   0  0  0  0  0  0  0  0  0  5  0  0
    0.7152    1.9304    0.7205 C   0  0  0  0  0  0  0  0  0  6  0  0
    0.2871   -0.7565    1.9852 H   0  0  0  0  0  0  0  0  0  7  0  0
    0.5498   -2.5221    1.7525 H   0  0  0  0  0  0  0  0  0  8  0  0
   -1.4091   -1.6443    0.2871 H   0  0  0  0  0  0  0  0  0  9  0  0
   -0.0921   -2.3695   -0.6212 H   0  0  0  0  0  0  0  0  0 10  0  0
   -1.0874    2.0299   -0.4640 H   0  0  0  0  0  0  0  0  0 11  0  0
   -1.2015    0.9172    0.8837 H   0  0  0  0  0  0  0  0  0 12  0  0
    1.3611    2.3376   -0.0590 H   0  0  0  0  0  0  0  0  0 13  0  0
    0.4314    2.7505    1.3838 H   0  0  0  0  0  0  0  0  0 14  0  0
    1.3008    1.2123    1.2948 H   0  0  0  0  0  0  0  0  0 15  0  0
  1  2  1  0
  2  8  1  0
  2  7  1  0
  2  3  1  0
  3  9  1  0
  3 10  1  0
  3  4  1  0
  4  5  1  0
  5 11  1  0
  5 12  1  0
  5  6  1  0
  6 15  1  0
  6 14  1  0
  6 13  1  0
M  END
>  <rmg_smiles>  (2) 
CCSCC

>  <rmg_adjacency_list>  (2) 
1  S u0 p2 c0 {2,S} {3,S}
2  C u0 p0 c0 {1,S} {4,S} {6,S} {7,S}
3  C u0 p0 c0 {1,S} {5,S} {8,S} {9,S}
4  C u0 p0 c0 {2,S} {10,S} {11,S} {12,S}
5  C u0 p0 c0 {3,S} {13,S} {14,S} {15,S}
6  H u0 p0 c0 {2,S}
7  H u0 p0 c0 {2,S}
8  H u0 p0 c0 {3,S}
9  H u0 p0 c0 {3,S}
10 H u0 p0 c0 {4,S}
11 H u0 p0 c0 {4,S}
12 H u0 p0 c0 {4,S}
13 H u0 p0 c0 {5,S}
14 H u0 p0 c0 {5,S}
15 H u0 p0 c0 {5,S}


>  <multiplicity>  (2) 
1

>  <reaction>  (2) 
rmg_rxn_2513

>  <type>  (2) 
r2h

>  <role_mapnums>  (2) 
{"r2h_a": 2, "r2h_h": 1}

>  <role_mapidx>  (2) 
{"r2h_a": 1, "r2h_h": 0}

>  <ordered_mapped_smiles>  (2) 
[H:1][C:2]([C:3]([S:4][C:5]([C:6]([H:13])([H:14])[H:15])([H:11])[H:12])([H:9])[H:10])([H:7])[H:8]

>  <mol_properties>  (2) 
{"0": {"label": "a_hydrogen", "atom_type": "H0"}, "1": {"label": "acceptor", "atom_type": "Cs"}}

>  <level_of_theory>  (2) 
wb97xd/def2tzvp

>  <lot_method>  (2) 
wb97xd

>  <lot_basis>  (2) 
def2tzvp

>  <spin_multiplicity>  (2) 
1.0

>  <optical_isomers>  (2) 
2.0

>  <modes>  (2) 
IdealGasTranslation(mass=(90.0503, 'amu')),         NonlinearRotor(             inertia = ([97.9259, 182.785, 231.685

>  <frequency_value>  (2) 
unknown

>  <frequency_units>  (2) 
unknown

>  <frequency_list>  (2) 
unknown

>  <arkane_path>  (2) 
/home/calvin/Dropbox/PersonalFolders/Calvin/ATLAS_Converged/rmg_rxn_2513/output/Species/rmg_rxn_2513_p2_CCSCC/arkane/output.py

>  <path_exists>  (2) 
True

>  <E0_value>  (2) 
-1461176.7123028408

>  <E0_units>  (2) 
kJ/mol

>  <thermo_class>  (2) 
NASA

>  <Cp0_value>  (2) 
33.257888

>  <Cp0_units>  (2) 
J/(mol*K)

>  <CpInf_value>  (2) 
357.522296

>  <CpInf_units>  (2) 
J/(mol*K)

>  <Tmin_value>  (2) 
10.0

>  <Tmin_units>  (2) 
K

>  <Tmax_value>  (2) 
3000.0

>  <Tmax_units>  (2) 
K

>  <polynomials>  (2) 
[{"name": "polynomial1", "class": "NASAPolynomial", "Tmin_value": 10.0, "Tmin_units": "K", "Tmax_value": 1062.740332266501, "Tmax_units": "K", "coeffs": [3.7240768769611408, 0.031177750271788266, 1.590200165997747e-05, -3.1138888238628924e-08, 1.1081299545578661e-11, -175738967.30653694, 10.691637972640313]}, {"name": "polynomial2", "class": "NASAPolynomial", "Tmin_value": 1062.740332266501, "Tmin_units": "K", "Tmax_value": 3000.0, "Tmax_units": "K", "coeffs": [4.272256190616837, 0.04355880957526612, -2.1960566897444118e-05, 5.4018330156847166e-09, -5.231130586129144e-13, -175739899.50439465, 4.175990433518907]}]

>  <H298_value>  (2) 
-349224.4948454063

>  <H298_units>  (2) 
kcal/mol

>  <S298_value>  (2) 
82.77165630085062

>  <S298_units>  (2) 
cal/(mol*K)

>  <Cp_T_value_list>  (2) 
[27.339173580692723, 33.84270235009273, 39.920340825285514, 45.438637568785964, 54.52765007672161, 61.099128237827436, 71.10646466743047, 76.29375194018085, 78.77254304981717]

>  <Cp_T_units>  (2) 
cal/(mol*K)

>  <T_list>  (2) 
[300.0, 400.0, 500.0, 600.0, 800.0, 1000.0, 1500.0, 2000.0, 2400.0]

>  <T_units>  (2) 
K

>  <yaml_path>  (2) 
/home/calvin/Dropbox/PersonalFolders/Calvin/ATLAS_Converged/rmg_rxn_2513/output/Species/rmg_rxn_2513_p2_CCSCC/rmg_rxn_2513_p2_CCSCC.yml

>  <frequencies_cm1>  (2) 
[66.48615186823999, 121.63491097315999, 224.63969077315997, 254.99863287287997, 273.62876404604003, 341.45397805167994, 381.0490154068, 647.6597204558, 701.8333676452798, 742.1151035324, 786.8329119362398, 985.17891591912, 988.88708799192, 1023.0091380469999, 1055.1809642711999, 1060.18699656948, 1093.14852610548, 1263.72444145428, 1273.9013136985197, 1289.2490258887199, 1308.3598460342798, 1399.5396771132398, 1399.8967603498797, 1460.7725852116798, 1462.4000607325202, 1478.53747623452, 1481.2362014652797, 1489.1538355392402, 1493.6723118798, 3015.6091353367196, 3016.10355827976, 3035.3242501904397, 3036.18262335544, 3073.69009717328, 3077.2334615983996, 3086.3528181033594, 3086.8953099436403, 3101.4052499247996, 3104.1520440527997]

>  <ZPE_kJmol>  (2) 
348.0016505911852

>  <E_elec_kJmol>  (2) 
-1461524.713953432

>  <E0_minus_Eelec_plus_ZPE_kJmol>  (2) 
0.0

>  <rxn>  (2) 
rmg_rxn_2513

>  <species_type>  (2) 
p1

>  <species_folder>  (2) 
rmg_rxn_2513_p2_CCSCC

>  <frequencies_cm1_list>  (2) 
[66.48615186823999, 121.63491097315999, 224.63969077315997, 254.99863287287997, 273.62876404604003, 341.45397805167994, 381.0490154068, 647.6597204558, 701.8333676452798, 742.1151035324, 786.8329119362398, 985.17891591912, 988.88708799192, 1023.0091380469999, 1055.1809642711999, 1060.18699656948, 1093.14852610548, 1263.72444145428, 1273.9013136985197, 1289.2490258887199, 1308.3598460342798, 1399.5396771132398, 1399.8967603498797, 1460.7725852116798, 1462.4000607325202, 1478.53747623452, 1481.2362014652797, 1489.1538355392402, 1493.6723118798, 3015.6091353367196, 3016.10355827976, 3035.3242501904397, 3036.18262335544, 3073.69009717328, 3077.2334615983996, 3086.3528181033594, 3086.8953099436403, 3101.4052499247996, 3104.1520440527997]

>  <E0_kJmol>  (2) 
-1.46118e+06

>  <H298_kJmol>  (2) 
-1.46116e+06

$$$$

     RDKit          3D

 27 25  0  0  0  0  0  0  0  0999 V2000
    1.1162   -1.0244    0.8044 N   0  0  0  0  0  0  0  0  0  1  0  0
    1.1200   -0.3695   -0.3257 N   0  0  0  0  0  0  0  0  0  2  0  0
    2.1617    0.0235   -1.0057 C   0  0  0  0  0  0  0  0  0  3  0  0
    3.5369   -0.2580   -0.5176 C   0  0  0  0  0  0  0  0  0  4  0  0
    3.9457    0.6151    0.6746 C   0  0  0  0  0  0  0  0  0  5  0  0
   -0.0386   -1.2279    1.0530 H   0  0  0  0  0  0  0  0  0  6  0  0
    0.2006   -0.1273   -0.7252 H   0  0  0  0  0  0  0  0  0  7  0  0
    1.9489    0.5688   -1.9129 H   0  0  0  0  0  0  0  0  0  8  0  0
    4.2403   -0.1205   -1.3405 H   0  0  0  0  0  0  0  0  0  9  0  0
    3.5854   -1.3098   -0.2134 H   0  0  0  0  0  0  0  0  0 10  0  0
    3.9553    1.6713    0.3996 H   0  0  0  0  0  0  0  0  0 11  0  0
    4.9434    0.3447    1.0245 H   0  0  0  0  0  0  0  0  0 12  0  0
    3.2462    0.4780    1.4997 H   0  0  0  0  0  0  0  0  0 13  0  0
   -1.4010   -1.4146    1.3088 C   0  0  0  0  0  3  0  0  0 14  0  0
   -2.2537   -1.4034    0.0736 C   0  0  0  0  0  0  0  0  0 15  0  0
   -2.0964    0.0608   -0.9996 S   0  0  0  0  0  0  0  0  0 16  0  0
   -2.4311    1.4269    0.1519 C   0  0  0  0  0  0  0  0  0 17  0  0
   -1.1892    2.0630    0.7589 C   0  0  0  0  0  0  0  0  0 18  0  0
   -1.6174   -0.6239    2.0236 H   0  0  0  0  0  0  0  0  0 19  0  0
   -1.3547   -2.3895    1.7910 H   0  0  0  0  0  0  0  0  0 20  0  0
   -3.3135   -1.5117    0.3256 H   0  0  0  0  0  0  0  0  0 21  0  0
   -1.9966   -2.2369   -0.5827 H   0  0  0  0  0  0  0  0  0 22  0  0
   -2.9918    2.1626   -0.4255 H   0  0  0  0  0  0  0  0  0 23  0  0
   -3.1060    1.0498    0.9222 H   0  0  0  0  0  0  0  0  0 24  0  0
   -0.5433    2.4702   -0.0206 H   0  0  0  0  0  0  0  0  0 25  0  0
   -1.4730    2.8831    1.4222 H   0  0  0  0  0  0  0  0  0 26  0  0
   -0.6037    1.3449    1.3332 H   0  0  0  0  0  0  0  0  0 27  0  0
  1  2  1  0
  1  6  1  0
  2  7  1  0
  2  3  1  0
  3  4  1  0
  3  8  1  0
  4 10  1  0
  4  9  1  0
  4  5  1  0
  5 12  1  0
  5 11  1  0
  5 13  1  0
 14 15  1  0
 14 19  1  0
 14 20  1  0
 15 22  1  0
 15 21  1  0
 15 16  1  0
 16 17  1  0
 17 18  1  0
 17 23  1  0
 17 24  1  0
 18 25  1  0
 18 27  1  0
 18 26  1  0
M  RAD  1  14   2
M  END
>  <rmg_smiles>  (3) 
[CH2]CSCC.CC[CH]N[NH]

>  <rmg_adjacency_list>  (3) 
multiplicity 2
1  S u0 p2 c0 {5,S} {6,S}
2  N u0 p1 c0 {3,S} {9,S} {24,S}
3  N u0 p1 c0 {2,S} {27,S}
4  C u0 p0 c0 {7,S} {9,S} {11,S} {12,S}
5  C u0 p0 c0 {1,S} {8,S} {13,S} {14,S}
6  C u0 p0 c0 {1,S} {10,S} {18,S} {19,S}
7  C u0 p0 c0 {4,S} {15,S} {16,S} {17,S}
8  C u0 p0 c0 {5,S} {20,S} {21,S} {22,S}
9  C u0 p0 c0 {2,S} {4,S} {23,S}
10 C u1 p0 c0 {6,S} {25,S} {26,S}
11 H u0 p0 c0 {4,S}
12 H u0 p0 c0 {4,S}
13 H u0 p0 c0 {5,S}
14 H u0 p0 c0 {5,S}
15 H u0 p0 c0 {7,S}
16 H u0 p0 c0 {7,S}
17 H u0 p0 c0 {7,S}
18 H u0 p0 c0 {6,S}
19 H u0 p0 c0 {6,S}
20 H u0 p0 c0 {8,S}
21 H u0 p0 c0 {8,S}
22 H u0 p0 c0 {8,S}
23 H u0 p0 c0 {9,S}
24 H u0 p0 c0 {2,S}
25 H u0 p0 c0 {10,S}
26 H u0 p0 c0 {10,S}
27 H u0 p0 c0 {3,S}


>  <multiplicity>  (3) 
2

>  <reaction>  (3) 
rmg_rxn_2513

>  <type>  (3) 
ts

>  <role_mapnums>  (3) 
{"*2": 6, "*1": 1, "*3": 14, "*0": 2, "*4": 15}

>  <role_mapidx>  (3) 
{"*2": 5, "*1": 0, "*3": 13, "*0": 1, "*4": 14}

>  <ordered_mapped_smiles>  (3) 
[NH:1]([N:2]([CH:3]([C:4]([C:5]([H:11])([H:12])[H:13])([H:9])[H:10])[H:8])[H:7])[H:6].[C:14]([C:15]([S:16][C:17]([C:18]([H:25])([H:26])[H:27])([H:23])[H:24])([H:21])[H:22])([H:19])[H:20]

>  <mol_properties>  (3) 
{"0": {"label": "*1", "atom_type": "N3s"}, "1": {"label": "*0", "atom_type": "N3s"}, "5": {"label": "*2", "atom_type": "H0"}, "13": {"label": "*3", "atom_type": "Cs"}, "14": {"label": "*4", "atom_type": "Cs"}}

>  <level_of_theory>  (3) 
wb97xd/def2tzvp

>  <lot_method>  (3) 
wb97xd

>  <lot_basis>  (3) 
def2tzvp

>  <spin_multiplicity>  (3) 
2.0

>  <optical_isomers>  (3) 
2.0

>  <modes>  (3) 
IdealGasTranslation(mass=(161.111, 'amu')),         NonlinearRotor(             inertia = ([301.724, 982.215, 1056.37

>  <frequency_value>  (3) 
-1791.83

>  <frequency_units>  (3) 
cm^-1

>  <frequency_list>  (3) 
unknown

>  <arkane_path>  (3) 
/home/calvin/Dropbox/PersonalFolders/Calvin/ATLAS_Converged/rmg_rxn_2513/output/rxns/TS0/arkane/output.py

>  <path_exists>  (3) 
True

>  <E0_value>  (3) 
-2059250.0

>  <E0_units>  (3) 
kJ/mol

>  <thermo_class>  (3) 
unknown

>  <Cp0_value>  (3) 
unknown

>  <Cp0_units>  (3) 
unknown

>  <CpInf_value>  (3) 
unknown

>  <CpInf_units>  (3) 
unknown

>  <Tmin_value>  (3) 
unknown

>  <Tmin_units>  (3) 
unknown

>  <Tmax_value>  (3) 
unknown

>  <Tmax_units>  (3) 
unknown

>  <polynomials>  (3) 
unknown

>  <H298_value>  (3) 
unknown

>  <H298_units>  (3) 
unknown

>  <S298_value>  (3) 
unknown

>  <S298_units>  (3) 
unknown

>  <Cp_T_value_list>  (3) 
unknown

>  <Cp_T_units>  (3) 
unknown

>  <T_list>  (3) 
unknown

>  <T_units>  (3) 
unknown

>  <yaml_path>  (3) 
unknown

>  <frequencies_cm1>  (3) 
unknown

>  <ZPE_kJmol>  (3) 
unknown

>  <E_elec_kJmol>  (3) 
unknown

>  <E0_minus_Eelec_plus_ZPE_kJmol>  (3) 
unknown

>  <rxn>  (3) 
unknown

>  <species_type>  (3) 
unknown

>  <species_folder>  (3) 
unknown

>  <frequencies_cm1_list>  (3) 
[]

>  <ts_imag_freq_cm1>  (3) 
-1813.5884

>  <ts_freq_out_path>  (3) 
/home/calvin/Dropbox/PersonalFolders/Calvin/ATLAS_Converged/rmg_rxn_2513/output/rxns/TS0/geometry/freq.out

>  <E0_kJmol>  (3) 
-2.05925e+06

>  <H298_kJmol>  (3) 
unknown

$$$$

     RDKit          3D

 12 11  0  0  0  0  0  0  0  0999 V2000
    1.5035    1.1817    1.1767 N   0  0  0  0  0  2  0  0  0  1  0  0
    1.5580   -0.0511    0.8125 N   0  0  0  0  0  0  0  0  0  2  0  0
    0.8482   -0.7137   -0.0804 C   0  0  0  0  0  0  0  0  0  3  0  0
   -0.2212   -0.0125   -0.8376 C   0  0  0  0  0  0  0  0  0  4  0  0
   -1.4527    0.3302    0.0094 C   0  0  0  0  0  0  0  0  0  5  0  0
    2.2746   -0.5859    1.3051 H   0  0  0  0  0  0  0  0  0  6  0  0
    1.0804   -1.7613   -0.1832 H   0  0  0  0  0  0  0  0  0  7  0  0
    0.1929    0.9174   -1.2475 H   0  0  0  0  0  0  0  0  0  8  0  0
   -0.5138   -0.6336   -1.6852 H   0  0  0  0  0  0  0  0  0  9  0  0
   -1.1741    0.9508    0.8624 H   0  0  0  0  0  0  0  0  0 10  0  0
   -2.1844    0.8814   -0.5833 H   0  0  0  0  0  0  0  0  0 11  0  0
   -1.9295   -0.5758    0.3865 H   0  0  0  0  0  0  0  0  0 12  0  0
  1  2  1  0
  2  6  1  0
  2  3  1  0
  3  4  1  0
  3  7  1  0
  4  8  1  0
  4  5  1  0
  4  9  1  0
  5 11  1  0
  5 12  1  0
  5 10  1  0
M  RAD  1   1   2
M  END
>  <rmg_smiles>  (4) 
CC[CH]N[N]

>  <rmg_adjacency_list>  (4) 
multiplicity 2
1  N u0 p1 c0 {2,S} {5,S} {12,S}
2  N u1 p2 c0 {1,S}
3  C u0 p0 c0 {4,S} {5,S} {6,S} {7,S}
4  C u0 p0 c0 {3,S} {8,S} {9,S} {10,S}
5  C u0 p0 c0 {1,S} {3,S} {11,S}
6  H u0 p0 c0 {3,S}
7  H u0 p0 c0 {3,S}
8  H u0 p0 c0 {4,S}
9  H u0 p0 c0 {4,S}
10 H u0 p0 c0 {4,S}
11 H u0 p0 c0 {5,S}
12 H u0 p0 c0 {1,S}


>  <multiplicity>  (4) 
2

>  <reaction>  (4) 
rmg_rxn_2513

>  <type>  (4) 
r1

>  <role_mapnums>  (4) 
{}

>  <role_mapidx>  (4) 
{}

>  <ordered_mapped_smiles>  (4) 
[NH:1][N:2]([CH:3]([C:4]([C:5]([H:10])([H:11])[H:12])([H:8])[H:9])[H:7])[H:6]

>  <level_of_theory>  (4) 
wb97xd/def2tzvp

>  <lot_method>  (4) 
wb97xd

>  <lot_basis>  (4) 
def2tzvp

>  <spin_multiplicity>  (4) 
2.0

>  <optical_isomers>  (4) 
2.0

>  <modes>  (4) 
IdealGasTranslation(mass=(71.0609, 'amu')),         NonlinearRotor(             inertia = ([53.0504, 135.065, 165.702

>  <frequency_value>  (4) 
unknown

>  <frequency_units>  (4) 
unknown

>  <frequency_list>  (4) 
unknown

>  <arkane_path>  (4) 
/home/calvin/Dropbox/PersonalFolders/Calvin/ATLAS_Converged/rmg_rxn_2513/output/Species/rmg_rxn_2513_p1_sbr-N--sbrsbr-NHp-sbr=CCC/arkane/output.py

>  <path_exists>  (4) 
True

>  <E0_value>  (4) 
-598127.5170687066

>  <E0_units>  (4) 
kJ/mol

>  <thermo_class>  (4) 
NASA

>  <Cp0_value>  (4) 
33.257888

>  <Cp0_units>  (4) 
J/(mol*K)

>  <CpInf_value>  (4) 
282.692048

>  <CpInf_units>  (4) 
J/(mol*K)

>  <Tmin_value>  (4) 
10.0

>  <Tmin_units>  (4) 
K

>  <Tmax_value>  (4) 
3000.0

>  <Tmax_units>  (4) 
K

>  <polynomials>  (4) 
[{"name": "polynomial1", "class": "NASAPolynomial", "Tmin_value": 10.0, "Tmin_units": "K", "Tmax_value": 739.503368194945, "Tmax_units": "K", "coeffs": [3.8212379328585713, 0.016802345524941233, 4.7629930678069334e-05, -7.71171177955712e-08, 3.4166267074327374e-11, -71938122.51600246, 10.943747937860826]}, {"name": "polynomial2", "class": "NASAPolynomial", "Tmin_value": 739.503368194945, "Tmin_units": "K", "Tmax_value": 3000.0, "Tmax_units": "K", "coeffs": [1.2982406609696904, 0.04113558631063574, -2.3403213662420655e-05, 6.46061927743499e-09, -6.945186277157762e-13, -71938041.56017812, 20.378739096769376]}]

>  <H298_value>  (4) 
-142951.59456092006

>  <H298_units>  (4) 
kcal/mol

>  <S298_value>  (4) 
77.94371489467113

>  <S298_units>  (4) 
cal/(mol*K)

>  <Cp_T_value_list>  (4) 
[22.541320394993956, 28.023836364171633, 33.03859048742374, 37.39936756071001, 44.21934927606657, 49.27619118148097, 56.89964180189809, 60.667854136705095, 62.577682732751065]

>  <Cp_T_units>  (4) 
cal/(mol*K)

>  <T_list>  (4) 
[300.0, 400.0, 500.0, 600.0, 800.0, 1000.0, 1500.0, 2000.0, 2400.0]

>  <T_units>  (4) 
K

>  <yaml_path>  (4) 
/home/calvin/Dropbox/PersonalFolders/Calvin/ATLAS_Converged/rmg_rxn_2513/output/Species/rmg_rxn_2513_p1_sbr-N--sbrsbr-NHp-sbr=CCC/rmg_rxn_2513_p1_sbr-N--sbrsbr-NHp-sbr=CCC.yml

>  <frequencies_cm1>  (4) 
[108.841717322, 198.85416089656, 256.05614861216003, 294.31212382987997, 511.21958913272005, 575.24049327108, 667.51904200124, 801.3153839761201, 827.2931894416799, 887.88060092004, 1013.14128014216, 1072.8977863968, 1121.7838548898799, 1135.2019442051599, 1287.1133934542, 1337.173716437, 1345.67504426316, 1400.50105505804, 1452.9854238588, 1475.6464754148, 1488.28859538892, 1496.5701796848398, 1535.3961146841198, 2981.79609962104, 3018.4795352004803, 3067.0977912660796, 3094.0507086470793, 3099.5786318296796, 3217.4298338915196, 3404.94660202476]

>  <ZPE_kJmol>  (4) 
264.2209851653227

>  <E_elec_kJmol>  (4) 
-598391.7380538719

>  <E0_minus_Eelec_plus_ZPE_kJmol>  (4) 
0.0

>  <rxn>  (4) 
rmg_rxn_2513

>  <species_type>  (4) 
p0

>  <species_folder>  (4) 
rmg_rxn_2513_p1_sbr-N--sbrsbr-NHp-sbr=CCC

>  <frequencies_cm1_list>  (4) 
[108.841717322, 198.85416089656, 256.05614861216003, 294.31212382987997, 511.21958913272005, 575.24049327108, 667.51904200124, 801.3153839761201, 827.2931894416799, 887.88060092004, 1013.14128014216, 1072.8977863968, 1121.7838548898799, 1135.2019442051599, 1287.1133934542, 1337.173716437, 1345.67504426316, 1400.50105505804, 1452.9854238588, 1475.6464754148, 1488.28859538892, 1496.5701796848398, 1535.3961146841198, 2981.79609962104, 3018.4795352004803, 3067.0977912660796, 3094.0507086470793, 3099.5786318296796, 3217.4298338915196, 3404.94660202476]

>  <E0_kJmol>  (4) 
-598128

>  <H298_kJmol>  (4) 
-598109

$$$$

     RDKit          3D

 14 13  0  0  0  0  0  0  0  0999 V2000
    2.5796   -0.5432    0.2329 C   0  0  0  0  0  3  0  0  0  1  0  0
    1.2594    0.0982    0.3029 C   0  0  0  0  0  0  0  0  0  2  0  0
   -0.0483   -1.0244    0.9576 S   0  0  0  0  0  0  0  0  0  3  0  0
   -0.0049   -2.3732   -0.2491 C   0  0  0  0  0  0  0  0  0  4  0  0
   -0.3891   -1.9781   -1.6653 C   0  0  0  0  0  0  0  0  0  5  0  0
    2.9359   -0.9798   -0.6903 H   0  0  0  0  0  0  0  0  0  6  0  0
    3.1327   -0.7454    1.1400 H   0  0  0  0  0  0  0  0  0  7  0  0
    0.9347    0.4858   -0.6621 H   0  0  0  0  0  0  0  0  0  8  0  0
    1.2442    0.9220    1.0193 H   0  0  0  0  0  0  0  0  0  9  0  0
    0.9819   -2.8380   -0.2257 H   0  0  0  0  0  0  0  0  0 10  0  0
   -0.7110   -3.1037    0.1493 H   0  0  0  0  0  0  0  0  0 11  0  0
    0.3274   -1.2737   -2.0913 H   0  0  0  0  0  0  0  0  0 12  0  0
   -0.4075   -2.8581   -2.3121 H   0  0  0  0  0  0  0  0  0 13  0  0
   -1.3749   -1.5123   -1.6865 H   0  0  0  0  0  0  0  0  0 14  0  0
  1  7  1  0
  1  6  1  0
  1  2  1  0
  2  9  1  0
  2  8  1  0
  2  3  1  0
  3  4  1  0
  4  5  1  0
  4 10  1  0
  4 11  1  0
  5 12  1  0
  5 14  1  0
  5 13  1  0
M  RAD  1   1   2
M  END
>  <rmg_smiles>  (5) 
[CH2]CSCC

>  <rmg_adjacency_list>  (5) 
multiplicity 2
1  S u0 p2 c0 {2,S} {3,S}
2  C u0 p0 c0 {1,S} {4,S} {6,S} {7,S}
3  C u0 p0 c0 {1,S} {5,S} {8,S} {9,S}
4  C u0 p0 c0 {2,S} {10,S} {11,S} {12,S}
5  C u1 p0 c0 {3,S} {13,S} {14,S}
6  H u0 p0 c0 {2,S}
7  H u0 p0 c0 {2,S}
8  H u0 p0 c0 {3,S}
9  H u0 p0 c0 {3,S}
10 H u0 p0 c0 {4,S}
11 H u0 p0 c0 {4,S}
12 H u0 p0 c0 {4,S}
13 H u0 p0 c0 {5,S}
14 H u0 p0 c0 {5,S}


>  <multiplicity>  (5) 
2

>  <reaction>  (5) 
rmg_rxn_2513

>  <type>  (5) 
r2

>  <role_mapnums>  (5) 
{}

>  <role_mapidx>  (5) 
{}

>  <ordered_mapped_smiles>  (5) 
[C:1]([C:2]([S:3][C:4]([C:5]([H:12])([H:13])[H:14])([H:10])[H:11])([H:8])[H:9])([H:6])[H:7]

>  <level_of_theory>  (5) 
wb97xd/def2tzvp

>  <lot_method>  (5) 
wb97xd

>  <lot_basis>  (5) 
def2tzvp

>  <spin_multiplicity>  (5) 
2.0

>  <optical_isomers>  (5) 
2.0

>  <modes>  (5) 
IdealGasTranslation(mass=(89.0425, 'amu')),         NonlinearRotor(             inertia = ([94.593, 177.437, 223.626

>  <frequency_value>  (5) 
unknown

>  <frequency_units>  (5) 
unknown

>  <frequency_list>  (5) 
unknown

>  <arkane_path>  (5) 
/home/calvin/Dropbox/PersonalFolders/Calvin/ATLAS_Converged/rmg_rxn_2513/output/Species/rmg_rxn_2513_r2_sbr-CH2-sbrCSCC/arkane/output.py

>  <path_exists>  (5) 
True

>  <E0_value>  (5) 
-1459449.5066336358

>  <E0_units>  (5) 
kJ/mol

>  <thermo_class>  (5) 
NASA

>  <Cp0_value>  (5) 
33.257888

>  <Cp0_units>  (5) 
J/(mol*K)

>  <CpInf_value>  (5) 
332.57888

>  <CpInf_units>  (5) 
J/(mol*K)

>  <Tmin_value>  (5) 
10.0

>  <Tmin_units>  (5) 
K

>  <Tmax_value>  (5) 
3000.0

>  <Tmax_units>  (5) 
K

>  <polynomials>  (5) 
[{"name": "polynomial1", "class": "NASAPolynomial", "Tmin_value": 10.0, "Tmin_units": "K", "Tmax_value": 1031.5071007618787, "Tmax_units": "K", "coeffs": [3.5714943853963943, 0.03773739256401581, -4.950950990783628e-06, -1.3018660382700517e-08, 5.857037102171146e-12, -175531227.33815667, 12.507822262108592]}, {"name": "polynomial2", "class": "NASAPolynomial", "Tmin_value": 1031.5071007618787, "Tmin_units": "K", "Tmax_value": 3000.0, "Tmax_units": "K", "coeffs": [5.15471759391017, 0.04014233483809902, -2.0873295447536622e-05, 5.302404611852929e-09, -5.296040450423311e-13, -175532008.5243079, 2.617170435341213]}]

>  <H298_value>  (5) 
-348811.48362080817

>  <H298_units>  (5) 
kcal/mol

>  <S298_value>  (5) 
86.99508703546594

>  <S298_units>  (5) 
cal/(mol*K)

>  <Cp_T_value_list>  (5) 
[28.10519018607643, 34.16215665606476, 39.62725284783934, 44.470956897945086, 52.31577082579914, 58.01910235786348, 66.80551106767905, 71.32437388511126, 73.51787619359425]

>  <Cp_T_units>  (5) 
cal/(mol*K)

>  <T_list>  (5) 
[300.0, 400.0, 500.0, 600.0, 800.0, 1000.0, 1500.0, 2000.0, 2400.0]

>  <T_units>  (5) 
K

>  <yaml_path>  (5) 
/home/calvin/Dropbox/PersonalFolders/Calvin/ATLAS_Converged/rmg_rxn_2513/output/Species/rmg_rxn_2513_r2_sbr-CH2-sbrCSCC/rmg_rxn_2513_r2_sbr-CH2-sbrCSCC.yml

>  <frequencies_cm1>  (5) 
[55.01828638384, 115.49582609707998, 192.74254396176, 233.70411139555998, 259.89479340604, 323.54488033712, 364.23176835811995, 563.4155445500401, 638.47169409764, 687.12428508984, 740.0206730098, 780.7556299280399, 985.7694766566399, 1009.68031954088, 1055.6959881701998, 1069.5123626340398, 1077.49179957588, 1214.7147672254398, 1255.0102370831999, 1271.8892869997599, 1297.5512111406, 1400.98174403044, 1442.24545881832, 1457.86785042132, 1467.7288413408398, 1480.70744359564, 1491.3787387829198, 3015.89754872016, 3034.4590100401197, 3035.7156683536796, 3075.4068435032796, 3086.44895589784, 3092.5949077592395, 3102.88851875392, 3127.8568773774396, 3233.1826982156]

>  <ZPE_kJmol>  (5) 
309.45664795415496

>  <E_elec_kJmol>  (5) 
-1459758.96328159

>  <E0_minus_Eelec_plus_ZPE_kJmol>  (5) 
0.0

>  <rxn>  (5) 
rmg_rxn_2513

>  <species_type>  (5) 
r1

>  <species_folder>  (5) 
rmg_rxn_2513_r2_sbr-CH2-sbrCSCC

>  <frequencies_cm1_list>  (5) 
[55.01828638384, 115.49582609707998, 192.74254396176, 233.70411139555998, 259.89479340604, 323.54488033712, 364.23176835811995, 563.4155445500401, 638.47169409764, 687.12428508984, 740.0206730098, 780.7556299280399, 985.7694766566399, 1009.68031954088, 1055.6959881701998, 1069.5123626340398, 1077.49179957588, 1214.7147672254398, 1255.0102370831999, 1271.8892869997599, 1297.5512111406, 1400.98174403044, 1442.24545881832, 1457.86785042132, 1467.7288413408398, 1480.70744359564, 1491.3787387829198, 3015.89754872016, 3034.4590100401197, 3035.7156683536796, 3075.4068435032796, 3086.44895589784, 3092.5949077592395, 3102.88851875392, 3127.8568773774396, 3233.1826982156]

>  <E0_kJmol>  (5) 
-1.45945e+06

>  <H298_kJmol>  (5) 
-1.45943e+06

$$$$
