
     RDKit          3D

  6  5  0  0  0  0  0  0  0  0999 V2000
    0.5999    0.3617    0.9307 C   0  0  0  0  0  0  0  0  0  1  0  0
    0.1345   -0.4774   -0.1104 N   0  0  0  0  0  0  0  0  0  2  0  0
   -0.6829    0.0379   -0.8451 O   0  0  0  0  0  0  0  0  0  3  0  0
   -0.2002    0.3621    1.6691 H   0  0  0  0  0  0  0  0  0  4  0  0
    0.6759    1.4145    0.6531 H   0  0  0  0  0  0  0  0  0  5  0  0
    1.4722   -0.0516    1.4291 H   0  0  0  0  0  0  0  0  0  6  0  0
  1  5  1  0
  1  2  1  0
  1  4  1  0
  1  6  1  0
  2  3  1  0
M  END
>  <rmg_smiles>  (1) 
C[N][O]

>  <rmg_adjacency_list>  (1) 
1 O u0 p2 c0 {2,S}
2 N u0 p1 c0 {1,S} {3,S}
3 C u0 p0 c0 {2,S} {4,S} {5,S} {6,S}
4 H u0 p0 c0 {3,S}
5 H u0 p0 c0 {3,S}
6 H u0 p0 c0 {3,S}


>  <multiplicity>  (1) 
1

>  <reaction>  (1) 
rmg_rxn_588

>  <type>  (1) 
r1h

>  <role_mapnums>  (1) 
{"r1h_a": 1, "r1h_h": 4}

>  <role_mapidx>  (1) 
{"r1h_a": 0, "r1h_h": 3}

>  <ordered_mapped_smiles>  (1) 
[C:1]([NH:2][OH:3])([H:4])([H:5])[H:6]

>  <mol_properties>  (1) 
{"0": {"label": "donator", "atom_type": "Cs"}, "3": {"label": "d_hydrogen", "atom_type": "H0"}}

>  <level_of_theory>  (1) 
wb97xd/def2tzvp

>  <lot_method>  (1) 
wb97xd

>  <lot_basis>  (1) 
def2tzvp

>  <spin_multiplicity>  (1) 
1.0

>  <optical_isomers>  (1) 
1.0

>  <modes>  (1) 
IdealGasTranslation(mass=(45.0215, 'amu')),         NonlinearRotor(             inertia = ([8.07699, 43.5338, 48.4889

>  <frequency_value>  (1) 
unknown

>  <frequency_units>  (1) 
unknown

>  <frequency_list>  (1) 
unknown

>  <arkane_path>  (1) 
/home/calvin/Dropbox/PersonalFolders/Calvin/ATLAS_Converged/rmg_rxn_588/output/Species/rmg_rxn_588_r1_CN=O/arkane/output.py

>  <path_exists>  (1) 
True

>  <E0_value>  (1) 
-445718.776356613

>  <E0_units>  (1) 
kJ/mol

>  <thermo_class>  (1) 
NASA

>  <Cp0_value>  (1) 
33.257888

>  <Cp0_units>  (1) 
J/(mol*K)

>  <CpInf_value>  (1) 
133.031552

>  <CpInf_units>  (1) 
J/(mol*K)

>  <Tmin_value>  (1) 
10.0

>  <Tmin_units>  (1) 
K

>  <Tmax_value>  (1) 
3000.0

>  <Tmax_units>  (1) 
K

>  <polynomials>  (1) 
[{"name": "polynomial1", "class": "NASAPolynomial", "Tmin_value": 10.0, "Tmin_units": "K", "Tmax_value": 511.90687785810604, "Tmax_units": "K", "coeffs": [3.9789352478099715, 0.001161265651303563, 3.748997662509957e-05, -5.8505700772999076e-08, 2.9515965803367326e-11, -53607585.080265164, 6.986782485664598]}, {"name": "polynomial2", "class": "NASAPolynomial", "Tmin_value": 511.90687785810604, "Tmin_units": "K", "Tmax_value": 3000.0, "Tmax_units": "K", "coeffs": [1.9343545091495096, 0.0171365636524948, -9.318546376811868e-06, 2.45056971641056e-09, -2.5158502413706336e-13, -53607375.74155318, 15.481740257492172]}]

>  <H298_value>  (1) 
-106526.42729706276

>  <H298_units>  (1) 
kcal/mol

>  <S298_value>  (1) 
62.01661564600373

>  <S298_units>  (1) 
cal/(mol*K)

>  <Cp_T_value_list>  (1) 
[12.640299105229849, 14.810812294003128, 16.818915965173034, 18.596941456685723, 21.524185210914364, 23.74981328654779, 27.164107834916802, 28.83932173030383, 29.643096991481094]

>  <Cp_T_units>  (1) 
cal/(mol*K)

>  <T_list>  (1) 
[300.0, 400.0, 500.0, 600.0, 800.0, 1000.0, 1500.0, 2000.0, 2400.0]

>  <T_units>  (1) 
K

>  <yaml_path>  (1) 
/home/calvin/Dropbox/PersonalFolders/Calvin/ATLAS_Converged/rmg_rxn_588/output/Species/rmg_rxn_588_r1_CN=O/rmg_rxn_588_r1_CN=O.yml

>  <frequencies_cm1>  (1) 
[159.67800964595997, 581.79159726636, 871.00155100348, 967.4689607788398, 1152.46554529964, 1368.8854546447599, 1439.8214130003598, 1441.90210955232, 1701.8724397968801, 3006.5378477289996, 3098.8369974151196, 3119.62336197876]

>  <ZPE_kJmol>  (1) 
113.10626417033984

>  <E_elec_kJmol>  (1) 
-445831.88262078335

>  <E0_minus_Eelec_plus_ZPE_kJmol>  (1) 
0.0

>  <rxn>  (1) 
rmg_rxn_588

>  <species_type>  (1) 
r0

>  <species_folder>  (1) 
rmg_rxn_588_r1_CN=O

>  <frequencies_cm1_list>  (1) 
[159.67800964595997, 581.79159726636, 871.00155100348, 967.4689607788398, 1152.46554529964, 1368.8854546447599, 1439.8214130003598, 1441.90210955232, 1701.8724397968801, 3006.5378477289996, 3098.8369974151196, 3119.62336197876]

>  <E0_kJmol>  (1) 
-445719

>  <H298_kJmol>  (1) 
-445707

$$$$

     RDKit          3D

 18 17  0  0  0  0  0  0  0  0999 V2000
    2.5232   -1.0930   -0.6405 H   0  0  0  0  0  0  0  0  0  1  0  0
    1.0574   -2.3970   -0.0861 C   0  0  0  0  0  0  0  0  0  2  0  0
    1.6591   -1.0318    0.0186 C   0  0  0  0  0  0  0  0  0  3  0  0
    0.8904    0.1150   -0.5682 C   0  0  0  0  0  0  0  0  0  4  0  0
   -0.2435    0.3454    0.2364 O   0  0  0  0  0  0  0  0  0  5  0  0
   -1.0582    1.3888   -0.2477 C   0  0  0  0  0  0  0  0  0  6  0  0
   -2.2434    1.5495    0.6748 C   0  0  0  0  0  0  0  0  0  7  0  0
    0.7773   -2.6263   -1.1161 H   0  0  0  0  0  0  0  0  0  8  0  0
    1.7419   -3.1685    0.2677 H   0  0  0  0  0  0  0  0  0  9  0  0
    0.1487   -2.4462    0.5227 H   0  0  0  0  0  0  0  0  0 10  0  0
    2.1440   -0.8036    0.9660 H   0  0  0  0  0  0  0  0  0 11  0  0
    0.5898   -0.1217   -1.5983 H   0  0  0  0  0  0  0  0  0 12  0  0
    1.5168    1.0178   -0.6056 H   0  0  0  0  0  0  0  0  0 13  0  0
   -1.3914    1.1570   -1.2690 H   0  0  0  0  0  0  0  0  0 14  0  0
   -0.4783    2.3216   -0.2974 H   0  0  0  0  0  0  0  0  0 15  0  0
   -1.9122    1.7911    1.6854 H   0  0  0  0  0  0  0  0  0 16  0  0
   -2.8900    2.3535    0.3202 H   0  0  0  0  0  0  0  0  0 17  0  0
   -2.8257    0.6283    0.7135 H   0  0  0  0  0  0  0  0  0 18  0  0
  1  3  1  0
  2 10  1  0
  2  9  1  0
  2  8  1  0
  2  3  1  0
  3  4  1  0
  3 11  1  0
  4 13  1  0
  4 12  1  0
  4  5  1  0
  5  6  1  0
  6 15  1  0
  6 14  1  0
  6  7  1  0
  7 17  1  0
  7 18  1  0
  7 16  1  0
M  END
>  <rmg_smiles>  (2) 
CCCOCC

>  <rmg_adjacency_list>  (2) 
1  O u0 p2 c0 {3,S} {4,S}
2  C u0 p0 c0 {3,S} {5,S} {7,S} {8,S}
3  C u0 p0 c0 {1,S} {2,S} {9,S} {10,S}
4  C u0 p0 c0 {1,S} {6,S} {11,S} {12,S}
5  C u0 p0 c0 {2,S} {13,S} {14,S} {15,S}
6  C u0 p0 c0 {4,S} {16,S} {17,S} {18,S}
7  H u0 p0 c0 {2,S}
8  H u0 p0 c0 {2,S}
9  H u0 p0 c0 {3,S}
10 H u0 p0 c0 {3,S}
11 H u0 p0 c0 {4,S}
12 H u0 p0 c0 {4,S}
13 H u0 p0 c0 {5,S}
14 H u0 p0 c0 {5,S}
15 H u0 p0 c0 {5,S}
16 H u0 p0 c0 {6,S}
17 H u0 p0 c0 {6,S}
18 H u0 p0 c0 {6,S}


>  <multiplicity>  (2) 
1

>  <reaction>  (2) 
rmg_rxn_588

>  <type>  (2) 
r2h

>  <role_mapnums>  (2) 
{"r2h_a": 3, "r2h_h": 1}

>  <role_mapidx>  (2) 
{"r2h_a": 2, "r2h_h": 0}

>  <ordered_mapped_smiles>  (2) 
[H:1][C:3]([C:2]([H:8])([H:9])[H:10])([C:4]([O:5][C:6]([C:7]([H:16])([H:17])[H:18])([H:14])[H:15])([H:12])[H:13])[H:11]

>  <mol_properties>  (2) 
{"0": {"label": "a_hydrogen", "atom_type": "H0"}, "2": {"label": "acceptor", "atom_type": "Cs"}}

>  <level_of_theory>  (2) 
wb97xd/def2tzvp

>  <lot_method>  (2) 
wb97xd

>  <lot_basis>  (2) 
def2tzvp

>  <spin_multiplicity>  (2) 
1.0

>  <optical_isomers>  (2) 
2.0

>  <modes>  (2) 
IdealGasTranslation(mass=(88.0888, 'amu')),         NonlinearRotor(             inertia = ([59.5652, 317.445, 349.634

>  <frequency_value>  (2) 
unknown

>  <frequency_units>  (2) 
unknown

>  <frequency_list>  (2) 
unknown

>  <arkane_path>  (2) 
/home/calvin/Dropbox/PersonalFolders/Calvin/ATLAS_Converged/rmg_rxn_588/output/Species/rmg_rxn_588_p2_CCCOCC/arkane/output.py

>  <path_exists>  (2) 
True

>  <E0_value>  (2) 
-716327.3605709573

>  <E0_units>  (2) 
kJ/mol

>  <thermo_class>  (2) 
NASA

>  <Cp0_value>  (2) 
33.257888

>  <Cp0_units>  (2) 
J/(mol*K)

>  <CpInf_value>  (2) 
432.352544

>  <CpInf_units>  (2) 
J/(mol*K)

>  <Tmin_value>  (2) 
10.0

>  <Tmin_units>  (2) 
K

>  <Tmax_value>  (2) 
3000.0

>  <Tmax_units>  (2) 
K

>  <polynomials>  (2) 
[{"name": "polynomial1", "class": "NASAPolynomial", "Tmin_value": 10.0, "Tmin_units": "K", "Tmax_value": 424.14701041358796, "Tmax_units": "K", "coeffs": [3.4707042336928127, 0.05746545203879795, -0.00016719847115372115, 4.780470157694204e-07, -4.3347206706639054e-10, -86154279.58985142, 11.635447004604476]}, {"name": "polynomial2", "class": "NASAPolynomial", "Tmin_value": 424.14701041358796, "Tmin_units": "K", "Tmax_value": 3000.0, "Tmax_units": "K", "coeffs": [-2.8535624465972114, 0.06921008708460846, -3.934323609424939e-05, 1.0841890934368647e-08, -1.163418506360095e-12, -86153312.26572455, 41.80111524234505]}]

>  <H298_value>  (2) 
-171200.6815246165

>  <H298_units>  (2) 
kcal/mol

>  <S298_value>  (2) 
88.37399878129293

>  <S298_units>  (2) 
cal/(mol*K)

>  <Cp_T_value_list>  (2) 
[29.924593767526826, 38.16083070533892, 46.09960348181722, 53.05840207682852, 64.40406715451496, 72.91410593462665, 85.72980278110597, 92.03567805993791, 95.21197800865355]

>  <Cp_T_units>  (2) 
cal/(mol*K)

>  <T_list>  (2) 
[300.0, 400.0, 500.0, 600.0, 800.0, 1000.0, 1500.0, 2000.0, 2400.0]

>  <T_units>  (2) 
K

>  <yaml_path>  (2) 
/home/calvin/Dropbox/PersonalFolders/Calvin/ATLAS_Converged/rmg_rxn_588/output/Species/rmg_rxn_588_p2_CCCOCC/rmg_rxn_588_p2_CCCOCC.yml

>  <frequencies_cm1>  (2) 
[76.60808822992, 85.88538539723999, 152.39213822143998, 171.44115549912, 250.05440344247998, 256.05614861216003, 329.51915756551995, 440.0707542322, 493.7774464199199, 767.98990421816, 823.02879155796, 891.3896304185598, 900.4815189822399, 929.41899512072, 1002.9850088538799, 1082.00340893112, 1102.9065122452, 1152.52734816752, 1174.9617892079598, 1182.44680320676, 1190.2339645596398, 1270.1176047871998, 1295.23017010244, 1305.6473868328799, 1368.30176089256, 1380.4425909383199, 1399.7456866728398, 1405.4521514737598, 1443.92787022172, 1468.7794900948002, 1470.37949767436, 1482.5752636026798, 1487.2448136202797, 1494.6336898246, 1500.58049911172, 1519.49904366832, 2928.8997117010795, 2942.5512785172396, 2962.4655359452395, 2968.54281795344, 3015.14904732028, 3021.7276192568397, 3024.0692612509597, 3058.7338031463196, 3085.2403664815197, 3101.8035350733594, 3104.27564978856, 3105.2988306012394]

>  <ZPE_kJmol>  (2) 
431.0594598774012

>  <E_elec_kJmol>  (2) 
-716758.4200308347

>  <E0_minus_Eelec_plus_ZPE_kJmol>  (2) 
0.0

>  <rxn>  (2) 
rmg_rxn_588

>  <species_type>  (2) 
p1

>  <species_folder>  (2) 
rmg_rxn_588_p2_CCCOCC

>  <frequencies_cm1_list>  (2) 
[76.60808822992, 85.88538539723999, 152.39213822143998, 171.44115549912, 250.05440344247998, 256.05614861216003, 329.51915756551995, 440.0707542322, 493.7774464199199, 767.98990421816, 823.02879155796, 891.3896304185598, 900.4815189822399, 929.41899512072, 1002.9850088538799, 1082.00340893112, 1102.9065122452, 1152.52734816752, 1174.9617892079598, 1182.44680320676, 1190.2339645596398, 1270.1176047871998, 1295.23017010244, 1305.6473868328799, 1368.30176089256, 1380.4425909383199, 1399.7456866728398, 1405.4521514737598, 1443.92787022172, 1468.7794900948002, 1470.37949767436, 1482.5752636026798, 1487.2448136202797, 1494.6336898246, 1500.58049911172, 1519.49904366832, 2928.8997117010795, 2942.5512785172396, 2962.4655359452395, 2968.54281795344, 3015.14904732028, 3021.7276192568397, 3024.0692612509597, 3058.7338031463196, 3085.2403664815197, 3101.8035350733594, 3104.27564978856, 3105.2988306012394]

>  <E0_kJmol>  (2) 
-716327

>  <H298_kJmol>  (2) 
-716304

$$$$

     RDKit          3D

 23 21  0  0  0  0  0  0  0  0999 V2000
    2.5256   -0.4877   -0.8412 C   0  0  0  0  0  0  0  0  0  1  0  0
    2.0602   -1.3269   -1.8822 N   0  0  0  0  0  0  0  0  0  2  0  0
    1.2427   -0.8115   -2.6170 O   0  0  0  0  0  0  0  0  0  3  0  0
    1.6026   -0.4872    0.0106 H   0  0  0  0  0  0  0  0  0  4  0  0
    2.6015    0.5651   -1.1187 H   0  0  0  0  0  0  0  0  0  5  0  0
    3.3978   -0.9010   -0.3427 H   0  0  0  0  0  0  0  0  0  6  0  0
   -0.1495   -1.7710    0.7834 C   0  0  0  0  0  0  0  0  0  7  0  0
    0.4522   -0.4058    0.8880 C   0  0  0  0  0  3  0  0  0  8  0  0
   -0.3164    0.7411    0.3013 C   0  0  0  0  0  0  0  0  0  9  0  0
   -1.4504    0.9714    1.1059 O   0  0  0  0  0  0  0  0  0 10  0  0
   -2.2650    2.0148    0.6218 C   0  0  0  0  0  0  0  0  0 11  0  0
   -3.4502    2.1755    1.5443 C   0  0  0  0  0  0  0  0  0 12  0  0
   -0.4295   -2.0003   -0.2467 H   0  0  0  0  0  0  0  0  0 13  0  0
    0.5350   -2.5425    1.1372 H   0  0  0  0  0  0  0  0  0 14  0  0
   -1.0581   -1.8202    1.3921 H   0  0  0  0  0  0  0  0  0 15  0  0
    0.9371   -0.1776    1.8354 H   0  0  0  0  0  0  0  0  0 16  0  0
   -0.6171    0.5043   -0.7289 H   0  0  0  0  0  0  0  0  0 17  0  0
    0.3099    1.6438    0.2639 H   0  0  0  0  0  0  0  0  0 18  0  0
   -2.5983    1.7830   -0.3995 H   0  0  0  0  0  0  0  0  0 19  0  0
   -1.6851    2.9476    0.5720 H   0  0  0  0  0  0  0  0  0 20  0  0
   -3.1191    2.4172    2.5548 H   0  0  0  0  0  0  0  0  0 21  0  0
   -4.0969    2.9795    1.1896 H   0  0  0  0  0  0  0  0  0 22  0  0
   -4.0326    1.2543    1.5829 H   0  0  0  0  0  0  0  0  0 23  0  0
  1  4  1  0
  1  5  1  0
  1  2  1  0
  1  6  1  0
  2  3  1  0
  7 13  1  0
  7 15  1  0
  7  8  1  0
  7 14  1  0
  8 16  1  0
  8  9  1  0
  9 10  1  0
  9 17  1  0
  9 18  1  0
 10 11  1  0
 11 19  1  0
 11 12  1  0
 11 20  1  0
 12 22  1  0
 12 21  1  0
 12 23  1  0
M  RAD  1   8   2
M  END
>  <rmg_smiles>  (3) 
CCOC[CH]C.C[N][O]

>  <rmg_adjacency_list>  (3) 
multiplicity 2
1  O u0 p2 c0 {4,S} {5,S}
2  O u0 p2 c0 {3,S}
3  N u0 p1 c0 {2,S} {8,S}
4  C u0 p0 c0 {1,S} {6,S} {10,S} {11,S}
5  C u0 p0 c0 {1,S} {9,S} {12,S} {13,S}
6  C u0 p0 c0 {4,S} {14,S} {15,S} {16,S}
7  C u0 p0 c0 {9,S} {17,S} {18,S} {19,S}
8  C u0 p0 c0 {3,S} {20,S} {21,S} {22,S}
9  C u1 p0 c0 {5,S} {7,S} {23,S}
10 H u0 p0 c0 {4,S}
11 H u0 p0 c0 {4,S}
12 H u0 p0 c0 {5,S}
13 H u0 p0 c0 {5,S}
14 H u0 p0 c0 {6,S}
15 H u0 p0 c0 {6,S}
16 H u0 p0 c0 {6,S}
17 H u0 p0 c0 {7,S}
18 H u0 p0 c0 {7,S}
19 H u0 p0 c0 {7,S}
20 H u0 p0 c0 {8,S}
21 H u0 p0 c0 {8,S}
22 H u0 p0 c0 {8,S}
23 H u0 p0 c0 {9,S}


>  <multiplicity>  (3) 
2

>  <reaction>  (3) 
rmg_rxn_588

>  <type>  (3) 
ts

>  <role_mapnums>  (3) 
{"*2": 4, "*1": 1, "*3": 8, "*0": 2, "*4": 9}

>  <role_mapidx>  (3) 
{"*2": 3, "*1": 0, "*3": 7, "*0": 1, "*4": 8}

>  <ordered_mapped_smiles>  (3) 
[C:1]([NH:2][OH:3])([H:4])([H:5])[H:6].[C:7]([C:8]([C:9]([O:10][C:11]([C:12]([H:21])([H:22])[H:23])([H:19])[H:20])([H:17])[H:18])[H:16])([H:13])([H:14])[H:15]

>  <mol_properties>  (3) 
{"0": {"label": "*1", "atom_type": "Cs"}, "1": {"label": "*0", "atom_type": "N3s"}, "3": {"label": "*2", "atom_type": "H0"}, "7": {"label": "*3", "atom_type": "Cs"}, "8": {"label": "*4", "atom_type": "Cs"}}

>  <level_of_theory>  (3) 
wb97xd/def2tzvp

>  <lot_method>  (3) 
wb97xd

>  <lot_basis>  (3) 
def2tzvp

>  <spin_multiplicity>  (3) 
2.0

>  <optical_isomers>  (3) 
2.0

>  <modes>  (3) 
IdealGasTranslation(mass=(132.102, 'amu')),         NonlinearRotor(             inertia = ([173.543, 864.043, 928.937

>  <frequency_value>  (3) 
-1363.98

>  <frequency_units>  (3) 
cm^-1

>  <frequency_list>  (3) 
unknown

>  <arkane_path>  (3) 
/home/calvin/Dropbox/PersonalFolders/Calvin/ATLAS_Converged/rmg_rxn_588/output/rxns/TS0/arkane/output.py

>  <path_exists>  (3) 
True

>  <E0_value>  (3) 
-1160300.0

>  <E0_units>  (3) 
kJ/mol

>  <thermo_class>  (3) 
unknown

>  <Cp0_value>  (3) 
unknown

>  <Cp0_units>  (3) 
unknown

>  <CpInf_value>  (3) 
unknown

>  <CpInf_units>  (3) 
unknown

>  <Tmin_value>  (3) 
unknown

>  <Tmin_units>  (3) 
unknown

>  <Tmax_value>  (3) 
unknown

>  <Tmax_units>  (3) 
unknown

>  <polynomials>  (3) 
unknown

>  <H298_value>  (3) 
unknown

>  <H298_units>  (3) 
unknown

>  <S298_value>  (3) 
unknown

>  <S298_units>  (3) 
unknown

>  <Cp_T_value_list>  (3) 
unknown

>  <Cp_T_units>  (3) 
unknown

>  <T_list>  (3) 
unknown

>  <T_units>  (3) 
unknown

>  <yaml_path>  (3) 
unknown

>  <frequencies_cm1>  (3) 
unknown

>  <ZPE_kJmol>  (3) 
unknown

>  <E_elec_kJmol>  (3) 
unknown

>  <E0_minus_Eelec_plus_ZPE_kJmol>  (3) 
unknown

>  <rxn>  (3) 
unknown

>  <species_type>  (3) 
unknown

>  <species_folder>  (3) 
unknown

>  <frequencies_cm1_list>  (3) 
[]

>  <ts_imag_freq_cm1>  (3) 
-1380.5439

>  <ts_freq_out_path>  (3) 
/home/calvin/Dropbox/PersonalFolders/Calvin/ATLAS_Converged/rmg_rxn_588/output/rxns/TS0/geometry/freq.out

>  <E0_kJmol>  (3) 
-1.1603e+06

>  <H298_kJmol>  (3) 
unknown

$$$$

     RDKit          3D

  5  4  0  0  0  0  0  0  0  0999 V2000
   -0.4986    0.0189   -0.0212 C   0  0  0  0  0  0  0  0  0  1  0  0
    0.6799   -0.4410    0.1054 N   0  0  0  0  0  0  0  0  0  2  0  0
    1.7950    0.0236    0.0595 O   0  0  0  0  0  1  0  0  0  3  0  0
   -1.3180   -0.6753    0.0776 H   0  0  0  0  0  0  0  0  0  4  0  0
   -0.6584    1.0737   -0.2213 H   0  0  0  0  0  0  0  0  0  5  0  0
  1  5  1  0
  1  4  1  0
  1  2  1  0
  2  3  1  0
M  RAD  1   3   2
M  END
>  <rmg_smiles>  (4) 
[CH2][N][O]

>  <rmg_adjacency_list>  (4) 
multiplicity 2
1 O u1 p2 c0 {2,S}
2 N u0 p1 c0 {1,S} {3,S}
3 C u0 p0 c0 {2,S} {4,S} {5,S}
4 H u0 p0 c0 {3,S}
5 H u0 p0 c0 {3,S}


>  <multiplicity>  (4) 
2

>  <reaction>  (4) 
rmg_rxn_588

>  <type>  (4) 
r1

>  <role_mapnums>  (4) 
{}

>  <role_mapidx>  (4) 
{}

>  <ordered_mapped_smiles>  (4) 
[CH:1]([NH:2][O:3])([H:4])[H:5]

>  <level_of_theory>  (4) 
wb97xd/def2tzvp

>  <lot_method>  (4) 
wb97xd

>  <lot_basis>  (4) 
def2tzvp

>  <spin_multiplicity>  (4) 
2.0

>  <optical_isomers>  (4) 
1.0

>  <modes>  (4) 
IdealGasTranslation(mass=(44.0136, 'amu')),         NonlinearRotor(             inertia = ([3.87779, 42.4322, 46.31

>  <frequency_value>  (4) 
unknown

>  <frequency_units>  (4) 
unknown

>  <frequency_list>  (4) 
unknown

>  <arkane_path>  (4) 
/home/calvin/Dropbox/PersonalFolders/Calvin/ATLAS_Converged/rmg_rxn_588/output/Species/rmg_rxn_588_p1_sbr-CH2-sbrN=O/arkane/output.py

>  <path_exists>  (4) 
True

>  <E0_value>  (4) 
-444125.8698569815

>  <E0_units>  (4) 
kJ/mol

>  <thermo_class>  (4) 
NASA

>  <Cp0_value>  (4) 
33.257888

>  <Cp0_units>  (4) 
J/(mol*K)

>  <CpInf_value>  (4) 
108.088136

>  <CpInf_units>  (4) 
J/(mol*K)

>  <Tmin_value>  (4) 
10.0

>  <Tmin_units>  (4) 
K

>  <Tmax_value>  (4) 
3000.0

>  <Tmax_units>  (4) 
K

>  <polynomials>  (4) 
[{"name": "polynomial1", "class": "NASAPolynomial", "Tmin_value": 10.0, "Tmin_units": "K", "Tmax_value": 562.3844127225133, "Tmax_units": "K", "coeffs": [4.053937176279305, -0.0047398271406768585, 5.7437859425445556e-05, -9.385630136446055e-08, 5.059118934882412e-11, -53416003.88498011, 6.9306587758022244]}, {"name": "polynomial2", "class": "NASAPolynomial", "Tmin_value": 562.3844127225133, "Tmin_units": "K", "Tmax_value": 3000.0, "Tmax_units": "K", "coeffs": [2.1822483082936537, 0.014293062944345295, -8.584392971883197e-06, 2.4949936009645337e-09, -2.805584349724308e-13, -53415883.824056074, 14.078927000603649]}]

>  <H298_value>  (4) 
-106145.96131022584

>  <H298_units>  (4) 
kcal/mol

>  <S298_value>  (4) 
60.48266213431546

>  <S298_units>  (4) 
cal/(mol*K)

>  <Cp_T_value_list>  (4) 
[11.281500234397477, 13.187887263233034, 14.851189314724579, 16.235999449361433, 18.451624012184585, 20.08142406383569, 22.469810630137335, 23.65136644158371, 24.287701175564127]

>  <Cp_T_units>  (4) 
cal/(mol*K)

>  <T_list>  (4) 
[300.0, 400.0, 500.0, 600.0, 800.0, 1000.0, 1500.0, 2000.0, 2400.0]

>  <T_units>  (4) 
K

>  <yaml_path>  (4) 
/home/calvin/Dropbox/PersonalFolders/Calvin/ATLAS_Converged/rmg_rxn_588/output/Species/rmg_rxn_588_p1_sbr-CH2-sbrN=O/rmg_rxn_588_p1_sbr-CH2-sbrN=O.yml

>  <frequencies_cm1>  (4) 
[458.37813709531997, 701.3458116875601, 834.5447259396, 1127.25684218992, 1261.9046903444798, 1486.4825782497596, 1744.7430291496398, 3101.34344705692, 3245.26172539348]

>  <ZPE_kJmol>  (4) 
83.50690918001081

>  <E_elec_kJmol>  (4) 
-444209.3767661615

>  <E0_minus_Eelec_plus_ZPE_kJmol>  (4) 
0.0

>  <rxn>  (4) 
rmg_rxn_588

>  <species_type>  (4) 
p0

>  <species_folder>  (4) 
rmg_rxn_588_p1_sbr-CH2-sbrN=O

>  <frequencies_cm1_list>  (4) 
[458.37813709531997, 701.3458116875601, 834.5447259396, 1127.25684218992, 1261.9046903444798, 1486.4825782497596, 1744.7430291496398, 3101.34344705692, 3245.26172539348]

>  <E0_kJmol>  (4) 
-444126

>  <H298_kJmol>  (4) 
-444115

$$$$

     RDKit          3D

 17 16  0  0  0  0  0  0  0  0999 V2000
    2.3993   -0.7259   -0.8796 C   0  0  0  0  0  0  0  0  0  1  0  0
    1.8173   -0.7170    0.4851 C   0  0  0  0  0  3  0  0  0  2  0  0
    2.6779   -0.5182    1.6852 C   0  0  0  0  0  0  0  0  0  3  0  0
    3.8710   -1.2723    1.6674 O   0  0  0  0  0  0  0  0  0  4  0  0
    3.6589   -2.6587    1.8015 C   0  0  0  0  0  0  0  0  0  5  0  0
    4.9969   -3.3586    1.7556 C   0  0  0  0  0  0  0  0  0  6  0  0
    3.3755   -1.2152   -0.8894 H   0  0  0  0  0  0  0  0  0  7  0  0
    1.7457   -1.2284   -1.5943 H   0  0  0  0  0  0  0  0  0  8  0  0
    2.5578    0.2962   -1.2545 H   0  0  0  0  0  0  0  0  0  9  0  0
    0.7445   -0.6275    0.6059 H   0  0  0  0  0  0  0  0  0 10  0  0
    2.1057   -0.7316    2.5992 H   0  0  0  0  0  0  0  0  0 11  0  0
    3.0103    0.5272    1.7516 H   0  0  0  0  0  0  0  0  0 12  0  0
    3.0050   -3.0235    0.9977 H   0  0  0  0  0  0  0  0  0 13  0  0
    3.1469   -2.8645    2.7531 H   0  0  0  0  0  0  0  0  0 14  0  0
    5.6430   -3.0039    2.5594 H   0  0  0  0  0  0  0  0  0 15  0  0
    4.8641   -4.4360    1.8660 H   0  0  0  0  0  0  0  0  0 16  0  0
    5.4957   -3.1672    0.8046 H   0  0  0  0  0  0  0  0  0 17  0  0
  1  8  1  0
  1  7  1  0
  1  9  1  0
  1  2  1  0
  2 10  1  0
  2  3  1  0
  3 11  1  0
  3  4  1  0
  3 12  1  0
  4  5  1  0
  5 13  1  0
  5  6  1  0
  5 14  1  0
  6 17  1  0
  6 15  1  0
  6 16  1  0
M  RAD  1   2   2
M  END
>  <rmg_smiles>  (5) 
C[CH]COCC

>  <rmg_adjacency_list>  (5) 
multiplicity 2
1  O u0 p2 c0 {2,S} {3,S}
2  C u0 p0 c0 {1,S} {4,S} {7,S} {8,S}
3  C u0 p0 c0 {1,S} {6,S} {9,S} {10,S}
4  C u0 p0 c0 {2,S} {11,S} {12,S} {13,S}
5  C u0 p0 c0 {6,S} {14,S} {15,S} {16,S}
6  C u1 p0 c0 {3,S} {5,S} {17,S}
7  H u0 p0 c0 {2,S}
8  H u0 p0 c0 {2,S}
9  H u0 p0 c0 {3,S}
10 H u0 p0 c0 {3,S}
11 H u0 p0 c0 {4,S}
12 H u0 p0 c0 {4,S}
13 H u0 p0 c0 {4,S}
14 H u0 p0 c0 {5,S}
15 H u0 p0 c0 {5,S}
16 H u0 p0 c0 {5,S}
17 H u0 p0 c0 {6,S}


>  <multiplicity>  (5) 
2

>  <reaction>  (5) 
rmg_rxn_588

>  <type>  (5) 
r2

>  <role_mapnums>  (5) 
{}

>  <role_mapidx>  (5) 
{}

>  <ordered_mapped_smiles>  (5) 
[C:1]([C:2]([C:3]([O:4][C:5]([C:6]([H:15])([H:16])[H:17])([H:13])[H:14])([H:11])[H:12])[H:10])([H:7])([H:8])[H:9]

>  <level_of_theory>  (5) 
wb97xd/def2tzvp

>  <lot_method>  (5) 
wb97xd

>  <lot_basis>  (5) 
def2tzvp

>  <spin_multiplicity>  (5) 
2.0

>  <optical_isomers>  (5) 
2.0

>  <modes>  (5) 
IdealGasTranslation(mass=(87.081, 'amu')),         NonlinearRotor(             inertia = ([77.2255, 257.211, 294.472

>  <frequency_value>  (5) 
unknown

>  <frequency_units>  (5) 
unknown

>  <frequency_list>  (5) 
unknown

>  <arkane_path>  (5) 
/home/calvin/Dropbox/PersonalFolders/Calvin/ATLAS_Converged/rmg_rxn_588/output/Species/rmg_rxn_588_r2_Csbr-CH-sbrCOCC/arkane/output.py

>  <path_exists>  (5) 
True

>  <E0_value>  (5) 
-714606.8253684428

>  <E0_units>  (5) 
kJ/mol

>  <thermo_class>  (5) 
NASA

>  <Cp0_value>  (5) 
33.257888

>  <Cp0_units>  (5) 
J/(mol*K)

>  <CpInf_value>  (5) 
407.409128

>  <CpInf_units>  (5) 
J/(mol*K)

>  <Tmin_value>  (5) 
10.0

>  <Tmin_units>  (5) 
K

>  <Tmax_value>  (5) 
3000.0

>  <Tmax_units>  (5) 
K

>  <polynomials>  (5) 
[{"name": "polynomial1", "class": "NASAPolynomial", "Tmin_value": 10.0, "Tmin_units": "K", "Tmax_value": 417.48366752766907, "Tmax_units": "K", "coeffs": [3.371710260367717, 0.06751515529081918, -0.00021419326134089478, 5.55321486035094e-07, -4.841487901490717e-10, -85947346.52177061, 12.699399549539766]}, {"name": "polynomial2", "class": "NASAPolynomial", "Tmin_value": 417.48366752766907, "Tmin_units": "K", "Tmax_value": 3000.0, "Tmax_units": "K", "coeffs": [-0.983429943910518, 0.06366224875335745, -3.6581500232475296e-05, 1.0182072217773507e-08, -1.102266081168474e-12, -85946585.66515122, 34.66344723069078]}]

>  <H298_value>  (5) 
-170789.2030444093

>  <H298_units>  (5) 
kcal/mol

>  <S298_value>  (5) 
92.32827304571522

>  <S298_units>  (5) 
cal/(mol*K)

>  <Cp_T_value_list>  (5) 
[30.644588740591573, 38.260117272479235, 45.51932326502992, 51.86818248028013, 62.191498797087384, 69.90421091576034, 81.44732642755689, 87.10996617013711, 89.98657049419913]

>  <Cp_T_units>  (5) 
cal/(mol*K)

>  <T_list>  (5) 
[300.0, 400.0, 500.0, 600.0, 800.0, 1000.0, 1500.0, 2000.0, 2400.0]

>  <T_units>  (5) 
K

>  <yaml_path>  (5) 
/home/calvin/Dropbox/PersonalFolders/Calvin/ATLAS_Converged/rmg_rxn_588/output/Species/rmg_rxn_588_r2_Csbr-CH-sbrCOCC/rmg_rxn_588_r2_Csbr-CH-sbrCOCC.yml

>  <frequencies_cm1>  (5) 
[58.486113970439995, 80.89995405491999, 91.01502343127999, 148.7045671046, 233.68351043959998, 268.54032792391996, 295.53444721683996, 386.91342087008, 426.66639888756004, 628.1780831029599, 820.4468050776399, 853.1130542448799, 876.6050110245999, 927.82585452648, 984.0183954000399, 1025.0280317310799, 1086.20600394696, 1127.14010343948, 1146.72474557212, 1165.95917145344, 1177.46823884976, 1286.9897877184399, 1294.8456189245198, 1363.7489496253997, 1371.8863272295998, 1388.0786786141598, 1403.05557359708, 1423.88314007264, 1459.15197667616, 1465.5382730237598, 1469.9674785551601, 1470.4687684835199, 1486.8533954570398, 1514.4861443847199, 2944.5564382306798, 2947.06288787248, 2949.60367244088, 2978.74029115364, 2981.5557551348397, 3022.6203273484402, 3042.07449676, 3090.13652701468, 3099.94258205164, 3102.6756422089998, 3156.8286884425197]

>  <ZPE_kJmol>  (5) 
391.920120724621

>  <E_elec_kJmol>  (5) 
-714998.7454891674

>  <E0_minus_Eelec_plus_ZPE_kJmol>  (5) 
0.0

>  <rxn>  (5) 
rmg_rxn_588

>  <species_type>  (5) 
r1

>  <species_folder>  (5) 
rmg_rxn_588_r2_Csbr-CH-sbrCOCC

>  <frequencies_cm1_list>  (5) 
[58.486113970439995, 80.89995405491999, 91.01502343127999, 148.7045671046, 233.68351043959998, 268.54032792391996, 295.53444721683996, 386.91342087008, 426.66639888756004, 628.1780831029599, 820.4468050776399, 853.1130542448799, 876.6050110245999, 927.82585452648, 984.0183954000399, 1025.0280317310799, 1086.20600394696, 1127.14010343948, 1146.72474557212, 1165.95917145344, 1177.46823884976, 1286.9897877184399, 1294.8456189245198, 1363.7489496253997, 1371.8863272295998, 1388.0786786141598, 1403.05557359708, 1423.88314007264, 1459.15197667616, 1465.5382730237598, 1469.9674785551601, 1470.4687684835199, 1486.8533954570398, 1514.4861443847199, 2944.5564382306798, 2947.06288787248, 2949.60367244088, 2978.74029115364, 2981.5557551348397, 3022.6203273484402, 3042.07449676, 3090.13652701468, 3099.94258205164, 3102.6756422089998, 3156.8286884425197]

>  <E0_kJmol>  (5) 
-714607

>  <H298_kJmol>  (5) 
-714582

$$$$
