
     RDKit          3D

  8  7  0  0  0  0  0  0  0  0999 V2000
   -0.1814   -0.2731   -1.2231 C   0  0  0  0  0  0  0  0  0  1  0  0
   -0.3348   -0.1224    0.2589 C   0  0  0  0  0  0  0  0  0  2  0  0
    0.5530    0.4157    0.9685 N   0  0  0  0  0  0  0  0  0  3  0  0
   -0.2362   -1.3301   -1.4939 H   0  0  0  0  0  0  0  0  0  4  0  0
   -1.0013    0.2355   -1.7358 H   0  0  0  0  0  0  0  0  0  5  0  0
    0.7685    0.1398   -1.5577 H   0  0  0  0  0  0  0  0  0  6  0  0
   -1.2580   -0.5207    0.6954 H   0  0  0  0  0  0  0  0  0  7  0  0
    0.2400    0.4109    1.9603 H   0  0  0  0  0  0  0  0  0  8  0  0
  1  5  1  0
  1  4  1  0
  1  6  1  0
  1  2  1  0
  2  3  1  0
  2  7  1  0
  3  8  1  0
M  END
>  <rmg_smiles>  (1) 
C[CH][NH]

>  <rmg_adjacency_list>  (1) 
1 N u0 p1 c0 {3,S} {8,S}
2 C u0 p0 c0 {3,S} {4,S} {5,S} {6,S}
3 C u0 p0 c0 {1,S} {2,S} {7,S}
4 H u0 p0 c0 {2,S}
5 H u0 p0 c0 {2,S}
6 H u0 p0 c0 {2,S}
7 H u0 p0 c0 {3,S}
8 H u0 p0 c0 {1,S}


>  <multiplicity>  (1) 
1

>  <reaction>  (1) 
rmg_rxn_16472

>  <type>  (1) 
r1h

>  <role_mapnums>  (1) 
{"r1h_a": 3, "r1h_h": 8}

>  <role_mapidx>  (1) 
{"r1h_a": 2, "r1h_h": 7}

>  <ordered_mapped_smiles>  (1) 
[C:1]([CH:2]([NH:3][H:8])[H:7])([H:4])([H:5])[H:6]

>  <mol_properties>  (1) 
{"2": {"label": "donator", "atom_type": "N3s"}, "7": {"label": "d_hydrogen", "atom_type": "H0"}}

>  <level_of_theory>  (1) 
wb97xd/def2tzvp

>  <lot_method>  (1) 
wb97xd

>  <lot_basis>  (1) 
def2tzvp

>  <spin_multiplicity>  (1) 
1.0

>  <optical_isomers>  (1) 
1.0

>  <modes>  (1) 
IdealGasTranslation(mass=(43.0422, 'amu')),         NonlinearRotor(             inertia = ([9.32783, 51.3348, 57.5532

>  <frequency_value>  (1) 
unknown

>  <frequency_units>  (1) 
unknown

>  <frequency_list>  (1) 
unknown

>  <arkane_path>  (1) 
/home/calvin/Dropbox/PersonalFolders/Calvin/ZEUS_Converged/rmg_rxn_16472/output/Species/rmg_rxn_16472_r1_CC=N/arkane/output.py

>  <path_exists>  (1) 
True

>  <E0_value>  (1) 
-351535.20335661684

>  <E0_units>  (1) 
kJ/mol

>  <thermo_class>  (1) 
NASA

>  <Cp0_value>  (1) 
33.257888

>  <Cp0_units>  (1) 
J/(mol*K)

>  <CpInf_value>  (1) 
182.918384

>  <CpInf_units>  (1) 
J/(mol*K)

>  <Tmin_value>  (1) 
10.0

>  <Tmin_units>  (1) 
K

>  <Tmax_value>  (1) 
3000.0

>  <Tmax_units>  (1) 
K

>  <polynomials>  (1) 
[{"name": "polynomial1", "class": "NASAPolynomial", "Tmin_value": 10.0, "Tmin_units": "K", "Tmax_value": 834.0183041901832, "Tmax_units": "K", "coeffs": [4.020859284868709, 0.0012406595733239277, 4.4482903010182226e-05, -5.482114439751344e-08, 2.0739201558559772e-11, -42279921.71645892, 6.726586383468645]}, {"name": "polynomial2", "class": "NASAPolynomial", "Tmin_value": 834.0183041901832, "Tmin_units": "K", "Tmax_value": 3000.0, "Tmax_units": "K", "coeffs": [0.8146767610859666, 0.025012560508124084, -1.3369721411120483e-05, 3.4917002293006827e-09, -3.579375529269218e-13, -42279678.881200545, 19.862274208798944]}]

>  <H298_value>  (1) 
-84015.86036687854

>  <H298_units>  (1) 
kcal/mol

>  <S298_value>  (1) 
62.66843297179497

>  <S298_units>  (1) 
cal/(mol*K)

>  <Cp_T_value_list>  (1) 
[14.078036689508782, 17.202765604471058, 20.2803800489589, 23.1023356383003, 27.639649626797436, 30.983090061901617, 36.21499785066487, 38.88468928045463, 40.19916387517873]

>  <Cp_T_units>  (1) 
cal/(mol*K)

>  <T_list>  (1) 
[300.0, 400.0, 500.0, 600.0, 800.0, 1000.0, 1500.0, 2000.0, 2400.0]

>  <T_units>  (1) 
K

>  <yaml_path>  (1) 
/home/calvin/Dropbox/PersonalFolders/Calvin/ZEUS_Converged/rmg_rxn_16472/output/Species/rmg_rxn_16472_r1_CC=N/rmg_rxn_16472_r1_CC=N.yml

>  <frequencies_cm1>  (1) 
[185.42920459596, 489.9250676554, 680.6761858743599, 921.32968641376, 1055.89513074448, 1069.62910138448, 1130.4431233784, 1267.5150173509198, 1378.7876474762, 1425.071128533, 1456.56312321052, 1463.3683056626398, 1737.36788691596, 2989.2124437666403, 3014.6889593038395, 3075.43431144456, 3123.3452680222, 3455.8927661138396]

>  <ZPE_kJmol>  (1) 
178.96482902382195

>  <E_elec_kJmol>  (1) 
-351714.16818564065

>  <E0_minus_Eelec_plus_ZPE_kJmol>  (1) 
0.0

>  <rxn>  (1) 
rmg_rxn_16472

>  <species_type>  (1) 
r0

>  <species_folder>  (1) 
rmg_rxn_16472_r1_CC=N

>  <frequencies_cm1_list>  (1) 
[185.42920459596, 489.9250676554, 680.6761858743599, 921.32968641376, 1055.89513074448, 1069.62910138448, 1130.4431233784, 1267.5150173509198, 1378.7876474762, 1425.071128533, 1456.56312321052, 1463.3683056626398, 1737.36788691596, 2989.2124437666403, 3014.6889593038395, 3075.43431144456, 3123.3452680222, 3455.8927661138396]

>  <E0_kJmol>  (1) 
-351535

>  <H298_kJmol>  (1) 
-351522

$$$$

     RDKit          3D

 15 14  0  0  0  0  0  0  0  0999 V2000
    1.6274    1.8032   -1.3628 H   0  0  0  0  0  0  0  0  0  1  0  0
    1.2515    1.7450   -0.3431 C   0  0  0  0  0  0  0  0  0  2  0  0
    1.3581    0.3235    0.1257 C   0  0  0  0  0  0  0  0  0  3  0  0
    0.1710   -0.8344   -0.6055 S   0  0  0  0  0  0  0  0  0  4  0  0
   -1.4096   -0.1845   -0.0063 C   0  0  0  0  0  0  0  0  0  5  0  0
   -1.5697   -0.1694    1.5048 C   0  0  0  0  0  0  0  0  0  6  0  0
    0.2475    2.1597   -0.3981 H   0  0  0  0  0  0  0  0  0  7  0  0
    1.9525    2.4258    0.1377 H   0  0  0  0  0  0  0  0  0  8  0  0
    1.2838    0.2615    1.2160 H   0  0  0  0  0  0  0  0  0  9  0  0
    2.3347   -0.0909   -0.1353 H   0  0  0  0  0  0  0  0  0 10  0  0
   -1.5781    0.8098   -0.4243 H   0  0  0  0  0  0  0  0  0 11  0  0
   -2.1490   -0.8455   -0.4617 H   0  0  0  0  0  0  0  0  0 12  0  0
   -0.8716    0.5256    1.9737 H   0  0  0  0  0  0  0  0  0 13  0  0
   -2.5789    0.1499    1.7737 H   0  0  0  0  0  0  0  0  0 14  0  0
   -1.3968   -1.1608    1.9248 H   0  0  0  0  0  0  0  0  0 15  0  0
  1  2  1  0
  2  7  1  0
  2  8  1  0
  2  3  1  0
  3  9  1  0
  3 10  1  0
  3  4  1  0
  4  5  1  0
  5 11  1  0
  5 12  1  0
  5  6  1  0
  6 15  1  0
  6 14  1  0
  6 13  1  0
M  END
>  <rmg_smiles>  (2) 
CCSCC

>  <rmg_adjacency_list>  (2) 
1  S u0 p2 c0 {2,S} {3,S}
2  C u0 p0 c0 {1,S} {4,S} {6,S} {7,S}
3  C u0 p0 c0 {1,S} {5,S} {8,S} {9,S}
4  C u0 p0 c0 {2,S} {10,S} {11,S} {12,S}
5  C u0 p0 c0 {3,S} {13,S} {14,S} {15,S}
6  H u0 p0 c0 {2,S}
7  H u0 p0 c0 {2,S}
8  H u0 p0 c0 {3,S}
9  H u0 p0 c0 {3,S}
10 H u0 p0 c0 {4,S}
11 H u0 p0 c0 {4,S}
12 H u0 p0 c0 {4,S}
13 H u0 p0 c0 {5,S}
14 H u0 p0 c0 {5,S}
15 H u0 p0 c0 {5,S}


>  <multiplicity>  (2) 
1

>  <reaction>  (2) 
rmg_rxn_16472

>  <type>  (2) 
r2h

>  <role_mapnums>  (2) 
{"r2h_a": 2, "r2h_h": 1}

>  <role_mapidx>  (2) 
{"r2h_a": 1, "r2h_h": 0}

>  <ordered_mapped_smiles>  (2) 
[H:1][C:2]([C:3]([S:4][C:5]([C:6]([H:13])([H:14])[H:15])([H:11])[H:12])([H:9])[H:10])([H:7])[H:8]

>  <mol_properties>  (2) 
{"0": {"label": "a_hydrogen", "atom_type": "H0"}, "1": {"label": "acceptor", "atom_type": "Cs"}}

>  <level_of_theory>  (2) 
wb97xd/def2tzvp

>  <lot_method>  (2) 
wb97xd

>  <lot_basis>  (2) 
def2tzvp

>  <spin_multiplicity>  (2) 
1.0

>  <optical_isomers>  (2) 
2.0

>  <modes>  (2) 
IdealGasTranslation(mass=(90.0503, 'amu')),         NonlinearRotor(             inertia = ([97.9259, 182.785, 231.685

>  <frequency_value>  (2) 
unknown

>  <frequency_units>  (2) 
unknown

>  <frequency_list>  (2) 
unknown

>  <arkane_path>  (2) 
/home/calvin/Dropbox/PersonalFolders/Calvin/ZEUS_Converged/rmg_rxn_16472/output/Species/rmg_rxn_16472_p2_CCSCC/arkane/output.py

>  <path_exists>  (2) 
True

>  <E0_value>  (2) 
-1461176.712302846

>  <E0_units>  (2) 
kJ/mol

>  <thermo_class>  (2) 
NASA

>  <Cp0_value>  (2) 
33.257888

>  <Cp0_units>  (2) 
J/(mol*K)

>  <CpInf_value>  (2) 
357.522296

>  <CpInf_units>  (2) 
J/(mol*K)

>  <Tmin_value>  (2) 
10.0

>  <Tmin_units>  (2) 
K

>  <Tmax_value>  (2) 
3000.0

>  <Tmax_units>  (2) 
K

>  <polynomials>  (2) 
[{"name": "polynomial1", "class": "NASAPolynomial", "Tmin_value": 10.0, "Tmin_units": "K", "Tmax_value": 1062.7399386544262, "Tmax_units": "K", "coeffs": [3.7240769323461183, 0.031177748628868452, 1.5902010367185058e-05, -3.113890231224712e-08, 1.1081306354986389e-11, -175738967.30653277, 10.691637870800792]}, {"name": "polynomial2", "class": "NASAPolynomial", "Tmin_value": 1062.7399386544262, "Tmin_units": "K", "Tmax_value": 3000.0, "Tmax_units": "K", "coeffs": [4.272241625082444, 0.043558842725107835, -2.1960593835054186e-05, 5.40184233033246e-09, -5.231142214717531e-13, -175739899.4995357, 4.176068557223208]}]

>  <H298_value>  (2) 
-349224.4948454063

>  <H298_units>  (2) 
kcal/mol

>  <S298_value>  (2) 
82.7716563008507

>  <S298_units>  (2) 
cal/(mol*K)

>  <Cp_T_value_list>  (2) 
[27.339173623072345, 33.842702479220485, 39.920340978524315, 45.43863766183797, 54.527649872243764, 61.09912795060114, 71.10646486529419, 76.29375173182082, 78.7725430861368]

>  <Cp_T_units>  (2) 
cal/(mol*K)

>  <T_list>  (2) 
[300.0, 400.0, 500.0, 600.0, 800.0, 1000.0, 1500.0, 2000.0, 2400.0]

>  <T_units>  (2) 
K

>  <yaml_path>  (2) 
/home/calvin/Dropbox/PersonalFolders/Calvin/ZEUS_Converged/rmg_rxn_16472/output/Species/rmg_rxn_16472_p2_CCSCC/rmg_rxn_16472_p2_CCSCC.yml

>  <frequencies_cm1>  (2) 
[66.48615186823999, 121.63491097315999, 224.63969077315997, 254.99863287287997, 273.62876404604003, 341.45397805167994, 381.0490154068, 647.6597204558, 701.8333676452798, 742.1151035324, 786.8329119362398, 985.17891591912, 988.88708799192, 1023.0091380469999, 1055.1809642711999, 1060.18699656948, 1093.14852610548, 1263.72444145428, 1273.9013136985197, 1289.2490258887199, 1308.3598460342798, 1399.5396771132398, 1399.8967603498797, 1460.7725852116798, 1462.4000607325202, 1478.53747623452, 1481.2362014652797, 1489.1538355392402, 1493.6723118798, 3015.6091353367196, 3016.10355827976, 3035.3242501904397, 3036.18262335544, 3073.69009717328, 3077.2334615983996, 3086.3528181033594, 3086.8953099436403, 3101.4052499247996, 3104.1520440527997]

>  <ZPE_kJmol>  (2) 
348.0016505911852

>  <E_elec_kJmol>  (2) 
-1461524.713953437

>  <E0_minus_Eelec_plus_ZPE_kJmol>  (2) 
0.0

>  <rxn>  (2) 
rmg_rxn_16472

>  <species_type>  (2) 
p1

>  <species_folder>  (2) 
rmg_rxn_16472_p2_CCSCC

>  <frequencies_cm1_list>  (2) 
[66.48615186823999, 121.63491097315999, 224.63969077315997, 254.99863287287997, 273.62876404604003, 341.45397805167994, 381.0490154068, 647.6597204558, 701.8333676452798, 742.1151035324, 786.8329119362398, 985.17891591912, 988.88708799192, 1023.0091380469999, 1055.1809642711999, 1060.18699656948, 1093.14852610548, 1263.72444145428, 1273.9013136985197, 1289.2490258887199, 1308.3598460342798, 1399.5396771132398, 1399.8967603498797, 1460.7725852116798, 1462.4000607325202, 1478.53747623452, 1481.2362014652797, 1489.1538355392402, 1493.6723118798, 3015.6091353367196, 3016.10355827976, 3035.3242501904397, 3036.18262335544, 3073.69009717328, 3077.2334615983996, 3086.3528181033594, 3086.8953099436403, 3101.4052499247996, 3104.1520440527997]

>  <E0_kJmol>  (2) 
-1.46118e+06

>  <H298_kJmol>  (2) 
-1.46116e+06

$$$$

     RDKit          3D

 22 20  0  0  0  0  0  0  0  0999 V2000
    0.9818    0.6312   -3.7247 C   0  0  0  0  0  0  0  0  0  1  0  0
    0.8284    0.7819   -2.2427 C   0  0  0  0  0  0  0  0  0  2  0  0
    1.7162    1.3200   -1.5331 N   0  0  0  0  0  0  0  0  0  3  0  0
    0.9270   -0.4258   -3.9956 H   0  0  0  0  0  0  0  0  0  4  0  0
    0.1619    1.1398   -4.2374 H   0  0  0  0  0  0  0  0  0  5  0  0
    1.9317    1.0441   -4.0594 H   0  0  0  0  0  0  0  0  0  6  0  0
   -0.0948    0.3836   -1.8062 H   0  0  0  0  0  0  0  0  0  7  0  0
    1.3541    1.3145   -0.3858 H   0  0  0  0  0  0  0  0  0  8  0  0
    0.8717    1.2399    0.9224 C   0  0  0  0  0  3  0  0  0  9  0  0
    0.9784   -0.1817    1.3912 C   0  0  0  0  0  0  0  0  0 10  0  0
   -0.2087   -1.3396    0.6600 S   0  0  0  0  0  0  0  0  0 11  0  0
   -1.7893   -0.6896    1.2591 C   0  0  0  0  0  0  0  0  0 12  0  0
   -1.9494   -0.6745    2.7702 C   0  0  0  0  0  0  0  0  0 13  0  0
   -0.1322    1.6545    0.8674 H   0  0  0  0  0  0  0  0  0 14  0  0
    1.5727    1.9207    1.4031 H   0  0  0  0  0  0  0  0  0 15  0  0
    0.9041   -0.2436    2.4814 H   0  0  0  0  0  0  0  0  0 16  0  0
    1.9549   -0.5960    1.1301 H   0  0  0  0  0  0  0  0  0 17  0  0
   -1.9578    0.3047    0.8412 H   0  0  0  0  0  0  0  0  0 18  0  0
   -2.5287   -1.3506    0.8038 H   0  0  0  0  0  0  0  0  0 19  0  0
   -1.2513    0.0204    3.2392 H   0  0  0  0  0  0  0  0  0 20  0  0
   -2.9586   -0.3552    3.0391 H   0  0  0  0  0  0  0  0  0 21  0  0
   -1.7765   -1.6659    3.1902 H   0  0  0  0  0  0  0  0  0 22  0  0
  1  4  1  0
  1  5  1  0
  1  6  1  0
  1  2  1  0
  2  3  1  0
  2  7  1  0
  3  8  1  0
  9 15  1  0
  9 14  1  0
  9 10  1  0
 10 16  1  0
 10 11  1  0
 10 17  1  0
 11 12  1  0
 12 19  1  0
 12 18  1  0
 12 13  1  0
 13 21  1  0
 13 20  1  0
 13 22  1  0
M  RAD  1   9   2
M  END
>  <rmg_smiles>  (3) 
[CH2]CSCC.C[CH][NH]

>  <rmg_adjacency_list>  (3) 
multiplicity 2
1  S u0 p2 c0 {3,S} {4,S}
2  N u0 p1 c0 {7,S} {22,S}
3  C u0 p0 c0 {1,S} {5,S} {9,S} {10,S}
4  C u0 p0 c0 {1,S} {8,S} {11,S} {12,S}
5  C u0 p0 c0 {3,S} {13,S} {14,S} {15,S}
6  C u0 p0 c0 {7,S} {16,S} {17,S} {18,S}
7  C u0 p0 c0 {2,S} {6,S} {19,S}
8  C u1 p0 c0 {4,S} {20,S} {21,S}
9  H u0 p0 c0 {3,S}
10 H u0 p0 c0 {3,S}
11 H u0 p0 c0 {4,S}
12 H u0 p0 c0 {4,S}
13 H u0 p0 c0 {5,S}
14 H u0 p0 c0 {5,S}
15 H u0 p0 c0 {5,S}
16 H u0 p0 c0 {6,S}
17 H u0 p0 c0 {6,S}
18 H u0 p0 c0 {6,S}
19 H u0 p0 c0 {7,S}
20 H u0 p0 c0 {8,S}
21 H u0 p0 c0 {8,S}
22 H u0 p0 c0 {2,S}


>  <multiplicity>  (3) 
2

>  <reaction>  (3) 
rmg_rxn_16472

>  <type>  (3) 
ts

>  <role_mapnums>  (3) 
{"*2": 8, "*1": 3, "*3": 9, "*0": 2, "*4": 10}

>  <role_mapidx>  (3) 
{"*2": 7, "*1": 2, "*3": 8, "*0": 1, "*4": 9}

>  <ordered_mapped_smiles>  (3) 
[C:1]([CH:2]([NH:3][H:8])[H:7])([H:4])([H:5])[H:6].[C:9]([C:10]([S:11][C:12]([C:13]([H:20])([H:21])[H:22])([H:18])[H:19])([H:16])[H:17])([H:14])[H:15]

>  <mol_properties>  (3) 
{"1": {"label": "*0", "atom_type": "Cs"}, "2": {"label": "*1", "atom_type": "N3s"}, "7": {"label": "*2", "atom_type": "H0"}, "8": {"label": "*3", "atom_type": "Cs"}, "9": {"label": "*4", "atom_type": "Cs"}}

>  <level_of_theory>  (3) 
wb97xd/def2tzvp

>  <lot_method>  (3) 
wb97xd

>  <lot_basis>  (3) 
def2tzvp

>  <spin_multiplicity>  (3) 
2.0

>  <optical_isomers>  (3) 
2.0

>  <modes>  (3) 
IdealGasTranslation(mass=(132.085, 'amu')),         NonlinearRotor(             inertia = ([185.055, 727.908, 800.195

>  <frequency_value>  (3) 
-1823.06

>  <frequency_units>  (3) 
cm^-1

>  <frequency_list>  (3) 
unknown

>  <arkane_path>  (3) 
/home/calvin/Dropbox/PersonalFolders/Calvin/ZEUS_Converged/rmg_rxn_16472/output/rxns/TS0/arkane/output.py

>  <path_exists>  (3) 
True

>  <E0_value>  (3) 
-1810950.0

>  <E0_units>  (3) 
kJ/mol

>  <thermo_class>  (3) 
unknown

>  <Cp0_value>  (3) 
unknown

>  <Cp0_units>  (3) 
unknown

>  <CpInf_value>  (3) 
unknown

>  <CpInf_units>  (3) 
unknown

>  <Tmin_value>  (3) 
unknown

>  <Tmin_units>  (3) 
unknown

>  <Tmax_value>  (3) 
unknown

>  <Tmax_units>  (3) 
unknown

>  <polynomials>  (3) 
unknown

>  <H298_value>  (3) 
unknown

>  <H298_units>  (3) 
unknown

>  <S298_value>  (3) 
unknown

>  <S298_units>  (3) 
unknown

>  <Cp_T_value_list>  (3) 
unknown

>  <Cp_T_units>  (3) 
unknown

>  <T_list>  (3) 
unknown

>  <T_units>  (3) 
unknown

>  <yaml_path>  (3) 
unknown

>  <frequencies_cm1>  (3) 
unknown

>  <ZPE_kJmol>  (3) 
unknown

>  <E_elec_kJmol>  (3) 
unknown

>  <E0_minus_Eelec_plus_ZPE_kJmol>  (3) 
unknown

>  <rxn>  (3) 
unknown

>  <species_type>  (3) 
unknown

>  <species_folder>  (3) 
unknown

>  <frequencies_cm1_list>  (3) 
[]

>  <ts_imag_freq_cm1>  (3) 
-1845.2056

>  <ts_freq_out_path>  (3) 
/home/calvin/Dropbox/PersonalFolders/Calvin/ZEUS_Converged/rmg_rxn_16472/output/rxns/TS0/geometry/freq.out

>  <E0_kJmol>  (3) 
-1.81095e+06

>  <H298_kJmol>  (3) 
unknown

$$$$

     RDKit          3D

  7  6  0  0  0  0  0  0  0  0999 V2000
   -0.6441   -0.1356    0.0624 C   0  0  0  0  0  0  0  0  0  1  0  0
    0.8523    0.0148   -0.0333 C   0  0  0  0  0  0  0  0  0  2  0  0
    1.6700   -0.6077    0.6603 N   0  0  0  0  0  2  0  0  0  3  0  0
   -1.0940    0.8275    0.3091 H   0  0  0  0  0  0  0  0  0  4  0  0
   -0.9104   -0.8656    0.8237 H   0  0  0  0  0  0  0  0  0  5  0  0
   -1.0427   -0.4545   -0.9022 H   0  0  0  0  0  0  0  0  0  6  0  0
    1.2362    0.7308   -0.7748 H   0  0  0  0  0  0  0  0  0  7  0  0
  1  5  1  0
  1  4  1  0
  1  6  1  0
  1  2  1  0
  2  3  1  0
  2  7  1  0
M  RAD  1   3   2
M  END
>  <rmg_smiles>  (4) 
C[CH][N]

>  <rmg_adjacency_list>  (4) 
multiplicity 2
1 N u1 p2 c0 {3,S}
2 C u0 p0 c0 {3,S} {4,S} {5,S} {6,S}
3 C u0 p0 c0 {1,S} {2,S} {7,S}
4 H u0 p0 c0 {2,S}
5 H u0 p0 c0 {2,S}
6 H u0 p0 c0 {2,S}
7 H u0 p0 c0 {3,S}


>  <multiplicity>  (4) 
2

>  <reaction>  (4) 
rmg_rxn_16472

>  <type>  (4) 
r1

>  <role_mapnums>  (4) 
{}

>  <role_mapidx>  (4) 
{}

>  <ordered_mapped_smiles>  (4) 
[C:1]([CH:2]([NH:3])[H:7])([H:4])([H:5])[H:6]

>  <level_of_theory>  (4) 
wb97xd/def2tzvp

>  <lot_method>  (4) 
wb97xd

>  <lot_basis>  (4) 
def2tzvp

>  <spin_multiplicity>  (4) 
2.0

>  <optical_isomers>  (4) 
1.0

>  <modes>  (4) 
IdealGasTranslation(mass=(42.0344, 'amu')),         NonlinearRotor(             inertia = ([8.81492, 48.174, 53.8511

>  <frequency_value>  (4) 
unknown

>  <frequency_units>  (4) 
unknown

>  <frequency_list>  (4) 
unknown

>  <arkane_path>  (4) 
/home/calvin/Dropbox/PersonalFolders/Calvin/ZEUS_Converged/rmg_rxn_16472/output/Species/rmg_rxn_16472_p1_CC=sbr-N-sbr/arkane/output.py

>  <path_exists>  (4) 
True

>  <E0_value>  (4) 
-349854.82234455534

>  <E0_units>  (4) 
kJ/mol

>  <thermo_class>  (4) 
NASA

>  <Cp0_value>  (4) 
33.257888

>  <Cp0_units>  (4) 
J/(mol*K)

>  <CpInf_value>  (4) 
157.97496800000002

>  <CpInf_units>  (4) 
J/(mol*K)

>  <Tmin_value>  (4) 
10.0

>  <Tmin_units>  (4) 
K

>  <Tmax_value>  (4) 
3000.0

>  <Tmax_units>  (4) 
K

>  <polynomials>  (4) 
[{"name": "polynomial1", "class": "NASAPolynomial", "Tmin_value": 10.0, "Tmin_units": "K", "Tmax_value": 503.5856077016928, "Tmax_units": "K", "coeffs": [3.976811592049577, 0.0012685228752087534, 4.786155959427562e-05, -7.554553197268183e-08, 3.869280929218241e-11, -42077814.38325793, 7.559402827950991]}, {"name": "polynomial2", "class": "NASAPolynomial", "Tmin_value": 503.5856077016928, "Tmin_units": "K", "Tmax_value": 3000.0, "Tmax_units": "K", "coeffs": [1.4688672877735052, 0.02118998940112054, -1.1479594923736429e-05, 3.0156770231218235e-09, -3.096140671693614e-13, -42077561.800061174, 17.93823402033286]}]

>  <H298_value>  (4) 
-83614.2601862362

>  <H298_units>  (4) 
kcal/mol

>  <S298_value>  (4) 
63.84640386523673

>  <S298_units>  (4) 
cal/(mol*K)

>  <Cp_T_value_list>  (4) 
[13.788413560189577, 16.48922778111735, 18.980945997388957, 21.186536551582613, 24.822448324400693, 27.593007553675324, 31.86535612271467, 33.985319854322825, 35.01227851918305]

>  <Cp_T_units>  (4) 
cal/(mol*K)

>  <T_list>  (4) 
[300.0, 400.0, 500.0, 600.0, 800.0, 1000.0, 1500.0, 2000.0, 2400.0]

>  <T_units>  (4) 
K

>  <yaml_path>  (4) 
/home/calvin/Dropbox/PersonalFolders/Calvin/ZEUS_Converged/rmg_rxn_16472/output/Species/rmg_rxn_16472_p1_CC=sbr-N-sbr/rmg_rxn_16472_p1_CC=sbr-N-sbr.yml

>  <frequencies_cm1>  (4) 
[183.94593576684, 430.87586088872, 744.9511684695599, 909.3948659275999, 1050.2642027820798, 1063.7578289358798, 1237.9320445923597, 1377.0846351168398, 1461.72709617116, 1465.6893467008, 1739.36617964408, 2963.10416558, 3026.2186276561197, 3097.525403219, 3131.35217290532]

>  <ZPE_kJmol>  (4) 
142.8532380575317

>  <E_elec_kJmol>  (4) 
-349997.67558261286

>  <E0_minus_Eelec_plus_ZPE_kJmol>  (4) 
0.0

>  <rxn>  (4) 
rmg_rxn_16472

>  <species_type>  (4) 
p0

>  <species_folder>  (4) 
rmg_rxn_16472_p1_CC=sbr-N-sbr

>  <frequencies_cm1_list>  (4) 
[183.94593576684, 430.87586088872, 744.9511684695599, 909.3948659275999, 1050.2642027820798, 1063.7578289358798, 1237.9320445923597, 1377.0846351168398, 1461.72709617116, 1465.6893467008, 1739.36617964408, 2963.10416558, 3026.2186276561197, 3097.525403219, 3131.35217290532]

>  <E0_kJmol>  (4) 
-349855

>  <H298_kJmol>  (4) 
-349842

$$$$

     RDKit          3D

 14 13  0  0  0  0  0  0  0  0999 V2000
    2.5796   -0.5432    0.2329 C   0  0  0  0  0  3  0  0  0  1  0  0
    1.2594    0.0982    0.3029 C   0  0  0  0  0  0  0  0  0  2  0  0
   -0.0483   -1.0244    0.9576 S   0  0  0  0  0  0  0  0  0  3  0  0
   -0.0049   -2.3732   -0.2491 C   0  0  0  0  0  0  0  0  0  4  0  0
   -0.3891   -1.9781   -1.6653 C   0  0  0  0  0  0  0  0  0  5  0  0
    2.9359   -0.9798   -0.6903 H   0  0  0  0  0  0  0  0  0  6  0  0
    3.1327   -0.7454    1.1400 H   0  0  0  0  0  0  0  0  0  7  0  0
    0.9347    0.4858   -0.6621 H   0  0  0  0  0  0  0  0  0  8  0  0
    1.2442    0.9220    1.0193 H   0  0  0  0  0  0  0  0  0  9  0  0
    0.9819   -2.8380   -0.2257 H   0  0  0  0  0  0  0  0  0 10  0  0
   -0.7110   -3.1037    0.1493 H   0  0  0  0  0  0  0  0  0 11  0  0
    0.3274   -1.2737   -2.0913 H   0  0  0  0  0  0  0  0  0 12  0  0
   -0.4075   -2.8581   -2.3121 H   0  0  0  0  0  0  0  0  0 13  0  0
   -1.3749   -1.5123   -1.6865 H   0  0  0  0  0  0  0  0  0 14  0  0
  1  7  1  0
  1  6  1  0
  1  2  1  0
  2  9  1  0
  2  8  1  0
  2  3  1  0
  3  4  1  0
  4  5  1  0
  4 10  1  0
  4 11  1  0
  5 12  1  0
  5 14  1  0
  5 13  1  0
M  RAD  1   1   2
M  END
>  <rmg_smiles>  (5) 
[CH2]CSCC

>  <rmg_adjacency_list>  (5) 
multiplicity 2
1  S u0 p2 c0 {2,S} {3,S}
2  C u0 p0 c0 {1,S} {4,S} {6,S} {7,S}
3  C u0 p0 c0 {1,S} {5,S} {8,S} {9,S}
4  C u0 p0 c0 {2,S} {10,S} {11,S} {12,S}
5  C u1 p0 c0 {3,S} {13,S} {14,S}
6  H u0 p0 c0 {2,S}
7  H u0 p0 c0 {2,S}
8  H u0 p0 c0 {3,S}
9  H u0 p0 c0 {3,S}
10 H u0 p0 c0 {4,S}
11 H u0 p0 c0 {4,S}
12 H u0 p0 c0 {4,S}
13 H u0 p0 c0 {5,S}
14 H u0 p0 c0 {5,S}


>  <multiplicity>  (5) 
2

>  <reaction>  (5) 
rmg_rxn_16472

>  <type>  (5) 
r2

>  <role_mapnums>  (5) 
{}

>  <role_mapidx>  (5) 
{}

>  <ordered_mapped_smiles>  (5) 
[C:1]([C:2]([S:3][C:4]([C:5]([H:12])([H:13])[H:14])([H:10])[H:11])([H:8])[H:9])([H:6])[H:7]

>  <level_of_theory>  (5) 
wb97xd/def2tzvp

>  <lot_method>  (5) 
wb97xd

>  <lot_basis>  (5) 
def2tzvp

>  <spin_multiplicity>  (5) 
2.0

>  <optical_isomers>  (5) 
2.0

>  <modes>  (5) 
IdealGasTranslation(mass=(89.0425, 'amu')),         NonlinearRotor(             inertia = ([94.593, 177.437, 223.626

>  <frequency_value>  (5) 
unknown

>  <frequency_units>  (5) 
unknown

>  <frequency_list>  (5) 
unknown

>  <arkane_path>  (5) 
/home/calvin/Dropbox/PersonalFolders/Calvin/ZEUS_Converged/rmg_rxn_16472/output/Species/rmg_rxn_16472_r2_sbr-CH2-sbrCSCC/arkane/output.py

>  <path_exists>  (5) 
True

>  <E0_value>  (5) 
-1459449.5061221253

>  <E0_units>  (5) 
kJ/mol

>  <thermo_class>  (5) 
NASA

>  <Cp0_value>  (5) 
33.257888

>  <Cp0_units>  (5) 
J/(mol*K)

>  <CpInf_value>  (5) 
332.57888

>  <CpInf_units>  (5) 
J/(mol*K)

>  <Tmin_value>  (5) 
10.0

>  <Tmin_units>  (5) 
K

>  <Tmax_value>  (5) 
3000.0

>  <Tmax_units>  (5) 
K

>  <polynomials>  (5) 
[{"name": "polynomial1", "class": "NASAPolynomial", "Tmin_value": 10.0, "Tmin_units": "K", "Tmax_value": 1031.5664732113787, "Tmax_units": "K", "coeffs": [3.571498205861859, 0.037737872004628435, -4.953131283097284e-06, -1.3015656626122288e-08, 5.855741301573353e-12, -175531227.27702728, 12.507826185458129]}, {"name": "polynomial2", "class": "NASAPolynomial", "Tmin_value": 1031.5664732113787, "Tmin_units": "K", "Tmax_value": 3000.0, "Tmax_units": "K", "coeffs": [5.155436063841595, 0.040140729427858166, -2.0872011826789042e-05, 5.301965959231365e-09, -5.295497909970172e-13, -175532008.69946328, 2.613400571142036]}]

>  <H298_value>  (5) 
-348811.4834824267

>  <H298_units>  (5) 
kcal/mol

>  <S298_value>  (5) 
86.99527720093695

>  <S298_units>  (5) 
cal/(mol*K)

>  <Cp_T_value_list>  (5) 
[28.10523396778042, 34.16216821736596, 39.627238837493536, 44.47093196896326, 52.31576913531838, 58.01912406758752, 66.80549658046436, 71.32437582500742, 73.51786670673549]

>  <Cp_T_units>  (5) 
cal/(mol*K)

>  <T_list>  (5) 
[300.0, 400.0, 500.0, 600.0, 800.0, 1000.0, 1500.0, 2000.0, 2400.0]

>  <T_units>  (5) 
K

>  <yaml_path>  (5) 
/home/calvin/Dropbox/PersonalFolders/Calvin/ZEUS_Converged/rmg_rxn_16472/output/Species/rmg_rxn_16472_r2_sbr-CH2-sbrCSCC/rmg_rxn_16472_r2_sbr-CH2-sbrCSCC.yml

>  <frequencies_cm1>  (5) 
[55.01828638384, 115.48895911176, 192.73567697644, 233.70411139555998, 259.89479340604, 323.54488033712, 364.23176835811995, 563.4155445500401, 638.47169409764, 687.12428508984, 740.0206730098, 780.74876294272, 985.7694766566399, 1009.68031954088, 1055.6959881701998, 1069.5123626340398, 1077.49179957588, 1214.7147672254398, 1255.0102370831999, 1271.8892869997599, 1297.5512111406, 1400.98174403044, 1442.24545881832, 1457.86785042132, 1467.7288413408398, 1480.71431058096, 1491.3787387829198, 3015.89754872016, 3034.46587702544, 3035.7156683536796, 3075.4068435032796, 3086.44895589784, 3092.5949077592395, 3102.88851875392, 3127.86374436276, 3233.1895652009202]

>  <ZPE_kJmol>  (5) 
309.45668902786025

>  <E_elec_kJmol>  (5) 
-1459758.9628111531

>  <E0_minus_Eelec_plus_ZPE_kJmol>  (5) 
0.0

>  <rxn>  (5) 
rmg_rxn_16472

>  <species_type>  (5) 
r1

>  <species_folder>  (5) 
rmg_rxn_16472_r2_sbr-CH2-sbrCSCC

>  <frequencies_cm1_list>  (5) 
[55.01828638384, 115.48895911176, 192.73567697644, 233.70411139555998, 259.89479340604, 323.54488033712, 364.23176835811995, 563.4155445500401, 638.47169409764, 687.12428508984, 740.0206730098, 780.74876294272, 985.7694766566399, 1009.68031954088, 1055.6959881701998, 1069.5123626340398, 1077.49179957588, 1214.7147672254398, 1255.0102370831999, 1271.8892869997599, 1297.5512111406, 1400.98174403044, 1442.24545881832, 1457.86785042132, 1467.7288413408398, 1480.71431058096, 1491.3787387829198, 3015.89754872016, 3034.46587702544, 3035.7156683536796, 3075.4068435032796, 3086.44895589784, 3092.5949077592395, 3102.88851875392, 3127.86374436276, 3233.1895652009202]

>  <E0_kJmol>  (5) 
-1.45945e+06

>  <H298_kJmol>  (5) 
-1.45943e+06

$$$$
