
     RDKit          3D

  9  8  0  0  0  0  0  0  0  0999 V2000
   -0.4410   -0.9271   -1.4377 C   0  0  0  0  0  0  0  0  0  1  0  0
    0.1427   -0.8546   -0.0365 C   0  0  0  0  0  0  0  0  0  2  0  0
    0.1036    0.8016    0.7067 S   0  0  0  0  0  0  0  0  0  3  0  0
    0.1451   -0.3215   -2.1300 H   0  0  0  0  0  0  0  0  0  4  0  0
   -1.4681   -0.5600   -1.4488 H   0  0  0  0  0  0  0  0  0  5  0  0
   -0.4374   -1.9581   -1.8013 H   0  0  0  0  0  0  0  0  0  6  0  0
    1.1733   -1.2138   -0.0260 H   0  0  0  0  0  0  0  0  0  7  0  0
   -0.4175   -1.4926    0.6493 H   0  0  0  0  0  0  0  0  0  8  0  0
    1.1331    1.2683   -0.0130 H   0  0  0  0  0  0  0  0  0  9  0  0
  1  5  1  0
  1  4  1  0
  1  6  1  0
  1  2  1  0
  2  7  1  0
  2  8  1  0
  2  3  1  0
  3  9  1  0
M  END
>  <rmg_smiles>  (1) 
CCS

>  <rmg_adjacency_list>  (1) 
1 S u0 p2 c0 {2,S} {9,S}
2 C u0 p0 c0 {1,S} {3,S} {4,S} {5,S}
3 C u0 p0 c0 {2,S} {6,S} {7,S} {8,S}
4 H u0 p0 c0 {2,S}
5 H u0 p0 c0 {2,S}
6 H u0 p0 c0 {3,S}
7 H u0 p0 c0 {3,S}
8 H u0 p0 c0 {3,S}
9 H u0 p0 c0 {1,S}


>  <multiplicity>  (1) 
1

>  <reaction>  (1) 
rmg_rxn_59

>  <type>  (1) 
r1h

>  <role_mapnums>  (1) 
{"r1h_a": 3, "r1h_h": 9}

>  <role_mapidx>  (1) 
{"r1h_a": 2, "r1h_h": 8}

>  <ordered_mapped_smiles>  (1) 
[C:1]([C:2]([S:3][H:9])([H:7])[H:8])([H:4])([H:5])[H:6]

>  <mol_properties>  (1) 
{"2": {"label": "donator", "atom_type": "S2s"}, "8": {"label": "d_hydrogen", "atom_type": "H0"}}

>  <level_of_theory>  (1) 
wb97xd/def2tzvp

>  <lot_method>  (1) 
wb97xd

>  <lot_basis>  (1) 
def2tzvp

>  <spin_multiplicity>  (1) 
1.0

>  <optical_isomers>  (1) 
2.0

>  <modes>  (1) 
IdealGasTranslation(mass=(62.019, 'amu')),         NonlinearRotor(             inertia = ([17.3187, 95.472, 104.033

>  <frequency_value>  (1) 
unknown

>  <frequency_units>  (1) 
unknown

>  <frequency_list>  (1) 
unknown

>  <arkane_path>  (1) 
/home/calvin/Dropbox/PersonalFolders/Calvin/ATLAS_Converged/rmg_rxn_59/output/Species/rmg_rxn_59_r1_CCS/arkane/output.py

>  <path_exists>  (1) 
True

>  <E0_value>  (1) 
-1254880.5539257105

>  <E0_units>  (1) 
kJ/mol

>  <thermo_class>  (1) 
NASA

>  <Cp0_value>  (1) 
33.257888

>  <Cp0_units>  (1) 
J/(mol*K)

>  <CpInf_value>  (1) 
207.8618

>  <CpInf_units>  (1) 
J/(mol*K)

>  <Tmin_value>  (1) 
10.0

>  <Tmin_units>  (1) 
K

>  <Tmax_value>  (1) 
3000.0

>  <Tmax_units>  (1) 
K

>  <polynomials>  (1) 
[{"name": "polynomial1", "class": "NASAPolynomial", "Tmin_value": 10.0, "Tmin_units": "K", "Tmax_value": 456.94594899547127, "Tmax_units": "K", "coeffs": [3.912577624338537, 0.00615582175220408, 5.7903930492959536e-05, -1.030503984599124e-07, 5.821320863281675e-11, -150927266.2322327, 9.021117452044235]}, {"name": "polynomial2", "class": "NASAPolynomial", "Tmin_value": 456.94594899547127, "Tmin_units": "K", "Tmax_value": 3000.0, "Tmax_units": "K", "coeffs": [1.355858308005039, 0.028536747355681385, -1.556509888997289e-05, 4.138064392594878e-09, -4.3071928406011676e-13, -150927032.57563502, 19.353413792179573]}]

>  <H298_value>  (1) 
-299920.1188186392

>  <H298_units>  (1) 
kcal/mol

>  <S298_value>  (1) 
69.39854649104443

>  <S298_units>  (1) 
cal/(mol*K)

>  <Cp_T_value_list>  (1) 
[17.20889854420324, 20.934361703682253, 24.290211996879982, 27.24951312622027, 32.12490060154891, 35.83897490418279, 41.58221214962001, 44.47758447480336, 45.91133080340105]

>  <Cp_T_units>  (1) 
cal/(mol*K)

>  <T_list>  (1) 
[300.0, 400.0, 500.0, 600.0, 800.0, 1000.0, 1500.0, 2000.0, 2400.0]

>  <T_units>  (1) 
K

>  <yaml_path>  (1) 
/home/calvin/Dropbox/PersonalFolders/Calvin/ATLAS_Converged/rmg_rxn_59/output/Species/rmg_rxn_59_r1_CCS/rmg_rxn_59_r1_CCS.yml

>  <frequencies_cm1>  (1) 
[202.32885546847996, 256.50936964327997, 331.52431727896, 667.1482247939599, 735.969151671, 875.5955641825599, 988.159187548, 1063.6273562148, 1117.6087278153198, 1273.38628979952, 1303.10660226448, 1402.5542836687198, 1466.616389719, 1477.4456255686398, 1483.85938985752, 2700.25656848636, 3013.3430301811195, 3044.51914353392, 3080.6051513905195, 3088.40604671404, 3107.9357529641197]

>  <ZPE_kJmol>  (1) 
195.4728851436989

>  <E_elec_kJmol>  (1) 
-1255076.0268108542

>  <E0_minus_Eelec_plus_ZPE_kJmol>  (1) 
0.0

>  <rxn>  (1) 
rmg_rxn_59

>  <species_type>  (1) 
r0

>  <species_folder>  (1) 
rmg_rxn_59_r1_CCS

>  <frequencies_cm1_list>  (1) 
[202.32885546847996, 256.50936964327997, 331.52431727896, 667.1482247939599, 735.969151671, 875.5955641825599, 988.159187548, 1063.6273562148, 1117.6087278153198, 1273.38628979952, 1303.10660226448, 1402.5542836687198, 1466.616389719, 1477.4456255686398, 1483.85938985752, 2700.25656848636, 3013.3430301811195, 3044.51914353392, 3080.6051513905195, 3088.40604671404, 3107.9357529641197]

>  <E0_kJmol>  (1) 
-1.25488e+06

>  <H298_kJmol>  (1) 
-1.25487e+06

$$$$

     RDKit          3D

 15 14  0  0  0  0  0  0  0  0999 V2000
   -0.3259   -0.8830    1.6318 H   0  0  0  0  0  0  0  0  0  1  0  0
   -1.9422    0.4649   -0.8001 C   0  0  0  0  0  0  0  0  0  2  0  0
   -0.4694    0.6298   -1.1379 C   0  0  0  0  0  0  0  0  0  3  0  0
    0.5946   -0.7054   -0.5359 S   0  0  0  0  0  0  0  0  0  4  0  0
    0.5924   -0.4971    1.1941 C   0  0  0  0  0  0  0  0  0  5  0  0
    0.6349    0.8705    1.8175 C   0  0  0  0  0  0  0  0  0  6  0  0
   -2.1076    0.4138    0.2764 H   0  0  0  0  0  0  0  0  0  7  0  0
   -2.5104    1.3091   -1.1966 H   0  0  0  0  0  0  0  0  0  8  0  0
   -2.3415   -0.4519   -1.2343 H   0  0  0  0  0  0  0  0  0  9  0  0
   -0.0774    1.5798   -0.7737 H   0  0  0  0  0  0  0  0  0 10  0  0
   -0.3144    0.6167   -2.2178 H   0  0  0  0  0  0  0  0  0 11  0  0
    1.2870   -1.2166    1.6228 H   0  0  0  0  0  0  0  0  0 12  0  0
   -0.2319    1.4709    1.5377 H   0  0  0  0  0  0  0  0  0 13  0  0
    0.6329    0.7754    2.9039 H   0  0  0  0  0  0  0  0  0 14  0  0
    1.5367    1.4138    1.5208 H   0  0  0  0  0  0  0  0  0 15  0  0
  1  5  1  0
  2  9  1  0
  2  8  1  0
  2  7  1  0
  2  3  1  0
  3 11  1  0
  3  4  1  0
  3 10  1  0
  4  5  1  0
  5 12  1  0
  5  6  1  0
  6 15  1  0
  6 14  1  0
  6 13  1  0
M  END
>  <rmg_smiles>  (2) 
CCSCC

>  <rmg_adjacency_list>  (2) 
1  S u0 p2 c0 {2,S} {3,S}
2  C u0 p0 c0 {1,S} {4,S} {7,S} {8,S}
3  C u0 p0 c0 {1,S} {5,S} {6,S} {9,S}
4  C u0 p0 c0 {2,S} {10,S} {11,S} {12,S}
5  C u0 p0 c0 {3,S} {13,S} {14,S} {15,S}
6  H u0 p0 c0 {3,S}
7  H u0 p0 c0 {2,S}
8  H u0 p0 c0 {2,S}
9  H u0 p0 c0 {3,S}
10 H u0 p0 c0 {4,S}
11 H u0 p0 c0 {4,S}
12 H u0 p0 c0 {4,S}
13 H u0 p0 c0 {5,S}
14 H u0 p0 c0 {5,S}
15 H u0 p0 c0 {5,S}


>  <multiplicity>  (2) 
1

>  <reaction>  (2) 
rmg_rxn_59

>  <type>  (2) 
r2h

>  <role_mapnums>  (2) 
{"r2h_a": 5, "r2h_h": 1}

>  <role_mapidx>  (2) 
{"r2h_a": 4, "r2h_h": 0}

>  <ordered_mapped_smiles>  (2) 
[H:1][C:5]([S:4][C:3]([C:2]([H:7])([H:8])[H:9])([H:10])[H:11])([C:6]([H:13])([H:14])[H:15])[H:12]

>  <mol_properties>  (2) 
{"0": {"label": "a_hydrogen", "atom_type": "H0"}, "4": {"label": "acceptor", "atom_type": "Cs"}}

>  <level_of_theory>  (2) 
wb97xd/def2tzvp

>  <lot_method>  (2) 
wb97xd

>  <lot_basis>  (2) 
def2tzvp

>  <spin_multiplicity>  (2) 
1.0

>  <optical_isomers>  (2) 
2.0

>  <modes>  (2) 
IdealGasTranslation(mass=(90.0503, 'amu')),         NonlinearRotor(             inertia = ([97.9259, 182.785, 231.685

>  <frequency_value>  (2) 
unknown

>  <frequency_units>  (2) 
unknown

>  <frequency_list>  (2) 
unknown

>  <arkane_path>  (2) 
/home/calvin/Dropbox/PersonalFolders/Calvin/ATLAS_Converged/rmg_rxn_59/output/Species/rmg_rxn_59_p2_CCSCC/arkane/output.py

>  <path_exists>  (2) 
True

>  <E0_value>  (2) 
-1461176.7123028408

>  <E0_units>  (2) 
kJ/mol

>  <thermo_class>  (2) 
NASA

>  <Cp0_value>  (2) 
33.257888

>  <Cp0_units>  (2) 
J/(mol*K)

>  <CpInf_value>  (2) 
357.522296

>  <CpInf_units>  (2) 
J/(mol*K)

>  <Tmin_value>  (2) 
10.0

>  <Tmin_units>  (2) 
K

>  <Tmax_value>  (2) 
3000.0

>  <Tmax_units>  (2) 
K

>  <polynomials>  (2) 
[{"name": "polynomial1", "class": "NASAPolynomial", "Tmin_value": 10.0, "Tmin_units": "K", "Tmax_value": 1062.740332266501, "Tmax_units": "K", "coeffs": [3.7240768769611408, 0.031177750271788266, 1.590200165997747e-05, -3.1138888238628924e-08, 1.1081299545578661e-11, -175738967.30653694, 10.691637972640313]}, {"name": "polynomial2", "class": "NASAPolynomial", "Tmin_value": 1062.740332266501, "Tmin_units": "K", "Tmax_value": 3000.0, "Tmax_units": "K", "coeffs": [4.272256190616837, 0.04355880957526612, -2.1960566897444118e-05, 5.4018330156847166e-09, -5.231130586129144e-13, -175739899.50439465, 4.175990433518907]}]

>  <H298_value>  (2) 
-349224.4948454063

>  <H298_units>  (2) 
kcal/mol

>  <S298_value>  (2) 
82.77165630085062

>  <S298_units>  (2) 
cal/(mol*K)

>  <Cp_T_value_list>  (2) 
[27.339173580692723, 33.84270235009273, 39.920340825285514, 45.438637568785964, 54.52765007672161, 61.099128237827436, 71.10646466743047, 76.29375194018085, 78.77254304981717]

>  <Cp_T_units>  (2) 
cal/(mol*K)

>  <T_list>  (2) 
[300.0, 400.0, 500.0, 600.0, 800.0, 1000.0, 1500.0, 2000.0, 2400.0]

>  <T_units>  (2) 
K

>  <yaml_path>  (2) 
/home/calvin/Dropbox/PersonalFolders/Calvin/ATLAS_Converged/rmg_rxn_59/output/Species/rmg_rxn_59_p2_CCSCC/rmg_rxn_59_p2_CCSCC.yml

>  <frequencies_cm1>  (2) 
[66.48615186823999, 121.63491097315999, 224.63969077315997, 254.99863287287997, 273.62876404604003, 341.45397805167994, 381.0490154068, 647.6597204558, 701.8333676452798, 742.1151035324, 786.8329119362398, 985.17891591912, 988.88708799192, 1023.0091380469999, 1055.1809642711999, 1060.18699656948, 1093.14852610548, 1263.72444145428, 1273.9013136985197, 1289.2490258887199, 1308.3598460342798, 1399.5396771132398, 1399.8967603498797, 1460.7725852116798, 1462.4000607325202, 1478.53747623452, 1481.2362014652797, 1489.1538355392402, 1493.6723118798, 3015.6091353367196, 3016.10355827976, 3035.3242501904397, 3036.18262335544, 3073.69009717328, 3077.2334615983996, 3086.3528181033594, 3086.8953099436403, 3101.4052499247996, 3104.1520440527997]

>  <ZPE_kJmol>  (2) 
348.0016505911852

>  <E_elec_kJmol>  (2) 
-1461524.713953432

>  <E0_minus_Eelec_plus_ZPE_kJmol>  (2) 
0.0

>  <rxn>  (2) 
rmg_rxn_59

>  <species_type>  (2) 
p1

>  <species_folder>  (2) 
rmg_rxn_59_p2_CCSCC

>  <frequencies_cm1_list>  (2) 
[66.48615186823999, 121.63491097315999, 224.63969077315997, 254.99863287287997, 273.62876404604003, 341.45397805167994, 381.0490154068, 647.6597204558, 701.8333676452798, 742.1151035324, 786.8329119362398, 985.17891591912, 988.88708799192, 1023.0091380469999, 1055.1809642711999, 1060.18699656948, 1093.14852610548, 1263.72444145428, 1273.9013136985197, 1289.2490258887199, 1308.3598460342798, 1399.5396771132398, 1399.8967603498797, 1460.7725852116798, 1462.4000607325202, 1478.53747623452, 1481.2362014652797, 1489.1538355392402, 1493.6723118798, 3015.6091353367196, 3016.10355827976, 3035.3242501904397, 3036.18262335544, 3073.69009717328, 3077.2334615983996, 3086.3528181033594, 3086.8953099436403, 3101.4052499247996, 3104.1520440527997]

>  <E0_kJmol>  (2) 
-1.46118e+06

>  <H298_kJmol>  (2) 
-1.46116e+06

$$$$

     RDKit          3D

 23 21  0  0  0  0  0  0  0  0999 V2000
   -1.5134   -2.3376   -0.3040 C   0  0  0  0  0  0  0  0  0  1  0  0
   -0.9297   -2.2651    1.0973 C   0  0  0  0  0  0  0  0  0  2  0  0
   -0.9689   -0.6090    1.8404 S   0  0  0  0  0  1  0  0  0  3  0  0
   -0.9273   -1.7320   -0.9963 H   0  0  0  0  0  0  0  0  0  4  0  0
   -2.5406   -1.9706   -0.3150 H   0  0  0  0  0  0  0  0  0  5  0  0
   -1.5099   -3.3686   -0.6675 H   0  0  0  0  0  0  0  0  0  6  0  0
    0.1009   -2.6243    1.1077 H   0  0  0  0  0  0  0  0  0  7  0  0
   -1.4899   -2.9032    1.7830 H   0  0  0  0  0  0  0  0  0  8  0  0
    0.1976   -0.0801    1.0250 H   0  0  0  0  0  0  0  0  0  9  0  0
   -1.1107    1.3971   -1.5537 C   0  0  0  0  0  0  0  0  0 10  0  0
    0.3622    1.5620   -1.8914 C   0  0  0  0  0  0  0  0  0 11  0  0
    1.4261    0.2268   -1.2895 S   0  0  0  0  0  0  0  0  0 12  0  0
    1.4240    0.4351    0.4405 C   0  0  0  0  0  0  0  0  0 13  0  0
    1.4665    1.8027    1.0640 C   0  0  0  0  0  0  0  0  0 14  0  0
   -1.2760    1.3461   -0.4772 H   0  0  0  0  0  0  0  0  0 15  0  0
   -1.6788    2.2414   -1.9502 H   0  0  0  0  0  0  0  0  0 16  0  0
   -1.5099    0.4804   -1.9879 H   0  0  0  0  0  0  0  0  0 17  0  0
    0.7541    2.5120   -1.5273 H   0  0  0  0  0  0  0  0  0 18  0  0
    0.5172    1.5490   -2.9714 H   0  0  0  0  0  0  0  0  0 19  0  0
    2.1185   -0.2844    0.8692 H   0  0  0  0  0  0  0  0  0 20  0  0
    0.5997    2.4031    0.7841 H   0  0  0  0  0  0  0  0  0 21  0  0
    1.4645    1.7077    2.1504 H   0  0  0  0  0  0  0  0  0 22  0  0
    2.3682    2.3460    0.7672 H   0  0  0  0  0  0  0  0  0 23  0  0
  1  4  1  0
  1  5  1  0
  1  6  1  0
  1  2  1  0
  2  8  1  0
  2  3  1  0
  2  7  1  0
  9 13  1  0
 10 16  1  0
 10 15  1  0
 10 11  1  0
 10 17  1  0
 11 12  1  0
 11 19  1  0
 11 18  1  0
 12 13  1  0
 13 20  1  0
 13 14  1  0
 14 23  1  0
 14 22  1  0
 14 21  1  0
M  RAD  1   3   2
M  END
>  <rmg_smiles>  (3) 
CCSCC.CC[S]

>  <rmg_adjacency_list>  (3) 
multiplicity 2
1  S u0 p2 c0 {3,S} {4,S}
2  S u1 p2 c0 {8,S}
3  C u0 p0 c0 {1,S} {5,S} {10,S} {11,S}
4  C u0 p0 c0 {1,S} {6,S} {9,S} {12,S}
5  C u0 p0 c0 {3,S} {18,S} {19,S} {20,S}
6  C u0 p0 c0 {4,S} {21,S} {22,S} {23,S}
7  C u0 p0 c0 {8,S} {13,S} {14,S} {15,S}
8  C u0 p0 c0 {2,S} {7,S} {16,S} {17,S}
9  H u0 p0 c0 {4,S}
10 H u0 p0 c0 {3,S}
11 H u0 p0 c0 {3,S}
12 H u0 p0 c0 {4,S}
13 H u0 p0 c0 {7,S}
14 H u0 p0 c0 {7,S}
15 H u0 p0 c0 {7,S}
16 H u0 p0 c0 {8,S}
17 H u0 p0 c0 {8,S}
18 H u0 p0 c0 {5,S}
19 H u0 p0 c0 {5,S}
20 H u0 p0 c0 {5,S}
21 H u0 p0 c0 {6,S}
22 H u0 p0 c0 {6,S}
23 H u0 p0 c0 {6,S}


>  <multiplicity>  (3) 
2

>  <reaction>  (3) 
rmg_rxn_59

>  <type>  (3) 
ts

>  <role_mapnums>  (3) 
{"*2": 9, "*1": 3, "*3": 13, "*0": 12, "*4": 2}

>  <role_mapidx>  (3) 
{"*2": 8, "*1": 2, "*3": 12, "*0": 11, "*4": 1}

>  <ordered_mapped_smiles>  (3) 
[C:1]([C:2]([S:3])([H:7])[H:8])([H:4])([H:5])[H:6].[H:9][C:13]([S:12][C:11]([C:10]([H:15])([H:16])[H:17])([H:18])[H:19])([C:14]([H:21])([H:22])[H:23])[H:20]

>  <mol_properties>  (3) 
{"1": {"label": "*4", "atom_type": "Cs"}, "2": {"label": "*1", "atom_type": "S2s"}, "8": {"label": "*2", "atom_type": "H0"}, "11": {"label": "*0", "atom_type": "S2s"}, "12": {"label": "*3", "atom_type": "Cs"}}

>  <level_of_theory>  (3) 
wb97xd/def2tzvp

>  <lot_method>  (3) 
wb97xd

>  <lot_basis>  (3) 
def2tzvp

>  <spin_multiplicity>  (3) 
2.0

>  <optical_isomers>  (3) 
2.0

>  <modes>  (3) 
IdealGasTranslation(mass=(151.062, 'amu')),         NonlinearRotor(             inertia = ([325.509, 615.865, 713.984

>  <frequency_value>  (3) 
-1149.24

>  <frequency_units>  (3) 
cm^-1

>  <frequency_list>  (3) 
unknown

>  <arkane_path>  (3) 
/home/calvin/Dropbox/PersonalFolders/Calvin/ATLAS_Converged/rmg_rxn_59/output/rxns/TS0/arkane/output.py

>  <path_exists>  (3) 
True

>  <E0_value>  (3) 
-2714360.0

>  <E0_units>  (3) 
kJ/mol

>  <thermo_class>  (3) 
unknown

>  <Cp0_value>  (3) 
unknown

>  <Cp0_units>  (3) 
unknown

>  <CpInf_value>  (3) 
unknown

>  <CpInf_units>  (3) 
unknown

>  <Tmin_value>  (3) 
unknown

>  <Tmin_units>  (3) 
unknown

>  <Tmax_value>  (3) 
unknown

>  <Tmax_units>  (3) 
unknown

>  <polynomials>  (3) 
unknown

>  <H298_value>  (3) 
unknown

>  <H298_units>  (3) 
unknown

>  <S298_value>  (3) 
unknown

>  <S298_units>  (3) 
unknown

>  <Cp_T_value_list>  (3) 
unknown

>  <Cp_T_units>  (3) 
unknown

>  <T_list>  (3) 
unknown

>  <T_units>  (3) 
unknown

>  <yaml_path>  (3) 
unknown

>  <frequencies_cm1>  (3) 
unknown

>  <ZPE_kJmol>  (3) 
unknown

>  <E_elec_kJmol>  (3) 
unknown

>  <E0_minus_Eelec_plus_ZPE_kJmol>  (3) 
unknown

>  <rxn>  (3) 
unknown

>  <species_type>  (3) 
unknown

>  <species_folder>  (3) 
unknown

>  <frequencies_cm1_list>  (3) 
[]

>  <ts_imag_freq_cm1>  (3) 
-1163.2018

>  <ts_freq_out_path>  (3) 
/home/calvin/Dropbox/PersonalFolders/Calvin/ATLAS_Converged/rmg_rxn_59/output/rxns/TS0/geometry/freq.out

>  <E0_kJmol>  (3) 
-2.71436e+06

>  <H298_kJmol>  (3) 
unknown

$$$$

     RDKit          3D

  8  7  0  0  0  0  0  0  0  0999 V2000
    0.8135   -0.0283    0.0400 C   0  0  0  0  0  0  0  0  0  1  0  0
   -0.7038   -0.1008   -0.0090 C   0  0  0  0  0  0  0  0  0  2  0  0
   -1.5421    1.4429   -0.3606 S   0  0  0  0  0  1  0  0  0  3  0  0
    1.1442    0.6666    0.8124 H   0  0  0  0  0  0  0  0  0  4  0  0
    1.2169    0.3128   -0.9137 H   0  0  0  0  0  0  0  0  0  5  0  0
    1.2356   -1.0119    0.2594 H   0  0  0  0  0  0  0  0  0  6  0  0
   -1.1179   -0.4663    0.9365 H   0  0  0  0  0  0  0  0  0  7  0  0
   -1.0463   -0.8150   -0.7650 H   0  0  0  0  0  0  0  0  0  8  0  0
  1  5  1  0
  1  4  1  0
  1  6  1  0
  1  2  1  0
  2  8  1  0
  2  3  1  0
  2  7  1  0
M  RAD  1   3   2
M  END
>  <rmg_smiles>  (4) 
CC[S]

>  <rmg_adjacency_list>  (4) 
multiplicity 2
1 S u1 p2 c0 {3,S}
2 C u0 p0 c0 {3,S} {4,S} {5,S} {6,S}
3 C u0 p0 c0 {1,S} {2,S} {7,S} {8,S}
4 H u0 p0 c0 {2,S}
5 H u0 p0 c0 {2,S}
6 H u0 p0 c0 {2,S}
7 H u0 p0 c0 {3,S}
8 H u0 p0 c0 {3,S}


>  <multiplicity>  (4) 
2

>  <reaction>  (4) 
rmg_rxn_59

>  <type>  (4) 
r1

>  <role_mapnums>  (4) 
{}

>  <role_mapidx>  (4) 
{}

>  <ordered_mapped_smiles>  (4) 
[C:1]([C:2]([S:3])([H:7])[H:8])([H:4])([H:5])[H:6]

>  <level_of_theory>  (4) 
wb97xd/def2tzvp

>  <lot_method>  (4) 
wb97xd

>  <lot_basis>  (4) 
def2tzvp

>  <spin_multiplicity>  (4) 
2.0

>  <optical_isomers>  (4) 
1.0

>  <modes>  (4) 
IdealGasTranslation(mass=(61.0112, 'amu')),         NonlinearRotor(             inertia = ([15.0526, 92.9571, 101.83

>  <frequency_value>  (4) 
unknown

>  <frequency_units>  (4) 
unknown

>  <frequency_list>  (4) 
unknown

>  <arkane_path>  (4) 
/home/calvin/Dropbox/PersonalFolders/Calvin/ATLAS_Converged/rmg_rxn_59/output/Species/rmg_rxn_59_p1_CCsbr-S-sbr/arkane/output.py

>  <path_exists>  (4) 
True

>  <E0_value>  (4) 
-1253208.9221678202

>  <E0_units>  (4) 
kJ/mol

>  <thermo_class>  (4) 
NASA

>  <Cp0_value>  (4) 
33.257888

>  <Cp0_units>  (4) 
J/(mol*K)

>  <CpInf_value>  (4) 
182.918384

>  <CpInf_units>  (4) 
J/(mol*K)

>  <Tmin_value>  (4) 
10.0

>  <Tmin_units>  (4) 
K

>  <Tmax_value>  (4) 
3000.0

>  <Tmax_units>  (4) 
K

>  <polynomials>  (4) 
[{"name": "polynomial1", "class": "NASAPolynomial", "Tmin_value": 10.0, "Tmin_units": "K", "Tmax_value": 439.8948541816842, "Tmax_units": "K", "coeffs": [3.971339543705097, 0.0017391744117265613, 6.63954490046716e-05, -1.1831925607907658e-07, 6.905287760354991e-11, -150726216.8938371, 8.832644871809913]}, {"name": "polynomial2", "class": "NASAPolynomial", "Tmin_value": 439.8948541816842, "Tmin_units": "K", "Tmax_value": 3000.0, "Tmax_units": "K", "coeffs": [1.3688047752980983, 0.025402504662807867, -1.4288371587704093e-05, 3.949227152282491e-09, -4.293702088040937e-13, -150725987.9087496, 19.25130876147427]}]

>  <H298_value>  (4) 
-299520.84801961965

>  <H298_units>  (4) 
kcal/mol

>  <S298_value>  (4) 
67.59785973719134

>  <S298_units>  (4) 
cal/(mol*K)

>  <Cp_T_value_list>  (4) 
[15.566564868119817, 18.84985080788835, 21.78928600392575, 24.370863031193732, 28.60064094456479, 31.800857847864073, 36.720954324835084, 39.2358455744684, 40.504114758329315]

>  <Cp_T_units>  (4) 
cal/(mol*K)

>  <T_list>  (4) 
[300.0, 400.0, 500.0, 600.0, 800.0, 1000.0, 1500.0, 2000.0, 2400.0]

>  <T_units>  (4) 
K

>  <yaml_path>  (4) 
/home/calvin/Dropbox/PersonalFolders/Calvin/ATLAS_Converged/rmg_rxn_59/output/Species/rmg_rxn_59_p1_CCsbr-S-sbr/rmg_rxn_59_p1_CCsbr-S-sbr.yml

>  <frequencies_cm1>  (4) 
[226.21909739676, 334.16123964184, 489.39630978575997, 681.8298394081199, 904.8283206898, 980.8458481821998, 1069.54669756064, 1246.44023940384, 1278.3648541565199, 1403.29591808328, 1419.59814123296, 1475.8250170331198, 1482.36925404308, 2999.6639954236794, 3016.93446350348, 3020.6083006496797, 3090.0403892202, 3104.2962507445195]

>  <ZPE_kJmol>  (4) 
168.81863804478797

>  <E_elec_kJmol>  (4) 
-1253377.740805865

>  <E0_minus_Eelec_plus_ZPE_kJmol>  (4) 
0.0

>  <rxn>  (4) 
rmg_rxn_59

>  <species_type>  (4) 
p0

>  <species_folder>  (4) 
rmg_rxn_59_p1_CCsbr-S-sbr

>  <frequencies_cm1_list>  (4) 
[226.21909739676, 334.16123964184, 489.39630978575997, 681.8298394081199, 904.8283206898, 980.8458481821998, 1069.54669756064, 1246.44023940384, 1278.3648541565199, 1403.29591808328, 1419.59814123296, 1475.8250170331198, 1482.36925404308, 2999.6639954236794, 3016.93446350348, 3020.6083006496797, 3090.0403892202, 3104.2962507445195]

>  <E0_kJmol>  (4) 
-1.25321e+06

>  <H298_kJmol>  (4) 
-1.2532e+06

$$$$

     RDKit          3D

 14 13  0  0  0  0  0  0  0  0999 V2000
    2.6194    0.1388   -0.2451 C   0  0  0  0  0  0  0  0  0  1  0  0
    1.2416   -0.4914   -0.3670 C   0  0  0  0  0  0  0  0  0  2  0  0
    0.9567   -1.8675    0.7732 S   0  0  0  0  0  0  0  0  0  3  0  0
    1.9992   -3.0673    0.1320 C   0  0  0  0  0  3  0  0  0  4  0  0
    2.1769   -4.3519    0.8615 C   0  0  0  0  0  0  0  0  0  5  0  0
    3.4009   -0.5920   -0.4552 H   0  0  0  0  0  0  0  0  0  6  0  0
    2.7219    0.9635   -0.9540 H   0  0  0  0  0  0  0  0  0  7  0  0
    2.7821    0.5262    0.7612 H   0  0  0  0  0  0  0  0  0  8  0  0
    1.0587   -0.8507   -1.3815 H   0  0  0  0  0  0  0  0  0  9  0  0
    0.4587    0.2313   -0.1333 H   0  0  0  0  0  0  0  0  0 10  0  0
    2.2677   -2.9922   -0.9152 H   0  0  0  0  0  0  0  0  0 11  0  0
    1.3745   -5.0711    0.6500 H   0  0  0  0  0  0  0  0  0 12  0  0
    3.1173   -4.8269    0.5747 H   0  0  0  0  0  0  0  0  0 13  0  0
    2.1945   -4.1971    1.9428 H   0  0  0  0  0  0  0  0  0 14  0  0
  1  8  1  0
  1  7  1  0
  1  6  1  0
  1  2  1  0
  2 10  1  0
  2  9  1  0
  2  3  1  0
  3  4  1  0
  4  5  1  0
  4 11  1  0
  5 12  1  0
  5 14  1  0
  5 13  1  0
M  RAD  1   4   2
M  END
>  <rmg_smiles>  (5) 
CCS[CH]C

>  <rmg_adjacency_list>  (5) 
multiplicity 2
1  S u0 p2 c0 {2,S} {5,S}
2  C u0 p0 c0 {1,S} {3,S} {6,S} {7,S}
3  C u0 p0 c0 {2,S} {8,S} {9,S} {10,S}
4  C u0 p0 c0 {5,S} {11,S} {12,S} {13,S}
5  C u1 p0 c0 {1,S} {4,S} {14,S}
6  H u0 p0 c0 {2,S}
7  H u0 p0 c0 {2,S}
8  H u0 p0 c0 {3,S}
9  H u0 p0 c0 {3,S}
10 H u0 p0 c0 {3,S}
11 H u0 p0 c0 {4,S}
12 H u0 p0 c0 {4,S}
13 H u0 p0 c0 {4,S}
14 H u0 p0 c0 {5,S}


>  <multiplicity>  (5) 
2

>  <reaction>  (5) 
rmg_rxn_59

>  <type>  (5) 
r2

>  <role_mapnums>  (5) 
{}

>  <role_mapidx>  (5) 
{}

>  <ordered_mapped_smiles>  (5) 
[C:1]([C:2]([S:3][C:4]([C:5]([H:12])([H:13])[H:14])[H:11])([H:9])[H:10])([H:6])([H:7])[H:8]

>  <level_of_theory>  (5) 
wb97xd/def2tzvp

>  <lot_method>  (5) 
wb97xd

>  <lot_basis>  (5) 
def2tzvp

>  <spin_multiplicity>  (5) 
2.0

>  <optical_isomers>  (5) 
2.0

>  <modes>  (5) 
IdealGasTranslation(mass=(89.0425, 'amu')),         NonlinearRotor(             inertia = ([61.1392, 234.583, 269.728

>  <frequency_value>  (5) 
unknown

>  <frequency_units>  (5) 
unknown

>  <frequency_list>  (5) 
unknown

>  <arkane_path>  (5) 
/home/calvin/Dropbox/PersonalFolders/Calvin/ATLAS_Converged/rmg_rxn_59/output/Species/rmg_rxn_59_r2_CCSsbr-CH-sbrC/arkane/output.py

>  <path_exists>  (5) 
True

>  <E0_value>  (5) 
-1459485.5932708492

>  <E0_units>  (5) 
kJ/mol

>  <thermo_class>  (5) 
NASA

>  <Cp0_value>  (5) 
33.257888

>  <Cp0_units>  (5) 
J/(mol*K)

>  <CpInf_value>  (5) 
332.57888

>  <CpInf_units>  (5) 
J/(mol*K)

>  <Tmin_value>  (5) 
10.0

>  <Tmin_units>  (5) 
K

>  <Tmax_value>  (5) 
3000.0

>  <Tmax_units>  (5) 
K

>  <polynomials>  (5) 
[{"name": "polynomial1", "class": "NASAPolynomial", "Tmin_value": 10.0, "Tmin_units": "K", "Tmax_value": 454.73652427014537, "Tmax_units": "K", "coeffs": [3.493929872758391, 0.04996954034356644, -9.706557814371871e-05, 2.0442141353294147e-07, -1.6137135098939988e-10, -175535569.76703313, 12.309949975756851]}, {"name": "polynomial2", "class": "NASAPolynomial", "Tmin_value": 454.73652427014537, "Tmin_units": "K", "Tmax_value": 3000.0, "Tmax_units": "K", "coeffs": [1.385626895078579, 0.048785175139354195, -2.8078373702267293e-05, 7.871486597778785e-09, -8.60198315864174e-13, -175535174.03261974, 23.062818681609528]}]

>  <H298_value>  (5) 
-348819.9985643355

>  <H298_units>  (5) 
kcal/mol

>  <S298_value>  (5) 
87.9960956943955

>  <S298_units>  (5) 
cal/(mol*K)

>  <Cp_T_value_list>  (5) 
[27.74370824131066, 33.58998475979596, 39.12570036512099, 43.99134046831092, 51.90875846619441, 57.83509485748177, 66.76728096321004, 71.24374186653883, 73.55591166534288]

>  <Cp_T_units>  (5) 
cal/(mol*K)

>  <T_list>  (5) 
[300.0, 400.0, 500.0, 600.0, 800.0, 1000.0, 1500.0, 2000.0, 2400.0]

>  <T_units>  (5) 
K

>  <yaml_path>  (5) 
/home/calvin/Dropbox/PersonalFolders/Calvin/ATLAS_Converged/rmg_rxn_59/output/Species/rmg_rxn_59_r2_CCSsbr-CH-sbrC/rmg_rxn_59_r2_CCSsbr-CH-sbrC.yml

>  <frequencies_cm1>  (5) 
[75.52310454936, 94.65452565087999, 130.82293733132, 178.45921449616, 258.28105185583996, 303.93277026320004, 399.92635805147995, 433.28617273604, 673.1087680517201, 749.4147089275599, 777.8920970496, 982.3977868645198, 1001.81075436416, 1020.13873818324, 1056.2934158930398, 1066.42908622536, 1115.65850398444, 1268.2978536774, 1291.53573200028, 1305.242234699, 1399.3061996123597, 1400.4461191754801, 1458.1905987313598, 1459.3785871917198, 1474.98037783876, 1476.0447605633601, 1485.12978214172, 2961.25694652892, 3017.9164424042397, 3034.9122310712396, 3037.7551629937198, 3080.4884126400793, 3082.99486228188, 3091.5030570933595, 3108.8215940703994, 3146.2535310497196]

>  <ZPE_kJmol>  (5) 
310.42196217621137

>  <E_elec_kJmol>  (5) 
-1459796.0152330254

>  <E0_minus_Eelec_plus_ZPE_kJmol>  (5) 
0.0

>  <rxn>  (5) 
rmg_rxn_59

>  <species_type>  (5) 
r1

>  <species_folder>  (5) 
rmg_rxn_59_r2_CCSsbr-CH-sbrC

>  <frequencies_cm1_list>  (5) 
[75.52310454936, 94.65452565087999, 130.82293733132, 178.45921449616, 258.28105185583996, 303.93277026320004, 399.92635805147995, 433.28617273604, 673.1087680517201, 749.4147089275599, 777.8920970496, 982.3977868645198, 1001.81075436416, 1020.13873818324, 1056.2934158930398, 1066.42908622536, 1115.65850398444, 1268.2978536774, 1291.53573200028, 1305.242234699, 1399.3061996123597, 1400.4461191754801, 1458.1905987313598, 1459.3785871917198, 1474.98037783876, 1476.0447605633601, 1485.12978214172, 2961.25694652892, 3017.9164424042397, 3034.9122310712396, 3037.7551629937198, 3080.4884126400793, 3082.99486228188, 3091.5030570933595, 3108.8215940703994, 3146.2535310497196]

>  <E0_kJmol>  (5) 
-1.45949e+06

>  <H298_kJmol>  (5) 
-1.45946e+06

$$$$
