
     RDKit          3D

 13 12  0  0  0  0  0  0  0  0999 V2000
   -0.7686    1.8152   -0.6453 N   0  0  0  0  0  1  0  0  0  1  0  0
   -0.3359    1.3882    0.4030 N   0  0  0  0  0  0  0  0  0  2  0  0
    0.3099    0.1048    0.6225 C   0  0  0  0  0  0  0  0  0  3  0  0
   -0.0345   -0.9676   -0.3686 C   0  0  0  0  0  0  0  0  0  4  0  0
    0.7327   -2.2563   -0.1015 C   0  0  0  0  0  0  0  0  0  5  0  0
   -0.3601    1.9554    1.2772 H   0  0  0  0  0  0  0  0  0  6  0  0
    1.3676    0.3188    0.4566 H   0  0  0  0  0  0  0  0  0  7  0  0
    0.2376   -0.1766    1.6750 H   0  0  0  0  0  0  0  0  0  8  0  0
   -1.1133   -1.1534   -0.3362 H   0  0  0  0  0  0  0  0  0  9  0  0
    0.1684   -0.5945   -1.3741 H   0  0  0  0  0  0  0  0  0 10  0  0
    0.5249   -2.6441    0.8985 H   0  0  0  0  0  0  0  0  0 11  0  0
    1.8102   -2.1003   -0.1850 H   0  0  0  0  0  0  0  0  0 12  0  0
    0.4538   -3.0268   -0.8203 H   0  0  0  0  0  0  0  0  0 13  0  0
  1  2  1  0
  2  6  1  0
  2  3  1  0
  3  4  1  0
  3  7  1  0
  3  8  1  0
  4  5  1  0
  4  9  1  0
  4 10  1  0
  5 11  1  0
  5 12  1  0
  5 13  1  0
M  RAD  1   1   3
M  END
>  <rmg_smiles>  (1) 
CCCN[N]

>  <rmg_adjacency_list>  (1) 
multiplicity 3
1  N u0 p1 c0 {2,S} {4,S} {13,S}
2  N u2 p2 c0 {1,S}
3  C u0 p0 c0 {4,S} {5,S} {6,S} {7,S}
4  C u0 p0 c0 {1,S} {3,S} {8,S} {9,S}
5  C u0 p0 c0 {3,S} {10,S} {11,S} {12,S}
6  H u0 p0 c0 {3,S}
7  H u0 p0 c0 {3,S}
8  H u0 p0 c0 {4,S}
9  H u0 p0 c0 {4,S}
10 H u0 p0 c0 {5,S}
11 H u0 p0 c0 {5,S}
12 H u0 p0 c0 {5,S}
13 H u0 p0 c0 {1,S}


>  <multiplicity>  (1) 
3

>  <reaction>  (1) 
rmg_rxn_16706

>  <type>  (1) 
r1h

>  <role_mapnums>  (1) 
{"r1h_a": 3, "r1h_h": 7}

>  <role_mapidx>  (1) 
{"r1h_a": 2, "r1h_h": 6}

>  <ordered_mapped_smiles>  (1) 
[N:1][N:2]([C:3]([C:4]([C:5]([H:11])([H:12])[H:13])([H:9])[H:10])([H:7])[H:8])[H:6]

>  <mol_properties>  (1) 
{"2": {"label": "donator", "atom_type": "Cs"}, "6": {"label": "d_hydrogen", "atom_type": "H0"}}

>  <level_of_theory>  (1) 
wb97xd/def2tzvp

>  <lot_method>  (1) 
wb97xd

>  <lot_basis>  (1) 
def2tzvp

>  <spin_multiplicity>  (1) 
1.0

>  <optical_isomers>  (1) 
2.0

>  <modes>  (1) 
IdealGasTranslation(mass=(72.0687, 'amu')),         NonlinearRotor(             inertia = ([57.2768, 139.247, 168.498

>  <frequency_value>  (1) 
unknown

>  <frequency_units>  (1) 
unknown

>  <frequency_list>  (1) 
unknown

>  <arkane_path>  (1) 
/home/calvin/Dropbox/PersonalFolders/Calvin/ZEUS_Converged/rmg_rxn_16706/output/Species/rmg_rxn_16706_r2_sbr-N--sbr=sbr-NHp-sbrCCC/arkane/output.py

>  <path_exists>  (1) 
True

>  <E0_value>  (1) 
-599806.8849416103

>  <E0_units>  (1) 
kJ/mol

>  <thermo_class>  (1) 
NASA

>  <Cp0_value>  (1) 
33.257888

>  <Cp0_units>  (1) 
J/(mol*K)

>  <CpInf_value>  (1) 
307.635464

>  <CpInf_units>  (1) 
J/(mol*K)

>  <Tmin_value>  (1) 
10.0

>  <Tmin_units>  (1) 
K

>  <Tmax_value>  (1) 
3000.0

>  <Tmax_units>  (1) 
K

>  <polynomials>  (1) 
[{"name": "polynomial1", "class": "NASAPolynomial", "Tmin_value": 10.0, "Tmin_units": "K", "Tmax_value": 1042.7830422296283, "Tmax_units": "K", "coeffs": [3.8866418863799566, 0.02035469426564401, 2.9512879530510683e-05, -4.134957250218198e-08, 1.416539980781168e-11, -72140110.22040336, 10.00056724606051]}, {"name": "polynomial2", "class": "NASAPolynomial", "Tmin_value": 1042.7830422296283, "Tmin_units": "K", "Tmax_value": 3000.0, "Tmax_units": "K", "coeffs": [3.5071275615409494, 0.03802645475282213, -1.9233232716814573e-05, 4.727210944293843e-09, -4.563987361780829e-13, -72140912.73046388, 7.619964814937329]}]

>  <H298_value>  (1) 
-143352.82979672542

>  <H298_units>  (1) 
kcal/mol

>  <S298_value>  (1) 
77.86358770542918

>  <S298_units>  (1) 
cal/(mol*K)

>  <Cp_T_value_list>  (1) 
[23.14600879362098, 28.748602296742785, 34.09817792523218, 39.005730248897265, 47.07653815602756, 52.800162156761196, 61.43618687218622, 65.86082050934695, 67.9504355680974]

>  <Cp_T_units>  (1) 
cal/(mol*K)

>  <T_list>  (1) 
[300.0, 400.0, 500.0, 600.0, 800.0, 1000.0, 1500.0, 2000.0, 2400.0]

>  <T_units>  (1) 
K

>  <yaml_path>  (1) 
/home/calvin/Dropbox/PersonalFolders/Calvin/ZEUS_Converged/rmg_rxn_16706/output/Species/rmg_rxn_16706_r2_sbr-N--sbr=sbr-NHp-sbrCCC/rmg_rxn_16706_r2_sbr-N--sbr=sbr-NHp-sbrCCC.yml

>  <frequencies_cm1>  (1) 
[118.41429485808, 137.53884897428, 209.01729917016, 302.19542297723996, 382.5803531331599, 639.8313571909999, 738.4275324155599, 773.1950790907199, 828.3644391515999, 914.4627010937601, 943.64052171844, 1061.8900089288397, 1111.5863816896801, 1141.6775113619199, 1249.5715847097601, 1293.14260656516, 1348.87505942228, 1379.0279919624, 1404.985196472, 1458.4378102028802, 1464.06187117996, 1484.49801949228, 1495.6637376226001, 1540.4708168355999, 1688.3170107751998, 2994.3214808447196, 3015.47866261564, 3018.8091504958397, 3033.86158231728, 3065.0102277287992, 3074.73387894192, 3091.29704753376, 3107.1323156816798]

>  <ZPE_kJmol>  (1) 
296.1387454515404

>  <E_elec_kJmol>  (1) 
-600103.0236870619

>  <E0_minus_Eelec_plus_ZPE_kJmol>  (1) 
0.0

>  <rxn>  (1) 
rmg_rxn_16706

>  <species_type>  (1) 
r1

>  <species_folder>  (1) 
rmg_rxn_16706_r2_sbr-N--sbr=sbr-NHp-sbrCCC

>  <frequencies_cm1_list>  (1) 
[118.41429485808, 137.53884897428, 209.01729917016, 302.19542297723996, 382.5803531331599, 639.8313571909999, 738.4275324155599, 773.1950790907199, 828.3644391515999, 914.4627010937601, 943.64052171844, 1061.8900089288397, 1111.5863816896801, 1141.6775113619199, 1249.5715847097601, 1293.14260656516, 1348.87505942228, 1379.0279919624, 1404.985196472, 1458.4378102028802, 1464.06187117996, 1484.49801949228, 1495.6637376226001, 1540.4708168355999, 1688.3170107751998, 2994.3214808447196, 3015.47866261564, 3018.8091504958397, 3033.86158231728, 3065.0102277287992, 3074.73387894192, 3091.29704753376, 3107.1323156816798]

>  <E0_kJmol>  (1) 
-599807

>  <H298_kJmol>  (1) 
-599788

$$$$

     RDKit          3D

  8  7  0  0  0  0  0  0  0  0999 V2000
   -0.2933    0.8441   -0.9111 C   0  0  0  0  0  0  0  0  0  1  0  0
   -0.3130   -0.1477    0.1969 C   0  0  0  0  0  0  0  0  0  2  0  0
    0.6689   -0.7061    0.7198 N   0  0  0  0  0  0  0  0  0  3  0  0
   -0.7211    1.7881   -0.5682 H   0  0  0  0  0  0  0  0  0  4  0  0
    0.7254    1.0070   -1.2655 H   0  0  0  0  0  0  0  0  0  5  0  0
   -0.9261    0.4951   -1.7291 H   0  0  0  0  0  0  0  0  0  6  0  0
    0.4295   -1.3572    1.4653 H   0  0  0  0  0  0  0  0  0  7  0  0
   -1.3315   -0.3620    0.5209 H   0  0  0  0  0  0  0  0  0  8  0  0
  1  5  1  0
  1  4  1  0
  1  6  1  0
  1  2  1  0
  2  3  1  0
  2  8  1  0
  3  7  1  0
M  END
>  <rmg_smiles>  (2) 
C[CH][NH]

>  <rmg_adjacency_list>  (2) 
1 N u0 p1 c0 {3,S} {8,S}
2 C u0 p0 c0 {3,S} {4,S} {5,S} {6,S}
3 C u0 p0 c0 {1,S} {2,S} {7,S}
4 H u0 p0 c0 {2,S}
5 H u0 p0 c0 {2,S}
6 H u0 p0 c0 {2,S}
7 H u0 p0 c0 {3,S}
8 H u0 p0 c0 {1,S}


>  <multiplicity>  (2) 
1

>  <reaction>  (2) 
rmg_rxn_16706

>  <type>  (2) 
r2h

>  <role_mapnums>  (2) 
{"r2h_a": 2, "r2h_h": 8}

>  <role_mapidx>  (2) 
{"r2h_a": 1, "r2h_h": 7}

>  <ordered_mapped_smiles>  (2) 
[C:1]([CH:2]([NH:3][H:7])[H:8])([H:4])([H:5])[H:6]

>  <mol_properties>  (2) 
{"1": {"label": "acceptor", "atom_type": "Cs"}, "7": {"label": "a_hydrogen", "atom_type": "H0"}}

>  <level_of_theory>  (2) 
wb97xd/def2tzvp

>  <lot_method>  (2) 
wb97xd

>  <lot_basis>  (2) 
def2tzvp

>  <spin_multiplicity>  (2) 
1.0

>  <optical_isomers>  (2) 
1.0

>  <modes>  (2) 
IdealGasTranslation(mass=(43.0422, 'amu')),         NonlinearRotor(             inertia = ([9.32783, 51.3348, 57.5532

>  <frequency_value>  (2) 
unknown

>  <frequency_units>  (2) 
unknown

>  <frequency_list>  (2) 
unknown

>  <arkane_path>  (2) 
/home/calvin/Dropbox/PersonalFolders/Calvin/ZEUS_Converged/rmg_rxn_16706/output/Species/rmg_rxn_16706_p1_CC=N/arkane/output.py

>  <path_exists>  (2) 
True

>  <E0_value>  (2) 
-351535.20335661684

>  <E0_units>  (2) 
kJ/mol

>  <thermo_class>  (2) 
NASA

>  <Cp0_value>  (2) 
33.257888

>  <Cp0_units>  (2) 
J/(mol*K)

>  <CpInf_value>  (2) 
182.918384

>  <CpInf_units>  (2) 
J/(mol*K)

>  <Tmin_value>  (2) 
10.0

>  <Tmin_units>  (2) 
K

>  <Tmax_value>  (2) 
3000.0

>  <Tmax_units>  (2) 
K

>  <polynomials>  (2) 
[{"name": "polynomial1", "class": "NASAPolynomial", "Tmin_value": 10.0, "Tmin_units": "K", "Tmax_value": 834.0183041901832, "Tmax_units": "K", "coeffs": [4.020859284868709, 0.0012406595733239277, 4.4482903010182226e-05, -5.482114439751344e-08, 2.0739201558559772e-11, -42279921.71645892, 6.726586383468645]}, {"name": "polynomial2", "class": "NASAPolynomial", "Tmin_value": 834.0183041901832, "Tmin_units": "K", "Tmax_value": 3000.0, "Tmax_units": "K", "coeffs": [0.8146767610859666, 0.025012560508124084, -1.3369721411120483e-05, 3.4917002293006827e-09, -3.579375529269218e-13, -42279678.881200545, 19.862274208798944]}]

>  <H298_value>  (2) 
-84015.86036687854

>  <H298_units>  (2) 
kcal/mol

>  <S298_value>  (2) 
62.66843297179497

>  <S298_units>  (2) 
cal/(mol*K)

>  <Cp_T_value_list>  (2) 
[14.078036689508782, 17.202765604471058, 20.2803800489589, 23.1023356383003, 27.639649626797436, 30.983090061901617, 36.21499785066487, 38.88468928045463, 40.19916387517873]

>  <Cp_T_units>  (2) 
cal/(mol*K)

>  <T_list>  (2) 
[300.0, 400.0, 500.0, 600.0, 800.0, 1000.0, 1500.0, 2000.0, 2400.0]

>  <T_units>  (2) 
K

>  <yaml_path>  (2) 
/home/calvin/Dropbox/PersonalFolders/Calvin/ZEUS_Converged/rmg_rxn_16706/output/Species/rmg_rxn_16706_p1_CC=N/rmg_rxn_16706_p1_CC=N.yml

>  <frequencies_cm1>  (2) 
[185.42920459596, 489.9250676554, 680.6761858743599, 921.32968641376, 1055.89513074448, 1069.62910138448, 1130.4431233784, 1267.5150173509198, 1378.7876474762, 1425.071128533, 1456.56312321052, 1463.3683056626398, 1737.36788691596, 2989.2124437666403, 3014.6889593038395, 3075.43431144456, 3123.3452680222, 3455.8927661138396]

>  <ZPE_kJmol>  (2) 
178.96482902382195

>  <E_elec_kJmol>  (2) 
-351714.16818564065

>  <E0_minus_Eelec_plus_ZPE_kJmol>  (2) 
0.0

>  <rxn>  (2) 
rmg_rxn_16706

>  <species_type>  (2) 
p0

>  <species_folder>  (2) 
rmg_rxn_16706_p1_CC=N

>  <frequencies_cm1_list>  (2) 
[185.42920459596, 489.9250676554, 680.6761858743599, 921.32968641376, 1055.89513074448, 1069.62910138448, 1130.4431233784, 1267.5150173509198, 1378.7876474762, 1425.071128533, 1456.56312321052, 1463.3683056626398, 1737.36788691596, 2989.2124437666403, 3014.6889593038395, 3075.43431144456, 3123.3452680222, 3455.8927661138396]

>  <E0_kJmol>  (2) 
-351535

>  <H298_kJmol>  (2) 
-351522

$$$$

     RDKit          3D

 20 18  0  0  0  0  0  0  0  0999 V2000
    1.7543    1.3168   -1.0870 C   0  0  0  0  0  0  0  0  0  1  0  0
    1.7345    0.3250    0.0210 C   0  0  0  0  0  3  0  0  0  2  0  0
    2.7165   -0.2334    0.5439 N   0  0  0  0  0  0  0  0  0  3  0  0
    1.3265    2.2608   -0.7441 H   0  0  0  0  0  0  0  0  0  4  0  0
    2.7729    1.4797   -1.4414 H   0  0  0  0  0  0  0  0  0  5  0  0
    1.1215    0.9678   -1.9049 H   0  0  0  0  0  0  0  0  0  6  0  0
    2.4771   -0.8845    1.2894 H   0  0  0  0  0  0  0  0  0  7  0  0
   -1.9261    1.5027   -0.6368 N   0  0  0  0  0  1  0  0  0  8  0  0
   -1.4934    1.0757    0.4115 N   0  0  0  0  0  0  0  0  0  9  0  0
   -0.8477   -0.2077    0.6309 C   0  0  0  0  0  0  0  0  0 10  0  0
   -1.1920   -1.2801   -0.3602 C   0  0  0  0  0  0  0  0  0 11  0  0
   -0.4248   -2.5688   -0.0930 C   0  0  0  0  0  0  0  0  0 12  0  0
   -1.5176    1.6429    1.2856 H   0  0  0  0  0  0  0  0  0 13  0  0
    0.4644    0.0578    0.4252 H   0  0  0  0  0  0  0  0  0 14  0  0
   -0.9199   -0.4891    1.6834 H   0  0  0  0  0  0  0  0  0 15  0  0
   -2.2709   -1.4659   -0.3278 H   0  0  0  0  0  0  0  0  0 16  0  0
   -0.9891   -0.9070   -1.3657 H   0  0  0  0  0  0  0  0  0 17  0  0
   -0.6326   -2.9566    0.9069 H   0  0  0  0  0  0  0  0  0 18  0  0
    0.6527   -2.4128   -0.1765 H   0  0  0  0  0  0  0  0  0 19  0  0
   -0.7037   -3.3393   -0.8119 H   0  0  0  0  0  0  0  0  0 20  0  0
  1  5  1  0
  1  4  1  0
  1  6  1  0
  1  2  1  0
  2  3  1  0
  3  7  1  0
  8  9  1  0
  9 10  1  0
  9 13  1  0
 10 14  1  0
 10 11  1  0
 10 15  1  0
 11 12  1  0
 11 16  1  0
 11 17  1  0
 12 19  1  0
 12 20  1  0
 12 18  1  0
M  RAD  2   2   2   8   3
M  END
>  <rmg_smiles>  (3) 
CCCN[N].C[C][NH]

>  <rmg_adjacency_list>  (3) 
multiplicity 4
1  N u0 p1 c0 {3,S} {5,S} {19,S}
2  N u0 p1 c0 {8,S} {20,S}
3  N u2 p2 c0 {1,S}
4  C u0 p0 c0 {5,S} {6,S} {9,S} {10,S}
5  C u0 p0 c0 {1,S} {4,S} {11,S} {12,S}
6  C u0 p0 c0 {4,S} {13,S} {14,S} {15,S}
7  C u0 p0 c0 {8,S} {16,S} {17,S} {18,S}
8  C u1 p1 c0 {2,S} {7,S}
9  H u0 p0 c0 {4,S}
10 H u0 p0 c0 {4,S}
11 H u0 p0 c0 {5,S}
12 H u0 p0 c0 {5,S}
13 H u0 p0 c0 {6,S}
14 H u0 p0 c0 {6,S}
15 H u0 p0 c0 {6,S}
16 H u0 p0 c0 {7,S}
17 H u0 p0 c0 {7,S}
18 H u0 p0 c0 {7,S}
19 H u0 p0 c0 {1,S}
20 H u0 p0 c0 {2,S}


>  <multiplicity>  (3) 
4

>  <reaction>  (3) 
rmg_rxn_16706

>  <type>  (3) 
ts

>  <role_mapnums>  (3) 
{"*2": 14, "*1": 10, "*3": 2, "*0": 9, "*4": 3}

>  <role_mapidx>  (3) 
{"*2": 13, "*1": 9, "*3": 1, "*0": 8, "*4": 2}

>  <ordered_mapped_smiles>  (3) 
[C:1]([CH:2][NH:3][H:7])([H:4])([H:5])[H:6].[N:8][N:9]([C:10]([C:11]([C:12]([H:18])([H:19])[H:20])([H:16])[H:17])([H:14])[H:15])[H:13]

>  <mol_properties>  (3) 
{"1": {"label": "*3", "atom_type": "C2s"}, "2": {"label": "*4", "atom_type": "N3s"}, "8": {"label": "*0", "atom_type": "N3s"}, "9": {"label": "*1", "atom_type": "Cs"}, "13": {"label": "*2", "atom_type": "H0"}}

>  <level_of_theory>  (3) 
wb97xd/def2tzvp

>  <lot_method>  (3) 
wb97xd

>  <lot_basis>  (3) 
def2tzvp

>  <spin_multiplicity>  (3) 
2.0

>  <optical_isomers>  (3) 
2.0

>  <modes>  (3) 
IdealGasTranslation(mass=(114.103, 'amu')),         NonlinearRotor(inertia=([259, 360.995, 529.193

>  <frequency_value>  (3) 
-1741.84

>  <frequency_units>  (3) 
cm^-1

>  <frequency_list>  (3) 
unknown

>  <arkane_path>  (3) 
/home/calvin/Dropbox/PersonalFolders/Calvin/ZEUS_Converged/rmg_rxn_16706/output/rxns/TS0/arkane/output.py

>  <path_exists>  (3) 
True

>  <E0_value>  (3) 
-949591.0

>  <E0_units>  (3) 
kJ/mol

>  <thermo_class>  (3) 
unknown

>  <Cp0_value>  (3) 
unknown

>  <Cp0_units>  (3) 
unknown

>  <CpInf_value>  (3) 
unknown

>  <CpInf_units>  (3) 
unknown

>  <Tmin_value>  (3) 
unknown

>  <Tmin_units>  (3) 
unknown

>  <Tmax_value>  (3) 
unknown

>  <Tmax_units>  (3) 
unknown

>  <polynomials>  (3) 
unknown

>  <H298_value>  (3) 
unknown

>  <H298_units>  (3) 
unknown

>  <S298_value>  (3) 
unknown

>  <S298_units>  (3) 
unknown

>  <Cp_T_value_list>  (3) 
unknown

>  <Cp_T_units>  (3) 
unknown

>  <T_list>  (3) 
unknown

>  <T_units>  (3) 
unknown

>  <yaml_path>  (3) 
unknown

>  <frequencies_cm1>  (3) 
unknown

>  <ZPE_kJmol>  (3) 
unknown

>  <E_elec_kJmol>  (3) 
unknown

>  <E0_minus_Eelec_plus_ZPE_kJmol>  (3) 
unknown

>  <rxn>  (3) 
unknown

>  <species_type>  (3) 
unknown

>  <species_folder>  (3) 
unknown

>  <frequencies_cm1_list>  (3) 
[]

>  <ts_imag_freq_cm1>  (3) 
-1762.9994

>  <ts_freq_out_path>  (3) 
/home/calvin/Dropbox/PersonalFolders/Calvin/ZEUS_Converged/rmg_rxn_16706/output/rxns/TS0/geometry/freq.out

>  <E0_kJmol>  (3) 
-949591

>  <H298_kJmol>  (3) 
unknown

$$$$

     RDKit          3D

 12 11  0  0  0  0  0  0  0  0999 V2000
    1.5035    1.1817    1.1766 N   0  0  0  0  0  2  0  0  0  1  0  0
    1.5580   -0.0511    0.8125 N   0  0  0  0  0  0  0  0  0  2  0  0
    0.8483   -0.7137   -0.0804 C   0  0  0  0  0  0  0  0  0  3  0  0
   -0.2212   -0.0125   -0.8376 C   0  0  0  0  0  0  0  0  0  4  0  0
   -1.4527    0.3302    0.0094 C   0  0  0  0  0  0  0  0  0  5  0  0
    2.2746   -0.5859    1.3051 H   0  0  0  0  0  0  0  0  0  6  0  0
    1.0804   -1.7613   -0.1832 H   0  0  0  0  0  0  0  0  0  7  0  0
    0.1929    0.9174   -1.2475 H   0  0  0  0  0  0  0  0  0  8  0  0
   -0.5138   -0.6336   -1.6852 H   0  0  0  0  0  0  0  0  0  9  0  0
   -1.1741    0.9508    0.8624 H   0  0  0  0  0  0  0  0  0 10  0  0
   -2.1844    0.8814   -0.5832 H   0  0  0  0  0  0  0  0  0 11  0  0
   -1.9295   -0.5758    0.3866 H   0  0  0  0  0  0  0  0  0 12  0  0
  1  2  1  0
  2  6  1  0
  2  3  1  0
  3  4  1  0
  3  7  1  0
  4  8  1  0
  4  5  1  0
  4  9  1  0
  5 11  1  0
  5 12  1  0
  5 10  1  0
M  RAD  1   1   2
M  END
>  <rmg_smiles>  (4) 
CC[CH]N[N]

>  <rmg_adjacency_list>  (4) 
multiplicity 2
1  N u0 p1 c0 {2,S} {5,S} {12,S}
2  N u1 p2 c0 {1,S}
3  C u0 p0 c0 {4,S} {5,S} {6,S} {7,S}
4  C u0 p0 c0 {3,S} {8,S} {9,S} {10,S}
5  C u0 p0 c0 {1,S} {3,S} {11,S}
6  H u0 p0 c0 {3,S}
7  H u0 p0 c0 {3,S}
8  H u0 p0 c0 {4,S}
9  H u0 p0 c0 {4,S}
10 H u0 p0 c0 {4,S}
11 H u0 p0 c0 {5,S}
12 H u0 p0 c0 {1,S}


>  <multiplicity>  (4) 
2

>  <reaction>  (4) 
rmg_rxn_16706

>  <type>  (4) 
r1

>  <role_mapnums>  (4) 
{}

>  <role_mapidx>  (4) 
{}

>  <ordered_mapped_smiles>  (4) 
[NH:1][N:2]([CH:3]([C:4]([C:5]([H:10])([H:11])[H:12])([H:8])[H:9])[H:7])[H:6]

>  <level_of_theory>  (4) 
wb97xd/def2tzvp

>  <lot_method>  (4) 
wb97xd

>  <lot_basis>  (4) 
def2tzvp

>  <spin_multiplicity>  (4) 
2.0

>  <optical_isomers>  (4) 
2.0

>  <modes>  (4) 
IdealGasTranslation(mass=(71.0609, 'amu')),         NonlinearRotor(             inertia = ([53.0503, 135.065, 165.702

>  <frequency_value>  (4) 
unknown

>  <frequency_units>  (4) 
unknown

>  <frequency_list>  (4) 
unknown

>  <arkane_path>  (4) 
/home/calvin/Dropbox/PersonalFolders/Calvin/ZEUS_Converged/rmg_rxn_16706/output/Species/rmg_rxn_16706_p2_sbr-N--sbrsbr-NHp-sbr=CCC/arkane/output.py

>  <path_exists>  (4) 
True

>  <E0_value>  (4) 
-598127.5170683578

>  <E0_units>  (4) 
kJ/mol

>  <thermo_class>  (4) 
NASA

>  <Cp0_value>  (4) 
33.257888

>  <Cp0_units>  (4) 
J/(mol*K)

>  <CpInf_value>  (4) 
282.692048

>  <CpInf_units>  (4) 
J/(mol*K)

>  <Tmin_value>  (4) 
10.0

>  <Tmin_units>  (4) 
K

>  <Tmax_value>  (4) 
3000.0

>  <Tmax_units>  (4) 
K

>  <polynomials>  (4) 
[{"name": "polynomial1", "class": "NASAPolynomial", "Tmin_value": 10.0, "Tmin_units": "K", "Tmax_value": 739.4987449668242, "Tmax_units": "K", "coeffs": [3.821237841218982, 0.01680233831714634, 4.763006898661869e-05, -7.71175415403906e-08, 3.416658450336572e-11, -71938122.51592126, 10.943749159718502]}, {"name": "polynomial2", "class": "NASAPolynomial", "Tmin_value": 739.4987449668242, "Tmin_units": "K", "Tmax_value": 3000.0, "Tmax_units": "K", "coeffs": [1.2981950792052557, 0.041135693680169456, -2.3403312091834742e-05, 6.460657189340593e-09, -6.94523789165287e-13, -71938041.54612035, 20.37898271293223]}]

>  <H298_value>  (4) 
-142951.5945603881

>  <H298_units>  (4) 
kcal/mol

>  <S298_value>  (4) 
77.94371803628228

>  <S298_units>  (4) 
cal/(mol*K)

>  <Cp_T_value_list>  (4) 
[22.541323025770144, 28.02383668436086, 33.03858602179868, 37.3993575942407, 44.21933857655624, 49.27618344888546, 56.89963351365265, 60.667846489336924, 62.57767876105476]

>  <Cp_T_units>  (4) 
cal/(mol*K)

>  <T_list>  (4) 
[300.0, 400.0, 500.0, 600.0, 800.0, 1000.0, 1500.0, 2000.0, 2400.0]

>  <T_units>  (4) 
K

>  <yaml_path>  (4) 
/home/calvin/Dropbox/PersonalFolders/Calvin/ZEUS_Converged/rmg_rxn_16706/output/Species/rmg_rxn_16706_p2_sbr-N--sbrsbr-NHp-sbr=CCC/rmg_rxn_16706_p2_sbr-N--sbrsbr-NHp-sbr=CCC.yml

>  <frequencies_cm1>  (4) 
[108.841717322, 198.85416089656, 256.05614861216003, 294.31212382987997, 511.21958913272005, 575.24049327108, 667.51904200124, 801.3153839761201, 827.2863224563599, 887.88060092004, 1013.14128014216, 1072.9046533821202, 1121.7838548898799, 1135.2019442051599, 1287.1133934542, 1337.173716437, 1345.67504426316, 1400.50792204336, 1452.9854238588, 1475.6464754148, 1488.28859538892, 1496.5701796848398, 1535.3961146841198, 2981.79609962104, 3018.4795352004803, 3067.0977912660796, 3094.0507086470793, 3099.5786318296796, 3217.4298338915196, 3404.9603359954]

>  <ZPE_kJmol>  (4) 
264.22110838643863

>  <E_elec_kJmol>  (4) 
-598391.7381767442

>  <E0_minus_Eelec_plus_ZPE_kJmol>  (4) 
0.0

>  <rxn>  (4) 
rmg_rxn_16706

>  <species_type>  (4) 
p1

>  <species_folder>  (4) 
rmg_rxn_16706_p2_sbr-N--sbrsbr-NHp-sbr=CCC

>  <frequencies_cm1_list>  (4) 
[108.841717322, 198.85416089656, 256.05614861216003, 294.31212382987997, 511.21958913272005, 575.24049327108, 667.51904200124, 801.3153839761201, 827.2863224563599, 887.88060092004, 1013.14128014216, 1072.9046533821202, 1121.7838548898799, 1135.2019442051599, 1287.1133934542, 1337.173716437, 1345.67504426316, 1400.50792204336, 1452.9854238588, 1475.6464754148, 1488.28859538892, 1496.5701796848398, 1535.3961146841198, 2981.79609962104, 3018.4795352004803, 3067.0977912660796, 3094.0507086470793, 3099.5786318296796, 3217.4298338915196, 3404.9603359954]

>  <E0_kJmol>  (4) 
-598128

>  <H298_kJmol>  (4) 
-598109

$$$$

     RDKit          3D

  7  6  0  0  0  0  0  0  0  0999 V2000
   -0.8578   -0.1277   -0.1330 C   0  0  0  0  0  0  0  0  0  1  0  0
    0.5137   -0.3687    0.3793 C   0  0  0  0  0  3  0  0  0  2  0  0
    1.4512    0.4166    0.5221 N   0  0  0  0  0  0  0  0  0  3  0  0
   -1.0403   -0.7609   -1.0021 H   0  0  0  0  0  0  0  0  0  4  0  0
   -1.5871   -0.4048    0.6293 H   0  0  0  0  0  0  0  0  0  5  0  0
   -0.9959    0.9218   -0.4083 H   0  0  0  0  0  0  0  0  0  6  0  0
    2.3214    0.0450    0.8949 H   0  0  0  0  0  0  0  0  0  7  0  0
  1  5  1  0
  1  4  1  0
  1  6  1  0
  1  2  1  0
  2  3  1  0
  3  7  1  0
M  RAD  1   2   2
M  END
>  <rmg_smiles>  (5) 
C[C][NH]

>  <rmg_adjacency_list>  (5) 
multiplicity 2
1 N u0 p1 c0 {3,S} {7,S}
2 C u0 p0 c0 {3,S} {4,S} {5,S} {6,S}
3 C u1 p1 c0 {1,S} {2,S}
4 H u0 p0 c0 {2,S}
5 H u0 p0 c0 {2,S}
6 H u0 p0 c0 {2,S}
7 H u0 p0 c0 {1,S}


>  <multiplicity>  (5) 
2

>  <reaction>  (5) 
rmg_rxn_16706

>  <type>  (5) 
r2

>  <role_mapnums>  (5) 
{}

>  <role_mapidx>  (5) 
{}

>  <ordered_mapped_smiles>  (5) 
[C:1]([CH:2][NH:3][H:7])([H:4])([H:5])[H:6]

>  <level_of_theory>  (5) 
wb97xd/def2tzvp

>  <lot_method>  (5) 
wb97xd

>  <lot_basis>  (5) 
def2tzvp

>  <spin_multiplicity>  (5) 
2.0

>  <optical_isomers>  (5) 
1.0

>  <modes>  (5) 
IdealGasTranslation(mass=(42.0344, 'amu')),         NonlinearRotor(             inertia = ([5.99171, 53.2819, 56.1621

>  <frequency_value>  (5) 
unknown

>  <frequency_units>  (5) 
unknown

>  <frequency_list>  (5) 
unknown

>  <arkane_path>  (5) 
/home/calvin/Dropbox/PersonalFolders/Calvin/ZEUS_Converged/rmg_rxn_16706/output/Species/rmg_rxn_16706_r1_Csbr-C-sbr=N/arkane/output.py

>  <path_exists>  (5) 
True

>  <E0_value>  (5) 
-349829.7646857092

>  <E0_units>  (5) 
kJ/mol

>  <thermo_class>  (5) 
NASA

>  <Cp0_value>  (5) 
33.257888

>  <Cp0_units>  (5) 
J/(mol*K)

>  <CpInf_value>  (5) 
157.97496800000002

>  <CpInf_units>  (5) 
J/(mol*K)

>  <Tmin_value>  (5) 
10.0

>  <Tmin_units>  (5) 
K

>  <Tmax_value>  (5) 
3000.0

>  <Tmax_units>  (5) 
K

>  <polynomials>  (5) 
[{"name": "polynomial1", "class": "NASAPolynomial", "Tmin_value": 10.0, "Tmin_units": "K", "Tmax_value": 738.3677539069339, "Tmax_units": "K", "coeffs": [3.9481651658627817, 0.005049068477192358, 2.913890309665626e-05, -4.146175468584936e-08, 1.744540680610645e-11, -42074801.998119846, 7.367039899980417]}, {"name": "polynomial2", "class": "NASAPolynomial", "Tmin_value": 738.3677539069339, "Tmin_units": "K", "Tmax_value": 3000.0, "Tmax_units": "K", "coeffs": [1.871467553978796, 0.020639019271545045, -1.1348429895850872e-05, 3.054053726033594e-09, -3.221316146820903e-13, -42074613.62337778, 15.954933870056907]}]

>  <H298_value>  (5) 
-83608.17184873251

>  <H298_units>  (5) 
kcal/mol

>  <S298_value>  (5) 
64.24083369684932

>  <S298_units>  (5) 
cal/(mol*K)

>  <Cp_T_value_list>  (5) 
[14.123528505633939, 16.73837383135081, 19.206437808337615, 21.40777238470046, 24.942259915245668, 27.61020547447056, 31.740992114917237, 33.850295097810715, 34.91490514734469]

>  <Cp_T_units>  (5) 
cal/(mol*K)

>  <T_list>  (5) 
[300.0, 400.0, 500.0, 600.0, 800.0, 1000.0, 1500.0, 2000.0, 2400.0]

>  <T_units>  (5) 
K

>  <yaml_path>  (5) 
/home/calvin/Dropbox/PersonalFolders/Calvin/ZEUS_Converged/rmg_rxn_16706/output/Species/rmg_rxn_16706_r1_Csbr-C-sbr=N/rmg_rxn_16706_r1_Csbr-C-sbr=N.yml

>  <frequencies_cm1>  (5) 
[141.67277413692, 434.27501862211994, 665.30100574288, 899.7673525089599, 963.6234489996399, 1033.0212026435597, 1158.24754693908, 1370.993619138, 1448.09613031096, 1452.31932628276, 1834.0687741922, 3001.5592833719998, 3089.40175958544, 3102.8061149300793, 3454.4026302994]

>  <ZPE_kJmol>  (5) 
143.84833071593354

>  <E_elec_kJmol>  (5) 
-349973.6130164252

>  <E0_minus_Eelec_plus_ZPE_kJmol>  (5) 
0.0

>  <rxn>  (5) 
rmg_rxn_16706

>  <species_type>  (5) 
r0

>  <species_folder>  (5) 
rmg_rxn_16706_r1_Csbr-C-sbr=N

>  <frequencies_cm1_list>  (5) 
[141.67277413692, 434.27501862211994, 665.30100574288, 899.7673525089599, 963.6234489996399, 1033.0212026435597, 1158.24754693908, 1370.993619138, 1448.09613031096, 1452.31932628276, 1834.0687741922, 3001.5592833719998, 3089.40175958544, 3102.8061149300793, 3454.4026302994]

>  <E0_kJmol>  (5) 
-349830

>  <H298_kJmol>  (5) 
-349817

$$$$
