
     RDKit          3D

  5  4  0  0  0  0  0  0  0  0999 V2000
   -0.6279    0.2269    0.2437 N   0  0  0  0  0  2  0  0  0  1  0  0
    0.5116   -0.2357   -0.2771 N   0  0  0  0  0  0  0  0  0  2  0  0
   -0.3206    1.0913    0.7335 H   0  0  0  0  0  0  0  0  0  3  0  0
    0.5066   -1.2258   -0.4771 H   0  0  0  0  0  0  0  0  0  4  0  0
    1.3780    0.1097    0.1226 H   0  0  0  0  0  0  0  0  0  5  0  0
  1  3  1  0
  1  2  1  0
  2  5  1  0
  2  4  1  0
M  RAD  1   1   2
M  END
>  <rmg_smiles>  (1) 
[NH]N

>  <rmg_adjacency_list>  (1) 
multiplicity 2
1 N u0 p1 c0 {2,S} {3,S} {4,S}
2 N u1 p1 c0 {1,S} {5,S}
3 H u0 p0 c0 {1,S}
4 H u0 p0 c0 {1,S}
5 H u0 p0 c0 {2,S}


>  <multiplicity>  (1) 
2

>  <reaction>  (1) 
rmg_rxn_16489

>  <type>  (1) 
r1h

>  <role_mapnums>  (1) 
{"r1h_a": 1, "r1h_h": 3}

>  <role_mapidx>  (1) 
{"r1h_a": 0, "r1h_h": 2}

>  <ordered_mapped_smiles>  (1) 
[N:1]([N:2]([H:4])[H:5])[H:3]

>  <mol_properties>  (1) 
{"0": {"label": "donator", "atom_type": "N3s"}, "2": {"label": "d_hydrogen", "atom_type": "H0"}}

>  <level_of_theory>  (1) 
wb97xd/def2tzvp

>  <lot_method>  (1) 
wb97xd

>  <lot_basis>  (1) 
def2tzvp

>  <spin_multiplicity>  (1) 
2.0

>  <optical_isomers>  (1) 
2.0

>  <modes>  (1) 
IdealGasTranslation(mass=(31.0296, 'amu')),         NonlinearRotor(             inertia = ([2.44556, 16.2707, 18.4662

>  <frequency_value>  (1) 
unknown

>  <frequency_units>  (1) 
unknown

>  <frequency_list>  (1) 
unknown

>  <arkane_path>  (1) 
/home/calvin/Dropbox/PersonalFolders/Calvin/ZEUS_Converged/rmg_rxn_16489/output/Species/rmg_rxn_16489_r1_sbr-NH-sbrN/arkane/output.py

>  <path_exists>  (1) 
True

>  <E0_value>  (1) 
-291956.4008594516

>  <E0_units>  (1) 
kJ/mol

>  <thermo_class>  (1) 
NASA

>  <Cp0_value>  (1) 
33.257888

>  <Cp0_units>  (1) 
J/(mol*K)

>  <CpInf_value>  (1) 
108.088136

>  <CpInf_units>  (1) 
J/(mol*K)

>  <Tmin_value>  (1) 
10.0

>  <Tmin_units>  (1) 
K

>  <Tmax_value>  (1) 
3000.0

>  <Tmax_units>  (1) 
K

>  <polynomials>  (1) 
[{"name": "polynomial1", "class": "NASAPolynomial", "Tmin_value": 10.0, "Tmin_units": "K", "Tmax_value": 509.8427398699997, "Tmax_units": "K", "coeffs": [4.052136205176303, -0.00453106608562149, 4.937166375123428e-05, -8.152395153775336e-08, 4.584734949353154e-11, -35114244.36275154, 5.945418411117284]}, {"name": "polynomial2", "class": "NASAPolynomial", "Tmin_value": 509.8427398699997, "Tmin_units": "K", "Tmax_value": 3000.0, "Tmax_units": "K", "coeffs": [2.365268687439737, 0.01149313742962712, -5.980676920191691e-06, 1.586818197752966e-09, -1.684182956109727e-13, -35114108.61415687, 12.591627358364509]}]

>  <H298_value>  (1) 
-69776.66596620543

>  <H298_units>  (1) 
kcal/mol

>  <S298_value>  (1) 
58.11388881712609

>  <S298_units>  (1) 
cal/(mol*K)

>  <Cp_T_value_list>  (1) 
[10.545077428327813, 12.112689774180259, 13.521915836639208, 14.763023018297428, 16.842791634778617, 18.473328179293357, 21.16642313546482, 22.711164518160874, 23.545534225935835]

>  <Cp_T_units>  (1) 
cal/(mol*K)

>  <T_list>  (1) 
[300.0, 400.0, 500.0, 600.0, 800.0, 1000.0, 1500.0, 2000.0, 2400.0]

>  <T_units>  (1) 
K

>  <yaml_path>  (1) 
/home/calvin/Dropbox/PersonalFolders/Calvin/ZEUS_Converged/rmg_rxn_16489/output/Species/rmg_rxn_16489_r1_sbr-NH-sbrN/rmg_rxn_16489_r1_sbr-NH-sbrN.yml

>  <frequencies_cm1>  (1) 
[540.35620784548, 695.94149424072, 1137.64659097908, 1263.87551513132, 1471.0593292210397, 1653.85847843944, 3424.7853226142397, 3492.4045270602796, 3632.23008214612]

>  <ZPE_kJmol>  (1) 
103.5497273046512

>  <E_elec_kJmol>  (1) 
-292059.9505867562

>  <E0_minus_Eelec_plus_ZPE_kJmol>  (1) 
0.0

>  <rxn>  (1) 
rmg_rxn_16489

>  <species_type>  (1) 
r0

>  <species_folder>  (1) 
rmg_rxn_16489_r1_sbr-NH-sbrN

>  <frequencies_cm1_list>  (1) 
[540.35620784548, 695.94149424072, 1137.64659097908, 1263.87551513132, 1471.0593292210397, 1653.85847843944, 3424.7853226142397, 3492.4045270602796, 3632.23008214612]

>  <E0_kJmol>  (1) 
-291956

>  <H298_kJmol>  (1) 
-291946

$$$$

     RDKit          3D

  8  7  0  0  0  0  0  0  0  0999 V2000
   -0.1329   -1.9961    0.0026 H   0  0  0  0  0  0  0  0  0  1  0  0
    0.0284    1.2706   -0.0264 C   0  0  0  0  0  0  0  0  0  2  0  0
   -0.3124   -0.1731   -0.2444 C   0  0  0  0  0  0  0  0  0  3  0  0
    0.3216   -1.1085    0.2980 N   0  0  0  0  0  0  0  0  0  4  0  0
    0.2577    1.7444   -0.9834 H   0  0  0  0  0  0  0  0  0  5  0  0
    0.8804    1.3700    0.6433 H   0  0  0  0  0  0  0  0  0  6  0  0
   -0.8320    1.7925    0.3981 H   0  0  0  0  0  0  0  0  0  7  0  0
   -1.1597   -0.3803   -0.9119 H   0  0  0  0  0  0  0  0  0  8  0  0
  1  4  1  0
  2  7  1  0
  2  5  1  0
  2  6  1  0
  2  3  1  0
  3  4  1  0
  3  8  1  0
M  END
>  <rmg_smiles>  (2) 
C[CH][NH]

>  <rmg_adjacency_list>  (2) 
1 N u0 p1 c0 {3,S} {8,S}
2 C u0 p0 c0 {3,S} {4,S} {5,S} {6,S}
3 C u0 p0 c0 {1,S} {2,S} {7,S}
4 H u0 p0 c0 {2,S}
5 H u0 p0 c0 {2,S}
6 H u0 p0 c0 {2,S}
7 H u0 p0 c0 {3,S}
8 H u0 p0 c0 {1,S}


>  <multiplicity>  (2) 
1

>  <reaction>  (2) 
rmg_rxn_16489

>  <type>  (2) 
r2h

>  <role_mapnums>  (2) 
{"r2h_a": 4, "r2h_h": 1}

>  <role_mapidx>  (2) 
{"r2h_a": 3, "r2h_h": 0}

>  <ordered_mapped_smiles>  (2) 
[H:1][NH:4][CH:3]([C:2]([H:5])([H:6])[H:7])[H:8]

>  <mol_properties>  (2) 
{"0": {"label": "a_hydrogen", "atom_type": "H0"}, "3": {"label": "acceptor", "atom_type": "N3s"}}

>  <level_of_theory>  (2) 
wb97xd/def2tzvp

>  <lot_method>  (2) 
wb97xd

>  <lot_basis>  (2) 
def2tzvp

>  <spin_multiplicity>  (2) 
1.0

>  <optical_isomers>  (2) 
1.0

>  <modes>  (2) 
IdealGasTranslation(mass=(43.0422, 'amu')),         NonlinearRotor(             inertia = ([9.32783, 51.3348, 57.5532

>  <frequency_value>  (2) 
unknown

>  <frequency_units>  (2) 
unknown

>  <frequency_list>  (2) 
unknown

>  <arkane_path>  (2) 
/home/calvin/Dropbox/PersonalFolders/Calvin/ZEUS_Converged/rmg_rxn_16489/output/Species/rmg_rxn_16489_p2_CC=N/arkane/output.py

>  <path_exists>  (2) 
True

>  <E0_value>  (2) 
-351535.20335661684

>  <E0_units>  (2) 
kJ/mol

>  <thermo_class>  (2) 
NASA

>  <Cp0_value>  (2) 
33.257888

>  <Cp0_units>  (2) 
J/(mol*K)

>  <CpInf_value>  (2) 
182.918384

>  <CpInf_units>  (2) 
J/(mol*K)

>  <Tmin_value>  (2) 
10.0

>  <Tmin_units>  (2) 
K

>  <Tmax_value>  (2) 
3000.0

>  <Tmax_units>  (2) 
K

>  <polynomials>  (2) 
[{"name": "polynomial1", "class": "NASAPolynomial", "Tmin_value": 10.0, "Tmin_units": "K", "Tmax_value": 834.0183041901832, "Tmax_units": "K", "coeffs": [4.020859284868709, 0.0012406595733239277, 4.4482903010182226e-05, -5.482114439751344e-08, 2.0739201558559772e-11, -42279921.71645892, 6.726586383468645]}, {"name": "polynomial2", "class": "NASAPolynomial", "Tmin_value": 834.0183041901832, "Tmin_units": "K", "Tmax_value": 3000.0, "Tmax_units": "K", "coeffs": [0.8146767610859666, 0.025012560508124084, -1.3369721411120483e-05, 3.4917002293006827e-09, -3.579375529269218e-13, -42279678.881200545, 19.862274208798944]}]

>  <H298_value>  (2) 
-84015.86036687854

>  <H298_units>  (2) 
kcal/mol

>  <S298_value>  (2) 
62.66843297179497

>  <S298_units>  (2) 
cal/(mol*K)

>  <Cp_T_value_list>  (2) 
[14.078036689508782, 17.202765604471058, 20.2803800489589, 23.1023356383003, 27.639649626797436, 30.983090061901617, 36.21499785066487, 38.88468928045463, 40.19916387517873]

>  <Cp_T_units>  (2) 
cal/(mol*K)

>  <T_list>  (2) 
[300.0, 400.0, 500.0, 600.0, 800.0, 1000.0, 1500.0, 2000.0, 2400.0]

>  <T_units>  (2) 
K

>  <yaml_path>  (2) 
/home/calvin/Dropbox/PersonalFolders/Calvin/ZEUS_Converged/rmg_rxn_16489/output/Species/rmg_rxn_16489_p2_CC=N/rmg_rxn_16489_p2_CC=N.yml

>  <frequencies_cm1>  (2) 
[185.42920459596, 489.9250676554, 680.6761858743599, 921.32968641376, 1055.89513074448, 1069.62910138448, 1130.4431233784, 1267.5150173509198, 1378.7876474762, 1425.071128533, 1456.56312321052, 1463.3683056626398, 1737.36788691596, 2989.2124437666403, 3014.6889593038395, 3075.43431144456, 3123.3452680222, 3455.8927661138396]

>  <ZPE_kJmol>  (2) 
178.96482902382195

>  <E_elec_kJmol>  (2) 
-351714.16818564065

>  <E0_minus_Eelec_plus_ZPE_kJmol>  (2) 
0.0

>  <rxn>  (2) 
rmg_rxn_16489

>  <species_type>  (2) 
p1

>  <species_folder>  (2) 
rmg_rxn_16489_p2_CC=N

>  <frequencies_cm1_list>  (2) 
[185.42920459596, 489.9250676554, 680.6761858743599, 921.32968641376, 1055.89513074448, 1069.62910138448, 1130.4431233784, 1267.5150173509198, 1378.7876474762, 1425.071128533, 1456.56312321052, 1463.3683056626398, 1737.36788691596, 2989.2124437666403, 3014.6889593038395, 3075.43431144456, 3123.3452680222, 3455.8927661138396]

>  <E0_kJmol>  (2) 
-351535

>  <H298_kJmol>  (2) 
-351522

$$$$

     RDKit          3D

 12 10  0  0  0  0  0  0  0  0999 V2000
   -0.6267   -1.7374   -0.4798 N   0  0  0  0  0  2  0  0  0  1  0  0
    0.5128   -2.2000   -1.0006 N   0  0  0  0  0  0  0  0  0  2  0  0
   -0.2667   -0.7249    0.0938 H   0  0  0  0  0  0  0  0  0  3  0  0
    0.5078   -3.1900   -1.2007 H   0  0  0  0  0  0  0  0  0  4  0  0
    1.3792   -1.8545   -0.6009 H   0  0  0  0  0  0  0  0  0  5  0  0
   -0.0047    2.7385    0.1303 C   0  0  0  0  0  0  0  0  0  6  0  0
   -0.3455    1.2948   -0.0877 C   0  0  0  0  0  0  0  0  0  7  0  0
    0.2885    0.3594    0.4546 N   0  0  0  0  0  2  0  0  0  8  0  0
    0.2246    3.2123   -0.8268 H   0  0  0  0  0  0  0  0  0  9  0  0
    0.8473    2.8379    0.8000 H   0  0  0  0  0  0  0  0  0 10  0  0
   -0.8651    3.2604    0.5548 H   0  0  0  0  0  0  0  0  0 11  0  0
   -1.1928    1.0876   -0.7552 H   0  0  0  0  0  0  0  0  0 12  0  0
  1  2  1  0
  1  3  1  0
  2  5  1  0
  2  4  1  0
  6  9  1  0
  6  7  1  0
  6 11  1  0
  6 10  1  0
  7 12  1  0
  7  8  1  0
M  RAD  2   1   2   8   2
M  END
>  <rmg_smiles>  (3) 
C[CH][N].[NH]N

>  <rmg_adjacency_list>  (3) 
multiplicity 3
1  N u0 p1 c0 {2,S} {10,S} {11,S}
2  N u1 p1 c0 {1,S} {12,S}
3  N u1 p2 c0 {5,S}
4  C u0 p0 c0 {5,S} {6,S} {7,S} {8,S}
5  C u0 p0 c0 {3,S} {4,S} {9,S}
6  H u0 p0 c0 {4,S}
7  H u0 p0 c0 {4,S}
8  H u0 p0 c0 {4,S}
9  H u0 p0 c0 {5,S}
10 H u0 p0 c0 {1,S}
11 H u0 p0 c0 {1,S}
12 H u0 p0 c0 {2,S}


>  <multiplicity>  (3) 
3

>  <reaction>  (3) 
rmg_rxn_16489

>  <type>  (3) 
ts

>  <role_mapnums>  (3) 
{"*2": 3, "*1": 1, "*3": 8, "*0": 2, "*4": 7}

>  <role_mapidx>  (3) 
{"*2": 2, "*1": 0, "*3": 7, "*0": 1, "*4": 6}

>  <ordered_mapped_smiles>  (3) 
[N:1]([N:2]([H:4])[H:5])[H:3].[C:6]([CH:7]([NH:8])[H:12])([H:9])([H:10])[H:11]

>  <mol_properties>  (3) 
{"0": {"label": "*1", "atom_type": "N3s"}, "1": {"label": "*0", "atom_type": "N3s"}, "2": {"label": "*2", "atom_type": "H0"}, "6": {"label": "*4", "atom_type": "Cs"}, "7": {"label": "*3", "atom_type": "N1s"}}

>  <level_of_theory>  (3) 
wb97xd/def2tzvp

>  <lot_method>  (3) 
wb97xd

>  <lot_basis>  (3) 
def2tzvp

>  <spin_multiplicity>  (3) 
3.0

>  <optical_isomers>  (3) 
2.0

>  <modes>  (3) 
IdealGasTranslation(mass=(73.064, 'amu')),         NonlinearRotor(             inertia = ([26.3727, 287.913, 294.819

>  <frequency_value>  (3) 
-1912.69

>  <frequency_units>  (3) 
cm^-1

>  <frequency_list>  (3) 
unknown

>  <arkane_path>  (3) 
/home/calvin/Dropbox/PersonalFolders/Calvin/ZEUS_Converged/rmg_rxn_16489/output/rxns/TS0/arkane/output.py

>  <path_exists>  (3) 
True

>  <E0_value>  (3) 
-641787.0

>  <E0_units>  (3) 
kJ/mol

>  <thermo_class>  (3) 
unknown

>  <Cp0_value>  (3) 
unknown

>  <Cp0_units>  (3) 
unknown

>  <CpInf_value>  (3) 
unknown

>  <CpInf_units>  (3) 
unknown

>  <Tmin_value>  (3) 
unknown

>  <Tmin_units>  (3) 
unknown

>  <Tmax_value>  (3) 
unknown

>  <Tmax_units>  (3) 
unknown

>  <polynomials>  (3) 
unknown

>  <H298_value>  (3) 
unknown

>  <H298_units>  (3) 
unknown

>  <S298_value>  (3) 
unknown

>  <S298_units>  (3) 
unknown

>  <Cp_T_value_list>  (3) 
unknown

>  <Cp_T_units>  (3) 
unknown

>  <T_list>  (3) 
unknown

>  <T_units>  (3) 
unknown

>  <yaml_path>  (3) 
unknown

>  <frequencies_cm1>  (3) 
unknown

>  <ZPE_kJmol>  (3) 
unknown

>  <E_elec_kJmol>  (3) 
unknown

>  <E0_minus_Eelec_plus_ZPE_kJmol>  (3) 
unknown

>  <rxn>  (3) 
unknown

>  <species_type>  (3) 
unknown

>  <species_folder>  (3) 
unknown

>  <frequencies_cm1_list>  (3) 
[]

>  <ts_imag_freq_cm1>  (3) 
-1935.9201

>  <ts_freq_out_path>  (3) 
/home/calvin/Dropbox/PersonalFolders/Calvin/ZEUS_Converged/rmg_rxn_16489/output/rxns/TS0/geometry/freq.out

>  <E0_kJmol>  (3) 
-641787

>  <H298_kJmol>  (3) 
unknown

$$$$

     RDKit          3D

  4  3  0  0  0  0  0  0  0  0999 V2000
    1.2191   -0.0447   -0.0369 N   0  0  0  0  0  1  0  0  0  1  0  0
   -0.0876   -0.0060    0.2202 N   0  0  0  0  0  0  0  0  0  2  0  0
   -0.5966   -0.8143   -0.1273 H   0  0  0  0  0  0  0  0  0  3  0  0
   -0.5329    0.8649   -0.0563 H   0  0  0  0  0  0  0  0  0  4  0  0
  1  2  1  0
  2  4  1  0
  2  3  1  0
M  RAD  1   1   3
M  END
>  <rmg_smiles>  (4) 
[N]N

>  <rmg_adjacency_list>  (4) 
multiplicity 3
1 N u0 p1 c0 {2,S} {3,S} {4,S}
2 N u2 p2 c0 {1,S}
3 H u0 p0 c0 {1,S}
4 H u0 p0 c0 {1,S}


>  <multiplicity>  (4) 
3

>  <reaction>  (4) 
rmg_rxn_16489

>  <type>  (4) 
r1

>  <role_mapnums>  (4) 
{}

>  <role_mapidx>  (4) 
{}

>  <ordered_mapped_smiles>  (4) 
[N:1][N:2]([H:3])[H:4]

>  <level_of_theory>  (4) 
wb97xd/def2tzvp

>  <lot_method>  (4) 
wb97xd

>  <lot_basis>  (4) 
def2tzvp

>  <spin_multiplicity>  (4) 
3.0

>  <optical_isomers>  (4) 
1.0

>  <modes>  (4) 
IdealGasTranslation(mass=(30.0218, 'amu')),         NonlinearRotor(             inertia = ([1.67933, 14.8983, 16.0702

>  <frequency_value>  (4) 
unknown

>  <frequency_units>  (4) 
unknown

>  <frequency_list>  (4) 
unknown

>  <arkane_path>  (4) 
/home/calvin/Dropbox/PersonalFolders/Calvin/ZEUS_Converged/rmg_rxn_16489/output/Species/rmg_rxn_16489_p1_sbr-N-sbrN/arkane/output.py

>  <path_exists>  (4) 
True

>  <E0_value>  (4) 
-290291.658875472

>  <E0_units>  (4) 
kJ/mol

>  <thermo_class>  (4) 
NASA

>  <Cp0_value>  (4) 
33.257888

>  <Cp0_units>  (4) 
J/(mol*K)

>  <CpInf_value>  (4) 
83.14472

>  <CpInf_units>  (4) 
J/(mol*K)

>  <Tmin_value>  (4) 
10.0

>  <Tmin_units>  (4) 
K

>  <Tmax_value>  (4) 
3000.0

>  <Tmax_units>  (4) 
K

>  <polynomials>  (4) 
[{"name": "polynomial1", "class": "NASAPolynomial", "Tmin_value": 10.0, "Tmin_units": "K", "Tmax_value": 665.6086206851692, "Tmax_units": "K", "coeffs": [4.047267350793194, -0.0035112300870909136, 2.9209112804417833e-05, -3.950945283569383e-08, 1.7786008766664202e-11, -34914022.81019101, 5.3136830427894965]}, {"name": "polynomial2", "class": "NASAPolynomial", "Tmin_value": 665.6086206851692, "Tmin_units": "K", "Tmax_value": 3000.0, "Tmax_units": "K", "coeffs": [2.590933023525455, 0.008335190999959536, -4.461453990827671e-06, 1.1994714894893806e-09, -1.2758111080694537e-13, -34913897.489579014, 11.231912764264765]}]

>  <H298_value>  (4) 
-69378.91233580558

>  <H298_units>  (4) 
kcal/mol

>  <S298_value>  (4) 
56.254805565389056

>  <S298_units>  (4) 
cal/(mol*K)

>  <Cp_T_value_list>  (4) 
[9.339930014712046, 10.418824736743135, 11.459970400828029, 12.37400665809039, 13.842140149881402, 14.976701844262161, 16.807365231695826, 17.825189062676678, 18.37386083529915]

>  <Cp_T_units>  (4) 
cal/(mol*K)

>  <T_list>  (4) 
[300.0, 400.0, 500.0, 600.0, 800.0, 1000.0, 1500.0, 2000.0, 2400.0]

>  <T_units>  (4) 
K

>  <yaml_path>  (4) 
/home/calvin/Dropbox/PersonalFolders/Calvin/ZEUS_Converged/rmg_rxn_16489/output/Species/rmg_rxn_16489_p1_sbr-N-sbrN/rmg_rxn_16489_p1_sbr-N-sbrN.yml

>  <frequencies_cm1>  (4) 
[723.4575044179599, 1085.5811082828398, 1237.95951253364, 1573.04092820836, 3402.19980789676, 3509.68872911072]

>  <ZPE_kJmol>  (4) 
68.97626445458796

>  <E_elec_kJmol>  (4) 
-290360.63513992657

>  <E0_minus_Eelec_plus_ZPE_kJmol>  (4) 
0.0

>  <rxn>  (4) 
rmg_rxn_16489

>  <species_type>  (4) 
p0

>  <species_folder>  (4) 
rmg_rxn_16489_p1_sbr-N-sbrN

>  <frequencies_cm1_list>  (4) 
[723.4575044179599, 1085.5811082828398, 1237.95951253364, 1573.04092820836, 3402.19980789676, 3509.68872911072]

>  <E0_kJmol>  (4) 
-290292

>  <H298_kJmol>  (4) 
-290281

$$$$

     RDKit          3D

  7  6  0  0  0  0  0  0  0  0999 V2000
   -0.6441   -0.1356    0.0624 C   0  0  0  0  0  0  0  0  0  1  0  0
    0.8523    0.0148   -0.0333 C   0  0  0  0  0  0  0  0  0  2  0  0
    1.6700   -0.6077    0.6603 N   0  0  0  0  0  2  0  0  0  3  0  0
   -1.0940    0.8275    0.3091 H   0  0  0  0  0  0  0  0  0  4  0  0
   -0.9104   -0.8656    0.8237 H   0  0  0  0  0  0  0  0  0  5  0  0
   -1.0427   -0.4545   -0.9022 H   0  0  0  0  0  0  0  0  0  6  0  0
    1.2362    0.7308   -0.7748 H   0  0  0  0  0  0  0  0  0  7  0  0
  1  5  1  0
  1  4  1  0
  1  6  1  0
  1  2  1  0
  2  3  1  0
  2  7  1  0
M  RAD  1   3   2
M  END
>  <rmg_smiles>  (5) 
C[CH][N]

>  <rmg_adjacency_list>  (5) 
multiplicity 2
1 N u1 p2 c0 {3,S}
2 C u0 p0 c0 {3,S} {4,S} {5,S} {6,S}
3 C u0 p0 c0 {1,S} {2,S} {7,S}
4 H u0 p0 c0 {2,S}
5 H u0 p0 c0 {2,S}
6 H u0 p0 c0 {2,S}
7 H u0 p0 c0 {3,S}


>  <multiplicity>  (5) 
2

>  <reaction>  (5) 
rmg_rxn_16489

>  <type>  (5) 
r2

>  <role_mapnums>  (5) 
{}

>  <role_mapidx>  (5) 
{}

>  <ordered_mapped_smiles>  (5) 
[C:1]([CH:2]([NH:3])[H:7])([H:4])([H:5])[H:6]

>  <level_of_theory>  (5) 
wb97xd/def2tzvp

>  <lot_method>  (5) 
wb97xd

>  <lot_basis>  (5) 
def2tzvp

>  <spin_multiplicity>  (5) 
2.0

>  <optical_isomers>  (5) 
1.0

>  <modes>  (5) 
IdealGasTranslation(mass=(42.0344, 'amu')),         NonlinearRotor(             inertia = ([8.81492, 48.174, 53.8511

>  <frequency_value>  (5) 
unknown

>  <frequency_units>  (5) 
unknown

>  <frequency_list>  (5) 
unknown

>  <arkane_path>  (5) 
/home/calvin/Dropbox/PersonalFolders/Calvin/ZEUS_Converged/rmg_rxn_16489/output/Species/rmg_rxn_16489_r2_CC=sbr-N-sbr/arkane/output.py

>  <path_exists>  (5) 
True

>  <E0_value>  (5) 
-349854.82234455534

>  <E0_units>  (5) 
kJ/mol

>  <thermo_class>  (5) 
NASA

>  <Cp0_value>  (5) 
33.257888

>  <Cp0_units>  (5) 
J/(mol*K)

>  <CpInf_value>  (5) 
157.97496800000002

>  <CpInf_units>  (5) 
J/(mol*K)

>  <Tmin_value>  (5) 
10.0

>  <Tmin_units>  (5) 
K

>  <Tmax_value>  (5) 
3000.0

>  <Tmax_units>  (5) 
K

>  <polynomials>  (5) 
[{"name": "polynomial1", "class": "NASAPolynomial", "Tmin_value": 10.0, "Tmin_units": "K", "Tmax_value": 503.5856077016928, "Tmax_units": "K", "coeffs": [3.976811592049577, 0.0012685228752087534, 4.786155959427562e-05, -7.554553197268183e-08, 3.869280929218241e-11, -42077814.38325793, 7.559402827950991]}, {"name": "polynomial2", "class": "NASAPolynomial", "Tmin_value": 503.5856077016928, "Tmin_units": "K", "Tmax_value": 3000.0, "Tmax_units": "K", "coeffs": [1.4688672877735052, 0.02118998940112054, -1.1479594923736429e-05, 3.0156770231218235e-09, -3.096140671693614e-13, -42077561.800061174, 17.93823402033286]}]

>  <H298_value>  (5) 
-83614.2601862362

>  <H298_units>  (5) 
kcal/mol

>  <S298_value>  (5) 
63.84640386523673

>  <S298_units>  (5) 
cal/(mol*K)

>  <Cp_T_value_list>  (5) 
[13.788413560189577, 16.48922778111735, 18.980945997388957, 21.186536551582613, 24.822448324400693, 27.593007553675324, 31.86535612271467, 33.985319854322825, 35.01227851918305]

>  <Cp_T_units>  (5) 
cal/(mol*K)

>  <T_list>  (5) 
[300.0, 400.0, 500.0, 600.0, 800.0, 1000.0, 1500.0, 2000.0, 2400.0]

>  <T_units>  (5) 
K

>  <yaml_path>  (5) 
/home/calvin/Dropbox/PersonalFolders/Calvin/ZEUS_Converged/rmg_rxn_16489/output/Species/rmg_rxn_16489_r2_CC=sbr-N-sbr/rmg_rxn_16489_r2_CC=sbr-N-sbr.yml

>  <frequencies_cm1>  (5) 
[183.94593576684, 430.87586088872, 744.9511684695599, 909.3948659275999, 1050.2642027820798, 1063.7578289358798, 1237.9320445923597, 1377.0846351168398, 1461.72709617116, 1465.6893467008, 1739.36617964408, 2963.10416558, 3026.2186276561197, 3097.525403219, 3131.35217290532]

>  <ZPE_kJmol>  (5) 
142.8532380575317

>  <E_elec_kJmol>  (5) 
-349997.67558261286

>  <E0_minus_Eelec_plus_ZPE_kJmol>  (5) 
0.0

>  <rxn>  (5) 
rmg_rxn_16489

>  <species_type>  (5) 
r1

>  <species_folder>  (5) 
rmg_rxn_16489_r2_CC=sbr-N-sbr

>  <frequencies_cm1_list>  (5) 
[183.94593576684, 430.87586088872, 744.9511684695599, 909.3948659275999, 1050.2642027820798, 1063.7578289358798, 1237.9320445923597, 1377.0846351168398, 1461.72709617116, 1465.6893467008, 1739.36617964408, 2963.10416558, 3026.2186276561197, 3097.525403219, 3131.35217290532]

>  <E0_kJmol>  (5) 
-349855

>  <H298_kJmol>  (5) 
-349842

$$$$
