
     RDKit          3D

 14 13  0  0  0  0  0  0  0  0999 V2000
   -0.6432   -1.6522   -1.5105 C   0  0  0  0  0  0  0  0  0  1  0  0
   -0.6674   -1.6824   -0.1886 C   0  0  0  0  0  0  0  0  0  2  0  0
   -0.6922   -0.4819    0.7112 C   0  0  0  0  0  0  0  0  0  3  0  0
   -0.5470    0.7450    0.0311 O   0  0  0  0  0  0  0  0  0  4  0  0
    0.7796    1.1202   -0.2021 C   0  0  0  0  0  0  0  0  0  5  0  0
    1.4904    1.4191    0.9418 O   0  0  0  0  0  0  0  0  0  6  0  0
   -0.6419   -0.7134   -2.0510 H   0  0  0  0  0  0  0  0  0  7  0  0
   -0.6328   -2.5647   -2.0922 H   0  0  0  0  0  0  0  0  0  8  0  0
   -0.6799   -2.6370    0.3307 H   0  0  0  0  0  0  0  0  0  9  0  0
    0.0771   -0.5798    1.4858 H   0  0  0  0  0  0  0  0  0 10  0  0
   -1.6536   -0.4388    1.2302 H   0  0  0  0  0  0  0  0  0 11  0  0
    0.7261    1.9672   -0.8915 H   0  0  0  0  0  0  0  0  0 12  0  0
    1.3480    0.3034   -0.6716 H   0  0  0  0  0  0  0  0  0 13  0  0
    1.1317    2.2325    1.3042 H   0  0  0  0  0  0  0  0  0 14  0  0
  1  8  1  0
  1  7  1  0
  1  2  1  0
  2  9  1  0
  2  3  1  0
  3 11  1  0
  3  4  1  0
  3 10  1  0
  4  5  1  0
  5 13  1  0
  5  6  1  0
  5 12  1  0
  6 14  1  0
M  END
>  <rmg_smiles>  (1) 
[CH2][CH]COCO

>  <rmg_adjacency_list>  (1) 
1  O u0 p2 c0 {3,S} {4,S}
2  O u0 p2 c0 {4,S} {14,S}
3  C u0 p0 c0 {1,S} {5,S} {7,S} {8,S}
4  C u0 p0 c0 {1,S} {2,S} {9,S} {10,S}
5  C u0 p0 c0 {3,S} {6,S} {11,S}
6  C u0 p0 c0 {5,S} {12,S} {13,S}
7  H u0 p0 c0 {3,S}
8  H u0 p0 c0 {3,S}
9  H u0 p0 c0 {4,S}
10 H u0 p0 c0 {4,S}
11 H u0 p0 c0 {5,S}
12 H u0 p0 c0 {6,S}
13 H u0 p0 c0 {6,S}
14 H u0 p0 c0 {2,S}


>  <multiplicity>  (1) 
1

>  <reaction>  (1) 
rmg_rxn_3167

>  <type>  (1) 
r1h

>  <role_mapnums>  (1) 
{"r1h_a": 6, "r1h_h": 14}

>  <role_mapidx>  (1) 
{"r1h_a": 5, "r1h_h": 13}

>  <ordered_mapped_smiles>  (1) 
[CH:1]([CH:2]([C:3]([O:4][C:5]([O:6][H:14])([H:12])[H:13])([H:10])[H:11])[H:9])([H:7])[H:8]

>  <mol_properties>  (1) 
{"5": {"label": "donator", "atom_type": "O2s"}, "13": {"label": "d_hydrogen", "atom_type": "H0"}}

>  <level_of_theory>  (1) 
wb97xd/def2tzvp

>  <lot_method>  (1) 
wb97xd

>  <lot_basis>  (1) 
def2tzvp

>  <spin_multiplicity>  (1) 
1.0

>  <optical_isomers>  (1) 
2.0

>  <modes>  (1) 
IdealGasTranslation(mass=(88.0524, 'amu')),         NonlinearRotor(             inertia = ([62.4755, 247.019, 267.132

>  <frequency_value>  (1) 
unknown

>  <frequency_units>  (1) 
unknown

>  <frequency_list>  (1) 
unknown

>  <arkane_path>  (1) 
/home/calvin/Dropbox/PersonalFolders/Calvin/ATLAS_Converged/rmg_rxn_3167/output/Species/rmg_rxn_3167_r2_C=CCOCO/arkane/output.py

>  <path_exists>  (1) 
True

>  <E0_value>  (1) 
-807484.8524164247

>  <E0_units>  (1) 
kJ/mol

>  <thermo_class>  (1) 
NASA

>  <Cp0_value>  (1) 
33.257888

>  <Cp0_units>  (1) 
J/(mol*K)

>  <CpInf_value>  (1) 
332.57888

>  <CpInf_units>  (1) 
J/(mol*K)

>  <Tmin_value>  (1) 
10.0

>  <Tmin_units>  (1) 
K

>  <Tmax_value>  (1) 
3000.0

>  <Tmax_units>  (1) 
K

>  <polynomials>  (1) 
[{"name": "polynomial1", "class": "NASAPolynomial", "Tmin_value": 10.0, "Tmin_units": "K", "Tmax_value": 951.05580429019, "Tmax_units": "K", "coeffs": [3.7830130646860116, 0.027301673584440307, 2.711572638484013e-05, -4.690011166652139e-08, 1.7949489521260658e-11, -97117998.47246416, 11.223245210770747]}, {"name": "polynomial2", "class": "NASAPolynomial", "Tmin_value": 951.05580429019, "Tmin_units": "K", "Tmax_value": 3000.0, "Tmax_units": "K", "coeffs": [3.827433119854634, 0.04312683628920276, -2.3097651388273276e-05, 6.000671761285336e-09, -6.096809640025725e-13, -97118731.06947985, 7.20409996670116]}]

>  <H298_value>  (1) 
-192988.56033858497

>  <H298_units>  (1) 
kcal/mol

>  <S298_value>  (1) 
82.94001480928443

>  <S298_units>  (1) 
cal/(mol*K)

>  <Cp_T_value_list>  (1) 
[26.41597251181832, 32.789103015796094, 38.69510475154379, 43.96000537473306, 52.298646013308826, 58.121038380681206, 66.99614192538424, 71.42214674475379, 73.55625685594185]

>  <Cp_T_units>  (1) 
cal/(mol*K)

>  <T_list>  (1) 
[300.0, 400.0, 500.0, 600.0, 800.0, 1000.0, 1500.0, 2000.0, 2400.0]

>  <T_units>  (1) 
K

>  <yaml_path>  (1) 
/home/calvin/Dropbox/PersonalFolders/Calvin/ATLAS_Converged/rmg_rxn_3167/output/Species/rmg_rxn_3167_r2_C=CCOCO/rmg_rxn_3167_r2_C=CCOCO.yml

>  <frequencies_cm1>  (1) 
[77.30165374724, 129.47014122328, 172.533006165, 253.86558029507995, 363.03004592712, 386.96148976731996, 559.06187585716, 591.1993671547599, 632.7240273847999, 885.1818756892799, 957.0654780190399, 964.95564415172, 1007.4279483559199, 1029.52590711568, 1057.08311920484, 1080.95276017716, 1096.3622752352398, 1165.6776250553198, 1270.907308099, 1310.55041435136, 1321.207975568, 1376.8442906306398, 1389.3284699424, 1434.01194341964, 1437.9535929933202, 1480.0413460196, 1512.3917138621198, 1719.32831648032, 2998.7369524054798, 3010.3146896549997, 3044.57407941648, 3064.1243866225195, 3120.2551246282, 3133.81055364988, 3215.56201388448, 3829.6490431107995]

>  <ZPE_kJmol>  (1) 
311.5074991336928

>  <E_elec_kJmol>  (1) 
-807796.3599155584

>  <E0_minus_Eelec_plus_ZPE_kJmol>  (1) 
0.0

>  <rxn>  (1) 
rmg_rxn_3167

>  <species_type>  (1) 
r1

>  <species_folder>  (1) 
rmg_rxn_3167_r2_C=CCOCO

>  <frequencies_cm1_list>  (1) 
[77.30165374724, 129.47014122328, 172.533006165, 253.86558029507995, 363.03004592712, 386.96148976731996, 559.06187585716, 591.1993671547599, 632.7240273847999, 885.1818756892799, 957.0654780190399, 964.95564415172, 1007.4279483559199, 1029.52590711568, 1057.08311920484, 1080.95276017716, 1096.3622752352398, 1165.6776250553198, 1270.907308099, 1310.55041435136, 1321.207975568, 1376.8442906306398, 1389.3284699424, 1434.01194341964, 1437.9535929933202, 1480.0413460196, 1512.3917138621198, 1719.32831648032, 2998.7369524054798, 3010.3146896549997, 3044.57407941648, 3064.1243866225195, 3120.2551246282, 3133.81055364988, 3215.56201388448, 3829.6490431107995]

>  <E0_kJmol>  (1) 
-807485

>  <H298_kJmol>  (1) 
-807464

$$$$

     RDKit          3D

  4  3  0  0  0  0  0  0  0  0999 V2000
   -0.0099    0.0209    0.0030 C   0  0  0  0  0  3  0  0  0  1  0  0
   -1.0746    0.0692   -0.1720 H   0  0  0  0  0  0  0  0  0  2  0  0
    0.6217    0.7678    0.4622 H   0  0  0  0  0  0  0  0  0  3  0  0
    0.4755   -0.9040   -0.2723 H   0  0  0  0  0  0  0  0  0  4  0  0
  1  3  1  0
  1  4  1  0
  1  2  1  0
M  RAD  1   1   2
M  END
>  <rmg_smiles>  (2) 
[CH3]

>  <rmg_adjacency_list>  (2) 
multiplicity 2
1 C u1 p0 c0 {2,S} {3,S} {4,S}
2 H u0 p0 c0 {1,S}
3 H u0 p0 c0 {1,S}
4 H u0 p0 c0 {1,S}


>  <multiplicity>  (2) 
2

>  <reaction>  (2) 
rmg_rxn_3167

>  <type>  (2) 
r2h

>  <role_mapnums>  (2) 
{"r2h_a": 1, "r2h_h": 4}

>  <role_mapidx>  (2) 
{"r2h_a": 0, "r2h_h": 3}

>  <ordered_mapped_smiles>  (2) 
[C:1]([H:2])([H:3])[H:4]

>  <mol_properties>  (2) 
{"0": {"label": "acceptor", "atom_type": "Cs"}, "3": {"label": "a_hydrogen", "atom_type": "H0"}}

>  <level_of_theory>  (2) 
wb97xd/def2tzvp

>  <lot_method>  (2) 
wb97xd

>  <lot_basis>  (2) 
def2tzvp

>  <spin_multiplicity>  (2) 
2.0

>  <optical_isomers>  (2) 
1.0

>  <modes>  (2) 
IdealGasTranslation(mass=(15.0235, 'amu')),         NonlinearRotor(             inertia = ([1.76141, 1.76141, 3.52282

>  <frequency_value>  (2) 
unknown

>  <frequency_units>  (2) 
unknown

>  <frequency_list>  (2) 
unknown

>  <arkane_path>  (2) 
/home/calvin/Dropbox/PersonalFolders/Calvin/ATLAS_Converged/rmg_rxn_3167/output/Species/rmg_rxn_3167_p1_sbr-CH3-sbr/arkane/output.py

>  <path_exists>  (2) 
True

>  <E0_value>  (2) 
-104520.13119505523

>  <E0_units>  (2) 
kJ/mol

>  <thermo_class>  (2) 
NASA

>  <Cp0_value>  (2) 
33.257888

>  <Cp0_units>  (2) 
J/(mol*K)

>  <CpInf_value>  (2) 
83.14472

>  <CpInf_units>  (2) 
J/(mol*K)

>  <Tmin_value>  (2) 
10.0

>  <Tmin_units>  (2) 
K

>  <Tmax_value>  (2) 
3000.0

>  <Tmax_units>  (2) 
K

>  <polynomials>  (2) 
[{"name": "polynomial1", "class": "NASAPolynomial", "Tmin_value": 10.0, "Tmin_units": "K", "Tmax_value": 646.7595511850164, "Tmax_units": "K", "coeffs": [3.9912257858476514, 0.00042746838227036415, 9.381039991476058e-06, -1.0944339285143208e-08, 4.263092042587705e-12, -12570867.748455517, 0.20527880717700853]}, {"name": "polynomial2", "class": "NASAPolynomial", "Tmin_value": 646.7595511850164, "Tmin_units": "K", "Tmax_value": 3000.0, "Tmax_units": "K", "coeffs": [3.248853600439243, 0.005018843892609398, -1.2676259453269182e-06, 3.2190850906026965e-11, 2.015866016283914e-14, -12570771.722075555, 3.4632772013773527]}]

>  <H298_value>  (2) 
-24978.38329133143

>  <H298_units>  (2) 
kcal/mol

>  <S298_value>  (2) 
46.49953999396712

>  <S298_units>  (2) 
cal/(mol*K)

>  <Cp_T_value_list>  (2) 
[9.345422381427998, 10.078866905578547, 10.827534708529729, 11.55242757481392, 12.87190518277653, 14.014616975507817, 16.16723326452146, 17.479673013416814, 18.09624915803834]

>  <Cp_T_units>  (2) 
cal/(mol*K)

>  <T_list>  (2) 
[300.0, 400.0, 500.0, 600.0, 800.0, 1000.0, 1500.0, 2000.0, 2400.0]

>  <T_units>  (2) 
K

>  <yaml_path>  (2) 
/home/calvin/Dropbox/PersonalFolders/Calvin/ATLAS_Converged/rmg_rxn_3167/output/Species/rmg_rxn_3167_p1_sbr-CH3-sbr/rmg_rxn_3167_p1_sbr-CH3-sbr.yml

>  <frequencies_cm1>  (2) 
[520.22220688724, 1393.4280601784399, 1393.43492716376, 3088.8592677451597, 3268.6163424668, 3268.6232094521197]

>  <ZPE_kJmol>  (2) 
77.35764153782172

>  <E_elec_kJmol>  (2) 
-104597.48883659308

>  <E0_minus_Eelec_plus_ZPE_kJmol>  (2) 
0.0

>  <rxn>  (2) 
rmg_rxn_3167

>  <species_type>  (2) 
p0

>  <species_folder>  (2) 
rmg_rxn_3167_p1_sbr-CH3-sbr

>  <frequencies_cm1_list>  (2) 
[520.22220688724, 1393.4280601784399, 1393.43492716376, 3088.8592677451597, 3268.6163424668, 3268.6232094521197]

>  <E0_kJmol>  (2) 
-104520

>  <H298_kJmol>  (2) 
-104510

$$$$

     RDKit          3D

 17 15  0  0  0  0  0  0  0  0999 V2000
    0.4156    3.0000    1.4813 C   0  0  0  0  0  2  0  0  0  1  0  0
   -0.6491    3.0483    1.3063 H   0  0  0  0  0  0  0  0  0  2  0  0
    1.0473    3.7469    1.9404 H   0  0  0  0  0  0  0  0  0  3  0  0
   -0.6950   -2.1806   -1.7470 C   0  0  0  0  0  0  0  0  0  4  0  0
   -0.7192   -2.2107   -0.4251 C   0  0  0  0  0  0  0  0  0  5  0  0
   -0.7439   -1.0102    0.4747 C   0  0  0  0  0  0  0  0  0  6  0  0
   -0.5987    0.2167   -0.2054 O   0  0  0  0  0  0  0  0  0  7  0  0
    0.7278    0.5918   -0.4386 C   0  0  0  0  0  0  0  0  0  8  0  0
    1.4387    0.8908    0.7053 O   0  0  0  0  0  0  0  0  0  9  0  0
   -0.6937   -1.2417   -2.2875 H   0  0  0  0  0  0  0  0  0 10  0  0
   -0.6846   -3.0930   -2.3287 H   0  0  0  0  0  0  0  0  0 11  0  0
   -0.7316   -3.1653    0.0942 H   0  0  0  0  0  0  0  0  0 12  0  0
    0.0254   -1.1081    1.2493 H   0  0  0  0  0  0  0  0  0 13  0  0
   -1.7054   -0.9671    0.9937 H   0  0  0  0  0  0  0  0  0 14  0  0
    0.6744    1.4389   -1.1280 H   0  0  0  0  0  0  0  0  0 15  0  0
    1.2962   -0.2250   -0.9081 H   0  0  0  0  0  0  0  0  0 16  0  0
    0.9967    1.8929    1.1517 H   0  0  0  0  0  0  0  0  0 17  0  0
  1  3  1  0
  1  2  1  0
  4  5  1  0
  4 11  1  0
  4 10  1  0
  5 12  1  0
  5  6  1  0
  6 14  1  0
  6 13  1  0
  6  7  1  0
  7  8  1  0
  8  9  1  0
  8 16  1  0
  8 15  1  0
  9 17  1  0
M  RAD  1   1   3
M  END
>  <rmg_smiles>  (3) 
[CH2].[CH2][CH]COCO

>  <rmg_adjacency_list>  (3) 
multiplicity 3
1  O u0 p2 c0 {3,S} {4,S}
2  O u0 p2 c0 {4,S} {15,S}
3  C u0 p0 c0 {1,S} {5,S} {8,S} {9,S}
4  C u0 p0 c0 {1,S} {2,S} {10,S} {11,S}
5  C u0 p0 c0 {3,S} {6,S} {12,S}
6  C u0 p0 c0 {5,S} {13,S} {14,S}
7  C u2 p1 c0 {16,S} {17,S}
8  H u0 p0 c0 {3,S}
9  H u0 p0 c0 {3,S}
10 H u0 p0 c0 {4,S}
11 H u0 p0 c0 {4,S}
12 H u0 p0 c0 {5,S}
13 H u0 p0 c0 {6,S}
14 H u0 p0 c0 {6,S}
15 H u0 p0 c0 {2,S}
16 H u0 p0 c0 {7,S}
17 H u0 p0 c0 {7,S}


>  <multiplicity>  (3) 
3

>  <reaction>  (3) 
rmg_rxn_3167

>  <type>  (3) 
ts

>  <role_mapnums>  (3) 
{"*2": 17, "*1": 9, "*3": 1, "*0": 8, "*4": 2}

>  <role_mapidx>  (3) 
{"*2": 16, "*1": 8, "*3": 0, "*0": 7, "*4": 1}

>  <ordered_mapped_smiles>  (3) 
[C:1]([H:2])[H:3].[CH:4]([CH:5]([C:6]([O:7][C:8]([O:9][H:17])([H:15])[H:16])([H:13])[H:14])[H:12])([H:10])[H:11]

>  <mol_properties>  (3) 
{"0": {"label": "*3", "atom_type": "C2s"}, "1": {"label": "*4", "atom_type": "H0"}, "7": {"label": "*0", "atom_type": "Cs"}, "8": {"label": "*1", "atom_type": "O2s"}, "16": {"label": "*2", "atom_type": "H0"}}

>  <level_of_theory>  (3) 
wb97xd/def2tzvp

>  <lot_method>  (3) 
wb97xd

>  <lot_basis>  (3) 
def2tzvp

>  <spin_multiplicity>  (3) 
3.0

>  <optical_isomers>  (3) 
2.0

>  <modes>  (3) 
IdealGasTranslation(mass=(102.068, 'amu')),         NonlinearRotor(             inertia = ([80.2245, 433.917, 450.395

>  <frequency_value>  (3) 
-1769.24

>  <frequency_units>  (3) 
cm^-1

>  <frequency_list>  (3) 
unknown

>  <arkane_path>  (3) 
/home/calvin/Dropbox/PersonalFolders/Calvin/ATLAS_Converged/rmg_rxn_3167/output/rxns/TS0/arkane/output.py

>  <path_exists>  (3) 
True

>  <E0_value>  (3) 
-910217.0

>  <E0_units>  (3) 
kJ/mol

>  <thermo_class>  (3) 
unknown

>  <Cp0_value>  (3) 
unknown

>  <Cp0_units>  (3) 
unknown

>  <CpInf_value>  (3) 
unknown

>  <CpInf_units>  (3) 
unknown

>  <Tmin_value>  (3) 
unknown

>  <Tmin_units>  (3) 
unknown

>  <Tmax_value>  (3) 
unknown

>  <Tmax_units>  (3) 
unknown

>  <polynomials>  (3) 
unknown

>  <H298_value>  (3) 
unknown

>  <H298_units>  (3) 
unknown

>  <S298_value>  (3) 
unknown

>  <S298_units>  (3) 
unknown

>  <Cp_T_value_list>  (3) 
unknown

>  <Cp_T_units>  (3) 
unknown

>  <T_list>  (3) 
unknown

>  <T_units>  (3) 
unknown

>  <yaml_path>  (3) 
unknown

>  <frequencies_cm1>  (3) 
unknown

>  <ZPE_kJmol>  (3) 
unknown

>  <E_elec_kJmol>  (3) 
unknown

>  <E0_minus_Eelec_plus_ZPE_kJmol>  (3) 
unknown

>  <rxn>  (3) 
unknown

>  <species_type>  (3) 
unknown

>  <species_folder>  (3) 
unknown

>  <frequencies_cm1_list>  (3) 
[]

>  <ts_imag_freq_cm1>  (3) 
-1790.7299

>  <ts_freq_out_path>  (3) 
/home/calvin/Dropbox/PersonalFolders/Calvin/ATLAS_Converged/rmg_rxn_3167/output/rxns/TS0/geometry/freq.out

>  <E0_kJmol>  (3) 
-910217

>  <H298_kJmol>  (3) 
unknown

$$$$

     RDKit          3D

 13 12  0  0  0  0  0  0  0  0999 V2000
    2.4430   -0.3849    0.0540 C   0  0  0  0  0  0  0  0  0  1  0  0
    1.2567   -0.6322    0.5818 C   0  0  0  0  0  0  0  0  0  2  0  0
    0.0753    0.2775    0.5273 C   0  0  0  0  0  0  0  0  0  3  0  0
    0.3842    1.4616   -0.1714 O   0  0  0  0  0  0  0  0  0  4  0  0
   -0.6866    2.3343   -0.3126 C   0  0  0  0  0  0  0  0  0  5  0  0
   -1.2216    2.8361    0.7984 O   0  0  0  0  0  1  0  0  0  6  0  0
    3.2507   -1.0998    0.1431 H   0  0  0  0  0  0  0  0  0  7  0  0
    2.6411    0.5367   -0.4774 H   0  0  0  0  0  0  0  0  0  8  0  0
    1.0785   -1.5620    1.1139 H   0  0  0  0  0  0  0  0  0  9  0  0
   -0.2540    0.5126    1.5468 H   0  0  0  0  0  0  0  0  0 10  0  0
   -0.7614   -0.2409    0.0324 H   0  0  0  0  0  0  0  0  0 11  0  0
   -1.5299    1.8457   -0.8558 H   0  0  0  0  0  0  0  0  0 12  0  0
   -0.3398    3.1546   -0.9632 H   0  0  0  0  0  0  0  0  0 13  0  0
  1  8  1  0
  1  7  1  0
  1  2  1  0
  2  9  1  0
  2  3  1  0
  3 11  1  0
  3  4  1  0
  3 10  1  0
  4  5  1  0
  5 13  1  0
  5  6  1  0
  5 12  1  0
M  RAD  1   6   2
M  END
>  <rmg_smiles>  (4) 
[CH2][CH]COC[O]

>  <rmg_adjacency_list>  (4) 
multiplicity 2
1  O u0 p2 c0 {3,S} {4,S}
2  O u1 p2 c0 {4,S}
3  C u0 p0 c0 {1,S} {5,S} {7,S} {8,S}
4  C u0 p0 c0 {1,S} {2,S} {9,S} {10,S}
5  C u0 p0 c0 {3,S} {6,S} {11,S}
6  C u0 p0 c0 {5,S} {12,S} {13,S}
7  H u0 p0 c0 {3,S}
8  H u0 p0 c0 {3,S}
9  H u0 p0 c0 {4,S}
10 H u0 p0 c0 {4,S}
11 H u0 p0 c0 {5,S}
12 H u0 p0 c0 {6,S}
13 H u0 p0 c0 {6,S}


>  <multiplicity>  (4) 
2

>  <reaction>  (4) 
rmg_rxn_3167

>  <type>  (4) 
r1

>  <role_mapnums>  (4) 
{}

>  <role_mapidx>  (4) 
{}

>  <ordered_mapped_smiles>  (4) 
[CH:1]([CH:2]([C:3]([O:4][C:5]([O:6])([H:12])[H:13])([H:10])[H:11])[H:9])([H:7])[H:8]

>  <level_of_theory>  (4) 
wb97xd/def2tzvp

>  <lot_method>  (4) 
wb97xd

>  <lot_basis>  (4) 
def2tzvp

>  <spin_multiplicity>  (4) 
2.0

>  <optical_isomers>  (4) 
2.0

>  <modes>  (4) 
IdealGasTranslation(mass=(87.0446, 'amu')),         NonlinearRotor(             inertia = ([43.2701, 281.035, 303.214

>  <frequency_value>  (4) 
unknown

>  <frequency_units>  (4) 
unknown

>  <frequency_list>  (4) 
unknown

>  <arkane_path>  (4) 
/home/calvin/Dropbox/PersonalFolders/Calvin/ATLAS_Converged/rmg_rxn_3167/output/Species/rmg_rxn_3167_p2_C=CCOCsbr-O-sbr/arkane/output.py

>  <path_exists>  (4) 
True

>  <E0_value>  (4) 
-805752.0639491953

>  <E0_units>  (4) 
kJ/mol

>  <thermo_class>  (4) 
NASA

>  <Cp0_value>  (4) 
33.257888

>  <Cp0_units>  (4) 
J/(mol*K)

>  <CpInf_value>  (4) 
307.635464

>  <CpInf_units>  (4) 
J/(mol*K)

>  <Tmin_value>  (4) 
10.0

>  <Tmin_units>  (4) 
K

>  <Tmax_value>  (4) 
3000.0

>  <Tmax_units>  (4) 
K

>  <polynomials>  (4) 
[{"name": "polynomial1", "class": "NASAPolynomial", "Tmin_value": 10.0, "Tmin_units": "K", "Tmax_value": 1110.8015768620794, "Tmax_units": "K", "coeffs": [3.9202118391312752, 0.027294825020104153, 1.6753512074739745e-05, -3.116163751948595e-08, 1.0945960395583141e-11, -96909597.71400224, 11.85312846623316]}, {"name": "polynomial2", "class": "NASAPolynomial", "Tmin_value": 1110.8015768620794, "Tmin_units": "K", "Tmax_value": 3000.0, "Tmax_units": "K", "coeffs": [7.537118238775617, 0.03302300665239599, -1.630485116508982e-05, 3.8770394226038425e-09, -3.6047132707891035e-13, -96911558.17461371, -11.184050222850306]}]

>  <H298_value>  (4) 
-192574.47087869825

>  <H298_units>  (4) 
kcal/mol

>  <S298_value>  (4) 
85.07506560459476

>  <S298_units>  (4) 
cal/(mol*K)

>  <Cp_T_value_list>  (4) 
[25.56297432218494, 31.406955305653604, 36.852585986429666, 41.76323905605712, 49.69412573192994, 55.15068728117495, 62.88680914722946, 66.79498056175008, 68.58447976792732]

>  <Cp_T_units>  (4) 
cal/(mol*K)

>  <T_list>  (4) 
[300.0, 400.0, 500.0, 600.0, 800.0, 1000.0, 1500.0, 2000.0, 2400.0]

>  <T_units>  (4) 
K

>  <yaml_path>  (4) 
/home/calvin/Dropbox/PersonalFolders/Calvin/ATLAS_Converged/rmg_rxn_3167/output/Species/rmg_rxn_3167_p2_C=CCOCsbr-O-sbr/rmg_rxn_3167_p2_C=CCOCsbr-O-sbr.yml

>  <frequencies_cm1>  (4) 
[41.43538942088, 126.51733753568001, 186.47985334991998, 206.13316533576, 313.49161382863997, 541.2214479958, 570.70141597456, 654.9249909243599, 769.1847596638399, 925.45674459108, 961.22000413764, 977.07587324152, 1016.9661909654, 1043.47962128592, 1068.38617704156, 1112.7606361793999, 1168.74716749336, 1212.37999221664, 1265.5167246228, 1314.14871465904, 1317.4311336419998, 1369.91550244276, 1416.02044188124, 1439.09351255644, 1490.4516957647197, 1724.9386434867597, 2794.08018891352, 2936.60446923012, 2938.6645648261197, 3002.2391149186797, 3127.0877750216, 3141.1238930156796, 3222.75861449984]

>  <ZPE_kJmol>  (4) 
271.5322690042694

>  <E_elec_kJmol>  (4) 
-806023.5962181996

>  <E0_minus_Eelec_plus_ZPE_kJmol>  (4) 
0.0

>  <rxn>  (4) 
rmg_rxn_3167

>  <species_type>  (4) 
p1

>  <species_folder>  (4) 
rmg_rxn_3167_p2_C=CCOCsbr-O-sbr

>  <frequencies_cm1_list>  (4) 
[41.43538942088, 126.51733753568001, 186.47985334991998, 206.13316533576, 313.49161382863997, 541.2214479958, 570.70141597456, 654.9249909243599, 769.1847596638399, 925.45674459108, 961.22000413764, 977.07587324152, 1016.9661909654, 1043.47962128592, 1068.38617704156, 1112.7606361793999, 1168.74716749336, 1212.37999221664, 1265.5167246228, 1314.14871465904, 1317.4311336419998, 1369.91550244276, 1416.02044188124, 1439.09351255644, 1490.4516957647197, 1724.9386434867597, 2794.08018891352, 2936.60446923012, 2938.6645648261197, 3002.2391149186797, 3127.0877750216, 3141.1238930156796, 3222.75861449984]

>  <E0_kJmol>  (4) 
-805752

>  <H298_kJmol>  (4) 
-805732

$$$$

     RDKit          3D

  3  2  0  0  0  0  0  0  0  0999 V2000
    0.0000    0.0000    0.1037 C   0  0  0  0  0  2  0  0  0  1  0  0
    0.0000    0.9954   -0.3147 H   0  0  0  0  0  0  0  0  0  2  0  0
    0.0000   -0.9954   -0.3147 H   0  0  0  0  0  0  0  0  0  3  0  0
  1  3  1  0
  1  2  1  0
M  RAD  1   1   3
M  END
>  <rmg_smiles>  (5) 
[CH2]

>  <rmg_adjacency_list>  (5) 
multiplicity 3
1 C u2 p1 c0 {2,S} {3,S}
2 H u0 p0 c0 {1,S}
3 H u0 p0 c0 {1,S}


>  <multiplicity>  (5) 
3

>  <reaction>  (5) 
rmg_rxn_3167

>  <type>  (5) 
r2

>  <role_mapnums>  (5) 
{}

>  <role_mapidx>  (5) 
{}

>  <ordered_mapped_smiles>  (5) 
[C:1]([H:2])[H:3]

>  <level_of_theory>  (5) 
wb97xd/def2tzvp

>  <lot_method>  (5) 
wb97xd

>  <lot_basis>  (5) 
def2tzvp

>  <spin_multiplicity>  (5) 
3.0

>  <optical_isomers>  (5) 
1.0

>  <modes>  (5) 
IdealGasTranslation(mass=(14.0157, 'amu')),         NonlinearRotor(             inertia = ([0.302189, 1.99708, 2.29927

>  <frequency_value>  (5) 
unknown

>  <frequency_units>  (5) 
unknown

>  <frequency_list>  (5) 
unknown

>  <arkane_path>  (5) 
/home/calvin/Dropbox/PersonalFolders/Calvin/ATLAS_Converged/rmg_rxn_3167/output/Species/rmg_rxn_3167_r1_sbr-CH2-sbr/arkane/output.py

>  <path_exists>  (5) 
True

>  <E0_value>  (5) 
-102746.3604097037

>  <E0_units>  (5) 
kJ/mol

>  <thermo_class>  (5) 
NASA

>  <Cp0_value>  (5) 
33.257888

>  <Cp0_units>  (5) 
J/(mol*K)

>  <CpInf_value>  (5) 
58.201304

>  <CpInf_units>  (5) 
J/(mol*K)

>  <Tmin_value>  (5) 
10.0

>  <Tmin_units>  (5) 
K

>  <Tmax_value>  (5) 
3000.0

>  <Tmax_units>  (5) 
K

>  <polynomials>  (5) 
[{"name": "polynomial1", "class": "NASAPolynomial", "Tmin_value": 10.0, "Tmin_units": "K", "Tmax_value": 961.2537703468265, "Tmax_units": "K", "coeffs": [4.003567274783497, -0.00017628649893863886, 3.2424154420246973e-06, -2.3237373613409304e-09, 5.265367404586338e-13, -12357532.895886488, 0.5988309128090271]}, {"name": "polynomial2", "class": "NASAPolynomial", "Tmin_value": 961.2537703468265, "Tmin_units": "K", "Tmax_value": 3000.0, "Tmax_units": "K", "coeffs": [3.235887744652184, 0.002682865290017016, -6.958956295252623e-07, 4.471411525242933e-11, 4.944011528851231e-15, -12357369.816021634, 4.352691540085104]}]

>  <H298_value>  (5) 
-24554.56617285692

>  <H298_units>  (5) 
kcal/mol

>  <S298_value>  (5) 
46.65862348821438

>  <S298_units>  (5) 
cal/(mol*K)

>  <Cp_T_value_list>  (5) 
[8.31451721635151, 8.577974181765384, 8.879771166632237, 9.20350213712947, 9.863697946528214, 10.477577141433397, 11.66561697983005, 12.429684371368914, 12.814628264430327]

>  <Cp_T_units>  (5) 
cal/(mol*K)

>  <T_list>  (5) 
[300.0, 400.0, 500.0, 600.0, 800.0, 1000.0, 1500.0, 2000.0, 2400.0]

>  <T_units>  (5) 
K

>  <yaml_path>  (5) 
/home/calvin/Dropbox/PersonalFolders/Calvin/ATLAS_Converged/rmg_rxn_3167/output/Species/rmg_rxn_3167_r1_sbr-CH2-sbr/rmg_rxn_3167_r1_sbr-CH2-sbr.yml

>  <frequencies_cm1>  (5) 
[1058.90973729996, 3101.0619006588, 3329.06641423876]

>  <ZPE_kJmol>  (5) 
44.79440797275059

>  <E_elec_kJmol>  (5) 
-102791.15481767643

>  <E0_minus_Eelec_plus_ZPE_kJmol>  (5) 
0.0

>  <rxn>  (5) 
rmg_rxn_3167

>  <species_type>  (5) 
r0

>  <species_folder>  (5) 
rmg_rxn_3167_r1_sbr-CH2-sbr

>  <frequencies_cm1_list>  (5) 
[1058.90973729996, 3101.0619006588, 3329.06641423876]

>  <E0_kJmol>  (5) 
-102746

>  <H298_kJmol>  (5) 
-102736

$$$$
