
     RDKit          3D

 11 10  0  0  0  0  0  0  0  0999 V2000
    0.4373    0.3077   -0.2594 C   0  0  0  0  0  0  0  0  0  1  0  0
    0.5144   -1.1728    0.0933 C   0  0  0  0  0  0  0  0  0  2  0  0
   -0.9099    0.8893    0.1458 C   0  0  0  0  0  0  0  0  0  3  0  0
    1.2510    0.8577    0.2608 H   0  0  0  0  0  0  0  0  0  4  0  0
    0.5704    0.4293   -1.3556 H   0  0  0  0  0  0  0  0  0  5  0  0
    1.4971   -1.5800   -0.2253 H   0  0  0  0  0  0  0  0  0  6  0  0
    0.4099   -1.3143    1.1903 H   0  0  0  0  0  0  0  0  0  7  0  0
   -0.2900   -1.7348   -0.4278 H   0  0  0  0  0  0  0  0  0  8  0  0
   -1.0390    0.8391    1.2481 H   0  0  0  0  0  0  0  0  0  9  0  0
   -0.9790    1.9484   -0.1803 H   0  0  0  0  0  0  0  0  0 10  0  0
   -1.8012    0.3375   -0.2213 H   0  0  0  0  0  0  0  0  0 11  0  0
  1  5  1  0
  1  3  1  0
  1  4  1  0
  1  2  1  0
  2  8  1  0
  2  7  1  0
  2  6  1  0
  3 11  1  0
  3  9  1  0
  3 10  1  0
M  END
>  <rmg_smiles>  (1) 
CCC

>  <rmg_adjacency_list>  (1) 
1  C u0 p0 c0 {2,S} {3,S} {4,S} {5,S}
2  C u0 p0 c0 {1,S} {6,S} {7,S} {8,S}
3  C u0 p0 c0 {1,S} {9,S} {10,S} {11,S}
4  H u0 p0 c0 {1,S}
5  H u0 p0 c0 {1,S}
6  H u0 p0 c0 {2,S}
7  H u0 p0 c0 {2,S}
8  H u0 p0 c0 {2,S}
9  H u0 p0 c0 {3,S}
10 H u0 p0 c0 {3,S}
11 H u0 p0 c0 {3,S}


>  <multiplicity>  (1) 
1

>  <reaction>  (1) 
rmg_rxn_1134

>  <type>  (1) 
r1h

>  <role_mapnums>  (1) 
{"r1h_a": 3, "r1h_h": 11}

>  <role_mapidx>  (1) 
{"r1h_a": 2, "r1h_h": 10}

>  <ordered_mapped_smiles>  (1) 
[C:1]([C:2]([H:6])([H:7])[H:8])([C:3]([H:9])([H:10])[H:11])([H:4])[H:5]

>  <mol_properties>  (1) 
{"2": {"label": "donator", "atom_type": "Cs"}, "10": {"label": "d_hydrogen", "atom_type": "H0"}}

>  <level_of_theory>  (1) 
wb97xd/def2tzvp

>  <lot_method>  (1) 
wb97xd

>  <lot_basis>  (1) 
def2tzvp

>  <spin_multiplicity>  (1) 
1.0

>  <optical_isomers>  (1) 
1.0

>  <modes>  (1) 
IdealGasTranslation(mass=(44.0626, 'amu')),         NonlinearRotor(             inertia = ([17.2379, 58.7077, 66.4771

>  <frequency_value>  (1) 
unknown

>  <frequency_units>  (1) 
unknown

>  <frequency_list>  (1) 
unknown

>  <arkane_path>  (1) 
/home/calvin/Dropbox/PersonalFolders/Calvin/ATLAS_Converged/rmg_rxn_1134/output/Species/rmg_rxn_1134_r2_CCC/arkane/output.py

>  <path_exists>  (1) 
True

>  <E0_value>  (1) 
-312559.5659093317

>  <E0_units>  (1) 
kJ/mol

>  <thermo_class>  (1) 
NASA

>  <Cp0_value>  (1) 
33.257888

>  <Cp0_units>  (1) 
J/(mol*K)

>  <CpInf_value>  (1) 
257.748632

>  <CpInf_units>  (1) 
J/(mol*K)

>  <Tmin_value>  (1) 
10.0

>  <Tmin_units>  (1) 
K

>  <Tmax_value>  (1) 
3000.0

>  <Tmax_units>  (1) 
K

>  <polynomials>  (1) 
[{"name": "polynomial1", "class": "NASAPolynomial", "Tmin_value": 10.0, "Tmin_units": "K", "Tmax_value": 585.6824430343231, "Tmax_units": "K", "coeffs": [4.008202975527919, -0.0009457141465395142, 8.161989586923781e-05, -1.1122965769608417e-07, 4.923946740202523e-11, -37592232.021237314, 6.616248049024993]}, {"name": "polynomial2", "class": "NASAPolynomial", "Tmin_value": 585.6824430343231, "Tmin_units": "K", "Tmax_value": 3000.0, "Tmax_units": "K", "coeffs": [-1.8508470213293426, 0.03906904734742861, -2.0861381263097234e-05, 5.420762402257517e-09, -5.525076113063814e-13, -37591545.705176346, 31.748381446102744]}]

>  <H298_value>  (1) 
-74700.19672781977

>  <H298_units>  (1) 
kcal/mol

>  <S298_value>  (1) 
63.410800848769775

>  <S298_units>  (1) 
cal/(mol*K)

>  <Cp_T_value_list>  (1) 
[16.8235278583958, 21.523300327793564, 26.06038377848225, 30.165325355768932, 36.966472548440194, 42.178604745847444, 50.30140199329152, 54.38527147206227, 56.35529539863589]

>  <Cp_T_units>  (1) 
cal/(mol*K)

>  <T_list>  (1) 
[300.0, 400.0, 500.0, 600.0, 800.0, 1000.0, 1500.0, 2000.0, 2400.0]

>  <T_units>  (1) 
K

>  <yaml_path>  (1) 
/home/calvin/Dropbox/PersonalFolders/Calvin/ATLAS_Converged/rmg_rxn_1134/output/Species/rmg_rxn_1134_r2_CCC/rmg_rxn_1134_r2_CCC.yml

>  <frequencies_cm1>  (1) 
[271.417594773, 314.84440993668, 381.36489673152, 768.47746017588, 892.2686045395199, 921.1099428835199, 942.76154759748, 1072.3140926446, 1180.8536626125199, 1216.2461049518, 1314.18991657096, 1363.70088072816, 1401.7302454303199, 1413.8779424613997, 1479.3134455756797, 1480.4602321241198, 1484.0516654464798, 1497.8131040277597, 1499.42684557796, 2983.0939598465197, 2985.0373166920795, 2989.12317295748, 3021.7756881540795, 3055.65052673764, 3056.2891563723997, 3059.4411026342796, 3066.5278314845195]

>  <ZPE_kJmol>  (1) 
269.8367053756118

>  <E_elec_kJmol>  (1) 
-312829.40261470736

>  <E0_minus_Eelec_plus_ZPE_kJmol>  (1) 
0.0

>  <rxn>  (1) 
rmg_rxn_1134

>  <species_type>  (1) 
r1

>  <species_folder>  (1) 
rmg_rxn_1134_r2_CCC

>  <frequencies_cm1_list>  (1) 
[271.417594773, 314.84440993668, 381.36489673152, 768.47746017588, 892.2686045395199, 921.1099428835199, 942.76154759748, 1072.3140926446, 1180.8536626125199, 1216.2461049518, 1314.18991657096, 1363.70088072816, 1401.7302454303199, 1413.8779424613997, 1479.3134455756797, 1480.4602321241198, 1484.0516654464798, 1497.8131040277597, 1499.42684557796, 2983.0939598465197, 2985.0373166920795, 2989.12317295748, 3021.7756881540795, 3055.65052673764, 3056.2891563723997, 3059.4411026342796, 3066.5278314845195]

>  <E0_kJmol>  (1) 
-312560

>  <H298_kJmol>  (1) 
-312546

$$$$

     RDKit          3D

  2  1  0  0  0  0  0  0  0  0999 V2000
   -0.0431   -0.0604    0.0090 O   0  0  0  0  0  1  0  0  0  1  0  0
    0.5107    0.7152   -0.1064 H   0  0  0  0  0  0  0  0  0  2  0  0
  1  2  1  0
M  RAD  1   1   2
M  END
>  <rmg_smiles>  (2) 
[OH]

>  <rmg_adjacency_list>  (2) 
multiplicity 2
1 O u1 p2 c0 {2,S}
2 H u0 p0 c0 {1,S}


>  <multiplicity>  (2) 
2

>  <reaction>  (2) 
rmg_rxn_1134

>  <type>  (2) 
r2h

>  <role_mapnums>  (2) 
{"r2h_a": 1, "r2h_h": 2}

>  <role_mapidx>  (2) 
{"r2h_a": 0, "r2h_h": 1}

>  <ordered_mapped_smiles>  (2) 
[O:1][H:2]

>  <mol_properties>  (2) 
{"0": {"label": "acceptor", "atom_type": "O2s"}, "1": {"label": "a_hydrogen", "atom_type": "H0"}}

>  <level_of_theory>  (2) 
wb97xd/def2tzvp

>  <lot_method>  (2) 
wb97xd

>  <lot_basis>  (2) 
def2tzvp

>  <spin_multiplicity>  (2) 
2.0

>  <optical_isomers>  (2) 
1.0

>  <modes>  (2) 
IdealGasTranslation(mass=(17.0027, 'amu')),         LinearRotor(inertia=(0.893962, 'amu*angstrom^2'), symmetry=1),         HarmonicOscillator(frequencies=([3724.63

>  <frequency_value>  (2) 
unknown

>  <frequency_units>  (2) 
unknown

>  <frequency_list>  (2) 
unknown

>  <arkane_path>  (2) 
/home/calvin/Dropbox/PersonalFolders/Calvin/ATLAS_Converged/rmg_rxn_1134/output/Species/rmg_rxn_1134_p1_sbr-OH-sbr/arkane/output.py

>  <path_exists>  (2) 
True

>  <E0_value>  (2) 
-198836.11500557224

>  <E0_units>  (2) 
kJ/mol

>  <thermo_class>  (2) 
NASA

>  <Cp0_value>  (2) 
29.100652

>  <Cp0_units>  (2) 
J/(mol*K)

>  <CpInf_value>  (2) 
37.415124

>  <CpInf_units>  (2) 
J/(mol*K)

>  <Tmin_value>  (2) 
10.0

>  <Tmin_units>  (2) 
K

>  <Tmax_value>  (2) 
3000.0

>  <Tmax_units>  (2) 
K

>  <polynomials>  (2) 
[{"name": "polynomial1", "class": "NASAPolynomial", "Tmin_value": 10.0, "Tmin_units": "K", "Tmax_value": 985.4633103339054, "Tmax_units": "K", "coeffs": [3.496867247333508, 0.00018342449890259614, -9.934008380455364e-07, 1.5607090885398485e-09, -6.057976047375529e-13, -23914460.71315525, 1.4723763541989374]}, {"name": "polynomial2", "class": "NASAPolynomial", "Tmin_value": 985.4633103339054, "Tmin_units": "K", "Tmax_value": 3000.0, "Tmax_units": "K", "coeffs": [3.453605826539838, -0.000298394996284096, 7.406626419620715e-07, -2.893423009710026e-10, 3.527332886378172e-14, -23914420.264478575, 1.842419488011591]}]

>  <H298_value>  (2) 
-47520.89667525978

>  <H298_units>  (2) 
kcal/mol

>  <S298_value>  (2) 
42.56095640204575

>  <S298_units>  (2) 
cal/(mol*K)

>  <Cp_T_value_list>  (2) 
[6.954667739233619, 6.946617902371048, 6.950166451559511, 6.9709205689453935, 7.072028097634187, 7.2370175778306685, 7.699521485448446, 8.086144468717986, 8.29478093025019]

>  <Cp_T_units>  (2) 
cal/(mol*K)

>  <T_list>  (2) 
[300.0, 400.0, 500.0, 600.0, 800.0, 1000.0, 1500.0, 2000.0, 2400.0]

>  <T_units>  (2) 
K

>  <yaml_path>  (2) 
/home/calvin/Dropbox/PersonalFolders/Calvin/ATLAS_Converged/rmg_rxn_1134/output/Species/rmg_rxn_1134_p1_sbr-OH-sbr/rmg_rxn_1134_p1_sbr-OH-sbr.yml

>  <frequencies_cm1>  (2) 
[3724.62536962672]

>  <ZPE_kJmol>  (2) 
22.278213462109388

>  <E_elec_kJmol>  (2) 
-198858.3932190344

>  <E0_minus_Eelec_plus_ZPE_kJmol>  (2) 
0.0

>  <rxn>  (2) 
rmg_rxn_1134

>  <species_type>  (2) 
p0

>  <species_folder>  (2) 
rmg_rxn_1134_p1_sbr-OH-sbr

>  <frequencies_cm1_list>  (2) 
[3724.62536962672]

>  <E0_kJmol>  (2) 
-198836

>  <H298_kJmol>  (2) 
-198827

$$$$

     RDKit          3D

 12 10  0  0  0  0  0  0  0  0999 V2000
   -2.0146   -0.5713   -0.0932 O   0  0  0  0  0 15  0  0  0  1  0  0
    1.0666    0.4890   -0.2353 C   0  0  0  0  0  0  0  0  0  2  0  0
    1.1437   -0.9915    0.1174 C   0  0  0  0  0  0  0  0  0  3  0  0
   -0.2806    1.0705    0.1699 C   0  0  0  0  0  0  0  0  0  4  0  0
    1.8803    1.0390    0.2849 H   0  0  0  0  0  0  0  0  0  5  0  0
    1.1998    0.6106   -1.3315 H   0  0  0  0  0  0  0  0  0  6  0  0
    2.1264   -1.3987   -0.2012 H   0  0  0  0  0  0  0  0  0  7  0  0
    1.0392   -1.1330    1.2144 H   0  0  0  0  0  0  0  0  0  8  0  0
    0.3394   -1.5535   -0.4037 H   0  0  0  0  0  0  0  0  0  9  0  0
   -0.4096    1.0204    1.2722 H   0  0  0  0  0  0  0  0  0 10  0  0
   -0.3496    2.1297   -0.1563 H   0  0  0  0  0  0  0  0  0 11  0  0
   -1.2873    0.4473   -0.2448 H   0  0  0  0  0  0  0  0  0 12  0  0
  2  5  1  0
  2  6  1  0
  2  3  1  0
  2  4  1  0
  3  8  1  0
  3  7  1  0
  3  9  1  0
  4 12  1  0
  4 10  1  0
  4 11  1  0
M  END
>  <rmg_smiles>  (3) 
CCC.[O]

>  <rmg_adjacency_list>  (3) 
multiplicity 3
1  O u2 p3 c0
2  C u0 p0 c0 {3,S} {4,S} {5,S} {6,S}
3  C u0 p0 c0 {2,S} {7,S} {8,S} {9,S}
4  C u0 p0 c0 {2,S} {10,S} {11,S} {12,S}
5  H u0 p0 c0 {2,S}
6  H u0 p0 c0 {2,S}
7  H u0 p0 c0 {3,S}
8  H u0 p0 c0 {3,S}
9  H u0 p0 c0 {3,S}
10 H u0 p0 c0 {4,S}
11 H u0 p0 c0 {4,S}
12 H u0 p0 c0 {4,S}


>  <multiplicity>  (3) 
3

>  <reaction>  (3) 
rmg_rxn_1134

>  <type>  (3) 
ts

>  <role_mapnums>  (3) 
{"*2": 12, "*1": 4, "*3": 1, "*0": 2, "*4": null}

>  <role_mapidx>  (3) 
{"*2": 11, "*1": 3, "*3": 0, "*0": 1}

>  <ordered_mapped_smiles>  (3) 
[O:1].[C:2]([C:3]([H:7])([H:8])[H:9])([C:4]([H:10])([H:11])[H:12])([H:5])[H:6]

>  <mol_properties>  (3) 
{"0": {"label": "*3", "atom_type": "Oa"}, "1": {"label": "*0", "atom_type": "Cs"}, "3": {"label": "*1", "atom_type": "Cs"}, "11": {"label": "*2", "atom_type": "H0"}}

>  <level_of_theory>  (3) 
wb97xd/def2tzvp

>  <lot_method>  (3) 
wb97xd

>  <lot_basis>  (3) 
def2tzvp

>  <spin_multiplicity>  (3) 
3.0

>  <optical_isomers>  (3) 
2.0

>  <modes>  (3) 
IdealGasTranslation(mass=(60.0575, 'amu')),         NonlinearRotor(             inertia = ([52.9735, 114.416, 154.218

>  <frequency_value>  (3) 
-1343.58

>  <frequency_units>  (3) 
cm^-1

>  <frequency_list>  (3) 
unknown

>  <arkane_path>  (3) 
/home/calvin/Dropbox/PersonalFolders/Calvin/ATLAS_Converged/rmg_rxn_1134/output/rxns/TS0/arkane/output.py

>  <path_exists>  (3) 
True

>  <E0_value>  (3) 
-509647.0

>  <E0_units>  (3) 
kJ/mol

>  <thermo_class>  (3) 
unknown

>  <Cp0_value>  (3) 
unknown

>  <Cp0_units>  (3) 
unknown

>  <CpInf_value>  (3) 
unknown

>  <CpInf_units>  (3) 
unknown

>  <Tmin_value>  (3) 
unknown

>  <Tmin_units>  (3) 
unknown

>  <Tmax_value>  (3) 
unknown

>  <Tmax_units>  (3) 
unknown

>  <polynomials>  (3) 
unknown

>  <H298_value>  (3) 
unknown

>  <H298_units>  (3) 
unknown

>  <S298_value>  (3) 
unknown

>  <S298_units>  (3) 
unknown

>  <Cp_T_value_list>  (3) 
unknown

>  <Cp_T_units>  (3) 
unknown

>  <T_list>  (3) 
unknown

>  <T_units>  (3) 
unknown

>  <yaml_path>  (3) 
unknown

>  <frequencies_cm1>  (3) 
unknown

>  <ZPE_kJmol>  (3) 
unknown

>  <E_elec_kJmol>  (3) 
unknown

>  <E0_minus_Eelec_plus_ZPE_kJmol>  (3) 
unknown

>  <rxn>  (3) 
unknown

>  <species_type>  (3) 
unknown

>  <species_folder>  (3) 
unknown

>  <frequencies_cm1_list>  (3) 
[]

>  <ts_imag_freq_cm1>  (3) 
-1359.8965

>  <ts_freq_out_path>  (3) 
/home/calvin/Dropbox/PersonalFolders/Calvin/ATLAS_Converged/rmg_rxn_1134/output/rxns/TS0/geometry/freq.out

>  <E0_kJmol>  (3) 
-509647

>  <H298_kJmol>  (3) 
unknown

$$$$

     RDKit          3D

 10  9  0  0  0  0  0  0  0  0999 V2000
    1.2870   -0.2956   -0.0394 C   0  0  0  0  0  3  0  0  0  1  0  0
    0.0720    0.5613    0.0693 C   0  0  0  0  0  0  0  0  0  2  0  0
   -1.2083   -0.2490   -0.0463 C   0  0  0  0  0  0  0  0  0  3  0  0
    2.2172    0.1336   -0.3943 H   0  0  0  0  0  0  0  0  0  4  0  0
    1.3124   -1.2810    0.4124 H   0  0  0  0  0  0  0  0  0  5  0  0
    0.0904    1.0882    1.0291 H   0  0  0  0  0  0  0  0  0  6  0  0
    0.0952    1.3176   -0.7226 H   0  0  0  0  0  0  0  0  0  7  0  0
   -1.2797   -0.9941    0.7534 H   0  0  0  0  0  0  0  0  0  8  0  0
   -2.0801    0.4089    0.0267 H   0  0  0  0  0  0  0  0  0  9  0  0
   -1.2595   -0.7737   -1.0064 H   0  0  0  0  0  0  0  0  0 10  0  0
  1  5  1  0
  1  4  1  0
  1  2  1  0
  2  7  1  0
  2  6  1  0
  2  3  1  0
  3  8  1  0
  3  9  1  0
  3 10  1  0
M  RAD  1   1   2
M  END
>  <rmg_smiles>  (4) 
[CH2]CC

>  <rmg_adjacency_list>  (4) 
multiplicity 2
1  C u0 p0 c0 {2,S} {3,S} {4,S} {5,S}
2  C u0 p0 c0 {1,S} {6,S} {7,S} {8,S}
3  C u1 p0 c0 {1,S} {9,S} {10,S}
4  H u0 p0 c0 {1,S}
5  H u0 p0 c0 {1,S}
6  H u0 p0 c0 {2,S}
7  H u0 p0 c0 {2,S}
8  H u0 p0 c0 {2,S}
9  H u0 p0 c0 {3,S}
10 H u0 p0 c0 {3,S}


>  <multiplicity>  (4) 
2

>  <reaction>  (4) 
rmg_rxn_1134

>  <type>  (4) 
r1

>  <role_mapnums>  (4) 
{}

>  <role_mapidx>  (4) 
{}

>  <ordered_mapped_smiles>  (4) 
[C:1]([C:2]([C:3]([H:8])([H:9])[H:10])([H:6])[H:7])([H:4])[H:5]

>  <level_of_theory>  (4) 
wb97xd/def2tzvp

>  <lot_method>  (4) 
wb97xd

>  <lot_basis>  (4) 
def2tzvp

>  <spin_multiplicity>  (4) 
2.0

>  <optical_isomers>  (4) 
2.0

>  <modes>  (4) 
IdealGasTranslation(mass=(43.0548, 'amu')),         NonlinearRotor(             inertia = ([15.5717, 55.3567, 63.7277

>  <frequency_value>  (4) 
unknown

>  <frequency_units>  (4) 
unknown

>  <frequency_list>  (4) 
unknown

>  <arkane_path>  (4) 
/home/calvin/Dropbox/PersonalFolders/Calvin/ATLAS_Converged/rmg_rxn_1134/output/Species/rmg_rxn_1134_p2_sbr-CH2-sbrCC/arkane/output.py

>  <path_exists>  (4) 
True

>  <E0_value>  (4) 
-310827.67646916874

>  <E0_units>  (4) 
kJ/mol

>  <thermo_class>  (4) 
NASA

>  <Cp0_value>  (4) 
33.257888

>  <Cp0_units>  (4) 
J/(mol*K)

>  <CpInf_value>  (4) 
232.805216

>  <CpInf_units>  (4) 
J/(mol*K)

>  <Tmin_value>  (4) 
10.0

>  <Tmin_units>  (4) 
K

>  <Tmax_value>  (4) 
3000.0

>  <Tmax_units>  (4) 
K

>  <polynomials>  (4) 
[{"name": "polynomial1", "class": "NASAPolynomial", "Tmin_value": 10.0, "Tmin_units": "K", "Tmax_value": 449.5475147590233, "Tmax_units": "K", "coeffs": [3.958967903427211, 0.0024484566568562143, 8.273868588255916e-05, -1.4401432260533936e-07, 8.217877668166103e-11, -37383932.168525934, 8.604351008656966]}, {"name": "polynomial2", "class": "NASAPolynomial", "Tmin_value": 449.5475147590233, "Tmin_units": "K", "Tmax_value": 3000.0, "Tmax_units": "K", "coeffs": [0.5825602079008378, 0.03249047386896289, -1.749981599537456e-05, 4.633148660872275e-09, -4.84335375079796e-13, -37383628.590271786, 22.194161250654254]}]

>  <H298_value>  (4) 
-74286.06964265722

>  <H298_units>  (4) 
kcal/mol

>  <S298_value>  (4) 
68.46722126694029

>  <S298_units>  (4) 
cal/(mol*K)

>  <Cp_T_value_list>  (4) 
[17.72041321748369, 21.98526108565582, 25.837094092198154, 29.241546962069343, 34.87317968454517, 39.19174894512068, 45.96133193168872, 49.44183138348232, 51.15132946751427]

>  <Cp_T_units>  (4) 
cal/(mol*K)

>  <T_list>  (4) 
[300.0, 400.0, 500.0, 600.0, 800.0, 1000.0, 1500.0, 2000.0, 2400.0]

>  <T_units>  (4) 
K

>  <yaml_path>  (4) 
/home/calvin/Dropbox/PersonalFolders/Calvin/ATLAS_Converged/rmg_rxn_1134/output/Species/rmg_rxn_1134_p2_sbr-CH2-sbrCC/rmg_rxn_1134_p2_sbr-CH2-sbrCC.yml

>  <frequencies_cm1>  (4) 
[200.21382398991997, 294.06491235835995, 376.30392855068, 516.5621037116799, 759.95553139376, 899.8497563328, 929.06191188408, 1051.11570896176, 1083.1639294501997, 1174.34376052916, 1262.05576402152, 1350.52313589908, 1408.63843266224, 1449.1330450942799, 1453.2601032716, 1488.9272250236797, 1491.90062966724, 2981.91283837148, 2983.8630622023597, 3022.9156077172, 3056.5638357852, 3057.4565438767995, 3100.65674852492, 3206.21604686396]

>  <ZPE_kJmol>  (4) 
230.87131336479447

>  <E_elec_kJmol>  (4) 
-311058.5477825335

>  <E0_minus_Eelec_plus_ZPE_kJmol>  (4) 
0.0

>  <rxn>  (4) 
rmg_rxn_1134

>  <species_type>  (4) 
p1

>  <species_folder>  (4) 
rmg_rxn_1134_p2_sbr-CH2-sbrCC

>  <frequencies_cm1_list>  (4) 
[200.21382398991997, 294.06491235835995, 376.30392855068, 516.5621037116799, 759.95553139376, 899.8497563328, 929.06191188408, 1051.11570896176, 1083.1639294501997, 1174.34376052916, 1262.05576402152, 1350.52313589908, 1408.63843266224, 1449.1330450942799, 1453.2601032716, 1488.9272250236797, 1491.90062966724, 2981.91283837148, 2983.8630622023597, 3022.9156077172, 3056.5638357852, 3057.4565438767995, 3100.65674852492, 3206.21604686396]

>  <E0_kJmol>  (4) 
-310828

>  <H298_kJmol>  (4) 
-310813

$$$$

     RDKit          3D

  1  0  0  0  0  0  0  0  0  0999 V2000
    0.0000    0.0000    0.0000 O   0  0  0  0  0 15  0  0  0  1  0  0
M  END
>  <rmg_smiles>  (5) 
[O]

>  <rmg_adjacency_list>  (5) 
multiplicity 3
1 O u2 p3 c0


>  <multiplicity>  (5) 
3

>  <reaction>  (5) 
rmg_rxn_1134

>  <type>  (5) 
r2

>  <role_mapnums>  (5) 
{}

>  <role_mapidx>  (5) 
{}

>  <ordered_mapped_smiles>  (5) 
[O:1]

>  <level_of_theory>  (5) 
wb97xd/def2tzvp

>  <lot_method>  (5) 
wb97xd

>  <lot_basis>  (5) 
def2tzvp

>  <spin_multiplicity>  (5) 
3.0

>  <optical_isomers>  (5) 
1.0

>  <modes>  (5) 
IdealGasTranslation(mass=(15.9994, 'amu')),

>  <frequency_value>  (5) 
unknown

>  <frequency_units>  (5) 
unknown

>  <frequency_list>  (5) 
unknown

>  <arkane_path>  (5) 
/home/calvin/Dropbox/PersonalFolders/Calvin/ATLAS_Converged/rmg_rxn_1134/output/Species/rmg_rxn_1134_r1_sbr-O-sbr/arkane/output.py

>  <path_exists>  (5) 
True

>  <E0_value>  (5) 
-197098.59938458708

>  <E0_units>  (5) 
kJ/mol

>  <thermo_class>  (5) 
NASA

>  <Cp0_value>  (5) 
20.78618

>  <Cp0_units>  (5) 
J/(mol*K)

>  <CpInf_value>  (5) 
20.78618

>  <CpInf_units>  (5) 
J/(mol*K)

>  <Tmin_value>  (5) 
10.0

>  <Tmin_units>  (5) 
K

>  <Tmax_value>  (5) 
3000.0

>  <Tmax_units>  (5) 
K

>  <polynomials>  (5) 
[{"name": "polynomial1", "class": "NASAPolynomial", "Tmin_value": 10.0, "Tmin_units": "K", "Tmax_value": 1853.5663026740365, "Tmax_units": "K", "coeffs": [2.500000000000126, -2.814048095438137e-15, 9.047587538332909e-18, -8.591944598242694e-21, 2.4182720553650057e-24, -23705485.977386568, 4.091313385047355]}, {"name": "polynomial2", "class": "NASAPolynomial", "Tmin_value": 1853.5663026740365, "Tmin_units": "K", "Tmax_value": 3000.0, "Tmax_units": "K", "coeffs": [2.500000000696122, -1.3129776766613561e-12, 9.140875080033424e-16, -2.782806647322001e-19, 3.1263265306749967e-23, -23705485.97738686, 4.091313381171202]}]

>  <H298_value>  (5) 
-47106.215373741215

>  <H298_units>  (5) 
kcal/mol

>  <S298_value>  (5) 
36.4335375885593

>  <S298_units>  (5) 
cal/(mol*K)

>  <Cp_T_value_list>  (5) 
[4.968016252389826, 4.968016252389978, 4.968016252390173, 4.96801625239036, 4.968016252390567, 4.968016252390427, 4.968016252389077, 4.968016252391019, 4.968016252390868]

>  <Cp_T_units>  (5) 
cal/(mol*K)

>  <T_list>  (5) 
[300.0, 400.0, 500.0, 600.0, 800.0, 1000.0, 1500.0, 2000.0, 2400.0]

>  <T_units>  (5) 
K

>  <yaml_path>  (5) 
/home/calvin/Dropbox/PersonalFolders/Calvin/ATLAS_Converged/rmg_rxn_1134/output/Species/rmg_rxn_1134_r1_sbr-O-sbr/rmg_rxn_1134_r1_sbr-O-sbr.yml

>  <frequencies_cm1>  (5) 
[]

>  <ZPE_kJmol>  (5) 
unknown

>  <E_elec_kJmol>  (5) 
unknown

>  <E0_minus_Eelec_plus_ZPE_kJmol>  (5) 
unknown

>  <rxn>  (5) 
rmg_rxn_1134

>  <species_type>  (5) 
r0

>  <species_folder>  (5) 
rmg_rxn_1134_r1_sbr-O-sbr

>  <frequencies_cm1_list>  (5) 
[]

>  <E0_kJmol>  (5) 
-197099

>  <H298_kJmol>  (5) 
-197092

$$$$
