
     RDKit          3D

  5  4  0  0  0  0  0  0  0  0999 V2000
   -0.2340   -1.0421    0.1953 N   0  0  0  0  0  0  0  0  0  1  0  0
    0.4466    0.0153   -0.0895 N   0  0  0  0  0  0  0  0  0  2  0  0
   -0.1120    1.0812   -0.1060 O   0  0  0  0  0  0  0  0  0  3  0  0
   -1.2440   -0.9942    0.1871 H   0  0  0  0  0  0  0  0  0  4  0  0
    0.2626   -1.9065    0.0254 H   0  0  0  0  0  0  0  0  0  5  0  0
  1  5  1  0
  1  2  1  0
  1  4  1  0
  2  3  1  0
M  END
>  <rmg_smiles>  (1) 
N[N][O]

>  <rmg_adjacency_list>  (1) 
1 O u0 p2 c0 {3,S}
2 N u0 p1 c0 {3,S} {4,S} {5,S}
3 N u0 p1 c0 {1,S} {2,S}
4 H u0 p0 c0 {2,S}
5 H u0 p0 c0 {2,S}


>  <multiplicity>  (1) 
1

>  <reaction>  (1) 
rmg_rxn_1523

>  <type>  (1) 
r1h

>  <role_mapnums>  (1) 
{"r1h_a": 1, "r1h_h": 4}

>  <role_mapidx>  (1) 
{"r1h_a": 0, "r1h_h": 3}

>  <ordered_mapped_smiles>  (1) 
[N:1]([NH:2][OH:3])([H:4])[H:5]

>  <mol_properties>  (1) 
{"0": {"label": "donator", "atom_type": "N3s"}, "3": {"label": "d_hydrogen", "atom_type": "H0"}}

>  <level_of_theory>  (1) 
wb97xd/def2tzvp

>  <lot_method>  (1) 
wb97xd

>  <lot_basis>  (1) 
def2tzvp

>  <spin_multiplicity>  (1) 
1.0

>  <optical_isomers>  (1) 
1.0

>  <modes>  (1) 
IdealGasTranslation(mass=(46.0167, 'amu')),         NonlinearRotor(             inertia = ([6.03621, 38.6456, 44.6818

>  <frequency_value>  (1) 
unknown

>  <frequency_units>  (1) 
unknown

>  <frequency_list>  (1) 
unknown

>  <arkane_path>  (1) 
/home/calvin/Dropbox/PersonalFolders/Calvin/ATLAS_Converged/rmg_rxn_1523/output/Species/rmg_rxn_1523_r1_NN=O/arkane/output.py

>  <path_exists>  (1) 
True

>  <E0_value>  (1) 
-487909.5710036975

>  <E0_units>  (1) 
kJ/mol

>  <thermo_class>  (1) 
NASA

>  <Cp0_value>  (1) 
33.257888

>  <Cp0_units>  (1) 
J/(mol*K)

>  <CpInf_value>  (1) 
108.088136

>  <CpInf_units>  (1) 
J/(mol*K)

>  <Tmin_value>  (1) 
10.0

>  <Tmin_units>  (1) 
K

>  <Tmax_value>  (1) 
3000.0

>  <Tmax_units>  (1) 
K

>  <polynomials>  (1) 
[{"name": "polynomial1", "class": "NASAPolynomial", "Tmin_value": 10.0, "Tmin_units": "K", "Tmax_value": 491.3889412835894, "Tmax_units": "K", "coeffs": [3.982254985154104, 0.001109066907410209, 3.807622400219672e-05, -7.34801373598144e-08, 4.5205197130692525e-11, -58681966.3266894, 6.4941530339393]}, {"name": "polynomial2", "class": "NASAPolynomial", "Tmin_value": 491.3889412835894, "Tmin_units": "K", "Tmax_value": 3000.0, "Tmax_units": "K", "coeffs": [2.9404368052929843, 0.012865713030583807, -7.812149749761828e-06, 2.344037732853415e-09, -2.738787635374175e-13, -58681903.491322435, 10.377638282690032]}]

>  <H298_value>  (1) 
-116610.30707517578

>  <H298_units>  (1) 
kcal/mol

>  <S298_value>  (1) 
60.89503268429048

>  <S298_units>  (1) 
cal/(mol*K)

>  <Cp_T_value_list>  (1) 
[12.16971939315822, 13.855999712949458, 15.293825753682395, 16.530196084841165, 18.5231451978899, 19.99956230160783, 22.22945931121974, 23.436130825769936, 24.119725013813046]

>  <Cp_T_units>  (1) 
cal/(mol*K)

>  <T_list>  (1) 
[300.0, 400.0, 500.0, 600.0, 800.0, 1000.0, 1500.0, 2000.0, 2400.0]

>  <T_units>  (1) 
K

>  <yaml_path>  (1) 
/home/calvin/Dropbox/PersonalFolders/Calvin/ATLAS_Converged/rmg_rxn_1523/output/Species/rmg_rxn_1523_r1_NN=O/rmg_rxn_1523_r1_NN=O.yml

>  <frequencies_cm1>  (1) 
[224.96930606852, 638.8425113049199, 713.1638934232799, 1118.09628377304, 1228.5792105865198, 1578.89846668632, 1626.84375819056, 3477.7435134020793, 3702.4793419697194]

>  <ZPE_kJmol>  (1) 
85.59053717638125

>  <E_elec_kJmol>  (1) 
-487995.1615408739

>  <E0_minus_Eelec_plus_ZPE_kJmol>  (1) 
0.0

>  <rxn>  (1) 
rmg_rxn_1523

>  <species_type>  (1) 
r0

>  <species_folder>  (1) 
rmg_rxn_1523_r1_NN=O

>  <frequencies_cm1_list>  (1) 
[224.96930606852, 638.8425113049199, 713.1638934232799, 1118.09628377304, 1228.5792105865198, 1578.89846668632, 1626.84375819056, 3477.7435134020793, 3702.4793419697194]

>  <E0_kJmol>  (1) 
-487910

>  <H298_kJmol>  (1) 
-487898

$$$$

     RDKit          3D

  9  8  0  0  0  0  0  0  0  0999 V2000
    2.0075   -0.8778    0.0934 H   0  0  0  0  0  0  0  0  0  1  0  0
    0.9260   -0.8408    0.0095 C   0  0  0  0  0  0  0  0  0  2  0  0
    0.3194    0.3227    0.0351 C   0  0  0  0  0  0  0  0  0  3  0  0
   -1.1696    0.5026   -0.0423 C   0  0  0  0  0  0  0  0  0  4  0  0
    0.5085   -1.8390   -0.0772 H   0  0  0  0  0  0  0  0  0  5  0  0
    0.9168    1.2256    0.1169 H   0  0  0  0  0  0  0  0  0  6  0  0
   -1.6892   -0.4520   -0.1234 H   0  0  0  0  0  0  0  0  0  7  0  0
   -1.4300    1.1162   -0.9077 H   0  0  0  0  0  0  0  0  0  8  0  0
   -1.5336    1.0235    0.8462 H   0  0  0  0  0  0  0  0  0  9  0  0
  1  2  1  0
  2  5  1  0
  2  3  1  0
  3  4  1  0
  3  6  1  0
  4  8  1  0
  4  9  1  0
  4  7  1  0
M  END
>  <rmg_smiles>  (2) 
[CH2][CH]C

>  <rmg_adjacency_list>  (2) 
1 C u0 p0 c0 {2,S} {4,S} {5,S} {6,S}
2 C u0 p0 c0 {1,S} {3,S} {7,S}
3 C u0 p0 c0 {2,S} {8,S} {9,S}
4 H u0 p0 c0 {1,S}
5 H u0 p0 c0 {1,S}
6 H u0 p0 c0 {1,S}
7 H u0 p0 c0 {2,S}
8 H u0 p0 c0 {3,S}
9 H u0 p0 c0 {3,S}


>  <multiplicity>  (2) 
1

>  <reaction>  (2) 
rmg_rxn_1523

>  <type>  (2) 
r2h

>  <role_mapnums>  (2) 
{"r2h_a": 2, "r2h_h": 1}

>  <role_mapidx>  (2) 
{"r2h_a": 1, "r2h_h": 0}

>  <ordered_mapped_smiles>  (2) 
[H:1][CH:2]([CH:3]([C:4]([H:7])([H:8])[H:9])[H:6])[H:5]

>  <mol_properties>  (2) 
{"0": {"label": "a_hydrogen", "atom_type": "H0"}, "1": {"label": "acceptor", "atom_type": "Cs"}}

>  <level_of_theory>  (2) 
wb97xd/def2tzvp

>  <lot_method>  (2) 
wb97xd

>  <lot_basis>  (2) 
def2tzvp

>  <spin_multiplicity>  (2) 
1.0

>  <optical_isomers>  (2) 
1.0

>  <modes>  (2) 
IdealGasTranslation(mass=(42.047, 'amu')),         NonlinearRotor(             inertia = ([10.7194, 53.9495, 61.5633

>  <frequency_value>  (2) 
unknown

>  <frequency_units>  (2) 
unknown

>  <frequency_list>  (2) 
unknown

>  <arkane_path>  (2) 
/home/calvin/Dropbox/PersonalFolders/Calvin/ATLAS_Converged/rmg_rxn_1523/output/Species/rmg_rxn_1523_p2_C=CC/arkane/output.py

>  <path_exists>  (2) 
True

>  <E0_value>  (2) 
-309367.8832800667

>  <E0_units>  (2) 
kJ/mol

>  <thermo_class>  (2) 
NASA

>  <Cp0_value>  (2) 
33.257888

>  <Cp0_units>  (2) 
J/(mol*K)

>  <CpInf_value>  (2) 
207.8618

>  <CpInf_units>  (2) 
J/(mol*K)

>  <Tmin_value>  (2) 
10.0

>  <Tmin_units>  (2) 
K

>  <Tmax_value>  (2) 
3000.0

>  <Tmax_units>  (2) 
K

>  <polynomials>  (2) 
[{"name": "polynomial1", "class": "NASAPolynomial", "Tmin_value": 10.0, "Tmin_units": "K", "Tmax_value": 531.9064937504112, "Tmax_units": "K", "coeffs": [4.020436711182031, -0.0017312814785763397, 7.469369060034455e-05, -1.103989584976731e-07, 5.3574119431735355e-11, -37208361.61961947, 6.984063158303809]}, {"name": "polynomial2", "class": "NASAPolynomial", "Tmin_value": 531.9064937504112, "Tmin_units": "K", "Tmax_value": 3000.0, "Tmax_units": "K", "coeffs": [-0.3074697795116692, 0.0308149753688916, -1.7087881827869126e-05, 4.635359536661255e-09, -4.926745963315874e-13, -37207901.20969448, 25.131571794167595]}]

>  <H298_value>  (2) 
-73937.54315081469

>  <H298_units>  (2) 
kcal/mol

>  <S298_value>  (2) 
63.23542809596166

>  <S298_units>  (2) 
cal/(mol*K)

>  <Cp_T_value_list>  (2) 
[15.25511443960514, 19.04713332195462, 22.607914347827887, 25.768633339463815, 30.960221646023633, 34.89993402409392, 40.9710958044644, 44.05842766458756, 45.61775865088926]

>  <Cp_T_units>  (2) 
cal/(mol*K)

>  <T_list>  (2) 
[300.0, 400.0, 500.0, 600.0, 800.0, 1000.0, 1500.0, 2000.0, 2400.0]

>  <T_units>  (2) 
K

>  <yaml_path>  (2) 
/home/calvin/Dropbox/PersonalFolders/Calvin/ATLAS_Converged/rmg_rxn_1523/output/Species/rmg_rxn_1523_p2_C=CC/rmg_rxn_1523_p2_C=CC.yml

>  <frequencies_cm1>  (2) 
[200.92112347787997, 429.72220735495995, 590.1693193567598, 925.5460154002399, 944.49202789812, 949.7315376972799, 1024.05291981564, 1068.7501272635197, 1186.76613697304, 1322.2792252779197, 1396.37399688072, 1440.26090006084, 1466.0326959668, 1481.02332492036, 1720.5094379553598, 3007.2932161142003, 3065.80679802592, 3091.5648599612396, 3111.3280437122, 3123.2628641983597, 3201.2855514042]

>  <ZPE_kJmol>  (2) 
207.8343042708976

>  <E_elec_kJmol>  (2) 
-309575.71758433763

>  <E0_minus_Eelec_plus_ZPE_kJmol>  (2) 
0.0

>  <rxn>  (2) 
rmg_rxn_1523

>  <species_type>  (2) 
p1

>  <species_folder>  (2) 
rmg_rxn_1523_p2_C=CC

>  <frequencies_cm1_list>  (2) 
[200.92112347787997, 429.72220735495995, 590.1693193567598, 925.5460154002399, 944.49202789812, 949.7315376972799, 1024.05291981564, 1068.7501272635197, 1186.76613697304, 1322.2792252779197, 1396.37399688072, 1440.26090006084, 1466.0326959668, 1481.02332492036, 1720.5094379553598, 3007.2932161142003, 3065.80679802592, 3091.5648599612396, 3111.3280437122, 3123.2628641983597, 3201.2855514042]

>  <E0_kJmol>  (2) 
-309368

>  <H298_kJmol>  (2) 
-309355

$$$$

     RDKit          3D

 13 11  0  0  0  0  0  0  0  0999 V2000
    1.5015   -1.0099    0.1488 N   0  0  0  0  0  0  0  0  0  1  0  0
    2.1821    0.0475   -0.1360 N   0  0  0  0  0  0  0  0  0  2  0  0
    1.6235    1.1134   -0.1525 O   0  0  0  0  0  0  0  0  0  3  0  0
    0.2964   -0.9527    0.1389 H   0  0  0  0  0  0  0  0  0  4  0  0
    1.9981   -1.8742   -0.0211 H   0  0  0  0  0  0  0  0  0  5  0  0
   -1.1029   -0.9049    0.0304 C   0  0  0  0  0  3  0  0  0  6  0  0
   -1.7094    0.2587    0.0560 C   0  0  0  0  0  0  0  0  0  7  0  0
   -3.1985    0.4385   -0.0214 C   0  0  0  0  0  0  0  0  0  8  0  0
   -1.5204   -1.9030   -0.0563 H   0  0  0  0  0  0  0  0  0  9  0  0
   -1.1121    1.1616    0.1378 H   0  0  0  0  0  0  0  0  0 10  0  0
   -3.7181   -0.5161   -0.1025 H   0  0  0  0  0  0  0  0  0 11  0  0
   -3.4588    1.0522   -0.8868 H   0  0  0  0  0  0  0  0  0 12  0  0
   -3.5624    0.9595    0.8671 H   0  0  0  0  0  0  0  0  0 13  0  0
  1  5  1  0
  1  2  1  0
  1  4  1  0
  2  3  1  0
  6  9  1  0
  6  7  1  0
  7  8  1  0
  7 10  1  0
  8 12  1  0
  8 11  1  0
  8 13  1  0
M  RAD  1   6   2
M  END
>  <rmg_smiles>  (3) 
[CH][CH]C.N[N][O]

>  <rmg_adjacency_list>  (3) 
multiplicity 2
1  O u0 p2 c0 {3,S}
2  N u0 p1 c0 {3,S} {11,S} {12,S}
3  N u0 p1 c0 {1,S} {2,S}
4  C u0 p0 c0 {5,S} {7,S} {8,S} {9,S}
5  C u0 p0 c0 {4,S} {6,S} {10,S}
6  C u1 p1 c0 {5,S} {13,S}
7  H u0 p0 c0 {4,S}
8  H u0 p0 c0 {4,S}
9  H u0 p0 c0 {4,S}
10 H u0 p0 c0 {5,S}
11 H u0 p0 c0 {2,S}
12 H u0 p0 c0 {2,S}
13 H u0 p0 c0 {6,S}


>  <multiplicity>  (3) 
2

>  <reaction>  (3) 
rmg_rxn_1523

>  <type>  (3) 
ts

>  <role_mapnums>  (3) 
{"*2": 4, "*1": 1, "*3": 6, "*0": 2, "*4": 7}

>  <role_mapidx>  (3) 
{"*2": 3, "*1": 0, "*3": 5, "*0": 1, "*4": 6}

>  <ordered_mapped_smiles>  (3) 
[N:1]([NH:2][OH:3])([H:4])[H:5].[CH:6]([CH:7]([C:8]([H:11])([H:12])[H:13])[H:10])[H:9]

>  <mol_properties>  (3) 
{"0": {"label": "*1", "atom_type": "N3s"}, "1": {"label": "*0", "atom_type": "N3s"}, "3": {"label": "*2", "atom_type": "H0"}, "5": {"label": "*3", "atom_type": "C2s"}, "6": {"label": "*4", "atom_type": "Cs"}}

>  <level_of_theory>  (3) 
wb97xd/def2tzvp

>  <lot_method>  (3) 
wb97xd

>  <lot_basis>  (3) 
def2tzvp

>  <spin_multiplicity>  (3) 
2.0

>  <optical_isomers>  (3) 
2.0

>  <modes>  (3) 
IdealGasTranslation(mass=(87.0558, 'amu')),         NonlinearRotor(             inertia = ([61.0982, 361.261, 418.332

>  <frequency_value>  (3) 
-1959.87

>  <frequency_units>  (3) 
cm^-1

>  <frequency_list>  (3) 
unknown

>  <arkane_path>  (3) 
/home/calvin/Dropbox/PersonalFolders/Calvin/ATLAS_Converged/rmg_rxn_1523/output/rxns/TS0/arkane/output.py

>  <path_exists>  (3) 
True

>  <E0_value>  (3) 
-795494.0

>  <E0_units>  (3) 
kJ/mol

>  <thermo_class>  (3) 
unknown

>  <Cp0_value>  (3) 
unknown

>  <Cp0_units>  (3) 
unknown

>  <CpInf_value>  (3) 
unknown

>  <CpInf_units>  (3) 
unknown

>  <Tmin_value>  (3) 
unknown

>  <Tmin_units>  (3) 
unknown

>  <Tmax_value>  (3) 
unknown

>  <Tmax_units>  (3) 
unknown

>  <polynomials>  (3) 
unknown

>  <H298_value>  (3) 
unknown

>  <H298_units>  (3) 
unknown

>  <S298_value>  (3) 
unknown

>  <S298_units>  (3) 
unknown

>  <Cp_T_value_list>  (3) 
unknown

>  <Cp_T_units>  (3) 
unknown

>  <T_list>  (3) 
unknown

>  <T_units>  (3) 
unknown

>  <yaml_path>  (3) 
unknown

>  <frequencies_cm1>  (3) 
unknown

>  <ZPE_kJmol>  (3) 
unknown

>  <E_elec_kJmol>  (3) 
unknown

>  <E0_minus_Eelec_plus_ZPE_kJmol>  (3) 
unknown

>  <rxn>  (3) 
unknown

>  <species_type>  (3) 
unknown

>  <species_folder>  (3) 
unknown

>  <frequencies_cm1_list>  (3) 
[]

>  <ts_imag_freq_cm1>  (3) 
-1983.6716

>  <ts_freq_out_path>  (3) 
/home/calvin/Dropbox/PersonalFolders/Calvin/ATLAS_Converged/rmg_rxn_1523/output/rxns/TS0/geometry/freq.out

>  <E0_kJmol>  (3) 
-795494

>  <H298_kJmol>  (3) 
unknown

$$$$

     RDKit          3D

  4  3  0  0  0  0  0  0  0  0999 V2000
   -0.8019    0.4189    0.0192 N   0  0  0  0  0  0  0  0  0  1  0  0
    0.3609    0.8266    0.0061 N   0  0  0  0  0  0  0  0  0  2  0  0
    0.8339    1.9183    0.0142 O   0  0  0  0  0  1  0  0  0  3  0  0
   -0.7779   -0.6002    0.0040 H   0  0  0  0  0  0  0  0  0  4  0  0
  1  2  1  0
  1  4  1  0
  2  3  1  0
M  RAD  1   3   2
M  END
>  <rmg_smiles>  (4) 
[NH][N][O]

>  <rmg_adjacency_list>  (4) 
multiplicity 2
1 O u1 p2 c0 {3,S}
2 N u0 p1 c0 {3,S} {4,S}
3 N u0 p1 c0 {1,S} {2,S}
4 H u0 p0 c0 {2,S}


>  <multiplicity>  (4) 
2

>  <reaction>  (4) 
rmg_rxn_1523

>  <type>  (4) 
r1

>  <role_mapnums>  (4) 
{}

>  <role_mapidx>  (4) 
{}

>  <ordered_mapped_smiles>  (4) 
[NH:1]([NH:2][O:3])[H:4]

>  <level_of_theory>  (4) 
wb97xd/def2tzvp

>  <lot_method>  (4) 
wb97xd

>  <lot_basis>  (4) 
def2tzvp

>  <spin_multiplicity>  (4) 
2.0

>  <optical_isomers>  (4) 
1.0

>  <modes>  (4) 
IdealGasTranslation(mass=(45.0089, 'amu')),         NonlinearRotor(             inertia = ([2.57086, 40.1656, 42.7365

>  <frequency_value>  (4) 
unknown

>  <frequency_units>  (4) 
unknown

>  <frequency_list>  (4) 
unknown

>  <arkane_path>  (4) 
/home/calvin/Dropbox/PersonalFolders/Calvin/ATLAS_Converged/rmg_rxn_1523/output/Species/rmg_rxn_1523_p1_sbr-NH-sbrN=O/arkane/output.py

>  <path_exists>  (4) 
True

>  <E0_value>  (4) 
-486262.5359899363

>  <E0_units>  (4) 
kJ/mol

>  <thermo_class>  (4) 
NASA

>  <Cp0_value>  (4) 
33.257888

>  <Cp0_units>  (4) 
J/(mol*K)

>  <CpInf_value>  (4) 
83.14472

>  <CpInf_units>  (4) 
J/(mol*K)

>  <Tmin_value>  (4) 
10.0

>  <Tmin_units>  (4) 
K

>  <Tmax_value>  (4) 
3000.0

>  <Tmax_units>  (4) 
K

>  <polynomials>  (4) 
[{"name": "polynomial1", "class": "NASAPolynomial", "Tmin_value": 10.0, "Tmin_units": "K", "Tmax_value": 676.9921071589606, "Tmax_units": "K", "coeffs": [4.052620261454503, -0.003954731767705262, 3.6687508557980155e-05, -5.192217441285821e-08, 2.3892499392073696e-11, -58483875.09093844, 6.697601255809246]}, {"name": "polynomial2", "class": "NASAPolynomial", "Tmin_value": 676.9921071589606, "Tmin_units": "K", "Tmax_value": 3000.0, "Tmax_units": "K", "coeffs": [2.568708180565944, 0.010096638421347922, -6.1528648012201994e-06, 1.7932353366274705e-09, -2.0078179070337678e-13, -58483795.25224596, 12.38349699742211]}]

>  <H298_value>  (4) 
-116217.0238123498

>  <H298_units>  (4) 
kcal/mol

>  <S298_value>  (4) 
59.269100903572784

>  <S298_units>  (4) 
cal/(mol*K)

>  <Cp_T_value_list>  (4) 
[9.855962067339554, 11.186696308389417, 12.420320683007862, 13.450531461225838, 14.991648229270968, 16.10618021062707, 17.69693128223604, 18.449026156308282, 18.8553435745084]

>  <Cp_T_units>  (4) 
cal/(mol*K)

>  <T_list>  (4) 
[300.0, 400.0, 500.0, 600.0, 800.0, 1000.0, 1500.0, 2000.0, 2400.0]

>  <T_units>  (4) 
K

>  <yaml_path>  (4) 
/home/calvin/Dropbox/PersonalFolders/Calvin/ATLAS_Converged/rmg_rxn_1523/output/Species/rmg_rxn_1523_p1_sbr-NH-sbrN=O/rmg_rxn_1523_p1_sbr-NH-sbrN=O.yml

>  <frequencies_cm1>  (4) 
[669.5654036266, 780.2955419115999, 1274.34766774432, 1377.4211173975198, 1744.5026846634398, 3450.4884486669994]

>  <ZPE_kJmol>  (4) 
55.6061572725318

>  <E_elec_kJmol>  (4) 
-486318.14214720886

>  <E0_minus_Eelec_plus_ZPE_kJmol>  (4) 
0.0

>  <rxn>  (4) 
rmg_rxn_1523

>  <species_type>  (4) 
p0

>  <species_folder>  (4) 
rmg_rxn_1523_p1_sbr-NH-sbrN=O

>  <frequencies_cm1_list>  (4) 
[669.5654036266, 780.2955419115999, 1274.34766774432, 1377.4211173975198, 1744.5026846634398, 3450.4884486669994]

>  <E0_kJmol>  (4) 
-486263

>  <H298_kJmol>  (4) 
-486252

$$$$

     RDKit          3D

  8  7  0  0  0  0  0  0  0  0999 V2000
    1.3778   -0.6812    0.2772 C   0  0  0  0  0  3  0  0  0  1  0  0
    0.4890    0.2108   -0.0590 C   0  0  0  0  0  0  0  0  0  2  0  0
   -1.0010    0.0286   -0.0323 C   0  0  0  0  0  0  0  0  0  3  0  0
    2.4535   -0.7507    0.3287 H   0  0  0  0  0  0  0  0  0  4  0  0
    0.8447    1.1899   -0.3945 H   0  0  0  0  0  0  0  0  0  5  0  0
   -1.4635    0.7638    0.6301 H   0  0  0  0  0  0  0  0  0  6  0  0
   -1.2709   -0.9687    0.3117 H   0  0  0  0  0  0  0  0  0  7  0  0
   -1.4218    0.1801   -1.0289 H   0  0  0  0  0  0  0  0  0  8  0  0
  1  4  1  0
  1  2  1  0
  2  5  1  0
  2  3  1  0
  3  6  1  0
  3  7  1  0
  3  8  1  0
M  RAD  1   1   2
M  END
>  <rmg_smiles>  (5) 
[CH][CH]C

>  <rmg_adjacency_list>  (5) 
multiplicity 2
1 C u0 p0 c0 {2,S} {4,S} {5,S} {6,S}
2 C u0 p0 c0 {1,S} {3,S} {7,S}
3 C u1 p1 c0 {2,S} {8,S}
4 H u0 p0 c0 {1,S}
5 H u0 p0 c0 {1,S}
6 H u0 p0 c0 {1,S}
7 H u0 p0 c0 {2,S}
8 H u0 p0 c0 {3,S}


>  <multiplicity>  (5) 
2

>  <reaction>  (5) 
rmg_rxn_1523

>  <type>  (5) 
r2

>  <role_mapnums>  (5) 
{}

>  <role_mapidx>  (5) 
{}

>  <ordered_mapped_smiles>  (5) 
[CH:1]([CH:2]([C:3]([H:6])([H:7])[H:8])[H:5])[H:4]

>  <level_of_theory>  (5) 
wb97xd/def2tzvp

>  <lot_method>  (5) 
wb97xd

>  <lot_basis>  (5) 
def2tzvp

>  <spin_multiplicity>  (5) 
2.0

>  <optical_isomers>  (5) 
1.0

>  <modes>  (5) 
IdealGasTranslation(mass=(41.0391, 'amu')),         NonlinearRotor(             inertia = ([8.69051, 52.7378, 58.3092

>  <frequency_value>  (5) 
unknown

>  <frequency_units>  (5) 
unknown

>  <frequency_list>  (5) 
unknown

>  <arkane_path>  (5) 
/home/calvin/Dropbox/PersonalFolders/Calvin/ATLAS_Converged/rmg_rxn_1523/output/Species/rmg_rxn_1523_r2_sbr-CH-sbr=CC/arkane/output.py

>  <path_exists>  (5) 
True

>  <E0_value>  (5) 
-307594.3811372411

>  <E0_units>  (5) 
kJ/mol

>  <thermo_class>  (5) 
NASA

>  <Cp0_value>  (5) 
33.257888

>  <Cp0_units>  (5) 
J/(mol*K)

>  <CpInf_value>  (5) 
182.918384

>  <CpInf_units>  (5) 
J/(mol*K)

>  <Tmin_value>  (5) 
10.0

>  <Tmin_units>  (5) 
K

>  <Tmax_value>  (5) 
3000.0

>  <Tmax_units>  (5) 
K

>  <polynomials>  (5) 
[{"name": "polynomial1", "class": "NASAPolynomial", "Tmin_value": 10.0, "Tmin_units": "K", "Tmax_value": 481.0435142823728, "Tmax_units": "K", "coeffs": [3.9727991601474284, 0.0015660485202043182, 6.167214282882254e-05, -1.0205402306399866e-07, 5.477574200596452e-11, -36995057.25584206, 7.404471489365289]}, {"name": "polynomial2", "class": "NASAPolynomial", "Tmin_value": 481.0435142823728, "Tmin_units": "K", "Tmax_value": 3000.0, "Tmax_units": "K", "coeffs": [1.0134350199665534, 0.02617217573414392, -1.5049764067719394e-05, 4.265493157120896e-09, -4.749676510594084e-13, -36994772.51908542, 19.516247038101728]}]

>  <H298_value>  (5) 
-73513.59504496788

>  <H298_units>  (5) 
kcal/mol

>  <S298_value>  (5) 
64.48620704915899

>  <S298_units>  (5) 
cal/(mol*K)

>  <Cp_T_value_list>  (5) 
[15.264391809977674, 18.555665777647867, 21.542477084400776, 24.16168097728455, 28.43436620324965, 31.648990357486973, 36.56707396910277, 39.11456920322472, 40.43549191091649]

>  <Cp_T_units>  (5) 
cal/(mol*K)

>  <T_list>  (5) 
[300.0, 400.0, 500.0, 600.0, 800.0, 1000.0, 1500.0, 2000.0, 2400.0]

>  <T_units>  (5) 
K

>  <yaml_path>  (5) 
/home/calvin/Dropbox/PersonalFolders/Calvin/ATLAS_Converged/rmg_rxn_1523/output/Species/rmg_rxn_1523_r2_sbr-CH-sbr=CC/rmg_rxn_1523_r2_sbr-CH-sbr=CC.yml

>  <frequencies_cm1>  (5) 
[191.17000432348, 405.3512764542799, 612.1368053954399, 794.34539387632, 826.7575645867199, 930.6344515223599, 1057.6324780304399, 1106.7863589509998, 1263.44976204148, 1394.05982282788, 1469.8576067900399, 1470.75718186696, 1689.7865456336797, 3013.59024165264, 3022.2975790384, 3075.38624254732, 3112.38555945148, 3222.5114030283203]

>  <ZPE_kJmol>  (5) 
171.41831607459883

>  <E_elec_kJmol>  (5) 
-307765.7994533157

>  <E0_minus_Eelec_plus_ZPE_kJmol>  (5) 
0.0

>  <rxn>  (5) 
rmg_rxn_1523

>  <species_type>  (5) 
r1

>  <species_folder>  (5) 
rmg_rxn_1523_r2_sbr-CH-sbr=CC

>  <frequencies_cm1_list>  (5) 
[191.17000432348, 405.3512764542799, 612.1368053954399, 794.34539387632, 826.7575645867199, 930.6344515223599, 1057.6324780304399, 1106.7863589509998, 1263.44976204148, 1394.05982282788, 1469.8576067900399, 1470.75718186696, 1689.7865456336797, 3013.59024165264, 3022.2975790384, 3075.38624254732, 3112.38555945148, 3222.5114030283203]

>  <E0_kJmol>  (5) 
-307594

>  <H298_kJmol>  (5) 
-307581

$$$$
