
     RDKit          3D

  9  8  0  0  0  0  0  0  0  0999 V2000
    1.1540   -0.7613    0.3553 O   0  0  0  0  0  0  0  0  0  1  0  0
   -0.1027   -0.7329    0.4001 N   0  0  0  0  0  0  0  0  0  2  0  0
   -0.8618    0.1902   -0.0613 C   0  0  0  0  0  0  0  0  0  3  0  0
   -0.3109    1.3950   -0.7374 C   0  0  0  0  0  0  0  0  0  4  0  0
   -0.4678   -1.5826    0.8758 H   0  0  0  0  0  0  0  0  0  5  0  0
   -1.9215    0.0278    0.0769 H   0  0  0  0  0  0  0  0  0  6  0  0
    0.2836    1.1054   -1.6075 H   0  0  0  0  0  0  0  0  0  7  0  0
   -1.1095    2.0604   -1.0580 H   0  0  0  0  0  0  0  0  0  8  0  0
    0.3575    1.9377   -0.0641 H   0  0  0  0  0  0  0  0  0  9  0  0
  1  2  1  0
  2  3  1  0
  2  5  1  0
  3  4  1  0
  3  6  1  0
  4  8  1  0
  4  9  1  0
  4  7  1  0
M  END
>  <rmg_smiles>  (1) 
C[CH]N[O]

>  <rmg_adjacency_list>  (1) 
1 O u0 p2 c0 {2,S}
2 N u0 p1 c0 {1,S} {4,S} {9,S}
3 C u0 p0 c0 {4,S} {5,S} {6,S} {7,S}
4 C u0 p0 c0 {2,S} {3,S} {8,S}
5 H u0 p0 c0 {3,S}
6 H u0 p0 c0 {3,S}
7 H u0 p0 c0 {3,S}
8 H u0 p0 c0 {4,S}
9 H u0 p0 c0 {2,S}


>  <multiplicity>  (1) 
1

>  <reaction>  (1) 
rmg_rxn_2002

>  <type>  (1) 
r1h

>  <role_mapnums>  (1) 
{"r1h_a": 2, "r1h_h": 5}

>  <role_mapidx>  (1) 
{"r1h_a": 1, "r1h_h": 4}

>  <ordered_mapped_smiles>  (1) 
[OH:1][N:2]([CH:3]([C:4]([H:7])([H:8])[H:9])[H:6])[H:5]

>  <mol_properties>  (1) 
{"1": {"label": "donator", "atom_type": "N3s"}, "4": {"label": "d_hydrogen", "atom_type": "H0"}}

>  <level_of_theory>  (1) 
wb97xd/def2tzvp

>  <lot_method>  (1) 
wb97xd

>  <lot_basis>  (1) 
def2tzvp

>  <spin_multiplicity>  (1) 
1.0

>  <optical_isomers>  (1) 
1.0

>  <modes>  (1) 
IdealGasTranslation(mass=(59.0371, 'amu')),         NonlinearRotor(             inertia = ([26.5013, 79.1041, 102.523

>  <frequency_value>  (1) 
unknown

>  <frequency_units>  (1) 
unknown

>  <frequency_list>  (1) 
unknown

>  <arkane_path>  (1) 
/home/calvin/Dropbox/PersonalFolders/Calvin/ATLAS_Converged/rmg_rxn_2002/output/Species/rmg_rxn_2002_r2_sbr-O--sbrsbr-NHp-sbr=CC/arkane/output.py

>  <path_exists>  (1) 
True

>  <E0_value>  (1) 
-548899.2374133063

>  <E0_units>  (1) 
kJ/mol

>  <thermo_class>  (1) 
NASA

>  <Cp0_value>  (1) 
33.257888

>  <Cp0_units>  (1) 
J/(mol*K)

>  <CpInf_value>  (1) 
207.8618

>  <CpInf_units>  (1) 
J/(mol*K)

>  <Tmin_value>  (1) 
10.0

>  <Tmin_units>  (1) 
K

>  <Tmax_value>  (1) 
3000.0

>  <Tmax_units>  (1) 
K

>  <polynomials>  (1) 
[{"name": "polynomial1", "class": "NASAPolynomial", "Tmin_value": 10.0, "Tmin_units": "K", "Tmax_value": 436.2874465697053, "Tmax_units": "K", "coeffs": [3.9617010239623665, 0.0023337489713970757, 7.865555695703099e-05, -1.4158961725143215e-07, 8.331596838306643e-11, -66017327.48290812, 8.889678914765318]}, {"name": "polynomial2", "class": "NASAPolynomial", "Tmin_value": 436.2874465697053, "Tmin_units": "K", "Tmax_value": 3000.0, "Tmax_units": "K", "coeffs": [0.9246596642192386, 0.030177743416151148, -1.7073468593818903e-05, 4.686431197025922e-09, -5.014091907615439e-13, -66017062.47437317, 21.022606932467212]}]

>  <H298_value>  (1) 
-131186.60847224397

>  <H298_units>  (1) 
kcal/mol

>  <S298_value>  (1) 
68.68392134489982

>  <S298_units>  (1) 
cal/(mol*K)

>  <Cp_T_value_list>  (1) 
[17.075599501796415, 20.967498706933146, 24.441904792817724, 27.48732554014393, 32.45885226806823, 36.19489275065385, 41.83922536725542, 44.6230690351806, 46.01920365154162]

>  <Cp_T_units>  (1) 
cal/(mol*K)

>  <T_list>  (1) 
[300.0, 400.0, 500.0, 600.0, 800.0, 1000.0, 1500.0, 2000.0, 2400.0]

>  <T_units>  (1) 
K

>  <yaml_path>  (1) 
/home/calvin/Dropbox/PersonalFolders/Calvin/ATLAS_Converged/rmg_rxn_2002/output/Species/rmg_rxn_2002_r2_sbr-O--sbrsbr-NHp-sbr=CC/rmg_rxn_2002_r2_sbr-O--sbrsbr-NHp-sbr=CC.yml

>  <frequencies_cm1>  (1) 
[105.73097297204, 269.88625704663997, 457.38929120923996, 723.71844986012, 740.6387016885999, 940.3443687648398, 966.17796753868, 1035.82293265412, 1117.6567967125598, 1166.6870718973598, 1383.1138482278, 1424.84451801744, 1452.31932628276, 1463.12796117644, 1539.9695269072402, 1681.5667642056399, 3011.0219891429592, 3063.3278163253995, 3123.619947435, 3195.9636377812003, 3344.2149838546798]

>  <ZPE_kJmol>  (1) 
192.64155141597303

>  <E_elec_kJmol>  (1) 
-549091.8789647223

>  <E0_minus_Eelec_plus_ZPE_kJmol>  (1) 
0.0

>  <rxn>  (1) 
rmg_rxn_2002

>  <species_type>  (1) 
r1

>  <species_folder>  (1) 
rmg_rxn_2002_r2_sbr-O--sbrsbr-NHp-sbr=CC

>  <frequencies_cm1_list>  (1) 
[105.73097297204, 269.88625704663997, 457.38929120923996, 723.71844986012, 740.6387016885999, 940.3443687648398, 966.17796753868, 1035.82293265412, 1117.6567967125598, 1166.6870718973598, 1383.1138482278, 1424.84451801744, 1452.31932628276, 1463.12796117644, 1539.9695269072402, 1681.5667642056399, 3011.0219891429592, 3063.3278163253995, 3123.619947435, 3195.9636377812003, 3344.2149838546798]

>  <E0_kJmol>  (1) 
-548899

>  <H298_kJmol>  (1) 
-548885

$$$$

     RDKit          3D

  9  8  0  0  0  0  0  0  0  0999 V2000
    1.7672   -0.6624    0.2726 C   0  0  0  0  0  0  0  0  0  1  0  0
    0.2823   -0.5504    0.2833 C   0  0  0  0  0  0  0  0  0  2  0  0
   -0.2900    0.4548   -0.2314 N   0  0  0  0  0  0  0  0  0  3  0  0
   -1.5681    0.6206   -0.2597 O   0  0  0  0  0  0  0  0  0  4  0  0
    2.1553   -0.7310    1.2916 H   0  0  0  0  0  0  0  0  0  5  0  0
    2.0813   -1.5655   -0.2559 H   0  0  0  0  0  0  0  0  0  6  0  0
    2.2052    0.2060   -0.2166 H   0  0  0  0  0  0  0  0  0  7  0  0
   -0.3259   -1.3339    0.7349 H   0  0  0  0  0  0  0  0  0  8  0  0
   -1.5951    1.4658   -0.7141 H   0  0  0  0  0  0  0  0  0  9  0  0
  1  5  1  0
  1  7  1  0
  1  6  1  0
  1  2  1  0
  2  3  1  0
  2  8  1  0
  3  4  1  0
  4  9  1  0
M  END
>  <rmg_smiles>  (2) 
C[CH][N]O

>  <rmg_adjacency_list>  (2) 
1 O u0 p2 c0 {2,S} {9,S}
2 N u0 p1 c0 {1,S} {4,S}
3 C u0 p0 c0 {4,S} {5,S} {6,S} {7,S}
4 C u0 p0 c0 {2,S} {3,S} {8,S}
5 H u0 p0 c0 {3,S}
6 H u0 p0 c0 {3,S}
7 H u0 p0 c0 {3,S}
8 H u0 p0 c0 {4,S}
9 H u0 p0 c0 {1,S}


>  <multiplicity>  (2) 
1

>  <reaction>  (2) 
rmg_rxn_2002

>  <type>  (2) 
r2h

>  <role_mapnums>  (2) 
{"r2h_a": 4, "r2h_h": 9}

>  <role_mapidx>  (2) 
{"r2h_a": 3, "r2h_h": 8}

>  <ordered_mapped_smiles>  (2) 
[C:1]([CH:2]([NH:3][O:4][H:9])[H:8])([H:5])([H:6])[H:7]

>  <mol_properties>  (2) 
{"3": {"label": "acceptor", "atom_type": "O2s"}, "8": {"label": "a_hydrogen", "atom_type": "H0"}}

>  <level_of_theory>  (2) 
wb97xd/def2tzvp

>  <lot_method>  (2) 
wb97xd

>  <lot_basis>  (2) 
def2tzvp

>  <spin_multiplicity>  (2) 
1.0

>  <optical_isomers>  (2) 
1.0

>  <modes>  (2) 
IdealGasTranslation(mass=(59.0371, 'amu')),         NonlinearRotor(             inertia = ([10.7603, 118.091, 125.733

>  <frequency_value>  (2) 
unknown

>  <frequency_units>  (2) 
unknown

>  <frequency_list>  (2) 
unknown

>  <arkane_path>  (2) 
/home/calvin/Dropbox/PersonalFolders/Calvin/ATLAS_Converged/rmg_rxn_2002/output/Species/rmg_rxn_2002_p2_CC=NO/arkane/output.py

>  <path_exists>  (2) 
True

>  <E0_value>  (2) 
-548937.8541984448

>  <E0_units>  (2) 
kJ/mol

>  <thermo_class>  (2) 
NASA

>  <Cp0_value>  (2) 
33.257888

>  <Cp0_units>  (2) 
J/(mol*K)

>  <CpInf_value>  (2) 
207.8618

>  <CpInf_units>  (2) 
J/(mol*K)

>  <Tmin_value>  (2) 
10.0

>  <Tmin_units>  (2) 
K

>  <Tmax_value>  (2) 
3000.0

>  <Tmax_units>  (2) 
K

>  <polynomials>  (2) 
[{"name": "polynomial1", "class": "NASAPolynomial", "Tmin_value": 10.0, "Tmin_units": "K", "Tmax_value": 335.1910179037978, "Tmax_units": "K", "coeffs": [3.936344167606981, 0.004744355844830638, 9.160790844518127e-05, -2.1061910314248552e-07, 1.6006484261890122e-10, -66021973.16953679, 8.120493921530757]}, {"name": "polynomial2", "class": "NASAPolynomial", "Tmin_value": 335.1910179037978, "Tmin_units": "K", "Tmax_value": 3000.0, "Tmax_units": "K", "coeffs": [1.9092598311329627, 0.02893435817357441, -1.6642930351421066e-05, 4.680937669481693e-09, -5.139624250773394e-13, -66021837.27634088, 15.684306465260459]}]

>  <H298_value>  (2) 
-131195.6144386416

>  <H298_units>  (2) 
kcal/mol

>  <S298_value>  (2) 
68.52934918863554

>  <S298_units>  (2) 
cal/(mol*K)

>  <Cp_T_value_list>  (2) 
[18.310462740749653, 22.071021910178956, 25.374045411772553, 28.263825064535727, 32.970522087113224, 36.50033911765962, 41.85143067881395, 44.573751899405494, 45.995252148342956]

>  <Cp_T_units>  (2) 
cal/(mol*K)

>  <T_list>  (2) 
[300.0, 400.0, 500.0, 600.0, 800.0, 1000.0, 1500.0, 2000.0, 2400.0]

>  <T_units>  (2) 
K

>  <yaml_path>  (2) 
/home/calvin/Dropbox/PersonalFolders/Calvin/ATLAS_Converged/rmg_rxn_2002/output/Species/rmg_rxn_2002_p2_CC=NO/rmg_rxn_2002_p2_CC=NO.yml

>  <frequencies_cm1>  (2) 
[197.06187772804, 291.09837470012, 328.62644947392, 407.23283043195994, 570.83188869564, 914.3734302846, 916.92108183832, 1038.1439736922798, 1079.0094033316, 1148.38655601956, 1286.64643845244, 1390.76366987428, 1438.44801593636, 1464.57689507896, 1470.4000986303201, 1752.33104792824, 3016.9275965181596, 3076.79397453792, 3080.3236049924, 3121.5941867655997, 3848.4577159022797]

>  <ZPE_kJmol>  (2) 
190.43926148497908

>  <E_elec_kJmol>  (2) 
-549128.2934599298

>  <E0_minus_Eelec_plus_ZPE_kJmol>  (2) 
0.0

>  <rxn>  (2) 
rmg_rxn_2002

>  <species_type>  (2) 
p1

>  <species_folder>  (2) 
rmg_rxn_2002_p2_CC=NO

>  <frequencies_cm1_list>  (2) 
[197.06187772804, 291.09837470012, 328.62644947392, 407.23283043195994, 570.83188869564, 914.3734302846, 916.92108183832, 1038.1439736922798, 1079.0094033316, 1148.38655601956, 1286.64643845244, 1390.76366987428, 1438.44801593636, 1464.57689507896, 1470.4000986303201, 1752.33104792824, 3016.9275965181596, 3076.79397453792, 3080.3236049924, 3121.5941867655997, 3848.4577159022797]

>  <E0_kJmol>  (2) 
-548938

>  <H298_kJmol>  (2) 
-548922

$$$$

     RDKit          3D

 17 15  0  0  0  0  0  0  0  0999 V2000
    2.4035   -2.3100    1.6106 C   0  0  0  0  0  0  0  0  0  1  0  0
    0.9186   -2.1980    1.6213 C   0  0  0  0  0  0  0  0  0  2  0  0
    0.3463   -1.1928    1.1066 N   0  0  0  0  0  0  0  0  0  3  0  0
   -0.9319   -1.0269    1.0783 O   0  0  0  0  0  0  0  0  0  4  0  0
    2.7916   -2.3785    2.6296 H   0  0  0  0  0  0  0  0  0  5  0  0
    2.7176   -3.2131    1.0820 H   0  0  0  0  0  0  0  0  0  6  0  0
    2.8415   -1.4416    1.1214 H   0  0  0  0  0  0  0  0  0  7  0  0
    0.3104   -2.9815    2.0728 H   0  0  0  0  0  0  0  0  0  8  0  0
    0.7233    1.0266   -0.1083 O   0  0  0  0  0  0  0  0  0  9  0  0
   -0.5334    1.0550   -0.0635 N   0  0  0  0  0  0  0  0  0 10  0  0
   -1.2925    1.9781   -0.5249 C   0  0  0  0  0  0  0  0  0 11  0  0
   -0.7416    3.1829   -1.2010 C   0  0  0  0  0  0  0  0  0 12  0  0
   -0.9662    0.0477    0.5004 H   0  0  0  0  0  0  0  0  0 13  0  0
   -2.3522    1.8158   -0.3867 H   0  0  0  0  0  0  0  0  0 14  0  0
   -0.1471    2.8933   -2.0711 H   0  0  0  0  0  0  0  0  0 15  0  0
   -1.5402    3.8483   -1.5216 H   0  0  0  0  0  0  0  0  0 16  0  0
   -0.0732    3.7256   -0.5277 H   0  0  0  0  0  0  0  0  0 17  0  0
  1  5  1  0
  1  7  1  0
  1  6  1  0
  1  2  1  0
  2  3  1  0
  2  8  1  0
  3  4  1  0
  4 13  1  0
  9 10  1  0
 10 11  1  0
 11 14  1  0
 11 12  1  0
 12 15  1  0
 12 17  1  0
 12 16  1  0
M  END
>  <rmg_smiles>  (3) 
C[CH][N][O].C[CH][N]O

>  <rmg_adjacency_list>  (3) 
multiplicity -187
1  O u0 p2 c0 {3,S} {17,S}
2  O u0 p2 c0 {4,S}
3  N u0 p1 c0 {1,S} {7,S}
4  N u0 p1 c0 {2,S} {8,S}
5  C u0 p0 c0 {7,S} {9,S} {10,S} {11,S}
6  C u0 p0 c0 {8,S} {12,S} {13,S} {14,S}
7  C u0 p0 c0 {3,S} {5,S} {15,S}
8  C u0 p0 c0 {4,S} {6,S} {16,S}
9  H u0 p0 c0 {5,S}
10 H u0 p0 c0 {5,S}
11 H u0 p0 c0 {5,S}
12 H u0 p0 c0 {6,S}
13 H u0 p0 c0 {6,S}
14 H u0 p0 c0 {6,S}
15 H u0 p0 c0 {7,S}
16 H u0 p0 c0 {8,S}
17 H u0 p0 c0 {1,S}


>  <multiplicity>  (3) 
-187

>  <reaction>  (3) 
rmg_rxn_2002

>  <type>  (3) 
ts

>  <role_mapnums>  (3) 
{"*2": 13, "*1": 10, "*3": 4, "*0": 3, "*4": 11}

>  <role_mapidx>  (3) 
{"*2": 12, "*1": 9, "*3": 3, "*0": 2, "*4": 10}

>  <ordered_mapped_smiles>  (3) 
[C:1]([CH:2]([NH:3][O:4][H:13])[H:8])([H:5])([H:6])[H:7].[OH:9][NH:10][CH:11]([C:12]([H:15])([H:16])[H:17])[H:14]

>  <mol_properties>  (3) 
{"2": {"label": "*0", "atom_type": "N3s"}, "3": {"label": "*3", "atom_type": "O2s"}, "9": {"label": "*1", "atom_type": "N3s"}, "10": {"label": "*4", "atom_type": "Cs"}, "12": {"label": "*2", "atom_type": "H0"}}

>  <level_of_theory>  (3) 
wb97xd/def2tzvp

>  <lot_method>  (3) 
wb97xd

>  <lot_basis>  (3) 
def2tzvp

>  <spin_multiplicity>  (3) 
2.0

>  <optical_isomers>  (3) 
1.0

>  <modes>  (3) 
IdealGasTranslation(mass=(117.066, 'amu')),         NonlinearRotor(             inertia = ([90.3692, 622.817, 706.962

>  <frequency_value>  (3) 
-1659.35

>  <frequency_units>  (3) 
cm^-1

>  <frequency_list>  (3) 
unknown

>  <arkane_path>  (3) 
/home/calvin/Dropbox/PersonalFolders/Calvin/ATLAS_Converged/rmg_rxn_2002/output/rxns/TS0/arkane/output.py

>  <path_exists>  (3) 
True

>  <E0_value>  (3) 
-1096170.0

>  <E0_units>  (3) 
kJ/mol

>  <thermo_class>  (3) 
unknown

>  <Cp0_value>  (3) 
unknown

>  <Cp0_units>  (3) 
unknown

>  <CpInf_value>  (3) 
unknown

>  <CpInf_units>  (3) 
unknown

>  <Tmin_value>  (3) 
unknown

>  <Tmin_units>  (3) 
unknown

>  <Tmax_value>  (3) 
unknown

>  <Tmax_units>  (3) 
unknown

>  <polynomials>  (3) 
unknown

>  <H298_value>  (3) 
unknown

>  <H298_units>  (3) 
unknown

>  <S298_value>  (3) 
unknown

>  <S298_units>  (3) 
unknown

>  <Cp_T_value_list>  (3) 
unknown

>  <Cp_T_units>  (3) 
unknown

>  <T_list>  (3) 
unknown

>  <T_units>  (3) 
unknown

>  <yaml_path>  (3) 
unknown

>  <frequencies_cm1>  (3) 
unknown

>  <ZPE_kJmol>  (3) 
unknown

>  <E_elec_kJmol>  (3) 
unknown

>  <E0_minus_Eelec_plus_ZPE_kJmol>  (3) 
unknown

>  <rxn>  (3) 
unknown

>  <species_type>  (3) 
unknown

>  <species_folder>  (3) 
unknown

>  <frequencies_cm1_list>  (3) 
[]

>  <ts_imag_freq_cm1>  (3) 
-1679.508

>  <ts_freq_out_path>  (3) 
/home/calvin/Dropbox/PersonalFolders/Calvin/ATLAS_Converged/rmg_rxn_2002/output/rxns/TS0/geometry/freq.out

>  <E0_kJmol>  (3) 
-1.09617e+06

>  <H298_kJmol>  (3) 
unknown

$$$$

     RDKit          3D

  8  7  0  0  0  0  0  0  0  0999 V2000
   -0.9728    0.1768    0.1542 C   0  0  0  0  0  0  0  0  0  1  0  0
    0.4518   -0.2348    0.0047 C   0  0  0  0  0  0  0  0  0  2  0  0
    1.3116    0.0208    0.9062 N   0  0  0  0  0  0  0  0  0  3  0  0
    2.5018   -0.1901    1.0428 O   0  0  0  0  0  1  0  0  0  4  0  0
   -1.2701    0.8423   -0.6593 H   0  0  0  0  0  0  0  0  0  5  0  0
   -1.6318   -0.6936    0.1212 H   0  0  0  0  0  0  0  0  0  6  0  0
   -1.1258    0.6936    1.1003 H   0  0  0  0  0  0  0  0  0  7  0  0
    0.7882   -0.7655   -0.8838 H   0  0  0  0  0  0  0  0  0  8  0  0
  1  5  1  0
  1  7  1  0
  1  6  1  0
  1  2  1  0
  2  3  1  0
  2  8  1  0
  3  4  1  0
M  RAD  1   4   2
M  END
>  <rmg_smiles>  (4) 
C[CH][N][O]

>  <rmg_adjacency_list>  (4) 
multiplicity 2
1 O u1 p2 c0 {2,S}
2 N u0 p1 c0 {1,S} {4,S}
3 C u0 p0 c0 {4,S} {5,S} {6,S} {7,S}
4 C u0 p0 c0 {2,S} {3,S} {8,S}
5 H u0 p0 c0 {3,S}
6 H u0 p0 c0 {3,S}
7 H u0 p0 c0 {3,S}
8 H u0 p0 c0 {4,S}


>  <multiplicity>  (4) 
2

>  <reaction>  (4) 
rmg_rxn_2002

>  <type>  (4) 
r1

>  <role_mapnums>  (4) 
{}

>  <role_mapidx>  (4) 
{}

>  <ordered_mapped_smiles>  (4) 
[C:1]([CH:2]([NH:3][O:4])[H:8])([H:5])([H:6])[H:7]

>  <level_of_theory>  (4) 
wb97xd/def2tzvp

>  <lot_method>  (4) 
wb97xd

>  <lot_basis>  (4) 
def2tzvp

>  <spin_multiplicity>  (4) 
2.0

>  <optical_isomers>  (4) 
1.0

>  <modes>  (4) 
IdealGasTranslation(mass=(58.0293, 'amu')),         NonlinearRotor(             inertia = ([9.31113, 114.15, 120.338

>  <frequency_value>  (4) 
unknown

>  <frequency_units>  (4) 
unknown

>  <frequency_list>  (4) 
unknown

>  <arkane_path>  (4) 
/home/calvin/Dropbox/PersonalFolders/Calvin/ATLAS_Converged/rmg_rxn_2002/output/Species/rmg_rxn_2002_p1_CC=Nsbr-O-sbr/arkane/output.py

>  <path_exists>  (4) 
True

>  <E0_value>  (4) 
-547291.9822369756

>  <E0_units>  (4) 
kJ/mol

>  <thermo_class>  (4) 
NASA

>  <Cp0_value>  (4) 
33.257888

>  <Cp0_units>  (4) 
J/(mol*K)

>  <CpInf_value>  (4) 
182.918384

>  <CpInf_units>  (4) 
J/(mol*K)

>  <Tmin_value>  (4) 
10.0

>  <Tmin_units>  (4) 
K

>  <Tmax_value>  (4) 
3000.0

>  <Tmax_units>  (4) 
K

>  <polynomials>  (4) 
[{"name": "polynomial1", "class": "NASAPolynomial", "Tmin_value": 10.0, "Tmin_units": "K", "Tmax_value": 448.469821583942, "Tmax_units": "K", "coeffs": [3.8887722230996813, 0.008399169692485739, 4.23423230637367e-05, -8.042531461118158e-08, 4.6620175661053446e-11, -65824018.56271867, 8.787674089328345]}, {"name": "polynomial2", "class": "NASAPolynomial", "Tmin_value": 448.469821583942, "Tmin_units": "K", "Tmax_value": 3000.0, "Tmax_units": "K", "coeffs": [1.9857514593635577, 0.025372613622198854, -1.4428825534244759e-05, 3.966995228918133e-09, -4.24376034853994e-13, -65823847.87311471, 16.442591867910245]}]

>  <H298_value>  (4) 
-130802.40292482237

>  <H298_units>  (4) 
kcal/mol

>  <S298_value>  (4) 
68.97171532665904

>  <S298_units>  (4) 
cal/(mol*K)

>  <Cp_T_value_list>  (4) 
[16.743153000165332, 20.010112573021154, 22.92084276433073, 25.469656650185197, 29.622633813984088, 32.733580935653485, 37.39926541997259, 39.66786469099458, 40.797255640626396]

>  <Cp_T_units>  (4) 
cal/(mol*K)

>  <T_list>  (4) 
[300.0, 400.0, 500.0, 600.0, 800.0, 1000.0, 1500.0, 2000.0, 2400.0]

>  <T_units>  (4) 
K

>  <yaml_path>  (4) 
/home/calvin/Dropbox/PersonalFolders/Calvin/ATLAS_Converged/rmg_rxn_2002/output/Species/rmg_rxn_2002_p1_CC=Nsbr-O-sbr/rmg_rxn_2002_p1_CC=Nsbr-O-sbr.yml

>  <frequencies_cm1>  (4) 
[167.29349636583999, 305.41603909232, 336.48228068, 536.4488931984, 789.99859216876, 920.0661611148798, 1055.0848264767199, 1131.0542850718798, 1256.94672694344, 1389.69928714968, 1433.0368315041999, 1463.78719176716, 1488.27486141828, 1754.1988679352798, 3017.2297438722394, 3076.07294107932, 3099.7159715360795, 3119.71263278792]

>  <ZPE_kJmol>  (4) 
157.55134027947926

>  <E_elec_kJmol>  (4) 
-547449.5335772551

>  <E0_minus_Eelec_plus_ZPE_kJmol>  (4) 
0.0

>  <rxn>  (4) 
rmg_rxn_2002

>  <species_type>  (4) 
p0

>  <species_folder>  (4) 
rmg_rxn_2002_p1_CC=Nsbr-O-sbr

>  <frequencies_cm1_list>  (4) 
[167.29349636583999, 305.41603909232, 336.48228068, 536.4488931984, 789.99859216876, 920.0661611148798, 1055.0848264767199, 1131.0542850718798, 1256.94672694344, 1389.69928714968, 1433.0368315041999, 1463.78719176716, 1488.27486141828, 1754.1988679352798, 3017.2297438722394, 3076.07294107932, 3099.7159715360795, 3119.71263278792]

>  <E0_kJmol>  (4) 
-547292

>  <H298_kJmol>  (4) 
-547277

$$$$

     RDKit          3D

  8  7  0  0  0  0  0  0  0  0999 V2000
   -0.9728    0.1768    0.1542 C   0  0  0  0  0  0  0  0  0  1  0  0
    0.4518   -0.2348    0.0047 C   0  0  0  0  0  0  0  0  0  2  0  0
    1.3116    0.0208    0.9062 N   0  0  0  0  0  0  0  0  0  3  0  0
    2.5018   -0.1901    1.0428 O   0  0  0  0  0  1  0  0  0  4  0  0
   -1.2701    0.8423   -0.6593 H   0  0  0  0  0  0  0  0  0  5  0  0
   -1.6318   -0.6936    0.1212 H   0  0  0  0  0  0  0  0  0  6  0  0
   -1.1258    0.6936    1.1003 H   0  0  0  0  0  0  0  0  0  7  0  0
    0.7882   -0.7655   -0.8838 H   0  0  0  0  0  0  0  0  0  8  0  0
  1  5  1  0
  1  7  1  0
  1  6  1  0
  1  2  1  0
  2  3  1  0
  2  8  1  0
  3  4  1  0
M  RAD  1   4   2
M  END
>  <rmg_smiles>  (5) 
C[CH][N][O]

>  <rmg_adjacency_list>  (5) 
multiplicity 2
1 O u1 p2 c0 {2,S}
2 N u0 p1 c0 {1,S} {4,S}
3 C u0 p0 c0 {4,S} {5,S} {6,S} {7,S}
4 C u0 p0 c0 {2,S} {3,S} {8,S}
5 H u0 p0 c0 {3,S}
6 H u0 p0 c0 {3,S}
7 H u0 p0 c0 {3,S}
8 H u0 p0 c0 {4,S}


>  <multiplicity>  (5) 
2

>  <reaction>  (5) 
rmg_rxn_2002

>  <type>  (5) 
r2

>  <role_mapnums>  (5) 
{}

>  <role_mapidx>  (5) 
{}

>  <ordered_mapped_smiles>  (5) 
[C:1]([CH:2]([NH:3][O:4])[H:8])([H:5])([H:6])[H:7]

>  <level_of_theory>  (5) 
wb97xd/def2tzvp

>  <lot_method>  (5) 
wb97xd

>  <lot_basis>  (5) 
def2tzvp

>  <spin_multiplicity>  (5) 
2.0

>  <optical_isomers>  (5) 
1.0

>  <modes>  (5) 
IdealGasTranslation(mass=(58.0293, 'amu')),         NonlinearRotor(             inertia = ([9.31113, 114.15, 120.338

>  <frequency_value>  (5) 
unknown

>  <frequency_units>  (5) 
unknown

>  <frequency_list>  (5) 
unknown

>  <arkane_path>  (5) 
/home/calvin/Dropbox/PersonalFolders/Calvin/ATLAS_Converged/rmg_rxn_2002/output/Species/rmg_rxn_2002_r1_CC=Nsbr-O-sbr/arkane/output.py

>  <path_exists>  (5) 
True

>  <E0_value>  (5) 
-547291.9822369756

>  <E0_units>  (5) 
kJ/mol

>  <thermo_class>  (5) 
NASA

>  <Cp0_value>  (5) 
33.257888

>  <Cp0_units>  (5) 
J/(mol*K)

>  <CpInf_value>  (5) 
182.918384

>  <CpInf_units>  (5) 
J/(mol*K)

>  <Tmin_value>  (5) 
10.0

>  <Tmin_units>  (5) 
K

>  <Tmax_value>  (5) 
3000.0

>  <Tmax_units>  (5) 
K

>  <polynomials>  (5) 
[{"name": "polynomial1", "class": "NASAPolynomial", "Tmin_value": 10.0, "Tmin_units": "K", "Tmax_value": 448.469821583942, "Tmax_units": "K", "coeffs": [3.8887722230996813, 0.008399169692485739, 4.23423230637367e-05, -8.042531461118158e-08, 4.6620175661053446e-11, -65824018.56271867, 8.787674089328345]}, {"name": "polynomial2", "class": "NASAPolynomial", "Tmin_value": 448.469821583942, "Tmin_units": "K", "Tmax_value": 3000.0, "Tmax_units": "K", "coeffs": [1.9857514593635577, 0.025372613622198854, -1.4428825534244759e-05, 3.966995228918133e-09, -4.24376034853994e-13, -65823847.87311471, 16.442591867910245]}]

>  <H298_value>  (5) 
-130802.40292482237

>  <H298_units>  (5) 
kcal/mol

>  <S298_value>  (5) 
68.97171532665904

>  <S298_units>  (5) 
cal/(mol*K)

>  <Cp_T_value_list>  (5) 
[16.743153000165332, 20.010112573021154, 22.92084276433073, 25.469656650185197, 29.622633813984088, 32.733580935653485, 37.39926541997259, 39.66786469099458, 40.797255640626396]

>  <Cp_T_units>  (5) 
cal/(mol*K)

>  <T_list>  (5) 
[300.0, 400.0, 500.0, 600.0, 800.0, 1000.0, 1500.0, 2000.0, 2400.0]

>  <T_units>  (5) 
K

>  <yaml_path>  (5) 
/home/calvin/Dropbox/PersonalFolders/Calvin/ATLAS_Converged/rmg_rxn_2002/output/Species/rmg_rxn_2002_r1_CC=Nsbr-O-sbr/rmg_rxn_2002_r1_CC=Nsbr-O-sbr.yml

>  <frequencies_cm1>  (5) 
[167.29349636583999, 305.41603909232, 336.48228068, 536.4488931984, 789.99859216876, 920.0661611148798, 1055.0848264767199, 1131.0542850718798, 1256.94672694344, 1389.69928714968, 1433.0368315041999, 1463.78719176716, 1488.27486141828, 1754.1988679352798, 3017.2297438722394, 3076.07294107932, 3099.7159715360795, 3119.71263278792]

>  <ZPE_kJmol>  (5) 
157.55134027947926

>  <E_elec_kJmol>  (5) 
-547449.5335772551

>  <E0_minus_Eelec_plus_ZPE_kJmol>  (5) 
0.0

>  <rxn>  (5) 
rmg_rxn_2002

>  <species_type>  (5) 
r0

>  <species_folder>  (5) 
rmg_rxn_2002_r1_CC=Nsbr-O-sbr

>  <frequencies_cm1_list>  (5) 
[167.29349636583999, 305.41603909232, 336.48228068, 536.4488931984, 789.99859216876, 920.0661611148798, 1055.0848264767199, 1131.0542850718798, 1256.94672694344, 1389.69928714968, 1433.0368315041999, 1463.78719176716, 1488.27486141828, 1754.1988679352798, 3017.2297438722394, 3076.07294107932, 3099.7159715360795, 3119.71263278792]

>  <E0_kJmol>  (5) 
-547292

>  <H298_kJmol>  (5) 
-547277

$$$$
