
     RDKit          3D

  9  8  0  0  0  0  0  0  0  0999 V2000
   -0.6746    1.0811   -0.0848 C   0  0  0  0  0  0  0  0  0  1  0  0
   -0.3078   -0.3089    0.3920 C   0  0  0  0  0  0  0  0  0  2  0  0
    0.8503   -0.7663   -0.2911 O   0  0  0  0  0  0  0  0  0  3  0  0
   -0.8497    1.0839   -1.1656 H   0  0  0  0  0  0  0  0  0  4  0  0
   -1.5751    1.4416    0.4203 H   0  0  0  0  0  0  0  0  0  5  0  0
    0.1424    1.7844    0.1072 H   0  0  0  0  0  0  0  0  0  6  0  0
   -1.1224   -1.0104    0.1900 H   0  0  0  0  0  0  0  0  0  7  0  0
   -0.1063   -0.3145    1.4675 H   0  0  0  0  0  0  0  0  0  8  0  0
    1.5612   -0.1502   -0.1001 H   0  0  0  0  0  0  0  0  0  9  0  0
  1  5  1  0
  1  4  1  0
  1  6  1  0
  1  2  1  0
  2  7  1  0
  2  8  1  0
  2  3  1  0
  3  9  1  0
M  END
>  <rmg_smiles>  (1) 
CCO

>  <rmg_adjacency_list>  (1) 
1 O u0 p2 c0 {2,S} {9,S}
2 C u0 p0 c0 {1,S} {3,S} {4,S} {5,S}
3 C u0 p0 c0 {2,S} {6,S} {7,S} {8,S}
4 H u0 p0 c0 {2,S}
5 H u0 p0 c0 {2,S}
6 H u0 p0 c0 {3,S}
7 H u0 p0 c0 {3,S}
8 H u0 p0 c0 {3,S}
9 H u0 p0 c0 {1,S}


>  <multiplicity>  (1) 
1

>  <reaction>  (1) 
rmg_rxn_1153

>  <type>  (1) 
r1h

>  <role_mapnums>  (1) 
{"r1h_a": 3, "r1h_h": 9}

>  <role_mapidx>  (1) 
{"r1h_a": 2, "r1h_h": 8}

>  <ordered_mapped_smiles>  (1) 
[C:1]([C:2]([O:3][H:9])([H:7])[H:8])([H:4])([H:5])[H:6]

>  <mol_properties>  (1) 
{"2": {"label": "donator", "atom_type": "O2s"}, "8": {"label": "d_hydrogen", "atom_type": "H0"}}

>  <level_of_theory>  (1) 
wb97xd/def2tzvp

>  <lot_method>  (1) 
wb97xd

>  <lot_basis>  (1) 
def2tzvp

>  <spin_multiplicity>  (1) 
1.0

>  <optical_isomers>  (1) 
2.0

>  <modes>  (1) 
IdealGasTranslation(mass=(46.0419, 'amu')),         NonlinearRotor(             inertia = ([15.1748, 52.9695, 60.7286

>  <frequency_value>  (1) 
unknown

>  <frequency_units>  (1) 
unknown

>  <frequency_list>  (1) 
unknown

>  <arkane_path>  (1) 
/home/calvin/Dropbox/PersonalFolders/Calvin/ATLAS_Converged/rmg_rxn_1153/output/Species/rmg_rxn_1153_r2_CCO/arkane/output.py

>  <path_exists>  (1) 
True

>  <E0_value>  (1) 
-406892.66655824624

>  <E0_units>  (1) 
kJ/mol

>  <thermo_class>  (1) 
NASA

>  <Cp0_value>  (1) 
33.257888

>  <Cp0_units>  (1) 
J/(mol*K)

>  <CpInf_value>  (1) 
207.8618

>  <CpInf_units>  (1) 
J/(mol*K)

>  <Tmin_value>  (1) 
10.0

>  <Tmin_units>  (1) 
K

>  <Tmax_value>  (1) 
3000.0

>  <Tmax_units>  (1) 
K

>  <polynomials>  (1) 
[{"name": "polynomial1", "class": "NASAPolynomial", "Tmin_value": 10.0, "Tmin_units": "K", "Tmax_value": 572.6197001810335, "Tmax_units": "K", "coeffs": [4.049824970642936, -0.003974693788225865, 8.462545348965952e-05, -1.2582814469386139e-07, 6.165274134787529e-11, -48937884.19370053, 7.8491448316511425]}, {"name": "polynomial2", "class": "NASAPolynomial", "Tmin_value": 572.6197001810335, "Tmin_units": "K", "Tmax_value": 3000.0, "Tmax_units": "K", "coeffs": [-0.424809658803518, 0.031141145346632045, -1.7469508215061047e-05, 4.802581619866999e-09, -5.169809658960232e-13, -48937435.0005803, 26.389541020723986]}]

>  <H298_value>  (1) 
-97246.58601384833

>  <H298_units>  (1) 
kcal/mol

>  <S298_value>  (1) 
64.5962393131653

>  <S298_units>  (1) 
cal/(mol*K)

>  <Cp_T_value_list>  (1) 
[15.05454973506158, 18.92879557701068, 22.542114805167, 25.716859600124174, 30.91057533104244, 34.84055515099889, 40.8808353968457, 43.97371162073534, 45.5632121146154]

>  <Cp_T_units>  (1) 
cal/(mol*K)

>  <T_list>  (1) 
[300.0, 400.0, 500.0, 600.0, 800.0, 1000.0, 1500.0, 2000.0, 2400.0]

>  <T_units>  (1) 
K

>  <yaml_path>  (1) 
/home/calvin/Dropbox/PersonalFolders/Calvin/ATLAS_Converged/rmg_rxn_1153/output/Species/rmg_rxn_1153_r2_CCO/rmg_rxn_1153_r2_CCO.yml

>  <frequencies_cm1>  (1) 
[300.61601635363996, 438.80722893331995, 519.8857246065601, 815.3652359408399, 905.02059627876, 1069.79390903216, 1082.6077036392799, 1147.3839761628399, 1278.72880437848, 1370.0047732519197, 1403.41265683372, 1418.8427728477598, 1476.07909548996, 1485.5280672902798, 1506.6989830318398, 2989.0339021483196, 2998.4554060073597, 3042.4384469819593, 3067.69521898892, 3075.2214348996404, 3657.3838493732796]

>  <ZPE_kJmol>  (1) 
209.63965791383288

>  <E_elec_kJmol>  (1) 
-407102.30621616007

>  <E0_minus_Eelec_plus_ZPE_kJmol>  (1) 
0.0

>  <rxn>  (1) 
rmg_rxn_1153

>  <species_type>  (1) 
r1

>  <species_folder>  (1) 
rmg_rxn_1153_r2_CCO

>  <frequencies_cm1_list>  (1) 
[300.61601635363996, 438.80722893331995, 519.8857246065601, 815.3652359408399, 905.02059627876, 1069.79390903216, 1082.6077036392799, 1147.3839761628399, 1278.72880437848, 1370.0047732519197, 1403.41265683372, 1418.8427728477598, 1476.07909548996, 1485.5280672902798, 1506.6989830318398, 2989.0339021483196, 2998.4554060073597, 3042.4384469819593, 3067.69521898892, 3075.2214348996404, 3657.3838493732796]

>  <E0_kJmol>  (1) 
-406893

>  <H298_kJmol>  (1) 
-406880

$$$$

     RDKit          3D

  2  1  0  0  0  0  0  0  0  0999 V2000
    0.0512    0.0443    0.0137 O   0  0  0  0  0  1  0  0  0  1  0  0
   -0.6598   -0.5718   -0.1773 H   0  0  0  0  0  0  0  0  0  2  0  0
  1  2  1  0
M  RAD  1   1   2
M  END
>  <rmg_smiles>  (2) 
[OH]

>  <rmg_adjacency_list>  (2) 
multiplicity 2
1 O u1 p2 c0 {2,S}
2 H u0 p0 c0 {1,S}


>  <multiplicity>  (2) 
2

>  <reaction>  (2) 
rmg_rxn_1153

>  <type>  (2) 
r2h

>  <role_mapnums>  (2) 
{"r2h_a": 1, "r2h_h": 2}

>  <role_mapidx>  (2) 
{"r2h_a": 0, "r2h_h": 1}

>  <ordered_mapped_smiles>  (2) 
[O:1][H:2]

>  <mol_properties>  (2) 
{"0": {"label": "acceptor", "atom_type": "O2s"}, "1": {"label": "a_hydrogen", "atom_type": "H0"}}

>  <level_of_theory>  (2) 
wb97xd/def2tzvp

>  <lot_method>  (2) 
wb97xd

>  <lot_basis>  (2) 
def2tzvp

>  <spin_multiplicity>  (2) 
2.0

>  <optical_isomers>  (2) 
1.0

>  <modes>  (2) 
IdealGasTranslation(mass=(17.0027, 'amu')),         LinearRotor(inertia=(0.893962, 'amu*angstrom^2'), symmetry=1),         HarmonicOscillator(frequencies=([3724.63

>  <frequency_value>  (2) 
unknown

>  <frequency_units>  (2) 
unknown

>  <frequency_list>  (2) 
unknown

>  <arkane_path>  (2) 
/home/calvin/Dropbox/PersonalFolders/Calvin/ATLAS_Converged/rmg_rxn_1153/output/Species/rmg_rxn_1153_p1_sbr-OH-sbr/arkane/output.py

>  <path_exists>  (2) 
True

>  <E0_value>  (2) 
-198836.1150058348

>  <E0_units>  (2) 
kJ/mol

>  <thermo_class>  (2) 
NASA

>  <Cp0_value>  (2) 
29.100652

>  <Cp0_units>  (2) 
J/(mol*K)

>  <CpInf_value>  (2) 
37.415124

>  <CpInf_units>  (2) 
J/(mol*K)

>  <Tmin_value>  (2) 
10.0

>  <Tmin_units>  (2) 
K

>  <Tmax_value>  (2) 
3000.0

>  <Tmax_units>  (2) 
K

>  <polynomials>  (2) 
[{"name": "polynomial1", "class": "NASAPolynomial", "Tmin_value": 10.0, "Tmin_units": "K", "Tmax_value": 985.4633103339054, "Tmax_units": "K", "coeffs": [3.496867247333508, 0.00018342449890259614, -9.934008380455364e-07, 1.5607090885398485e-09, -6.057976047375529e-13, -23914460.713186827, 1.4723763541989374]}, {"name": "polynomial2", "class": "NASAPolynomial", "Tmin_value": 985.4633103339054, "Tmin_units": "K", "Tmax_value": 3000.0, "Tmax_units": "K", "coeffs": [3.453605826539838, -0.000298394996284096, 7.406626419620715e-07, -2.893423009710026e-10, 3.527332886378172e-14, -23914420.264510144, 1.842419488011591]}]

>  <H298_value>  (2) 
-47520.896675322525

>  <H298_units>  (2) 
kcal/mol

>  <S298_value>  (2) 
42.56095640204575

>  <S298_units>  (2) 
cal/(mol*K)

>  <Cp_T_value_list>  (2) 
[6.954667739233619, 6.946617902371048, 6.950166451559511, 6.9709205689453935, 7.072028097634187, 7.2370175778306685, 7.699521485448446, 8.086144468717986, 8.29478093025019]

>  <Cp_T_units>  (2) 
cal/(mol*K)

>  <T_list>  (2) 
[300.0, 400.0, 500.0, 600.0, 800.0, 1000.0, 1500.0, 2000.0, 2400.0]

>  <T_units>  (2) 
K

>  <yaml_path>  (2) 
/home/calvin/Dropbox/PersonalFolders/Calvin/ATLAS_Converged/rmg_rxn_1153/output/Species/rmg_rxn_1153_p1_sbr-OH-sbr/rmg_rxn_1153_p1_sbr-OH-sbr.yml

>  <frequencies_cm1>  (2) 
[3724.62536962672]

>  <ZPE_kJmol>  (2) 
22.278213462109388

>  <E_elec_kJmol>  (2) 
-198858.39321929688

>  <E0_minus_Eelec_plus_ZPE_kJmol>  (2) 
0.0

>  <rxn>  (2) 
rmg_rxn_1153

>  <species_type>  (2) 
p0

>  <species_folder>  (2) 
rmg_rxn_1153_p1_sbr-OH-sbr

>  <frequencies_cm1_list>  (2) 
[3724.62536962672]

>  <E0_kJmol>  (2) 
-198836

>  <H298_kJmol>  (2) 
-198827

$$$$

     RDKit          3D

 10  8  0  0  0  0  0  0  0  0999 V2000
    1.9971    0.5154    0.1183 O   0  0  0  0  0  1  0  0  0  1  0  0
   -1.2549    0.8660   -0.1395 C   0  0  0  0  0  0  0  0  0  2  0  0
   -0.8881   -0.5240    0.3374 C   0  0  0  0  0  0  0  0  0  3  0  0
    0.2700   -0.9814   -0.3457 O   0  0  0  0  0  1  0  0  0  4  0  0
   -1.4300    0.8688   -1.2203 H   0  0  0  0  0  0  0  0  0  5  0  0
   -2.1554    1.2264    0.3656 H   0  0  0  0  0  0  0  0  0  6  0  0
   -0.4379    1.5692    0.0526 H   0  0  0  0  0  0  0  0  0  7  0  0
   -1.7027   -1.2255    0.1353 H   0  0  0  0  0  0  0  0  0  8  0  0
   -0.6866   -0.5297    1.4128 H   0  0  0  0  0  0  0  0  0  9  0  0
    1.1342   -0.2325   -0.1136 H   0  0  0  0  0  0  0  0  0 10  0  0
  1 10  1  0
  2  7  1  0
  2  5  1  0
  2  6  1  0
  2  3  1  0
  3  8  1  0
  3  4  1  0
  3  9  1  0
M  RAD  2   1   2   4   2
M  END
>  <rmg_smiles>  (3) 
CC[O].[OH]

>  <rmg_adjacency_list>  (3) 
multiplicity 3
1  O u1 p2 c0 {4,S}
2  O u1 p2 c0 {10,S}
3  C u0 p0 c0 {4,S} {5,S} {6,S} {7,S}
4  C u0 p0 c0 {1,S} {3,S} {8,S} {9,S}
5  H u0 p0 c0 {3,S}
6  H u0 p0 c0 {3,S}
7  H u0 p0 c0 {3,S}
8  H u0 p0 c0 {4,S}
9  H u0 p0 c0 {4,S}
10 H u0 p0 c0 {2,S}


>  <multiplicity>  (3) 
3

>  <reaction>  (3) 
rmg_rxn_1153

>  <type>  (3) 
ts

>  <role_mapnums>  (3) 
{"*2": 10, "*1": 4, "*3": 1, "*0": null, "*4": 3}

>  <role_mapidx>  (3) 
{"*2": 9, "*1": 3, "*3": 0, "*4": 2}

>  <ordered_mapped_smiles>  (3) 
[O:1][H:10].[C:2]([C:3]([O:4])([H:8])[H:9])([H:5])([H:6])[H:7]

>  <mol_properties>  (3) 
{"0": {"label": "*3", "atom_type": "O2s"}, "2": {"label": "*4", "atom_type": "Cs"}, "3": {"label": "*1", "atom_type": "O2s"}, "9": {"label": "*2", "atom_type": "H0"}}

>  <level_of_theory>  (3) 
wb97xd/def2tzvp

>  <lot_method>  (3) 
wb97xd

>  <lot_basis>  (3) 
def2tzvp

>  <spin_multiplicity>  (3) 
3.0

>  <optical_isomers>  (3) 
2.0

>  <modes>  (3) 
IdealGasTranslation(mass=(62.0368, 'amu')),         NonlinearRotor(             inertia = ([45.8269, 111.958, 143.091

>  <frequency_value>  (3) 
-1963.93

>  <frequency_units>  (3) 
cm^-1

>  <frequency_list>  (3) 
unknown

>  <arkane_path>  (3) 
/home/calvin/Dropbox/PersonalFolders/Calvin/ATLAS_Converged/rmg_rxn_1153/output/rxns/TS0/arkane/output.py

>  <path_exists>  (3) 
True

>  <E0_value>  (3) 
-603980.0

>  <E0_units>  (3) 
kJ/mol

>  <thermo_class>  (3) 
unknown

>  <Cp0_value>  (3) 
unknown

>  <Cp0_units>  (3) 
unknown

>  <CpInf_value>  (3) 
unknown

>  <CpInf_units>  (3) 
unknown

>  <Tmin_value>  (3) 
unknown

>  <Tmin_units>  (3) 
unknown

>  <Tmax_value>  (3) 
unknown

>  <Tmax_units>  (3) 
unknown

>  <polynomials>  (3) 
unknown

>  <H298_value>  (3) 
unknown

>  <H298_units>  (3) 
unknown

>  <S298_value>  (3) 
unknown

>  <S298_units>  (3) 
unknown

>  <Cp_T_value_list>  (3) 
unknown

>  <Cp_T_units>  (3) 
unknown

>  <T_list>  (3) 
unknown

>  <T_units>  (3) 
unknown

>  <yaml_path>  (3) 
unknown

>  <frequencies_cm1>  (3) 
unknown

>  <ZPE_kJmol>  (3) 
unknown

>  <E_elec_kJmol>  (3) 
unknown

>  <E0_minus_Eelec_plus_ZPE_kJmol>  (3) 
unknown

>  <rxn>  (3) 
unknown

>  <species_type>  (3) 
unknown

>  <species_folder>  (3) 
unknown

>  <frequencies_cm1_list>  (3) 
[]

>  <ts_imag_freq_cm1>  (3) 
-1987.7794

>  <ts_freq_out_path>  (3) 
/home/calvin/Dropbox/PersonalFolders/Calvin/ATLAS_Converged/rmg_rxn_1153/output/rxns/TS0/geometry/freq.out

>  <E0_kJmol>  (3) 
-603980

>  <H298_kJmol>  (3) 
unknown

$$$$

     RDKit          3D

  8  7  0  0  0  0  0  0  0  0999 V2000
   -1.1207   -0.2113   -0.0024 C   0  0  0  0  0  0  0  0  0  1  0  0
    0.2278    0.5304   -0.0026 C   0  0  0  0  0  0  0  0  0  2  0  0
    1.1758   -0.3927    0.0010 O   0  0  0  0  0  1  0  0  0  3  0  0
   -1.2050   -0.8270    0.9007 H   0  0  0  0  0  0  0  0  0  4  0  0
   -1.9706    0.4828   -0.0053 H   0  0  0  0  0  0  0  0  0  5  0  0
   -1.2203   -0.8816   -0.8654 H   0  0  0  0  0  0  0  0  0  6  0  0
    0.1749    1.2243   -0.8560 H   0  0  0  0  0  0  0  0  0  7  0  0
    0.1727    1.2287    0.8472 H   0  0  0  0  0  0  0  0  0  8  0  0
  1  5  1  0
  1  4  1  0
  1  6  1  0
  1  2  1  0
  2  7  1  0
  2  8  1  0
  2  3  1  0
M  RAD  1   3   2
M  END
>  <rmg_smiles>  (4) 
CC[O]

>  <rmg_adjacency_list>  (4) 
multiplicity 2
1 O u1 p2 c0 {3,S}
2 C u0 p0 c0 {3,S} {4,S} {5,S} {6,S}
3 C u0 p0 c0 {1,S} {2,S} {7,S} {8,S}
4 H u0 p0 c0 {2,S}
5 H u0 p0 c0 {2,S}
6 H u0 p0 c0 {2,S}
7 H u0 p0 c0 {3,S}
8 H u0 p0 c0 {3,S}


>  <multiplicity>  (4) 
2

>  <reaction>  (4) 
rmg_rxn_1153

>  <type>  (4) 
r1

>  <role_mapnums>  (4) 
{}

>  <role_mapidx>  (4) 
{}

>  <ordered_mapped_smiles>  (4) 
[C:1]([C:2]([O:3])([H:7])[H:8])([H:4])([H:5])[H:6]

>  <level_of_theory>  (4) 
wb97xd/def2tzvp

>  <lot_method>  (4) 
wb97xd

>  <lot_basis>  (4) 
def2tzvp

>  <spin_multiplicity>  (4) 
2.0

>  <optical_isomers>  (4) 
2.0

>  <modes>  (4) 
IdealGasTranslation(mass=(45.034, 'amu')),         NonlinearRotor(             inertia = ([14.0582, 47.4836, 55.4728

>  <frequency_value>  (4) 
unknown

>  <frequency_units>  (4) 
unknown

>  <frequency_list>  (4) 
unknown

>  <arkane_path>  (4) 
/home/calvin/Dropbox/PersonalFolders/Calvin/ATLAS_Converged/rmg_rxn_1153/output/Species/rmg_rxn_1153_p2_CCsbr-O-sbr/arkane/output.py

>  <path_exists>  (4) 
True

>  <E0_value>  (4) 
-405157.2161029534

>  <E0_units>  (4) 
kJ/mol

>  <thermo_class>  (4) 
NASA

>  <Cp0_value>  (4) 
33.257888

>  <Cp0_units>  (4) 
J/(mol*K)

>  <CpInf_value>  (4) 
182.918384

>  <CpInf_units>  (4) 
J/(mol*K)

>  <Tmin_value>  (4) 
10.0

>  <Tmin_units>  (4) 
K

>  <Tmax_value>  (4) 
3000.0

>  <Tmax_units>  (4) 
K

>  <polynomials>  (4) 
[{"name": "polynomial1", "class": "NASAPolynomial", "Tmin_value": 10.0, "Tmin_units": "K", "Tmax_value": 655.5584179485454, "Tmax_units": "K", "coeffs": [4.055896680763939, -0.004117670069248816, 7.122707515855976e-05, -9.785263843573845e-08, 4.3679961511989154e-11, -48729158.325679846, 8.411904971199016]}, {"name": "polynomial2", "class": "NASAPolynomial", "Tmin_value": 655.5584179485454, "Tmin_units": "K", "Tmax_value": 3000.0, "Tmax_units": "K", "coeffs": [-0.2963153099961466, 0.028239390993956913, -1.608406430571112e-05, 4.437008920708728e-09, -4.765506877400804e-13, -48728712.35741161, 26.62023881836554]}]

>  <H298_value>  (4) 
-96831.95568243512

>  <H298_units>  (4) 
kcal/mol

>  <S298_value>  (4) 
64.93639533849537

>  <S298_units>  (4) 
cal/(mol*K)

>  <Cp_T_value_list>  (4) 
[13.796814802847175, 17.210795744913966, 20.472694648795237, 23.353243036643658, 27.97579323395892, 31.43655285308924, 36.63612661925797, 39.182684202551286, 40.46035083252092]

>  <Cp_T_units>  (4) 
cal/(mol*K)

>  <T_list>  (4) 
[300.0, 400.0, 500.0, 600.0, 800.0, 1000.0, 1500.0, 2000.0, 2400.0]

>  <T_units>  (4) 
K

>  <yaml_path>  (4) 
/home/calvin/Dropbox/PersonalFolders/Calvin/ATLAS_Converged/rmg_rxn_1153/output/Species/rmg_rxn_1153_p2_CCsbr-O-sbr/rmg_rxn_1153_p2_CCsbr-O-sbr.yml

>  <frequencies_cm1>  (4) 
[300.60914936832, 468.21852705888, 815.8733928545199, 907.07382488944, 1062.40503282784, 1086.9751063028, 1131.43196926448, 1292.3941051652798, 1299.0482139403598, 1361.6888540294, 1409.66848046024, 1481.5177478633998, 1487.32721744412, 2924.60097889076, 2942.33840197232, 2969.44926001568, 3038.38692564316, 3046.5449042033197]

>  <ZPE_kJmol>  (4) 
173.61140549560463

>  <E_elec_kJmol>  (4) 
-405330.827508449

>  <E0_minus_Eelec_plus_ZPE_kJmol>  (4) 
0.0

>  <rxn>  (4) 
rmg_rxn_1153

>  <species_type>  (4) 
p1

>  <species_folder>  (4) 
rmg_rxn_1153_p2_CCsbr-O-sbr

>  <frequencies_cm1_list>  (4) 
[300.60914936832, 468.21852705888, 815.8733928545199, 907.07382488944, 1062.40503282784, 1086.9751063028, 1131.43196926448, 1292.3941051652798, 1299.0482139403598, 1361.6888540294, 1409.66848046024, 1481.5177478633998, 1487.32721744412, 2924.60097889076, 2942.33840197232, 2969.44926001568, 3038.38692564316, 3046.5449042033197]

>  <E0_kJmol>  (4) 
-405157

>  <H298_kJmol>  (4) 
-405145

$$$$

     RDKit          3D

  1  0  0  0  0  0  0  0  0  0999 V2000
    0.0000    0.0000    0.0000 O   0  0  0  0  0 15  0  0  0  1  0  0
M  END
>  <rmg_smiles>  (5) 
[O]

>  <rmg_adjacency_list>  (5) 
multiplicity 3
1 O u2 p3 c0


>  <multiplicity>  (5) 
3

>  <reaction>  (5) 
rmg_rxn_1153

>  <type>  (5) 
r2

>  <role_mapnums>  (5) 
{}

>  <role_mapidx>  (5) 
{}

>  <ordered_mapped_smiles>  (5) 
[O:1]

>  <level_of_theory>  (5) 
wb97xd/def2tzvp

>  <lot_method>  (5) 
wb97xd

>  <lot_basis>  (5) 
def2tzvp

>  <spin_multiplicity>  (5) 
3.0

>  <optical_isomers>  (5) 
1.0

>  <modes>  (5) 
IdealGasTranslation(mass=(15.9994, 'amu')),

>  <frequency_value>  (5) 
unknown

>  <frequency_units>  (5) 
unknown

>  <frequency_list>  (5) 
unknown

>  <arkane_path>  (5) 
/home/calvin/Dropbox/PersonalFolders/Calvin/ATLAS_Converged/rmg_rxn_1153/output/Species/rmg_rxn_1153_r1_sbr-O-sbr/arkane/output.py

>  <path_exists>  (5) 
True

>  <E0_value>  (5) 
-197098.59938458708

>  <E0_units>  (5) 
kJ/mol

>  <thermo_class>  (5) 
NASA

>  <Cp0_value>  (5) 
20.78618

>  <Cp0_units>  (5) 
J/(mol*K)

>  <CpInf_value>  (5) 
20.78618

>  <CpInf_units>  (5) 
J/(mol*K)

>  <Tmin_value>  (5) 
10.0

>  <Tmin_units>  (5) 
K

>  <Tmax_value>  (5) 
3000.0

>  <Tmax_units>  (5) 
K

>  <polynomials>  (5) 
[{"name": "polynomial1", "class": "NASAPolynomial", "Tmin_value": 10.0, "Tmin_units": "K", "Tmax_value": 1853.5663026740365, "Tmax_units": "K", "coeffs": [2.500000000000126, -2.814048095438137e-15, 9.047587538332909e-18, -8.591944598242694e-21, 2.4182720553650057e-24, -23705485.977386568, 4.091313385047355]}, {"name": "polynomial2", "class": "NASAPolynomial", "Tmin_value": 1853.5663026740365, "Tmin_units": "K", "Tmax_value": 3000.0, "Tmax_units": "K", "coeffs": [2.500000000696122, -1.3129776766613561e-12, 9.140875080033424e-16, -2.782806647322001e-19, 3.1263265306749967e-23, -23705485.97738686, 4.091313381171202]}]

>  <H298_value>  (5) 
-47106.215373741215

>  <H298_units>  (5) 
kcal/mol

>  <S298_value>  (5) 
36.4335375885593

>  <S298_units>  (5) 
cal/(mol*K)

>  <Cp_T_value_list>  (5) 
[4.968016252389826, 4.968016252389978, 4.968016252390173, 4.96801625239036, 4.968016252390567, 4.968016252390427, 4.968016252389077, 4.968016252391019, 4.968016252390868]

>  <Cp_T_units>  (5) 
cal/(mol*K)

>  <T_list>  (5) 
[300.0, 400.0, 500.0, 600.0, 800.0, 1000.0, 1500.0, 2000.0, 2400.0]

>  <T_units>  (5) 
K

>  <yaml_path>  (5) 
/home/calvin/Dropbox/PersonalFolders/Calvin/ATLAS_Converged/rmg_rxn_1153/output/Species/rmg_rxn_1153_r1_sbr-O-sbr/rmg_rxn_1153_r1_sbr-O-sbr.yml

>  <frequencies_cm1>  (5) 
[]

>  <ZPE_kJmol>  (5) 
unknown

>  <E_elec_kJmol>  (5) 
unknown

>  <E0_minus_Eelec_plus_ZPE_kJmol>  (5) 
unknown

>  <rxn>  (5) 
rmg_rxn_1153

>  <species_type>  (5) 
r0

>  <species_folder>  (5) 
rmg_rxn_1153_r1_sbr-O-sbr

>  <frequencies_cm1_list>  (5) 
[]

>  <E0_kJmol>  (5) 
-197099

>  <H298_kJmol>  (5) 
-197092

$$$$
