
     RDKit          3D

  9  9  0  0  0  0  0  0  0  0999 V2000
   -1.1422   -0.1188    0.7906 O   0  0  0  0  0  0  0  0  0  1  0  0
    0.1303    0.2318    0.4620 N   0  0  0  0  0  0  0  0  0  2  0  0
    0.3928    0.6410   -0.9068 C   0  0  0  0  0  0  0  0  0  3  0  0
    0.8776   -0.6733   -0.3885 C   0  0  0  0  0  0  0  0  0  4  0  0
   -1.6043   -0.5759    0.0841 H   0  0  0  0  0  0  0  0  0  5  0  0
    1.0791    1.4705   -1.0208 H   0  0  0  0  0  0  0  0  0  6  0  0
   -0.4490    0.6400   -1.5869 H   0  0  0  0  0  0  0  0  0  7  0  0
    0.3571   -1.5630   -0.7228 H   0  0  0  0  0  0  0  0  0  8  0  0
    1.9190   -0.8138   -0.1275 H   0  0  0  0  0  0  0  0  0  9  0  0
  1  5  1  0
  1  2  1  0
  2  3  1  0
  2  4  1  0
  3  4  1  0
  3  6  1  0
  3  7  1  0
  4  8  1  0
  4  9  1  0
M  END
>  <rmg_smiles>  (1) 
ON1CC1

>  <rmg_adjacency_list>  (1) 
1 O u0 p2 c0 {2,S} {9,S}
2 N u0 p1 c0 {1,S} {3,S} {4,S}
3 C u0 p0 c0 {2,S} {4,S} {5,S} {6,S}
4 C u0 p0 c0 {2,S} {3,S} {7,S} {8,S}
5 H u0 p0 c0 {3,S}
6 H u0 p0 c0 {3,S}
7 H u0 p0 c0 {4,S}
8 H u0 p0 c0 {4,S}
9 H u0 p0 c0 {1,S}


>  <multiplicity>  (1) 
1

>  <reaction>  (1) 
rmg_rxn_3077

>  <type>  (1) 
r1h

>  <role_mapnums>  (1) 
{"r1h_a": 1, "r1h_h": 5}

>  <role_mapidx>  (1) 
{"r1h_a": 0, "r1h_h": 4}

>  <ordered_mapped_smiles>  (1) 
[O:1]([N:2]1[C:3]([H:6])([H:7])[C:4]1([H:8])[H:9])[H:5]

>  <mol_properties>  (1) 
{"0": {"label": "donator", "atom_type": "O2s"}, "4": {"label": "d_hydrogen", "atom_type": "H0"}}

>  <level_of_theory>  (1) 
wb97xd/def2tzvp

>  <lot_method>  (1) 
wb97xd

>  <lot_basis>  (1) 
def2tzvp

>  <spin_multiplicity>  (1) 
1.0

>  <optical_isomers>  (1) 
1.0

>  <modes>  (1) 
IdealGasTranslation(mass=(59.0371, 'amu')),         NonlinearRotor(             inertia = ([28.1872, 66.5407, 77.6102

>  <frequency_value>  (1) 
unknown

>  <frequency_units>  (1) 
unknown

>  <frequency_list>  (1) 
unknown

>  <arkane_path>  (1) 
/home/calvin/Dropbox/PersonalFolders/Calvin/ATLAS_Converged/rmg_rxn_3077/output/Species/rmg_rxn_3077_r1_ON1CC1/arkane/output.py

>  <path_exists>  (1) 
True

>  <E0_value>  (1) 
-548830.9755880404

>  <E0_units>  (1) 
kJ/mol

>  <thermo_class>  (1) 
NASA

>  <Cp0_value>  (1) 
33.257888

>  <Cp0_units>  (1) 
J/(mol*K)

>  <CpInf_value>  (1) 
207.8618

>  <CpInf_units>  (1) 
J/(mol*K)

>  <Tmin_value>  (1) 
10.0

>  <Tmin_units>  (1) 
K

>  <Tmax_value>  (1) 
3000.0

>  <Tmax_units>  (1) 
K

>  <polynomials>  (1) 
[{"name": "polynomial1", "class": "NASAPolynomial", "Tmin_value": 10.0, "Tmin_units": "K", "Tmax_value": 587.2199948559334, "Tmax_units": "K", "coeffs": [4.01290829659194, -0.0016502474955422339, 9.708642231333483e-05, -1.6094228553485929e-07, 8.484346380941685e-11, -66009118.08554968, 8.391880568105824]}, {"name": "polynomial2", "class": "NASAPolynomial", "Tmin_value": 587.2199948559334, "Tmin_units": "K", "Tmax_value": 3000.0, "Tmax_units": "K", "coeffs": [0.7337841600207903, 0.03241844705827431, -1.990752940299833e-05, 5.903220459412223e-09, -6.732998606532043e-13, -66008935.2494822, 20.743767898900355]}]

>  <H298_value>  (1) 
-131170.36722140852

>  <H298_units>  (1) 
kcal/mol

>  <S298_value>  (1) 
67.20815903717752

>  <S298_units>  (1) 
cal/(mol*K)

>  <Cp_T_value_list>  (1) 
[17.084813947658525, 21.379009937156017, 25.126876739126274, 28.23021137141331, 33.135452712013276, 36.71288976391953, 41.89886219457449, 44.500561578088046, 45.980647572639626]

>  <Cp_T_units>  (1) 
cal/(mol*K)

>  <T_list>  (1) 
[300.0, 400.0, 500.0, 600.0, 800.0, 1000.0, 1500.0, 2000.0, 2400.0]

>  <T_units>  (1) 
K

>  <yaml_path>  (1) 
/home/calvin/Dropbox/PersonalFolders/Calvin/ATLAS_Converged/rmg_rxn_3077/output/Species/rmg_rxn_3077_r1_ON1CC1/rmg_rxn_3077_r1_ON1CC1.yml

>  <frequencies_cm1>  (1) 
[133.13711138415997, 422.03805078188, 447.52830028972, 737.70649895696, 837.0649095520399, 880.14837544972, 977.55656221392, 1021.37479554084, 1108.8807894735999, 1123.8508174712, 1174.6390408979198, 1175.03732604648, 1241.8668271807198, 1382.8803707269199, 1458.29360351116, 1496.32296821332, 3107.7915462724, 3111.1083001819597, 3196.87694682876, 3210.06155864316, 3845.8619954513197]

>  <ZPE_kJmol>  (1) 
191.94103937201209

>  <E_elec_kJmol>  (1) 
-549022.9166274124

>  <E0_minus_Eelec_plus_ZPE_kJmol>  (1) 
0.0

>  <rxn>  (1) 
rmg_rxn_3077

>  <species_type>  (1) 
r0

>  <species_folder>  (1) 
rmg_rxn_3077_r1_ON1CC1

>  <frequencies_cm1_list>  (1) 
[133.13711138415997, 422.03805078188, 447.52830028972, 737.70649895696, 837.0649095520399, 880.14837544972, 977.55656221392, 1021.37479554084, 1108.8807894735999, 1123.8508174712, 1174.6390408979198, 1175.03732604648, 1241.8668271807198, 1382.8803707269199, 1458.29360351116, 1496.32296821332, 3107.7915462724, 3111.1083001819597, 3196.87694682876, 3210.06155864316, 3845.8619954513197]

>  <E0_kJmol>  (1) 
-548831

>  <H298_kJmol>  (1) 
-548817

$$$$

     RDKit          3D

 14 13  0  0  0  0  0  0  0  0999 V2000
    1.5319   -1.1207    0.2154 H   0  0  0  0  0  0  0  0  0  1  0  0
    0.8438   -1.6102   -0.4743 C   0  0  0  0  0  0  0  0  0  2  0  0
   -0.3825   -1.6269    0.1180 O   0  0  0  0  0  0  0  0  0  3  0  0
   -1.1387   -0.4295    0.0451 C   0  0  0  0  0  0  0  0  0  4  0  0
   -0.5928    0.6739    0.9395 C   0  0  0  0  0  0  0  0  0  5  0  0
    0.4767    1.5365    0.3185 C   0  0  0  0  0  0  0  0  0  6  0  0
    0.6947    1.6028   -0.8623 O   0  0  0  0  0  0  0  0  0  7  0  0
    1.2314   -2.6233   -0.5548 H   0  0  0  0  0  0  0  0  0  8  0  0
    0.9016   -1.0165   -1.3900 H   0  0  0  0  0  0  0  0  0  9  0  0
   -2.1387   -0.7117    0.3697 H   0  0  0  0  0  0  0  0  0 10  0  0
   -1.1875   -0.0835   -0.9923 H   0  0  0  0  0  0  0  0  0 11  0  0
   -1.4054    1.3585    1.2111 H   0  0  0  0  0  0  0  0  0 12  0  0
   -0.2130    0.2597    1.8755 H   0  0  0  0  0  0  0  0  0 13  0  0
    1.0417    2.1628    1.0323 H   0  0  0  0  0  0  0  0  0 14  0  0
  1  2  1  0
  2  9  1  0
  2  8  1  0
  2  3  1  0
  3  4  1  0
  4  5  1  0
  4 10  1  0
  4 11  1  0
  5 12  1  0
  5  6  1  0
  5 13  1  0
  6 14  1  0
  6  7  1  0
M  END
>  <rmg_smiles>  (2) 
COCC[CH]O

>  <rmg_adjacency_list>  (2) 
1  O u0 p2 c0 {4,S} {5,S}
2  O u0 p2 c0 {6,S}
3  C u0 p0 c0 {4,S} {6,S} {7,S} {8,S}
4  C u0 p0 c0 {1,S} {3,S} {9,S} {10,S}
5  C u0 p0 c0 {1,S} {11,S} {12,S} {13,S}
6  C u0 p0 c0 {2,S} {3,S} {14,S}
7  H u0 p0 c0 {3,S}
8  H u0 p0 c0 {3,S}
9  H u0 p0 c0 {4,S}
10 H u0 p0 c0 {4,S}
11 H u0 p0 c0 {5,S}
12 H u0 p0 c0 {5,S}
13 H u0 p0 c0 {5,S}
14 H u0 p0 c0 {6,S}


>  <multiplicity>  (2) 
1

>  <reaction>  (2) 
rmg_rxn_3077

>  <type>  (2) 
r2h

>  <role_mapnums>  (2) 
{"r2h_a": 2, "r2h_h": 1}

>  <role_mapidx>  (2) 
{"r2h_a": 1, "r2h_h": 0}

>  <ordered_mapped_smiles>  (2) 
[H:1][C:2]([O:3][C:4]([C:5]([CH:6]([OH:7])[H:14])([H:12])[H:13])([H:10])[H:11])([H:8])[H:9]

>  <mol_properties>  (2) 
{"0": {"label": "a_hydrogen", "atom_type": "H0"}, "1": {"label": "acceptor", "atom_type": "Cs"}}

>  <level_of_theory>  (2) 
wb97xd/def2tzvp

>  <lot_method>  (2) 
wb97xd

>  <lot_basis>  (2) 
def2tzvp

>  <spin_multiplicity>  (2) 
1.0

>  <optical_isomers>  (2) 
1.0

>  <modes>  (2) 
IdealGasTranslation(mass=(88.0524, 'amu')),         NonlinearRotor(             inertia = ([42.2252, 321.863, 354.694

>  <frequency_value>  (2) 
unknown

>  <frequency_units>  (2) 
unknown

>  <frequency_list>  (2) 
unknown

>  <arkane_path>  (2) 
/home/calvin/Dropbox/PersonalFolders/Calvin/ATLAS_Converged/rmg_rxn_3077/output/Species/rmg_rxn_3077_p2_COCCC=O/arkane/output.py

>  <path_exists>  (2) 
True

>  <E0_value>  (2) 
-807522.6100537918

>  <E0_units>  (2) 
kJ/mol

>  <thermo_class>  (2) 
NASA

>  <Cp0_value>  (2) 
33.257888

>  <Cp0_units>  (2) 
J/(mol*K)

>  <CpInf_value>  (2) 
332.57888

>  <CpInf_units>  (2) 
J/(mol*K)

>  <Tmin_value>  (2) 
10.0

>  <Tmin_units>  (2) 
K

>  <Tmax_value>  (2) 
3000.0

>  <Tmax_units>  (2) 
K

>  <polynomials>  (2) 
[{"name": "polynomial1", "class": "NASAPolynomial", "Tmin_value": 10.0, "Tmin_units": "K", "Tmax_value": 420.0019224515529, "Tmax_units": "K", "coeffs": [3.4815818573308563, 0.055151573920970684, -0.00018200775594588722, 4.7448423169783095e-07, -4.12494770279479e-10, -97122534.66875465, 10.742579172485241]}, {"name": "polynomial2", "class": "NASAPolynomial", "Tmin_value": 420.0019224515529, "Tmin_units": "K", "Tmax_value": 3000.0, "Tmax_units": "K", "coeffs": [-0.41942294309800837, 0.052523438745747025, -3.0549424334284136e-05, 8.564921267984354e-09, -9.313736988849626e-13, -97121856.11658393, 30.355526575601917]}]

>  <H298_value>  (2) 
-192997.32101247305

>  <H298_units>  (2) 
kcal/mol

>  <S298_value>  (2) 
84.06560586374722

>  <S298_units>  (2) 
cal/(mol*K)

>  <Cp_T_value_list>  (2) 
[26.064642848653246, 32.248576247546794, 38.18883221665576, 43.37309599828628, 51.769601860284695, 58.00285964605727, 67.2094310011681, 71.63312719026082, 73.87017579437332]

>  <Cp_T_units>  (2) 
cal/(mol*K)

>  <T_list>  (2) 
[300.0, 400.0, 500.0, 600.0, 800.0, 1000.0, 1500.0, 2000.0, 2400.0]

>  <T_units>  (2) 
K

>  <yaml_path>  (2) 
/home/calvin/Dropbox/PersonalFolders/Calvin/ATLAS_Converged/rmg_rxn_3077/output/Species/rmg_rxn_3077_p2_COCCC=O/rmg_rxn_3077_p2_COCCC=O.yml

>  <frequencies_cm1>  (2) 
[83.92142759571999, 101.70691957452, 147.16636239292, 174.02314197943997, 230.32555461812, 307.31819402595994, 439.28791790572, 677.99119461424, 694.39642254372, 892.9209681449199, 910.4661156375198, 1006.6107771028398, 1094.1579729475197, 1124.7435255628, 1176.4450580370801, 1178.51888760372, 1225.7912145465998, 1230.8727836834, 1298.89714026332, 1325.85692462964, 1408.7002355301197, 1418.6710982147597, 1449.29785274196, 1473.5383109215597, 1476.52544953576, 1492.4019195956, 1511.0732526806798, 1821.48159010064, 2872.5766981064403, 2954.7951133427996, 2967.9316562599597, 2997.0614079873994, 3007.2108122903596, 3014.4829497442397, 3050.8230360576795, 3104.4610583922]

>  <ZPE_kJmol>  (2) 
307.0961421103297

>  <E_elec_kJmol>  (2) 
-807829.7061959021

>  <E0_minus_Eelec_plus_ZPE_kJmol>  (2) 
0.0

>  <rxn>  (2) 
rmg_rxn_3077

>  <species_type>  (2) 
p1

>  <species_folder>  (2) 
rmg_rxn_3077_p2_COCCC=O

>  <frequencies_cm1_list>  (2) 
[83.92142759571999, 101.70691957452, 147.16636239292, 174.02314197943997, 230.32555461812, 307.31819402595994, 439.28791790572, 677.99119461424, 694.39642254372, 892.9209681449199, 910.4661156375198, 1006.6107771028398, 1094.1579729475197, 1124.7435255628, 1176.4450580370801, 1178.51888760372, 1225.7912145465998, 1230.8727836834, 1298.89714026332, 1325.85692462964, 1408.7002355301197, 1418.6710982147597, 1449.29785274196, 1473.5383109215597, 1476.52544953576, 1492.4019195956, 1511.0732526806798, 1821.48159010064, 2872.5766981064403, 2954.7951133427996, 2967.9316562599597, 2997.0614079873994, 3007.2108122903596, 3014.4829497442397, 3050.8230360576795, 3104.4610583922]

>  <E0_kJmol>  (2) 
-807523

>  <H298_kJmol>  (2) 
-807501

$$$$

     RDKit          3D

 22 21  0  0  0  0  0  0  0  0999 V2000
    0.9205   -0.3049    1.0898 O   0  0  0  0  0  0  0  0  0  1  0  0
    2.1931    0.0457    0.7611 N   0  0  0  0  0  0  0  0  0  2  0  0
    2.4556    0.4549   -0.6076 C   0  0  0  0  0  0  0  0  0  3  0  0
    2.9403   -0.8594   -0.0894 C   0  0  0  0  0  0  0  0  0  4  0  0
    0.3470   -0.8722    0.2129 H   0  0  0  0  0  0  0  0  0  5  0  0
    3.1419    1.2844   -0.7216 H   0  0  0  0  0  0  0  0  0  6  0  0
    1.6137    0.4539   -1.2878 H   0  0  0  0  0  0  0  0  0  7  0  0
    2.4199   -1.7491   -0.4237 H   0  0  0  0  0  0  0  0  0  8  0  0
    3.9817   -0.9999    0.1716 H   0  0  0  0  0  0  0  0  0  9  0  0
   -0.5190   -1.4884   -0.6552 C   0  0  0  0  0  3  0  0  0 10  0  0
   -1.7454   -1.5051   -0.0629 O   0  0  0  0  0  0  0  0  0 11  0  0
   -2.5016   -0.3077   -0.1358 C   0  0  0  0  0  0  0  0  0 12  0  0
   -1.9556    0.7957    0.7587 C   0  0  0  0  0  0  0  0  0 13  0  0
   -0.8861    1.6583    0.1376 C   0  0  0  0  0  0  0  0  0 14  0  0
   -0.6682    1.7246   -1.0432 O   0  0  0  0  0  0  0  0  0 15  0  0
   -0.1314   -2.5015   -0.7356 H   0  0  0  0  0  0  0  0  0 16  0  0
   -0.4612   -0.8947   -1.5709 H   0  0  0  0  0  0  0  0  0 17  0  0
   -3.5015   -0.5898    0.1889 H   0  0  0  0  0  0  0  0  0 18  0  0
   -2.5503    0.0384   -1.1732 H   0  0  0  0  0  0  0  0  0 19  0  0
   -2.7682    1.4803    1.0302 H   0  0  0  0  0  0  0  0  0 20  0  0
   -1.5758    0.3816    1.6946 H   0  0  0  0  0  0  0  0  0 21  0  0
   -0.3211    2.2846    0.8514 H   0  0  0  0  0  0  0  0  0 22  0  0
  1  2  1  0
  1  5  1  0
  2  4  1  0
  2  3  1  0
  3  4  1  0
  3  6  1  0
  3  7  1  0
  4  9  1  0
  4  8  1  0
 10 16  1  0
 10 11  1  0
 10 17  1  0
 11 12  1  0
 12 19  1  0
 12 18  1  0
 12 13  1  0
 13 21  1  0
 13 20  1  0
 13 14  1  0
 14 22  1  0
 14 15  1  0
M  RAD  1  10   2
M  END
>  <rmg_smiles>  (3) 
ON1CC1.[CH2]OCC[CH][O]

>  <rmg_adjacency_list>  (3) 
multiplicity 2
1  O u0 p2 c0 {8,S} {10,S}
2  O u0 p2 c0 {4,S} {22,S}
3  O u0 p2 c0 {9,S}
4  N u0 p1 c0 {2,S} {5,S} {6,S}
5  C u0 p0 c0 {4,S} {6,S} {11,S} {12,S}
6  C u0 p0 c0 {4,S} {5,S} {13,S} {14,S}
7  C u0 p0 c0 {8,S} {9,S} {15,S} {16,S}
8  C u0 p0 c0 {1,S} {7,S} {17,S} {18,S}
9  C u0 p0 c0 {3,S} {7,S} {19,S}
10 C u1 p0 c0 {1,S} {20,S} {21,S}
11 H u0 p0 c0 {5,S}
12 H u0 p0 c0 {5,S}
13 H u0 p0 c0 {6,S}
14 H u0 p0 c0 {6,S}
15 H u0 p0 c0 {7,S}
16 H u0 p0 c0 {7,S}
17 H u0 p0 c0 {8,S}
18 H u0 p0 c0 {8,S}
19 H u0 p0 c0 {9,S}
20 H u0 p0 c0 {10,S}
21 H u0 p0 c0 {10,S}
22 H u0 p0 c0 {2,S}


>  <multiplicity>  (3) 
2

>  <reaction>  (3) 
rmg_rxn_3077

>  <type>  (3) 
ts

>  <role_mapnums>  (3) 
{"*2": 5, "*1": 1, "*3": 10, "*0": 2, "*4": 11}

>  <role_mapidx>  (3) 
{"*2": 4, "*1": 0, "*3": 9, "*0": 1, "*4": 10}

>  <ordered_mapped_smiles>  (3) 
[O:1]([N:2]1[C:3]([H:6])([H:7])[C:4]1([H:8])[H:9])[H:5].[C:10]([O:11][C:12]([C:13]([CH:14]([OH:15])[H:22])([H:20])[H:21])([H:18])[H:19])([H:16])[H:17]

>  <mol_properties>  (3) 
{"0": {"label": "*1", "atom_type": "O2s"}, "1": {"label": "*0", "atom_type": "N3s"}, "4": {"label": "*2", "atom_type": "H0"}, "9": {"label": "*3", "atom_type": "Cs"}, "10": {"label": "*4", "atom_type": "O2s"}}

>  <level_of_theory>  (3) 
wb97xd/def2tzvp

>  <lot_method>  (3) 
wb97xd

>  <lot_basis>  (3) 
def2tzvp

>  <spin_multiplicity>  (3) 
2.0

>  <optical_isomers>  (3) 
2.0

>  <modes>  (3) 
IdealGasTranslation(mass=(146.082, 'amu')),         NonlinearRotor(             inertia = ([258.269, 584.821, 697.989

>  <frequency_value>  (3) 
-1938.47

>  <frequency_units>  (3) 
cm^-1

>  <frequency_list>  (3) 
unknown

>  <arkane_path>  (3) 
/home/calvin/Dropbox/PersonalFolders/Calvin/ATLAS_Converged/rmg_rxn_3077/output/rxns/TS0/arkane/output.py

>  <path_exists>  (3) 
True

>  <E0_value>  (3) 
-1354620.0

>  <E0_units>  (3) 
kJ/mol

>  <thermo_class>  (3) 
unknown

>  <Cp0_value>  (3) 
unknown

>  <Cp0_units>  (3) 
unknown

>  <CpInf_value>  (3) 
unknown

>  <CpInf_units>  (3) 
unknown

>  <Tmin_value>  (3) 
unknown

>  <Tmin_units>  (3) 
unknown

>  <Tmax_value>  (3) 
unknown

>  <Tmax_units>  (3) 
unknown

>  <polynomials>  (3) 
unknown

>  <H298_value>  (3) 
unknown

>  <H298_units>  (3) 
unknown

>  <S298_value>  (3) 
unknown

>  <S298_units>  (3) 
unknown

>  <Cp_T_value_list>  (3) 
unknown

>  <Cp_T_units>  (3) 
unknown

>  <T_list>  (3) 
unknown

>  <T_units>  (3) 
unknown

>  <yaml_path>  (3) 
unknown

>  <frequencies_cm1>  (3) 
unknown

>  <ZPE_kJmol>  (3) 
unknown

>  <E_elec_kJmol>  (3) 
unknown

>  <E0_minus_Eelec_plus_ZPE_kJmol>  (3) 
unknown

>  <rxn>  (3) 
unknown

>  <species_type>  (3) 
unknown

>  <species_folder>  (3) 
unknown

>  <frequencies_cm1_list>  (3) 
[]

>  <ts_imag_freq_cm1>  (3) 
-1962.0156

>  <ts_freq_out_path>  (3) 
/home/calvin/Dropbox/PersonalFolders/Calvin/ATLAS_Converged/rmg_rxn_3077/output/rxns/TS0/geometry/freq.out

>  <E0_kJmol>  (3) 
-1.35462e+06

>  <H298_kJmol>  (3) 
unknown

$$$$

     RDKit          3D

  8  8  0  0  0  0  0  0  0  0999 V2000
    0.0257    1.9818    0.0485 O   0  0  0  0  0  1  0  0  0  1  0  0
    0.0179    0.8208   -0.4484 N   0  0  0  0  0  0  0  0  0  2  0  0
    0.7557   -0.3258    0.0134 C   0  0  0  0  0  0  0  0  0  3  0  0
   -0.7642   -0.3055   -0.0101 C   0  0  0  0  0  0  0  0  0  4  0  0
    1.2844   -0.9009   -0.7365 H   0  0  0  0  0  0  0  0  0  5  0  0
    1.2442   -0.2188    0.9742 H   0  0  0  0  0  0  0  0  0  6  0  0
   -1.2791   -0.1851    0.9352 H   0  0  0  0  0  0  0  0  0  7  0  0
   -1.2846   -0.8666   -0.7762 H   0  0  0  0  0  0  0  0  0  8  0  0
  1  2  1  0
  2  3  1  0
  2  4  1  0
  3  4  1  0
  3  6  1  0
  3  5  1  0
  4  8  1  0
  4  7  1  0
M  RAD  1   1   2
M  END
>  <rmg_smiles>  (4) 
[O]N1CC1

>  <rmg_adjacency_list>  (4) 
multiplicity 2
1 O u1 p2 c0 {2,S}
2 N u0 p1 c0 {1,S} {3,S} {4,S}
3 C u0 p0 c0 {2,S} {4,S} {5,S} {6,S}
4 C u0 p0 c0 {2,S} {3,S} {7,S} {8,S}
5 H u0 p0 c0 {3,S}
6 H u0 p0 c0 {3,S}
7 H u0 p0 c0 {4,S}
8 H u0 p0 c0 {4,S}


>  <multiplicity>  (4) 
2

>  <reaction>  (4) 
rmg_rxn_3077

>  <type>  (4) 
r1

>  <role_mapnums>  (4) 
{}

>  <role_mapidx>  (4) 
{}

>  <ordered_mapped_smiles>  (4) 
[O:1][N:2]1[C:3]([H:5])([H:6])[C:4]1([H:7])[H:8]

>  <level_of_theory>  (4) 
wb97xd/def2tzvp

>  <lot_method>  (4) 
wb97xd

>  <lot_basis>  (4) 
def2tzvp

>  <spin_multiplicity>  (4) 
2.0

>  <optical_isomers>  (4) 
1.0

>  <modes>  (4) 
IdealGasTranslation(mass=(58.0293, 'amu')),         NonlinearRotor(             inertia = ([25.8055, 62.4608, 77.4626

>  <frequency_value>  (4) 
unknown

>  <frequency_units>  (4) 
unknown

>  <frequency_list>  (4) 
unknown

>  <arkane_path>  (4) 
/home/calvin/Dropbox/PersonalFolders/Calvin/ATLAS_Converged/rmg_rxn_3077/output/Species/rmg_rxn_3077_p1_sbr-O-sbrN1CC1/arkane/output.py

>  <path_exists>  (4) 
True

>  <E0_value>  (4) 
-547181.0539800306

>  <E0_units>  (4) 
kJ/mol

>  <thermo_class>  (4) 
NASA

>  <Cp0_value>  (4) 
33.257888

>  <Cp0_units>  (4) 
J/(mol*K)

>  <CpInf_value>  (4) 
182.918384

>  <CpInf_units>  (4) 
J/(mol*K)

>  <Tmin_value>  (4) 
10.0

>  <Tmin_units>  (4) 
K

>  <Tmax_value>  (4) 
3000.0

>  <Tmax_units>  (4) 
K

>  <polynomials>  (4) 
[{"name": "polynomial1", "class": "NASAPolynomial", "Tmin_value": 10.0, "Tmin_units": "K", "Tmax_value": 624.7357386490204, "Tmax_units": "K", "coeffs": [4.1105451907420125, -0.009033090615102013, 0.00011173695653622377, -1.734104128021453e-07, 8.700249676344132e-11, -65810679.90864667, 8.7112352700631]}, {"name": "polynomial2", "class": "NASAPolynomial", "Tmin_value": 624.7357386490204, "Tmin_units": "K", "Tmax_value": 3000.0, "Tmax_units": "K", "coeffs": [0.5509038236468667, 0.029424195237818408, -1.8213741851288973e-05, 5.401052377808208e-09, -6.146368474763313e-13, -65810540.85840035, 21.763128585627033]}]

>  <H298_value>  (4) 
-130776.41321357674

>  <H298_units>  (4) 
kcal/mol

>  <S298_value>  (4) 
65.65873371157244

>  <S298_units>  (4) 
cal/(mol*K)

>  <Cp_T_value_list>  (4) 
[14.863476305027024, 18.886846753670252, 22.43475352619028, 25.306815638075097, 29.702872533122694, 32.883841566280715, 37.40564552125166, 39.58228468223397, 40.796935988510995]

>  <Cp_T_units>  (4) 
cal/(mol*K)

>  <T_list>  (4) 
[300.0, 400.0, 500.0, 600.0, 800.0, 1000.0, 1500.0, 2000.0, 2400.0]

>  <T_units>  (4) 
K

>  <yaml_path>  (4) 
/home/calvin/Dropbox/PersonalFolders/Calvin/ATLAS_Converged/rmg_rxn_3077/output/Species/rmg_rxn_3077_p1_sbr-O-sbrN1CC1/rmg_rxn_3077_p1_sbr-O-sbrN1CC1.yml

>  <frequencies_cm1>  (4) 
[350.08577859892, 463.25369667251994, 761.6104748558798, 793.3977499021601, 893.5939327062799, 1016.15588669764, 1066.6762976968798, 1105.1726174008, 1123.1366509979198, 1153.9625480994, 1164.4896365949598, 1431.4917598071997, 1454.9768496016, 1497.97791167544, 3102.6413072824, 3105.09282104164, 3197.1310252856, 3209.5328007735197]

>  <ZPE_kJmol>  (4) 
160.84023508429246

>  <E_elec_kJmol>  (4) 
-547341.8942151149

>  <E0_minus_Eelec_plus_ZPE_kJmol>  (4) 
0.0

>  <rxn>  (4) 
rmg_rxn_3077

>  <species_type>  (4) 
p0

>  <species_folder>  (4) 
rmg_rxn_3077_p1_sbr-O-sbrN1CC1

>  <frequencies_cm1_list>  (4) 
[350.08577859892, 463.25369667251994, 761.6104748558798, 793.3977499021601, 893.5939327062799, 1016.15588669764, 1066.6762976968798, 1105.1726174008, 1123.1366509979198, 1153.9625480994, 1164.4896365949598, 1431.4917598071997, 1454.9768496016, 1497.97791167544, 3102.6413072824, 3105.09282104164, 3197.1310252856, 3209.5328007735197]

>  <E0_kJmol>  (4) 
-547181

>  <H298_kJmol>  (4) 
-547169

$$$$

     RDKit          3D

 13 12  0  0  0  0  0  0  0  0999 V2000
    2.2389    0.7017    0.3130 C   0  0  0  0  0  3  0  0  0  1  0  0
    0.9433    0.8223   -0.0376 O   0  0  0  0  0  0  0  0  0  2  0  0
    0.4736    2.1521   -0.1615 C   0  0  0  0  0  0  0  0  0  3  0  0
   -0.9782    2.0920   -0.5770 C   0  0  0  0  0  0  0  0  0  4  0  0
   -1.6070    3.4420   -0.7601 C   0  0  0  0  0  0  0  0  0  5  0  0
   -1.0369    4.4869   -0.6064 O   0  0  0  0  0  0  0  0  0  6  0  0
    2.5950   -0.3170    0.3352 H   0  0  0  0  0  0  0  0  0  7  0  0
    2.9060    1.5360    0.1249 H   0  0  0  0  0  0  0  0  0  8  0  0
    1.0668    2.6899   -0.9083 H   0  0  0  0  0  0  0  0  0  9  0  0
    0.5827    2.6771    0.7919 H   0  0  0  0  0  0  0  0  0 10  0  0
   -1.0904    1.5380   -1.5153 H   0  0  0  0  0  0  0  0  0 11  0  0
   -1.5701    1.5405    0.1613 H   0  0  0  0  0  0  0  0  0 12  0  0
   -2.6749    3.4222   -1.0597 H   0  0  0  0  0  0  0  0  0 13  0  0
  1  8  1  0
  1  7  1  0
  1  2  1  0
  2  3  1  0
  3  4  1  0
  3  9  1  0
  3 10  1  0
  4  5  1  0
  4 12  1  0
  4 11  1  0
  5  6  1  0
  5 13  1  0
M  RAD  1   1   2
M  END
>  <rmg_smiles>  (5) 
[CH2]OCC[CH]O

>  <rmg_adjacency_list>  (5) 
multiplicity 2
1  O u0 p2 c0 {4,S} {6,S}
2  O u0 p2 c0 {5,S}
3  C u0 p0 c0 {4,S} {5,S} {7,S} {8,S}
4  C u0 p0 c0 {1,S} {3,S} {9,S} {10,S}
5  C u0 p0 c0 {2,S} {3,S} {11,S}
6  C u1 p0 c0 {1,S} {12,S} {13,S}
7  H u0 p0 c0 {3,S}
8  H u0 p0 c0 {3,S}
9  H u0 p0 c0 {4,S}
10 H u0 p0 c0 {4,S}
11 H u0 p0 c0 {5,S}
12 H u0 p0 c0 {6,S}
13 H u0 p0 c0 {6,S}


>  <multiplicity>  (5) 
2

>  <reaction>  (5) 
rmg_rxn_3077

>  <type>  (5) 
r2

>  <role_mapnums>  (5) 
{}

>  <role_mapidx>  (5) 
{}

>  <ordered_mapped_smiles>  (5) 
[C:1]([O:2][C:3]([C:4]([CH:5]([OH:6])[H:13])([H:11])[H:12])([H:9])[H:10])([H:7])[H:8]

>  <level_of_theory>  (5) 
wb97xd/def2tzvp

>  <lot_method>  (5) 
wb97xd

>  <lot_basis>  (5) 
def2tzvp

>  <spin_multiplicity>  (5) 
2.0

>  <optical_isomers>  (5) 
2.0

>  <modes>  (5) 
IdealGasTranslation(mass=(87.0446, 'amu')),         NonlinearRotor(             inertia = ([39.3973, 312.178, 345.105

>  <frequency_value>  (5) 
unknown

>  <frequency_units>  (5) 
unknown

>  <frequency_list>  (5) 
unknown

>  <arkane_path>  (5) 
/home/calvin/Dropbox/PersonalFolders/Calvin/ATLAS_Converged/rmg_rxn_3077/output/Species/rmg_rxn_3077_r2_sbr-CH2-sbrOCCC=O/arkane/output.py

>  <path_exists>  (5) 
True

>  <E0_value>  (5) 
-805813.0942219706

>  <E0_units>  (5) 
kJ/mol

>  <thermo_class>  (5) 
NASA

>  <Cp0_value>  (5) 
33.257888

>  <Cp0_units>  (5) 
J/(mol*K)

>  <CpInf_value>  (5) 
307.635464

>  <CpInf_units>  (5) 
J/(mol*K)

>  <Tmin_value>  (5) 
10.0

>  <Tmin_units>  (5) 
K

>  <Tmax_value>  (5) 
3000.0

>  <Tmax_units>  (5) 
K

>  <polynomials>  (5) 
[{"name": "polynomial1", "class": "NASAPolynomial", "Tmin_value": 10.0, "Tmin_units": "K", "Tmax_value": 414.6583286272444, "Tmax_units": "K", "coeffs": [3.5213955153033805, 0.04950404286745235, -0.0001162835276888271, 2.774339007469907e-07, -2.4024729419818314e-10, -96916927.6005055, 12.199171526820322]}, {"name": "polynomial2", "class": "NASAPolynomial", "Tmin_value": 414.6583286272444, "Tmin_units": "K", "Tmax_value": 3000.0, "Tmax_units": "K", "coeffs": [1.4929641498880108, 0.047115653256105276, -2.8220538080763198e-05, 8.158176786033852e-09, -9.127599307775052e-13, -96916570.62495346, 22.475574150730193]}]

>  <H298_value>  (5) 
-192588.6710645513

>  <H298_units>  (5) 
kcal/mol

>  <S298_value>  (5) 
87.08637821339352

>  <S298_units>  (5) 
cal/(mol*K)

>  <Cp_T_value_list>  (5) 
[26.731510611051675, 32.43734489698392, 37.674217693248984, 42.22184842456786, 49.53601539300777, 54.913463254006075, 62.76240565191949, 66.57812208990585, 68.58979288190817]

>  <Cp_T_units>  (5) 
cal/(mol*K)

>  <T_list>  (5) 
[300.0, 400.0, 500.0, 600.0, 800.0, 1000.0, 1500.0, 2000.0, 2400.0]

>  <T_units>  (5) 
K

>  <yaml_path>  (5) 
/home/calvin/Dropbox/PersonalFolders/Calvin/ATLAS_Converged/rmg_rxn_3077/output/Species/rmg_rxn_3077_r2_sbr-CH2-sbrOCCC=O/rmg_rxn_3077_r2_sbr-CH2-sbrOCCC=O.yml

>  <frequencies_cm1>  (5) 
[80.60467368615998, 88.38496805372, 151.38955836472002, 173.47378315383997, 276.47169596852, 308.33450785331996, 451.06479772951997, 539.39482990068, 678.3894797627999, 693.0024245237599, 889.8926276188, 911.8875815987599, 1010.22281138116, 1095.8472513362399, 1123.5074682051998, 1202.08638122196, 1221.6229544573598, 1296.50742937196, 1300.0576607823998, 1325.6028461728001, 1408.20581258708, 1416.80327820772, 1451.6738296626797, 1476.58725240364, 1502.1805066912798, 1822.3811651775598, 2879.2926097493996, 3002.54812925808, 3016.6323161493997, 3039.33456961732, 3059.7501169736797, 3097.4567333657997, 3244.59562781744]

>  <ZPE_kJmol>  (5) 
270.56658511886525

>  <E_elec_kJmol>  (5) 
-806083.6608070895

>  <E0_minus_Eelec_plus_ZPE_kJmol>  (5) 
0.0

>  <rxn>  (5) 
rmg_rxn_3077

>  <species_type>  (5) 
r1

>  <species_folder>  (5) 
rmg_rxn_3077_r2_sbr-CH2-sbrOCCC=O

>  <frequencies_cm1_list>  (5) 
[80.60467368615998, 88.38496805372, 151.38955836472002, 173.47378315383997, 276.47169596852, 308.33450785331996, 451.06479772951997, 539.39482990068, 678.3894797627999, 693.0024245237599, 889.8926276188, 911.8875815987599, 1010.22281138116, 1095.8472513362399, 1123.5074682051998, 1202.08638122196, 1221.6229544573598, 1296.50742937196, 1300.0576607823998, 1325.6028461728001, 1408.20581258708, 1416.80327820772, 1451.6738296626797, 1476.58725240364, 1502.1805066912798, 1822.3811651775598, 2879.2926097493996, 3002.54812925808, 3016.6323161493997, 3039.33456961732, 3059.7501169736797, 3097.4567333657997, 3244.59562781744]

>  <E0_kJmol>  (5) 
-805813

>  <H298_kJmol>  (5) 
-805791

$$$$
