
     RDKit          3D

  9  8  0  0  0  0  0  0  0  0999 V2000
   -0.6157   -0.7225    1.3889 C   0  0  0  0  0  0  0  0  0  1  0  0
   -0.4395    0.2440    0.4063 O   0  0  0  0  0  0  0  0  0  2  0  0
    0.4557   -0.1942   -0.5473 N   0  0  0  0  0  0  0  0  0  3  0  0
    0.6787    0.6907   -1.4213 C   0  0  0  0  0  0  0  0  0  4  0  0
    0.2897   -0.7650    1.9914 H   0  0  0  0  0  0  0  0  0  5  0  0
   -0.7518   -1.7251    0.9836 H   0  0  0  0  0  0  0  0  0  6  0  0
   -1.4179   -0.3935    2.0439 H   0  0  0  0  0  0  0  0  0  7  0  0
    1.3669    0.4246   -2.2124 H   0  0  0  0  0  0  0  0  0  8  0  0
    0.2102    1.6718   -1.3962 H   0  0  0  0  0  0  0  0  0  9  0  0
  1  5  1  0
  1  7  1  0
  1  2  1  0
  1  6  1  0
  2  3  1  0
  3  4  1  0
  4  8  1  0
  4  9  1  0
M  END
>  <rmg_smiles>  (1) 
CO[N][CH2]

>  <rmg_adjacency_list>  (1) 
1 O u0 p2 c0 {2,S} {3,S}
2 N u0 p1 c0 {1,S} {4,S}
3 C u0 p0 c0 {1,S} {5,S} {6,S} {7,S}
4 C u0 p0 c0 {2,S} {8,S} {9,S}
5 H u0 p0 c0 {3,S}
6 H u0 p0 c0 {3,S}
7 H u0 p0 c0 {3,S}
8 H u0 p0 c0 {4,S}
9 H u0 p0 c0 {4,S}


>  <multiplicity>  (1) 
1

>  <reaction>  (1) 
rmg_rxn_15614

>  <type>  (1) 
r1h

>  <role_mapnums>  (1) 
{"r1h_a": 1, "r1h_h": 5}

>  <role_mapidx>  (1) 
{"r1h_a": 0, "r1h_h": 4}

>  <ordered_mapped_smiles>  (1) 
[C:1]([O:2][NH:3][CH:4]([H:8])[H:9])([H:5])([H:6])[H:7]

>  <mol_properties>  (1) 
{"0": {"label": "donator", "atom_type": "Cs"}, "4": {"label": "d_hydrogen", "atom_type": "H0"}}

>  <level_of_theory>  (1) 
wb97xd/def2tzvp

>  <lot_method>  (1) 
wb97xd

>  <lot_basis>  (1) 
def2tzvp

>  <spin_multiplicity>  (1) 
1.0

>  <optical_isomers>  (1) 
1.0

>  <modes>  (1) 
IdealGasTranslation(mass=(59.0371, 'amu')),         NonlinearRotor(             inertia = ([11.9742, 101.538, 110.304

>  <frequency_value>  (1) 
unknown

>  <frequency_units>  (1) 
unknown

>  <frequency_list>  (1) 
unknown

>  <arkane_path>  (1) 
/home/calvin/Dropbox/PersonalFolders/Calvin/ZEUS_Converged/rmg_rxn_15614/output/Species/rmg_rxn_15614_r1_CON=C/arkane/output.py

>  <path_exists>  (1) 
True

>  <E0_value>  (1) 
-548882.9200394232

>  <E0_units>  (1) 
kJ/mol

>  <thermo_class>  (1) 
NASA

>  <Cp0_value>  (1) 
33.257888

>  <Cp0_units>  (1) 
J/(mol*K)

>  <CpInf_value>  (1) 
207.8618

>  <CpInf_units>  (1) 
J/(mol*K)

>  <Tmin_value>  (1) 
10.0

>  <Tmin_units>  (1) 
K

>  <Tmax_value>  (1) 
3000.0

>  <Tmax_units>  (1) 
K

>  <polynomials>  (1) 
[{"name": "polynomial1", "class": "NASAPolynomial", "Tmin_value": 10.0, "Tmin_units": "K", "Tmax_value": 1066.0445442103917, "Tmax_units": "K", "coeffs": [3.9488472240731216, 0.012909444164008412, 1.8432835387873368e-05, -2.5565901414715004e-08, 8.632634293818456e-12, -66015370.98001154, 7.906058800048573]}, {"name": "polynomial2", "class": "NASAPolynomial", "Tmin_value": 1066.0445442103917, "Tmin_units": "K", "Tmax_value": 3000.0, "Tmax_units": "K", "coeffs": [4.051174026649639, 0.02340322367340144, -1.163838712217072e-05, 2.8112466199843713e-09, -2.6680947262736413e-13, -66016010.897278614, 4.506810904924114]}]

>  <H298_value>  (1) 
-131182.46582067996

>  <H298_units>  (1) 
kcal/mol

>  <S298_value>  (1) 
69.27397375028742

>  <S298_units>  (1) 
cal/(mol*K)

>  <Cp_T_value_list>  (1) 
[17.607207323409234, 21.157104611048137, 24.5530891366924, 27.67560467885903, 32.827861850696166, 36.480858050170255, 41.94371504002133, 44.76201379304356, 46.08804102499818]

>  <Cp_T_units>  (1) 
cal/(mol*K)

>  <T_list>  (1) 
[300.0, 400.0, 500.0, 600.0, 800.0, 1000.0, 1500.0, 2000.0, 2400.0]

>  <T_units>  (1) 
K

>  <yaml_path>  (1) 
/home/calvin/Dropbox/PersonalFolders/Calvin/ZEUS_Converged/rmg_rxn_15614/output/Species/rmg_rxn_15614_r1_CON=C/rmg_rxn_15614_r1_CON=C.yml

>  <frequencies_cm1>  (1) 
[119.61601728907998, 180.59484693068, 346.29520270228, 574.9726808436, 796.6046320465999, 891.08061607916, 982.9746136314, 1126.32979917172, 1169.7222794088, 1171.7686410341598, 1237.71230106212, 1418.12173938916, 1456.2266409298397, 1467.4060930307999, 1493.1160860688801, 1708.0183916582798, 3005.45973103376, 3077.28153049564, 3083.54422110748, 3121.53925088304, 3213.405780494]

>  <ZPE_kJmol>  (1) 
189.2599943319938

>  <E_elec_kJmol>  (1) 
-549072.1800337551

>  <E0_minus_Eelec_plus_ZPE_kJmol>  (1) 
0.0

>  <rxn>  (1) 
rmg_rxn_15614

>  <species_type>  (1) 
r0

>  <species_folder>  (1) 
rmg_rxn_15614_r1_CON=C

>  <frequencies_cm1_list>  (1) 
[119.61601728907998, 180.59484693068, 346.29520270228, 574.9726808436, 796.6046320465999, 891.08061607916, 982.9746136314, 1126.32979917172, 1169.7222794088, 1171.7686410341598, 1237.71230106212, 1418.12173938916, 1456.2266409298397, 1467.4060930307999, 1493.1160860688801, 1708.0183916582798, 3005.45973103376, 3077.28153049564, 3083.54422110748, 3121.53925088304, 3213.405780494]

>  <E0_kJmol>  (1) 
-548883

>  <H298_kJmol>  (1) 
-548867

$$$$

     RDKit          3D

 14 14  0  0  0  0  0  0  0  0999 V2000
   -2.3495   -0.3107   -0.2133 H   0  0  0  0  0  0  0  0  0  1  0  0
   -1.3783   -0.2821    0.2786 C   0  0  0  0  0  0  0  0  0  2  0  0
   -0.4924   -1.2539   -0.4580 C   0  0  0  0  0  0  0  0  0  3  0  0
    0.8658   -1.0592   -0.0760 O   0  0  0  0  0  0  0  0  0  4  0  0
    1.2566    0.2637   -0.2831 C   0  0  0  0  0  0  0  0  0  5  0  0
    0.5190    1.1776    0.4714 O   0  0  0  0  0  0  0  0  0  6  0  0
   -0.8610    1.1250    0.1254 C   0  0  0  0  0  0  0  0  0  7  0  0
   -1.5767   -0.5643    1.3115 H   0  0  0  0  0  0  0  0  0  8  0  0
   -0.7336   -2.2905   -0.2283 H   0  0  0  0  0  0  0  0  0  9  0  0
   -0.5918   -1.1043   -1.5427 H   0  0  0  0  0  0  0  0  0 10  0  0
    1.1591    0.5117   -1.3562 H   0  0  0  0  0  0  0  0  0 11  0  0
    2.2941    0.3475    0.0338 H   0  0  0  0  0  0  0  0  0 12  0  0
   -0.9844    1.4625   -0.9142 H   0  0  0  0  0  0  0  0  0 13  0  0
   -1.3733    1.8292    0.7788 H   0  0  0  0  0  0  0  0  0 14  0  0
  1  2  1  0
  2  8  1  0
  2  7  1  0
  2  3  1  0
  3  4  1  0
  3  9  1  0
  3 10  1  0
  4  5  1  0
  5 11  1  0
  5 12  1  0
  5  6  1  0
  6  7  1  0
  7 13  1  0
  7 14  1  0
M  END
>  <rmg_smiles>  (2) 
C1COCOC1

>  <rmg_adjacency_list>  (2) 
1  O u0 p2 c0 {4,S} {6,S}
2  O u0 p2 c0 {5,S} {6,S}
3  C u0 p0 c0 {4,S} {5,S} {7,S} {8,S}
4  C u0 p0 c0 {1,S} {3,S} {9,S} {10,S}
5  C u0 p0 c0 {2,S} {3,S} {11,S} {12,S}
6  C u0 p0 c0 {1,S} {2,S} {13,S} {14,S}
7  H u0 p0 c0 {3,S}
8  H u0 p0 c0 {3,S}
9  H u0 p0 c0 {4,S}
10 H u0 p0 c0 {4,S}
11 H u0 p0 c0 {5,S}
12 H u0 p0 c0 {5,S}
13 H u0 p0 c0 {6,S}
14 H u0 p0 c0 {6,S}


>  <multiplicity>  (2) 
1

>  <reaction>  (2) 
rmg_rxn_15614

>  <type>  (2) 
r2h

>  <role_mapnums>  (2) 
{"r2h_a": 2, "r2h_h": 1}

>  <role_mapidx>  (2) 
{"r2h_a": 1, "r2h_h": 0}

>  <ordered_mapped_smiles>  (2) 
[H:1][C:2]1([H:8])[C:3]([H:9])([H:10])[O:4][C:5]([H:11])([H:12])[O:6][C:7]1([H:13])[H:14]

>  <mol_properties>  (2) 
{"0": {"label": "a_hydrogen", "atom_type": "H0"}, "1": {"label": "acceptor", "atom_type": "Cs"}}

>  <level_of_theory>  (2) 
wb97xd/def2tzvp

>  <lot_method>  (2) 
wb97xd

>  <lot_basis>  (2) 
def2tzvp

>  <spin_multiplicity>  (2) 
1.0

>  <optical_isomers>  (2) 
1.0

>  <modes>  (2) 
IdealGasTranslation(mass=(88.0524, 'amu')),         NonlinearRotor(             inertia = ([100.123, 103.988, 181.806

>  <frequency_value>  (2) 
unknown

>  <frequency_units>  (2) 
unknown

>  <frequency_list>  (2) 
unknown

>  <arkane_path>  (2) 
/home/calvin/Dropbox/PersonalFolders/Calvin/ZEUS_Converged/rmg_rxn_15614/output/Species/rmg_rxn_15614_p2_C1COCOC1/arkane/output.py

>  <path_exists>  (2) 
True

>  <E0_value>  (2) 
-807534.4862541101

>  <E0_units>  (2) 
kJ/mol

>  <thermo_class>  (2) 
NASA

>  <Cp0_value>  (2) 
33.257888

>  <Cp0_units>  (2) 
J/(mol*K)

>  <CpInf_value>  (2) 
332.57888

>  <CpInf_units>  (2) 
J/(mol*K)

>  <Tmin_value>  (2) 
10.0

>  <Tmin_units>  (2) 
K

>  <Tmax_value>  (2) 
3000.0

>  <Tmax_units>  (2) 
K

>  <polynomials>  (2) 
[{"name": "polynomial1", "class": "NASAPolynomial", "Tmin_value": 10.0, "Tmin_units": "K", "Tmax_value": 635.6133108204667, "Tmax_units": "K", "coeffs": [4.089859846547851, -0.00720853879564987, 0.00016188921931772023, -2.401519893438705e-07, 1.1441025782213875e-10, -97123964.81371374, 9.940068375164508]}, {"name": "polynomial2", "class": "NASAPolynomial", "Tmin_value": 635.6133108204667, "Tmin_units": "K", "Tmax_value": 3000.0, "Tmax_units": "K", "coeffs": [-3.623423511686486, 0.05886764268076858, -3.542799994133682e-05, 1.020943336284747e-08, -1.1338722579771073e-12, -97123338.50049376, 40.87037082096811]}]

>  <H298_value>  (2) 
-193001.58453999052

>  <H298_units>  (2) 
kcal/mol

>  <S298_value>  (2) 
72.30963326519608

>  <S298_units>  (2) 
cal/(mol*K)

>  <Cp_T_value_list>  (2) 
[21.739934439433213, 29.14813570588532, 35.94764696452701, 41.730532176406555, 50.79213666149929, 57.41393370116716, 66.9323937138755, 71.40703214797205, 73.744608953261]

>  <Cp_T_units>  (2) 
cal/(mol*K)

>  <T_list>  (2) 
[300.0, 400.0, 500.0, 600.0, 800.0, 1000.0, 1500.0, 2000.0, 2400.0]

>  <T_units>  (2) 
K

>  <yaml_path>  (2) 
/home/calvin/Dropbox/PersonalFolders/Calvin/ZEUS_Converged/rmg_rxn_15614/output/Species/rmg_rxn_15614_p2_C1COCOC1/rmg_rxn_15614_p2_C1COCOC1.yml

>  <frequencies_cm1>  (2) 
[264.26219606955993, 269.44676998615995, 439.22611503784, 466.70779028847994, 494.62208561427997, 656.81341188736, 851.50617968, 900.41284912904, 919.12538412604, 926.80954069912, 1013.8966485273598, 1037.6289497932798, 1094.57685905204, 1112.95291176836, 1188.75069573052, 1216.28730686372, 1226.8487302858798, 1252.366447735, 1315.55644664964, 1328.3633742714399, 1363.72148168412, 1380.93701388136, 1404.8272558096398, 1432.53554157584, 1460.95799381532, 1489.42164796672, 1490.0946125280798, 1506.58911126672, 2894.63345495428, 2944.5289702893997, 2950.530715459079, 3031.06671929204, 3080.8454958767197, 3088.2893079635996, 3091.87387430064, 3110.9160245929997]

>  <ZPE_kJmol>  (2) 
321.1850391352071

>  <E_elec_kJmol>  (2) 
-807855.6712932453

>  <E0_minus_Eelec_plus_ZPE_kJmol>  (2) 
0.0

>  <rxn>  (2) 
rmg_rxn_15614

>  <species_type>  (2) 
p1

>  <species_folder>  (2) 
rmg_rxn_15614_p2_C1COCOC1

>  <frequencies_cm1_list>  (2) 
[264.26219606955993, 269.44676998615995, 439.22611503784, 466.70779028847994, 494.62208561427997, 656.81341188736, 851.50617968, 900.41284912904, 919.12538412604, 926.80954069912, 1013.8966485273598, 1037.6289497932798, 1094.57685905204, 1112.95291176836, 1188.75069573052, 1216.28730686372, 1226.8487302858798, 1252.366447735, 1315.55644664964, 1328.3633742714399, 1363.72148168412, 1380.93701388136, 1404.8272558096398, 1432.53554157584, 1460.95799381532, 1489.42164796672, 1490.0946125280798, 1506.58911126672, 2894.63345495428, 2944.5289702893997, 2950.530715459079, 3031.06671929204, 3080.8454958767197, 3088.2893079635996, 3091.87387430064, 3110.9160245929997]

>  <E0_kJmol>  (2) 
-807534

>  <H298_kJmol>  (2) 
-807519

$$$$

     RDKit          3D

 22 21  0  0  0  0  0  0  0  0999 V2000
   -2.4535   -0.3475   -0.0532 C   0  0  0  0  0  0  0  0  0  1  0  0
   -2.2774    0.6191   -1.0357 O   0  0  0  0  0  0  0  0  0  2  0  0
   -1.3822    0.1808   -1.9893 N   0  0  0  0  0  0  0  0  0  3  0  0
   -1.1591    1.0657   -2.8634 C   0  0  0  0  0  0  0  0  0  4  0  0
   -1.3516   -0.3992    0.6802 H   0  0  0  0  0  0  0  0  0  5  0  0
   -2.5897   -1.3501   -0.4585 H   0  0  0  0  0  0  0  0  0  6  0  0
   -3.2558   -0.0185    0.6018 H   0  0  0  0  0  0  0  0  0  7  0  0
   -0.4710    0.7997   -3.6545 H   0  0  0  0  0  0  0  0  0  8  0  0
   -1.6277    2.0468   -2.8383 H   0  0  0  0  0  0  0  0  0  9  0  0
   -0.1231   -0.3630    1.3025 C   0  0  0  0  0  3  0  0  0 10  0  0
    0.7628   -1.3348    0.5659 C   0  0  0  0  0  0  0  0  0 11  0  0
    2.1210   -1.1401    0.9479 O   0  0  0  0  0  0  0  0  0 12  0  0
    2.5118    0.1828    0.7408 C   0  0  0  0  0  0  0  0  0 13  0  0
    1.7742    1.0967    1.4953 O   0  0  0  0  0  0  0  0  0 14  0  0
    0.3942    1.0441    1.1493 C   0  0  0  0  0  0  0  0  0 15  0  0
   -0.3215   -0.6452    2.3354 H   0  0  0  0  0  0  0  0  0 16  0  0
    0.5216   -2.3714    0.7956 H   0  0  0  0  0  0  0  0  0 17  0  0
    0.6634   -1.1852   -0.5188 H   0  0  0  0  0  0  0  0  0 18  0  0
    2.4143    0.4308   -0.3323 H   0  0  0  0  0  0  0  0  0 19  0  0
    3.5493    0.2666    1.0577 H   0  0  0  0  0  0  0  0  0 20  0  0
    0.2708    1.3816    0.1097 H   0  0  0  0  0  0  0  0  0 21  0  0
   -0.1181    1.7483    1.8027 H   0  0  0  0  0  0  0  0  0 22  0  0
  1  7  1  0
  1  2  1  0
  1  5  1  0
  1  6  1  0
  2  3  1  0
  3  4  1  0
  4  9  1  0
  4  8  1  0
 10 16  1  0
 10 11  1  0
 10 15  1  0
 11 12  1  0
 11 17  1  0
 11 18  1  0
 12 13  1  0
 13 19  1  0
 13 20  1  0
 13 14  1  0
 14 15  1  0
 15 22  1  0
 15 21  1  0
M  RAD  1  10   2
M  END
>  <rmg_smiles>  (3) 
C1[CH]COCO1.CO[N][CH2]

>  <rmg_adjacency_list>  (3) 
multiplicity 2
1  O u0 p2 c0 {5,S} {7,S}
2  O u0 p2 c0 {6,S} {7,S}
3  O u0 p2 c0 {4,S} {8,S}
4  N u0 p1 c0 {3,S} {10,S}
5  C u0 p0 c0 {1,S} {9,S} {11,S} {12,S}
6  C u0 p0 c0 {2,S} {9,S} {13,S} {14,S}
7  C u0 p0 c0 {1,S} {2,S} {15,S} {16,S}
8  C u0 p0 c0 {3,S} {17,S} {18,S} {19,S}
9  C u1 p0 c0 {5,S} {6,S} {20,S}
10 C u0 p0 c0 {4,S} {21,S} {22,S}
11 H u0 p0 c0 {5,S}
12 H u0 p0 c0 {5,S}
13 H u0 p0 c0 {6,S}
14 H u0 p0 c0 {6,S}
15 H u0 p0 c0 {7,S}
16 H u0 p0 c0 {7,S}
17 H u0 p0 c0 {8,S}
18 H u0 p0 c0 {8,S}
19 H u0 p0 c0 {8,S}
20 H u0 p0 c0 {9,S}
21 H u0 p0 c0 {10,S}
22 H u0 p0 c0 {10,S}


>  <multiplicity>  (3) 
2

>  <reaction>  (3) 
rmg_rxn_15614

>  <type>  (3) 
ts

>  <role_mapnums>  (3) 
{"*2": 5, "*1": 1, "*3": 10, "*0": 2, "*4": 11}

>  <role_mapidx>  (3) 
{"*2": 4, "*1": 0, "*3": 9, "*0": 1, "*4": 10}

>  <ordered_mapped_smiles>  (3) 
[C:1]([O:2][NH:3][CH:4]([H:8])[H:9])([H:5])([H:6])[H:7].[C:10]1([H:16])[C:11]([H:17])([H:18])[O:12][C:13]([H:19])([H:20])[O:14][C:15]1([H:21])[H:22]

>  <mol_properties>  (3) 
{"0": {"label": "*1", "atom_type": "Cs"}, "1": {"label": "*0", "atom_type": "O2s"}, "4": {"label": "*2", "atom_type": "H0"}, "9": {"label": "*3", "atom_type": "Cs"}, "10": {"label": "*4", "atom_type": "Cs"}}

>  <level_of_theory>  (3) 
wb97xd/def2tzvp

>  <lot_method>  (3) 
wb97xd

>  <lot_basis>  (3) 
def2tzvp

>  <spin_multiplicity>  (3) 
2.0

>  <optical_isomers>  (3) 
2.0

>  <modes>  (3) 
IdealGasTranslation(mass=(146.082, 'amu')),         NonlinearRotor(             inertia = ([241.593, 722.517, 763.943

>  <frequency_value>  (3) 
-1735.27

>  <frequency_units>  (3) 
cm^-1

>  <frequency_list>  (3) 
unknown

>  <arkane_path>  (3) 
/home/calvin/Dropbox/PersonalFolders/Calvin/ZEUS_Converged/rmg_rxn_15614/output/rxns/TS0/arkane/output.py

>  <path_exists>  (3) 
True

>  <E0_value>  (3) 
-1354640.0

>  <E0_units>  (3) 
kJ/mol

>  <thermo_class>  (3) 
unknown

>  <Cp0_value>  (3) 
unknown

>  <Cp0_units>  (3) 
unknown

>  <CpInf_value>  (3) 
unknown

>  <CpInf_units>  (3) 
unknown

>  <Tmin_value>  (3) 
unknown

>  <Tmin_units>  (3) 
unknown

>  <Tmax_value>  (3) 
unknown

>  <Tmax_units>  (3) 
unknown

>  <polynomials>  (3) 
unknown

>  <H298_value>  (3) 
unknown

>  <H298_units>  (3) 
unknown

>  <S298_value>  (3) 
unknown

>  <S298_units>  (3) 
unknown

>  <Cp_T_value_list>  (3) 
unknown

>  <Cp_T_units>  (3) 
unknown

>  <T_list>  (3) 
unknown

>  <T_units>  (3) 
unknown

>  <yaml_path>  (3) 
unknown

>  <frequencies_cm1>  (3) 
unknown

>  <ZPE_kJmol>  (3) 
unknown

>  <E_elec_kJmol>  (3) 
unknown

>  <E0_minus_Eelec_plus_ZPE_kJmol>  (3) 
unknown

>  <rxn>  (3) 
unknown

>  <species_type>  (3) 
unknown

>  <species_folder>  (3) 
unknown

>  <frequencies_cm1_list>  (3) 
[]

>  <ts_imag_freq_cm1>  (3) 
-1756.3451

>  <ts_freq_out_path>  (3) 
/home/calvin/Dropbox/PersonalFolders/Calvin/ZEUS_Converged/rmg_rxn_15614/output/rxns/TS0/geometry/freq.out

>  <E0_kJmol>  (3) 
-1.35464e+06

>  <H298_kJmol>  (3) 
unknown

$$$$

     RDKit          3D

  8  7  0  0  0  0  0  0  0  0999 V2000
    1.7077   -0.1964   -0.0607 C   0  0  0  0  0  3  0  0  0  1  0  0
    0.4209   -0.4565    0.2808 O   0  0  0  0  0  0  0  0  0  2  0  0
   -0.4607    0.4385   -0.2968 N   0  0  0  0  0  0  0  0  0  3  0  0
   -1.6584    0.1416   -0.0244 C   0  0  0  0  0  0  0  0  0  4  0  0
    2.4163   -0.7685    0.5170 H   0  0  0  0  0  0  0  0  0  5  0  0
    1.9214    0.7645   -0.5045 H   0  0  0  0  0  0  0  0  0  6  0  0
   -2.4185    0.7953   -0.4307 H   0  0  0  0  0  0  0  0  0  7  0  0
   -1.9286   -0.7185    0.5831 H   0  0  0  0  0  0  0  0  0  8  0  0
  1  6  1  0
  1  5  1  0
  1  2  1  0
  2  3  1  0
  3  4  1  0
  4  8  1  0
  4  7  1  0
M  RAD  1   1   2
M  END
>  <rmg_smiles>  (4) 
[CH2]O[N][CH2]

>  <rmg_adjacency_list>  (4) 
multiplicity 2
1 O u0 p2 c0 {2,S} {3,S}
2 N u0 p1 c0 {1,S} {4,S}
3 C u1 p0 c0 {1,S} {5,S} {6,S}
4 C u0 p0 c0 {2,S} {7,S} {8,S}
5 H u0 p0 c0 {3,S}
6 H u0 p0 c0 {3,S}
7 H u0 p0 c0 {4,S}
8 H u0 p0 c0 {4,S}


>  <multiplicity>  (4) 
2

>  <reaction>  (4) 
rmg_rxn_15614

>  <type>  (4) 
r1

>  <role_mapnums>  (4) 
{}

>  <role_mapidx>  (4) 
{}

>  <ordered_mapped_smiles>  (4) 
[C:1]([O:2][NH:3][CH:4]([H:7])[H:8])([H:5])[H:6]

>  <level_of_theory>  (4) 
wb97xd/def2tzvp

>  <lot_method>  (4) 
wb97xd

>  <lot_basis>  (4) 
def2tzvp

>  <spin_multiplicity>  (4) 
2.0

>  <optical_isomers>  (4) 
2.0

>  <modes>  (4) 
IdealGasTranslation(mass=(58.0293, 'amu')),         NonlinearRotor(             inertia = ([10.2741, 95.4529, 105.582

>  <frequency_value>  (4) 
unknown

>  <frequency_units>  (4) 
unknown

>  <frequency_list>  (4) 
unknown

>  <arkane_path>  (4) 
/home/calvin/Dropbox/PersonalFolders/Calvin/ZEUS_Converged/rmg_rxn_15614/output/Species/rmg_rxn_15614_p1_sbr-CH2-sbrON=C/arkane/output.py

>  <path_exists>  (4) 
True

>  <E0_value>  (4) 
-547168.2732446302

>  <E0_units>  (4) 
kJ/mol

>  <thermo_class>  (4) 
NASA

>  <Cp0_value>  (4) 
33.257888

>  <Cp0_units>  (4) 
J/(mol*K)

>  <CpInf_value>  (4) 
182.918384

>  <CpInf_units>  (4) 
J/(mol*K)

>  <Tmin_value>  (4) 
10.0

>  <Tmin_units>  (4) 
K

>  <Tmax_value>  (4) 
3000.0

>  <Tmax_units>  (4) 
K

>  <polynomials>  (4) 
[{"name": "polynomial1", "class": "NASAPolynomial", "Tmin_value": 10.0, "Tmin_units": "K", "Tmax_value": 253.2842427910515, "Tmax_units": "K", "coeffs": [3.956862909385456, 0.0038362890131335746, 0.00011727738047703725, -3.4736244039427427e-07, 3.472729073035136e-10, -65809144.38694886, 9.350338763280796]}, {"name": "polynomial2", "class": "NASAPolynomial", "Tmin_value": 253.2842427910515, "Tmin_units": "K", "Tmax_value": 3000.0, "Tmax_units": "K", "coeffs": [2.5252197328965313, 0.026445761179553072, -1.662161754135038e-05, 5.074735532607581e-09, -5.97403912324656e-13, -65809071.86505469, 14.291183066674913]}]

>  <H298_value>  (4) 
-130772.65860702786

>  <H298_units>  (4) 
kcal/mol

>  <S298_value>  (4) 
71.26914844977757

>  <S298_units>  (4) 
cal/(mol*K)

>  <Cp_T_value_list>  (4) 
[18.0740035969719, 21.369534269323825, 24.223451351766553, 26.683440747612977, 30.598134113509214, 33.438117676478754, 37.554421513360474, 39.68390492467901, 40.91110806828642]

>  <Cp_T_units>  (4) 
cal/(mol*K)

>  <T_list>  (4) 
[300.0, 400.0, 500.0, 600.0, 800.0, 1000.0, 1500.0, 2000.0, 2400.0]

>  <T_units>  (4) 
K

>  <yaml_path>  (4) 
/home/calvin/Dropbox/PersonalFolders/Calvin/ZEUS_Converged/rmg_rxn_15614/output/Species/rmg_rxn_15614_p1_sbr-CH2-sbrON=C/rmg_rxn_15614_p1_sbr-CH2-sbrON=C.yml

>  <frequencies_cm1>  (4) 
[132.13453152744, 273.14807507364, 360.4549264321199, 498.69420790903996, 595.9169860696, 789.3942974605999, 873.74834513148, 993.5360370535599, 1152.01232426852, 1206.54305469464, 1257.0497317232398, 1417.2771001948001, 1437.260027476, 1705.2166616477198, 3090.5210781926, 3134.7719315946797, 3218.94057066192, 3282.16490450316]

>  <ZPE_kJmol>  (4) 
152.0381400376291

>  <E_elec_kJmol>  (4) 
-547320.3113846679

>  <E0_minus_Eelec_plus_ZPE_kJmol>  (4) 
0.0

>  <rxn>  (4) 
rmg_rxn_15614

>  <species_type>  (4) 
p0

>  <species_folder>  (4) 
rmg_rxn_15614_p1_sbr-CH2-sbrON=C

>  <frequencies_cm1_list>  (4) 
[132.13453152744, 273.14807507364, 360.4549264321199, 498.69420790903996, 595.9169860696, 789.3942974605999, 873.74834513148, 993.5360370535599, 1152.01232426852, 1206.54305469464, 1257.0497317232398, 1417.2771001948001, 1437.260027476, 1705.2166616477198, 3090.5210781926, 3134.7719315946797, 3218.94057066192, 3282.16490450316]

>  <E0_kJmol>  (4) 
-547168

>  <H298_kJmol>  (4) 
-547153

$$$$

     RDKit          3D

 13 13  0  0  0  0  0  0  0  0999 V2000
   -1.1371    0.3608    0.3110 C   0  0  0  0  0  3  0  0  0  1  0  0
   -0.0045    1.3224    0.2943 C   0  0  0  0  0  0  0  0  0  2  0  0
    1.2245    0.6965    0.6137 O   0  0  0  0  0  0  0  0  0  3  0  0
    1.3926   -0.4921   -0.0955 C   0  0  0  0  0  0  0  0  0  4  0  0
    0.4387   -1.4537    0.2351 O   0  0  0  0  0  0  0  0  0  5  0  0
   -0.8659   -1.0349   -0.1206 C   0  0  0  0  0  0  0  0  0  6  0  0
   -2.1544    0.7285    0.3341 H   0  0  0  0  0  0  0  0  0  7  0  0
   -0.1488    2.1272    1.0165 H   0  0  0  0  0  0  0  0  0  8  0  0
    0.0825    1.7949   -0.7036 H   0  0  0  0  0  0  0  0  0  9  0  0
    1.3549   -0.2872   -1.1815 H   0  0  0  0  0  0  0  0  0 10  0  0
    2.3646   -0.8956    0.1787 H   0  0  0  0  0  0  0  0  0 11  0  0
   -1.5620   -1.7401    0.3358 H   0  0  0  0  0  0  0  0  0 12  0  0
   -0.9852   -1.1268   -1.2179 H   0  0  0  0  0  0  0  0  0 13  0  0
  1  7  1  0
  1  6  1  0
  1  2  1  0
  2  9  1  0
  2  8  1  0
  2  3  1  0
  3  4  1  0
  4 10  1  0
  4 11  1  0
  4  5  1  0
  5  6  1  0
  6 13  1  0
  6 12  1  0
M  RAD  1   1   2
M  END
>  <rmg_smiles>  (5) 
[CH]1COCOC1

>  <rmg_adjacency_list>  (5) 
multiplicity 2
1  O u0 p2 c0 {3,S} {5,S}
2  O u0 p2 c0 {4,S} {5,S}
3  C u0 p0 c0 {1,S} {6,S} {7,S} {8,S}
4  C u0 p0 c0 {2,S} {6,S} {9,S} {10,S}
5  C u0 p0 c0 {1,S} {2,S} {11,S} {12,S}
6  C u1 p0 c0 {3,S} {4,S} {13,S}
7  H u0 p0 c0 {3,S}
8  H u0 p0 c0 {3,S}
9  H u0 p0 c0 {4,S}
10 H u0 p0 c0 {4,S}
11 H u0 p0 c0 {5,S}
12 H u0 p0 c0 {5,S}
13 H u0 p0 c0 {6,S}


>  <multiplicity>  (5) 
2

>  <reaction>  (5) 
rmg_rxn_15614

>  <type>  (5) 
r2

>  <role_mapnums>  (5) 
{}

>  <role_mapidx>  (5) 
{}

>  <ordered_mapped_smiles>  (5) 
[C:1]1([H:7])[C:2]([H:8])([H:9])[O:3][C:4]([H:10])([H:11])[O:5][C:6]1([H:12])[H:13]

>  <level_of_theory>  (5) 
wb97xd/def2tzvp

>  <lot_method>  (5) 
wb97xd

>  <lot_basis>  (5) 
def2tzvp

>  <spin_multiplicity>  (5) 
2.0

>  <optical_isomers>  (5) 
1.0

>  <modes>  (5) 
IdealGasTranslation(mass=(87.0446, 'amu')),         NonlinearRotor(             inertia = ([94.1512, 104.116, 181.381

>  <frequency_value>  (5) 
unknown

>  <frequency_units>  (5) 
unknown

>  <frequency_list>  (5) 
unknown

>  <arkane_path>  (5) 
/home/calvin/Dropbox/PersonalFolders/Calvin/ZEUS_Converged/rmg_rxn_15614/output/Species/rmg_rxn_15614_r2_sbr-CH-sbr1COCOC1/arkane/output.py

>  <path_exists>  (5) 
True

>  <E0_value>  (5) 
-805805.5046036665

>  <E0_units>  (5) 
kJ/mol

>  <thermo_class>  (5) 
NASA

>  <Cp0_value>  (5) 
33.257888

>  <Cp0_units>  (5) 
J/(mol*K)

>  <CpInf_value>  (5) 
307.635464

>  <CpInf_units>  (5) 
J/(mol*K)

>  <Tmin_value>  (5) 
10.0

>  <Tmin_units>  (5) 
K

>  <Tmax_value>  (5) 
3000.0

>  <Tmax_units>  (5) 
K

>  <polynomials>  (5) 
[{"name": "polynomial1", "class": "NASAPolynomial", "Tmin_value": 10.0, "Tmin_units": "K", "Tmax_value": 532.5926345059144, "Tmax_units": "K", "coeffs": [3.9895711295808565, 0.00012535715645340125, 0.00014225625034104, -2.3937485815869983e-07, 1.2960891091762458e-10, -96916014.70387508, 10.805978614123847]}, {"name": "polynomial2", "class": "NASAPolynomial", "Tmin_value": 532.5926345059144, "Tmin_units": "K", "Tmax_value": 3000.0, "Tmax_units": "K", "coeffs": [-2.1098678860324562, 0.05423140386013053, -3.3495373401903903e-05, 9.86924139770801e-09, -1.1163000521996037e-12, -96915482.66965945, 35.284927549352]}]

>  <H298_value>  (5) 
-192588.08392280544

>  <H298_units>  (5) 
kcal/mol

>  <S298_value>  (5) 
75.57885402958051

>  <S298_units>  (5) 
cal/(mol*K)

>  <Cp_T_value_list>  (5) 
[22.687840868581763, 29.408095189973025, 35.36236344272194, 40.455000802812464, 48.555465881876614, 54.407933295609055, 62.65675700515869, 66.50102411777198, 68.57529108996806]

>  <Cp_T_units>  (5) 
cal/(mol*K)

>  <T_list>  (5) 
[300.0, 400.0, 500.0, 600.0, 800.0, 1000.0, 1500.0, 2000.0, 2400.0]

>  <T_units>  (5) 
K

>  <yaml_path>  (5) 
/home/calvin/Dropbox/PersonalFolders/Calvin/ZEUS_Converged/rmg_rxn_15614/output/Species/rmg_rxn_15614_r2_sbr-CH-sbr1COCOC1/rmg_rxn_15614_r2_sbr-CH-sbr1COCOC1.yml

>  <frequencies_cm1>  (5) 
[160.7904612678, 218.47313795579996, 380.63699628759997, 397.61905098395994, 478.6700787159199, 564.4249913920801, 779.7187151447199, 882.67542604748, 889.45314055832, 925.19579914892, 971.94623520748, 1029.1550899084, 1052.7912533798399, 1117.945210096, 1165.49221645168, 1207.6761072724398, 1217.9628512817999, 1281.02237747536, 1319.57363306184, 1356.37380739172, 1370.56099906284, 1398.8323776252798, 1427.65311501332, 1465.7648835393202, 1466.5751878070798, 1501.09552301072, 2858.88392937836, 2864.07537028028, 2892.532157446359, 3063.8291062537596, 3064.5570066976798, 3113.5117450439598, 3176.61934013476]

>  <ZPE_kJmol>  (5) 
281.49387475166685

>  <E_elec_kJmol>  (5) 
-806086.9984784181

>  <E0_minus_Eelec_plus_ZPE_kJmol>  (5) 
0.0

>  <rxn>  (5) 
rmg_rxn_15614

>  <species_type>  (5) 
r1

>  <species_folder>  (5) 
rmg_rxn_15614_r2_sbr-CH-sbr1COCOC1

>  <frequencies_cm1_list>  (5) 
[160.7904612678, 218.47313795579996, 380.63699628759997, 397.61905098395994, 478.6700787159199, 564.4249913920801, 779.7187151447199, 882.67542604748, 889.45314055832, 925.19579914892, 971.94623520748, 1029.1550899084, 1052.7912533798399, 1117.945210096, 1165.49221645168, 1207.6761072724398, 1217.9628512817999, 1281.02237747536, 1319.57363306184, 1356.37380739172, 1370.56099906284, 1398.8323776252798, 1427.65311501332, 1465.7648835393202, 1466.5751878070798, 1501.09552301072, 2858.88392937836, 2864.07537028028, 2892.532157446359, 3063.8291062537596, 3064.5570066976798, 3113.5117450439598, 3176.61934013476]

>  <E0_kJmol>  (5) 
-805806

>  <H298_kJmol>  (5) 
-805789

$$$$
