
     RDKit          3D

  9  8  0  0  0  0  0  0  0  0999 V2000
   -0.1683   -1.0621   -1.1681 C   0  0  0  0  0  0  0  0  0  1  0  0
   -0.1649   -0.8133    0.3128 C   0  0  0  0  0  0  0  0  0  2  0  0
   -0.1675    0.5074    0.7925 N   0  0  0  0  0  0  0  0  0  3  0  0
    0.4125    1.3450    0.1400 O   0  0  0  0  0  0  0  0  0  4  0  0
    0.5407   -0.4006   -1.6648 H   0  0  0  0  0  0  0  0  0  5  0  0
    0.1168   -2.0972   -1.3621 H   0  0  0  0  0  0  0  0  0  6  0  0
   -1.1602   -0.8935   -1.5934 H   0  0  0  0  0  0  0  0  0  7  0  0
    0.8311   -1.1557    0.5834 H   0  0  0  0  0  0  0  0  0  8  0  0
   -0.8101   -1.4387    0.9253 H   0  0  0  0  0  0  0  0  0  9  0  0
  1  5  1  0
  1  7  1  0
  1  6  1  0
  1  2  1  0
  2  3  1  0
  2  9  1  0
  2  8  1  0
  3  4  1  0
M  END
>  <rmg_smiles>  (1) 
CC[N][O]

>  <rmg_adjacency_list>  (1) 
1 O u0 p2 c0 {2,S}
2 N u0 p1 c0 {1,S} {3,S}
3 C u0 p0 c0 {2,S} {4,S} {5,S} {6,S}
4 C u0 p0 c0 {3,S} {7,S} {8,S} {9,S}
5 H u0 p0 c0 {3,S}
6 H u0 p0 c0 {3,S}
7 H u0 p0 c0 {4,S}
8 H u0 p0 c0 {4,S}
9 H u0 p0 c0 {4,S}


>  <multiplicity>  (1) 
1

>  <reaction>  (1) 
rmg_rxn_1988

>  <type>  (1) 
r1h

>  <role_mapnums>  (1) 
{"r1h_a": 2, "r1h_h": 8}

>  <role_mapidx>  (1) 
{"r1h_a": 1, "r1h_h": 7}

>  <ordered_mapped_smiles>  (1) 
[C:1]([C:2]([NH:3][OH:4])([H:8])[H:9])([H:5])([H:6])[H:7]

>  <mol_properties>  (1) 
{"1": {"label": "donator", "atom_type": "Cs"}, "7": {"label": "d_hydrogen", "atom_type": "H0"}}

>  <level_of_theory>  (1) 
wb97xd/def2tzvp

>  <lot_method>  (1) 
wb97xd

>  <lot_basis>  (1) 
def2tzvp

>  <spin_multiplicity>  (1) 
1.0

>  <optical_isomers>  (1) 
1.0

>  <modes>  (1) 
IdealGasTranslation(mass=(59.0371, 'amu')),         NonlinearRotor(             inertia = ([29.0143, 77.6306, 100.462

>  <frequency_value>  (1) 
unknown

>  <frequency_units>  (1) 
unknown

>  <frequency_list>  (1) 
unknown

>  <arkane_path>  (1) 
/home/calvin/Dropbox/PersonalFolders/Calvin/ATLAS_Converged/rmg_rxn_1988/output/Species/rmg_rxn_1988_r2_CCN=O/arkane/output.py

>  <path_exists>  (1) 
True

>  <E0_value>  (1) 
-548877.558747515

>  <E0_units>  (1) 
kJ/mol

>  <thermo_class>  (1) 
NASA

>  <Cp0_value>  (1) 
33.257888

>  <Cp0_units>  (1) 
J/(mol*K)

>  <CpInf_value>  (1) 
207.8618

>  <CpInf_units>  (1) 
J/(mol*K)

>  <Tmin_value>  (1) 
10.0

>  <Tmin_units>  (1) 
K

>  <Tmax_value>  (1) 
3000.0

>  <Tmax_units>  (1) 
K

>  <polynomials>  (1) 
[{"name": "polynomial1", "class": "NASAPolynomial", "Tmin_value": 10.0, "Tmin_units": "K", "Tmax_value": 852.4467273079296, "Tmax_units": "K", "coeffs": [3.8936881543548516, 0.010863357132079992, 2.9518886027981582e-05, -4.241660668924857e-08, 1.6548322072430634e-11, -66014722.52296326, 8.31212640355373]}, {"name": "polynomial2", "class": "NASAPolynomial", "Tmin_value": 852.4467273079296, "Tmin_units": "K", "Tmax_value": 3000.0, "Tmax_units": "K", "coeffs": [1.958278249526995, 0.028191398788375954, -1.5482894354402147e-05, 4.125838418636631e-09, -4.294786972329381e-13, -66014692.17386343, 15.58298456087749]}]

>  <H298_value>  (1) 
-131181.2546973709

>  <H298_units>  (1) 
kcal/mol

>  <S298_value>  (1) 
68.95858975357608

>  <S298_units>  (1) 
cal/(mol*K)

>  <Cp_T_value_list>  (1) 
[17.483816518754196, 21.205534203635445, 24.715448679483146, 27.862973885513348, 32.86313144341251, 36.49135596500743, 42.04796388055017, 44.80066956867266, 46.148264111815415]

>  <Cp_T_units>  (1) 
cal/(mol*K)

>  <T_list>  (1) 
[300.0, 400.0, 500.0, 600.0, 800.0, 1000.0, 1500.0, 2000.0, 2400.0]

>  <T_units>  (1) 
K

>  <yaml_path>  (1) 
/home/calvin/Dropbox/PersonalFolders/Calvin/ATLAS_Converged/rmg_rxn_1988/output/Species/rmg_rxn_1988_r2_CCN=O/rmg_rxn_1988_r2_CCN=O.yml

>  <frequencies_cm1>  (1) 
[158.20847478748, 231.91869521236, 304.63320276584, 688.52515009512, 725.82661435336, 817.79614874412, 992.8287375655999, 1036.4272273622798, 1118.5151698775599, 1253.84971656412, 1336.8441011416398, 1399.8555584379599, 1435.5776160726, 1473.98466496736, 1481.49027992212, 1699.7642753036398, 3019.11129784992, 3032.8315345192796, 3052.86253069772, 3109.68683422072, 3112.3100226129595]

>  <ZPE_kJmol>  (1) 
188.30930234902567

>  <E_elec_kJmol>  (1) 
-549065.868049864

>  <E0_minus_Eelec_plus_ZPE_kJmol>  (1) 
0.0

>  <rxn>  (1) 
rmg_rxn_1988

>  <species_type>  (1) 
r1

>  <species_folder>  (1) 
rmg_rxn_1988_r2_CCN=O

>  <frequencies_cm1_list>  (1) 
[158.20847478748, 231.91869521236, 304.63320276584, 688.52515009512, 725.82661435336, 817.79614874412, 992.8287375655999, 1036.4272273622798, 1118.5151698775599, 1253.84971656412, 1336.8441011416398, 1399.8555584379599, 1435.5776160726, 1473.98466496736, 1481.49027992212, 1699.7642753036398, 3019.11129784992, 3032.8315345192796, 3052.86253069772, 3109.68683422072, 3112.3100226129595]

>  <E0_kJmol>  (1) 
-548878

>  <H298_kJmol>  (1) 
-548862

$$$$

     RDKit          3D

  9  8  0  0  0  0  0  0  0  0999 V2000
    1.2893    0.2313    0.9560 C   0  0  0  0  0  0  0  0  0  1  0  0
   -0.1206    0.5911    0.6456 C   0  0  0  0  0  0  0  0  0  2  0  0
   -0.7466    0.0474   -0.3336 N   0  0  0  0  0  0  0  0  0  3  0  0
   -0.3697   -0.7981   -1.1509 O   0  0  0  0  0  0  0  0  0  4  0  0
    1.9334    0.4419    0.0987 H   0  0  0  0  0  0  0  0  0  5  0  0
    1.3749   -0.8378    1.1647 H   0  0  0  0  0  0  0  0  0  6  0  0
    1.6475    0.7922    1.8163 H   0  0  0  0  0  0  0  0  0  7  0  0
   -0.6874    1.3216    1.2062 H   0  0  0  0  0  0  0  0  0  8  0  0
   -1.7157    0.4118   -0.4323 H   0  0  0  0  0  0  0  0  0  9  0  0
  1  5  1  0
  1  7  1  0
  1  6  1  0
  1  2  1  0
  2  3  1  0
  2  8  1  0
  3  9  1  0
  3  4  1  0
M  END
>  <rmg_smiles>  (2) 
C[CH]N[O]

>  <rmg_adjacency_list>  (2) 
1 O u0 p2 c0 {2,S}
2 N u0 p1 c0 {1,S} {4,S} {9,S}
3 C u0 p0 c0 {4,S} {5,S} {6,S} {7,S}
4 C u0 p0 c0 {2,S} {3,S} {8,S}
5 H u0 p0 c0 {3,S}
6 H u0 p0 c0 {3,S}
7 H u0 p0 c0 {3,S}
8 H u0 p0 c0 {4,S}
9 H u0 p0 c0 {2,S}


>  <multiplicity>  (2) 
1

>  <reaction>  (2) 
rmg_rxn_1988

>  <type>  (2) 
r2h

>  <role_mapnums>  (2) 
{"r2h_a": 3, "r2h_h": 9}

>  <role_mapidx>  (2) 
{"r2h_a": 2, "r2h_h": 8}

>  <ordered_mapped_smiles>  (2) 
[C:1]([CH:2]([N:3]([OH:4])[H:9])[H:8])([H:5])([H:6])[H:7]

>  <mol_properties>  (2) 
{"2": {"label": "acceptor", "atom_type": "N3s"}, "8": {"label": "a_hydrogen", "atom_type": "H0"}}

>  <level_of_theory>  (2) 
wb97xd/def2tzvp

>  <lot_method>  (2) 
wb97xd

>  <lot_basis>  (2) 
def2tzvp

>  <spin_multiplicity>  (2) 
1.0

>  <optical_isomers>  (2) 
1.0

>  <modes>  (2) 
IdealGasTranslation(mass=(59.0371, 'amu')),         NonlinearRotor(             inertia = ([26.5013, 79.1041, 102.523

>  <frequency_value>  (2) 
unknown

>  <frequency_units>  (2) 
unknown

>  <frequency_list>  (2) 
unknown

>  <arkane_path>  (2) 
/home/calvin/Dropbox/PersonalFolders/Calvin/ATLAS_Converged/rmg_rxn_1988/output/Species/rmg_rxn_1988_p2_sbr-O--sbrsbr-NHp-sbr=CC/arkane/output.py

>  <path_exists>  (2) 
True

>  <E0_value>  (2) 
-548899.2374133063

>  <E0_units>  (2) 
kJ/mol

>  <thermo_class>  (2) 
NASA

>  <Cp0_value>  (2) 
33.257888

>  <Cp0_units>  (2) 
J/(mol*K)

>  <CpInf_value>  (2) 
207.8618

>  <CpInf_units>  (2) 
J/(mol*K)

>  <Tmin_value>  (2) 
10.0

>  <Tmin_units>  (2) 
K

>  <Tmax_value>  (2) 
3000.0

>  <Tmax_units>  (2) 
K

>  <polynomials>  (2) 
[{"name": "polynomial1", "class": "NASAPolynomial", "Tmin_value": 10.0, "Tmin_units": "K", "Tmax_value": 436.2874465697053, "Tmax_units": "K", "coeffs": [3.9617010239623665, 0.0023337489713970757, 7.865555695703099e-05, -1.4158961725143215e-07, 8.331596838306643e-11, -66017327.48290812, 8.889678914765318]}, {"name": "polynomial2", "class": "NASAPolynomial", "Tmin_value": 436.2874465697053, "Tmin_units": "K", "Tmax_value": 3000.0, "Tmax_units": "K", "coeffs": [0.9246596642192386, 0.030177743416151148, -1.7073468593818903e-05, 4.686431197025922e-09, -5.014091907615439e-13, -66017062.47437317, 21.022606932467212]}]

>  <H298_value>  (2) 
-131186.60847224397

>  <H298_units>  (2) 
kcal/mol

>  <S298_value>  (2) 
68.68392134489982

>  <S298_units>  (2) 
cal/(mol*K)

>  <Cp_T_value_list>  (2) 
[17.075599501796415, 20.967498706933146, 24.441904792817724, 27.48732554014393, 32.45885226806823, 36.19489275065385, 41.83922536725542, 44.6230690351806, 46.01920365154162]

>  <Cp_T_units>  (2) 
cal/(mol*K)

>  <T_list>  (2) 
[300.0, 400.0, 500.0, 600.0, 800.0, 1000.0, 1500.0, 2000.0, 2400.0]

>  <T_units>  (2) 
K

>  <yaml_path>  (2) 
/home/calvin/Dropbox/PersonalFolders/Calvin/ATLAS_Converged/rmg_rxn_1988/output/Species/rmg_rxn_1988_p2_sbr-O--sbrsbr-NHp-sbr=CC/rmg_rxn_1988_p2_sbr-O--sbrsbr-NHp-sbr=CC.yml

>  <frequencies_cm1>  (2) 
[105.73097297204, 269.88625704663997, 457.38929120923996, 723.71844986012, 740.6387016885999, 940.3443687648398, 966.17796753868, 1035.82293265412, 1117.6567967125598, 1166.6870718973598, 1383.1138482278, 1424.84451801744, 1452.31932628276, 1463.12796117644, 1539.9695269072402, 1681.5667642056399, 3011.0219891429592, 3063.3278163253995, 3123.619947435, 3195.9636377812003, 3344.2149838546798]

>  <ZPE_kJmol>  (2) 
192.64155141597303

>  <E_elec_kJmol>  (2) 
-549091.8789647223

>  <E0_minus_Eelec_plus_ZPE_kJmol>  (2) 
0.0

>  <rxn>  (2) 
rmg_rxn_1988

>  <species_type>  (2) 
p1

>  <species_folder>  (2) 
rmg_rxn_1988_p2_sbr-O--sbrsbr-NHp-sbr=CC

>  <frequencies_cm1_list>  (2) 
[105.73097297204, 269.88625704663997, 457.38929120923996, 723.71844986012, 740.6387016885999, 940.3443687648398, 966.17796753868, 1035.82293265412, 1117.6567967125598, 1166.6870718973598, 1383.1138482278, 1424.84451801744, 1452.31932628276, 1463.12796117644, 1539.9695269072402, 1681.5667642056399, 3011.0219891429592, 3063.3278163253995, 3123.619947435, 3195.9636377812003, 3344.2149838546798]

>  <E0_kJmol>  (2) 
-548899

>  <H298_kJmol>  (2) 
-548885

$$$$

     RDKit          3D

 17 15  0  0  0  0  0  0  0  0999 V2000
    2.9090   -0.5753    1.1671 C   0  0  0  0  0  0  0  0  0  1  0  0
    1.4990   -0.2155    0.8567 C   0  0  0  0  0  0  0  0  0  2  0  0
    0.8730   -0.7591   -0.1225 N   0  0  0  0  0  0  0  0  0  3  0  0
    1.2499   -1.6047   -0.9398 O   0  0  0  0  0  0  0  0  0  4  0  0
    3.5530   -0.3647    0.3098 H   0  0  0  0  0  0  0  0  0  5  0  0
    2.9945   -1.6444    1.3757 H   0  0  0  0  0  0  0  0  0  6  0  0
    3.2671   -0.0143    2.0274 H   0  0  0  0  0  0  0  0  0  7  0  0
    0.9322    0.5150    1.4173 H   0  0  0  0  0  0  0  0  0  8  0  0
   -1.5526   -0.1368   -2.0582 C   0  0  0  0  0  0  0  0  0  9  0  0
   -1.5491    0.1120   -0.5773 C   0  0  0  0  0  0  0  0  0 10  0  0
   -1.5517    1.4327   -0.0977 N   0  0  0  0  0  0  0  0  0 11  0  0
   -0.9718    2.2703   -0.7501 O   0  0  0  0  0  1  0  0  0 12  0  0
   -0.8435    0.5248   -2.5549 H   0  0  0  0  0  0  0  0  0 13  0  0
   -1.2674   -1.1718   -2.2522 H   0  0  0  0  0  0  0  0  0 14  0  0
   -2.5444    0.0318   -2.4835 H   0  0  0  0  0  0  0  0  0 15  0  0
   -0.3240   -0.3090   -0.2445 H   0  0  0  0  0  0  0  0  0 16  0  0
   -2.1944   -0.5133    0.0352 H   0  0  0  0  0  0  0  0  0 17  0  0
  1  5  1  0
  1  7  1  0
  1  6  1  0
  1  2  1  0
  2  3  1  0
  2  8  1  0
  3 16  1  0
  3  4  1  0
  9 10  1  0
  9 14  1  0
  9 15  1  0
  9 13  1  0
 10 11  1  0
 10 17  1  0
 11 12  1  0
M  RAD  1  12   2
M  END
>  <rmg_smiles>  (3) 
C[CH][N][O].C[CH]N[O]

>  <rmg_adjacency_list>  (3) 
multiplicity 2
1  O u0 p2 c0 {3,S}
2  O u1 p2 c0 {4,S}
3  N u0 p1 c0 {1,S} {7,S} {17,S}
4  N u0 p1 c0 {2,S} {8,S}
5  C u0 p0 c0 {7,S} {9,S} {10,S} {11,S}
6  C u0 p0 c0 {8,S} {12,S} {13,S} {14,S}
7  C u0 p0 c0 {3,S} {5,S} {15,S}
8  C u0 p0 c0 {4,S} {6,S} {16,S}
9  H u0 p0 c0 {5,S}
10 H u0 p0 c0 {5,S}
11 H u0 p0 c0 {5,S}
12 H u0 p0 c0 {6,S}
13 H u0 p0 c0 {6,S}
14 H u0 p0 c0 {6,S}
15 H u0 p0 c0 {7,S}
16 H u0 p0 c0 {8,S}
17 H u0 p0 c0 {3,S}


>  <multiplicity>  (3) 
2

>  <reaction>  (3) 
rmg_rxn_1988

>  <type>  (3) 
ts

>  <role_mapnums>  (3) 
{"*2": 16, "*1": 10, "*3": 3, "*0": 2, "*4": 11}

>  <role_mapidx>  (3) 
{"*2": 15, "*1": 9, "*3": 2, "*0": 1, "*4": 10}

>  <ordered_mapped_smiles>  (3) 
[C:1]([CH:2]([N:3]([OH:4])[H:16])[H:8])([H:5])([H:6])[H:7].[C:9]([CH:10]([NH:11][O:12])[H:17])([H:13])([H:14])[H:15]

>  <mol_properties>  (3) 
{"1": {"label": "*0", "atom_type": "Cs"}, "2": {"label": "*3", "atom_type": "N3s"}, "9": {"label": "*1", "atom_type": "Cs"}, "10": {"label": "*4", "atom_type": "N3s"}, "15": {"label": "*2", "atom_type": "H0"}}

>  <level_of_theory>  (3) 
wb97xd/def2tzvp

>  <lot_method>  (3) 
wb97xd

>  <lot_basis>  (3) 
def2tzvp

>  <spin_multiplicity>  (3) 
2.0

>  <optical_isomers>  (3) 
2.0

>  <modes>  (3) 
IdealGasTranslation(mass=(117.066, 'amu')),         NonlinearRotor(             inertia = ([162.889, 466.148, 575.517

>  <frequency_value>  (3) 
-2312.67

>  <frequency_units>  (3) 
cm^-1

>  <frequency_list>  (3) 
unknown

>  <arkane_path>  (3) 
/home/calvin/Dropbox/PersonalFolders/Calvin/ATLAS_Converged/rmg_rxn_1988/output/rxns/TS0/arkane/output.py

>  <path_exists>  (3) 
True

>  <E0_value>  (3) 
-1096090.0

>  <E0_units>  (3) 
kJ/mol

>  <thermo_class>  (3) 
unknown

>  <Cp0_value>  (3) 
unknown

>  <Cp0_units>  (3) 
unknown

>  <CpInf_value>  (3) 
unknown

>  <CpInf_units>  (3) 
unknown

>  <Tmin_value>  (3) 
unknown

>  <Tmin_units>  (3) 
unknown

>  <Tmax_value>  (3) 
unknown

>  <Tmax_units>  (3) 
unknown

>  <polynomials>  (3) 
unknown

>  <H298_value>  (3) 
unknown

>  <H298_units>  (3) 
unknown

>  <S298_value>  (3) 
unknown

>  <S298_units>  (3) 
unknown

>  <Cp_T_value_list>  (3) 
unknown

>  <Cp_T_units>  (3) 
unknown

>  <T_list>  (3) 
unknown

>  <T_units>  (3) 
unknown

>  <yaml_path>  (3) 
unknown

>  <frequencies_cm1>  (3) 
unknown

>  <ZPE_kJmol>  (3) 
unknown

>  <E_elec_kJmol>  (3) 
unknown

>  <E0_minus_Eelec_plus_ZPE_kJmol>  (3) 
unknown

>  <rxn>  (3) 
unknown

>  <species_type>  (3) 
unknown

>  <species_folder>  (3) 
unknown

>  <frequencies_cm1_list>  (3) 
[]

>  <ts_imag_freq_cm1>  (3) 
-2340.7607

>  <ts_freq_out_path>  (3) 
/home/calvin/Dropbox/PersonalFolders/Calvin/ATLAS_Converged/rmg_rxn_1988/output/rxns/TS0/geometry/freq.out

>  <E0_kJmol>  (3) 
-1.09609e+06

>  <H298_kJmol>  (3) 
unknown

$$$$

     RDKit          3D

  8  7  0  0  0  0  0  0  0  0999 V2000
   -0.9728    0.1768    0.1542 C   0  0  0  0  0  0  0  0  0  1  0  0
    0.4518   -0.2348    0.0047 C   0  0  0  0  0  0  0  0  0  2  0  0
    1.3116    0.0208    0.9062 N   0  0  0  0  0  0  0  0  0  3  0  0
    2.5018   -0.1901    1.0428 O   0  0  0  0  0  1  0  0  0  4  0  0
   -1.2701    0.8423   -0.6593 H   0  0  0  0  0  0  0  0  0  5  0  0
   -1.6318   -0.6936    0.1212 H   0  0  0  0  0  0  0  0  0  6  0  0
   -1.1258    0.6936    1.1003 H   0  0  0  0  0  0  0  0  0  7  0  0
    0.7882   -0.7655   -0.8838 H   0  0  0  0  0  0  0  0  0  8  0  0
  1  5  1  0
  1  7  1  0
  1  6  1  0
  1  2  1  0
  2  3  1  0
  2  8  1  0
  3  4  1  0
M  RAD  1   4   2
M  END
>  <rmg_smiles>  (4) 
C[CH][N][O]

>  <rmg_adjacency_list>  (4) 
multiplicity 2
1 O u1 p2 c0 {2,S}
2 N u0 p1 c0 {1,S} {4,S}
3 C u0 p0 c0 {4,S} {5,S} {6,S} {7,S}
4 C u0 p0 c0 {2,S} {3,S} {8,S}
5 H u0 p0 c0 {3,S}
6 H u0 p0 c0 {3,S}
7 H u0 p0 c0 {3,S}
8 H u0 p0 c0 {4,S}


>  <multiplicity>  (4) 
2

>  <reaction>  (4) 
rmg_rxn_1988

>  <type>  (4) 
r1

>  <role_mapnums>  (4) 
{}

>  <role_mapidx>  (4) 
{}

>  <ordered_mapped_smiles>  (4) 
[C:1]([CH:2]([NH:3][O:4])[H:8])([H:5])([H:6])[H:7]

>  <level_of_theory>  (4) 
wb97xd/def2tzvp

>  <lot_method>  (4) 
wb97xd

>  <lot_basis>  (4) 
def2tzvp

>  <spin_multiplicity>  (4) 
2.0

>  <optical_isomers>  (4) 
1.0

>  <modes>  (4) 
IdealGasTranslation(mass=(58.0293, 'amu')),         NonlinearRotor(             inertia = ([9.31113, 114.15, 120.338

>  <frequency_value>  (4) 
unknown

>  <frequency_units>  (4) 
unknown

>  <frequency_list>  (4) 
unknown

>  <arkane_path>  (4) 
/home/calvin/Dropbox/PersonalFolders/Calvin/ATLAS_Converged/rmg_rxn_1988/output/Species/rmg_rxn_1988_p1_CC=Nsbr-O-sbr/arkane/output.py

>  <path_exists>  (4) 
True

>  <E0_value>  (4) 
-547291.9822369756

>  <E0_units>  (4) 
kJ/mol

>  <thermo_class>  (4) 
NASA

>  <Cp0_value>  (4) 
33.257888

>  <Cp0_units>  (4) 
J/(mol*K)

>  <CpInf_value>  (4) 
182.918384

>  <CpInf_units>  (4) 
J/(mol*K)

>  <Tmin_value>  (4) 
10.0

>  <Tmin_units>  (4) 
K

>  <Tmax_value>  (4) 
3000.0

>  <Tmax_units>  (4) 
K

>  <polynomials>  (4) 
[{"name": "polynomial1", "class": "NASAPolynomial", "Tmin_value": 10.0, "Tmin_units": "K", "Tmax_value": 448.469821583942, "Tmax_units": "K", "coeffs": [3.8887722230996813, 0.008399169692485739, 4.23423230637367e-05, -8.042531461118158e-08, 4.6620175661053446e-11, -65824018.56271867, 8.787674089328345]}, {"name": "polynomial2", "class": "NASAPolynomial", "Tmin_value": 448.469821583942, "Tmin_units": "K", "Tmax_value": 3000.0, "Tmax_units": "K", "coeffs": [1.9857514593635577, 0.025372613622198854, -1.4428825534244759e-05, 3.966995228918133e-09, -4.24376034853994e-13, -65823847.87311471, 16.442591867910245]}]

>  <H298_value>  (4) 
-130802.40292482237

>  <H298_units>  (4) 
kcal/mol

>  <S298_value>  (4) 
68.97171532665904

>  <S298_units>  (4) 
cal/(mol*K)

>  <Cp_T_value_list>  (4) 
[16.743153000165332, 20.010112573021154, 22.92084276433073, 25.469656650185197, 29.622633813984088, 32.733580935653485, 37.39926541997259, 39.66786469099458, 40.797255640626396]

>  <Cp_T_units>  (4) 
cal/(mol*K)

>  <T_list>  (4) 
[300.0, 400.0, 500.0, 600.0, 800.0, 1000.0, 1500.0, 2000.0, 2400.0]

>  <T_units>  (4) 
K

>  <yaml_path>  (4) 
/home/calvin/Dropbox/PersonalFolders/Calvin/ATLAS_Converged/rmg_rxn_1988/output/Species/rmg_rxn_1988_p1_CC=Nsbr-O-sbr/rmg_rxn_1988_p1_CC=Nsbr-O-sbr.yml

>  <frequencies_cm1>  (4) 
[167.29349636583999, 305.41603909232, 336.48228068, 536.4488931984, 789.99859216876, 920.0661611148798, 1055.0848264767199, 1131.0542850718798, 1256.94672694344, 1389.69928714968, 1433.0368315041999, 1463.78719176716, 1488.27486141828, 1754.1988679352798, 3017.2297438722394, 3076.07294107932, 3099.7159715360795, 3119.71263278792]

>  <ZPE_kJmol>  (4) 
157.55134027947926

>  <E_elec_kJmol>  (4) 
-547449.5335772551

>  <E0_minus_Eelec_plus_ZPE_kJmol>  (4) 
0.0

>  <rxn>  (4) 
rmg_rxn_1988

>  <species_type>  (4) 
p0

>  <species_folder>  (4) 
rmg_rxn_1988_p1_CC=Nsbr-O-sbr

>  <frequencies_cm1_list>  (4) 
[167.29349636583999, 305.41603909232, 336.48228068, 536.4488931984, 789.99859216876, 920.0661611148798, 1055.0848264767199, 1131.0542850718798, 1256.94672694344, 1389.69928714968, 1433.0368315041999, 1463.78719176716, 1488.27486141828, 1754.1988679352798, 3017.2297438722394, 3076.07294107932, 3099.7159715360795, 3119.71263278792]

>  <E0_kJmol>  (4) 
-547292

>  <H298_kJmol>  (4) 
-547277

$$$$

     RDKit          3D

  8  7  0  0  0  0  0  0  0  0999 V2000
   -0.9728    0.1768    0.1542 C   0  0  0  0  0  0  0  0  0  1  0  0
    0.4518   -0.2348    0.0047 C   0  0  0  0  0  0  0  0  0  2  0  0
    1.3116    0.0208    0.9062 N   0  0  0  0  0  0  0  0  0  3  0  0
    2.5018   -0.1901    1.0428 O   0  0  0  0  0  1  0  0  0  4  0  0
   -1.2701    0.8423   -0.6593 H   0  0  0  0  0  0  0  0  0  5  0  0
   -1.6318   -0.6936    0.1212 H   0  0  0  0  0  0  0  0  0  6  0  0
   -1.1258    0.6936    1.1003 H   0  0  0  0  0  0  0  0  0  7  0  0
    0.7882   -0.7655   -0.8838 H   0  0  0  0  0  0  0  0  0  8  0  0
  1  5  1  0
  1  7  1  0
  1  6  1  0
  1  2  1  0
  2  3  1  0
  2  8  1  0
  3  4  1  0
M  RAD  1   4   2
M  END
>  <rmg_smiles>  (5) 
C[CH][N][O]

>  <rmg_adjacency_list>  (5) 
multiplicity 2
1 O u1 p2 c0 {2,S}
2 N u0 p1 c0 {1,S} {4,S}
3 C u0 p0 c0 {4,S} {5,S} {6,S} {7,S}
4 C u0 p0 c0 {2,S} {3,S} {8,S}
5 H u0 p0 c0 {3,S}
6 H u0 p0 c0 {3,S}
7 H u0 p0 c0 {3,S}
8 H u0 p0 c0 {4,S}


>  <multiplicity>  (5) 
2

>  <reaction>  (5) 
rmg_rxn_1988

>  <type>  (5) 
r2

>  <role_mapnums>  (5) 
{}

>  <role_mapidx>  (5) 
{}

>  <ordered_mapped_smiles>  (5) 
[C:1]([CH:2]([NH:3][O:4])[H:8])([H:5])([H:6])[H:7]

>  <level_of_theory>  (5) 
wb97xd/def2tzvp

>  <lot_method>  (5) 
wb97xd

>  <lot_basis>  (5) 
def2tzvp

>  <spin_multiplicity>  (5) 
2.0

>  <optical_isomers>  (5) 
1.0

>  <modes>  (5) 
IdealGasTranslation(mass=(58.0293, 'amu')),         NonlinearRotor(             inertia = ([9.31113, 114.15, 120.338

>  <frequency_value>  (5) 
unknown

>  <frequency_units>  (5) 
unknown

>  <frequency_list>  (5) 
unknown

>  <arkane_path>  (5) 
/home/calvin/Dropbox/PersonalFolders/Calvin/ATLAS_Converged/rmg_rxn_1988/output/Species/rmg_rxn_1988_r1_CC=Nsbr-O-sbr/arkane/output.py

>  <path_exists>  (5) 
True

>  <E0_value>  (5) 
-547291.9822369756

>  <E0_units>  (5) 
kJ/mol

>  <thermo_class>  (5) 
NASA

>  <Cp0_value>  (5) 
33.257888

>  <Cp0_units>  (5) 
J/(mol*K)

>  <CpInf_value>  (5) 
182.918384

>  <CpInf_units>  (5) 
J/(mol*K)

>  <Tmin_value>  (5) 
10.0

>  <Tmin_units>  (5) 
K

>  <Tmax_value>  (5) 
3000.0

>  <Tmax_units>  (5) 
K

>  <polynomials>  (5) 
[{"name": "polynomial1", "class": "NASAPolynomial", "Tmin_value": 10.0, "Tmin_units": "K", "Tmax_value": 448.469821583942, "Tmax_units": "K", "coeffs": [3.8887722230996813, 0.008399169692485739, 4.23423230637367e-05, -8.042531461118158e-08, 4.6620175661053446e-11, -65824018.56271867, 8.787674089328345]}, {"name": "polynomial2", "class": "NASAPolynomial", "Tmin_value": 448.469821583942, "Tmin_units": "K", "Tmax_value": 3000.0, "Tmax_units": "K", "coeffs": [1.9857514593635577, 0.025372613622198854, -1.4428825534244759e-05, 3.966995228918133e-09, -4.24376034853994e-13, -65823847.87311471, 16.442591867910245]}]

>  <H298_value>  (5) 
-130802.40292482237

>  <H298_units>  (5) 
kcal/mol

>  <S298_value>  (5) 
68.97171532665904

>  <S298_units>  (5) 
cal/(mol*K)

>  <Cp_T_value_list>  (5) 
[16.743153000165332, 20.010112573021154, 22.92084276433073, 25.469656650185197, 29.622633813984088, 32.733580935653485, 37.39926541997259, 39.66786469099458, 40.797255640626396]

>  <Cp_T_units>  (5) 
cal/(mol*K)

>  <T_list>  (5) 
[300.0, 400.0, 500.0, 600.0, 800.0, 1000.0, 1500.0, 2000.0, 2400.0]

>  <T_units>  (5) 
K

>  <yaml_path>  (5) 
/home/calvin/Dropbox/PersonalFolders/Calvin/ATLAS_Converged/rmg_rxn_1988/output/Species/rmg_rxn_1988_r1_CC=Nsbr-O-sbr/rmg_rxn_1988_r1_CC=Nsbr-O-sbr.yml

>  <frequencies_cm1>  (5) 
[167.29349636583999, 305.41603909232, 336.48228068, 536.4488931984, 789.99859216876, 920.0661611148798, 1055.0848264767199, 1131.0542850718798, 1256.94672694344, 1389.69928714968, 1433.0368315041999, 1463.78719176716, 1488.27486141828, 1754.1988679352798, 3017.2297438722394, 3076.07294107932, 3099.7159715360795, 3119.71263278792]

>  <ZPE_kJmol>  (5) 
157.55134027947926

>  <E_elec_kJmol>  (5) 
-547449.5335772551

>  <E0_minus_Eelec_plus_ZPE_kJmol>  (5) 
0.0

>  <rxn>  (5) 
rmg_rxn_1988

>  <species_type>  (5) 
r0

>  <species_folder>  (5) 
rmg_rxn_1988_r1_CC=Nsbr-O-sbr

>  <frequencies_cm1_list>  (5) 
[167.29349636583999, 305.41603909232, 336.48228068, 536.4488931984, 789.99859216876, 920.0661611148798, 1055.0848264767199, 1131.0542850718798, 1256.94672694344, 1389.69928714968, 1433.0368315041999, 1463.78719176716, 1488.27486141828, 1754.1988679352798, 3017.2297438722394, 3076.07294107932, 3099.7159715360795, 3119.71263278792]

>  <E0_kJmol>  (5) 
-547292

>  <H298_kJmol>  (5) 
-547277

$$$$
