
     RDKit          3D

  9  9  0  0  0  0  0  0  0  0999 V2000
   -0.4203   -0.9746   -0.9063 O   0  0  0  0  0  0  0  0  0  1  0  0
    0.1882    0.1630   -0.4684 N   0  0  0  0  0  0  0  0  0  2  0  0
    0.8089    0.1351    0.8403 C   0  0  0  0  0  0  0  0  0  3  0  0
   -0.4489    0.9064    0.6009 C   0  0  0  0  0  0  0  0  0  4  0  0
   -0.8565   -1.4470   -0.1935 H   0  0  0  0  0  0  0  0  0  5  0  0
    1.7630    0.6408    0.9201 H   0  0  0  0  0  0  0  0  0  6  0  0
    0.7232   -0.7923    1.3945 H   0  0  0  0  0  0  0  0  0  7  0  0
   -1.3734    0.4957    0.9921 H   0  0  0  0  0  0  0  0  0  8  0  0
   -0.4131    1.9845    0.5009 H   0  0  0  0  0  0  0  0  0  9  0  0
  1  5  1  0
  1  2  1  0
  2  3  1  0
  2  4  1  0
  3  4  1  0
  3  6  1  0
  3  7  1  0
  4  8  1  0
  4  9  1  0
M  END
>  <rmg_smiles>  (1) 
ON1CC1

>  <rmg_adjacency_list>  (1) 
1 O u0 p2 c0 {2,S} {9,S}
2 N u0 p1 c0 {1,S} {3,S} {4,S}
3 C u0 p0 c0 {2,S} {4,S} {5,S} {6,S}
4 C u0 p0 c0 {2,S} {3,S} {7,S} {8,S}
5 H u0 p0 c0 {3,S}
6 H u0 p0 c0 {3,S}
7 H u0 p0 c0 {4,S}
8 H u0 p0 c0 {4,S}
9 H u0 p0 c0 {1,S}


>  <multiplicity>  (1) 
1

>  <reaction>  (1) 
rmg_rxn_3062

>  <type>  (1) 
r1h

>  <role_mapnums>  (1) 
{"r1h_a": 1, "r1h_h": 5}

>  <role_mapidx>  (1) 
{"r1h_a": 0, "r1h_h": 4}

>  <ordered_mapped_smiles>  (1) 
[O:1]([N:2]1[C:3]([H:6])([H:7])[C:4]1([H:8])[H:9])[H:5]

>  <mol_properties>  (1) 
{"0": {"label": "donator", "atom_type": "O2s"}, "4": {"label": "d_hydrogen", "atom_type": "H0"}}

>  <level_of_theory>  (1) 
wb97xd/def2tzvp

>  <lot_method>  (1) 
wb97xd

>  <lot_basis>  (1) 
def2tzvp

>  <spin_multiplicity>  (1) 
1.0

>  <optical_isomers>  (1) 
1.0

>  <modes>  (1) 
IdealGasTranslation(mass=(59.0371, 'amu')),         NonlinearRotor(             inertia = ([28.1872, 66.5407, 77.6102

>  <frequency_value>  (1) 
unknown

>  <frequency_units>  (1) 
unknown

>  <frequency_list>  (1) 
unknown

>  <arkane_path>  (1) 
/home/calvin/Dropbox/PersonalFolders/Calvin/ATLAS_Converged/rmg_rxn_3062/output/Species/rmg_rxn_3062_r1_ON1CC1/arkane/output.py

>  <path_exists>  (1) 
True

>  <E0_value>  (1) 
-548830.9755880404

>  <E0_units>  (1) 
kJ/mol

>  <thermo_class>  (1) 
NASA

>  <Cp0_value>  (1) 
33.257888

>  <Cp0_units>  (1) 
J/(mol*K)

>  <CpInf_value>  (1) 
207.8618

>  <CpInf_units>  (1) 
J/(mol*K)

>  <Tmin_value>  (1) 
10.0

>  <Tmin_units>  (1) 
K

>  <Tmax_value>  (1) 
3000.0

>  <Tmax_units>  (1) 
K

>  <polynomials>  (1) 
[{"name": "polynomial1", "class": "NASAPolynomial", "Tmin_value": 10.0, "Tmin_units": "K", "Tmax_value": 587.2199948559334, "Tmax_units": "K", "coeffs": [4.01290829659194, -0.0016502474955422339, 9.708642231333483e-05, -1.6094228553485929e-07, 8.484346380941685e-11, -66009118.08554968, 8.391880568105824]}, {"name": "polynomial2", "class": "NASAPolynomial", "Tmin_value": 587.2199948559334, "Tmin_units": "K", "Tmax_value": 3000.0, "Tmax_units": "K", "coeffs": [0.7337841600207903, 0.03241844705827431, -1.990752940299833e-05, 5.903220459412223e-09, -6.732998606532043e-13, -66008935.2494822, 20.743767898900355]}]

>  <H298_value>  (1) 
-131170.36722140852

>  <H298_units>  (1) 
kcal/mol

>  <S298_value>  (1) 
67.20815903717752

>  <S298_units>  (1) 
cal/(mol*K)

>  <Cp_T_value_list>  (1) 
[17.084813947658525, 21.379009937156017, 25.126876739126274, 28.23021137141331, 33.135452712013276, 36.71288976391953, 41.89886219457449, 44.500561578088046, 45.980647572639626]

>  <Cp_T_units>  (1) 
cal/(mol*K)

>  <T_list>  (1) 
[300.0, 400.0, 500.0, 600.0, 800.0, 1000.0, 1500.0, 2000.0, 2400.0]

>  <T_units>  (1) 
K

>  <yaml_path>  (1) 
/home/calvin/Dropbox/PersonalFolders/Calvin/ATLAS_Converged/rmg_rxn_3062/output/Species/rmg_rxn_3062_r1_ON1CC1/rmg_rxn_3062_r1_ON1CC1.yml

>  <frequencies_cm1>  (1) 
[133.13711138415997, 422.03805078188, 447.52830028972, 737.70649895696, 837.0649095520399, 880.14837544972, 977.55656221392, 1021.37479554084, 1108.8807894735999, 1123.8508174712, 1174.6390408979198, 1175.03732604648, 1241.8668271807198, 1382.8803707269199, 1458.29360351116, 1496.32296821332, 3107.7915462724, 3111.1083001819597, 3196.87694682876, 3210.06155864316, 3845.8619954513197]

>  <ZPE_kJmol>  (1) 
191.94103937201209

>  <E_elec_kJmol>  (1) 
-549022.9166274124

>  <E0_minus_Eelec_plus_ZPE_kJmol>  (1) 
0.0

>  <rxn>  (1) 
rmg_rxn_3062

>  <species_type>  (1) 
r0

>  <species_folder>  (1) 
rmg_rxn_3062_r1_ON1CC1

>  <frequencies_cm1_list>  (1) 
[133.13711138415997, 422.03805078188, 447.52830028972, 737.70649895696, 837.0649095520399, 880.14837544972, 977.55656221392, 1021.37479554084, 1108.8807894735999, 1123.8508174712, 1174.6390408979198, 1175.03732604648, 1241.8668271807198, 1382.8803707269199, 1458.29360351116, 1496.32296821332, 3107.7915462724, 3111.1083001819597, 3196.87694682876, 3210.06155864316, 3845.8619954513197]

>  <E0_kJmol>  (1) 
-548831

>  <H298_kJmol>  (1) 
-548817

$$$$

     RDKit          3D

 15 14  0  0  0  0  0  0  0  0999 V2000
    2.2870   -0.8778   -0.3373 H   0  0  0  0  0  0  0  0  0  1  0  0
    1.6901   -1.4893    0.3343 C   0  0  0  0  0  0  0  0  0  2  0  0
    0.2880   -1.0785    0.0377 C   0  0  0  0  0  0  0  0  0  3  0  0
    0.0310    0.1667    0.6384 O   0  0  0  0  0  0  0  0  0  4  0  0
   -1.1376    0.8091    0.1694 C   0  0  0  0  0  0  0  0  0  5  0  0
   -0.9050    1.5712   -1.1234 C   0  0  0  0  0  0  0  0  0  6  0  0
    1.9721   -2.4748   -0.0266 H   0  0  0  0  0  0  0  0  0  7  0  0
    2.0325   -1.2706    1.3425 H   0  0  0  0  0  0  0  0  0  8  0  0
   -0.4192   -1.8301    0.4300 H   0  0  0  0  0  0  0  0  0  9  0  0
    0.1361   -1.0362   -1.0487 H   0  0  0  0  0  0  0  0  0 10  0  0
   -1.9442    0.0744    0.0479 H   0  0  0  0  0  0  0  0  0 11  0  0
   -1.4391    1.4958    0.9621 H   0  0  0  0  0  0  0  0  0 12  0  0
   -0.5919    0.9099   -1.9324 H   0  0  0  0  0  0  0  0  0 13  0  0
   -1.8236    2.0725   -1.4341 H   0  0  0  0  0  0  0  0  0 14  0  0
   -0.1290    2.3246   -0.9849 H   0  0  0  0  0  0  0  0  0 15  0  0
  1  2  1  0
  2  7  1  0
  2  8  1  0
  2  3  1  0
  3  4  1  0
  3  9  1  0
  3 10  1  0
  4  5  1  0
  5 11  1  0
  5 12  1  0
  5  6  1  0
  6 15  1  0
  6 14  1  0
  6 13  1  0
M  END
>  <rmg_smiles>  (2) 
CCOCC

>  <rmg_adjacency_list>  (2) 
1  O u0 p2 c0 {2,S} {3,S}
2  C u0 p0 c0 {1,S} {4,S} {6,S} {7,S}
3  C u0 p0 c0 {1,S} {5,S} {8,S} {9,S}
4  C u0 p0 c0 {2,S} {10,S} {11,S} {12,S}
5  C u0 p0 c0 {3,S} {13,S} {14,S} {15,S}
6  H u0 p0 c0 {2,S}
7  H u0 p0 c0 {2,S}
8  H u0 p0 c0 {3,S}
9  H u0 p0 c0 {3,S}
10 H u0 p0 c0 {4,S}
11 H u0 p0 c0 {4,S}
12 H u0 p0 c0 {4,S}
13 H u0 p0 c0 {5,S}
14 H u0 p0 c0 {5,S}
15 H u0 p0 c0 {5,S}


>  <multiplicity>  (2) 
1

>  <reaction>  (2) 
rmg_rxn_3062

>  <type>  (2) 
r2h

>  <role_mapnums>  (2) 
{"r2h_a": 2, "r2h_h": 1}

>  <role_mapidx>  (2) 
{"r2h_a": 1, "r2h_h": 0}

>  <ordered_mapped_smiles>  (2) 
[H:1][C:2]([C:3]([O:4][C:5]([C:6]([H:13])([H:14])[H:15])([H:11])[H:12])([H:9])[H:10])([H:7])[H:8]

>  <mol_properties>  (2) 
{"0": {"label": "a_hydrogen", "atom_type": "H0"}, "1": {"label": "acceptor", "atom_type": "Cs"}}

>  <level_of_theory>  (2) 
wb97xd/def2tzvp

>  <lot_method>  (2) 
wb97xd

>  <lot_basis>  (2) 
def2tzvp

>  <spin_multiplicity>  (2) 
1.0

>  <optical_isomers>  (2) 
1.0

>  <modes>  (2) 
IdealGasTranslation(mass=(74.0732, 'amu')),         NonlinearRotor(             inertia = ([27.7055, 224.199, 239.286

>  <frequency_value>  (2) 
unknown

>  <frequency_units>  (2) 
unknown

>  <frequency_list>  (2) 
unknown

>  <arkane_path>  (2) 
/home/calvin/Dropbox/PersonalFolders/Calvin/ATLAS_Converged/rmg_rxn_3062/output/Species/rmg_rxn_3062_p2_CCOCC/arkane/output.py

>  <path_exists>  (2) 
True

>  <E0_value>  (2) 
-613176.3128110756

>  <E0_units>  (2) 
kJ/mol

>  <thermo_class>  (2) 
NASA

>  <Cp0_value>  (2) 
33.257888

>  <Cp0_units>  (2) 
J/(mol*K)

>  <CpInf_value>  (2) 
357.522296

>  <CpInf_units>  (2) 
J/(mol*K)

>  <Tmin_value>  (2) 
10.0

>  <Tmin_units>  (2) 
K

>  <Tmax_value>  (2) 
3000.0

>  <Tmax_units>  (2) 
K

>  <polynomials>  (2) 
[{"name": "polynomial1", "class": "NASAPolynomial", "Tmin_value": 10.0, "Tmin_units": "K", "Tmax_value": 447.8675776386012, "Tmax_units": "K", "coeffs": [3.6145674548663025, 0.04016229737238276, -9.26716676667475e-05, 2.7059440243079876e-07, -2.426777252164927e-10, -73748075.28187743, 9.084384782318237]}, {"name": "polynomial2", "class": "NASAPolynomial", "Tmin_value": 447.8675776386012, "Tmin_units": "K", "Tmax_value": 3000.0, "Tmax_units": "K", "coeffs": [-2.0346716801386466, 0.056284897785958125, -3.168484191016198e-05, 8.654575683408253e-09, -9.217706924539855e-13, -73747224.93534479, 35.6449449802163]}]

>  <H298_value>  (2) 
-146547.7613808907

>  <H298_units>  (2) 
kcal/mol

>  <S298_value>  (2) 
78.37341548181337

>  <S298_units>  (2) 
cal/(mol*K)

>  <Cp_T_value_list>  (2) 
[25.164325535478298, 31.710870725358603, 38.17578298456695, 43.876825548291244, 53.19460319689213, 60.208758518830386, 70.83300100554185, 76.07827456888258, 78.69955471915]

>  <Cp_T_units>  (2) 
cal/(mol*K)

>  <T_list>  (2) 
[300.0, 400.0, 500.0, 600.0, 800.0, 1000.0, 1500.0, 2000.0, 2400.0]

>  <T_units>  (2) 
K

>  <yaml_path>  (2) 
/home/calvin/Dropbox/PersonalFolders/Calvin/ATLAS_Converged/rmg_rxn_3062/output/Species/rmg_rxn_3062_p2_CCOCC/rmg_rxn_3062_p2_CCOCC.yml

>  <frequencies_cm1>  (2) 
[97.33264992568, 110.05030673831997, 194.58289602751998, 248.33079012716, 254.60721470963998, 436.05356782, 444.0673396884399, 815.26909814636, 829.360152023, 865.38435701172, 947.98045644068, 1068.20763542324, 1096.27300442608, 1164.469035639, 1181.3961544528, 1184.7335093183199, 1192.65114339228, 1290.03872920052, 1301.0533736538, 1374.4477127539599, 1392.16453487956, 1405.93970743148, 1446.2214433186, 1470.736580911, 1470.98379238252, 1486.2834356754797, 1488.7761513466398, 1505.1745122908, 1522.6784578714798, 2933.80960620488, 2943.4577205794803, 2963.1797024185194, 2967.5127701554397, 3022.8812727906, 3023.35509477768, 3101.1992403652002, 3101.4601858073597, 3102.6138393411197, 3102.76491301816]

>  <ZPE_kJmol>  (2) 
356.17314104031504

>  <E_elec_kJmol>  (2) 
-613532.4859521159

>  <E0_minus_Eelec_plus_ZPE_kJmol>  (2) 
0.0

>  <rxn>  (2) 
rmg_rxn_3062

>  <species_type>  (2) 
p1

>  <species_folder>  (2) 
rmg_rxn_3062_p2_CCOCC

>  <frequencies_cm1_list>  (2) 
[97.33264992568, 110.05030673831997, 194.58289602751998, 248.33079012716, 254.60721470963998, 436.05356782, 444.0673396884399, 815.26909814636, 829.360152023, 865.38435701172, 947.98045644068, 1068.20763542324, 1096.27300442608, 1164.469035639, 1181.3961544528, 1184.7335093183199, 1192.65114339228, 1290.03872920052, 1301.0533736538, 1374.4477127539599, 1392.16453487956, 1405.93970743148, 1446.2214433186, 1470.736580911, 1470.98379238252, 1486.2834356754797, 1488.7761513466398, 1505.1745122908, 1522.6784578714798, 2933.80960620488, 2943.4577205794803, 2963.1797024185194, 2967.5127701554397, 3022.8812727906, 3023.35509477768, 3101.1992403652002, 3101.4601858073597, 3102.6138393411197, 3102.76491301816]

>  <E0_kJmol>  (2) 
-613176

>  <H298_kJmol>  (2) 
-613156

$$$$

     RDKit          3D

 23 22  0  0  0  0  0  0  0  0999 V2000
    1.3865   -0.4894   -1.1861 O   0  0  0  0  0  0  0  0  0  1  0  0
    1.9950    0.6482   -0.7482 N   0  0  0  0  0  0  0  0  0  2  0  0
    2.6157    0.6203    0.5605 C   0  0  0  0  0  0  0  0  0  3  0  0
    1.3579    1.3916    0.3211 C   0  0  0  0  0  0  0  0  0  4  0  0
    0.8774   -1.0408   -0.3541 H   0  0  0  0  0  0  0  0  0  5  0  0
    3.5698    1.1260    0.6403 H   0  0  0  0  0  0  0  0  0  6  0  0
    2.5300   -0.3071    1.1147 H   0  0  0  0  0  0  0  0  0  7  0  0
    0.4335    0.9809    0.7123 H   0  0  0  0  0  0  0  0  0  8  0  0
    1.3937    2.4697    0.2211 H   0  0  0  0  0  0  0  0  0  9  0  0
    0.0848   -1.8528    0.5376 C   0  0  0  0  0  3  0  0  0 10  0  0
   -1.3173   -1.4420    0.2410 C   0  0  0  0  0  0  0  0  0 11  0  0
   -1.5742   -0.1968    0.8417 O   0  0  0  0  0  0  0  0  0 12  0  0
   -2.7428    0.4456    0.3727 C   0  0  0  0  0  0  0  0  0 13  0  0
   -2.5103    1.2077   -0.9200 C   0  0  0  0  0  0  0  0  0 14  0  0
    0.3668   -2.8383    0.1768 H   0  0  0  0  0  0  0  0  0 15  0  0
    0.4273   -1.6340    1.5459 H   0  0  0  0  0  0  0  0  0 16  0  0
   -2.0244   -2.1936    0.6333 H   0  0  0  0  0  0  0  0  0 17  0  0
   -1.4691   -1.3996   -0.8453 H   0  0  0  0  0  0  0  0  0 18  0  0
   -3.5494   -0.2890    0.2512 H   0  0  0  0  0  0  0  0  0 19  0  0
   -3.0444    1.1323    1.1654 H   0  0  0  0  0  0  0  0  0 20  0  0
   -2.1971    0.5465   -1.7291 H   0  0  0  0  0  0  0  0  0 21  0  0
   -3.4289    1.7091   -1.2307 H   0  0  0  0  0  0  0  0  0 22  0  0
   -1.7342    1.9611   -0.7816 H   0  0  0  0  0  0  0  0  0 23  0  0
  1  2  1  0
  1  5  1  0
  2  4  1  0
  2  3  1  0
  3  4  1  0
  3  6  1  0
  3  7  1  0
  4  9  1  0
  4  8  1  0
 10 16  1  0
 10 15  1  0
 10 11  1  0
 11 12  1  0
 11 17  1  0
 11 18  1  0
 12 13  1  0
 13 19  1  0
 13 20  1  0
 13 14  1  0
 14 23  1  0
 14 22  1  0
 14 21  1  0
M  RAD  1  10   2
M  END
>  <rmg_smiles>  (3) 
ON1CC1.[CH2]COCC

>  <rmg_adjacency_list>  (3) 
multiplicity 2
1  O u0 p2 c0 {6,S} {7,S}
2  O u0 p2 c0 {3,S} {23,S}
3  N u0 p1 c0 {2,S} {4,S} {5,S}
4  C u0 p0 c0 {3,S} {5,S} {10,S} {11,S}
5  C u0 p0 c0 {3,S} {4,S} {12,S} {13,S}
6  C u0 p0 c0 {1,S} {8,S} {14,S} {15,S}
7  C u0 p0 c0 {1,S} {9,S} {16,S} {17,S}
8  C u0 p0 c0 {6,S} {18,S} {19,S} {20,S}
9  C u1 p0 c0 {7,S} {21,S} {22,S}
10 H u0 p0 c0 {4,S}
11 H u0 p0 c0 {4,S}
12 H u0 p0 c0 {5,S}
13 H u0 p0 c0 {5,S}
14 H u0 p0 c0 {6,S}
15 H u0 p0 c0 {6,S}
16 H u0 p0 c0 {7,S}
17 H u0 p0 c0 {7,S}
18 H u0 p0 c0 {8,S}
19 H u0 p0 c0 {8,S}
20 H u0 p0 c0 {8,S}
21 H u0 p0 c0 {9,S}
22 H u0 p0 c0 {9,S}
23 H u0 p0 c0 {2,S}


>  <multiplicity>  (3) 
2

>  <reaction>  (3) 
rmg_rxn_3062

>  <type>  (3) 
ts

>  <role_mapnums>  (3) 
{"*2": 5, "*1": 1, "*3": 10, "*0": 2, "*4": 11}

>  <role_mapidx>  (3) 
{"*2": 4, "*1": 0, "*3": 9, "*0": 1, "*4": 10}

>  <ordered_mapped_smiles>  (3) 
[O:1]([N:2]1[C:3]([H:6])([H:7])[C:4]1([H:8])[H:9])[H:5].[C:10]([C:11]([O:12][C:13]([C:14]([H:21])([H:22])[H:23])([H:19])[H:20])([H:17])[H:18])([H:15])[H:16]

>  <mol_properties>  (3) 
{"0": {"label": "*1", "atom_type": "O2s"}, "1": {"label": "*0", "atom_type": "N3s"}, "4": {"label": "*2", "atom_type": "H0"}, "9": {"label": "*3", "atom_type": "Cs"}, "10": {"label": "*4", "atom_type": "Cs"}}

>  <level_of_theory>  (3) 
wb97xd/def2tzvp

>  <lot_method>  (3) 
wb97xd

>  <lot_basis>  (3) 
def2tzvp

>  <spin_multiplicity>  (3) 
2.0

>  <optical_isomers>  (3) 
2.0

>  <modes>  (3) 
IdealGasTranslation(mass=(132.102, 'amu')),         NonlinearRotor(             inertia = ([232.111, 558.245, 652.675

>  <frequency_value>  (3) 
-1789.44

>  <frequency_units>  (3) 
cm^-1

>  <frequency_list>  (3) 
unknown

>  <arkane_path>  (3) 
/home/calvin/Dropbox/PersonalFolders/Calvin/ATLAS_Converged/rmg_rxn_3062/output/rxns/TS0/arkane/output.py

>  <path_exists>  (3) 
True

>  <E0_value>  (3) 
-1160250.0

>  <E0_units>  (3) 
kJ/mol

>  <thermo_class>  (3) 
unknown

>  <Cp0_value>  (3) 
unknown

>  <Cp0_units>  (3) 
unknown

>  <CpInf_value>  (3) 
unknown

>  <CpInf_units>  (3) 
unknown

>  <Tmin_value>  (3) 
unknown

>  <Tmin_units>  (3) 
unknown

>  <Tmax_value>  (3) 
unknown

>  <Tmax_units>  (3) 
unknown

>  <polynomials>  (3) 
unknown

>  <H298_value>  (3) 
unknown

>  <H298_units>  (3) 
unknown

>  <S298_value>  (3) 
unknown

>  <S298_units>  (3) 
unknown

>  <Cp_T_value_list>  (3) 
unknown

>  <Cp_T_units>  (3) 
unknown

>  <T_list>  (3) 
unknown

>  <T_units>  (3) 
unknown

>  <yaml_path>  (3) 
unknown

>  <frequencies_cm1>  (3) 
unknown

>  <ZPE_kJmol>  (3) 
unknown

>  <E_elec_kJmol>  (3) 
unknown

>  <E0_minus_Eelec_plus_ZPE_kJmol>  (3) 
unknown

>  <rxn>  (3) 
unknown

>  <species_type>  (3) 
unknown

>  <species_folder>  (3) 
unknown

>  <frequencies_cm1_list>  (3) 
[]

>  <ts_imag_freq_cm1>  (3) 
-1811.1741

>  <ts_freq_out_path>  (3) 
/home/calvin/Dropbox/PersonalFolders/Calvin/ATLAS_Converged/rmg_rxn_3062/output/rxns/TS0/geometry/freq.out

>  <E0_kJmol>  (3) 
-1.16025e+06

>  <H298_kJmol>  (3) 
unknown

$$$$

     RDKit          3D

  8  8  0  0  0  0  0  0  0  0999 V2000
    0.0257    1.9818    0.0485 O   0  0  0  0  0  1  0  0  0  1  0  0
    0.0179    0.8208   -0.4484 N   0  0  0  0  0  0  0  0  0  2  0  0
    0.7557   -0.3258    0.0134 C   0  0  0  0  0  0  0  0  0  3  0  0
   -0.7642   -0.3055   -0.0101 C   0  0  0  0  0  0  0  0  0  4  0  0
    1.2844   -0.9009   -0.7365 H   0  0  0  0  0  0  0  0  0  5  0  0
    1.2442   -0.2188    0.9742 H   0  0  0  0  0  0  0  0  0  6  0  0
   -1.2791   -0.1851    0.9352 H   0  0  0  0  0  0  0  0  0  7  0  0
   -1.2846   -0.8666   -0.7762 H   0  0  0  0  0  0  0  0  0  8  0  0
  1  2  1  0
  2  3  1  0
  2  4  1  0
  3  4  1  0
  3  6  1  0
  3  5  1  0
  4  8  1  0
  4  7  1  0
M  RAD  1   1   2
M  END
>  <rmg_smiles>  (4) 
[O]N1CC1

>  <rmg_adjacency_list>  (4) 
multiplicity 2
1 O u1 p2 c0 {2,S}
2 N u0 p1 c0 {1,S} {3,S} {4,S}
3 C u0 p0 c0 {2,S} {4,S} {5,S} {6,S}
4 C u0 p0 c0 {2,S} {3,S} {7,S} {8,S}
5 H u0 p0 c0 {3,S}
6 H u0 p0 c0 {3,S}
7 H u0 p0 c0 {4,S}
8 H u0 p0 c0 {4,S}


>  <multiplicity>  (4) 
2

>  <reaction>  (4) 
rmg_rxn_3062

>  <type>  (4) 
r1

>  <role_mapnums>  (4) 
{}

>  <role_mapidx>  (4) 
{}

>  <ordered_mapped_smiles>  (4) 
[O:1][N:2]1[C:3]([H:5])([H:6])[C:4]1([H:7])[H:8]

>  <level_of_theory>  (4) 
wb97xd/def2tzvp

>  <lot_method>  (4) 
wb97xd

>  <lot_basis>  (4) 
def2tzvp

>  <spin_multiplicity>  (4) 
2.0

>  <optical_isomers>  (4) 
1.0

>  <modes>  (4) 
IdealGasTranslation(mass=(58.0293, 'amu')),         NonlinearRotor(             inertia = ([25.8055, 62.4608, 77.4626

>  <frequency_value>  (4) 
unknown

>  <frequency_units>  (4) 
unknown

>  <frequency_list>  (4) 
unknown

>  <arkane_path>  (4) 
/home/calvin/Dropbox/PersonalFolders/Calvin/ATLAS_Converged/rmg_rxn_3062/output/Species/rmg_rxn_3062_p1_sbr-O-sbrN1CC1/arkane/output.py

>  <path_exists>  (4) 
True

>  <E0_value>  (4) 
-547181.0539800306

>  <E0_units>  (4) 
kJ/mol

>  <thermo_class>  (4) 
NASA

>  <Cp0_value>  (4) 
33.257888

>  <Cp0_units>  (4) 
J/(mol*K)

>  <CpInf_value>  (4) 
182.918384

>  <CpInf_units>  (4) 
J/(mol*K)

>  <Tmin_value>  (4) 
10.0

>  <Tmin_units>  (4) 
K

>  <Tmax_value>  (4) 
3000.0

>  <Tmax_units>  (4) 
K

>  <polynomials>  (4) 
[{"name": "polynomial1", "class": "NASAPolynomial", "Tmin_value": 10.0, "Tmin_units": "K", "Tmax_value": 624.7357386490204, "Tmax_units": "K", "coeffs": [4.1105451907420125, -0.009033090615102013, 0.00011173695653622377, -1.734104128021453e-07, 8.700249676344132e-11, -65810679.90864667, 8.7112352700631]}, {"name": "polynomial2", "class": "NASAPolynomial", "Tmin_value": 624.7357386490204, "Tmin_units": "K", "Tmax_value": 3000.0, "Tmax_units": "K", "coeffs": [0.5509038236468667, 0.029424195237818408, -1.8213741851288973e-05, 5.401052377808208e-09, -6.146368474763313e-13, -65810540.85840035, 21.763128585627033]}]

>  <H298_value>  (4) 
-130776.41321357674

>  <H298_units>  (4) 
kcal/mol

>  <S298_value>  (4) 
65.65873371157244

>  <S298_units>  (4) 
cal/(mol*K)

>  <Cp_T_value_list>  (4) 
[14.863476305027024, 18.886846753670252, 22.43475352619028, 25.306815638075097, 29.702872533122694, 32.883841566280715, 37.40564552125166, 39.58228468223397, 40.796935988510995]

>  <Cp_T_units>  (4) 
cal/(mol*K)

>  <T_list>  (4) 
[300.0, 400.0, 500.0, 600.0, 800.0, 1000.0, 1500.0, 2000.0, 2400.0]

>  <T_units>  (4) 
K

>  <yaml_path>  (4) 
/home/calvin/Dropbox/PersonalFolders/Calvin/ATLAS_Converged/rmg_rxn_3062/output/Species/rmg_rxn_3062_p1_sbr-O-sbrN1CC1/rmg_rxn_3062_p1_sbr-O-sbrN1CC1.yml

>  <frequencies_cm1>  (4) 
[350.08577859892, 463.25369667251994, 761.6104748558798, 793.3977499021601, 893.5939327062799, 1016.15588669764, 1066.6762976968798, 1105.1726174008, 1123.1366509979198, 1153.9625480994, 1164.4896365949598, 1431.4917598071997, 1454.9768496016, 1497.97791167544, 3102.6413072824, 3105.09282104164, 3197.1310252856, 3209.5328007735197]

>  <ZPE_kJmol>  (4) 
160.84023508429246

>  <E_elec_kJmol>  (4) 
-547341.8942151149

>  <E0_minus_Eelec_plus_ZPE_kJmol>  (4) 
0.0

>  <rxn>  (4) 
rmg_rxn_3062

>  <species_type>  (4) 
p0

>  <species_folder>  (4) 
rmg_rxn_3062_p1_sbr-O-sbrN1CC1

>  <frequencies_cm1_list>  (4) 
[350.08577859892, 463.25369667251994, 761.6104748558798, 793.3977499021601, 893.5939327062799, 1016.15588669764, 1066.6762976968798, 1105.1726174008, 1123.1366509979198, 1153.9625480994, 1164.4896365949598, 1431.4917598071997, 1454.9768496016, 1497.97791167544, 3102.6413072824, 3105.09282104164, 3197.1310252856, 3209.5328007735197]

>  <E0_kJmol>  (4) 
-547181

>  <H298_kJmol>  (4) 
-547169

$$$$

     RDKit          3D

 14 13  0  0  0  0  0  0  0  0999 V2000
    2.6694    0.2813   -0.6046 C   0  0  0  0  0  3  0  0  0  1  0  0
    1.5626   -0.5075   -0.0103 C   0  0  0  0  0  0  0  0  0  2  0  0
    0.5522   -0.8487   -0.9278 O   0  0  0  0  0  0  0  0  0  3  0  0
    0.9505   -1.8204   -1.8682 C   0  0  0  0  0  0  0  0  0  4  0  0
   -0.2101   -2.1029   -2.7930 C   0  0  0  0  0  0  0  0  0  5  0  0
    2.4666    0.9443   -1.4355 H   0  0  0  0  0  0  0  0  0  6  0  0
    3.6339    0.3312   -0.1179 H   0  0  0  0  0  0  0  0  0  7  0  0
    1.0573    0.0741    0.7733 H   0  0  0  0  0  0  0  0  0  8  0  0
    1.9580   -1.4106    0.4809 H   0  0  0  0  0  0  0  0  0  9  0  0
    1.8195   -1.4649   -2.4379 H   0  0  0  0  0  0  0  0  0 10  0  0
    1.2587   -2.7372   -1.3440 H   0  0  0  0  0  0  0  0  0 11  0  0
   -0.5051   -1.1971   -3.3238 H   0  0  0  0  0  0  0  0  0 12  0  0
    0.0686   -2.8601   -3.5276 H   0  0  0  0  0  0  0  0  0 13  0  0
   -1.0699   -2.4661   -2.2289 H   0  0  0  0  0  0  0  0  0 14  0  0
  1  7  1  0
  1  6  1  0
  1  2  1  0
  2  9  1  0
  2  8  1  0
  2  3  1  0
  3  4  1  0
  4  5  1  0
  4 10  1  0
  4 11  1  0
  5 12  1  0
  5 14  1  0
  5 13  1  0
M  RAD  1   1   2
M  END
>  <rmg_smiles>  (5) 
[CH2]COCC

>  <rmg_adjacency_list>  (5) 
multiplicity 2
1  O u0 p2 c0 {2,S} {3,S}
2  C u0 p0 c0 {1,S} {4,S} {6,S} {7,S}
3  C u0 p0 c0 {1,S} {5,S} {8,S} {9,S}
4  C u0 p0 c0 {2,S} {10,S} {11,S} {12,S}
5  C u1 p0 c0 {3,S} {13,S} {14,S}
6  H u0 p0 c0 {2,S}
7  H u0 p0 c0 {2,S}
8  H u0 p0 c0 {3,S}
9  H u0 p0 c0 {3,S}
10 H u0 p0 c0 {4,S}
11 H u0 p0 c0 {4,S}
12 H u0 p0 c0 {4,S}
13 H u0 p0 c0 {5,S}
14 H u0 p0 c0 {5,S}


>  <multiplicity>  (5) 
2

>  <reaction>  (5) 
rmg_rxn_3062

>  <type>  (5) 
r2

>  <role_mapnums>  (5) 
{}

>  <role_mapidx>  (5) 
{}

>  <ordered_mapped_smiles>  (5) 
[C:1]([C:2]([O:3][C:4]([C:5]([H:12])([H:13])[H:14])([H:10])[H:11])([H:8])[H:9])([H:6])[H:7]

>  <level_of_theory>  (5) 
wb97xd/def2tzvp

>  <lot_method>  (5) 
wb97xd

>  <lot_basis>  (5) 
def2tzvp

>  <spin_multiplicity>  (5) 
2.0

>  <optical_isomers>  (5) 
2.0

>  <modes>  (5) 
IdealGasTranslation(mass=(73.0653, 'amu')),         NonlinearRotor(             inertia = ([36.1087, 191.263, 204.688

>  <frequency_value>  (5) 
unknown

>  <frequency_units>  (5) 
unknown

>  <frequency_list>  (5) 
unknown

>  <arkane_path>  (5) 
/home/calvin/Dropbox/PersonalFolders/Calvin/ATLAS_Converged/rmg_rxn_3062/output/Species/rmg_rxn_3062_r2_sbr-CH2-sbrCOCC/arkane/output.py

>  <path_exists>  (5) 
True

>  <E0_value>  (5) 
-611438.6030950935

>  <E0_units>  (5) 
kJ/mol

>  <thermo_class>  (5) 
NASA

>  <Cp0_value>  (5) 
33.257888

>  <Cp0_units>  (5) 
J/(mol*K)

>  <CpInf_value>  (5) 
332.57888

>  <CpInf_units>  (5) 
J/(mol*K)

>  <Tmin_value>  (5) 
10.0

>  <Tmin_units>  (5) 
K

>  <Tmax_value>  (5) 
3000.0

>  <Tmax_units>  (5) 
K

>  <polynomials>  (5) 
[{"name": "polynomial1", "class": "NASAPolynomial", "Tmin_value": 10.0, "Tmin_units": "K", "Tmax_value": 1129.3959237558668, "Tmax_units": "K", "coeffs": [3.767687254331021, 0.030025181353026488, 1.0783022290029728e-05, -2.4093154306759102e-08, 8.382058777565432e-12, -73539079.86675207, 10.999960770951583]}, {"name": "polynomial2", "class": "NASAPolynomial", "Tmin_value": 1129.3959237558668, "Tmin_units": "K", "Tmax_value": 3000.0, "Tmax_units": "K", "coeffs": [5.6857834097634, 0.037592019875525746, -1.833922228791922e-05, 4.3554701728670094e-09, -4.0732880567514265e-13, -73540428.97117028, -2.5417292363783583]}]

>  <H298_value>  (5) 
-146132.3546509215

>  <H298_units>  (5) 
kcal/mol

>  <S298_value>  (5) 
82.85680191938049

>  <S298_units>  (5) 
cal/(mol*K)

>  <Cp_T_value_list>  (5) 
[26.1577843323499, 32.14438106326243, 37.73360939012966, 42.81809519804709, 51.24322537774468, 57.36030900443956, 66.46842649273657, 71.22035723151492, 73.4641194799488]

>  <Cp_T_units>  (5) 
cal/(mol*K)

>  <T_list>  (5) 
[300.0, 400.0, 500.0, 600.0, 800.0, 1000.0, 1500.0, 2000.0, 2400.0]

>  <T_units>  (5) 
K

>  <yaml_path>  (5) 
/home/calvin/Dropbox/PersonalFolders/Calvin/ATLAS_Converged/rmg_rxn_3062/output/Species/rmg_rxn_3062_r2_sbr-CH2-sbrCOCC/rmg_rxn_3062_r2_sbr-CH2-sbrCOCC.yml

>  <frequencies_cm1>  (5) 
[76.09993131623999, 140.58779045635998, 186.73393180675998, 253.66643772079996, 286.93011461087997, 382.93743636979997, 472.70266847283995, 529.9115231737599, 822.58930449748, 853.7036149823999, 871.2762304162799, 982.3771859085599, 1056.19727809856, 1096.42407810312, 1136.3281297976398, 1169.37206315748, 1177.12488958376, 1281.42066262392, 1292.2086965616397, 1373.79534914856, 1391.2512258319998, 1423.8488051460397, 1437.4660370355998, 1459.749404399, 1470.3382957624399, 1487.2654145762401, 1513.826913794, 2933.2739813499197, 2947.7839213310795, 2970.7608542117996, 2983.3205703620797, 3023.4924344840797, 3101.41211691012, 3103.7537589042395, 3126.2774707538397, 3235.73034976932]

>  <ZPE_kJmol>  (5) 
317.3211535298422

>  <E_elec_kJmol>  (5) 
-611755.9242486233

>  <E0_minus_Eelec_plus_ZPE_kJmol>  (5) 
0.0

>  <rxn>  (5) 
rmg_rxn_3062

>  <species_type>  (5) 
r1

>  <species_folder>  (5) 
rmg_rxn_3062_r2_sbr-CH2-sbrCOCC

>  <frequencies_cm1_list>  (5) 
[76.09993131623999, 140.58779045635998, 186.73393180675998, 253.66643772079996, 286.93011461087997, 382.93743636979997, 472.70266847283995, 529.9115231737599, 822.58930449748, 853.7036149823999, 871.2762304162799, 982.3771859085599, 1056.19727809856, 1096.42407810312, 1136.3281297976398, 1169.37206315748, 1177.12488958376, 1281.42066262392, 1292.2086965616397, 1373.79534914856, 1391.2512258319998, 1423.8488051460397, 1437.4660370355998, 1459.749404399, 1470.3382957624399, 1487.2654145762401, 1513.826913794, 2933.2739813499197, 2947.7839213310795, 2970.7608542117996, 2983.3205703620797, 3023.4924344840797, 3101.41211691012, 3103.7537589042395, 3126.2774707538397, 3235.73034976932]

>  <E0_kJmol>  (5) 
-611439

>  <H298_kJmol>  (5) 
-611418

$$$$
