
     RDKit          3D

 14 13  0  0  0  0  0  0  0  0999 V2000
    1.6076   -1.7958    0.0584 C   0  0  0  0  0  0  0  0  0  1  0  0
    0.7300   -1.0833   -0.6276 C   0  0  0  0  0  0  0  0  0  2  0  0
    0.8202    0.4013   -0.8103 C   0  0  0  0  0  0  0  0  0  3  0  0
   -0.4040    1.0903   -0.6311 O   0  0  0  0  0  0  0  0  0  4  0  0
   -0.8859    1.1403    0.6891 C   0  0  0  0  0  0  0  0  0  5  0  0
   -1.4449   -0.0153    1.1436 O   0  0  0  0  0  0  0  0  0  6  0  0
    2.4355   -1.3255    0.5787 H   0  0  0  0  0  0  0  0  0  7  0  0
    1.5325   -2.8732    0.1297 H   0  0  0  0  0  0  0  0  0  8  0  0
   -0.1013   -1.5689   -1.1289 H   0  0  0  0  0  0  0  0  0  9  0  0
    1.1187    0.6263   -1.8368 H   0  0  0  0  0  0  0  0  0 10  0  0
    1.5857    0.8169   -0.1416 H   0  0  0  0  0  0  0  0  0 11  0  0
   -1.5986    1.9752    0.6939 H   0  0  0  0  0  0  0  0  0 12  0  0
   -0.0675    1.3779    1.3907 H   0  0  0  0  0  0  0  0  0 13  0  0
   -2.2497   -0.1183    0.6305 H   0  0  0  0  0  0  0  0  0 14  0  0
  1  8  1  0
  1  7  1  0
  1  2  1  0
  2  9  1  0
  2  3  1  0
  3 11  1  0
  3  4  1  0
  3 10  1  0
  4  5  1  0
  5 13  1  0
  5  6  1  0
  5 12  1  0
  6 14  1  0
M  END
>  <rmg_smiles>  (1) 
[CH2][CH]COCO

>  <rmg_adjacency_list>  (1) 
1  O u0 p2 c0 {3,S} {4,S}
2  O u0 p2 c0 {4,S} {14,S}
3  C u0 p0 c0 {1,S} {5,S} {7,S} {8,S}
4  C u0 p0 c0 {1,S} {2,S} {9,S} {10,S}
5  C u0 p0 c0 {3,S} {6,S} {11,S}
6  C u0 p0 c0 {5,S} {12,S} {13,S}
7  H u0 p0 c0 {3,S}
8  H u0 p0 c0 {3,S}
9  H u0 p0 c0 {4,S}
10 H u0 p0 c0 {4,S}
11 H u0 p0 c0 {5,S}
12 H u0 p0 c0 {6,S}
13 H u0 p0 c0 {6,S}
14 H u0 p0 c0 {2,S}


>  <multiplicity>  (1) 
1

>  <reaction>  (1) 
rmg_rxn_16646

>  <type>  (1) 
r1h

>  <role_mapnums>  (1) 
{"r1h_a": 6, "r1h_h": 14}

>  <role_mapidx>  (1) 
{"r1h_a": 5, "r1h_h": 13}

>  <ordered_mapped_smiles>  (1) 
[CH:1]([CH:2]([C:3]([O:4][C:5]([O:6][H:14])([H:12])[H:13])([H:10])[H:11])[H:9])([H:7])[H:8]

>  <mol_properties>  (1) 
{"5": {"label": "donator", "atom_type": "O2s"}, "13": {"label": "d_hydrogen", "atom_type": "H0"}}

>  <level_of_theory>  (1) 
wb97xd/def2tzvp

>  <lot_method>  (1) 
wb97xd

>  <lot_basis>  (1) 
def2tzvp

>  <spin_multiplicity>  (1) 
1.0

>  <optical_isomers>  (1) 
2.0

>  <modes>  (1) 
IdealGasTranslation(mass=(88.0524, 'amu')),         NonlinearRotor(             inertia = ([62.4755, 247.019, 267.132

>  <frequency_value>  (1) 
unknown

>  <frequency_units>  (1) 
unknown

>  <frequency_list>  (1) 
unknown

>  <arkane_path>  (1) 
/home/calvin/Dropbox/PersonalFolders/Calvin/ZEUS_Converged/rmg_rxn_16646/output/Species/rmg_rxn_16646_r2_C=CCOCO/arkane/output.py

>  <path_exists>  (1) 
True

>  <E0_value>  (1) 
-807484.8524164247

>  <E0_units>  (1) 
kJ/mol

>  <thermo_class>  (1) 
NASA

>  <Cp0_value>  (1) 
33.257888

>  <Cp0_units>  (1) 
J/(mol*K)

>  <CpInf_value>  (1) 
332.57888

>  <CpInf_units>  (1) 
J/(mol*K)

>  <Tmin_value>  (1) 
10.0

>  <Tmin_units>  (1) 
K

>  <Tmax_value>  (1) 
3000.0

>  <Tmax_units>  (1) 
K

>  <polynomials>  (1) 
[{"name": "polynomial1", "class": "NASAPolynomial", "Tmin_value": 10.0, "Tmin_units": "K", "Tmax_value": 951.0524616383826, "Tmax_units": "K", "coeffs": [3.7830136747009746, 0.02730165264485492, 2.7115848956578007e-05, -4.6900329274322994e-08, 1.7949605140138815e-11, -97117998.47242273, 11.22324422463901]}, {"name": "polynomial2", "class": "NASAPolynomial", "Tmin_value": 951.0524616383826, "Tmin_units": "K", "Tmax_value": 3000.0, "Tmax_units": "K", "coeffs": [3.8273289179743215, 0.04312708482250014, -2.3097861092757227e-05, 6.000746502449904e-09, -6.096905264168253e-13, -97118731.03666244, 7.204653499089413]}]

>  <H298_value>  (1) 
-192988.56033858497

>  <H298_units>  (1) 
kcal/mol

>  <S298_value>  (1) 
82.94001480928443

>  <S298_units>  (1) 
cal/(mol*K)

>  <Cp_T_value_list>  (1) 
[26.41597334783217, 32.78910476176138, 38.69510635792486, 43.96000567879716, 52.298642528855424, 58.12103799453406, 66.99614312701847, 71.42214471276988, 73.55625753975892]

>  <Cp_T_units>  (1) 
cal/(mol*K)

>  <T_list>  (1) 
[300.0, 400.0, 500.0, 600.0, 800.0, 1000.0, 1500.0, 2000.0, 2400.0]

>  <T_units>  (1) 
K

>  <yaml_path>  (1) 
/home/calvin/Dropbox/PersonalFolders/Calvin/ZEUS_Converged/rmg_rxn_16646/output/Species/rmg_rxn_16646_r2_C=CCOCO/rmg_rxn_16646_r2_C=CCOCO.yml

>  <frequencies_cm1>  (1) 
[77.30165374724, 129.47014122328, 172.533006165, 253.86558029507995, 363.03004592712, 386.96148976731996, 559.06187585716, 591.1993671547599, 632.7240273847999, 885.1818756892799, 957.0654780190399, 964.95564415172, 1007.4279483559199, 1029.52590711568, 1057.08311920484, 1080.95276017716, 1096.3622752352398, 1165.6776250553198, 1270.907308099, 1310.55041435136, 1321.207975568, 1376.8442906306398, 1389.3284699424, 1434.01194341964, 1437.9535929933202, 1480.0413460196, 1512.3917138621198, 1719.32831648032, 2998.7369524054798, 3010.3146896549997, 3044.57407941648, 3064.1243866225195, 3120.2551246282, 3133.81055364988, 3215.56201388448, 3829.6490431107995]

>  <ZPE_kJmol>  (1) 
311.5074991336928

>  <E_elec_kJmol>  (1) 
-807796.3599155584

>  <E0_minus_Eelec_plus_ZPE_kJmol>  (1) 
0.0

>  <rxn>  (1) 
rmg_rxn_16646

>  <species_type>  (1) 
r1

>  <species_folder>  (1) 
rmg_rxn_16646_r2_C=CCOCO

>  <frequencies_cm1_list>  (1) 
[77.30165374724, 129.47014122328, 172.533006165, 253.86558029507995, 363.03004592712, 386.96148976731996, 559.06187585716, 591.1993671547599, 632.7240273847999, 885.1818756892799, 957.0654780190399, 964.95564415172, 1007.4279483559199, 1029.52590711568, 1057.08311920484, 1080.95276017716, 1096.3622752352398, 1165.6776250553198, 1270.907308099, 1310.55041435136, 1321.207975568, 1376.8442906306398, 1389.3284699424, 1434.01194341964, 1437.9535929933202, 1480.0413460196, 1512.3917138621198, 1719.32831648032, 2998.7369524054798, 3010.3146896549997, 3044.57407941648, 3064.1243866225195, 3120.2551246282, 3133.81055364988, 3215.56201388448, 3829.6490431107995]

>  <E0_kJmol>  (1) 
-807485

>  <H298_kJmol>  (1) 
-807464

$$$$

     RDKit          3D

  8  7  0  0  0  0  0  0  0  0999 V2000
   -0.8707   -0.6027    0.7147 C   0  0  0  0  0  0  0  0  0  1  0  0
    0.3659    0.0282    0.1709 C   0  0  0  0  0  0  0  0  0  2  0  0
    0.4885    0.5921   -0.9311 N   0  0  0  0  0  0  0  0  0  3  0  0
   -0.6819   -1.6567    0.9265 H   0  0  0  0  0  0  0  0  0  4  0  0
   -1.1401   -0.1271    1.6593 H   0  0  0  0  0  0  0  0  0  5  0  0
   -1.6895   -0.5078    0.0027 H   0  0  0  0  0  0  0  0  0  6  0  0
    1.4285    0.9480   -1.1088 H   0  0  0  0  0  0  0  0  0  7  0  0
    1.2198   -0.0360    0.8454 H   0  0  0  0  0  0  0  0  0  8  0  0
  1  5  1  0
  1  4  1  0
  1  6  1  0
  1  2  1  0
  2  3  1  0
  2  8  1  0
  3  7  1  0
M  END
>  <rmg_smiles>  (2) 
C[CH][NH]

>  <rmg_adjacency_list>  (2) 
1 N u0 p1 c0 {3,S} {8,S}
2 C u0 p0 c0 {3,S} {4,S} {5,S} {6,S}
3 C u0 p0 c0 {1,S} {2,S} {7,S}
4 H u0 p0 c0 {2,S}
5 H u0 p0 c0 {2,S}
6 H u0 p0 c0 {2,S}
7 H u0 p0 c0 {3,S}
8 H u0 p0 c0 {1,S}


>  <multiplicity>  (2) 
1

>  <reaction>  (2) 
rmg_rxn_16646

>  <type>  (2) 
r2h

>  <role_mapnums>  (2) 
{"r2h_a": 2, "r2h_h": 8}

>  <role_mapidx>  (2) 
{"r2h_a": 1, "r2h_h": 7}

>  <ordered_mapped_smiles>  (2) 
[C:1]([CH:2]([NH:3][H:7])[H:8])([H:4])([H:5])[H:6]

>  <mol_properties>  (2) 
{"1": {"label": "acceptor", "atom_type": "Cs"}, "7": {"label": "a_hydrogen", "atom_type": "H0"}}

>  <level_of_theory>  (2) 
wb97xd/def2tzvp

>  <lot_method>  (2) 
wb97xd

>  <lot_basis>  (2) 
def2tzvp

>  <spin_multiplicity>  (2) 
1.0

>  <optical_isomers>  (2) 
1.0

>  <modes>  (2) 
IdealGasTranslation(mass=(43.0422, 'amu')),         NonlinearRotor(             inertia = ([9.32783, 51.3348, 57.5532

>  <frequency_value>  (2) 
unknown

>  <frequency_units>  (2) 
unknown

>  <frequency_list>  (2) 
unknown

>  <arkane_path>  (2) 
/home/calvin/Dropbox/PersonalFolders/Calvin/ZEUS_Converged/rmg_rxn_16646/output/Species/rmg_rxn_16646_p1_CC=N/arkane/output.py

>  <path_exists>  (2) 
True

>  <E0_value>  (2) 
-351535.20335661684

>  <E0_units>  (2) 
kJ/mol

>  <thermo_class>  (2) 
NASA

>  <Cp0_value>  (2) 
33.257888

>  <Cp0_units>  (2) 
J/(mol*K)

>  <CpInf_value>  (2) 
182.918384

>  <CpInf_units>  (2) 
J/(mol*K)

>  <Tmin_value>  (2) 
10.0

>  <Tmin_units>  (2) 
K

>  <Tmax_value>  (2) 
3000.0

>  <Tmax_units>  (2) 
K

>  <polynomials>  (2) 
[{"name": "polynomial1", "class": "NASAPolynomial", "Tmin_value": 10.0, "Tmin_units": "K", "Tmax_value": 834.0183041901832, "Tmax_units": "K", "coeffs": [4.020859284868709, 0.0012406595733239277, 4.4482903010182226e-05, -5.482114439751344e-08, 2.0739201558559772e-11, -42279921.71645892, 6.726586383468645]}, {"name": "polynomial2", "class": "NASAPolynomial", "Tmin_value": 834.0183041901832, "Tmin_units": "K", "Tmax_value": 3000.0, "Tmax_units": "K", "coeffs": [0.8146767610859666, 0.025012560508124084, -1.3369721411120483e-05, 3.4917002293006827e-09, -3.579375529269218e-13, -42279678.881200545, 19.862274208798944]}]

>  <H298_value>  (2) 
-84015.86036687854

>  <H298_units>  (2) 
kcal/mol

>  <S298_value>  (2) 
62.66843297179497

>  <S298_units>  (2) 
cal/(mol*K)

>  <Cp_T_value_list>  (2) 
[14.078036689508782, 17.202765604471058, 20.2803800489589, 23.1023356383003, 27.639649626797436, 30.983090061901617, 36.21499785066487, 38.88468928045463, 40.19916387517873]

>  <Cp_T_units>  (2) 
cal/(mol*K)

>  <T_list>  (2) 
[300.0, 400.0, 500.0, 600.0, 800.0, 1000.0, 1500.0, 2000.0, 2400.0]

>  <T_units>  (2) 
K

>  <yaml_path>  (2) 
/home/calvin/Dropbox/PersonalFolders/Calvin/ZEUS_Converged/rmg_rxn_16646/output/Species/rmg_rxn_16646_p1_CC=N/rmg_rxn_16646_p1_CC=N.yml

>  <frequencies_cm1>  (2) 
[185.42920459596, 489.9250676554, 680.6761858743599, 921.32968641376, 1055.89513074448, 1069.62910138448, 1130.4431233784, 1267.5150173509198, 1378.7876474762, 1425.071128533, 1456.56312321052, 1463.3683056626398, 1737.36788691596, 2989.2124437666403, 3014.6889593038395, 3075.43431144456, 3123.3452680222, 3455.8927661138396]

>  <ZPE_kJmol>  (2) 
178.96482902382195

>  <E_elec_kJmol>  (2) 
-351714.16818564065

>  <E0_minus_Eelec_plus_ZPE_kJmol>  (2) 
0.0

>  <rxn>  (2) 
rmg_rxn_16646

>  <species_type>  (2) 
p0

>  <species_folder>  (2) 
rmg_rxn_16646_p1_CC=N

>  <frequencies_cm1_list>  (2) 
[185.42920459596, 489.9250676554, 680.6761858743599, 921.32968641376, 1055.89513074448, 1069.62910138448, 1130.4431233784, 1267.5150173509198, 1378.7876474762, 1425.071128533, 1456.56312321052, 1463.3683056626398, 1737.36788691596, 2989.2124437666403, 3014.6889593038395, 3075.43431144456, 3123.3452680222, 3455.8927661138396]

>  <E0_kJmol>  (2) 
-351535

>  <H298_kJmol>  (2) 
-351522

$$$$

     RDKit          3D

 21 19  0  0  0  0  0  0  0  0999 V2000
   -3.5133   -0.7307    0.3644 C   0  0  0  0  0  0  0  0  0  1  0  0
   -2.2767   -0.0997   -0.1794 C   0  0  0  0  0  0  0  0  0  2  0  0
   -2.1541    0.4642   -1.2815 N   0  0  0  0  0  0  0  0  0  3  0  0
   -3.3245   -1.7846    0.5762 H   0  0  0  0  0  0  0  0  0  4  0  0
   -3.7828   -0.2550    1.3089 H   0  0  0  0  0  0  0  0  0  5  0  0
   -4.3321   -0.6357   -0.3477 H   0  0  0  0  0  0  0  0  0  6  0  0
   -1.2142    0.8201   -1.4591 H   0  0  0  0  0  0  0  0  0  7  0  0
    2.8814   -1.8016    0.2211 C   0  0  0  0  0  0  0  0  0  8  0  0
    2.0039   -1.0890   -0.4650 C   0  0  0  0  0  0  0  0  0  9  0  0
    2.0940    0.3956   -0.6476 C   0  0  0  0  0  0  0  0  0 10  0  0
    0.8698    1.0845   -0.4685 O   0  0  0  0  0  0  0  0  0 11  0  0
    0.3879    1.1345    0.8517 C   0  0  0  0  0  0  0  0  0 12  0  0
   -0.1711   -0.0210    1.3062 O   0  0  0  0  0  1  0  0  0 13  0  0
    3.7093   -1.3313    0.7413 H   0  0  0  0  0  0  0  0  0 14  0  0
    2.8063   -2.8789    0.2923 H   0  0  0  0  0  0  0  0  0 15  0  0
    1.1725   -1.5746   -0.9663 H   0  0  0  0  0  0  0  0  0 16  0  0
    2.3926    0.6205   -1.6742 H   0  0  0  0  0  0  0  0  0 17  0  0
    2.8595    0.8112    0.0210 H   0  0  0  0  0  0  0  0  0 18  0  0
   -0.3248    1.9695    0.8565 H   0  0  0  0  0  0  0  0  0 19  0  0
    1.2063    1.3721    1.5533 H   0  0  0  0  0  0  0  0  0 20  0  0
   -1.3377   -0.1703    0.5624 H   0  0  0  0  0  0  0  0  0 21  0  0
  1  4  1  0
  1  5  1  0
  1  6  1  0
  1  2  1  0
  2  3  1  0
  2 21  1  0
  3  7  1  0
  8  9  1  0
  8 15  1  0
  8 14  1  0
  9 16  1  0
  9 10  1  0
 10 18  1  0
 10 11  1  0
 10 17  1  0
 11 12  1  0
 12 19  1  0
 12 13  1  0
 12 20  1  0
M  RAD  1  13   2
M  END
>  <rmg_smiles>  (3) 
[CH2][CH]COC[O].C[CH][NH]

>  <rmg_adjacency_list>  (3) 
multiplicity 2
1  O u0 p2 c0 {4,S} {6,S}
2  O u1 p2 c0 {6,S}
3  N u0 p1 c0 {8,S} {21,S}
4  C u0 p0 c0 {1,S} {7,S} {10,S} {11,S}
5  C u0 p0 c0 {8,S} {12,S} {13,S} {14,S}
6  C u0 p0 c0 {1,S} {2,S} {15,S} {16,S}
7  C u0 p0 c0 {4,S} {9,S} {17,S}
8  C u0 p0 c0 {3,S} {5,S} {18,S}
9  C u0 p0 c0 {7,S} {19,S} {20,S}
10 H u0 p0 c0 {4,S}
11 H u0 p0 c0 {4,S}
12 H u0 p0 c0 {5,S}
13 H u0 p0 c0 {5,S}
14 H u0 p0 c0 {5,S}
15 H u0 p0 c0 {6,S}
16 H u0 p0 c0 {6,S}
17 H u0 p0 c0 {7,S}
18 H u0 p0 c0 {8,S}
19 H u0 p0 c0 {9,S}
20 H u0 p0 c0 {9,S}
21 H u0 p0 c0 {3,S}


>  <multiplicity>  (3) 
2

>  <reaction>  (3) 
rmg_rxn_16646

>  <type>  (3) 
ts

>  <role_mapnums>  (3) 
{"*2": 21, "*1": 13, "*3": 2, "*0": 3, "*4": 12}

>  <role_mapidx>  (3) 
{"*2": 20, "*1": 12, "*3": 1, "*0": 2, "*4": 11}

>  <ordered_mapped_smiles>  (3) 
[C:1]([CH:2]([NH:3][H:7])[H:21])([H:4])([H:5])[H:6].[CH:8]([CH:9]([C:10]([O:11][C:12]([O:13])([H:19])[H:20])([H:17])[H:18])[H:16])([H:14])[H:15]

>  <mol_properties>  (3) 
{"1": {"label": "*3", "atom_type": "Cs"}, "2": {"label": "*0", "atom_type": "N3s"}, "11": {"label": "*4", "atom_type": "Cs"}, "12": {"label": "*1", "atom_type": "O2s"}, "20": {"label": "*2", "atom_type": "H0"}}

>  <level_of_theory>  (3) 
wb97xd/def2tzvp

>  <lot_method>  (3) 
wb97xd

>  <lot_basis>  (3) 
def2tzvp

>  <spin_multiplicity>  (3) 
2.0

>  <optical_isomers>  (3) 
2.0

>  <modes>  (3) 
IdealGasTranslation(mass=(130.087, 'amu')),         NonlinearRotor(             inertia = ([203.937, 662.193, 701.954

>  <frequency_value>  (3) 
-850.051

>  <frequency_units>  (3) 
cm^-1

>  <frequency_list>  (3) 
unknown

>  <arkane_path>  (3) 
/home/calvin/Dropbox/PersonalFolders/Calvin/ZEUS_Converged/rmg_rxn_16646/output/rxns/TS0/arkane/output.py

>  <path_exists>  (3) 
True

>  <E0_value>  (3) 
-1157280.0

>  <E0_units>  (3) 
kJ/mol

>  <thermo_class>  (3) 
unknown

>  <Cp0_value>  (3) 
unknown

>  <Cp0_units>  (3) 
unknown

>  <CpInf_value>  (3) 
unknown

>  <CpInf_units>  (3) 
unknown

>  <Tmin_value>  (3) 
unknown

>  <Tmin_units>  (3) 
unknown

>  <Tmax_value>  (3) 
unknown

>  <Tmax_units>  (3) 
unknown

>  <polynomials>  (3) 
unknown

>  <H298_value>  (3) 
unknown

>  <H298_units>  (3) 
unknown

>  <S298_value>  (3) 
unknown

>  <S298_units>  (3) 
unknown

>  <Cp_T_value_list>  (3) 
unknown

>  <Cp_T_units>  (3) 
unknown

>  <T_list>  (3) 
unknown

>  <T_units>  (3) 
unknown

>  <yaml_path>  (3) 
unknown

>  <frequencies_cm1>  (3) 
unknown

>  <ZPE_kJmol>  (3) 
unknown

>  <E_elec_kJmol>  (3) 
unknown

>  <E0_minus_Eelec_plus_ZPE_kJmol>  (3) 
unknown

>  <rxn>  (3) 
unknown

>  <species_type>  (3) 
unknown

>  <species_folder>  (3) 
unknown

>  <frequencies_cm1_list>  (3) 
[]

>  <ts_imag_freq_cm1>  (3) 
-860.3757

>  <ts_freq_out_path>  (3) 
/home/calvin/Dropbox/PersonalFolders/Calvin/ZEUS_Converged/rmg_rxn_16646/output/rxns/TS0/geometry/freq.out

>  <E0_kJmol>  (3) 
-1.15728e+06

>  <H298_kJmol>  (3) 
unknown

$$$$

     RDKit          3D

 13 12  0  0  0  0  0  0  0  0999 V2000
    2.4430   -0.3849    0.0540 C   0  0  0  0  0  0  0  0  0  1  0  0
    1.2567   -0.6322    0.5818 C   0  0  0  0  0  0  0  0  0  2  0  0
    0.0753    0.2775    0.5273 C   0  0  0  0  0  0  0  0  0  3  0  0
    0.3842    1.4616   -0.1714 O   0  0  0  0  0  0  0  0  0  4  0  0
   -0.6866    2.3343   -0.3126 C   0  0  0  0  0  0  0  0  0  5  0  0
   -1.2216    2.8361    0.7984 O   0  0  0  0  0  1  0  0  0  6  0  0
    3.2507   -1.0998    0.1431 H   0  0  0  0  0  0  0  0  0  7  0  0
    2.6411    0.5367   -0.4774 H   0  0  0  0  0  0  0  0  0  8  0  0
    1.0785   -1.5620    1.1139 H   0  0  0  0  0  0  0  0  0  9  0  0
   -0.2540    0.5126    1.5468 H   0  0  0  0  0  0  0  0  0 10  0  0
   -0.7614   -0.2409    0.0324 H   0  0  0  0  0  0  0  0  0 11  0  0
   -1.5299    1.8457   -0.8558 H   0  0  0  0  0  0  0  0  0 12  0  0
   -0.3398    3.1546   -0.9632 H   0  0  0  0  0  0  0  0  0 13  0  0
  1  8  1  0
  1  7  1  0
  1  2  1  0
  2  9  1  0
  2  3  1  0
  3 11  1  0
  3  4  1  0
  3 10  1  0
  4  5  1  0
  5 13  1  0
  5  6  1  0
  5 12  1  0
M  RAD  1   6   2
M  END
>  <rmg_smiles>  (4) 
[CH2][CH]COC[O]

>  <rmg_adjacency_list>  (4) 
multiplicity 2
1  O u0 p2 c0 {3,S} {4,S}
2  O u1 p2 c0 {4,S}
3  C u0 p0 c0 {1,S} {5,S} {7,S} {8,S}
4  C u0 p0 c0 {1,S} {2,S} {9,S} {10,S}
5  C u0 p0 c0 {3,S} {6,S} {11,S}
6  C u0 p0 c0 {5,S} {12,S} {13,S}
7  H u0 p0 c0 {3,S}
8  H u0 p0 c0 {3,S}
9  H u0 p0 c0 {4,S}
10 H u0 p0 c0 {4,S}
11 H u0 p0 c0 {5,S}
12 H u0 p0 c0 {6,S}
13 H u0 p0 c0 {6,S}


>  <multiplicity>  (4) 
2

>  <reaction>  (4) 
rmg_rxn_16646

>  <type>  (4) 
r1

>  <role_mapnums>  (4) 
{}

>  <role_mapidx>  (4) 
{}

>  <ordered_mapped_smiles>  (4) 
[CH:1]([CH:2]([C:3]([O:4][C:5]([O:6])([H:12])[H:13])([H:10])[H:11])[H:9])([H:7])[H:8]

>  <level_of_theory>  (4) 
wb97xd/def2tzvp

>  <lot_method>  (4) 
wb97xd

>  <lot_basis>  (4) 
def2tzvp

>  <spin_multiplicity>  (4) 
2.0

>  <optical_isomers>  (4) 
2.0

>  <modes>  (4) 
IdealGasTranslation(mass=(87.0446, 'amu')),         NonlinearRotor(             inertia = ([43.2701, 281.035, 303.214

>  <frequency_value>  (4) 
unknown

>  <frequency_units>  (4) 
unknown

>  <frequency_list>  (4) 
unknown

>  <arkane_path>  (4) 
/home/calvin/Dropbox/PersonalFolders/Calvin/ZEUS_Converged/rmg_rxn_16646/output/Species/rmg_rxn_16646_p2_C=CCOCsbr-O-sbr/arkane/output.py

>  <path_exists>  (4) 
True

>  <E0_value>  (4) 
-805752.0639491953

>  <E0_units>  (4) 
kJ/mol

>  <thermo_class>  (4) 
NASA

>  <Cp0_value>  (4) 
33.257888

>  <Cp0_units>  (4) 
J/(mol*K)

>  <CpInf_value>  (4) 
307.635464

>  <CpInf_units>  (4) 
J/(mol*K)

>  <Tmin_value>  (4) 
10.0

>  <Tmin_units>  (4) 
K

>  <Tmax_value>  (4) 
3000.0

>  <Tmax_units>  (4) 
K

>  <polynomials>  (4) 
[{"name": "polynomial1", "class": "NASAPolynomial", "Tmin_value": 10.0, "Tmin_units": "K", "Tmax_value": 1110.8015768620794, "Tmax_units": "K", "coeffs": [3.9202118391312752, 0.027294825020104153, 1.6753512074739745e-05, -3.116163751948595e-08, 1.0945960395583141e-11, -96909597.71400224, 11.85312846623316]}, {"name": "polynomial2", "class": "NASAPolynomial", "Tmin_value": 1110.8015768620794, "Tmin_units": "K", "Tmax_value": 3000.0, "Tmax_units": "K", "coeffs": [7.537118238775617, 0.03302300665239599, -1.630485116508982e-05, 3.8770394226038425e-09, -3.6047132707891035e-13, -96911558.17461371, -11.184050222850306]}]

>  <H298_value>  (4) 
-192574.47087869825

>  <H298_units>  (4) 
kcal/mol

>  <S298_value>  (4) 
85.07506560459476

>  <S298_units>  (4) 
cal/(mol*K)

>  <Cp_T_value_list>  (4) 
[25.56297432218494, 31.406955305653604, 36.852585986429666, 41.76323905605712, 49.69412573192994, 55.15068728117495, 62.88680914722946, 66.79498056175008, 68.58447976792732]

>  <Cp_T_units>  (4) 
cal/(mol*K)

>  <T_list>  (4) 
[300.0, 400.0, 500.0, 600.0, 800.0, 1000.0, 1500.0, 2000.0, 2400.0]

>  <T_units>  (4) 
K

>  <yaml_path>  (4) 
/home/calvin/Dropbox/PersonalFolders/Calvin/ZEUS_Converged/rmg_rxn_16646/output/Species/rmg_rxn_16646_p2_C=CCOCsbr-O-sbr/rmg_rxn_16646_p2_C=CCOCsbr-O-sbr.yml

>  <frequencies_cm1>  (4) 
[41.43538942088, 126.51733753568001, 186.47985334991998, 206.13316533576, 313.49161382863997, 541.2214479958, 570.70141597456, 654.9249909243599, 769.1847596638399, 925.45674459108, 961.22000413764, 977.07587324152, 1016.9661909654, 1043.47962128592, 1068.38617704156, 1112.7606361793999, 1168.74716749336, 1212.37999221664, 1265.5167246228, 1314.14871465904, 1317.4311336419998, 1369.91550244276, 1416.02044188124, 1439.09351255644, 1490.4516957647197, 1724.9386434867597, 2794.08018891352, 2936.60446923012, 2938.6645648261197, 3002.2391149186797, 3127.0877750216, 3141.1238930156796, 3222.75861449984]

>  <ZPE_kJmol>  (4) 
271.5322690042694

>  <E_elec_kJmol>  (4) 
-806023.5962181996

>  <E0_minus_Eelec_plus_ZPE_kJmol>  (4) 
0.0

>  <rxn>  (4) 
rmg_rxn_16646

>  <species_type>  (4) 
p1

>  <species_folder>  (4) 
rmg_rxn_16646_p2_C=CCOCsbr-O-sbr

>  <frequencies_cm1_list>  (4) 
[41.43538942088, 126.51733753568001, 186.47985334991998, 206.13316533576, 313.49161382863997, 541.2214479958, 570.70141597456, 654.9249909243599, 769.1847596638399, 925.45674459108, 961.22000413764, 977.07587324152, 1016.9661909654, 1043.47962128592, 1068.38617704156, 1112.7606361793999, 1168.74716749336, 1212.37999221664, 1265.5167246228, 1314.14871465904, 1317.4311336419998, 1369.91550244276, 1416.02044188124, 1439.09351255644, 1490.4516957647197, 1724.9386434867597, 2794.08018891352, 2936.60446923012, 2938.6645648261197, 3002.2391149186797, 3127.0877750216, 3141.1238930156796, 3222.75861449984]

>  <E0_kJmol>  (4) 
-805752

>  <H298_kJmol>  (4) 
-805732

$$$$

     RDKit          3D

  7  6  0  0  0  0  0  0  0  0999 V2000
   -0.8793   -0.0517   -0.1112 C   0  0  0  0  0  0  0  0  0  1  0  0
    0.2561    0.5032    0.6662 C   0  0  0  0  0  3  0  0  0  2  0  0
    1.4646    0.2961    0.5535 N   0  0  0  0  0  0  0  0  0  3  0  0
   -0.5271   -0.7405   -0.8845 H   0  0  0  0  0  0  0  0  0  4  0  0
   -1.5620   -0.5740    0.5603 H   0  0  0  0  0  0  0  0  0  5  0  0
   -1.4387    0.7624   -0.5738 H   0  0  0  0  0  0  0  0  0  6  0  0
    2.0855    0.7832    1.1950 H   0  0  0  0  0  0  0  0  0  7  0  0
  1  5  1  0
  1  4  1  0
  1  6  1  0
  1  2  1  0
  2  3  1  0
  3  7  1  0
M  RAD  1   2   2
M  END
>  <rmg_smiles>  (5) 
C[C][NH]

>  <rmg_adjacency_list>  (5) 
multiplicity 2
1 N u0 p1 c0 {3,S} {7,S}
2 C u0 p0 c0 {3,S} {4,S} {5,S} {6,S}
3 C u1 p1 c0 {1,S} {2,S}
4 H u0 p0 c0 {2,S}
5 H u0 p0 c0 {2,S}
6 H u0 p0 c0 {2,S}
7 H u0 p0 c0 {1,S}


>  <multiplicity>  (5) 
2

>  <reaction>  (5) 
rmg_rxn_16646

>  <type>  (5) 
r2

>  <role_mapnums>  (5) 
{}

>  <role_mapidx>  (5) 
{}

>  <ordered_mapped_smiles>  (5) 
[C:1]([CH:2][NH:3][H:7])([H:4])([H:5])[H:6]

>  <level_of_theory>  (5) 
wb97xd/def2tzvp

>  <lot_method>  (5) 
wb97xd

>  <lot_basis>  (5) 
def2tzvp

>  <spin_multiplicity>  (5) 
2.0

>  <optical_isomers>  (5) 
1.0

>  <modes>  (5) 
IdealGasTranslation(mass=(42.0344, 'amu')),         NonlinearRotor(             inertia = ([5.99172, 53.2819, 56.1621

>  <frequency_value>  (5) 
unknown

>  <frequency_units>  (5) 
unknown

>  <frequency_list>  (5) 
unknown

>  <arkane_path>  (5) 
/home/calvin/Dropbox/PersonalFolders/Calvin/ZEUS_Converged/rmg_rxn_16646/output/Species/rmg_rxn_16646_r1_Csbr-C-sbr=N/arkane/output.py

>  <path_exists>  (5) 
True

>  <E0_value>  (5) 
-349829.764685623

>  <E0_units>  (5) 
kJ/mol

>  <thermo_class>  (5) 
NASA

>  <Cp0_value>  (5) 
33.257888

>  <Cp0_units>  (5) 
J/(mol*K)

>  <CpInf_value>  (5) 
157.97496800000002

>  <CpInf_units>  (5) 
J/(mol*K)

>  <Tmin_value>  (5) 
10.0

>  <Tmin_units>  (5) 
K

>  <Tmax_value>  (5) 
3000.0

>  <Tmax_units>  (5) 
K

>  <polynomials>  (5) 
[{"name": "polynomial1", "class": "NASAPolynomial", "Tmin_value": 10.0, "Tmin_units": "K", "Tmax_value": 738.3743952362336, "Tmax_units": "K", "coeffs": [3.94816435574076, 0.0050490899334952365, 2.9138762254674963e-05, -4.1461454077729986e-08, 1.7445207619274657e-11, -42074801.99808785, 7.367042589971105]}, {"name": "polynomial2", "class": "NASAPolynomial", "Tmin_value": 738.3743952362336, "Tmin_units": "K", "Tmax_value": 3000.0, "Tmax_units": "K", "coeffs": [1.8715069101427877, 0.02063891250139314, -1.1348333197061696e-05, 3.054017386445155e-09, -3.221267645990197e-13, -42074613.63384159, 15.954731261538695]}]

>  <H298_value>  (5) 
-83608.17184873267

>  <H298_units>  (5) 
kcal/mol

>  <S298_value>  (5) 
64.24083463874868

>  <S298_units>  (5) 
cal/(mol*K)

>  <Cp_T_value_list>  (5) 
[14.123527420612058, 16.738372594153542, 19.20643747920063, 21.407773333167935, 24.94225834136279, 27.61020109326823, 31.740989493089067, 33.85029409554027, 34.914902461576624]

>  <Cp_T_units>  (5) 
cal/(mol*K)

>  <T_list>  (5) 
[300.0, 400.0, 500.0, 600.0, 800.0, 1000.0, 1500.0, 2000.0, 2400.0]

>  <T_units>  (5) 
K

>  <yaml_path>  (5) 
/home/calvin/Dropbox/PersonalFolders/Calvin/ZEUS_Converged/rmg_rxn_16646/output/Species/rmg_rxn_16646_r1_Csbr-C-sbr=N/rmg_rxn_16646_r1_Csbr-C-sbr=N.yml

>  <frequencies_cm1>  (5) 
[141.67277413692, 434.27501862211994, 665.30100574288, 899.7673525089599, 963.6234489996399, 1033.0212026435597, 1158.24754693908, 1370.993619138, 1448.09613031096, 1452.31932628276, 1834.0687741922, 3001.5661503573197, 3089.40862657076, 3102.79924794476, 3454.4026302994]

>  <ZPE_kJmol>  (5) 
143.84837178963886

>  <E_elec_kJmol>  (5) 
-349973.6130574126

>  <E0_minus_Eelec_plus_ZPE_kJmol>  (5) 
0.0

>  <rxn>  (5) 
rmg_rxn_16646

>  <species_type>  (5) 
r0

>  <species_folder>  (5) 
rmg_rxn_16646_r1_Csbr-C-sbr=N

>  <frequencies_cm1_list>  (5) 
[141.67277413692, 434.27501862211994, 665.30100574288, 899.7673525089599, 963.6234489996399, 1033.0212026435597, 1158.24754693908, 1370.993619138, 1448.09613031096, 1452.31932628276, 1834.0687741922, 3001.5661503573197, 3089.40862657076, 3102.79924794476, 3454.4026302994]

>  <E0_kJmol>  (5) 
-349830

>  <H298_kJmol>  (5) 
-349817

$$$$
