
     RDKit          3D

  5  4  0  0  0  0  0  0  0  0999 V2000
    0.1874   -1.0694    0.0291 N   0  0  0  0  0  0  0  0  0  1  0  0
    0.4108    0.1960    0.0143 N   0  0  0  0  0  0  0  0  0  2  0  0
   -0.5233    0.9546   -0.0753 O   0  0  0  0  0  0  0  0  0  3  0  0
   -0.7670   -1.3348    0.2408 H   0  0  0  0  0  0  0  0  0  4  0  0
    0.9979   -1.6136    0.2993 H   0  0  0  0  0  0  0  0  0  5  0  0
  1  5  1  0
  1  2  1  0
  1  4  1  0
  2  3  1  0
M  END
>  <rmg_smiles>  (1) 
N[N][O]

>  <rmg_adjacency_list>  (1) 
1 O u0 p2 c0 {3,S}
2 N u0 p1 c0 {3,S} {4,S} {5,S}
3 N u0 p1 c0 {1,S} {2,S}
4 H u0 p0 c0 {2,S}
5 H u0 p0 c0 {2,S}


>  <multiplicity>  (1) 
1

>  <reaction>  (1) 
rmg_rxn_1485

>  <type>  (1) 
r1h

>  <role_mapnums>  (1) 
{"r1h_a": 1, "r1h_h": 4}

>  <role_mapidx>  (1) 
{"r1h_a": 0, "r1h_h": 3}

>  <ordered_mapped_smiles>  (1) 
[N:1]([NH:2][OH:3])([H:4])[H:5]

>  <mol_properties>  (1) 
{"0": {"label": "donator", "atom_type": "N3s"}, "3": {"label": "d_hydrogen", "atom_type": "H0"}}

>  <level_of_theory>  (1) 
wb97xd/def2tzvp

>  <lot_method>  (1) 
wb97xd

>  <lot_basis>  (1) 
def2tzvp

>  <spin_multiplicity>  (1) 
1.0

>  <optical_isomers>  (1) 
1.0

>  <modes>  (1) 
IdealGasTranslation(mass=(46.0167, 'amu')),         NonlinearRotor(             inertia = ([6.03621, 38.6456, 44.6818

>  <frequency_value>  (1) 
unknown

>  <frequency_units>  (1) 
unknown

>  <frequency_list>  (1) 
unknown

>  <arkane_path>  (1) 
/home/calvin/Dropbox/PersonalFolders/Calvin/ATLAS_Converged/rmg_rxn_1485/output/Species/rmg_rxn_1485_r1_NN=O/arkane/output.py

>  <path_exists>  (1) 
True

>  <E0_value>  (1) 
-487909.5710036975

>  <E0_units>  (1) 
kJ/mol

>  <thermo_class>  (1) 
NASA

>  <Cp0_value>  (1) 
33.257888

>  <Cp0_units>  (1) 
J/(mol*K)

>  <CpInf_value>  (1) 
108.088136

>  <CpInf_units>  (1) 
J/(mol*K)

>  <Tmin_value>  (1) 
10.0

>  <Tmin_units>  (1) 
K

>  <Tmax_value>  (1) 
3000.0

>  <Tmax_units>  (1) 
K

>  <polynomials>  (1) 
[{"name": "polynomial1", "class": "NASAPolynomial", "Tmin_value": 10.0, "Tmin_units": "K", "Tmax_value": 491.3889412835894, "Tmax_units": "K", "coeffs": [3.982254985154104, 0.001109066907410209, 3.807622400219672e-05, -7.34801373598144e-08, 4.5205197130692525e-11, -58681966.3266894, 6.4941530339393]}, {"name": "polynomial2", "class": "NASAPolynomial", "Tmin_value": 491.3889412835894, "Tmin_units": "K", "Tmax_value": 3000.0, "Tmax_units": "K", "coeffs": [2.9404368052929843, 0.012865713030583807, -7.812149749761828e-06, 2.344037732853415e-09, -2.738787635374175e-13, -58681903.491322435, 10.377638282690032]}]

>  <H298_value>  (1) 
-116610.30707517578

>  <H298_units>  (1) 
kcal/mol

>  <S298_value>  (1) 
60.89503268429048

>  <S298_units>  (1) 
cal/(mol*K)

>  <Cp_T_value_list>  (1) 
[12.16971939315822, 13.855999712949458, 15.293825753682395, 16.530196084841165, 18.5231451978899, 19.99956230160783, 22.22945931121974, 23.436130825769936, 24.119725013813046]

>  <Cp_T_units>  (1) 
cal/(mol*K)

>  <T_list>  (1) 
[300.0, 400.0, 500.0, 600.0, 800.0, 1000.0, 1500.0, 2000.0, 2400.0]

>  <T_units>  (1) 
K

>  <yaml_path>  (1) 
/home/calvin/Dropbox/PersonalFolders/Calvin/ATLAS_Converged/rmg_rxn_1485/output/Species/rmg_rxn_1485_r1_NN=O/rmg_rxn_1485_r1_NN=O.yml

>  <frequencies_cm1>  (1) 
[224.96930606852, 638.8425113049199, 713.1638934232799, 1118.09628377304, 1228.5792105865198, 1578.89846668632, 1626.84375819056, 3477.7435134020793, 3702.4793419697194]

>  <ZPE_kJmol>  (1) 
85.59053717638125

>  <E_elec_kJmol>  (1) 
-487995.1615408739

>  <E0_minus_Eelec_plus_ZPE_kJmol>  (1) 
0.0

>  <rxn>  (1) 
rmg_rxn_1485

>  <species_type>  (1) 
r0

>  <species_folder>  (1) 
rmg_rxn_1485_r1_NN=O

>  <frequencies_cm1_list>  (1) 
[224.96930606852, 638.8425113049199, 713.1638934232799, 1118.09628377304, 1228.5792105865198, 1578.89846668632, 1626.84375819056, 3477.7435134020793, 3702.4793419697194]

>  <E0_kJmol>  (1) 
-487910

>  <H298_kJmol>  (1) 
-487898

$$$$

     RDKit          3D

 15 14  0  0  0  0  0  0  0  0999 V2000
    2.9262   -0.6336    0.3449 H   0  0  0  0  0  0  0  0  0  1  0  0
    1.8791   -0.7718    0.6066 C   0  0  0  0  0  0  0  0  0  2  0  0
    1.1187   -0.5282   -0.6588 C   0  0  0  0  0  0  0  0  0  3  0  0
   -0.6764   -0.6949   -0.4207 S   0  0  0  0  0  0  0  0  0  4  0  0
   -1.0347    0.6776    0.7088 C   0  0  0  0  0  0  0  0  0  5  0  0
   -0.6025    2.0482    0.2155 C   0  0  0  0  0  0  0  0  0  6  0  0
    1.7373   -0.0254    1.3846 H   0  0  0  0  0  0  0  0  0  7  0  0
    1.8376   -1.7906    0.9887 H   0  0  0  0  0  0  0  0  0  8  0  0
    1.3599   -1.2737   -1.4171 H   0  0  0  0  0  0  0  0  0  9  0  0
    1.3471    0.4522   -1.0738 H   0  0  0  0  0  0  0  0  0 10  0  0
   -2.1194    0.6343    0.8218 H   0  0  0  0  0  0  0  0  0 11  0  0
   -0.6069    0.4624    1.6888 H   0  0  0  0  0  0  0  0  0 12  0  0
    0.4839    2.1325    0.1587 H   0  0  0  0  0  0  0  0  0 13  0  0
   -1.0134    2.2550   -0.7734 H   0  0  0  0  0  0  0  0  0 14  0  0
   -0.9541    2.8196    0.9037 H   0  0  0  0  0  0  0  0  0 15  0  0
  1  2  1  0
  2  8  1  0
  2  7  1  0
  2  3  1  0
  3  9  1  0
  3 10  1  0
  3  4  1  0
  4  5  1  0
  5 11  1  0
  5 12  1  0
  5  6  1  0
  6 15  1  0
  6 14  1  0
  6 13  1  0
M  END
>  <rmg_smiles>  (2) 
CCSCC

>  <rmg_adjacency_list>  (2) 
1  S u0 p2 c0 {2,S} {3,S}
2  C u0 p0 c0 {1,S} {4,S} {6,S} {7,S}
3  C u0 p0 c0 {1,S} {5,S} {8,S} {9,S}
4  C u0 p0 c0 {2,S} {10,S} {11,S} {12,S}
5  C u0 p0 c0 {3,S} {13,S} {14,S} {15,S}
6  H u0 p0 c0 {2,S}
7  H u0 p0 c0 {2,S}
8  H u0 p0 c0 {3,S}
9  H u0 p0 c0 {3,S}
10 H u0 p0 c0 {4,S}
11 H u0 p0 c0 {4,S}
12 H u0 p0 c0 {4,S}
13 H u0 p0 c0 {5,S}
14 H u0 p0 c0 {5,S}
15 H u0 p0 c0 {5,S}


>  <multiplicity>  (2) 
1

>  <reaction>  (2) 
rmg_rxn_1485

>  <type>  (2) 
r2h

>  <role_mapnums>  (2) 
{"r2h_a": 2, "r2h_h": 1}

>  <role_mapidx>  (2) 
{"r2h_a": 1, "r2h_h": 0}

>  <ordered_mapped_smiles>  (2) 
[H:1][C:2]([C:3]([S:4][C:5]([C:6]([H:13])([H:14])[H:15])([H:11])[H:12])([H:9])[H:10])([H:7])[H:8]

>  <mol_properties>  (2) 
{"0": {"label": "a_hydrogen", "atom_type": "H0"}, "1": {"label": "acceptor", "atom_type": "Cs"}}

>  <level_of_theory>  (2) 
wb97xd/def2tzvp

>  <lot_method>  (2) 
wb97xd

>  <lot_basis>  (2) 
def2tzvp

>  <spin_multiplicity>  (2) 
1.0

>  <optical_isomers>  (2) 
2.0

>  <modes>  (2) 
IdealGasTranslation(mass=(90.0503, 'amu')),         NonlinearRotor(             inertia = ([97.9259, 182.785, 231.685

>  <frequency_value>  (2) 
unknown

>  <frequency_units>  (2) 
unknown

>  <frequency_list>  (2) 
unknown

>  <arkane_path>  (2) 
/home/calvin/Dropbox/PersonalFolders/Calvin/ATLAS_Converged/rmg_rxn_1485/output/Species/rmg_rxn_1485_p2_CCSCC/arkane/output.py

>  <path_exists>  (2) 
True

>  <E0_value>  (2) 
-1461176.7123028408

>  <E0_units>  (2) 
kJ/mol

>  <thermo_class>  (2) 
NASA

>  <Cp0_value>  (2) 
33.257888

>  <Cp0_units>  (2) 
J/(mol*K)

>  <CpInf_value>  (2) 
357.522296

>  <CpInf_units>  (2) 
J/(mol*K)

>  <Tmin_value>  (2) 
10.0

>  <Tmin_units>  (2) 
K

>  <Tmax_value>  (2) 
3000.0

>  <Tmax_units>  (2) 
K

>  <polynomials>  (2) 
[{"name": "polynomial1", "class": "NASAPolynomial", "Tmin_value": 10.0, "Tmin_units": "K", "Tmax_value": 1062.740332266501, "Tmax_units": "K", "coeffs": [3.7240768769611408, 0.031177750271788266, 1.590200165997747e-05, -3.1138888238628924e-08, 1.1081299545578661e-11, -175738967.30653694, 10.691637972640313]}, {"name": "polynomial2", "class": "NASAPolynomial", "Tmin_value": 1062.740332266501, "Tmin_units": "K", "Tmax_value": 3000.0, "Tmax_units": "K", "coeffs": [4.272256190616837, 0.04355880957526612, -2.1960566897444118e-05, 5.4018330156847166e-09, -5.231130586129144e-13, -175739899.50439465, 4.175990433518907]}]

>  <H298_value>  (2) 
-349224.4948454063

>  <H298_units>  (2) 
kcal/mol

>  <S298_value>  (2) 
82.77165630085062

>  <S298_units>  (2) 
cal/(mol*K)

>  <Cp_T_value_list>  (2) 
[27.339173580692723, 33.84270235009273, 39.920340825285514, 45.438637568785964, 54.52765007672161, 61.099128237827436, 71.10646466743047, 76.29375194018085, 78.77254304981717]

>  <Cp_T_units>  (2) 
cal/(mol*K)

>  <T_list>  (2) 
[300.0, 400.0, 500.0, 600.0, 800.0, 1000.0, 1500.0, 2000.0, 2400.0]

>  <T_units>  (2) 
K

>  <yaml_path>  (2) 
/home/calvin/Dropbox/PersonalFolders/Calvin/ATLAS_Converged/rmg_rxn_1485/output/Species/rmg_rxn_1485_p2_CCSCC/rmg_rxn_1485_p2_CCSCC.yml

>  <frequencies_cm1>  (2) 
[66.48615186823999, 121.63491097315999, 224.63969077315997, 254.99863287287997, 273.62876404604003, 341.45397805167994, 381.0490154068, 647.6597204558, 701.8333676452798, 742.1151035324, 786.8329119362398, 985.17891591912, 988.88708799192, 1023.0091380469999, 1055.1809642711999, 1060.18699656948, 1093.14852610548, 1263.72444145428, 1273.9013136985197, 1289.2490258887199, 1308.3598460342798, 1399.5396771132398, 1399.8967603498797, 1460.7725852116798, 1462.4000607325202, 1478.53747623452, 1481.2362014652797, 1489.1538355392402, 1493.6723118798, 3015.6091353367196, 3016.10355827976, 3035.3242501904397, 3036.18262335544, 3073.69009717328, 3077.2334615983996, 3086.3528181033594, 3086.8953099436403, 3101.4052499247996, 3104.1520440527997]

>  <ZPE_kJmol>  (2) 
348.0016505911852

>  <E_elec_kJmol>  (2) 
-1461524.713953432

>  <E0_minus_Eelec_plus_ZPE_kJmol>  (2) 
0.0

>  <rxn>  (2) 
rmg_rxn_1485

>  <species_type>  (2) 
p1

>  <species_folder>  (2) 
rmg_rxn_1485_p2_CCSCC

>  <frequencies_cm1_list>  (2) 
[66.48615186823999, 121.63491097315999, 224.63969077315997, 254.99863287287997, 273.62876404604003, 341.45397805167994, 381.0490154068, 647.6597204558, 701.8333676452798, 742.1151035324, 786.8329119362398, 985.17891591912, 988.88708799192, 1023.0091380469999, 1055.1809642711999, 1060.18699656948, 1093.14852610548, 1263.72444145428, 1273.9013136985197, 1289.2490258887199, 1308.3598460342798, 1399.5396771132398, 1399.8967603498797, 1460.7725852116798, 1462.4000607325202, 1478.53747623452, 1481.2362014652797, 1489.1538355392402, 1493.6723118798, 3015.6091353367196, 3016.10355827976, 3035.3242501904397, 3036.18262335544, 3073.69009717328, 3077.2334615983996, 3086.3528181033594, 3086.8953099436403, 3101.4052499247996, 3104.1520440527997]

>  <E0_kJmol>  (2) 
-1.46118e+06

>  <H298_kJmol>  (2) 
-1.46116e+06

$$$$

     RDKit          3D

 19 17  0  0  0  0  0  0  0  0999 V2000
    2.8703   -0.5462    0.0178 N   0  0  0  0  0  0  0  0  0  1  0  0
    3.0937    0.7192    0.0029 N   0  0  0  0  0  0  0  0  0  2  0  0
    2.1596    1.4777   -0.0867 O   0  0  0  0  0  0  0  0  0  3  0  0
    1.6794   -0.8774    0.2819 H   0  0  0  0  0  0  0  0  0  4  0  0
    3.6808   -1.0904    0.2879 H   0  0  0  0  0  0  0  0  0  5  0  0
    0.3736   -1.0498    0.6083 C   0  0  0  0  0  3  0  0  0  6  0  0
   -0.3868   -0.8061   -0.6571 C   0  0  0  0  0  0  0  0  0  7  0  0
   -2.1819   -0.9728   -0.4190 S   0  0  0  0  0  0  0  0  0  8  0  0
   -2.5403    0.3996    0.7105 C   0  0  0  0  0  0  0  0  0  9  0  0
   -2.1080    1.7702    0.2172 C   0  0  0  0  0  0  0  0  0 10  0  0
    0.2318   -0.3034    1.3863 H   0  0  0  0  0  0  0  0  0 11  0  0
    0.3321   -2.0686    0.9904 H   0  0  0  0  0  0  0  0  0 12  0  0
   -0.1456   -1.5517   -1.4155 H   0  0  0  0  0  0  0  0  0 13  0  0
   -0.1584    0.1742   -1.0721 H   0  0  0  0  0  0  0  0  0 14  0  0
   -3.6249    0.3564    0.8235 H   0  0  0  0  0  0  0  0  0 15  0  0
   -2.1124    0.1845    1.6905 H   0  0  0  0  0  0  0  0  0 16  0  0
   -1.0216    1.8545    0.1604 H   0  0  0  0  0  0  0  0  0 17  0  0
   -2.5189    1.9770   -0.7717 H   0  0  0  0  0  0  0  0  0 18  0  0
   -2.4596    2.5416    0.9054 H   0  0  0  0  0  0  0  0  0 19  0  0
  1  5  1  0
  1  2  1  0
  1  4  1  0
  2  3  1  0
  6  7  1  0
  6 11  1  0
  6 12  1  0
  7  8  1  0
  7 13  1  0
  7 14  1  0
  8  9  1  0
  9 10  1  0
  9 16  1  0
  9 15  1  0
 10 19  1  0
 10 17  1  0
 10 18  1  0
M  RAD  1   6   2
M  END
>  <rmg_smiles>  (3) 
[CH2]CSCC.N[N][O]

>  <rmg_adjacency_list>  (3) 
multiplicity 2
1  S u0 p2 c0 {5,S} {6,S}
2  O u0 p2 c0 {4,S}
3  N u0 p1 c0 {4,S} {18,S} {19,S}
4  N u0 p1 c0 {2,S} {3,S}
5  C u0 p0 c0 {1,S} {7,S} {9,S} {10,S}
6  C u0 p0 c0 {1,S} {8,S} {11,S} {12,S}
7  C u0 p0 c0 {5,S} {13,S} {14,S} {15,S}
8  C u1 p0 c0 {6,S} {16,S} {17,S}
9  H u0 p0 c0 {5,S}
10 H u0 p0 c0 {5,S}
11 H u0 p0 c0 {6,S}
12 H u0 p0 c0 {6,S}
13 H u0 p0 c0 {7,S}
14 H u0 p0 c0 {7,S}
15 H u0 p0 c0 {7,S}
16 H u0 p0 c0 {8,S}
17 H u0 p0 c0 {8,S}
18 H u0 p0 c0 {3,S}
19 H u0 p0 c0 {3,S}


>  <multiplicity>  (3) 
2

>  <reaction>  (3) 
rmg_rxn_1485

>  <type>  (3) 
ts

>  <role_mapnums>  (3) 
{"*2": 4, "*1": 1, "*3": 6, "*0": 2, "*4": 7}

>  <role_mapidx>  (3) 
{"*2": 3, "*1": 0, "*3": 5, "*0": 1, "*4": 6}

>  <ordered_mapped_smiles>  (3) 
[N:1]([NH:2][OH:3])([H:4])[H:5].[C:6]([C:7]([S:8][C:9]([C:10]([H:17])([H:18])[H:19])([H:15])[H:16])([H:13])[H:14])([H:11])[H:12]

>  <mol_properties>  (3) 
{"0": {"label": "*1", "atom_type": "N3s"}, "1": {"label": "*0", "atom_type": "N3s"}, "3": {"label": "*2", "atom_type": "H0"}, "5": {"label": "*3", "atom_type": "Cs"}, "6": {"label": "*4", "atom_type": "Cs"}}

>  <level_of_theory>  (3) 
wb97xd/def2tzvp

>  <lot_method>  (3) 
wb97xd

>  <lot_basis>  (3) 
def2tzvp

>  <spin_multiplicity>  (3) 
2.0

>  <optical_isomers>  (3) 
2.0

>  <modes>  (3) 
IdealGasTranslation(mass=(135.059, 'amu')),         NonlinearRotor(             inertia = ([188.498, 692.471, 819.702

>  <frequency_value>  (3) 
-1986.78

>  <frequency_units>  (3) 
cm^-1

>  <frequency_list>  (3) 
unknown

>  <arkane_path>  (3) 
/home/calvin/Dropbox/PersonalFolders/Calvin/ATLAS_Converged/rmg_rxn_1485/output/rxns/TS0/arkane/output.py

>  <path_exists>  (3) 
True

>  <E0_value>  (3) 
-1947330.0

>  <E0_units>  (3) 
kJ/mol

>  <thermo_class>  (3) 
unknown

>  <Cp0_value>  (3) 
unknown

>  <Cp0_units>  (3) 
unknown

>  <CpInf_value>  (3) 
unknown

>  <CpInf_units>  (3) 
unknown

>  <Tmin_value>  (3) 
unknown

>  <Tmin_units>  (3) 
unknown

>  <Tmax_value>  (3) 
unknown

>  <Tmax_units>  (3) 
unknown

>  <polynomials>  (3) 
unknown

>  <H298_value>  (3) 
unknown

>  <H298_units>  (3) 
unknown

>  <S298_value>  (3) 
unknown

>  <S298_units>  (3) 
unknown

>  <Cp_T_value_list>  (3) 
unknown

>  <Cp_T_units>  (3) 
unknown

>  <T_list>  (3) 
unknown

>  <T_units>  (3) 
unknown

>  <yaml_path>  (3) 
unknown

>  <frequencies_cm1>  (3) 
unknown

>  <ZPE_kJmol>  (3) 
unknown

>  <E_elec_kJmol>  (3) 
unknown

>  <E0_minus_Eelec_plus_ZPE_kJmol>  (3) 
unknown

>  <rxn>  (3) 
unknown

>  <species_type>  (3) 
unknown

>  <species_folder>  (3) 
unknown

>  <frequencies_cm1_list>  (3) 
[]

>  <ts_imag_freq_cm1>  (3) 
-2010.9094

>  <ts_freq_out_path>  (3) 
/home/calvin/Dropbox/PersonalFolders/Calvin/ATLAS_Converged/rmg_rxn_1485/output/rxns/TS0/geometry/freq.out

>  <E0_kJmol>  (3) 
-1.94733e+06

>  <H298_kJmol>  (3) 
unknown

$$$$

     RDKit          3D

  4  3  0  0  0  0  0  0  0  0999 V2000
   -0.8019    0.4189    0.0192 N   0  0  0  0  0  0  0  0  0  1  0  0
    0.3609    0.8266    0.0061 N   0  0  0  0  0  0  0  0  0  2  0  0
    0.8339    1.9183    0.0142 O   0  0  0  0  0  1  0  0  0  3  0  0
   -0.7779   -0.6002    0.0040 H   0  0  0  0  0  0  0  0  0  4  0  0
  1  2  1  0
  1  4  1  0
  2  3  1  0
M  RAD  1   3   2
M  END
>  <rmg_smiles>  (4) 
[NH][N][O]

>  <rmg_adjacency_list>  (4) 
multiplicity 2
1 O u1 p2 c0 {3,S}
2 N u0 p1 c0 {3,S} {4,S}
3 N u0 p1 c0 {1,S} {2,S}
4 H u0 p0 c0 {2,S}


>  <multiplicity>  (4) 
2

>  <reaction>  (4) 
rmg_rxn_1485

>  <type>  (4) 
r1

>  <role_mapnums>  (4) 
{}

>  <role_mapidx>  (4) 
{}

>  <ordered_mapped_smiles>  (4) 
[NH:1]([NH:2][O:3])[H:4]

>  <level_of_theory>  (4) 
wb97xd/def2tzvp

>  <lot_method>  (4) 
wb97xd

>  <lot_basis>  (4) 
def2tzvp

>  <spin_multiplicity>  (4) 
2.0

>  <optical_isomers>  (4) 
1.0

>  <modes>  (4) 
IdealGasTranslation(mass=(45.0089, 'amu')),         NonlinearRotor(             inertia = ([2.57086, 40.1656, 42.7365

>  <frequency_value>  (4) 
unknown

>  <frequency_units>  (4) 
unknown

>  <frequency_list>  (4) 
unknown

>  <arkane_path>  (4) 
/home/calvin/Dropbox/PersonalFolders/Calvin/ATLAS_Converged/rmg_rxn_1485/output/Species/rmg_rxn_1485_p1_sbr-NH-sbrN=O/arkane/output.py

>  <path_exists>  (4) 
True

>  <E0_value>  (4) 
-486262.5359899363

>  <E0_units>  (4) 
kJ/mol

>  <thermo_class>  (4) 
NASA

>  <Cp0_value>  (4) 
33.257888

>  <Cp0_units>  (4) 
J/(mol*K)

>  <CpInf_value>  (4) 
83.14472

>  <CpInf_units>  (4) 
J/(mol*K)

>  <Tmin_value>  (4) 
10.0

>  <Tmin_units>  (4) 
K

>  <Tmax_value>  (4) 
3000.0

>  <Tmax_units>  (4) 
K

>  <polynomials>  (4) 
[{"name": "polynomial1", "class": "NASAPolynomial", "Tmin_value": 10.0, "Tmin_units": "K", "Tmax_value": 676.9921071589606, "Tmax_units": "K", "coeffs": [4.052620261454503, -0.003954731767705262, 3.6687508557980155e-05, -5.192217441285821e-08, 2.3892499392073696e-11, -58483875.09093844, 6.697601255809246]}, {"name": "polynomial2", "class": "NASAPolynomial", "Tmin_value": 676.9921071589606, "Tmin_units": "K", "Tmax_value": 3000.0, "Tmax_units": "K", "coeffs": [2.568708180565944, 0.010096638421347922, -6.1528648012201994e-06, 1.7932353366274705e-09, -2.0078179070337678e-13, -58483795.25224596, 12.38349699742211]}]

>  <H298_value>  (4) 
-116217.0238123498

>  <H298_units>  (4) 
kcal/mol

>  <S298_value>  (4) 
59.269100903572784

>  <S298_units>  (4) 
cal/(mol*K)

>  <Cp_T_value_list>  (4) 
[9.855962067339554, 11.186696308389417, 12.420320683007862, 13.450531461225838, 14.991648229270968, 16.10618021062707, 17.69693128223604, 18.449026156308282, 18.8553435745084]

>  <Cp_T_units>  (4) 
cal/(mol*K)

>  <T_list>  (4) 
[300.0, 400.0, 500.0, 600.0, 800.0, 1000.0, 1500.0, 2000.0, 2400.0]

>  <T_units>  (4) 
K

>  <yaml_path>  (4) 
/home/calvin/Dropbox/PersonalFolders/Calvin/ATLAS_Converged/rmg_rxn_1485/output/Species/rmg_rxn_1485_p1_sbr-NH-sbrN=O/rmg_rxn_1485_p1_sbr-NH-sbrN=O.yml

>  <frequencies_cm1>  (4) 
[669.5654036266, 780.2955419115999, 1274.34766774432, 1377.4211173975198, 1744.5026846634398, 3450.4884486669994]

>  <ZPE_kJmol>  (4) 
55.6061572725318

>  <E_elec_kJmol>  (4) 
-486318.14214720886

>  <E0_minus_Eelec_plus_ZPE_kJmol>  (4) 
0.0

>  <rxn>  (4) 
rmg_rxn_1485

>  <species_type>  (4) 
p0

>  <species_folder>  (4) 
rmg_rxn_1485_p1_sbr-NH-sbrN=O

>  <frequencies_cm1_list>  (4) 
[669.5654036266, 780.2955419115999, 1274.34766774432, 1377.4211173975198, 1744.5026846634398, 3450.4884486669994]

>  <E0_kJmol>  (4) 
-486263

>  <H298_kJmol>  (4) 
-486252

$$$$

     RDKit          3D

 14 13  0  0  0  0  0  0  0  0999 V2000
    2.5796   -0.5432    0.2329 C   0  0  0  0  0  3  0  0  0  1  0  0
    1.2594    0.0982    0.3029 C   0  0  0  0  0  0  0  0  0  2  0  0
   -0.0483   -1.0244    0.9576 S   0  0  0  0  0  0  0  0  0  3  0  0
   -0.0049   -2.3732   -0.2491 C   0  0  0  0  0  0  0  0  0  4  0  0
   -0.3891   -1.9781   -1.6653 C   0  0  0  0  0  0  0  0  0  5  0  0
    2.9359   -0.9798   -0.6903 H   0  0  0  0  0  0  0  0  0  6  0  0
    3.1327   -0.7454    1.1400 H   0  0  0  0  0  0  0  0  0  7  0  0
    0.9347    0.4858   -0.6621 H   0  0  0  0  0  0  0  0  0  8  0  0
    1.2442    0.9220    1.0193 H   0  0  0  0  0  0  0  0  0  9  0  0
    0.9819   -2.8380   -0.2257 H   0  0  0  0  0  0  0  0  0 10  0  0
   -0.7110   -3.1037    0.1493 H   0  0  0  0  0  0  0  0  0 11  0  0
    0.3274   -1.2737   -2.0913 H   0  0  0  0  0  0  0  0  0 12  0  0
   -0.4075   -2.8581   -2.3121 H   0  0  0  0  0  0  0  0  0 13  0  0
   -1.3749   -1.5123   -1.6865 H   0  0  0  0  0  0  0  0  0 14  0  0
  1  7  1  0
  1  6  1  0
  1  2  1  0
  2  9  1  0
  2  8  1  0
  2  3  1  0
  3  4  1  0
  4  5  1  0
  4 10  1  0
  4 11  1  0
  5 12  1  0
  5 14  1  0
  5 13  1  0
M  RAD  1   1   2
M  END
>  <rmg_smiles>  (5) 
[CH2]CSCC

>  <rmg_adjacency_list>  (5) 
multiplicity 2
1  S u0 p2 c0 {2,S} {3,S}
2  C u0 p0 c0 {1,S} {4,S} {6,S} {7,S}
3  C u0 p0 c0 {1,S} {5,S} {8,S} {9,S}
4  C u0 p0 c0 {2,S} {10,S} {11,S} {12,S}
5  C u1 p0 c0 {3,S} {13,S} {14,S}
6  H u0 p0 c0 {2,S}
7  H u0 p0 c0 {2,S}
8  H u0 p0 c0 {3,S}
9  H u0 p0 c0 {3,S}
10 H u0 p0 c0 {4,S}
11 H u0 p0 c0 {4,S}
12 H u0 p0 c0 {4,S}
13 H u0 p0 c0 {5,S}
14 H u0 p0 c0 {5,S}


>  <multiplicity>  (5) 
2

>  <reaction>  (5) 
rmg_rxn_1485

>  <type>  (5) 
r2

>  <role_mapnums>  (5) 
{}

>  <role_mapidx>  (5) 
{}

>  <ordered_mapped_smiles>  (5) 
[C:1]([C:2]([S:3][C:4]([C:5]([H:12])([H:13])[H:14])([H:10])[H:11])([H:8])[H:9])([H:6])[H:7]

>  <level_of_theory>  (5) 
wb97xd/def2tzvp

>  <lot_method>  (5) 
wb97xd

>  <lot_basis>  (5) 
def2tzvp

>  <spin_multiplicity>  (5) 
2.0

>  <optical_isomers>  (5) 
2.0

>  <modes>  (5) 
IdealGasTranslation(mass=(89.0425, 'amu')),         NonlinearRotor(             inertia = ([94.593, 177.437, 223.626

>  <frequency_value>  (5) 
unknown

>  <frequency_units>  (5) 
unknown

>  <frequency_list>  (5) 
unknown

>  <arkane_path>  (5) 
/home/calvin/Dropbox/PersonalFolders/Calvin/ATLAS_Converged/rmg_rxn_1485/output/Species/rmg_rxn_1485_r2_sbr-CH2-sbrCSCC/arkane/output.py

>  <path_exists>  (5) 
True

>  <E0_value>  (5) 
-1459449.5066336358

>  <E0_units>  (5) 
kJ/mol

>  <thermo_class>  (5) 
NASA

>  <Cp0_value>  (5) 
33.257888

>  <Cp0_units>  (5) 
J/(mol*K)

>  <CpInf_value>  (5) 
332.57888

>  <CpInf_units>  (5) 
J/(mol*K)

>  <Tmin_value>  (5) 
10.0

>  <Tmin_units>  (5) 
K

>  <Tmax_value>  (5) 
3000.0

>  <Tmax_units>  (5) 
K

>  <polynomials>  (5) 
[{"name": "polynomial1", "class": "NASAPolynomial", "Tmin_value": 10.0, "Tmin_units": "K", "Tmax_value": 1031.5071007618787, "Tmax_units": "K", "coeffs": [3.5714943853963943, 0.03773739256401581, -4.950950990783628e-06, -1.3018660382700517e-08, 5.857037102171146e-12, -175531227.33815667, 12.507822262108592]}, {"name": "polynomial2", "class": "NASAPolynomial", "Tmin_value": 1031.5071007618787, "Tmin_units": "K", "Tmax_value": 3000.0, "Tmax_units": "K", "coeffs": [5.15471759391017, 0.04014233483809902, -2.0873295447536622e-05, 5.302404611852929e-09, -5.296040450423311e-13, -175532008.5243079, 2.617170435341213]}]

>  <H298_value>  (5) 
-348811.48362080817

>  <H298_units>  (5) 
kcal/mol

>  <S298_value>  (5) 
86.99508703546594

>  <S298_units>  (5) 
cal/(mol*K)

>  <Cp_T_value_list>  (5) 
[28.10519018607643, 34.16215665606476, 39.62725284783934, 44.470956897945086, 52.31577082579914, 58.01910235786348, 66.80551106767905, 71.32437388511126, 73.51787619359425]

>  <Cp_T_units>  (5) 
cal/(mol*K)

>  <T_list>  (5) 
[300.0, 400.0, 500.0, 600.0, 800.0, 1000.0, 1500.0, 2000.0, 2400.0]

>  <T_units>  (5) 
K

>  <yaml_path>  (5) 
/home/calvin/Dropbox/PersonalFolders/Calvin/ATLAS_Converged/rmg_rxn_1485/output/Species/rmg_rxn_1485_r2_sbr-CH2-sbrCSCC/rmg_rxn_1485_r2_sbr-CH2-sbrCSCC.yml

>  <frequencies_cm1>  (5) 
[55.01828638384, 115.49582609707998, 192.74254396176, 233.70411139555998, 259.89479340604, 323.54488033712, 364.23176835811995, 563.4155445500401, 638.47169409764, 687.12428508984, 740.0206730098, 780.7556299280399, 985.7694766566399, 1009.68031954088, 1055.6959881701998, 1069.5123626340398, 1077.49179957588, 1214.7147672254398, 1255.0102370831999, 1271.8892869997599, 1297.5512111406, 1400.98174403044, 1442.24545881832, 1457.86785042132, 1467.7288413408398, 1480.70744359564, 1491.3787387829198, 3015.89754872016, 3034.4590100401197, 3035.7156683536796, 3075.4068435032796, 3086.44895589784, 3092.5949077592395, 3102.88851875392, 3127.8568773774396, 3233.1826982156]

>  <ZPE_kJmol>  (5) 
309.45664795415496

>  <E_elec_kJmol>  (5) 
-1459758.96328159

>  <E0_minus_Eelec_plus_ZPE_kJmol>  (5) 
0.0

>  <rxn>  (5) 
rmg_rxn_1485

>  <species_type>  (5) 
r1

>  <species_folder>  (5) 
rmg_rxn_1485_r2_sbr-CH2-sbrCSCC

>  <frequencies_cm1_list>  (5) 
[55.01828638384, 115.49582609707998, 192.74254396176, 233.70411139555998, 259.89479340604, 323.54488033712, 364.23176835811995, 563.4155445500401, 638.47169409764, 687.12428508984, 740.0206730098, 780.7556299280399, 985.7694766566399, 1009.68031954088, 1055.6959881701998, 1069.5123626340398, 1077.49179957588, 1214.7147672254398, 1255.0102370831999, 1271.8892869997599, 1297.5512111406, 1400.98174403044, 1442.24545881832, 1457.86785042132, 1467.7288413408398, 1480.70744359564, 1491.3787387829198, 3015.89754872016, 3034.4590100401197, 3035.7156683536796, 3075.4068435032796, 3086.44895589784, 3092.5949077592395, 3102.88851875392, 3127.8568773774396, 3233.1826982156]

>  <E0_kJmol>  (5) 
-1.45945e+06

>  <H298_kJmol>  (5) 
-1.45943e+06

$$$$
