
     RDKit          3D

 14 13  0  0  0  0  0  0  0  0999 V2000
    0.7154   -1.4301   -1.1159 C   0  0  0  0  0  0  0  0  0  1  0  0
    0.2768   -0.7094    0.1517 C   0  0  0  0  0  0  0  0  0  2  0  0
   -0.3037    0.6586   -0.1166 C   0  0  0  0  0  0  0  0  0  3  0  0
   -0.7069    1.4655    1.0915 C   0  0  0  0  0  0  0  0  0  4  0  0
    1.4780   -0.8501   -1.6385 H   0  0  0  0  0  0  0  0  0  5  0  0
   -0.1274   -1.5706   -1.7968 H   0  0  0  0  0  0  0  0  0  6  0  0
    1.1296   -2.4134   -0.8897 H   0  0  0  0  0  0  0  0  0  7  0  0
   -0.4744   -1.3088    0.6818 H   0  0  0  0  0  0  0  0  0  8  0  0
    1.1240   -0.6095    0.8367 H   0  0  0  0  0  0  0  0  0  9  0  0
   -1.0791    0.6334   -0.8874 H   0  0  0  0  0  0  0  0  0 10  0  0
    0.5033    1.2191   -0.5970 H   0  0  0  0  0  0  0  0  0 11  0  0
    0.1302    1.5767    1.7833 H   0  0  0  0  0  0  0  0  0 12  0  0
   -1.5215    0.9714    1.6312 H   0  0  0  0  0  0  0  0  0 13  0  0
   -1.0480    2.4625    0.8099 H   0  0  0  0  0  0  0  0  0 14  0  0
  1  5  1  0
  1  7  1  0
  1  6  1  0
  1  2  1  0
  2  9  1  0
  2  8  1  0
  2  3  1  0
  3 11  1  0
  3  4  1  0
  3 10  1  0
  4 14  1  0
  4 13  1  0
  4 12  1  0
M  END
>  <rmg_smiles>  (1) 
CCCC

>  <rmg_adjacency_list>  (1) 
1  C u0 p0 c0 {2,S} {3,S} {5,S} {6,S}
2  C u0 p0 c0 {1,S} {4,S} {7,S} {8,S}
3  C u0 p0 c0 {1,S} {9,S} {10,S} {11,S}
4  C u0 p0 c0 {2,S} {12,S} {13,S} {14,S}
5  H u0 p0 c0 {1,S}
6  H u0 p0 c0 {1,S}
7  H u0 p0 c0 {2,S}
8  H u0 p0 c0 {2,S}
9  H u0 p0 c0 {3,S}
10 H u0 p0 c0 {3,S}
11 H u0 p0 c0 {3,S}
12 H u0 p0 c0 {4,S}
13 H u0 p0 c0 {4,S}
14 H u0 p0 c0 {4,S}


>  <multiplicity>  (1) 
1

>  <reaction>  (1) 
rmg_rxn_301

>  <type>  (1) 
r1h

>  <role_mapnums>  (1) 
{"r1h_a": 3, "r1h_h": 11}

>  <role_mapidx>  (1) 
{"r1h_a": 2, "r1h_h": 10}

>  <ordered_mapped_smiles>  (1) 
[C:1]([C:2]([C:3]([C:4]([H:12])([H:13])[H:14])([H:10])[H:11])([H:8])[H:9])([H:5])([H:6])[H:7]

>  <mol_properties>  (1) 
{"2": {"label": "donator", "atom_type": "Cs"}, "10": {"label": "d_hydrogen", "atom_type": "H0"}}

>  <level_of_theory>  (1) 
wb97xd/def2tzvp

>  <lot_method>  (1) 
wb97xd

>  <lot_basis>  (1) 
def2tzvp

>  <spin_multiplicity>  (1) 
1.0

>  <optical_isomers>  (1) 
1.0

>  <modes>  (1) 
IdealGasTranslation(mass=(58.0782, 'amu')),         NonlinearRotor(             inertia = ([21.4183, 138.436, 147.416

>  <frequency_value>  (1) 
unknown

>  <frequency_units>  (1) 
unknown

>  <frequency_list>  (1) 
unknown

>  <arkane_path>  (1) 
/home/calvin/Dropbox/PersonalFolders/Calvin/ATLAS_Converged/rmg_rxn_301/output/Species/rmg_rxn_301_r2_CCCC/arkane/output.py

>  <path_exists>  (1) 
True

>  <E0_value>  (1) 
-415711.4770347972

>  <E0_units>  (1) 
kJ/mol

>  <thermo_class>  (1) 
NASA

>  <Cp0_value>  (1) 
33.257888

>  <Cp0_units>  (1) 
J/(mol*K)

>  <CpInf_value>  (1) 
332.57888

>  <CpInf_units>  (1) 
J/(mol*K)

>  <Tmin_value>  (1) 
10.0

>  <Tmin_units>  (1) 
K

>  <Tmax_value>  (1) 
3000.0

>  <Tmax_units>  (1) 
K

>  <polynomials>  (1) 
[{"name": "polynomial1", "class": "NASAPolynomial", "Tmin_value": 10.0, "Tmin_units": "K", "Tmax_value": 1025.0239672813746, "Tmax_units": "K", "coeffs": [3.915013592071844, 0.015190476507378274, 4.499566831623061e-05, -5.4452087887537436e-08, 1.803189229500368e-11, -49998546.31449076, 7.728184054699678]}, {"name": "polynomial2", "class": "NASAPolynomial", "Tmin_value": 1025.0239672813746, "Tmin_units": "K", "Tmax_value": 3000.0, "Tmax_units": "K", "coeffs": [0.8557434606866323, 0.04413202068529884, -2.2238982520549216e-05, 5.4598853249734095e-09, -5.274578153178241e-13, -49998812.39100051, 18.205832942846666]}]

>  <H298_value>  (1) 
-99353.185245995

>  <H298_units>  (1) 
kcal/mol

>  <S298_value>  (1) 
71.76251802442486

>  <S298_units>  (1) 
cal/(mol*K)

>  <Cp_T_value_list>  (1) 
[22.251980571284225, 28.1531399049666, 33.94079391323614, 39.35269474865459, 48.430242634303475, 55.007789274879656, 65.12656285712895, 70.35428852741721, 72.83851882766015]

>  <Cp_T_units>  (1) 
cal/(mol*K)

>  <T_list>  (1) 
[300.0, 400.0, 500.0, 600.0, 800.0, 1000.0, 1500.0, 2000.0, 2400.0]

>  <T_units>  (1) 
K

>  <yaml_path>  (1) 
/home/calvin/Dropbox/PersonalFolders/Calvin/ATLAS_Converged/rmg_rxn_301/output/Species/rmg_rxn_301_r2_CCCC/rmg_rxn_301_r2_CCCC.yml

>  <frequencies_cm1>  (1) 
[117.85806904715999, 224.50921805207997, 259.37290252171994, 260.8081024536, 427.68957970024, 733.9639919575599, 810.5171443049198, 844.8383369342799, 959.6886664112799, 978.69648177704, 1024.40313606696, 1072.73297874912, 1166.6664709414, 1201.7086970293599, 1282.4438434365998, 1315.46030885516, 1324.99168447932, 1392.23320473276, 1403.41265683372, 1404.42210367576, 1477.30828586224, 1478.9082934418, 1485.02677736192, 1486.84652847172, 1491.0285225316, 1497.33241505536, 2994.3077468740794, 3001.82022881416, 3007.36875295272, 3008.254594059, 3019.68125763148, 3041.7654824206, 3075.78452769588, 3079.10128160544, 3084.83521434764, 3085.5356468502796]

>  <ZPE_kJmol>  (1) 
344.05401570070524

>  <E_elec_kJmol>  (1) 
-416055.5310504979

>  <E0_minus_Eelec_plus_ZPE_kJmol>  (1) 
0.0

>  <rxn>  (1) 
rmg_rxn_301

>  <species_type>  (1) 
r1

>  <species_folder>  (1) 
rmg_rxn_301_r2_CCCC

>  <frequencies_cm1_list>  (1) 
[117.85806904715999, 224.50921805207997, 259.37290252171994, 260.8081024536, 427.68957970024, 733.9639919575599, 810.5171443049198, 844.8383369342799, 959.6886664112799, 978.69648177704, 1024.40313606696, 1072.73297874912, 1166.6664709414, 1201.7086970293599, 1282.4438434365998, 1315.46030885516, 1324.99168447932, 1392.23320473276, 1403.41265683372, 1404.42210367576, 1477.30828586224, 1478.9082934418, 1485.02677736192, 1486.84652847172, 1491.0285225316, 1497.33241505536, 2994.3077468740794, 3001.82022881416, 3007.36875295272, 3008.254594059, 3019.68125763148, 3041.7654824206, 3075.78452769588, 3079.10128160544, 3084.83521434764, 3085.5356468502796]

>  <E0_kJmol>  (1) 
-415711

>  <H298_kJmol>  (1) 
-415694

$$$$

     RDKit          3D

 12 11  0  0  0  0  0  0  0  0999 V2000
   -0.3305    1.5641    0.4555 C   0  0  0  0  0  0  0  0  0  1  0  0
   -0.8189    0.4047   -0.4003 C   0  0  0  0  0  0  0  0  0  2  0  0
    0.2575   -0.6439   -0.6587 C   0  0  0  0  0  0  0  0  0  3  0  0
    0.8325   -1.1712    0.4948 O   0  0  0  0  0  0  0  0  0  4  0  0
    0.4883    2.0948   -0.0363 H   0  0  0  0  0  0  0  0  0  5  0  0
   -1.1307    2.2817    0.6425 H   0  0  0  0  0  0  0  0  0  6  0  0
    0.0391    1.2042    1.4162 H   0  0  0  0  0  0  0  0  0  7  0  0
   -1.6709   -0.0824    0.0843 H   0  0  0  0  0  0  0  0  0  8  0  0
   -1.1805    0.7692   -1.3665 H   0  0  0  0  0  0  0  0  0  9  0  0
   -0.1348   -1.4396   -1.3077 H   0  0  0  0  0  0  0  0  0 10  0  0
    1.0963   -0.1839   -1.2011 H   0  0  0  0  0  0  0  0  0 11  0  0
    0.1405   -1.6613    0.9449 H   0  0  0  0  0  0  0  0  0 12  0  0
  1  5  1  0
  1  7  1  0
  1  6  1  0
  1  2  1  0
  2  9  1  0
  2  8  1  0
  2  3  1  0
  3 11  1  0
  3  4  1  0
  3 10  1  0
  4 12  1  0
M  END
>  <rmg_smiles>  (2) 
CCCO

>  <rmg_adjacency_list>  (2) 
1  O u0 p2 c0 {3,S} {12,S}
2  C u0 p0 c0 {3,S} {4,S} {5,S} {6,S}
3  C u0 p0 c0 {1,S} {2,S} {7,S} {8,S}
4  C u0 p0 c0 {2,S} {9,S} {10,S} {11,S}
5  H u0 p0 c0 {2,S}
6  H u0 p0 c0 {2,S}
7  H u0 p0 c0 {3,S}
8  H u0 p0 c0 {3,S}
9  H u0 p0 c0 {4,S}
10 H u0 p0 c0 {4,S}
11 H u0 p0 c0 {4,S}
12 H u0 p0 c0 {1,S}


>  <multiplicity>  (2) 
1

>  <reaction>  (2) 
rmg_rxn_301

>  <type>  (2) 
r2h

>  <role_mapnums>  (2) 
{"r2h_a": 4, "r2h_h": 12}

>  <role_mapidx>  (2) 
{"r2h_a": 3, "r2h_h": 11}

>  <ordered_mapped_smiles>  (2) 
[C:1]([C:2]([C:3]([O:4][H:12])([H:10])[H:11])([H:8])[H:9])([H:5])([H:6])[H:7]

>  <mol_properties>  (2) 
{"3": {"label": "acceptor", "atom_type": "O2s"}, "11": {"label": "a_hydrogen", "atom_type": "H0"}}

>  <level_of_theory>  (2) 
wb97xd/def2tzvp

>  <lot_method>  (2) 
wb97xd

>  <lot_basis>  (2) 
def2tzvp

>  <spin_multiplicity>  (2) 
1.0

>  <optical_isomers>  (2) 
2.0

>  <modes>  (2) 
IdealGasTranslation(mass=(60.0575, 'amu')),         NonlinearRotor(             inertia = ([35.1424, 100.065, 117.206

>  <frequency_value>  (2) 
unknown

>  <frequency_units>  (2) 
unknown

>  <frequency_list>  (2) 
unknown

>  <arkane_path>  (2) 
/home/calvin/Dropbox/PersonalFolders/Calvin/ATLAS_Converged/rmg_rxn_301/output/Species/rmg_rxn_301_p1_CCCO/arkane/output.py

>  <path_exists>  (2) 
True

>  <E0_value>  (2) 
-510044.1612319262

>  <E0_units>  (2) 
kJ/mol

>  <thermo_class>  (2) 
NASA

>  <Cp0_value>  (2) 
33.257888

>  <Cp0_units>  (2) 
J/(mol*K)

>  <CpInf_value>  (2) 
282.692048

>  <CpInf_units>  (2) 
J/(mol*K)

>  <Tmin_value>  (2) 
10.0

>  <Tmin_units>  (2) 
K

>  <Tmax_value>  (2) 
3000.0

>  <Tmax_units>  (2) 
K

>  <polynomials>  (2) 
[{"name": "polynomial1", "class": "NASAPolynomial", "Tmin_value": 10.0, "Tmin_units": "K", "Tmax_value": 846.630243671272, "Tmax_units": "K", "coeffs": [3.8720978777463686, 0.013345662780498998, 4.415015699122346e-05, -6.075841520168734e-08, 2.3383100872024888e-11, -61344143.9223187, 9.28781423359728]}, {"name": "polynomial2", "class": "NASAPolynomial", "Tmin_value": 846.630243671272, "Tmin_units": "K", "Tmax_value": 3000.0, "Tmax_units": "K", "coeffs": [0.5209390554344657, 0.03976278268823128, -2.1406169220008097e-05, 5.629208352304104e-09, -5.806874827181009e-13, -61343955.81217305, 22.657055508437733]}]

>  <H298_value>  (2) 
-121899.45329310188

>  <H298_units>  (2) 
kcal/mol

>  <S298_value>  (2) 
73.11930156339949

>  <S298_units>  (2) 
cal/(mol*K)

>  <Cp_T_value_list>  (2) 
[20.66344366355699, 25.80279719874869, 30.70057266079499, 35.13417708434275, 42.2761055553147, 47.546048589404705, 55.76117369247855, 59.943079860189705, 62.009670071783674]

>  <Cp_T_units>  (2) 
cal/(mol*K)

>  <T_list>  (2) 
[300.0, 400.0, 500.0, 600.0, 800.0, 1000.0, 1500.0, 2000.0, 2400.0]

>  <T_units>  (2) 
K

>  <yaml_path>  (2) 
/home/calvin/Dropbox/PersonalFolders/Calvin/ATLAS_Converged/rmg_rxn_301/output/Species/rmg_rxn_301_p1_CCCO/rmg_rxn_301_p1_CCCO.yml

>  <frequencies_cm1>  (2) 
[147.21443129015998, 221.70748804151998, 281.96528422451996, 327.68567248508, 495.52852767651996, 773.66203409248, 866.8264239289199, 907.7811243773999, 991.0089864557999, 1085.4025666645198, 1095.06441500976, 1132.10493382584, 1235.87194899636, 1297.47567430208, 1365.5206318379599, 1374.09062951732, 1401.64784160648, 1415.7594964390798, 1471.3065406925598, 1481.4628119808397, 1492.95814540652, 1498.9667575615201, 2976.8724711465998, 2996.07942908664, 3016.6597840906798, 3038.2633199074, 3059.4823045462003, 3086.4558228831597, 3100.9245609523996, 3838.2877106433593]

>  <ZPE_kJmol>  (2) 
283.9578863328584

>  <E_elec_kJmol>  (2) 
-510328.1191182591

>  <E0_minus_Eelec_plus_ZPE_kJmol>  (2) 
0.0

>  <rxn>  (2) 
rmg_rxn_301

>  <species_type>  (2) 
p0

>  <species_folder>  (2) 
rmg_rxn_301_p1_CCCO

>  <frequencies_cm1_list>  (2) 
[147.21443129015998, 221.70748804151998, 281.96528422451996, 327.68567248508, 495.52852767651996, 773.66203409248, 866.8264239289199, 907.7811243773999, 991.0089864557999, 1085.4025666645198, 1095.06441500976, 1132.10493382584, 1235.87194899636, 1297.47567430208, 1365.5206318379599, 1374.09062951732, 1401.64784160648, 1415.7594964390798, 1471.3065406925598, 1481.4628119808397, 1492.95814540652, 1498.9667575615201, 2976.8724711465998, 2996.07942908664, 3016.6597840906798, 3038.2633199074, 3059.4823045462003, 3086.4558228831597, 3100.9245609523996, 3838.2877106433593]

>  <E0_kJmol>  (2) 
-510044

>  <H298_kJmol>  (2) 
-510027

$$$$

     RDKit          3D

 25 23  0  0  0  0  0  0  0  0999 V2000
   -0.0370    3.0338   -0.5022 C   0  0  0  0  0  0  0  0  0  1  0  0
   -0.5254    1.8743   -1.3580 C   0  0  0  0  0  0  0  0  0  2  0  0
    0.5510    0.8257   -1.6163 C   0  0  0  0  0  0  0  0  0  3  0  0
    1.1259    0.2984   -0.4629 O   0  0  0  0  0  1  0  0  0  4  0  0
    0.7818    3.5645   -0.9939 H   0  0  0  0  0  0  0  0  0  5  0  0
   -0.8373    3.7514   -0.3152 H   0  0  0  0  0  0  0  0  0  6  0  0
    0.3326    2.6738    0.4585 H   0  0  0  0  0  0  0  0  0  7  0  0
   -1.3775    1.3872   -0.8733 H   0  0  0  0  0  0  0  0  0  8  0  0
   -0.8870    2.2389   -2.3242 H   0  0  0  0  0  0  0  0  0  9  0  0
    0.1586    0.0300   -2.2653 H   0  0  0  0  0  0  0  0  0 10  0  0
    1.3897    1.2857   -2.1588 H   0  0  0  0  0  0  0  0  0 11  0  0
    0.3013   -3.0835   -0.3130 C   0  0  0  0  0  0  0  0  0 12  0  0
   -0.1373   -2.3629    0.9546 C   0  0  0  0  0  0  0  0  0 13  0  0
   -0.7178   -0.9948    0.6863 C   0  0  0  0  0  0  0  0  0 14  0  0
   -1.1210   -0.1880    1.8943 C   0  0  0  0  0  0  0  0  0 15  0  0
    1.0639   -2.5036   -0.8356 H   0  0  0  0  0  0  0  0  0 16  0  0
   -0.5415   -3.2241   -0.9940 H   0  0  0  0  0  0  0  0  0 17  0  0
    0.7155   -4.0669   -0.0869 H   0  0  0  0  0  0  0  0  0 18  0  0
   -0.8885   -2.9623    1.4846 H   0  0  0  0  0  0  0  0  0 19  0  0
    0.7099   -2.2630    1.6395 H   0  0  0  0  0  0  0  0  0 20  0  0
   -1.4932   -1.0201   -0.0846 H   0  0  0  0  0  0  0  0  0 21  0  0
    0.1930   -0.3623    0.1440 H   0  0  0  0  0  0  0  0  0 22  0  0
   -0.2839   -0.0767    2.5862 H   0  0  0  0  0  0  0  0  0 23  0  0
   -1.9356   -0.6821    2.4340 H   0  0  0  0  0  0  0  0  0 24  0  0
   -1.4621    0.8090    1.6128 H   0  0  0  0  0  0  0  0  0 25  0  0
  1  7  1  0
  1  5  1  0
  1  6  1  0
  1  2  1  0
  2  8  1  0
  2  3  1  0
  2  9  1  0
  3  4  1  0
  3 11  1  0
  3 10  1  0
 12 17  1  0
 12 18  1  0
 12 16  1  0
 12 13  1  0
 13 19  1  0
 13 20  1  0
 13 14  1  0
 14 15  1  0
 14 22  1  0
 14 21  1  0
 15 25  1  0
 15 23  1  0
 15 24  1  0
M  RAD  1   4   2
M  END
>  <rmg_smiles>  (3) 
CCCC.CCC[O]

>  <rmg_adjacency_list>  (3) 
multiplicity 2
1  O u1 p2 c0 {6,S}
2  C u0 p0 c0 {3,S} {7,S} {11,S} {12,S}
3  C u0 p0 c0 {2,S} {8,S} {13,S} {14,S}
4  C u0 p0 c0 {5,S} {6,S} {9,S} {10,S}
5  C u0 p0 c0 {4,S} {15,S} {16,S} {17,S}
6  C u0 p0 c0 {1,S} {4,S} {18,S} {19,S}
7  C u0 p0 c0 {2,S} {20,S} {21,S} {22,S}
8  C u0 p0 c0 {3,S} {23,S} {24,S} {25,S}
9  H u0 p0 c0 {4,S}
10 H u0 p0 c0 {4,S}
11 H u0 p0 c0 {2,S}
12 H u0 p0 c0 {2,S}
13 H u0 p0 c0 {3,S}
14 H u0 p0 c0 {3,S}
15 H u0 p0 c0 {5,S}
16 H u0 p0 c0 {5,S}
17 H u0 p0 c0 {5,S}
18 H u0 p0 c0 {6,S}
19 H u0 p0 c0 {6,S}
20 H u0 p0 c0 {7,S}
21 H u0 p0 c0 {7,S}
22 H u0 p0 c0 {7,S}
23 H u0 p0 c0 {8,S}
24 H u0 p0 c0 {8,S}
25 H u0 p0 c0 {8,S}


>  <multiplicity>  (3) 
2

>  <reaction>  (3) 
rmg_rxn_301

>  <type>  (3) 
ts

>  <role_mapnums>  (3) 
{"*2": 22, "*1": 14, "*3": 4, "*0": 13, "*4": 3}

>  <role_mapidx>  (3) 
{"*2": 21, "*1": 13, "*3": 3, "*0": 12, "*4": 2}

>  <ordered_mapped_smiles>  (3) 
[C:1]([C:2]([C:3]([O:4])([H:10])[H:11])([H:8])[H:9])([H:5])([H:6])[H:7].[C:12]([C:13]([C:14]([C:15]([H:23])([H:24])[H:25])([H:21])[H:22])([H:19])[H:20])([H:16])([H:17])[H:18]

>  <mol_properties>  (3) 
{"2": {"label": "*4", "atom_type": "Cs"}, "3": {"label": "*3", "atom_type": "O2s"}, "12": {"label": "*0", "atom_type": "Cs"}, "13": {"label": "*1", "atom_type": "Cs"}, "21": {"label": "*2", "atom_type": "H0"}}

>  <level_of_theory>  (3) 
wb97xd/def2tzvp

>  <lot_method>  (3) 
wb97xd

>  <lot_basis>  (3) 
def2tzvp

>  <spin_multiplicity>  (3) 
2.0

>  <optical_isomers>  (3) 
2.0

>  <modes>  (3) 
IdealGasTranslation(mass=(117.128, 'amu')),         NonlinearRotor(             inertia = ([187.533, 522.113, 638.339

>  <frequency_value>  (3) 
-1435.57

>  <frequency_units>  (3) 
cm^-1

>  <frequency_list>  (3) 
unknown

>  <arkane_path>  (3) 
/home/calvin/Dropbox/PersonalFolders/Calvin/ATLAS_Converged/rmg_rxn_301/output/rxns/TS0/arkane/output.py

>  <path_exists>  (3) 
True

>  <E0_value>  (3) 
-924000.0

>  <E0_units>  (3) 
kJ/mol

>  <thermo_class>  (3) 
unknown

>  <Cp0_value>  (3) 
unknown

>  <Cp0_units>  (3) 
unknown

>  <CpInf_value>  (3) 
unknown

>  <CpInf_units>  (3) 
unknown

>  <Tmin_value>  (3) 
unknown

>  <Tmin_units>  (3) 
unknown

>  <Tmax_value>  (3) 
unknown

>  <Tmax_units>  (3) 
unknown

>  <polynomials>  (3) 
unknown

>  <H298_value>  (3) 
unknown

>  <H298_units>  (3) 
unknown

>  <S298_value>  (3) 
unknown

>  <S298_units>  (3) 
unknown

>  <Cp_T_value_list>  (3) 
unknown

>  <Cp_T_units>  (3) 
unknown

>  <T_list>  (3) 
unknown

>  <T_units>  (3) 
unknown

>  <yaml_path>  (3) 
unknown

>  <frequencies_cm1>  (3) 
unknown

>  <ZPE_kJmol>  (3) 
unknown

>  <E_elec_kJmol>  (3) 
unknown

>  <E0_minus_Eelec_plus_ZPE_kJmol>  (3) 
unknown

>  <rxn>  (3) 
unknown

>  <species_type>  (3) 
unknown

>  <species_folder>  (3) 
unknown

>  <frequencies_cm1_list>  (3) 
[]

>  <ts_imag_freq_cm1>  (3) 
-1453.0035

>  <ts_freq_out_path>  (3) 
/home/calvin/Dropbox/PersonalFolders/Calvin/ATLAS_Converged/rmg_rxn_301/output/rxns/TS0/geometry/freq.out

>  <E0_kJmol>  (3) 
-924000

>  <H298_kJmol>  (3) 
unknown

$$$$

     RDKit          3D

 13 12  0  0  0  0  0  0  0  0999 V2000
    1.9060    0.2628    0.3980 C   0  0  0  0  0  0  0  0  0  1  0  0
    0.6330   -0.4250    0.0685 C   0  0  0  0  0  3  0  0  0  2  0  0
   -0.2610   -0.9325    1.1416 C   0  0  0  0  0  0  0  0  0  3  0  0
   -1.4364   -1.7546    0.6268 C   0  0  0  0  0  0  0  0  0  4  0  0
    2.4899   -0.3070    1.1292 H   0  0  0  0  0  0  0  0  0  5  0  0
    1.7297    1.2496    0.8515 H   0  0  0  0  0  0  0  0  0  6  0  0
    2.5269    0.4197   -0.4845 H   0  0  0  0  0  0  0  0  0  7  0  0
    0.2597   -0.3936   -0.9489 H   0  0  0  0  0  0  0  0  0  8  0  0
   -0.6439   -0.0868    1.7356 H   0  0  0  0  0  0  0  0  0  9  0  0
    0.3260   -1.5277    1.8536 H   0  0  0  0  0  0  0  0  0 10  0  0
   -1.0872   -2.6320    0.0792 H   0  0  0  0  0  0  0  0  0 11  0  0
   -2.0701   -2.0976    1.4459 H   0  0  0  0  0  0  0  0  0 12  0  0
   -2.0561   -1.1637   -0.0512 H   0  0  0  0  0  0  0  0  0 13  0  0
  1  5  1  0
  1  7  1  0
  1  6  1  0
  1  2  1  0
  2  8  1  0
  2  3  1  0
  3  4  1  0
  3  9  1  0
  3 10  1  0
  4 13  1  0
  4 12  1  0
  4 11  1  0
M  RAD  1   2   2
M  END
>  <rmg_smiles>  (4) 
C[CH]CC

>  <rmg_adjacency_list>  (4) 
multiplicity 2
1  C u0 p0 c0 {2,S} {4,S} {5,S} {6,S}
2  C u0 p0 c0 {1,S} {7,S} {8,S} {9,S}
3  C u0 p0 c0 {4,S} {10,S} {11,S} {12,S}
4  C u1 p0 c0 {1,S} {3,S} {13,S}
5  H u0 p0 c0 {1,S}
6  H u0 p0 c0 {1,S}
7  H u0 p0 c0 {2,S}
8  H u0 p0 c0 {2,S}
9  H u0 p0 c0 {2,S}
10 H u0 p0 c0 {3,S}
11 H u0 p0 c0 {3,S}
12 H u0 p0 c0 {3,S}
13 H u0 p0 c0 {4,S}


>  <multiplicity>  (4) 
2

>  <reaction>  (4) 
rmg_rxn_301

>  <type>  (4) 
r1

>  <role_mapnums>  (4) 
{}

>  <role_mapidx>  (4) 
{}

>  <ordered_mapped_smiles>  (4) 
[C:1]([C:2]([C:3]([C:4]([H:11])([H:12])[H:13])([H:9])[H:10])[H:8])([H:5])([H:6])[H:7]

>  <level_of_theory>  (4) 
wb97xd/def2tzvp

>  <lot_method>  (4) 
wb97xd

>  <lot_basis>  (4) 
def2tzvp

>  <spin_multiplicity>  (4) 
2.0

>  <optical_isomers>  (4) 
2.0

>  <modes>  (4) 
IdealGasTranslation(mass=(57.0704, 'amu')),         NonlinearRotor(             inertia = ([18.7542, 137.737, 146.856

>  <frequency_value>  (4) 
unknown

>  <frequency_units>  (4) 
unknown

>  <frequency_list>  (4) 
unknown

>  <arkane_path>  (4) 
/home/calvin/Dropbox/PersonalFolders/Calvin/ATLAS_Converged/rmg_rxn_301/output/Species/rmg_rxn_301_p2_Csbr-CH-sbrCC/arkane/output.py

>  <path_exists>  (4) 
True

>  <E0_value>  (4) 
-413995.2264405356

>  <E0_units>  (4) 
kJ/mol

>  <thermo_class>  (4) 
NASA

>  <Cp0_value>  (4) 
33.257888

>  <Cp0_units>  (4) 
J/(mol*K)

>  <CpInf_value>  (4) 
307.635464

>  <CpInf_units>  (4) 
J/(mol*K)

>  <Tmin_value>  (4) 
10.0

>  <Tmin_units>  (4) 
K

>  <Tmax_value>  (4) 
3000.0

>  <Tmax_units>  (4) 
K

>  <polynomials>  (4) 
[{"name": "polynomial1", "class": "NASAPolynomial", "Tmin_value": 10.0, "Tmin_units": "K", "Tmax_value": 437.64132334566835, "Tmax_units": "K", "coeffs": [3.6274282376646756, 0.03980524048628293, -0.00011211913315348379, 3.0275669442783334e-07, -2.6334100357152647e-10, -49792123.767797455, 10.477759673967103]}, {"name": "polynomial2", "class": "NASAPolynomial", "Tmin_value": 437.64132334566835, "Tmin_units": "K", "Tmax_value": 3000.0, "Tmax_units": "K", "coeffs": [-0.4712203043918067, 0.04588815729464738, -2.541997261504284e-05, 6.85639015424627e-09, -7.228277482308085e-13, -49791464.52563959, 30.297543071931177]}]

>  <H298_value>  (4) 
-98942.59688263848

>  <H298_units>  (4) 
kcal/mol

>  <S298_value>  (4) 
79.84336435797195

>  <S298_units>  (4) 
cal/(mol*K)

>  <Cp_T_value_list>  (4) 
[22.891917447574397, 28.308475735554, 33.64288387138264, 38.34868525299168, 46.07323283166112, 51.92675269306213, 60.90207372767515, 65.40111428959476, 67.64920413290923]

>  <Cp_T_units>  (4) 
cal/(mol*K)

>  <T_list>  (4) 
[300.0, 400.0, 500.0, 600.0, 800.0, 1000.0, 1500.0, 2000.0, 2400.0]

>  <T_units>  (4) 
K

>  <yaml_path>  (4) 
/home/calvin/Dropbox/PersonalFolders/Calvin/ATLAS_Converged/rmg_rxn_301/output/Species/rmg_rxn_301_p2_Csbr-CH-sbrCC/rmg_rxn_301_p2_Csbr-CH-sbrCC.yml

>  <frequencies_cm1>  (4) 
[56.84490447896, 98.78845081352, 231.15645984184, 255.98747875895998, 343.02651768996, 433.15570001495996, 765.0302335452399, 850.6821414415999, 969.8792726261601, 986.4561751886399, 1035.713060889, 1061.1277735583199, 1129.08346028504, 1177.0836876718397, 1262.3853793168798, 1303.7933007964798, 1389.89842972396, 1402.2452693293199, 1414.45476922828, 1456.0687002674797, 1460.55284168144, 1471.1898019421196, 1484.2096061088398, 1489.95040583636, 2924.0516200651596, 2943.40278469692, 2976.8244022493595, 3009.05803134144, 3013.50097084348, 3083.1390689736, 3085.4944449383597, 3091.2352446658797, 3146.1642602405595]

>  <ZPE_kJmol>  (4) 
303.861341375402

>  <E_elec_kJmol>  (4) 
-414299.087781911

>  <E0_minus_Eelec_plus_ZPE_kJmol>  (4) 
0.0

>  <rxn>  (4) 
rmg_rxn_301

>  <species_type>  (4) 
p1

>  <species_folder>  (4) 
rmg_rxn_301_p2_Csbr-CH-sbrCC

>  <frequencies_cm1_list>  (4) 
[56.84490447896, 98.78845081352, 231.15645984184, 255.98747875895998, 343.02651768996, 433.15570001495996, 765.0302335452399, 850.6821414415999, 969.8792726261601, 986.4561751886399, 1035.713060889, 1061.1277735583199, 1129.08346028504, 1177.0836876718397, 1262.3853793168798, 1303.7933007964798, 1389.89842972396, 1402.2452693293199, 1414.45476922828, 1456.0687002674797, 1460.55284168144, 1471.1898019421196, 1484.2096061088398, 1489.95040583636, 2924.0516200651596, 2943.40278469692, 2976.8244022493595, 3009.05803134144, 3013.50097084348, 3083.1390689736, 3085.4944449383597, 3091.2352446658797, 3146.1642602405595]

>  <E0_kJmol>  (4) 
-413995

>  <H298_kJmol>  (4) 
-413976

$$$$

     RDKit          3D

 11 10  0  0  0  0  0  0  0  0999 V2000
   -1.2230    0.3768   -0.0849 C   0  0  0  0  0  0  0  0  0  1  0  0
   -0.0734   -0.5533    0.2746 C   0  0  0  0  0  0  0  0  0  2  0  0
   -0.0853   -1.8426   -0.5372 C   0  0  0  0  0  0  0  0  0  3  0  0
    0.0319   -1.6944   -1.8815 O   0  0  0  0  0  1  0  0  0  4  0  0
   -2.1874   -0.0885    0.1341 H   0  0  0  0  0  0  0  0  0  5  0  0
   -1.1670    1.3099    0.4765 H   0  0  0  0  0  0  0  0  0  6  0  0
   -1.2014    0.6189   -1.1483 H   0  0  0  0  0  0  0  0  0  7  0  0
    0.8834   -0.0518    0.1071 H   0  0  0  0  0  0  0  0  0  8  0  0
   -0.1104   -0.8149    1.3362 H   0  0  0  0  0  0  0  0  0  9  0  0
    0.6767   -2.5604   -0.1861 H   0  0  0  0  0  0  0  0  0 10  0  0
   -1.0401   -2.3871   -0.3877 H   0  0  0  0  0  0  0  0  0 11  0  0
  1  5  1  0
  1  7  1  0
  1  6  1  0
  1  2  1  0
  2  9  1  0
  2  8  1  0
  2  3  1  0
  3 11  1  0
  3  4  1  0
  3 10  1  0
M  RAD  1   4   2
M  END
>  <rmg_smiles>  (5) 
CCC[O]

>  <rmg_adjacency_list>  (5) 
multiplicity 2
1  O u1 p2 c0 {4,S}
2  C u0 p0 c0 {3,S} {4,S} {5,S} {6,S}
3  C u0 p0 c0 {2,S} {7,S} {8,S} {9,S}
4  C u0 p0 c0 {1,S} {2,S} {10,S} {11,S}
5  H u0 p0 c0 {2,S}
6  H u0 p0 c0 {2,S}
7  H u0 p0 c0 {3,S}
8  H u0 p0 c0 {3,S}
9  H u0 p0 c0 {3,S}
10 H u0 p0 c0 {4,S}
11 H u0 p0 c0 {4,S}


>  <multiplicity>  (5) 
2

>  <reaction>  (5) 
rmg_rxn_301

>  <type>  (5) 
r2

>  <role_mapnums>  (5) 
{}

>  <role_mapidx>  (5) 
{}

>  <ordered_mapped_smiles>  (5) 
[C:1]([C:2]([C:3]([O:4])([H:10])[H:11])([H:8])[H:9])([H:5])([H:6])[H:7]

>  <level_of_theory>  (5) 
wb97xd/def2tzvp

>  <lot_method>  (5) 
wb97xd

>  <lot_basis>  (5) 
def2tzvp

>  <spin_multiplicity>  (5) 
2.0

>  <optical_isomers>  (5) 
2.0

>  <modes>  (5) 
IdealGasTranslation(mass=(59.0497, 'amu')),         NonlinearRotor(             inertia = ([32.4351, 96.9472, 113.933

>  <frequency_value>  (5) 
unknown

>  <frequency_units>  (5) 
unknown

>  <frequency_list>  (5) 
unknown

>  <arkane_path>  (5) 
/home/calvin/Dropbox/PersonalFolders/Calvin/ATLAS_Converged/rmg_rxn_301/output/Species/rmg_rxn_301_r1_CCCsbr-O-sbr/arkane/output.py

>  <path_exists>  (5) 
True

>  <E0_value>  (5) 
-508312.7768161693

>  <E0_units>  (5) 
kJ/mol

>  <thermo_class>  (5) 
NASA

>  <Cp0_value>  (5) 
33.257888

>  <Cp0_units>  (5) 
J/(mol*K)

>  <CpInf_value>  (5) 
257.748632

>  <CpInf_units>  (5) 
J/(mol*K)

>  <Tmin_value>  (5) 
10.0

>  <Tmin_units>  (5) 
K

>  <Tmax_value>  (5) 
3000.0

>  <Tmax_units>  (5) 
K

>  <polynomials>  (5) 
[{"name": "polynomial1", "class": "NASAPolynomial", "Tmin_value": 10.0, "Tmin_units": "K", "Tmax_value": 785.3717716926154, "Tmax_units": "K", "coeffs": [3.8724275172824187, 0.01202069912351536, 4.544202486520592e-05, -6.564450088148968e-08, 2.686947096257633e-11, -61135905.34396986, 9.973124702618271]}, {"name": "polynomial2", "class": "NASAPolynomial", "Tmin_value": 785.3717716926154, "Tmin_units": "K", "Tmax_value": 3000.0, "Tmax_units": "K", "coeffs": [0.6849760368426276, 0.037501340839522466, -2.0884233759964417e-05, 5.647799967688214e-09, -5.962580160166516e-13, -61135689.844430506, 22.765160719957294]}]

>  <H298_value>  (5) 
-121485.75019145291

>  <H298_units>  (5) 
kcal/mol

>  <S298_value>  (5) 
73.74225739173869

>  <S298_units>  (5) 
cal/(mol*K)

>  <Cp_T_value_list>  (5) 
[19.89921160802715, 24.71695701807689, 29.245842514069615, 33.279841046223126, 39.679715519605324, 44.42126905520667, 51.647954059212324, 55.2304186783069, 57.00855164862186]

>  <Cp_T_units>  (5) 
cal/(mol*K)

>  <T_list>  (5) 
[300.0, 400.0, 500.0, 600.0, 800.0, 1000.0, 1500.0, 2000.0, 2400.0]

>  <T_units>  (5) 
K

>  <yaml_path>  (5) 
/home/calvin/Dropbox/PersonalFolders/Calvin/ATLAS_Converged/rmg_rxn_301/output/Species/rmg_rxn_301_r1_CCCsbr-O-sbr/rmg_rxn_301_r1_CCCsbr-O-sbr.yml

>  <frequencies_cm1>  (5) 
[137.93713412284, 222.36671863223998, 308.28643895607996, 429.70160639899996, 504.1397272677999, 783.2964144964401, 869.12686401112, 973.4157700659599, 995.0261728679999, 1094.40518441904, 1104.0052298964, 1206.5018527827199, 1284.0026491042397, 1339.0209354880799, 1351.92400090436, 1370.7120727398797, 1408.8169742805599, 1470.9906593678397, 1485.0061764059599, 1493.1984898927199, 2865.86078646348, 2916.58720702232, 3013.99539378652, 3016.570513281519, 3055.2591085743998, 3086.8403740610793, 3099.85331124248]

>  <ZPE_kJmol>  (5) 
244.5577291513973

>  <E_elec_kJmol>  (5) 
-508557.3345453207

>  <E0_minus_Eelec_plus_ZPE_kJmol>  (5) 
0.0

>  <rxn>  (5) 
rmg_rxn_301

>  <species_type>  (5) 
r0

>  <species_folder>  (5) 
rmg_rxn_301_r1_CCCsbr-O-sbr

>  <frequencies_cm1_list>  (5) 
[137.93713412284, 222.36671863223998, 308.28643895607996, 429.70160639899996, 504.1397272677999, 783.2964144964401, 869.12686401112, 973.4157700659599, 995.0261728679999, 1094.40518441904, 1104.0052298964, 1206.5018527827199, 1284.0026491042397, 1339.0209354880799, 1351.92400090436, 1370.7120727398797, 1408.8169742805599, 1470.9906593678397, 1485.0061764059599, 1493.1984898927199, 2865.86078646348, 2916.58720702232, 3013.99539378652, 3016.570513281519, 3055.2591085743998, 3086.8403740610793, 3099.85331124248]

>  <E0_kJmol>  (5) 
-508313

>  <H298_kJmol>  (5) 
-508296

$$$$
