
     RDKit          3D

  5  4  0  0  0  0  0  0  0  0999 V2000
   -0.5690    0.0758    0.4229 N   0  0  0  0  0  2  0  0  0  1  0  0
    0.4543   -0.0977   -0.4258 N   0  0  0  0  0  0  0  0  0  2  0  0
   -0.2970    0.9183    0.9686 H   0  0  0  0  0  0  0  0  0  3  0  0
    0.4864   -1.0156   -0.8443 H   0  0  0  0  0  0  0  0  0  4  0  0
    1.3617    0.2717   -0.1681 H   0  0  0  0  0  0  0  0  0  5  0  0
  1  3  1  0
  1  2  1  0
  2  5  1  0
  2  4  1  0
M  RAD  1   1   2
M  END
>  <rmg_smiles>  (1) 
[NH]N

>  <rmg_adjacency_list>  (1) 
multiplicity 2
1 N u0 p1 c0 {2,S} {3,S} {4,S}
2 N u1 p1 c0 {1,S} {5,S}
3 H u0 p0 c0 {1,S}
4 H u0 p0 c0 {1,S}
5 H u0 p0 c0 {2,S}


>  <multiplicity>  (1) 
2

>  <reaction>  (1) 
rmg_rxn_10733

>  <type>  (1) 
r1h

>  <role_mapnums>  (1) 
{"r1h_a": 1, "r1h_h": 3}

>  <role_mapidx>  (1) 
{"r1h_a": 0, "r1h_h": 2}

>  <ordered_mapped_smiles>  (1) 
[N:1]([N:2]([H:4])[H:5])[H:3]

>  <mol_properties>  (1) 
{"0": {"label": "donator", "atom_type": "N3s"}, "2": {"label": "d_hydrogen", "atom_type": "H0"}}

>  <level_of_theory>  (1) 
wb97xd/def2tzvp

>  <lot_method>  (1) 
wb97xd

>  <lot_basis>  (1) 
def2tzvp

>  <spin_multiplicity>  (1) 
2.0

>  <optical_isomers>  (1) 
2.0

>  <modes>  (1) 
IdealGasTranslation(mass=(31.0296, 'amu')),         NonlinearRotor(             inertia = ([2.44556, 16.2707, 18.4662

>  <frequency_value>  (1) 
unknown

>  <frequency_units>  (1) 
unknown

>  <frequency_list>  (1) 
unknown

>  <arkane_path>  (1) 
/home/calvin/Dropbox/PersonalFolders/Calvin/ZEUS_Converged/rmg_rxn_10733/output/Species/rmg_rxn_10733_r1_sbr-NH-sbrN/arkane/output.py

>  <path_exists>  (1) 
True

>  <E0_value>  (1) 
-291956.4008594516

>  <E0_units>  (1) 
kJ/mol

>  <thermo_class>  (1) 
NASA

>  <Cp0_value>  (1) 
33.257888

>  <Cp0_units>  (1) 
J/(mol*K)

>  <CpInf_value>  (1) 
108.088136

>  <CpInf_units>  (1) 
J/(mol*K)

>  <Tmin_value>  (1) 
10.0

>  <Tmin_units>  (1) 
K

>  <Tmax_value>  (1) 
3000.0

>  <Tmax_units>  (1) 
K

>  <polynomials>  (1) 
[{"name": "polynomial1", "class": "NASAPolynomial", "Tmin_value": 10.0, "Tmin_units": "K", "Tmax_value": 509.8427398699997, "Tmax_units": "K", "coeffs": [4.052136205176303, -0.00453106608562149, 4.937166375123428e-05, -8.152395153775336e-08, 4.584734949353154e-11, -35114244.36275154, 5.945418411117284]}, {"name": "polynomial2", "class": "NASAPolynomial", "Tmin_value": 509.8427398699997, "Tmin_units": "K", "Tmax_value": 3000.0, "Tmax_units": "K", "coeffs": [2.365268687439737, 0.01149313742962712, -5.980676920191691e-06, 1.586818197752966e-09, -1.684182956109727e-13, -35114108.61415687, 12.591627358364509]}]

>  <H298_value>  (1) 
-69776.66596620543

>  <H298_units>  (1) 
kcal/mol

>  <S298_value>  (1) 
58.11388881712609

>  <S298_units>  (1) 
cal/(mol*K)

>  <Cp_T_value_list>  (1) 
[10.545077428327813, 12.112689774180259, 13.521915836639208, 14.763023018297428, 16.842791634778617, 18.473328179293357, 21.16642313546482, 22.711164518160874, 23.545534225935835]

>  <Cp_T_units>  (1) 
cal/(mol*K)

>  <T_list>  (1) 
[300.0, 400.0, 500.0, 600.0, 800.0, 1000.0, 1500.0, 2000.0, 2400.0]

>  <T_units>  (1) 
K

>  <yaml_path>  (1) 
/home/calvin/Dropbox/PersonalFolders/Calvin/ZEUS_Converged/rmg_rxn_10733/output/Species/rmg_rxn_10733_r1_sbr-NH-sbrN/rmg_rxn_10733_r1_sbr-NH-sbrN.yml

>  <frequencies_cm1>  (1) 
[540.35620784548, 695.94149424072, 1137.64659097908, 1263.87551513132, 1471.0593292210397, 1653.85847843944, 3424.7853226142397, 3492.4045270602796, 3632.23008214612]

>  <ZPE_kJmol>  (1) 
103.5497273046512

>  <E_elec_kJmol>  (1) 
-292059.9505867562

>  <E0_minus_Eelec_plus_ZPE_kJmol>  (1) 
0.0

>  <rxn>  (1) 
rmg_rxn_10733

>  <species_type>  (1) 
r0

>  <species_folder>  (1) 
rmg_rxn_10733_r1_sbr-NH-sbrN

>  <frequencies_cm1_list>  (1) 
[540.35620784548, 695.94149424072, 1137.64659097908, 1263.87551513132, 1471.0593292210397, 1653.85847843944, 3424.7853226142397, 3492.4045270602796, 3632.23008214612]

>  <E0_kJmol>  (1) 
-291956

>  <H298_kJmol>  (1) 
-291946

$$$$

     RDKit          3D

 15 14  0  0  0  0  0  0  0  0999 V2000
   -0.2382   -2.2855   -0.1477 H   0  0  0  0  0  0  0  0  0  1  0  0
   -0.5773   -1.3163    1.6432 C   0  0  0  0  0  0  0  0  0  2  0  0
    0.1623   -1.3950    0.3394 C   0  0  0  0  0  0  0  0  0  3  0  0
   -0.1108   -0.3137   -0.6628 C   0  0  0  0  0  0  0  0  0  4  0  0
    0.4027    0.9114   -0.1826 O   0  0  0  0  0  0  0  0  0  5  0  0
    0.1566    1.9777   -1.0578 C   0  0  0  0  0  0  0  0  0  6  0  0
   -0.3870   -2.1928    2.2636 H   0  0  0  0  0  0  0  0  0  7  0  0
   -1.6545   -1.2431    1.4767 H   0  0  0  0  0  0  0  0  0  8  0  0
   -0.2690   -0.4293    2.2059 H   0  0  0  0  0  0  0  0  0  9  0  0
    1.2241   -1.6257    0.4405 H   0  0  0  0  0  0  0  0  0 10  0  0
    0.3509   -0.5585   -1.6304 H   0  0  0  0  0  0  0  0  0 11  0  0
   -1.1945   -0.2250   -0.8316 H   0  0  0  0  0  0  0  0  0 12  0  0
   -0.9198    2.1332   -1.2097 H   0  0  0  0  0  0  0  0  0 13  0  0
    0.5845    2.8747   -0.6123 H   0  0  0  0  0  0  0  0  0 14  0  0
    0.6223    1.8097   -2.0383 H   0  0  0  0  0  0  0  0  0 15  0  0
  1  3  1  0
  2  9  1  0
  2  8  1  0
  2  7  1  0
  2  3  1  0
  3  4  1  0
  3 10  1  0
  4 12  1  0
  4 11  1  0
  4  5  1  0
  5  6  1  0
  6 15  1  0
  6 14  1  0
  6 13  1  0
M  END
>  <rmg_smiles>  (2) 
CCCOC

>  <rmg_adjacency_list>  (2) 
1  O u0 p2 c0 {3,S} {5,S}
2  C u0 p0 c0 {3,S} {4,S} {6,S} {7,S}
3  C u0 p0 c0 {1,S} {2,S} {8,S} {9,S}
4  C u0 p0 c0 {2,S} {10,S} {11,S} {12,S}
5  C u0 p0 c0 {1,S} {13,S} {14,S} {15,S}
6  H u0 p0 c0 {2,S}
7  H u0 p0 c0 {2,S}
8  H u0 p0 c0 {3,S}
9  H u0 p0 c0 {3,S}
10 H u0 p0 c0 {4,S}
11 H u0 p0 c0 {4,S}
12 H u0 p0 c0 {4,S}
13 H u0 p0 c0 {5,S}
14 H u0 p0 c0 {5,S}
15 H u0 p0 c0 {5,S}


>  <multiplicity>  (2) 
1

>  <reaction>  (2) 
rmg_rxn_10733

>  <type>  (2) 
r2h

>  <role_mapnums>  (2) 
{"r2h_a": 3, "r2h_h": 1}

>  <role_mapidx>  (2) 
{"r2h_a": 2, "r2h_h": 0}

>  <ordered_mapped_smiles>  (2) 
[H:1][C:3]([C:2]([H:7])([H:8])[H:9])([C:4]([O:5][C:6]([H:13])([H:14])[H:15])([H:11])[H:12])[H:10]

>  <mol_properties>  (2) 
{"0": {"label": "a_hydrogen", "atom_type": "H0"}, "2": {"label": "acceptor", "atom_type": "Cs"}}

>  <level_of_theory>  (2) 
wb97xd/def2tzvp

>  <lot_method>  (2) 
wb97xd

>  <lot_basis>  (2) 
def2tzvp

>  <spin_multiplicity>  (2) 
1.0

>  <optical_isomers>  (2) 
2.0

>  <modes>  (2) 
IdealGasTranslation(mass=(74.0732, 'amu')),         NonlinearRotor(             inertia = ([40.784, 192.218, 211.735

>  <frequency_value>  (2) 
unknown

>  <frequency_units>  (2) 
unknown

>  <frequency_list>  (2) 
unknown

>  <arkane_path>  (2) 
/home/calvin/Dropbox/PersonalFolders/Calvin/ZEUS_Converged/rmg_rxn_10733/output/Species/rmg_rxn_10733_p2_CCCOC/arkane/output.py

>  <path_exists>  (2) 
True

>  <E0_value>  (2) 
-613163.1274359095

>  <E0_units>  (2) 
kJ/mol

>  <thermo_class>  (2) 
NASA

>  <Cp0_value>  (2) 
33.257888

>  <Cp0_units>  (2) 
J/(mol*K)

>  <CpInf_value>  (2) 
357.522296

>  <CpInf_units>  (2) 
J/(mol*K)

>  <Tmin_value>  (2) 
10.0

>  <Tmin_units>  (2) 
K

>  <Tmax_value>  (2) 
3000.0

>  <Tmax_units>  (2) 
K

>  <polynomials>  (2) 
[{"name": "polynomial1", "class": "NASAPolynomial", "Tmin_value": 10.0, "Tmin_units": "K", "Tmax_value": 456.12560324554056, "Tmax_units": "K", "coeffs": [3.62223196701835, 0.03879795217402279, -8.359648491421e-05, 2.4522721819815076e-07, -2.187140949836333e-10, -73746489.62884024, 10.515609438787227]}, {"name": "polynomial2", "class": "NASAPolynomial", "Tmin_value": 456.12560324554056, "Tmin_units": "K", "Tmax_value": 3000.0, "Tmax_units": "K", "coeffs": [-2.20935170520275, 0.056485006605310945, -3.174876766111153e-05, 8.65420390010314e-09, -9.198389746305381e-13, -73745609.6450763, 37.88661603232218]}]

>  <H298_value>  (2) 
-146544.64412500645

>  <H298_units>  (2) 
kcal/mol

>  <S298_value>  (2) 
80.94634663649457

>  <S298_units>  (2) 
cal/(mol*K)

>  <Cp_T_value_list>  (2) 
[25.013931424396034, 31.51994949570118, 37.99587562842776, 43.72290058989096, 53.08549647523409, 60.13535702830284, 70.81347633831932, 76.07383878332065, 78.6922399009724]

>  <Cp_T_units>  (2) 
cal/(mol*K)

>  <T_list>  (2) 
[300.0, 400.0, 500.0, 600.0, 800.0, 1000.0, 1500.0, 2000.0, 2400.0]

>  <T_units>  (2) 
K

>  <yaml_path>  (2) 
/home/calvin/Dropbox/PersonalFolders/Calvin/ZEUS_Converged/rmg_rxn_10733/output/Species/rmg_rxn_10733_p2_CCCOC/rmg_rxn_10733_p2_CCCOC.yml

>  <frequencies_cm1>  (2) 
[91.63991909539999, 126.96369158147998, 202.90568223536002, 229.57705321824, 300.01172164547995, 354.24717170284, 509.22129640459997, 764.38473692516, 888.9449836446399, 924.72884414716, 957.6835066978399, 1072.9458552940398, 1116.4482072962398, 1154.8689901616399, 1177.001283848, 1188.20133690492, 1229.14230338276, 1271.07211574668, 1307.65941353164, 1369.5858871474, 1403.3027850685999, 1415.972372984, 1467.6807724436, 1468.93743075716, 1475.31686011944, 1481.9915698504797, 1490.39675988216, 1494.07059702836, 1510.75737135596, 2928.3984217727198, 2950.9908034755194, 2962.18398954712, 2998.10518975604, 3014.75762915704, 3020.7181724148, 3057.78615917216, 3085.0343569219203, 3099.33828734348, 3104.91427942332]

>  <ZPE_kJmol>  (2) 
356.89332738911673

>  <E_elec_kJmol>  (2) 
-613520.0207632986

>  <E0_minus_Eelec_plus_ZPE_kJmol>  (2) 
0.0

>  <rxn>  (2) 
rmg_rxn_10733

>  <species_type>  (2) 
p1

>  <species_folder>  (2) 
rmg_rxn_10733_p2_CCCOC

>  <frequencies_cm1_list>  (2) 
[91.63991909539999, 126.96369158147998, 202.90568223536002, 229.57705321824, 300.01172164547995, 354.24717170284, 509.22129640459997, 764.38473692516, 888.9449836446399, 924.72884414716, 957.6835066978399, 1072.9458552940398, 1116.4482072962398, 1154.8689901616399, 1177.001283848, 1188.20133690492, 1229.14230338276, 1271.07211574668, 1307.65941353164, 1369.5858871474, 1403.3027850685999, 1415.972372984, 1467.6807724436, 1468.93743075716, 1475.31686011944, 1481.9915698504797, 1490.39675988216, 1494.07059702836, 1510.75737135596, 2928.3984217727198, 2950.9908034755194, 2962.18398954712, 2998.10518975604, 3014.75762915704, 3020.7181724148, 3057.78615917216, 3085.0343569219203, 3099.33828734348, 3104.91427942332]

>  <E0_kJmol>  (2) 
-613163

>  <H298_kJmol>  (2) 
-613143

$$$$

     RDKit          3D

 19 17  0  0  0  0  0  0  0  0999 V2000
   -0.6915   -2.3967   -0.5757 N   0  0  0  0  0  2  0  0  0  1  0  0
    0.3318   -2.5702   -1.4243 N   0  0  0  0  0  0  0  0  0  2  0  0
   -0.3774   -1.4241    0.0544 H   0  0  0  0  0  0  0  0  0  3  0  0
    0.3640   -3.4881   -1.8429 H   0  0  0  0  0  0  0  0  0  4  0  0
    1.2392   -2.2008   -1.1667 H   0  0  0  0  0  0  0  0  0  5  0  0
   -0.6030   -0.2025    1.9833 C   0  0  0  0  0  0  0  0  0  6  0  0
    0.1366   -0.2813    0.6795 C   0  0  0  0  0  3  0  0  0  7  0  0
   -0.1366    0.8000   -0.3227 C   0  0  0  0  0  0  0  0  0  8  0  0
    0.3770    2.0252    0.1575 O   0  0  0  0  0  0  0  0  0  9  0  0
    0.1309    3.0914   -0.7177 C   0  0  0  0  0  0  0  0  0 10  0  0
   -0.4127   -1.0790    2.6037 H   0  0  0  0  0  0  0  0  0 11  0  0
   -1.6803   -0.1294    1.8169 H   0  0  0  0  0  0  0  0  0 12  0  0
   -0.2948    0.6845    2.5460 H   0  0  0  0  0  0  0  0  0 13  0  0
    1.1983   -0.5119    0.7806 H   0  0  0  0  0  0  0  0  0 14  0  0
    0.3251    0.5552   -1.2903 H   0  0  0  0  0  0  0  0  0 15  0  0
   -1.2202    0.8888   -0.4915 H   0  0  0  0  0  0  0  0  0 16  0  0
   -0.9455    3.2470   -0.8696 H   0  0  0  0  0  0  0  0  0 17  0  0
    0.5588    3.9885   -0.2722 H   0  0  0  0  0  0  0  0  0 18  0  0
    0.5966    2.9234   -1.6982 H   0  0  0  0  0  0  0  0  0 19  0  0
  1  2  1  0
  1  3  1  0
  2  5  1  0
  2  4  1  0
  6 13  1  0
  6  7  1  0
  6 11  1  0
  6 12  1  0
  7 14  1  0
  7  8  1  0
  8 15  1  0
  8 16  1  0
  8  9  1  0
  9 10  1  0
 10 19  1  0
 10 17  1  0
 10 18  1  0
M  RAD  2   1   2   7   2
M  END
>  <rmg_smiles>  (3) 
C[CH]COC.[NH]N

>  <rmg_adjacency_list>  (3) 
multiplicity 3
1  O u0 p2 c0 {4,S} {6,S}
2  N u0 p1 c0 {3,S} {17,S} {18,S}
3  N u1 p1 c0 {2,S} {19,S}
4  C u0 p0 c0 {1,S} {7,S} {8,S} {9,S}
5  C u0 p0 c0 {7,S} {10,S} {11,S} {12,S}
6  C u0 p0 c0 {1,S} {13,S} {14,S} {15,S}
7  C u1 p0 c0 {4,S} {5,S} {16,S}
8  H u0 p0 c0 {4,S}
9  H u0 p0 c0 {4,S}
10 H u0 p0 c0 {5,S}
11 H u0 p0 c0 {5,S}
12 H u0 p0 c0 {5,S}
13 H u0 p0 c0 {6,S}
14 H u0 p0 c0 {6,S}
15 H u0 p0 c0 {6,S}
16 H u0 p0 c0 {7,S}
17 H u0 p0 c0 {2,S}
18 H u0 p0 c0 {2,S}
19 H u0 p0 c0 {3,S}


>  <multiplicity>  (3) 
3

>  <reaction>  (3) 
rmg_rxn_10733

>  <type>  (3) 
ts

>  <role_mapnums>  (3) 
{"*2": 3, "*1": 1, "*3": 7, "*0": 2, "*4": 8}

>  <role_mapidx>  (3) 
{"*2": 2, "*1": 0, "*3": 6, "*0": 1, "*4": 7}

>  <ordered_mapped_smiles>  (3) 
[N:1]([N:2]([H:4])[H:5])[H:3].[C:6]([C:7]([C:8]([O:9][C:10]([H:17])([H:18])[H:19])([H:15])[H:16])[H:14])([H:11])([H:12])[H:13]

>  <mol_properties>  (3) 
{"0": {"label": "*1", "atom_type": "N3s"}, "1": {"label": "*0", "atom_type": "N3s"}, "2": {"label": "*2", "atom_type": "H0"}, "6": {"label": "*3", "atom_type": "Cs"}, "7": {"label": "*4", "atom_type": "Cs"}}

>  <level_of_theory>  (3) 
wb97xd/def2tzvp

>  <lot_method>  (3) 
wb97xd

>  <lot_basis>  (3) 
def2tzvp

>  <spin_multiplicity>  (3) 
3.0

>  <optical_isomers>  (3) 
2.0

>  <modes>  (3) 
IdealGasTranslation(mass=(104.095, 'amu')),         NonlinearRotor(             inertia = ([140.261, 443.035, 547.131

>  <frequency_value>  (3) 
-1698.99

>  <frequency_units>  (3) 
cm^-1

>  <frequency_list>  (3) 
unknown

>  <arkane_path>  (3) 
/home/calvin/Dropbox/PersonalFolders/Calvin/ZEUS_Converged/rmg_rxn_10733/output/rxns/TS0/arkane/output.py

>  <path_exists>  (3) 
True

>  <E0_value>  (3) 
-903378.0

>  <E0_units>  (3) 
kJ/mol

>  <thermo_class>  (3) 
unknown

>  <Cp0_value>  (3) 
unknown

>  <Cp0_units>  (3) 
unknown

>  <CpInf_value>  (3) 
unknown

>  <CpInf_units>  (3) 
unknown

>  <Tmin_value>  (3) 
unknown

>  <Tmin_units>  (3) 
unknown

>  <Tmax_value>  (3) 
unknown

>  <Tmax_units>  (3) 
unknown

>  <polynomials>  (3) 
unknown

>  <H298_value>  (3) 
unknown

>  <H298_units>  (3) 
unknown

>  <S298_value>  (3) 
unknown

>  <S298_units>  (3) 
unknown

>  <Cp_T_value_list>  (3) 
unknown

>  <Cp_T_units>  (3) 
unknown

>  <T_list>  (3) 
unknown

>  <T_units>  (3) 
unknown

>  <yaml_path>  (3) 
unknown

>  <frequencies_cm1>  (3) 
unknown

>  <ZPE_kJmol>  (3) 
unknown

>  <E_elec_kJmol>  (3) 
unknown

>  <E0_minus_Eelec_plus_ZPE_kJmol>  (3) 
unknown

>  <rxn>  (3) 
unknown

>  <species_type>  (3) 
unknown

>  <species_folder>  (3) 
unknown

>  <frequencies_cm1_list>  (3) 
[]

>  <ts_imag_freq_cm1>  (3) 
-1719.6222

>  <ts_freq_out_path>  (3) 
/home/calvin/Dropbox/PersonalFolders/Calvin/ZEUS_Converged/rmg_rxn_10733/output/rxns/TS0/geometry/freq.out

>  <E0_kJmol>  (3) 
-903378

>  <H298_kJmol>  (3) 
unknown

$$$$

     RDKit          3D

  4  3  0  0  0  0  0  0  0  0999 V2000
    1.2191   -0.0447   -0.0369 N   0  0  0  0  0  1  0  0  0  1  0  0
   -0.0876   -0.0060    0.2202 N   0  0  0  0  0  0  0  0  0  2  0  0
   -0.5966   -0.8143   -0.1273 H   0  0  0  0  0  0  0  0  0  3  0  0
   -0.5329    0.8649   -0.0563 H   0  0  0  0  0  0  0  0  0  4  0  0
  1  2  1  0
  2  4  1  0
  2  3  1  0
M  RAD  1   1   3
M  END
>  <rmg_smiles>  (4) 
[N]N

>  <rmg_adjacency_list>  (4) 
multiplicity 3
1 N u0 p1 c0 {2,S} {3,S} {4,S}
2 N u2 p2 c0 {1,S}
3 H u0 p0 c0 {1,S}
4 H u0 p0 c0 {1,S}


>  <multiplicity>  (4) 
3

>  <reaction>  (4) 
rmg_rxn_10733

>  <type>  (4) 
r1

>  <role_mapnums>  (4) 
{}

>  <role_mapidx>  (4) 
{}

>  <ordered_mapped_smiles>  (4) 
[N:1][N:2]([H:3])[H:4]

>  <level_of_theory>  (4) 
wb97xd/def2tzvp

>  <lot_method>  (4) 
wb97xd

>  <lot_basis>  (4) 
def2tzvp

>  <spin_multiplicity>  (4) 
3.0

>  <optical_isomers>  (4) 
1.0

>  <modes>  (4) 
IdealGasTranslation(mass=(30.0218, 'amu')),         NonlinearRotor(             inertia = ([1.67933, 14.8983, 16.0702

>  <frequency_value>  (4) 
unknown

>  <frequency_units>  (4) 
unknown

>  <frequency_list>  (4) 
unknown

>  <arkane_path>  (4) 
/home/calvin/Dropbox/PersonalFolders/Calvin/ZEUS_Converged/rmg_rxn_10733/output/Species/rmg_rxn_10733_p1_sbr-N-sbrN/arkane/output.py

>  <path_exists>  (4) 
True

>  <E0_value>  (4) 
-290291.658875472

>  <E0_units>  (4) 
kJ/mol

>  <thermo_class>  (4) 
NASA

>  <Cp0_value>  (4) 
33.257888

>  <Cp0_units>  (4) 
J/(mol*K)

>  <CpInf_value>  (4) 
83.14472

>  <CpInf_units>  (4) 
J/(mol*K)

>  <Tmin_value>  (4) 
10.0

>  <Tmin_units>  (4) 
K

>  <Tmax_value>  (4) 
3000.0

>  <Tmax_units>  (4) 
K

>  <polynomials>  (4) 
[{"name": "polynomial1", "class": "NASAPolynomial", "Tmin_value": 10.0, "Tmin_units": "K", "Tmax_value": 665.6086206851692, "Tmax_units": "K", "coeffs": [4.047267350793194, -0.0035112300870909136, 2.9209112804417833e-05, -3.950945283569383e-08, 1.7786008766664202e-11, -34914022.81019101, 5.3136830427894965]}, {"name": "polynomial2", "class": "NASAPolynomial", "Tmin_value": 665.6086206851692, "Tmin_units": "K", "Tmax_value": 3000.0, "Tmax_units": "K", "coeffs": [2.590933023525455, 0.008335190999959536, -4.461453990827671e-06, 1.1994714894893806e-09, -1.2758111080694537e-13, -34913897.489579014, 11.231912764264765]}]

>  <H298_value>  (4) 
-69378.91233580558

>  <H298_units>  (4) 
kcal/mol

>  <S298_value>  (4) 
56.254805565389056

>  <S298_units>  (4) 
cal/(mol*K)

>  <Cp_T_value_list>  (4) 
[9.339930014712046, 10.418824736743135, 11.459970400828029, 12.37400665809039, 13.842140149881402, 14.976701844262161, 16.807365231695826, 17.825189062676678, 18.37386083529915]

>  <Cp_T_units>  (4) 
cal/(mol*K)

>  <T_list>  (4) 
[300.0, 400.0, 500.0, 600.0, 800.0, 1000.0, 1500.0, 2000.0, 2400.0]

>  <T_units>  (4) 
K

>  <yaml_path>  (4) 
/home/calvin/Dropbox/PersonalFolders/Calvin/ZEUS_Converged/rmg_rxn_10733/output/Species/rmg_rxn_10733_p1_sbr-N-sbrN/rmg_rxn_10733_p1_sbr-N-sbrN.yml

>  <frequencies_cm1>  (4) 
[723.4575044179599, 1085.5811082828398, 1237.95951253364, 1573.04092820836, 3402.19980789676, 3509.68872911072]

>  <ZPE_kJmol>  (4) 
68.97626445458796

>  <E_elec_kJmol>  (4) 
-290360.63513992657

>  <E0_minus_Eelec_plus_ZPE_kJmol>  (4) 
0.0

>  <rxn>  (4) 
rmg_rxn_10733

>  <species_type>  (4) 
p0

>  <species_folder>  (4) 
rmg_rxn_10733_p1_sbr-N-sbrN

>  <frequencies_cm1_list>  (4) 
[723.4575044179599, 1085.5811082828398, 1237.95951253364, 1573.04092820836, 3402.19980789676, 3509.68872911072]

>  <E0_kJmol>  (4) 
-290292

>  <H298_kJmol>  (4) 
-290281

$$$$

     RDKit          3D

 14 13  0  0  0  0  0  0  0  0999 V2000
   -2.2399   -0.0166   -0.1883 C   0  0  0  0  0  0  0  0  0  1  0  0
   -1.3469   -1.1905   -0.0279 C   0  0  0  0  0  3  0  0  0  2  0  0
   -1.6654   -2.2692    0.9493 C   0  0  0  0  0  0  0  0  0  3  0  0
   -2.0490   -1.7958    2.2240 O   0  0  0  0  0  0  0  0  0  4  0  0
   -0.9990   -1.1771    2.9198 C   0  0  0  0  0  0  0  0  0  5  0  0
   -2.6700    0.2862    0.7685 H   0  0  0  0  0  0  0  0  0  6  0  0
   -3.0850   -0.2450   -0.8547 H   0  0  0  0  0  0  0  0  0  7  0  0
   -1.7143    0.8346   -0.6240 H   0  0  0  0  0  0  0  0  0  8  0  0
   -0.5797   -1.3809   -0.7686 H   0  0  0  0  0  0  0  0  0  9  0  0
   -2.5244   -2.8609    0.6038 H   0  0  0  0  0  0  0  0  0 10  0  0
   -0.8142   -2.9586    1.0411 H   0  0  0  0  0  0  0  0  0 11  0  0
   -0.6226   -0.2923    2.3915 H   0  0  0  0  0  0  0  0  0 12  0  0
   -1.3883   -0.8732    3.8905 H   0  0  0  0  0  0  0  0  0 13  0  0
   -0.1599   -1.8693    3.0725 H   0  0  0  0  0  0  0  0  0 14  0  0
  1  8  1  0
  1  7  1  0
  1  6  1  0
  1  2  1  0
  2  9  1  0
  2  3  1  0
  3 11  1  0
  3  4  1  0
  3 10  1  0
  4  5  1  0
  5 13  1  0
  5 12  1  0
  5 14  1  0
M  RAD  1   2   2
M  END
>  <rmg_smiles>  (5) 
C[CH]COC

>  <rmg_adjacency_list>  (5) 
multiplicity 2
1  O u0 p2 c0 {2,S} {4,S}
2  C u0 p0 c0 {1,S} {5,S} {6,S} {7,S}
3  C u0 p0 c0 {5,S} {8,S} {9,S} {10,S}
4  C u0 p0 c0 {1,S} {11,S} {12,S} {13,S}
5  C u1 p0 c0 {2,S} {3,S} {14,S}
6  H u0 p0 c0 {2,S}
7  H u0 p0 c0 {2,S}
8  H u0 p0 c0 {3,S}
9  H u0 p0 c0 {3,S}
10 H u0 p0 c0 {3,S}
11 H u0 p0 c0 {4,S}
12 H u0 p0 c0 {4,S}
13 H u0 p0 c0 {4,S}
14 H u0 p0 c0 {5,S}


>  <multiplicity>  (5) 
2

>  <reaction>  (5) 
rmg_rxn_10733

>  <type>  (5) 
r2

>  <role_mapnums>  (5) 
{}

>  <role_mapidx>  (5) 
{}

>  <ordered_mapped_smiles>  (5) 
[C:1]([C:2]([C:3]([O:4][C:5]([H:12])([H:13])[H:14])([H:10])[H:11])[H:9])([H:6])([H:7])[H:8]

>  <level_of_theory>  (5) 
wb97xd/def2tzvp

>  <lot_method>  (5) 
wb97xd

>  <lot_basis>  (5) 
def2tzvp

>  <spin_multiplicity>  (5) 
2.0

>  <optical_isomers>  (5) 
2.0

>  <modes>  (5) 
IdealGasTranslation(mass=(73.0653, 'amu')),         NonlinearRotor(             inertia = ([57.4355, 151.779, 172.567

>  <frequency_value>  (5) 
unknown

>  <frequency_units>  (5) 
unknown

>  <frequency_list>  (5) 
unknown

>  <arkane_path>  (5) 
/home/calvin/Dropbox/PersonalFolders/Calvin/ZEUS_Converged/rmg_rxn_10733/output/Species/rmg_rxn_10733_r2_Csbr-CH-sbrCOC/arkane/output.py

>  <path_exists>  (5) 
True

>  <E0_value>  (5) 
-611442.2731419932

>  <E0_units>  (5) 
kJ/mol

>  <thermo_class>  (5) 
NASA

>  <Cp0_value>  (5) 
33.257888

>  <Cp0_units>  (5) 
J/(mol*K)

>  <CpInf_value>  (5) 
332.57888

>  <CpInf_units>  (5) 
J/(mol*K)

>  <Tmin_value>  (5) 
10.0

>  <Tmin_units>  (5) 
K

>  <Tmax_value>  (5) 
3000.0

>  <Tmax_units>  (5) 
K

>  <polynomials>  (5) 
[{"name": "polynomial1", "class": "NASAPolynomial", "Tmin_value": 10.0, "Tmin_units": "K", "Tmax_value": 425.78067206825415, "Tmax_units": "K", "coeffs": [3.526686835114462, 0.05047286897839576, -0.00015053585357273269, 3.8978281699684034e-07, -3.37280885950768e-10, -73539517.65492678, 11.298647037059743]}, {"name": "polynomial2", "class": "NASAPolynomial", "Tmin_value": 425.78067206825415, "Tmin_units": "K", "Tmax_value": 3000.0, "Tmax_units": "K", "coeffs": [-0.1683064371298676, 0.05053846921183428, -2.8707481835917995e-05, 7.91508524946746e-09, -8.50323069602984e-13, -73538888.94686991, 29.657964609533963]}]

>  <H298_value>  (5) 
-146133.09231844658

>  <H298_units>  (5) 
kcal/mol

>  <S298_value>  (5) 
84.49745680464746

>  <S298_units>  (5) 
cal/(mol*K)

>  <Cp_T_value_list>  (5) 
[25.65976735872694, 31.679663426059193, 37.47930714162204, 42.56504550506925, 50.86038806442172, 57.08736172122742, 66.48440879370821, 71.13050176223182, 73.47772368065162]

>  <Cp_T_units>  (5) 
cal/(mol*K)

>  <T_list>  (5) 
[300.0, 400.0, 500.0, 600.0, 800.0, 1000.0, 1500.0, 2000.0, 2400.0]

>  <T_units>  (5) 
K

>  <yaml_path>  (5) 
/home/calvin/Dropbox/PersonalFolders/Calvin/ZEUS_Converged/rmg_rxn_10733/output/Species/rmg_rxn_10733_r2_Csbr-CH-sbrCOC/rmg_rxn_10733_r2_Csbr-CH-sbrCOC.yml

>  <frequencies_cm1>  (5) 
[87.039038931, 91.68112100731999, 144.76978451623998, 196.47818397583998, 264.26219606955993, 388.8567777156399, 394.92719273852003, 605.0706775011599, 864.6907914944, 914.0369480039199, 946.41478378772, 986.9780660729599, 1093.6360820631999, 1124.8808652692, 1159.38059951688, 1172.75748692024, 1216.486449438, 1302.0628204958398, 1364.57985484912, 1374.92153474104, 1402.0049248431199, 1457.1536839480398, 1459.9622809439197, 1468.6558843590399, 1469.9056756872799, 1474.6370285727598, 1494.57188695672, 2946.78820845968, 2949.2740571455197, 2957.55564144144, 2983.6433186721197, 3008.74901700204, 3043.70883926616, 3091.60606187316, 3101.79666808804, 3157.0827668993597]

>  <ZPE_kJmol>  (5) 
317.97352719118686

>  <E_elec_kJmol>  (5) 
-611760.2466691844

>  <E0_minus_Eelec_plus_ZPE_kJmol>  (5) 
0.0

>  <rxn>  (5) 
rmg_rxn_10733

>  <species_type>  (5) 
r1

>  <species_folder>  (5) 
rmg_rxn_10733_r2_Csbr-CH-sbrCOC

>  <frequencies_cm1_list>  (5) 
[87.039038931, 91.68112100731999, 144.76978451623998, 196.47818397583998, 264.26219606955993, 388.8567777156399, 394.92719273852003, 605.0706775011599, 864.6907914944, 914.0369480039199, 946.41478378772, 986.9780660729599, 1093.6360820631999, 1124.8808652692, 1159.38059951688, 1172.75748692024, 1216.486449438, 1302.0628204958398, 1364.57985484912, 1374.92153474104, 1402.0049248431199, 1457.1536839480398, 1459.9622809439197, 1468.6558843590399, 1469.9056756872799, 1474.6370285727598, 1494.57188695672, 2946.78820845968, 2949.2740571455197, 2957.55564144144, 2983.6433186721197, 3008.74901700204, 3043.70883926616, 3091.60606187316, 3101.79666808804, 3157.0827668993597]

>  <E0_kJmol>  (5) 
-611442

>  <H298_kJmol>  (5) 
-611421

$$$$
