
     RDKit          3D

  6  5  0  0  0  0  0  0  0  0999 V2000
    0.2553   -0.3073   -1.0090 O   0  0  0  0  0  0  0  0  0  1  0  0
   -0.0579   -0.3777    0.3385 N   0  0  0  0  0  0  0  0  0  2  0  0
   -0.2487    0.7333    0.8766 C   0  0  0  0  0  0  0  0  0  3  0  0
    0.3664   -1.2281   -1.2553 H   0  0  0  0  0  0  0  0  0  4  0  0
   -0.1691    1.6556    0.3119 H   0  0  0  0  0  0  0  0  0  5  0  0
   -0.4996    0.7810    1.9305 H   0  0  0  0  0  0  0  0  0  6  0  0
  1  4  1  0
  1  2  1  0
  2  3  1  0
  3  6  1  0
  3  5  1  0
M  END
>  <rmg_smiles>  (1) 
[CH2][N]O

>  <rmg_adjacency_list>  (1) 
1 O u0 p2 c0 {2,S} {6,S}
2 N u0 p1 c0 {1,S} {3,S}
3 C u0 p0 c0 {2,S} {4,S} {5,S}
4 H u0 p0 c0 {3,S}
5 H u0 p0 c0 {3,S}
6 H u0 p0 c0 {1,S}


>  <multiplicity>  (1) 
1

>  <reaction>  (1) 
rmg_rxn_15469

>  <type>  (1) 
r1h

>  <role_mapnums>  (1) 
{"r1h_a": 3, "r1h_h": 5}

>  <role_mapidx>  (1) 
{"r1h_a": 2, "r1h_h": 4}

>  <ordered_mapped_smiles>  (1) 
[O:1]([NH:2][CH:3]([H:5])[H:6])[H:4]

>  <mol_properties>  (1) 
{"2": {"label": "donator", "atom_type": "Cs"}, "4": {"label": "d_hydrogen", "atom_type": "H0"}}

>  <level_of_theory>  (1) 
wb97xd/def2tzvp

>  <lot_method>  (1) 
wb97xd

>  <lot_basis>  (1) 
def2tzvp

>  <spin_multiplicity>  (1) 
1.0

>  <optical_isomers>  (1) 
1.0

>  <modes>  (1) 
IdealGasTranslation(mass=(45.0215, 'amu')),         NonlinearRotor(             inertia = ([7.10552, 42.1368, 49.2423

>  <frequency_value>  (1) 
unknown

>  <frequency_units>  (1) 
unknown

>  <frequency_list>  (1) 
unknown

>  <arkane_path>  (1) 
/home/calvin/Dropbox/PersonalFolders/Calvin/ZEUS_Converged/rmg_rxn_15469/output/Species/rmg_rxn_15469_r2_ON=C/arkane/output.py

>  <path_exists>  (1) 
True

>  <E0_value>  (1) 
-445765.04652910994

>  <E0_units>  (1) 
kJ/mol

>  <thermo_class>  (1) 
NASA

>  <Cp0_value>  (1) 
33.257888

>  <Cp0_units>  (1) 
J/(mol*K)

>  <CpInf_value>  (1) 
133.031552

>  <CpInf_units>  (1) 
J/(mol*K)

>  <Tmin_value>  (1) 
10.0

>  <Tmin_units>  (1) 
K

>  <Tmax_value>  (1) 
3000.0

>  <Tmax_units>  (1) 
K

>  <polynomials>  (1) 
[{"name": "polynomial1", "class": "NASAPolynomial", "Tmin_value": 10.0, "Tmin_units": "K", "Tmax_value": 555.0008285415723, "Tmax_units": "K", "coeffs": [4.0729558966761115, -0.006525504673073184, 8.044401869233928e-05, -1.3643340673050255e-07, 7.605604608176978e-11, -53613151.050707266, 6.598063650688069]}, {"name": "polynomial2", "class": "NASAPolynomial", "Tmin_value": 555.0008285415723, "Tmin_units": "K", "Tmax_value": 3000.0, "Tmax_units": "K", "coeffs": [1.9629419554542669, 0.01794293278685335, -1.0716899102514014e-05, 3.1351804200574135e-09, -3.5588210478784073e-13, -53613059.472560614, 14.250328412630774]}]

>  <H298_value>  (1) 
-106537.6194767193

>  <H298_units>  (1) 
kcal/mol

>  <S298_value>  (1) 
60.36296822828259

>  <S298_units>  (1) 
cal/(mol*K)

>  <Cp_T_value_list>  (1) 
[12.494795700177992, 15.001608210431446, 17.130783734283074, 18.881829280437152, 21.69615330289245, 23.7834318087242, 26.9145239767162, 28.553257692891545, 29.47039525924992]

>  <Cp_T_units>  (1) 
cal/(mol*K)

>  <T_list>  (1) 
[300.0, 400.0, 500.0, 600.0, 800.0, 1000.0, 1500.0, 2000.0, 2400.0]

>  <T_units>  (1) 
K

>  <yaml_path>  (1) 
/home/calvin/Dropbox/PersonalFolders/Calvin/ZEUS_Converged/rmg_rxn_15469/output/Species/rmg_rxn_15469_r2_ON=C/rmg_rxn_15469_r2_ON=C.yml

>  <frequencies_cm1>  (1) 
[438.20980121048, 539.7244451960399, 801.7205361099999, 965.59427378648, 986.4836431299199, 1183.2914424011199, 1353.5034075279598, 1444.4016922088, 1728.97643085492, 3083.6403589019596, 3214.03754314344, 3841.1169085952]

>  <ZPE_kJmol>  (1) 
117.11863122037906

>  <E_elec_kJmol>  (1) 
-445882.1651603303

>  <E0_minus_Eelec_plus_ZPE_kJmol>  (1) 
0.0

>  <rxn>  (1) 
rmg_rxn_15469

>  <species_type>  (1) 
r1

>  <species_folder>  (1) 
rmg_rxn_15469_r2_ON=C

>  <frequencies_cm1_list>  (1) 
[438.20980121048, 539.7244451960399, 801.7205361099999, 965.59427378648, 986.4836431299199, 1183.2914424011199, 1353.5034075279598, 1444.4016922088, 1728.97643085492, 3083.6403589019596, 3214.03754314344, 3841.1169085952]

>  <E0_kJmol>  (1) 
-445765

>  <H298_kJmol>  (1) 
-445753

$$$$

     RDKit          3D

  4  3  0  0  0  0  0  0  0  0999 V2000
    0.0018    0.0208   -0.0129 C   0  0  0  0  0  3  0  0  0  1  0  0
   -0.1691    0.9685    0.4808 H   0  0  0  0  0  0  0  0  0  2  0  0
    0.2549   -0.1086   -1.0560 H   0  0  0  0  0  0  0  0  0  3  0  0
   -0.0856   -0.8799    0.5796 H   0  0  0  0  0  0  0  0  0  4  0  0
  1  3  1  0
  1  4  1  0
  1  2  1  0
M  RAD  1   1   2
M  END
>  <rmg_smiles>  (2) 
[CH3]

>  <rmg_adjacency_list>  (2) 
multiplicity 2
1 C u1 p0 c0 {2,S} {3,S} {4,S}
2 H u0 p0 c0 {1,S}
3 H u0 p0 c0 {1,S}
4 H u0 p0 c0 {1,S}


>  <multiplicity>  (2) 
2

>  <reaction>  (2) 
rmg_rxn_15469

>  <type>  (2) 
r2h

>  <role_mapnums>  (2) 
{"r2h_a": 1, "r2h_h": 4}

>  <role_mapidx>  (2) 
{"r2h_a": 0, "r2h_h": 3}

>  <ordered_mapped_smiles>  (2) 
[C:1]([H:2])([H:3])[H:4]

>  <mol_properties>  (2) 
{"0": {"label": "acceptor", "atom_type": "Cs"}, "3": {"label": "a_hydrogen", "atom_type": "H0"}}

>  <level_of_theory>  (2) 
wb97xd/def2tzvp

>  <lot_method>  (2) 
wb97xd

>  <lot_basis>  (2) 
def2tzvp

>  <spin_multiplicity>  (2) 
2.0

>  <optical_isomers>  (2) 
1.0

>  <modes>  (2) 
IdealGasTranslation(mass=(15.0235, 'amu')),         NonlinearRotor(             inertia = ([1.76141, 1.76141, 3.52282

>  <frequency_value>  (2) 
unknown

>  <frequency_units>  (2) 
unknown

>  <frequency_list>  (2) 
unknown

>  <arkane_path>  (2) 
/home/calvin/Dropbox/PersonalFolders/Calvin/ZEUS_Converged/rmg_rxn_15469/output/Species/rmg_rxn_15469_p2_sbr-CH3-sbr/arkane/output.py

>  <path_exists>  (2) 
True

>  <E0_value>  (2) 
-104520.13119505688

>  <E0_units>  (2) 
kJ/mol

>  <thermo_class>  (2) 
NASA

>  <Cp0_value>  (2) 
33.257888

>  <Cp0_units>  (2) 
J/(mol*K)

>  <CpInf_value>  (2) 
83.14472

>  <CpInf_units>  (2) 
J/(mol*K)

>  <Tmin_value>  (2) 
10.0

>  <Tmin_units>  (2) 
K

>  <Tmax_value>  (2) 
3000.0

>  <Tmax_units>  (2) 
K

>  <polynomials>  (2) 
[{"name": "polynomial1", "class": "NASAPolynomial", "Tmin_value": 10.0, "Tmin_units": "K", "Tmax_value": 646.7203553713655, "Tmax_units": "K", "coeffs": [3.991226349077211, 0.0004274484245591434, 9.381161343653102e-06, -1.0944568730295498e-08, 4.263226681310494e-12, -12570867.748418592, 0.20527791605978205]}, {"name": "polynomial2", "class": "NASAPolynomial", "Tmin_value": 646.7203553713655, "Tmin_units": "K", "Tmax_value": 3000.0, "Tmax_units": "K", "coeffs": [3.248866098970518, 0.005018804340448625, -1.2675848901857236e-06, 3.217377375238862e-11, 2.0161118764292792e-14, -12570771.724716634, 3.463215163005695]}]

>  <H298_value>  (2) 
-24978.383291331436

>  <H298_units>  (2) 
kcal/mol

>  <S298_value>  (2) 
46.49953999396709

>  <S298_units>  (2) 
cal/(mol*K)

>  <Cp_T_value_list>  (2) 
[9.345423162731361, 10.078868413381327, 10.827536013517006, 11.552427901534797, 12.871903981775521, 14.014615749320948, 16.16723397123992, 17.479673679466153, 18.096248257600084]

>  <Cp_T_units>  (2) 
cal/(mol*K)

>  <T_list>  (2) 
[300.0, 400.0, 500.0, 600.0, 800.0, 1000.0, 1500.0, 2000.0, 2400.0]

>  <T_units>  (2) 
K

>  <yaml_path>  (2) 
/home/calvin/Dropbox/PersonalFolders/Calvin/ZEUS_Converged/rmg_rxn_15469/output/Species/rmg_rxn_15469_p2_sbr-CH3-sbr/rmg_rxn_15469_p2_sbr-CH3-sbr.yml

>  <frequencies_cm1>  (2) 
[520.22220688724, 1393.4280601784399, 1393.43492716376, 3088.8592677451597, 3268.6163424668, 3268.6232094521197]

>  <ZPE_kJmol>  (2) 
77.35764153782172

>  <E_elec_kJmol>  (2) 
-104597.4888365947

>  <E0_minus_Eelec_plus_ZPE_kJmol>  (2) 
0.0

>  <rxn>  (2) 
rmg_rxn_15469

>  <species_type>  (2) 
p1

>  <species_folder>  (2) 
rmg_rxn_15469_p2_sbr-CH3-sbr

>  <frequencies_cm1_list>  (2) 
[520.22220688724, 1393.4280601784399, 1393.43492716376, 3088.8592677451597, 3268.6163424668, 3268.6232094521197]

>  <E0_kJmol>  (2) 
-104520

>  <H298_kJmol>  (2) 
-104510

$$$$

     RDKit          3D

  9  7  0  0  0  0  0  0  0  0999 V2000
    0.0110    2.2941   -0.3710 C   0  0  0  0  0  2  0  0  0  1  0  0
   -0.1599    3.2418    0.1228 H   0  0  0  0  0  0  0  0  0  2  0  0
    0.2640    2.1648   -1.4140 H   0  0  0  0  0  0  0  0  0  3  0  0
    0.3099   -0.9817   -0.8366 O   0  0  0  0  0  0  0  0  0  4  0  0
   -0.0033   -1.0521    0.5109 N   0  0  0  0  0  0  0  0  0  5  0  0
   -0.1942    0.0589    1.0490 C   0  0  0  0  0  0  0  0  0  6  0  0
    0.4210   -1.9025   -1.0829 H   0  0  0  0  0  0  0  0  0  7  0  0
   -0.0985    1.1659    0.3713 H   0  0  0  0  0  0  0  0  0  8  0  0
   -0.4450    0.1066    2.1029 H   0  0  0  0  0  0  0  0  0  9  0  0
  1  3  1  0
  1  2  1  0
  4  5  1  0
  4  7  1  0
  5  6  1  0
  6  8  1  0
  6  9  1  0
M  RAD  1   1   3
M  END
>  <rmg_smiles>  (3) 
[CH2][N]O.[CH2]

>  <rmg_adjacency_list>  (3) 
multiplicity 3
1 O u0 p2 c0 {2,S} {7,S}
2 N u0 p1 c0 {1,S} {3,S}
3 C u0 p0 c0 {2,S} {5,S} {6,S}
4 C u2 p1 c0 {8,S} {9,S}
5 H u0 p0 c0 {3,S}
6 H u0 p0 c0 {3,S}
7 H u0 p0 c0 {1,S}
8 H u0 p0 c0 {4,S}
9 H u0 p0 c0 {4,S}


>  <multiplicity>  (3) 
3

>  <reaction>  (3) 
rmg_rxn_15469

>  <type>  (3) 
ts

>  <role_mapnums>  (3) 
{"*2": 8, "*1": 6, "*3": 1, "*0": 5, "*4": 2}

>  <role_mapidx>  (3) 
{"*2": 7, "*1": 5, "*3": 0, "*0": 4, "*4": 1}

>  <ordered_mapped_smiles>  (3) 
[C:1]([H:2])[H:3].[O:4]([NH:5][CH:6]([H:8])[H:9])[H:7]

>  <mol_properties>  (3) 
{"0": {"label": "*3", "atom_type": "C2s"}, "1": {"label": "*4", "atom_type": "H0"}, "4": {"label": "*0", "atom_type": "N3s"}, "5": {"label": "*1", "atom_type": "Cs"}, "7": {"label": "*2", "atom_type": "H0"}}

>  <level_of_theory>  (3) 
wb97xd/def2tzvp

>  <lot_method>  (3) 
wb97xd

>  <lot_basis>  (3) 
def2tzvp

>  <spin_multiplicity>  (3) 
3.0

>  <optical_isomers>  (3) 
1.0

>  <modes>  (3) 
IdealGasTranslation(mass=(59.0371, 'amu')),         NonlinearRotor(             inertia = ([39.3535, 114.783, 154.136

>  <frequency_value>  (3) 
-1575.46

>  <frequency_units>  (3) 
cm^-1

>  <frequency_list>  (3) 
unknown

>  <arkane_path>  (3) 
/home/calvin/Dropbox/PersonalFolders/Calvin/ZEUS_Converged/rmg_rxn_15469/output/rxns/TS0/arkane/output.py

>  <path_exists>  (3) 
True

>  <E0_value>  (3) 
-548484.0

>  <E0_units>  (3) 
kJ/mol

>  <thermo_class>  (3) 
unknown

>  <Cp0_value>  (3) 
unknown

>  <Cp0_units>  (3) 
unknown

>  <CpInf_value>  (3) 
unknown

>  <CpInf_units>  (3) 
unknown

>  <Tmin_value>  (3) 
unknown

>  <Tmin_units>  (3) 
unknown

>  <Tmax_value>  (3) 
unknown

>  <Tmax_units>  (3) 
unknown

>  <polynomials>  (3) 
unknown

>  <H298_value>  (3) 
unknown

>  <H298_units>  (3) 
unknown

>  <S298_value>  (3) 
unknown

>  <S298_units>  (3) 
unknown

>  <Cp_T_value_list>  (3) 
unknown

>  <Cp_T_units>  (3) 
unknown

>  <T_list>  (3) 
unknown

>  <T_units>  (3) 
unknown

>  <yaml_path>  (3) 
unknown

>  <frequencies_cm1>  (3) 
unknown

>  <ZPE_kJmol>  (3) 
unknown

>  <E_elec_kJmol>  (3) 
unknown

>  <E0_minus_Eelec_plus_ZPE_kJmol>  (3) 
unknown

>  <rxn>  (3) 
unknown

>  <species_type>  (3) 
unknown

>  <species_folder>  (3) 
unknown

>  <frequencies_cm1_list>  (3) 
[]

>  <ts_imag_freq_cm1>  (3) 
-1594.5932

>  <ts_freq_out_path>  (3) 
/home/calvin/Dropbox/PersonalFolders/Calvin/ZEUS_Converged/rmg_rxn_15469/output/rxns/TS0/geometry/freq.out

>  <E0_kJmol>  (3) 
-548484

>  <H298_kJmol>  (3) 
unknown

$$$$

     RDKit          3D

  5  4  0  0  0  0  0  0  0  0999 V2000
    0.8934    0.3742    0.4948 O   0  0  0  0  0  0  0  0  0  1  0  0
    0.1582   -0.1610   -0.5904 N   0  0  0  0  0  0  0  0  0  2  0  0
   -1.0297   -0.3739   -0.4689 C   0  0  0  0  0  3  0  0  0  3  0  0
    1.7804    0.4382    0.1306 H   0  0  0  0  0  0  0  0  0  4  0  0
   -1.8023   -0.2775    0.2859 H   0  0  0  0  0  0  0  0  0  5  0  0
  1  4  1  0
  1  2  1  0
  2  3  1  0
  3  5  1  0
M  RAD  1   3   2
M  END
>  <rmg_smiles>  (4) 
[CH][N]O

>  <rmg_adjacency_list>  (4) 
multiplicity 2
1 O u0 p2 c0 {2,S} {4,S}
2 N u0 p1 c0 {1,S} {3,S}
3 C u1 p1 c0 {2,S} {5,S}
4 H u0 p0 c0 {1,S}
5 H u0 p0 c0 {3,S}


>  <multiplicity>  (4) 
2

>  <reaction>  (4) 
rmg_rxn_15469

>  <type>  (4) 
r1

>  <role_mapnums>  (4) 
{}

>  <role_mapidx>  (4) 
{}

>  <ordered_mapped_smiles>  (4) 
[O:1]([NH:2][CH:3][H:5])[H:4]

>  <level_of_theory>  (4) 
wb97xd/def2tzvp

>  <lot_method>  (4) 
wb97xd

>  <lot_basis>  (4) 
def2tzvp

>  <spin_multiplicity>  (4) 
2.0

>  <optical_isomers>  (4) 
1.0

>  <modes>  (4) 
IdealGasTranslation(mass=(44.0136, 'amu')),         NonlinearRotor(inertia=([5.8161, 41.482, 47.298

>  <frequency_value>  (4) 
unknown

>  <frequency_units>  (4) 
unknown

>  <frequency_list>  (4) 
unknown

>  <arkane_path>  (4) 
/home/calvin/Dropbox/PersonalFolders/Calvin/ZEUS_Converged/rmg_rxn_15469/output/Species/rmg_rxn_15469_p1_ON=sbr-CH-sbr/arkane/output.py

>  <path_exists>  (4) 
True

>  <E0_value>  (4) 
-444005.3444875403

>  <E0_units>  (4) 
kJ/mol

>  <thermo_class>  (4) 
NASA

>  <Cp0_value>  (4) 
33.257888

>  <Cp0_units>  (4) 
J/(mol*K)

>  <CpInf_value>  (4) 
108.088136

>  <CpInf_units>  (4) 
J/(mol*K)

>  <Tmin_value>  (4) 
10.0

>  <Tmin_units>  (4) 
K

>  <Tmax_value>  (4) 
3000.0

>  <Tmax_units>  (4) 
K

>  <polynomials>  (4) 
[{"name": "polynomial1", "class": "NASAPolynomial", "Tmin_value": 10.0, "Tmin_units": "K", "Tmax_value": 582.3897944984312, "Tmax_units": "K", "coeffs": [3.9652725251487997, 0.0020023225588121428, 4.0599056262928875e-05, -7.75899274364692e-08, 4.4513181050887496e-11, -53401506.385814846, 6.827044892789236]}, {"name": "polynomial2", "class": "NASAPolynomial", "Tmin_value": 582.3897944984312, "Tmin_units": "K", "Tmax_value": 3000.0, "Tmax_units": "K", "coeffs": [3.5772944330084147, 0.012861032030441071, -8.472942585347425e-06, 2.741567682664952e-09, -3.4073253039207466e-13, -53401600.15572128, 7.296045717872725]}]

>  <H298_value>  (4) 
-106116.8465159924

>  <H298_units>  (4) 
kcal/mol

>  <S298_value>  (4) 
62.04111940413777

>  <S298_units>  (4) 
cal/(mol*K)

>  <Cp_T_value_list>  (4) 
[12.888053758950505, 14.776534941782554, 16.29416082392464, 17.47087173516364, 19.290917222749155, 20.599817847495114, 22.5201252902908, 23.62472390428687, 24.312211768096834]

>  <Cp_T_units>  (4) 
cal/(mol*K)

>  <T_list>  (4) 
[300.0, 400.0, 500.0, 600.0, 800.0, 1000.0, 1500.0, 2000.0, 2400.0]

>  <T_units>  (4) 
K

>  <yaml_path>  (4) 
/home/calvin/Dropbox/PersonalFolders/Calvin/ZEUS_Converged/rmg_rxn_15469/output/Species/rmg_rxn_15469_p1_ON=sbr-CH-sbr/rmg_rxn_15469_p1_ON=sbr-CH-sbr.yml

>  <frequencies_cm1>  (4) 
[408.41395190699996, 412.06718809724, 739.15543285948, 761.7272136063199, 904.39570061464, 1348.7789216278, 1755.3113195571198, 3153.319658944, 3818.4558570392]

>  <ZPE_kJmol>  (4) 
79.5614101222066

>  <E_elec_kJmol>  (4) 
-444084.9058976625

>  <E0_minus_Eelec_plus_ZPE_kJmol>  (4) 
0.0

>  <rxn>  (4) 
rmg_rxn_15469

>  <species_type>  (4) 
p0

>  <species_folder>  (4) 
rmg_rxn_15469_p1_ON=sbr-CH-sbr

>  <frequencies_cm1_list>  (4) 
[408.41395190699996, 412.06718809724, 739.15543285948, 761.7272136063199, 904.39570061464, 1348.7789216278, 1755.3113195571198, 3153.319658944, 3818.4558570392]

>  <E0_kJmol>  (4) 
-444005

>  <H298_kJmol>  (4) 
-443993

$$$$

     RDKit          3D

  3  2  0  0  0  0  0  0  0  0999 V2000
    0.0000    0.0000    0.1037 C   0  0  0  0  0  2  0  0  0  1  0  0
    0.0000    0.9954   -0.3147 H   0  0  0  0  0  0  0  0  0  2  0  0
    0.0000   -0.9954   -0.3147 H   0  0  0  0  0  0  0  0  0  3  0  0
  1  3  1  0
  1  2  1  0
M  RAD  1   1   3
M  END
>  <rmg_smiles>  (5) 
[CH2]

>  <rmg_adjacency_list>  (5) 
multiplicity 3
1 C u2 p1 c0 {2,S} {3,S}
2 H u0 p0 c0 {1,S}
3 H u0 p0 c0 {1,S}


>  <multiplicity>  (5) 
3

>  <reaction>  (5) 
rmg_rxn_15469

>  <type>  (5) 
r2

>  <role_mapnums>  (5) 
{}

>  <role_mapidx>  (5) 
{}

>  <ordered_mapped_smiles>  (5) 
[C:1]([H:2])[H:3]

>  <level_of_theory>  (5) 
wb97xd/def2tzvp

>  <lot_method>  (5) 
wb97xd

>  <lot_basis>  (5) 
def2tzvp

>  <spin_multiplicity>  (5) 
3.0

>  <optical_isomers>  (5) 
1.0

>  <modes>  (5) 
IdealGasTranslation(mass=(14.0157, 'amu')),         NonlinearRotor(             inertia = ([0.302189, 1.99708, 2.29927

>  <frequency_value>  (5) 
unknown

>  <frequency_units>  (5) 
unknown

>  <frequency_list>  (5) 
unknown

>  <arkane_path>  (5) 
/home/calvin/Dropbox/PersonalFolders/Calvin/ZEUS_Converged/rmg_rxn_15469/output/Species/rmg_rxn_15469_r1_sbr-CH2-sbr/arkane/output.py

>  <path_exists>  (5) 
True

>  <E0_value>  (5) 
-102746.36040970392

>  <E0_units>  (5) 
kJ/mol

>  <thermo_class>  (5) 
NASA

>  <Cp0_value>  (5) 
33.257888

>  <Cp0_units>  (5) 
J/(mol*K)

>  <CpInf_value>  (5) 
58.201304

>  <CpInf_units>  (5) 
J/(mol*K)

>  <Tmin_value>  (5) 
10.0

>  <Tmin_units>  (5) 
K

>  <Tmax_value>  (5) 
3000.0

>  <Tmax_units>  (5) 
K

>  <polynomials>  (5) 
[{"name": "polynomial1", "class": "NASAPolynomial", "Tmin_value": 10.0, "Tmin_units": "K", "Tmax_value": 961.1581000805877, "Tmax_units": "K", "coeffs": [4.003566917143506, -0.00017627429480573579, 3.242344604853958e-06, -2.3236127081330425e-09, 5.264711056235489e-13, -12357532.895911839, 0.5988314886089361]}, {"name": "polynomial2", "class": "NASAPolynomial", "Tmin_value": 961.1581000805877, "Tmin_units": "K", "Tmax_value": 3000.0, "Tmax_units": "K", "coeffs": [3.2359517813886813, 0.0026827132376341053, -6.957677865303124e-07, 4.466867865026857e-11, 4.9498115714355844e-15, -12357369.83630226, 4.352351051716707]}]

>  <H298_value>  (5) 
-24554.56617285692

>  <H298_units>  (5) 
kcal/mol

>  <S298_value>  (5) 
46.65862348821438

>  <S298_units>  (5) 
cal/(mol*K)

>  <Cp_T_value_list>  (5) 
[8.314516743891101, 8.577973163559282, 8.879770202057246, 9.203501903188686, 9.863699950210737, 10.47757752057046, 11.665616222871414, 12.429685587170741, 12.814627872102108]

>  <Cp_T_units>  (5) 
cal/(mol*K)

>  <T_list>  (5) 
[300.0, 400.0, 500.0, 600.0, 800.0, 1000.0, 1500.0, 2000.0, 2400.0]

>  <T_units>  (5) 
K

>  <yaml_path>  (5) 
/home/calvin/Dropbox/PersonalFolders/Calvin/ZEUS_Converged/rmg_rxn_15469/output/Species/rmg_rxn_15469_r1_sbr-CH2-sbr/rmg_rxn_15469_r1_sbr-CH2-sbr.yml

>  <frequencies_cm1>  (5) 
[1058.90973729996, 3101.0619006588, 3329.06641423876]

>  <ZPE_kJmol>  (5) 
44.79440797275059

>  <E_elec_kJmol>  (5) 
-102791.15481767668

>  <E0_minus_Eelec_plus_ZPE_kJmol>  (5) 
0.0

>  <rxn>  (5) 
rmg_rxn_15469

>  <species_type>  (5) 
r0

>  <species_folder>  (5) 
rmg_rxn_15469_r1_sbr-CH2-sbr

>  <frequencies_cm1_list>  (5) 
[1058.90973729996, 3101.0619006588, 3329.06641423876]

>  <E0_kJmol>  (5) 
-102746

>  <H298_kJmol>  (5) 
-102736

$$$$
