
     RDKit          3D

 21 21  0  0  0  0  0  0  0  0999 V2000
   -1.0515   -0.4071   -3.5985 C   0  0  0  0  0  0  0  0  0  1  0  0
   -0.8272   -0.9164   -2.2102 C   0  0  0  0  0  0  0  0  0  2  0  0
   -0.3214   -0.2023   -1.2150 C   0  0  0  0  0  0  0  0  0  3  0  0
   -0.0990   -0.7026    0.1941 C   0  0  0  0  0  0  0  0  0  4  0  0
   -1.0058    0.0319    1.1466 C   0  0  0  0  0  0  0  0  0  5  0  0
   -0.5679    0.9517    2.0025 C   0  0  0  0  0  0  0  0  0  6  0  0
    0.8515    1.3329    2.0888 C   0  0  0  0  0  0  0  0  0  7  0  0
    1.7704    0.3801    1.4408 C   0  0  0  0  0  0  0  0  0  8  0  0
    1.3481   -0.5420    0.5792 C   0  0  0  0  0  0  0  0  0  9  0  0
   -0.4947   -0.9997   -4.3290 H   0  0  0  0  0  0  0  0  0 10  0  0
   -2.1069   -0.4733   -3.8764 H   0  0  0  0  0  0  0  0  0 11  0  0
   -0.7355    0.6328   -3.6950 H   0  0  0  0  0  0  0  0  0 12  0  0
   -1.1051   -1.9519   -2.0241 H   0  0  0  0  0  0  0  0  0 13  0  0
   -0.0345    0.8342   -1.3779 H   0  0  0  0  0  0  0  0  0 14  0  0
   -0.3559   -1.7684    0.2074 H   0  0  0  0  0  0  0  0  0 15  0  0
   -2.0633   -0.1997    1.0844 H   0  0  0  0  0  0  0  0  0 16  0  0
   -1.2721    1.4744    2.6396 H   0  0  0  0  0  0  0  0  0 17  0  0
    0.9418    2.2607    1.5240 H   0  0  0  0  0  0  0  0  0 18  0  0
    1.1682    1.6551    3.0807 H   0  0  0  0  0  0  0  0  0 19  0  0
    2.8283    0.4631    1.6647 H   0  0  0  0  0  0  0  0  0 20  0  0
    2.0564   -1.2072    0.0980 H   0  0  0  0  0  0  0  0  0 21  0  0
  1 11  1  0
  1 10  1  0
  1 12  1  0
  1  2  1  0
  2 13  1  0
  2  3  1  0
  3  4  1  0
  3 14  1  0
  4  9  1  0
  4  5  1  0
  4 15  1  0
  5 16  1  0
  5  6  1  0
  6  7  1  0
  6 17  1  0
  7 18  1  0
  7 19  1  0
  7  8  1  0
  8 20  1  0
  8  9  1  0
  9 21  1  0
M  END
>  <rmg_smiles>  (1) 
C[CH][CH]C1[CH][CH]C[CH][CH]1

>  <rmg_adjacency_list>  (1) 
1  C u0 p0 c0 {4,S} {5,S} {6,S} {10,S}
2  C u0 p0 c0 {7,S} {8,S} {11,S} {12,S}
3  C u0 p0 c0 {9,S} {13,S} {14,S} {15,S}
4  C u0 p0 c0 {1,S} {9,S} {17,S}
5  C u0 p0 c0 {1,S} {7,S} {18,S}
6  C u0 p0 c0 {1,S} {8,S} {21,S}
7  C u0 p0 c0 {2,S} {5,S} {19,S}
8  C u0 p0 c0 {2,S} {6,S} {20,S}
9  C u0 p0 c0 {3,S} {4,S} {16,S}
10 H u0 p0 c0 {1,S}
11 H u0 p0 c0 {2,S}
12 H u0 p0 c0 {2,S}
13 H u0 p0 c0 {3,S}
14 H u0 p0 c0 {3,S}
15 H u0 p0 c0 {3,S}
16 H u0 p0 c0 {9,S}
17 H u0 p0 c0 {4,S}
18 H u0 p0 c0 {5,S}
19 H u0 p0 c0 {7,S}
20 H u0 p0 c0 {8,S}
21 H u0 p0 c0 {6,S}


>  <multiplicity>  (1) 
1

>  <reaction>  (1) 
rmg_rxn_15724

>  <type>  (1) 
r1h

>  <role_mapnums>  (1) 
{"r1h_a": 7, "r1h_h": 18}

>  <role_mapidx>  (1) 
{"r1h_a": 6, "r1h_h": 17}

>  <ordered_mapped_smiles>  (1) 
[C:1]([CH:2]([CH:3]([C:4]1([H:15])[CH:5]([H:16])[CH:6]([H:17])[C:7]([H:18])([H:19])[CH:8]([H:20])[CH:9]1[H:21])[H:14])[H:13])([H:10])([H:11])[H:12]

>  <mol_properties>  (1) 
{"6": {"label": "donator", "atom_type": "Cs"}, "17": {"label": "d_hydrogen", "atom_type": "H0"}}

>  <level_of_theory>  (1) 
wb97xd/def2tzvp

>  <lot_method>  (1) 
wb97xd

>  <lot_basis>  (1) 
def2tzvp

>  <spin_multiplicity>  (1) 
1.0

>  <optical_isomers>  (1) 
1.0

>  <modes>  (1) 
IdealGasTranslation(mass=(120.094, 'amu')),         NonlinearRotor(             inertia = ([123.061, 594.151, 661.976

>  <frequency_value>  (1) 
unknown

>  <frequency_units>  (1) 
unknown

>  <frequency_list>  (1) 
unknown

>  <arkane_path>  (1) 
/home/calvin/Dropbox/PersonalFolders/Calvin/ZEUS_Converged/rmg_rxn_15724/output/Species/rmg_rxn_15724_r2_CC=CC1C=CCC=C1/arkane/output.py

>  <path_exists>  (1) 
True

>  <E0_value>  (1) 
-918815.1491199776

>  <E0_units>  (1) 
kJ/mol

>  <thermo_class>  (1) 
NASA

>  <Cp0_value>  (1) 
33.257888

>  <Cp0_units>  (1) 
J/(mol*K)

>  <CpInf_value>  (1) 
507.182792

>  <CpInf_units>  (1) 
J/(mol*K)

>  <Tmin_value>  (1) 
10.0

>  <Tmin_units>  (1) 
K

>  <Tmax_value>  (1) 
3000.0

>  <Tmax_units>  (1) 
K

>  <polynomials>  (1) 
[{"name": "polynomial1", "class": "NASAPolynomial", "Tmin_value": 10.0, "Tmin_units": "K", "Tmax_value": 904.2082535681382, "Tmax_units": "K", "coeffs": [3.783941371235494, 0.036158748326956876, 7.158189984320699e-05, -1.0970862159952097e-07, 4.273169344823415e-11, -110507946.01098421, 12.411767771223321]}, {"name": "polynomial2", "class": "NASAPolynomial", "Tmin_value": 904.2082535681382, "Tmin_units": "K", "Tmax_value": 3000.0, "Tmax_units": "K", "coeffs": [2.783498004856784, 0.07187197511777559, -3.956627698485732e-05, 1.0508027206676564e-08, -1.0868885608360377e-12, -110509044.11076085, 10.064983242123468]}]

>  <H298_value>  (1) 
-219595.812528414

>  <H298_units>  (1) 
kcal/mol

>  <S298_value>  (1) 
93.47701691987088

>  <S298_units>  (1) 
cal/(mol*K)

>  <Cp_T_value_list>  (1) 
[36.67972005800734, 47.24210705134937, 57.06450987472516, 65.75594676119943, 79.20099604390846, 88.45122664172986, 102.39986857301561, 109.16985393620895, 112.43037505074487]

>  <Cp_T_units>  (1) 
cal/(mol*K)

>  <T_list>  (1) 
[300.0, 400.0, 500.0, 600.0, 800.0, 1000.0, 1500.0, 2000.0, 2400.0]

>  <T_units>  (1) 
K

>  <yaml_path>  (1) 
/home/calvin/Dropbox/PersonalFolders/Calvin/ZEUS_Converged/rmg_rxn_15724/output/Species/rmg_rxn_15724_r2_CC=CC1C=CCC=C1/rmg_rxn_15724_r2_CC=CC1C=CCC=C1.yml

>  <frequencies_cm1>  (1) 
[55.98653131395999, 67.124781503, 148.98611350272, 198.39407288012, 208.63274799223998, 304.22805063196, 329.83503889024, 382.43614644144, 468.03998544056003, 529.3758983188, 579.4430882869199, 580.31519542256, 713.1707604085999, 742.5614575781999, 820.0828548556799, 871.71571747676, 901.7862461930399, 937.29542728276, 967.7848421035599, 973.31276528616, 974.2398083043599, 1002.62792561724, 1012.5919213165599, 1024.5954116559199, 1066.0033331355198, 1078.4875124472799, 1094.3159136098798, 1137.50238428736, 1180.8811305538002, 1217.7705756928399, 1222.495061593, 1239.9715392324, 1320.96076409648, 1336.0337968738797, 1346.4372796336797, 1369.53781825016, 1400.45985314612, 1403.3096520539198, 1429.76127950656, 1457.92278630388, 1466.2387055263998, 1478.42073748408, 1711.2596087293202, 1738.60394427356, 1758.2366553034399, 2981.3703465311996, 2986.58238838908, 3004.6494267659996, 3006.7644582445596, 3063.8428402244, 3089.77944377804, 3106.1434697956, 3110.3117298848397, 3128.9899299552394, 3129.7109634138396, 3151.3007652599204, 3153.74541203384]

>  <ZPE_kJmol>  (1) 
479.4775544268984

>  <E_elec_kJmol>  (1) 
-919294.6266744044

>  <E0_minus_Eelec_plus_ZPE_kJmol>  (1) 
0.0

>  <rxn>  (1) 
rmg_rxn_15724

>  <species_type>  (1) 
r1

>  <species_folder>  (1) 
rmg_rxn_15724_r2_CC=CC1C=CCC=C1

>  <frequencies_cm1_list>  (1) 
[55.98653131395999, 67.124781503, 148.98611350272, 198.39407288012, 208.63274799223998, 304.22805063196, 329.83503889024, 382.43614644144, 468.03998544056003, 529.3758983188, 579.4430882869199, 580.31519542256, 713.1707604085999, 742.5614575781999, 820.0828548556799, 871.71571747676, 901.7862461930399, 937.29542728276, 967.7848421035599, 973.31276528616, 974.2398083043599, 1002.62792561724, 1012.5919213165599, 1024.5954116559199, 1066.0033331355198, 1078.4875124472799, 1094.3159136098798, 1137.50238428736, 1180.8811305538002, 1217.7705756928399, 1222.495061593, 1239.9715392324, 1320.96076409648, 1336.0337968738797, 1346.4372796336797, 1369.53781825016, 1400.45985314612, 1403.3096520539198, 1429.76127950656, 1457.92278630388, 1466.2387055263998, 1478.42073748408, 1711.2596087293202, 1738.60394427356, 1758.2366553034399, 2981.3703465311996, 2986.58238838908, 3004.6494267659996, 3006.7644582445596, 3063.8428402244, 3089.77944377804, 3106.1434697956, 3110.3117298848397, 3128.9899299552394, 3129.7109634138396, 3151.3007652599204, 3153.74541203384]

>  <E0_kJmol>  (1) 
-918815

>  <H298_kJmol>  (1) 
-918789

$$$$

     RDKit          3D

  9  8  0  0  0  0  0  0  0  0999 V2000
    1.5240    0.1644    0.6761 C   0  0  0  0  0  0  0  0  0  1  0  0
    0.5702   -0.1325   -0.2698 O   0  0  0  0  0  0  0  0  0  2  0  0
   -0.6923    0.2421    0.1542 N   0  0  0  0  0  0  0  0  0  3  0  0
   -1.5892   -0.2195   -0.6058 C   0  0  0  0  0  0  0  0  0  4  0  0
    2.5092    0.1109    0.2233 H   0  0  0  0  0  0  0  0  0  5  0  0
    1.3015    1.0501    1.2663 H   0  0  0  0  0  0  0  0  0  6  0  0
   -2.6092    0.0421   -0.3578 H   0  0  0  0  0  0  0  0  0  7  0  0
   -1.3702   -0.8540   -1.4609 H   0  0  0  0  0  0  0  0  0  8  0  0
    1.5168   -0.6622    1.3811 H   0  0  0  0  0  0  0  0  0  9  0  0
  1  5  1  0
  1  9  1  0
  1  2  1  0
  1  6  1  0
  2  3  1  0
  3  4  1  0
  4  8  1  0
  4  7  1  0
M  END
>  <rmg_smiles>  (2) 
CO[N][CH2]

>  <rmg_adjacency_list>  (2) 
1 O u0 p2 c0 {2,S} {3,S}
2 N u0 p1 c0 {1,S} {4,S}
3 C u0 p0 c0 {1,S} {5,S} {6,S} {7,S}
4 C u0 p0 c0 {2,S} {8,S} {9,S}
5 H u0 p0 c0 {3,S}
6 H u0 p0 c0 {3,S}
7 H u0 p0 c0 {3,S}
8 H u0 p0 c0 {4,S}
9 H u0 p0 c0 {4,S}


>  <multiplicity>  (2) 
1

>  <reaction>  (2) 
rmg_rxn_15724

>  <type>  (2) 
r2h

>  <role_mapnums>  (2) 
{"r2h_a": 1, "r2h_h": 9}

>  <role_mapidx>  (2) 
{"r2h_a": 0, "r2h_h": 8}

>  <ordered_mapped_smiles>  (2) 
[C:1]([O:2][NH:3][CH:4]([H:7])[H:8])([H:5])([H:6])[H:9]

>  <mol_properties>  (2) 
{"0": {"label": "acceptor", "atom_type": "Cs"}, "8": {"label": "a_hydrogen", "atom_type": "H0"}}

>  <level_of_theory>  (2) 
wb97xd/def2tzvp

>  <lot_method>  (2) 
wb97xd

>  <lot_basis>  (2) 
def2tzvp

>  <spin_multiplicity>  (2) 
1.0

>  <optical_isomers>  (2) 
1.0

>  <modes>  (2) 
IdealGasTranslation(mass=(59.0371, 'amu')),         NonlinearRotor(             inertia = ([11.9742, 101.538, 110.304

>  <frequency_value>  (2) 
unknown

>  <frequency_units>  (2) 
unknown

>  <frequency_list>  (2) 
unknown

>  <arkane_path>  (2) 
/home/calvin/Dropbox/PersonalFolders/Calvin/ZEUS_Converged/rmg_rxn_15724/output/Species/rmg_rxn_15724_p1_CON=C/arkane/output.py

>  <path_exists>  (2) 
True

>  <E0_value>  (2) 
-548882.9200394232

>  <E0_units>  (2) 
kJ/mol

>  <thermo_class>  (2) 
NASA

>  <Cp0_value>  (2) 
33.257888

>  <Cp0_units>  (2) 
J/(mol*K)

>  <CpInf_value>  (2) 
207.8618

>  <CpInf_units>  (2) 
J/(mol*K)

>  <Tmin_value>  (2) 
10.0

>  <Tmin_units>  (2) 
K

>  <Tmax_value>  (2) 
3000.0

>  <Tmax_units>  (2) 
K

>  <polynomials>  (2) 
[{"name": "polynomial1", "class": "NASAPolynomial", "Tmin_value": 10.0, "Tmin_units": "K", "Tmax_value": 1066.0445442103917, "Tmax_units": "K", "coeffs": [3.9488472240731216, 0.012909444164008412, 1.8432835387873368e-05, -2.5565901414715004e-08, 8.632634293818456e-12, -66015370.98001154, 7.906058800048573]}, {"name": "polynomial2", "class": "NASAPolynomial", "Tmin_value": 1066.0445442103917, "Tmin_units": "K", "Tmax_value": 3000.0, "Tmax_units": "K", "coeffs": [4.051174026649639, 0.02340322367340144, -1.163838712217072e-05, 2.8112466199843713e-09, -2.6680947262736413e-13, -66016010.897278614, 4.506810904924114]}]

>  <H298_value>  (2) 
-131182.46582067996

>  <H298_units>  (2) 
kcal/mol

>  <S298_value>  (2) 
69.27397375028742

>  <S298_units>  (2) 
cal/(mol*K)

>  <Cp_T_value_list>  (2) 
[17.607207323409234, 21.157104611048137, 24.5530891366924, 27.67560467885903, 32.827861850696166, 36.480858050170255, 41.94371504002133, 44.76201379304356, 46.08804102499818]

>  <Cp_T_units>  (2) 
cal/(mol*K)

>  <T_list>  (2) 
[300.0, 400.0, 500.0, 600.0, 800.0, 1000.0, 1500.0, 2000.0, 2400.0]

>  <T_units>  (2) 
K

>  <yaml_path>  (2) 
/home/calvin/Dropbox/PersonalFolders/Calvin/ZEUS_Converged/rmg_rxn_15724/output/Species/rmg_rxn_15724_p1_CON=C/rmg_rxn_15724_p1_CON=C.yml

>  <frequencies_cm1>  (2) 
[119.61601728907998, 180.59484693068, 346.29520270228, 574.9726808436, 796.6046320465999, 891.08061607916, 982.9746136314, 1126.32979917172, 1169.7222794088, 1171.7686410341598, 1237.71230106212, 1418.12173938916, 1456.2266409298397, 1467.4060930307999, 1493.1160860688801, 1708.0183916582798, 3005.45973103376, 3077.28153049564, 3083.54422110748, 3121.53925088304, 3213.405780494]

>  <ZPE_kJmol>  (2) 
189.2599943319938

>  <E_elec_kJmol>  (2) 
-549072.1800337551

>  <E0_minus_Eelec_plus_ZPE_kJmol>  (2) 
0.0

>  <rxn>  (2) 
rmg_rxn_15724

>  <species_type>  (2) 
p0

>  <species_folder>  (2) 
rmg_rxn_15724_p1_CON=C

>  <frequencies_cm1_list>  (2) 
[119.61601728907998, 180.59484693068, 346.29520270228, 574.9726808436, 796.6046320465999, 891.08061607916, 982.9746136314, 1126.32979917172, 1169.7222794088, 1171.7686410341598, 1237.71230106212, 1418.12173938916, 1456.2266409298397, 1467.4060930307999, 1493.1160860688801, 1708.0183916582798, 3005.45973103376, 3077.28153049564, 3083.54422110748, 3121.53925088304, 3213.405780494]

>  <E0_kJmol>  (2) 
-548883

>  <H298_kJmol>  (2) 
-548867

$$$$

     RDKit          3D

 29 28  0  0  0  0  0  0  0  0999 V2000
    1.2341    2.2877    0.4663 C   0  0  0  0  0  3  0  0  0  1  0  0
    0.2803    1.9908   -0.4797 O   0  0  0  0  0  0  0  0  0  2  0  0
   -0.9823    2.3653   -0.0557 N   0  0  0  0  0  0  0  0  0  3  0  0
   -1.8792    1.9037   -0.8157 C   0  0  0  0  0  0  0  0  0  4  0  0
    2.2192    2.2342    0.0134 H   0  0  0  0  0  0  0  0  0  5  0  0
    1.0116    3.1734    1.0564 H   0  0  0  0  0  0  0  0  0  6  0  0
   -2.8992    2.1653   -0.5676 H   0  0  0  0  0  0  0  0  0  7  0  0
   -1.6602    1.2692   -1.6708 H   0  0  0  0  0  0  0  0  0  8  0  0
   -0.7843   -1.6569   -3.6057 C   0  0  0  0  0  0  0  0  0  9  0  0
   -0.5600   -2.1662   -2.2174 C   0  0  0  0  0  0  0  0  0 10  0  0
   -0.0542   -1.4521   -1.2223 C   0  0  0  0  0  0  0  0  0 11  0  0
    0.1682   -1.9524    0.1868 C   0  0  0  0  0  0  0  0  0 12  0  0
   -0.7386   -1.2179    1.1394 C   0  0  0  0  0  0  0  0  0 13  0  0
   -0.3007   -0.2981    1.9952 C   0  0  0  0  0  0  0  0  0 14  0  0
    1.1187    0.0831    2.0815 C   0  0  0  0  0  0  0  0  0 15  0  0
    2.0376   -0.8697    1.4336 C   0  0  0  0  0  0  0  0  0 16  0  0
    1.6153   -1.7918    0.5719 C   0  0  0  0  0  0  0  0  0 17  0  0
   -0.2275   -2.2495   -4.3362 H   0  0  0  0  0  0  0  0  0 18  0  0
   -1.8397   -1.7231   -3.8837 H   0  0  0  0  0  0  0  0  0 19  0  0
   -0.4683   -0.6170   -3.7023 H   0  0  0  0  0  0  0  0  0 20  0  0
   -0.8379   -3.2018   -2.0314 H   0  0  0  0  0  0  0  0  0 21  0  0
    0.2327   -0.4156   -1.3852 H   0  0  0  0  0  0  0  0  0 22  0  0
   -0.0887   -3.0182    0.2002 H   0  0  0  0  0  0  0  0  0 23  0  0
   -1.7961   -1.4495    1.0772 H   0  0  0  0  0  0  0  0  0 24  0  0
   -1.0049    0.2246    2.6323 H   0  0  0  0  0  0  0  0  0 25  0  0
    1.2243    1.1686    1.4207 H   0  0  0  0  0  0  0  0  0 26  0  0
    1.4354    0.4053    3.0734 H   0  0  0  0  0  0  0  0  0 27  0  0
    3.0955   -0.7867    1.6574 H   0  0  0  0  0  0  0  0  0 28  0  0
    2.3236   -2.4570    0.0907 H   0  0  0  0  0  0  0  0  0 29  0  0
  1  2  1  0
  1  5  1  0
  1  6  1  0
  2  3  1  0
  3  4  1  0
  4  7  1  0
  4  8  1  0
  9 18  1  0
  9 20  1  0
  9 10  1  0
  9 19  1  0
 10 21  1  0
 10 11  1  0
 11 12  1  0
 11 22  1  0
 12 17  1  0
 12 23  1  0
 12 13  1  0
 13 24  1  0
 13 14  1  0
 14 15  1  0
 14 25  1  0
 15 27  1  0
 15 16  1  0
 15 26  1  0
 16 28  1  0
 16 17  1  0
 17 29  1  0
M  RAD  1   1   2
M  END
>  <rmg_smiles>  (3) 
C[CH][CH]C1[CH][CH]C[CH][CH]1.[CH2]O[N][CH2]

>  <rmg_adjacency_list>  (3) 
multiplicity 2
1  O u0 p2 c0 {2,S} {12,S}
2  N u0 p1 c0 {1,S} {13,S}
3  C u0 p0 c0 {6,S} {7,S} {8,S} {14,S}
4  C u0 p0 c0 {9,S} {10,S} {15,S} {16,S}
5  C u0 p0 c0 {11,S} {17,S} {18,S} {19,S}
6  C u0 p0 c0 {3,S} {11,S} {21,S}
7  C u0 p0 c0 {3,S} {9,S} {22,S}
8  C u0 p0 c0 {3,S} {10,S} {25,S}
9  C u0 p0 c0 {4,S} {7,S} {23,S}
10 C u0 p0 c0 {4,S} {8,S} {24,S}
11 C u0 p0 c0 {5,S} {6,S} {20,S}
12 C u1 p0 c0 {1,S} {26,S} {27,S}
13 C u0 p0 c0 {2,S} {28,S} {29,S}
14 H u0 p0 c0 {3,S}
15 H u0 p0 c0 {4,S}
16 H u0 p0 c0 {4,S}
17 H u0 p0 c0 {5,S}
18 H u0 p0 c0 {5,S}
19 H u0 p0 c0 {5,S}
20 H u0 p0 c0 {11,S}
21 H u0 p0 c0 {6,S}
22 H u0 p0 c0 {7,S}
23 H u0 p0 c0 {9,S}
24 H u0 p0 c0 {10,S}
25 H u0 p0 c0 {8,S}
26 H u0 p0 c0 {12,S}
27 H u0 p0 c0 {12,S}
28 H u0 p0 c0 {13,S}
29 H u0 p0 c0 {13,S}


>  <multiplicity>  (3) 
2

>  <reaction>  (3) 
rmg_rxn_15724

>  <type>  (3) 
ts

>  <role_mapnums>  (3) 
{"*2": 26, "*1": 15, "*3": 1, "*0": 14, "*4": 2}

>  <role_mapidx>  (3) 
{"*2": 25, "*1": 14, "*3": 0, "*0": 13, "*4": 1}

>  <ordered_mapped_smiles>  (3) 
[C:1]([O:2][NH:3][CH:4]([H:7])[H:8])([H:5])[H:6].[C:9]([CH:10]([CH:11]([C:12]1([H:23])[CH:13]([H:24])[CH:14]([H:25])[C:15]([H:26])([H:27])[CH:16]([H:28])[CH:17]1[H:29])[H:22])[H:21])([H:18])([H:19])[H:20]

>  <mol_properties>  (3) 
{"0": {"label": "*3", "atom_type": "Cs"}, "1": {"label": "*4", "atom_type": "O2s"}, "13": {"label": "*0", "atom_type": "Cs"}, "14": {"label": "*1", "atom_type": "Cs"}, "25": {"label": "*2", "atom_type": "H0"}}

>  <level_of_theory>  (3) 
wb97xd/def2tzvp

>  <lot_method>  (3) 
wb97xd

>  <lot_basis>  (3) 
def2tzvp

>  <spin_multiplicity>  (3) 
2.0

>  <optical_isomers>  (3) 
2.0

>  <modes>  (3) 
IdealGasTranslation(mass=(178.123, 'amu')),         NonlinearRotor(             inertia = ([621.042, 754.939, 1097.58

>  <frequency_value>  (3) 
-1677.3

>  <frequency_units>  (3) 
cm^-1

>  <frequency_list>  (3) 
unknown

>  <arkane_path>  (3) 
/home/calvin/Dropbox/PersonalFolders/Calvin/ZEUS_Converged/rmg_rxn_15724/output/rxns/TS0/arkane/output.py

>  <path_exists>  (3) 
True

>  <E0_value>  (3) 
-1465950.0

>  <E0_units>  (3) 
kJ/mol

>  <thermo_class>  (3) 
unknown

>  <Cp0_value>  (3) 
unknown

>  <Cp0_units>  (3) 
unknown

>  <CpInf_value>  (3) 
unknown

>  <CpInf_units>  (3) 
unknown

>  <Tmin_value>  (3) 
unknown

>  <Tmin_units>  (3) 
unknown

>  <Tmax_value>  (3) 
unknown

>  <Tmax_units>  (3) 
unknown

>  <polynomials>  (3) 
unknown

>  <H298_value>  (3) 
unknown

>  <H298_units>  (3) 
unknown

>  <S298_value>  (3) 
unknown

>  <S298_units>  (3) 
unknown

>  <Cp_T_value_list>  (3) 
unknown

>  <Cp_T_units>  (3) 
unknown

>  <T_list>  (3) 
unknown

>  <T_units>  (3) 
unknown

>  <yaml_path>  (3) 
unknown

>  <frequencies_cm1>  (3) 
unknown

>  <ZPE_kJmol>  (3) 
unknown

>  <E_elec_kJmol>  (3) 
unknown

>  <E0_minus_Eelec_plus_ZPE_kJmol>  (3) 
unknown

>  <rxn>  (3) 
unknown

>  <species_type>  (3) 
unknown

>  <species_folder>  (3) 
unknown

>  <frequencies_cm1_list>  (3) 
[]

>  <ts_imag_freq_cm1>  (3) 
-1697.6707

>  <ts_freq_out_path>  (3) 
/home/calvin/Dropbox/PersonalFolders/Calvin/ZEUS_Converged/rmg_rxn_15724/output/rxns/TS0/geometry/freq.out

>  <E0_kJmol>  (3) 
-1.46595e+06

>  <H298_kJmol>  (3) 
unknown

$$$$

     RDKit          3D

 20 20  0  0  0  0  0  0  0  0999 V2000
    3.4966    0.0809    0.0134 C   0  0  0  0  0  0  0  0  0  1  0  0
    2.1510   -0.5658    0.0876 C   0  0  0  0  0  0  0  0  0  2  0  0
    0.9936    0.0751    0.0193 C   0  0  0  0  0  0  0  0  0  3  0  0
   -0.3683   -0.5864    0.0952 C   0  0  0  0  0  0  0  0  0  4  0  0
   -1.1263   -0.1007    1.2973 C   0  0  0  0  0  3  0  0  0  5  0  0
   -2.3297    0.5159    1.2045 C   0  0  0  0  0  0  0  0  0  6  0  0
   -2.9612    0.7154   -0.0431 C   0  0  0  0  0  0  0  0  0  7  0  0
   -2.3348    0.2483   -1.2198 C   0  0  0  0  0  0  0  0  0  8  0  0
   -1.1315   -0.3743   -1.1808 C   0  0  0  0  0  0  0  0  0  9  0  0
    4.0769   -0.1202    0.9176 H   0  0  0  0  0  0  0  0  0 10  0  0
    3.4128    1.1617   -0.1057 H   0  0  0  0  0  0  0  0  0 11  0  0
    4.0732   -0.3129   -0.8276 H   0  0  0  0  0  0  0  0  0 12  0  0
    2.1415   -1.6475    0.2071 H   0  0  0  0  0  0  0  0  0 13  0  0
    0.9777    1.1561   -0.1000 H   0  0  0  0  0  0  0  0  0 14  0  0
   -0.1789   -1.6648    0.2138 H   0  0  0  0  0  0  0  0  0 15  0  0
   -0.6548   -0.2441    2.2623 H   0  0  0  0  0  0  0  0  0 16  0  0
   -2.8226    0.8604    2.1061 H   0  0  0  0  0  0  0  0  0 17  0  0
   -3.9203    1.2118   -0.0959 H   0  0  0  0  0  0  0  0  0 18  0  0
   -2.8316    0.3880   -2.1728 H   0  0  0  0  0  0  0  0  0 19  0  0
   -0.6640   -0.7249   -2.0932 H   0  0  0  0  0  0  0  0  0 20  0  0
  1 11  1  0
  1 10  1  0
  1 12  1  0
  1  2  1  0
  2 13  1  0
  2  3  1  0
  3  4  1  0
  3 14  1  0
  4  9  1  0
  4  5  1  0
  4 15  1  0
  5 16  1  0
  5  6  1  0
  6  7  1  0
  6 17  1  0
  7 18  1  0
  7  8  1  0
  8 19  1  0
  8  9  1  0
  9 20  1  0
M  RAD  1   5   2
M  END
>  <rmg_smiles>  (4) 
C[CH][CH]C1[CH][CH][CH][CH][CH]1

>  <rmg_adjacency_list>  (4) 
multiplicity 2
1  C u0 p0 c0 {3,S} {4,S} {5,S} {10,S}
2  C u0 p0 c0 {6,S} {11,S} {12,S} {13,S}
3  C u0 p0 c0 {1,S} {6,S} {15,S}
4  C u1 p0 c0 {1,S} {7,S} {16,S}
5  C u0 p0 c0 {1,S} {8,S} {17,S}
6  C u0 p0 c0 {2,S} {3,S} {14,S}
7  C u0 p0 c0 {4,S} {9,S} {18,S}
8  C u0 p0 c0 {5,S} {9,S} {20,S}
9  C u0 p0 c0 {7,S} {8,S} {19,S}
10 H u0 p0 c0 {1,S}
11 H u0 p0 c0 {2,S}
12 H u0 p0 c0 {2,S}
13 H u0 p0 c0 {2,S}
14 H u0 p0 c0 {6,S}
15 H u0 p0 c0 {3,S}
16 H u0 p0 c0 {4,S}
17 H u0 p0 c0 {5,S}
18 H u0 p0 c0 {7,S}
19 H u0 p0 c0 {9,S}
20 H u0 p0 c0 {8,S}


>  <multiplicity>  (4) 
2

>  <reaction>  (4) 
rmg_rxn_15724

>  <type>  (4) 
r1

>  <role_mapnums>  (4) 
{}

>  <role_mapidx>  (4) 
{}

>  <ordered_mapped_smiles>  (4) 
[C:1]([CH:2]([CH:3]([C:4]1([H:15])[C:5]([H:16])[CH:6]([H:17])[CH:7]([H:18])[CH:8]([H:19])[CH:9]1[H:20])[H:14])[H:13])([H:10])([H:11])[H:12]

>  <level_of_theory>  (4) 
wb97xd/def2tzvp

>  <lot_method>  (4) 
wb97xd

>  <lot_basis>  (4) 
def2tzvp

>  <spin_multiplicity>  (4) 
2.0

>  <optical_isomers>  (4) 
1.0

>  <modes>  (4) 
IdealGasTranslation(mass=(119.086, 'amu')),         NonlinearRotor(             inertia = ([118.163, 582.663, 651.606

>  <frequency_value>  (4) 
unknown

>  <frequency_units>  (4) 
unknown

>  <frequency_list>  (4) 
unknown

>  <arkane_path>  (4) 
/home/calvin/Dropbox/PersonalFolders/Calvin/ZEUS_Converged/rmg_rxn_15724/output/Species/rmg_rxn_15724_p2_CC=CC1sbr-CH-sbrC=CC=C1/arkane/output.py

>  <path_exists>  (4) 
True

>  <E0_value>  (4) 
-917193.1107626656

>  <E0_units>  (4) 
kJ/mol

>  <thermo_class>  (4) 
NASA

>  <Cp0_value>  (4) 
33.257888

>  <Cp0_units>  (4) 
J/(mol*K)

>  <CpInf_value>  (4) 
482.239376

>  <CpInf_units>  (4) 
J/(mol*K)

>  <Tmin_value>  (4) 
10.0

>  <Tmin_units>  (4) 
K

>  <Tmax_value>  (4) 
3000.0

>  <Tmax_units>  (4) 
K

>  <polynomials>  (4) 
[{"name": "polynomial1", "class": "NASAPolynomial", "Tmin_value": 10.0, "Tmin_units": "K", "Tmax_value": 801.5006130358141, "Tmax_units": "K", "coeffs": [3.7418969876697656, 0.033027325361813485, 8.82654728294995e-05, -1.432751135922189e-07, 6.160054740955542e-11, -110312854.2309099, 13.272527699565524]}, {"name": "polynomial2", "class": "NASAPolynomial", "Tmin_value": 801.5006130358141, "Tmin_units": "K", "Tmax_value": 3000.0, "Tmax_units": "K", "coeffs": [1.7852001417896757, 0.07271357740227118, -4.2003929134704184e-05, 1.16562705280266e-08, -1.2528608958415535e-12, -110313501.64225152, 16.2840594997492]}]

>  <H298_value>  (4) 
-219208.247506362

>  <H298_units>  (4) 
kcal/mol

>  <S298_value>  (4) 
93.8147488532354

>  <S298_units>  (4) 
cal/(mol*K)

>  <Cp_T_value_list>  (4) 
[36.21589161158936, 46.6649135476274, 56.163568580793644, 64.32561377752106, 76.56385902668775, 85.24769725984068, 98.0567780717605, 104.1316640910892, 107.15915712803202]

>  <Cp_T_units>  (4) 
cal/(mol*K)

>  <T_list>  (4) 
[300.0, 400.0, 500.0, 600.0, 800.0, 1000.0, 1500.0, 2000.0, 2400.0]

>  <T_units>  (4) 
K

>  <yaml_path>  (4) 
/home/calvin/Dropbox/PersonalFolders/Calvin/ZEUS_Converged/rmg_rxn_15724/output/Species/rmg_rxn_15724_p2_CC=CC1sbr-CH-sbrC=CC=C1/rmg_rxn_15724_p2_CC=CC1sbr-CH-sbrC=CC=C1.yml

>  <frequencies_cm1>  (4) 
[61.44578464336, 67.02864370852, 151.97325211692, 208.39927049136, 233.52556977723998, 333.31660044747997, 333.44020618324, 441.65702784111994, 451.0579307442, 583.7280871265999, 588.96759692576, 614.48531437488, 674.17315077632, 749.9365998118799, 795.7256579256399, 818.3180396284399, 885.9097761331999, 933.6559250631601, 972.48872704776, 972.52306197436, 983.3042289267601, 987.8845081351999, 998.8648176618798, 1026.2640890886798, 1065.83165850252, 1087.2978546128397, 1101.27216973904, 1120.30745304608, 1166.62526902948, 1192.25972522904, 1223.010085492, 1293.9803787741998, 1317.1564542291999, 1336.3290772426399, 1338.53337953036, 1392.6658248079198, 1403.9208137474, 1445.0197208876, 1466.7949313373201, 1477.76150689336, 1543.1077391984797, 1603.5990128823598, 1736.7635922077998, 2929.43533655604, 3006.93613287756, 3064.0831847106, 3090.7064867962395, 3108.4233089218396, 3114.5349258566403, 3145.0586756040398, 3146.4320726680403, 3163.8879493514796, 3165.22701148888, 3186.34299134788]

>  <ZPE_kJmol>  (4) 
444.42106480245934

>  <E_elec_kJmol>  (4) 
-917637.531827468

>  <E0_minus_Eelec_plus_ZPE_kJmol>  (4) 
0.0

>  <rxn>  (4) 
rmg_rxn_15724

>  <species_type>  (4) 
p1

>  <species_folder>  (4) 
rmg_rxn_15724_p2_CC=CC1sbr-CH-sbrC=CC=C1

>  <frequencies_cm1_list>  (4) 
[61.44578464336, 67.02864370852, 151.97325211692, 208.39927049136, 233.52556977723998, 333.31660044747997, 333.44020618324, 441.65702784111994, 451.0579307442, 583.7280871265999, 588.96759692576, 614.48531437488, 674.17315077632, 749.9365998118799, 795.7256579256399, 818.3180396284399, 885.9097761331999, 933.6559250631601, 972.48872704776, 972.52306197436, 983.3042289267601, 987.8845081351999, 998.8648176618798, 1026.2640890886798, 1065.83165850252, 1087.2978546128397, 1101.27216973904, 1120.30745304608, 1166.62526902948, 1192.25972522904, 1223.010085492, 1293.9803787741998, 1317.1564542291999, 1336.3290772426399, 1338.53337953036, 1392.6658248079198, 1403.9208137474, 1445.0197208876, 1466.7949313373201, 1477.76150689336, 1543.1077391984797, 1603.5990128823598, 1736.7635922077998, 2929.43533655604, 3006.93613287756, 3064.0831847106, 3090.7064867962395, 3108.4233089218396, 3114.5349258566403, 3145.0586756040398, 3146.4320726680403, 3163.8879493514796, 3165.22701148888, 3186.34299134788]

>  <E0_kJmol>  (4) 
-917193

>  <H298_kJmol>  (4) 
-917167

$$$$

     RDKit          3D

  8  7  0  0  0  0  0  0  0  0999 V2000
    1.7077   -0.1964   -0.0607 C   0  0  0  0  0  3  0  0  0  1  0  0
    0.4209   -0.4565    0.2808 O   0  0  0  0  0  0  0  0  0  2  0  0
   -0.4607    0.4385   -0.2968 N   0  0  0  0  0  0  0  0  0  3  0  0
   -1.6584    0.1416   -0.0244 C   0  0  0  0  0  0  0  0  0  4  0  0
    2.4163   -0.7685    0.5170 H   0  0  0  0  0  0  0  0  0  5  0  0
    1.9214    0.7645   -0.5045 H   0  0  0  0  0  0  0  0  0  6  0  0
   -2.4185    0.7953   -0.4307 H   0  0  0  0  0  0  0  0  0  7  0  0
   -1.9286   -0.7185    0.5831 H   0  0  0  0  0  0  0  0  0  8  0  0
  1  6  1  0
  1  5  1  0
  1  2  1  0
  2  3  1  0
  3  4  1  0
  4  8  1  0
  4  7  1  0
M  RAD  1   1   2
M  END
>  <rmg_smiles>  (5) 
[CH2]O[N][CH2]

>  <rmg_adjacency_list>  (5) 
multiplicity 2
1 O u0 p2 c0 {2,S} {3,S}
2 N u0 p1 c0 {1,S} {4,S}
3 C u1 p0 c0 {1,S} {5,S} {6,S}
4 C u0 p0 c0 {2,S} {7,S} {8,S}
5 H u0 p0 c0 {3,S}
6 H u0 p0 c0 {3,S}
7 H u0 p0 c0 {4,S}
8 H u0 p0 c0 {4,S}


>  <multiplicity>  (5) 
2

>  <reaction>  (5) 
rmg_rxn_15724

>  <type>  (5) 
r2

>  <role_mapnums>  (5) 
{}

>  <role_mapidx>  (5) 
{}

>  <ordered_mapped_smiles>  (5) 
[C:1]([O:2][NH:3][CH:4]([H:7])[H:8])([H:5])[H:6]

>  <level_of_theory>  (5) 
wb97xd/def2tzvp

>  <lot_method>  (5) 
wb97xd

>  <lot_basis>  (5) 
def2tzvp

>  <spin_multiplicity>  (5) 
2.0

>  <optical_isomers>  (5) 
2.0

>  <modes>  (5) 
IdealGasTranslation(mass=(58.0293, 'amu')),         NonlinearRotor(             inertia = ([10.2741, 95.4529, 105.582

>  <frequency_value>  (5) 
unknown

>  <frequency_units>  (5) 
unknown

>  <frequency_list>  (5) 
unknown

>  <arkane_path>  (5) 
/home/calvin/Dropbox/PersonalFolders/Calvin/ZEUS_Converged/rmg_rxn_15724/output/Species/rmg_rxn_15724_r1_sbr-CH2-sbrON=C/arkane/output.py

>  <path_exists>  (5) 
True

>  <E0_value>  (5) 
-547168.2732446302

>  <E0_units>  (5) 
kJ/mol

>  <thermo_class>  (5) 
NASA

>  <Cp0_value>  (5) 
33.257888

>  <Cp0_units>  (5) 
J/(mol*K)

>  <CpInf_value>  (5) 
182.918384

>  <CpInf_units>  (5) 
J/(mol*K)

>  <Tmin_value>  (5) 
10.0

>  <Tmin_units>  (5) 
K

>  <Tmax_value>  (5) 
3000.0

>  <Tmax_units>  (5) 
K

>  <polynomials>  (5) 
[{"name": "polynomial1", "class": "NASAPolynomial", "Tmin_value": 10.0, "Tmin_units": "K", "Tmax_value": 253.2842427910515, "Tmax_units": "K", "coeffs": [3.956862909385456, 0.0038362890131335746, 0.00011727738047703725, -3.4736244039427427e-07, 3.472729073035136e-10, -65809144.38694886, 9.350338763280796]}, {"name": "polynomial2", "class": "NASAPolynomial", "Tmin_value": 253.2842427910515, "Tmin_units": "K", "Tmax_value": 3000.0, "Tmax_units": "K", "coeffs": [2.5252197328965313, 0.026445761179553072, -1.662161754135038e-05, 5.074735532607581e-09, -5.97403912324656e-13, -65809071.86505469, 14.291183066674913]}]

>  <H298_value>  (5) 
-130772.65860702786

>  <H298_units>  (5) 
kcal/mol

>  <S298_value>  (5) 
71.26914844977757

>  <S298_units>  (5) 
cal/(mol*K)

>  <Cp_T_value_list>  (5) 
[18.0740035969719, 21.369534269323825, 24.223451351766553, 26.683440747612977, 30.598134113509214, 33.438117676478754, 37.554421513360474, 39.68390492467901, 40.91110806828642]

>  <Cp_T_units>  (5) 
cal/(mol*K)

>  <T_list>  (5) 
[300.0, 400.0, 500.0, 600.0, 800.0, 1000.0, 1500.0, 2000.0, 2400.0]

>  <T_units>  (5) 
K

>  <yaml_path>  (5) 
/home/calvin/Dropbox/PersonalFolders/Calvin/ZEUS_Converged/rmg_rxn_15724/output/Species/rmg_rxn_15724_r1_sbr-CH2-sbrON=C/rmg_rxn_15724_r1_sbr-CH2-sbrON=C.yml

>  <frequencies_cm1>  (5) 
[132.13453152744, 273.14807507364, 360.4549264321199, 498.69420790903996, 595.9169860696, 789.3942974605999, 873.74834513148, 993.5360370535599, 1152.01232426852, 1206.54305469464, 1257.0497317232398, 1417.2771001948001, 1437.260027476, 1705.2166616477198, 3090.5210781926, 3134.7719315946797, 3218.94057066192, 3282.16490450316]

>  <ZPE_kJmol>  (5) 
152.0381400376291

>  <E_elec_kJmol>  (5) 
-547320.3113846679

>  <E0_minus_Eelec_plus_ZPE_kJmol>  (5) 
0.0

>  <rxn>  (5) 
rmg_rxn_15724

>  <species_type>  (5) 
r0

>  <species_folder>  (5) 
rmg_rxn_15724_r1_sbr-CH2-sbrON=C

>  <frequencies_cm1_list>  (5) 
[132.13453152744, 273.14807507364, 360.4549264321199, 498.69420790903996, 595.9169860696, 789.3942974605999, 873.74834513148, 993.5360370535599, 1152.01232426852, 1206.54305469464, 1257.0497317232398, 1417.2771001948001, 1437.260027476, 1705.2166616477198, 3090.5210781926, 3134.7719315946797, 3218.94057066192, 3282.16490450316]

>  <E0_kJmol>  (5) 
-547168

>  <H298_kJmol>  (5) 
-547153

$$$$
