
     RDKit          3D

  5  4  0  0  0  0  0  0  0  0999 V2000
    0.9305    0.1214   -0.5226 O   0  0  0  0  0  0  0  0  0  1  0  0
   -0.0447   -0.4541    0.0648 N   0  0  0  0  0  0  0  0  0  2  0  0
   -0.9650    0.2460    0.4989 N   0  0  0  0  0  0  0  0  0  3  0  0
    0.8973    1.0801   -0.4855 H   0  0  0  0  0  0  0  0  0  4  0  0
   -1.6264   -0.3966    0.9348 H   0  0  0  0  0  0  0  0  0  5  0  0
  1  2  1  0
  1  4  1  0
  2  3  1  0
  3  5  1  0
M  END
>  <rmg_smiles>  (1) 
[NH][N]O

>  <rmg_adjacency_list>  (1) 
1 O u0 p2 c0 {2,S} {4,S}
2 N u0 p1 c0 {1,S} {3,S}
3 N u0 p1 c0 {2,S} {5,S}
4 H u0 p0 c0 {1,S}
5 H u0 p0 c0 {3,S}


>  <multiplicity>  (1) 
1

>  <reaction>  (1) 
rmg_rxn_16743

>  <type>  (1) 
r1h

>  <role_mapnums>  (1) 
{"r1h_a": 1, "r1h_h": 4}

>  <role_mapidx>  (1) 
{"r1h_a": 0, "r1h_h": 3}

>  <ordered_mapped_smiles>  (1) 
[O:1]([NH:2][NH:3][H:5])[H:4]

>  <mol_properties>  (1) 
{"0": {"label": "donator", "atom_type": "O2s"}, "3": {"label": "d_hydrogen", "atom_type": "H0"}}

>  <level_of_theory>  (1) 
wb97xd/def2tzvp

>  <lot_method>  (1) 
wb97xd

>  <lot_basis>  (1) 
def2tzvp

>  <spin_multiplicity>  (1) 
1.0

>  <optical_isomers>  (1) 
1.0

>  <modes>  (1) 
IdealGasTranslation(mass=(46.0167, 'amu')),         NonlinearRotor(             inertia = ([6.16868, 38.688, 44.8567

>  <frequency_value>  (1) 
unknown

>  <frequency_units>  (1) 
unknown

>  <frequency_list>  (1) 
unknown

>  <arkane_path>  (1) 
/home/calvin/Dropbox/PersonalFolders/Calvin/ZEUS_Converged/rmg_rxn_16743/output/Species/rmg_rxn_16743_r1_ON=N/arkane/output.py

>  <path_exists>  (1) 
True

>  <E0_value>  (1) 
-487897.48952725495

>  <E0_units>  (1) 
kJ/mol

>  <thermo_class>  (1) 
NASA

>  <Cp0_value>  (1) 
33.257888

>  <Cp0_units>  (1) 
J/(mol*K)

>  <CpInf_value>  (1) 
108.088136

>  <CpInf_units>  (1) 
J/(mol*K)

>  <Tmin_value>  (1) 
10.0

>  <Tmin_units>  (1) 
K

>  <Tmax_value>  (1) 
3000.0

>  <Tmax_units>  (1) 
K

>  <polynomials>  (1) 
[{"name": "polynomial1", "class": "NASAPolynomial", "Tmin_value": 10.0, "Tmin_units": "K", "Tmax_value": 644.0086826047727, "Tmax_units": "K", "coeffs": [4.08138141823632, -0.006378394108187734, 5.883791764927125e-05, -8.741423177321787e-08, 4.244205297895341e-11, -58680514.56119486, 6.48324274838311]}, {"name": "polynomial2", "class": "NASAPolynomial", "Tmin_value": 644.0086826047727, "Tmin_units": "K", "Tmax_value": 3000.0, "Tmax_units": "K", "coeffs": [2.110178493788313, 0.01421627322518034, -8.58198853782814e-06, 2.513658736833628e-09, -2.8402409163798285e-13, -58680433.8514888, 13.781159988579471]}]

>  <H298_value>  (1) 
-116607.71730868449

>  <H298_units>  (1) 
kcal/mol

>  <S298_value>  (1) 
59.138454554281225

>  <S298_units>  (1) 
cal/(mol*K)

>  <Cp_T_value_list>  (1) 
[10.824059737348408, 12.789852451102194, 14.561281699941057, 16.006970840742035, 18.205556705718042, 19.820592041666544, 22.198766652777994, 23.408607434783402, 24.090031891492696]

>  <Cp_T_units>  (1) 
cal/(mol*K)

>  <T_list>  (1) 
[300.0, 400.0, 500.0, 600.0, 800.0, 1000.0, 1500.0, 2000.0, 2400.0]

>  <T_units>  (1) 
K

>  <yaml_path>  (1) 
/home/calvin/Dropbox/PersonalFolders/Calvin/ZEUS_Converged/rmg_rxn_16743/output/Species/rmg_rxn_16743_r1_ON=N/rmg_rxn_16743_r1_ON=N.yml

>  <frequencies_cm1>  (1) 
[665.8915664804, 680.689919845, 958.0199889785198, 1002.4837189255198, 1373.0056458367599, 1446.1184385388, 1659.3864016220396, 3426.1587196782393, 3597.3183287792394]

>  <ZPE_kJmol>  (1) 
88.57795098426257

>  <E_elec_kJmol>  (1) 
-487986.0674782392

>  <E0_minus_Eelec_plus_ZPE_kJmol>  (1) 
0.0

>  <rxn>  (1) 
rmg_rxn_16743

>  <species_type>  (1) 
r0

>  <species_folder>  (1) 
rmg_rxn_16743_r1_ON=N

>  <frequencies_cm1_list>  (1) 
[665.8915664804, 680.689919845, 958.0199889785198, 1002.4837189255198, 1373.0056458367599, 1446.1184385388, 1659.3864016220396, 3426.1587196782393, 3597.3183287792394]

>  <E0_kJmol>  (1) 
-487897

>  <H298_kJmol>  (1) 
-487887

$$$$

     RDKit          3D

  8  7  0  0  0  0  0  0  0  0999 V2000
    0.8416   -1.8488    0.4551 H   0  0  0  0  0  0  0  0  0  1  0  0
   -0.4571    1.1467   -0.2931 C   0  0  0  0  0  0  0  0  0  2  0  0
   -0.2875   -0.3259   -0.0712 C   0  0  0  0  0  0  0  0  0  3  0  0
    0.7699   -0.8142    0.3773 N   0  0  0  0  0  0  0  0  0  4  0  0
   -0.6927    1.3314   -1.3430 H   0  0  0  0  0  0  0  0  0  5  0  0
    0.4450    1.6890   -0.0186 H   0  0  0  0  0  0  0  0  0  6  0  0
   -1.2983    1.5070    0.3021 H   0  0  0  0  0  0  0  0  0  7  0  0
   -1.1391   -0.9686   -0.3126 H   0  0  0  0  0  0  0  0  0  8  0  0
  1  4  1  0
  2  7  1  0
  2  5  1  0
  2  6  1  0
  2  3  1  0
  3  4  1  0
  3  8  1  0
M  END
>  <rmg_smiles>  (2) 
C[CH][NH]

>  <rmg_adjacency_list>  (2) 
1 N u0 p1 c0 {3,S} {8,S}
2 C u0 p0 c0 {3,S} {4,S} {5,S} {6,S}
3 C u0 p0 c0 {1,S} {2,S} {7,S}
4 H u0 p0 c0 {2,S}
5 H u0 p0 c0 {2,S}
6 H u0 p0 c0 {2,S}
7 H u0 p0 c0 {3,S}
8 H u0 p0 c0 {1,S}


>  <multiplicity>  (2) 
1

>  <reaction>  (2) 
rmg_rxn_16743

>  <type>  (2) 
r2h

>  <role_mapnums>  (2) 
{"r2h_a": 4, "r2h_h": 1}

>  <role_mapidx>  (2) 
{"r2h_a": 3, "r2h_h": 0}

>  <ordered_mapped_smiles>  (2) 
[H:1][NH:4][CH:3]([C:2]([H:5])([H:6])[H:7])[H:8]

>  <mol_properties>  (2) 
{"0": {"label": "a_hydrogen", "atom_type": "H0"}, "3": {"label": "acceptor", "atom_type": "N3s"}}

>  <level_of_theory>  (2) 
wb97xd/def2tzvp

>  <lot_method>  (2) 
wb97xd

>  <lot_basis>  (2) 
def2tzvp

>  <spin_multiplicity>  (2) 
1.0

>  <optical_isomers>  (2) 
1.0

>  <modes>  (2) 
IdealGasTranslation(mass=(43.0422, 'amu')),         NonlinearRotor(             inertia = ([9.32783, 51.3348, 57.5532

>  <frequency_value>  (2) 
unknown

>  <frequency_units>  (2) 
unknown

>  <frequency_list>  (2) 
unknown

>  <arkane_path>  (2) 
/home/calvin/Dropbox/PersonalFolders/Calvin/ZEUS_Converged/rmg_rxn_16743/output/Species/rmg_rxn_16743_p2_CC=N/arkane/output.py

>  <path_exists>  (2) 
True

>  <E0_value>  (2) 
-351535.20335661684

>  <E0_units>  (2) 
kJ/mol

>  <thermo_class>  (2) 
NASA

>  <Cp0_value>  (2) 
33.257888

>  <Cp0_units>  (2) 
J/(mol*K)

>  <CpInf_value>  (2) 
182.918384

>  <CpInf_units>  (2) 
J/(mol*K)

>  <Tmin_value>  (2) 
10.0

>  <Tmin_units>  (2) 
K

>  <Tmax_value>  (2) 
3000.0

>  <Tmax_units>  (2) 
K

>  <polynomials>  (2) 
[{"name": "polynomial1", "class": "NASAPolynomial", "Tmin_value": 10.0, "Tmin_units": "K", "Tmax_value": 834.0183041901832, "Tmax_units": "K", "coeffs": [4.020859284868709, 0.0012406595733239277, 4.4482903010182226e-05, -5.482114439751344e-08, 2.0739201558559772e-11, -42279921.71645892, 6.726586383468645]}, {"name": "polynomial2", "class": "NASAPolynomial", "Tmin_value": 834.0183041901832, "Tmin_units": "K", "Tmax_value": 3000.0, "Tmax_units": "K", "coeffs": [0.8146767610859666, 0.025012560508124084, -1.3369721411120483e-05, 3.4917002293006827e-09, -3.579375529269218e-13, -42279678.881200545, 19.862274208798944]}]

>  <H298_value>  (2) 
-84015.86036687854

>  <H298_units>  (2) 
kcal/mol

>  <S298_value>  (2) 
62.66843297179497

>  <S298_units>  (2) 
cal/(mol*K)

>  <Cp_T_value_list>  (2) 
[14.078036689508782, 17.202765604471058, 20.2803800489589, 23.1023356383003, 27.639649626797436, 30.983090061901617, 36.21499785066487, 38.88468928045463, 40.19916387517873]

>  <Cp_T_units>  (2) 
cal/(mol*K)

>  <T_list>  (2) 
[300.0, 400.0, 500.0, 600.0, 800.0, 1000.0, 1500.0, 2000.0, 2400.0]

>  <T_units>  (2) 
K

>  <yaml_path>  (2) 
/home/calvin/Dropbox/PersonalFolders/Calvin/ZEUS_Converged/rmg_rxn_16743/output/Species/rmg_rxn_16743_p2_CC=N/rmg_rxn_16743_p2_CC=N.yml

>  <frequencies_cm1>  (2) 
[185.42920459596, 489.9250676554, 680.6761858743599, 921.32968641376, 1055.89513074448, 1069.62910138448, 1130.4431233784, 1267.5150173509198, 1378.7876474762, 1425.071128533, 1456.56312321052, 1463.3683056626398, 1737.36788691596, 2989.2124437666403, 3014.6889593038395, 3075.43431144456, 3123.3452680222, 3455.8927661138396]

>  <ZPE_kJmol>  (2) 
178.96482902382195

>  <E_elec_kJmol>  (2) 
-351714.16818564065

>  <E0_minus_Eelec_plus_ZPE_kJmol>  (2) 
0.0

>  <rxn>  (2) 
rmg_rxn_16743

>  <species_type>  (2) 
p1

>  <species_folder>  (2) 
rmg_rxn_16743_p2_CC=N

>  <frequencies_cm1_list>  (2) 
[185.42920459596, 489.9250676554, 680.6761858743599, 921.32968641376, 1055.89513074448, 1069.62910138448, 1130.4431233784, 1267.5150173509198, 1378.7876474762, 1425.071128533, 1456.56312321052, 1463.3683056626398, 1737.36788691596, 2989.2124437666403, 3014.6889593038395, 3075.43431144456, 3123.3452680222, 3455.8927661138396]

>  <E0_kJmol>  (2) 
-351535

>  <H298_kJmol>  (2) 
-351522

$$$$

     RDKit          3D

 12 10  0  0  0  0  0  0  0  0999 V2000
    1.2003   -1.4950   -0.2049 O   0  0  0  0  0  1  0  0  0  1  0  0
    0.2252   -2.0705    0.3825 N   0  0  0  0  0  0  0  0  0  2  0  0
   -0.6951   -1.3704    0.8167 N   0  0  0  0  0  0  0  0  0  3  0  0
    1.1575   -0.2552   -0.1569 H   0  0  0  0  0  0  0  0  0  4  0  0
   -1.3565   -2.0130    1.2525 H   0  0  0  0  0  0  0  0  0  5  0  0
   -0.1530    2.9112   -0.9181 C   0  0  0  0  0  0  0  0  0  6  0  0
    0.0166    1.4386   -0.6961 C   0  0  0  0  0  0  0  0  0  7  0  0
    1.0739    0.9503   -0.2476 N   0  0  0  0  0  0  0  0  0  8  0  0
   -0.3886    3.0959   -1.9679 H   0  0  0  0  0  0  0  0  0  9  0  0
    0.7491    3.4535   -0.6435 H   0  0  0  0  0  0  0  0  0 10  0  0
   -0.9942    3.2715   -0.3228 H   0  0  0  0  0  0  0  0  0 11  0  0
   -0.8351    0.7959   -0.9376 H   0  0  0  0  0  0  0  0  0 12  0  0
  1  2  1  0
  2  3  1  0
  3  5  1  0
  4  8  1  0
  6  9  1  0
  6  7  1  0
  6 11  1  0
  6 10  1  0
  7 12  1  0
  7  8  1  0
M  RAD  1   1   2
M  END
>  <rmg_smiles>  (3) 
[NH][N][O].C[CH][NH]

>  <rmg_adjacency_list>  (3) 
multiplicity 2
1  O u1 p2 c0 {3,S}
2  N u0 p1 c0 {6,S} {11,S}
3  N u0 p1 c0 {1,S} {4,S}
4  N u0 p1 c0 {3,S} {12,S}
5  C u0 p0 c0 {6,S} {7,S} {8,S} {9,S}
6  C u0 p0 c0 {2,S} {5,S} {10,S}
7  H u0 p0 c0 {5,S}
8  H u0 p0 c0 {5,S}
9  H u0 p0 c0 {5,S}
10 H u0 p0 c0 {6,S}
11 H u0 p0 c0 {2,S}
12 H u0 p0 c0 {4,S}


>  <multiplicity>  (3) 
2

>  <reaction>  (3) 
rmg_rxn_16743

>  <type>  (3) 
ts

>  <role_mapnums>  (3) 
{"*2": 4, "*1": 1, "*3": 8, "*0": 7, "*4": 2}

>  <role_mapidx>  (3) 
{"*2": 3, "*1": 0, "*3": 7, "*0": 6, "*4": 1}

>  <ordered_mapped_smiles>  (3) 
[O:1][NH:2][NH:3][H:5].[H:4][NH:8][CH:7]([C:6]([H:9])([H:10])[H:11])[H:12]

>  <mol_properties>  (3) 
{"0": {"label": "*1", "atom_type": "O2s"}, "1": {"label": "*4", "atom_type": "N3s"}, "3": {"label": "*2", "atom_type": "H0"}, "6": {"label": "*0", "atom_type": "Cs"}, "7": {"label": "*3", "atom_type": "N3s"}}

>  <level_of_theory>  (3) 
wb97xd/def2tzvp

>  <lot_method>  (3) 
wb97xd

>  <lot_basis>  (3) 
def2tzvp

>  <spin_multiplicity>  (3) 
2.0

>  <optical_isomers>  (3) 
2.0

>  <modes>  (3) 
IdealGasTranslation(mass=(88.0511, 'amu')),         NonlinearRotor(             inertia = ([56.374, 328.454, 372.015

>  <frequency_value>  (3) 
-1909.2

>  <frequency_units>  (3) 
cm^-1

>  <frequency_list>  (3) 
unknown

>  <arkane_path>  (3) 
/home/calvin/Dropbox/PersonalFolders/Calvin/ZEUS_Converged/rmg_rxn_16743/output/rxns/TS0/arkane/output.py

>  <path_exists>  (3) 
True

>  <E0_value>  (3) 
-837733.0

>  <E0_units>  (3) 
kJ/mol

>  <thermo_class>  (3) 
unknown

>  <Cp0_value>  (3) 
unknown

>  <Cp0_units>  (3) 
unknown

>  <CpInf_value>  (3) 
unknown

>  <CpInf_units>  (3) 
unknown

>  <Tmin_value>  (3) 
unknown

>  <Tmin_units>  (3) 
unknown

>  <Tmax_value>  (3) 
unknown

>  <Tmax_units>  (3) 
unknown

>  <polynomials>  (3) 
unknown

>  <H298_value>  (3) 
unknown

>  <H298_units>  (3) 
unknown

>  <S298_value>  (3) 
unknown

>  <S298_units>  (3) 
unknown

>  <Cp_T_value_list>  (3) 
unknown

>  <Cp_T_units>  (3) 
unknown

>  <T_list>  (3) 
unknown

>  <T_units>  (3) 
unknown

>  <yaml_path>  (3) 
unknown

>  <frequencies_cm1>  (3) 
unknown

>  <ZPE_kJmol>  (3) 
unknown

>  <E_elec_kJmol>  (3) 
unknown

>  <E0_minus_Eelec_plus_ZPE_kJmol>  (3) 
unknown

>  <rxn>  (3) 
unknown

>  <species_type>  (3) 
unknown

>  <species_folder>  (3) 
unknown

>  <frequencies_cm1_list>  (3) 
[]

>  <ts_imag_freq_cm1>  (3) 
-1932.3908

>  <ts_freq_out_path>  (3) 
/home/calvin/Dropbox/PersonalFolders/Calvin/ZEUS_Converged/rmg_rxn_16743/output/rxns/TS0/geometry/freq.out

>  <E0_kJmol>  (3) 
-837733

>  <H298_kJmol>  (3) 
unknown

$$$$

     RDKit          3D

  4  3  0  0  0  0  0  0  0  0999 V2000
   -0.8019    0.4189    0.0192 N   0  0  0  0  0  0  0  0  0  1  0  0
    0.3609    0.8266    0.0061 N   0  0  0  0  0  0  0  0  0  2  0  0
    0.8339    1.9183    0.0142 O   0  0  0  0  0  1  0  0  0  3  0  0
   -0.7779   -0.6002    0.0040 H   0  0  0  0  0  0  0  0  0  4  0  0
  1  2  1  0
  1  4  1  0
  2  3  1  0
M  RAD  1   3   2
M  END
>  <rmg_smiles>  (4) 
[NH][N][O]

>  <rmg_adjacency_list>  (4) 
multiplicity 2
1 O u1 p2 c0 {3,S}
2 N u0 p1 c0 {3,S} {4,S}
3 N u0 p1 c0 {1,S} {2,S}
4 H u0 p0 c0 {2,S}


>  <multiplicity>  (4) 
2

>  <reaction>  (4) 
rmg_rxn_16743

>  <type>  (4) 
r1

>  <role_mapnums>  (4) 
{}

>  <role_mapidx>  (4) 
{}

>  <ordered_mapped_smiles>  (4) 
[NH:1]([NH:2][O:3])[H:4]

>  <level_of_theory>  (4) 
wb97xd/def2tzvp

>  <lot_method>  (4) 
wb97xd

>  <lot_basis>  (4) 
def2tzvp

>  <spin_multiplicity>  (4) 
2.0

>  <optical_isomers>  (4) 
1.0

>  <modes>  (4) 
IdealGasTranslation(mass=(45.0089, 'amu')),         NonlinearRotor(             inertia = ([2.57086, 40.1656, 42.7365

>  <frequency_value>  (4) 
unknown

>  <frequency_units>  (4) 
unknown

>  <frequency_list>  (4) 
unknown

>  <arkane_path>  (4) 
/home/calvin/Dropbox/PersonalFolders/Calvin/ZEUS_Converged/rmg_rxn_16743/output/Species/rmg_rxn_16743_p1_sbr-NH-sbrN=O/arkane/output.py

>  <path_exists>  (4) 
True

>  <E0_value>  (4) 
-486262.5359899479

>  <E0_units>  (4) 
kJ/mol

>  <thermo_class>  (4) 
NASA

>  <Cp0_value>  (4) 
33.257888

>  <Cp0_units>  (4) 
J/(mol*K)

>  <CpInf_value>  (4) 
83.14472

>  <CpInf_units>  (4) 
J/(mol*K)

>  <Tmin_value>  (4) 
10.0

>  <Tmin_units>  (4) 
K

>  <Tmax_value>  (4) 
3000.0

>  <Tmax_units>  (4) 
K

>  <polynomials>  (4) 
[{"name": "polynomial1", "class": "NASAPolynomial", "Tmin_value": 10.0, "Tmin_units": "K", "Tmax_value": 676.9856828961979, "Tmax_units": "K", "coeffs": [4.05262098728093, -0.003954761701332615, 3.668773832280585e-05, -5.192271787176588e-08, 2.3892887036343525e-11, -58483875.09096317, 6.697599868614398]}, {"name": "polynomial2", "class": "NASAPolynomial", "Tmin_value": 676.9856828961979, "Tmin_units": "K", "Tmax_value": 3000.0, "Tmax_units": "K", "coeffs": [2.5686754735862305, 0.010096727867614426, -6.15294855442235e-06, 1.7932676730687612e-09, -2.007861946186529e-13, -58483795.243655, 12.383665575958386]}]

>  <H298_value>  (4) 
-116217.0238123498

>  <H298_units>  (4) 
kcal/mol

>  <S298_value>  (4) 
59.26910090357278

>  <S298_units>  (4) 
cal/(mol*K)

>  <Cp_T_value_list>  (4) 
[9.855963838140484, 11.186697614124812, 12.420319680705775, 13.450528147679378, 14.991648230062587, 16.106182036096136, 17.69693100081476, 18.44902496722473, 18.85534447519077]

>  <Cp_T_units>  (4) 
cal/(mol*K)

>  <T_list>  (4) 
[300.0, 400.0, 500.0, 600.0, 800.0, 1000.0, 1500.0, 2000.0, 2400.0]

>  <T_units>  (4) 
K

>  <yaml_path>  (4) 
/home/calvin/Dropbox/PersonalFolders/Calvin/ZEUS_Converged/rmg_rxn_16743/output/Species/rmg_rxn_16743_p1_sbr-NH-sbrN=O/rmg_rxn_16743_p1_sbr-NH-sbrN=O.yml

>  <frequencies_cm1>  (4) 
[669.5654036266, 780.2955419115999, 1274.34766774432, 1377.4211173975198, 1744.5026846634398, 3450.4884486669994]

>  <ZPE_kJmol>  (4) 
55.6061572725318

>  <E_elec_kJmol>  (4) 
-486318.1421472204

>  <E0_minus_Eelec_plus_ZPE_kJmol>  (4) 
0.0

>  <rxn>  (4) 
rmg_rxn_16743

>  <species_type>  (4) 
p0

>  <species_folder>  (4) 
rmg_rxn_16743_p1_sbr-NH-sbrN=O

>  <frequencies_cm1_list>  (4) 
[669.5654036266, 780.2955419115999, 1274.34766774432, 1377.4211173975198, 1744.5026846634398, 3450.4884486669994]

>  <E0_kJmol>  (4) 
-486263

>  <H298_kJmol>  (4) 
-486252

$$$$

     RDKit          3D

  7  6  0  0  0  0  0  0  0  0999 V2000
   -0.6441   -0.1356    0.0624 C   0  0  0  0  0  0  0  0  0  1  0  0
    0.8523    0.0148   -0.0333 C   0  0  0  0  0  0  0  0  0  2  0  0
    1.6700   -0.6077    0.6603 N   0  0  0  0  0  2  0  0  0  3  0  0
   -1.0940    0.8275    0.3091 H   0  0  0  0  0  0  0  0  0  4  0  0
   -0.9104   -0.8656    0.8237 H   0  0  0  0  0  0  0  0  0  5  0  0
   -1.0427   -0.4545   -0.9022 H   0  0  0  0  0  0  0  0  0  6  0  0
    1.2362    0.7308   -0.7748 H   0  0  0  0  0  0  0  0  0  7  0  0
  1  5  1  0
  1  4  1  0
  1  6  1  0
  1  2  1  0
  2  3  1  0
  2  7  1  0
M  RAD  1   3   2
M  END
>  <rmg_smiles>  (5) 
C[CH][N]

>  <rmg_adjacency_list>  (5) 
multiplicity 2
1 N u1 p2 c0 {3,S}
2 C u0 p0 c0 {3,S} {4,S} {5,S} {6,S}
3 C u0 p0 c0 {1,S} {2,S} {7,S}
4 H u0 p0 c0 {2,S}
5 H u0 p0 c0 {2,S}
6 H u0 p0 c0 {2,S}
7 H u0 p0 c0 {3,S}


>  <multiplicity>  (5) 
2

>  <reaction>  (5) 
rmg_rxn_16743

>  <type>  (5) 
r2

>  <role_mapnums>  (5) 
{}

>  <role_mapidx>  (5) 
{}

>  <ordered_mapped_smiles>  (5) 
[C:1]([CH:2]([NH:3])[H:7])([H:4])([H:5])[H:6]

>  <level_of_theory>  (5) 
wb97xd/def2tzvp

>  <lot_method>  (5) 
wb97xd

>  <lot_basis>  (5) 
def2tzvp

>  <spin_multiplicity>  (5) 
2.0

>  <optical_isomers>  (5) 
1.0

>  <modes>  (5) 
IdealGasTranslation(mass=(42.0344, 'amu')),         NonlinearRotor(             inertia = ([8.81492, 48.174, 53.8511

>  <frequency_value>  (5) 
unknown

>  <frequency_units>  (5) 
unknown

>  <frequency_list>  (5) 
unknown

>  <arkane_path>  (5) 
/home/calvin/Dropbox/PersonalFolders/Calvin/ZEUS_Converged/rmg_rxn_16743/output/Species/rmg_rxn_16743_r2_CC=sbr-N-sbr/arkane/output.py

>  <path_exists>  (5) 
True

>  <E0_value>  (5) 
-349854.82234455534

>  <E0_units>  (5) 
kJ/mol

>  <thermo_class>  (5) 
NASA

>  <Cp0_value>  (5) 
33.257888

>  <Cp0_units>  (5) 
J/(mol*K)

>  <CpInf_value>  (5) 
157.97496800000002

>  <CpInf_units>  (5) 
J/(mol*K)

>  <Tmin_value>  (5) 
10.0

>  <Tmin_units>  (5) 
K

>  <Tmax_value>  (5) 
3000.0

>  <Tmax_units>  (5) 
K

>  <polynomials>  (5) 
[{"name": "polynomial1", "class": "NASAPolynomial", "Tmin_value": 10.0, "Tmin_units": "K", "Tmax_value": 503.5856077016928, "Tmax_units": "K", "coeffs": [3.976811592049577, 0.0012685228752087534, 4.786155959427562e-05, -7.554553197268183e-08, 3.869280929218241e-11, -42077814.38325793, 7.559402827950991]}, {"name": "polynomial2", "class": "NASAPolynomial", "Tmin_value": 503.5856077016928, "Tmin_units": "K", "Tmax_value": 3000.0, "Tmax_units": "K", "coeffs": [1.4688672877735052, 0.02118998940112054, -1.1479594923736429e-05, 3.0156770231218235e-09, -3.096140671693614e-13, -42077561.800061174, 17.93823402033286]}]

>  <H298_value>  (5) 
-83614.2601862362

>  <H298_units>  (5) 
kcal/mol

>  <S298_value>  (5) 
63.84640386523673

>  <S298_units>  (5) 
cal/(mol*K)

>  <Cp_T_value_list>  (5) 
[13.788413560189577, 16.48922778111735, 18.980945997388957, 21.186536551582613, 24.822448324400693, 27.593007553675324, 31.86535612271467, 33.985319854322825, 35.01227851918305]

>  <Cp_T_units>  (5) 
cal/(mol*K)

>  <T_list>  (5) 
[300.0, 400.0, 500.0, 600.0, 800.0, 1000.0, 1500.0, 2000.0, 2400.0]

>  <T_units>  (5) 
K

>  <yaml_path>  (5) 
/home/calvin/Dropbox/PersonalFolders/Calvin/ZEUS_Converged/rmg_rxn_16743/output/Species/rmg_rxn_16743_r2_CC=sbr-N-sbr/rmg_rxn_16743_r2_CC=sbr-N-sbr.yml

>  <frequencies_cm1>  (5) 
[183.94593576684, 430.87586088872, 744.9511684695599, 909.3948659275999, 1050.2642027820798, 1063.7578289358798, 1237.9320445923597, 1377.0846351168398, 1461.72709617116, 1465.6893467008, 1739.36617964408, 2963.10416558, 3026.2186276561197, 3097.525403219, 3131.35217290532]

>  <ZPE_kJmol>  (5) 
142.8532380575317

>  <E_elec_kJmol>  (5) 
-349997.67558261286

>  <E0_minus_Eelec_plus_ZPE_kJmol>  (5) 
0.0

>  <rxn>  (5) 
rmg_rxn_16743

>  <species_type>  (5) 
r1

>  <species_folder>  (5) 
rmg_rxn_16743_r2_CC=sbr-N-sbr

>  <frequencies_cm1_list>  (5) 
[183.94593576684, 430.87586088872, 744.9511684695599, 909.3948659275999, 1050.2642027820798, 1063.7578289358798, 1237.9320445923597, 1377.0846351168398, 1461.72709617116, 1465.6893467008, 1739.36617964408, 2963.10416558, 3026.2186276561197, 3097.525403219, 3131.35217290532]

>  <E0_kJmol>  (5) 
-349855

>  <H298_kJmol>  (5) 
-349842

$$$$
