
     RDKit          3D

  9  8  0  0  0  0  0  0  0  0999 V2000
   -1.1135    0.9117    0.9472 C   0  0  0  0  0  0  0  0  0  1  0  0
   -0.8597    0.0054   -0.2427 C   0  0  0  0  0  0  0  0  0  2  0  0
    0.8885   -0.4724   -0.3242 S   0  0  0  0  0  0  0  0  0  3  0  0
   -0.5322    1.8375    0.8793 H   0  0  0  0  0  0  0  0  0  4  0  0
   -0.8674    0.4141    1.8914 H   0  0  0  0  0  0  0  0  0  5  0  0
   -2.1724    1.1883    0.9853 H   0  0  0  0  0  0  0  0  0  6  0  0
   -1.1295    0.5157   -1.1722 H   0  0  0  0  0  0  0  0  0  7  0  0
   -1.4674   -0.9009   -0.1631 H   0  0  0  0  0  0  0  0  0  8  0  0
    1.3798    0.7633   -0.4898 H   0  0  0  0  0  0  0  0  0  9  0  0
  1  5  1  0
  1  4  1  0
  1  6  1  0
  1  2  1  0
  2  7  1  0
  2  3  1  0
  2  8  1  0
  3  9  1  0
M  END
>  <rmg_smiles>  (1) 
CCS

>  <rmg_adjacency_list>  (1) 
1 S u0 p2 c0 {2,S} {9,S}
2 C u0 p0 c0 {1,S} {3,S} {4,S} {5,S}
3 C u0 p0 c0 {2,S} {6,S} {7,S} {8,S}
4 H u0 p0 c0 {2,S}
5 H u0 p0 c0 {2,S}
6 H u0 p0 c0 {3,S}
7 H u0 p0 c0 {3,S}
8 H u0 p0 c0 {3,S}
9 H u0 p0 c0 {1,S}


>  <multiplicity>  (1) 
1

>  <reaction>  (1) 
rmg_rxn_1339

>  <type>  (1) 
r1h

>  <role_mapnums>  (1) 
{"r1h_a": 3, "r1h_h": 9}

>  <role_mapidx>  (1) 
{"r1h_a": 2, "r1h_h": 8}

>  <ordered_mapped_smiles>  (1) 
[C:1]([C:2]([S:3][H:9])([H:7])[H:8])([H:4])([H:5])[H:6]

>  <mol_properties>  (1) 
{"2": {"label": "donator", "atom_type": "S2s"}, "8": {"label": "d_hydrogen", "atom_type": "H0"}}

>  <level_of_theory>  (1) 
wb97xd/def2tzvp

>  <lot_method>  (1) 
wb97xd

>  <lot_basis>  (1) 
def2tzvp

>  <spin_multiplicity>  (1) 
1.0

>  <optical_isomers>  (1) 
2.0

>  <modes>  (1) 
IdealGasTranslation(mass=(62.019, 'amu')),         NonlinearRotor(             inertia = ([18.1329, 92.1122, 101.337

>  <frequency_value>  (1) 
unknown

>  <frequency_units>  (1) 
unknown

>  <frequency_list>  (1) 
unknown

>  <arkane_path>  (1) 
/home/calvin/Dropbox/PersonalFolders/Calvin/ATLAS_Converged/rmg_rxn_1339/output/Species/rmg_rxn_1339_r1_CCS/arkane/output.py

>  <path_exists>  (1) 
True

>  <E0_value>  (1) 
-1254880.6027464247

>  <E0_units>  (1) 
kJ/mol

>  <thermo_class>  (1) 
NASA

>  <Cp0_value>  (1) 
33.257888

>  <Cp0_units>  (1) 
J/(mol*K)

>  <CpInf_value>  (1) 
207.8618

>  <CpInf_units>  (1) 
J/(mol*K)

>  <Tmin_value>  (1) 
10.0

>  <Tmin_units>  (1) 
K

>  <Tmax_value>  (1) 
3000.0

>  <Tmax_units>  (1) 
K

>  <polynomials>  (1) 
[{"name": "polynomial1", "class": "NASAPolynomial", "Tmin_value": 10.0, "Tmin_units": "K", "Tmax_value": 440.6885988521993, "Tmax_units": "K", "coeffs": [3.9476967182281575, 0.003342210205354075, 7.13916297471538e-05, -1.277397338229288e-07, 7.441613467463742e-11, -150927272.6235672, 9.000395416628404]}, {"name": "polynomial2", "class": "NASAPolynomial", "Tmin_value": 440.6885988521993, "Tmin_units": "K", "Tmax_value": 3000.0, "Tmax_units": "K", "coeffs": [1.1241984581264002, 0.02896972732810358, -1.5836549591324628e-05, 4.2148754159587145e-09, -4.393436109168474e-13, -150927023.7616152, 20.308580146033556]}]

>  <H298_value>  (1) 
-299920.20414632466

>  <H298_units>  (1) 
kcal/mol

>  <S298_value>  (1) 
68.90956350132345

>  <S298_units>  (1) 
cal/(mol*K)

>  <Cp_T_value_list>  (1) 
[16.949687743245434, 20.740378154969644, 24.14321797129937, 27.141964217460327, 32.07877833131024, 35.83511200863698, 41.62716788737426, 44.527257178867885, 45.95035390417379]

>  <Cp_T_units>  (1) 
cal/(mol*K)

>  <T_list>  (1) 
[300.0, 400.0, 500.0, 600.0, 800.0, 1000.0, 1500.0, 2000.0, 2400.0]

>  <T_units>  (1) 
K

>  <yaml_path>  (1) 
/home/calvin/Dropbox/PersonalFolders/Calvin/ATLAS_Converged/rmg_rxn_1339/output/Species/rmg_rxn_1339_r1_CCS/rmg_rxn_1339_r1_CCS.yml

>  <frequencies_cm1>  (1) 
[204.10740466636, 309.03494035596, 348.54757388724, 678.45128263068, 765.497188547, 891.44456630112, 991.83989167952, 1070.02051954772, 1121.88685966968, 1275.1442380414398, 1302.9555285874399, 1414.9011232740797, 1468.93743075716, 1484.9649744940398, 1486.0568251599198, 2690.0041594035997, 2982.54460102092, 3008.9962284735598, 3048.0007050911595, 3053.06854025732, 3073.09266945044]

>  <ZPE_kJmol>  (1) 
195.40704399409643

>  <E_elec_kJmol>  (1) 
-1255076.009790419

>  <E0_minus_Eelec_plus_ZPE_kJmol>  (1) 
0.0

>  <rxn>  (1) 
rmg_rxn_1339

>  <species_type>  (1) 
r0

>  <species_folder>  (1) 
rmg_rxn_1339_r1_CCS

>  <frequencies_cm1_list>  (1) 
[204.10740466636, 309.03494035596, 348.54757388724, 678.45128263068, 765.497188547, 891.44456630112, 991.83989167952, 1070.02051954772, 1121.88685966968, 1275.1442380414398, 1302.9555285874399, 1414.9011232740797, 1468.93743075716, 1484.9649744940398, 1486.0568251599198, 2690.0041594035997, 2982.54460102092, 3008.9962284735598, 3048.0007050911595, 3053.06854025732, 3073.09266945044]

>  <E0_kJmol>  (1) 
-1.25488e+06

>  <H298_kJmol>  (1) 
-1.25487e+06

$$$$

     RDKit          3D

 14 13  0  0  0  0  0  0  0  0999 V2000
   -2.8150    0.2276   -0.4486 H   0  0  0  0  0  0  0  0  0  1  0  0
   -2.4139    1.2362   -0.5837 C   0  0  0  0  0  0  0  0  0  2  0  0
   -1.1117    1.3337   -0.0200 O   0  0  0  0  0  0  0  0  0  3  0  0
   -0.4013    0.0987   -0.1291 C   0  0  0  0  0  0  0  0  0  4  0  0
    0.9700    0.2871    0.4922 C   0  0  0  0  0  0  0  0  0  5  0  0
    1.7953   -0.9671    0.4239 C   0  0  0  0  0  0  0  0  0  6  0  0
    1.4155   -2.0227   -0.0726 O   0  0  0  0  0  0  0  0  0  7  0  0
   -2.9098    2.2042   -0.4734 H   0  0  0  0  0  0  0  0  0  8  0  0
   -2.3529    0.9939   -1.6491 H   0  0  0  0  0  0  0  0  0  9  0  0
   -0.3093   -0.1793   -1.1858 H   0  0  0  0  0  0  0  0  0 10  0  0
   -0.9549   -0.6901    0.3940 H   0  0  0  0  0  0  0  0  0 11  0  0
    1.5144    1.0880   -0.0196 H   0  0  0  0  0  0  0  0  0 12  0  0
    0.8759    0.5827    1.5427 H   0  0  0  0  0  0  0  0  0 13  0  0
    2.8049   -0.8867    0.8625 H   0  0  0  0  0  0  0  0  0 14  0  0
  1  2  1  0
  2  9  1  0
  2  8  1  0
  2  3  1  0
  3  4  1  0
  4  5  1  0
  4 10  1  0
  4 11  1  0
  5 12  1  0
  5  6  1  0
  5 13  1  0
  6 14  1  0
  6  7  1  0
M  END
>  <rmg_smiles>  (2) 
COCC[CH]O

>  <rmg_adjacency_list>  (2) 
1  O u0 p2 c0 {4,S} {5,S}
2  O u0 p2 c0 {6,S}
3  C u0 p0 c0 {4,S} {6,S} {7,S} {8,S}
4  C u0 p0 c0 {1,S} {3,S} {9,S} {10,S}
5  C u0 p0 c0 {1,S} {11,S} {12,S} {13,S}
6  C u0 p0 c0 {2,S} {3,S} {14,S}
7  H u0 p0 c0 {3,S}
8  H u0 p0 c0 {3,S}
9  H u0 p0 c0 {4,S}
10 H u0 p0 c0 {4,S}
11 H u0 p0 c0 {5,S}
12 H u0 p0 c0 {5,S}
13 H u0 p0 c0 {5,S}
14 H u0 p0 c0 {6,S}


>  <multiplicity>  (2) 
1

>  <reaction>  (2) 
rmg_rxn_1339

>  <type>  (2) 
r2h

>  <role_mapnums>  (2) 
{"r2h_a": 2, "r2h_h": 1}

>  <role_mapidx>  (2) 
{"r2h_a": 1, "r2h_h": 0}

>  <ordered_mapped_smiles>  (2) 
[H:1][C:2]([O:3][C:4]([C:5]([CH:6]([OH:7])[H:14])([H:12])[H:13])([H:10])[H:11])([H:8])[H:9]

>  <mol_properties>  (2) 
{"0": {"label": "a_hydrogen", "atom_type": "H0"}, "1": {"label": "acceptor", "atom_type": "Cs"}}

>  <level_of_theory>  (2) 
wb97xd/def2tzvp

>  <lot_method>  (2) 
wb97xd

>  <lot_basis>  (2) 
def2tzvp

>  <spin_multiplicity>  (2) 
1.0

>  <optical_isomers>  (2) 
1.0

>  <modes>  (2) 
IdealGasTranslation(mass=(88.0524, 'amu')),         NonlinearRotor(             inertia = ([44.5755, 319.739, 354.742

>  <frequency_value>  (2) 
unknown

>  <frequency_units>  (2) 
unknown

>  <frequency_list>  (2) 
unknown

>  <arkane_path>  (2) 
/home/calvin/Dropbox/PersonalFolders/Calvin/ATLAS_Converged/rmg_rxn_1339/output/Species/rmg_rxn_1339_p2_COCCC=O/arkane/output.py

>  <path_exists>  (2) 
True

>  <E0_value>  (2) 
-807523.0692133828

>  <E0_units>  (2) 
kJ/mol

>  <thermo_class>  (2) 
NASA

>  <Cp0_value>  (2) 
33.257888

>  <Cp0_units>  (2) 
J/(mol*K)

>  <CpInf_value>  (2) 
332.57888

>  <CpInf_units>  (2) 
J/(mol*K)

>  <Tmin_value>  (2) 
10.0

>  <Tmin_units>  (2) 
K

>  <Tmax_value>  (2) 
3000.0

>  <Tmax_units>  (2) 
K

>  <polynomials>  (2) 
[{"name": "polynomial1", "class": "NASAPolynomial", "Tmin_value": 10.0, "Tmin_units": "K", "Tmax_value": 1204.677878169956, "Tmax_units": "K", "coeffs": [3.790465311208139, 0.030699920677143125, 9.705173370391078e-06, -2.2350985107123487e-08, 7.493684368045059e-12, -97122593.77472001, 10.236283451255074]}, {"name": "polynomial2", "class": "NASAPolynomial", "Tmin_value": 1204.677878169956, "Tmin_units": "K", "Tmax_value": 3000.0, "Tmax_units": "K", "coeffs": [7.657827754436762, 0.03474573361246971, -1.635919198395561e-05, 3.709149991149387e-09, -3.292149943200658e-13, -97124750.91916926, -14.227492678605005]}]

>  <H298_value>  (2) 
-192997.60667747093

>  <H298_units>  (2) 
kcal/mol

>  <S298_value>  (2) 
81.92862073686686

>  <S298_units>  (2) 
cal/(mol*K)

>  <Cp_T_value_list>  (2) 
[26.491706935587295, 32.55965635598301, 38.23623996575659, 43.41578980901889, 52.039814351960636, 58.3011782557252, 67.20727720396616, 71.77449485623696, 73.8671854880944]

>  <Cp_T_units>  (2) 
cal/(mol*K)

>  <T_list>  (2) 
[300.0, 400.0, 500.0, 600.0, 800.0, 1000.0, 1500.0, 2000.0, 2400.0]

>  <T_units>  (2) 
K

>  <yaml_path>  (2) 
/home/calvin/Dropbox/PersonalFolders/Calvin/ATLAS_Converged/rmg_rxn_1339/output/Species/rmg_rxn_1339_p2_COCCC=O/rmg_rxn_1339_p2_COCCC=O.yml

>  <frequencies_cm1>  (2) 
[119.45120964139998, 126.72334709527999, 181.116737815, 228.09378438912, 254.05098889872, 316.95257442992, 441.25187570724, 683.77319625368, 694.6779689418399, 886.61707562116, 906.60000290236, 959.42772096912, 1080.58194296988, 1116.1185920008797, 1122.2714108475998, 1168.5411579337601, 1202.02457835408, 1219.26071150728, 1296.5280303279199, 1314.7186744406, 1384.4597773505197, 1408.2744824402798, 1440.37763881128, 1463.0798922791998, 1479.6361938857199, 1483.0628195603997, 1499.1178312385598, 1681.9513153835596, 2935.04566356248, 2975.2106606991597, 2980.62871211664, 3013.01341488576, 3021.32933410828, 3049.1680925955598, 3058.9329457206, 3074.12271724844]

>  <ZPE_kJmol>  (2) 
306.640018612928

>  <E_elec_kJmol>  (2) 
-807829.7092319957

>  <E0_minus_Eelec_plus_ZPE_kJmol>  (2) 
0.0

>  <rxn>  (2) 
rmg_rxn_1339

>  <species_type>  (2) 
p1

>  <species_folder>  (2) 
rmg_rxn_1339_p2_COCCC=O

>  <frequencies_cm1_list>  (2) 
[119.45120964139998, 126.72334709527999, 181.116737815, 228.09378438912, 254.05098889872, 316.95257442992, 441.25187570724, 683.77319625368, 694.6779689418399, 886.61707562116, 906.60000290236, 959.42772096912, 1080.58194296988, 1116.1185920008797, 1122.2714108475998, 1168.5411579337601, 1202.02457835408, 1219.26071150728, 1296.5280303279199, 1314.7186744406, 1384.4597773505197, 1408.2744824402798, 1440.37763881128, 1463.0798922791998, 1479.6361938857199, 1483.0628195603997, 1499.1178312385598, 1681.9513153835596, 2935.04566356248, 2975.2106606991597, 2980.62871211664, 3013.01341488576, 3021.32933410828, 3049.1680925955598, 3058.9329457206, 3074.12271724844]

>  <E0_kJmol>  (2) 
-807523

>  <H298_kJmol>  (2) 
-807502

$$$$

     RDKit          3D

 22 20  0  0  0  0  0  0  0  0999 V2000
   -3.6328    0.2956    0.9952 C   0  0  0  0  0  0  0  0  0  1  0  0
   -3.3790   -0.6107   -0.1946 C   0  0  0  0  0  0  0  0  0  2  0  0
   -1.6308   -1.0884   -0.2762 S   0  0  0  0  0  1  0  0  0  3  0  0
   -3.0515    1.2214    0.9273 H   0  0  0  0  0  0  0  0  0  4  0  0
   -3.3866   -0.2019    1.9394 H   0  0  0  0  0  0  0  0  0  5  0  0
   -4.6917    0.5723    1.0333 H   0  0  0  0  0  0  0  0  0  6  0  0
   -3.6488   -0.1004   -1.1241 H   0  0  0  0  0  0  0  0  0  7  0  0
   -3.9867   -1.5170   -0.1150 H   0  0  0  0  0  0  0  0  0  8  0  0
   -1.0407    0.3957   -0.4751 H   0  0  0  0  0  0  0  0  0  9  0  0
   -0.5592    1.6065   -0.6374 C   0  0  0  0  0  0  0  0  0 10  0  0
    0.7430    1.7040   -0.0737 O   0  0  0  0  0  0  0  0  0 11  0  0
    1.4534    0.4691   -0.1827 C   0  0  0  0  0  0  0  0  0 12  0  0
    2.8247    0.6574    0.4386 C   0  0  0  0  0  0  0  0  0 13  0  0
    3.6500   -0.5968    0.3703 C   0  0  0  0  0  0  0  0  0 14  0  0
    3.2702   -1.6524   -0.1262 O   0  0  0  0  0  0  0  0  0 15  0  0
   -1.0551    2.5745   -0.5270 H   0  0  0  0  0  0  0  0  0 16  0  0
   -0.4982    1.3642   -1.7027 H   0  0  0  0  0  0  0  0  0 17  0  0
    1.5454    0.1911   -1.2394 H   0  0  0  0  0  0  0  0  0 18  0  0
    0.8998   -0.3198    0.3404 H   0  0  0  0  0  0  0  0  0 19  0  0
    3.3691    1.4583   -0.0733 H   0  0  0  0  0  0  0  0  0 20  0  0
    2.7306    0.9530    1.4891 H   0  0  0  0  0  0  0  0  0 21  0  0
    4.6596   -0.5164    0.8089 H   0  0  0  0  0  0  0  0  0 22  0  0
  1  4  1  0
  1  5  1  0
  1  6  1  0
  1  2  1  0
  2  8  1  0
  2  3  1  0
  2  7  1  0
  9 10  1  0
 10 16  1  0
 10 11  1  0
 10 17  1  0
 11 12  1  0
 12 19  1  0
 12 18  1  0
 12 13  1  0
 13 20  1  0
 13 21  1  0
 13 14  1  0
 14 22  1  0
 14 15  1  0
M  RAD  1   3   2
M  END
>  <rmg_smiles>  (3) 
COCC[CH][O].CC[S]

>  <rmg_adjacency_list>  (3) 
multiplicity 2
1  S u1 p2 c0 {7,S}
2  O u0 p2 c0 {5,S} {8,S}
3  O u0 p2 c0 {9,S}
4  C u0 p0 c0 {5,S} {9,S} {10,S} {11,S}
5  C u0 p0 c0 {2,S} {4,S} {12,S} {13,S}
6  C u0 p0 c0 {7,S} {14,S} {15,S} {16,S}
7  C u0 p0 c0 {1,S} {6,S} {17,S} {18,S}
8  C u0 p0 c0 {2,S} {19,S} {20,S} {21,S}
9  C u0 p0 c0 {3,S} {4,S} {22,S}
10 H u0 p0 c0 {4,S}
11 H u0 p0 c0 {4,S}
12 H u0 p0 c0 {5,S}
13 H u0 p0 c0 {5,S}
14 H u0 p0 c0 {6,S}
15 H u0 p0 c0 {6,S}
16 H u0 p0 c0 {6,S}
17 H u0 p0 c0 {7,S}
18 H u0 p0 c0 {7,S}
19 H u0 p0 c0 {8,S}
20 H u0 p0 c0 {8,S}
21 H u0 p0 c0 {8,S}
22 H u0 p0 c0 {9,S}


>  <multiplicity>  (3) 
2

>  <reaction>  (3) 
rmg_rxn_1339

>  <type>  (3) 
ts

>  <role_mapnums>  (3) 
{"*2": 9, "*1": 3, "*3": 10, "*0": 11, "*4": 2}

>  <role_mapidx>  (3) 
{"*2": 8, "*1": 2, "*3": 9, "*0": 10, "*4": 1}

>  <ordered_mapped_smiles>  (3) 
[C:1]([C:2]([S:3])([H:7])[H:8])([H:4])([H:5])[H:6].[H:9][C:10]([O:11][C:12]([C:13]([CH:14]([OH:15])[H:22])([H:20])[H:21])([H:18])[H:19])([H:16])[H:17]

>  <mol_properties>  (3) 
{"1": {"label": "*4", "atom_type": "Cs"}, "2": {"label": "*1", "atom_type": "S2s"}, "8": {"label": "*2", "atom_type": "H0"}, "9": {"label": "*3", "atom_type": "Cs"}, "10": {"label": "*0", "atom_type": "O2s"}}

>  <level_of_theory>  (3) 
wb97xd/def2tzvp

>  <lot_method>  (3) 
wb97xd

>  <lot_basis>  (3) 
def2tzvp

>  <spin_multiplicity>  (3) 
2.0

>  <optical_isomers>  (3) 
2.0

>  <modes>  (3) 
IdealGasTranslation(mass=(149.064, 'amu')),         NonlinearRotor(             inertia = ([232.072, 1002.99, 1156.42

>  <frequency_value>  (3) 
-1432.65

>  <frequency_units>  (3) 
cm^-1

>  <frequency_list>  (3) 
unknown

>  <arkane_path>  (3) 
/home/calvin/Dropbox/PersonalFolders/Calvin/ATLAS_Converged/rmg_rxn_1339/output/rxns/TS0/arkane/output.py

>  <path_exists>  (3) 
True

>  <E0_value>  (3) 
-2060690.0

>  <E0_units>  (3) 
kJ/mol

>  <thermo_class>  (3) 
unknown

>  <Cp0_value>  (3) 
unknown

>  <Cp0_units>  (3) 
unknown

>  <CpInf_value>  (3) 
unknown

>  <CpInf_units>  (3) 
unknown

>  <Tmin_value>  (3) 
unknown

>  <Tmin_units>  (3) 
unknown

>  <Tmax_value>  (3) 
unknown

>  <Tmax_units>  (3) 
unknown

>  <polynomials>  (3) 
unknown

>  <H298_value>  (3) 
unknown

>  <H298_units>  (3) 
unknown

>  <S298_value>  (3) 
unknown

>  <S298_units>  (3) 
unknown

>  <Cp_T_value_list>  (3) 
unknown

>  <Cp_T_units>  (3) 
unknown

>  <T_list>  (3) 
unknown

>  <T_units>  (3) 
unknown

>  <yaml_path>  (3) 
unknown

>  <frequencies_cm1>  (3) 
unknown

>  <ZPE_kJmol>  (3) 
unknown

>  <E_elec_kJmol>  (3) 
unknown

>  <E0_minus_Eelec_plus_ZPE_kJmol>  (3) 
unknown

>  <rxn>  (3) 
unknown

>  <species_type>  (3) 
unknown

>  <species_folder>  (3) 
unknown

>  <frequencies_cm1_list>  (3) 
[]

>  <ts_imag_freq_cm1>  (3) 
-1450.05

>  <ts_freq_out_path>  (3) 
/home/calvin/Dropbox/PersonalFolders/Calvin/ATLAS_Converged/rmg_rxn_1339/output/rxns/TS0/geometry/freq.out

>  <E0_kJmol>  (3) 
-2.06069e+06

>  <H298_kJmol>  (3) 
unknown

$$$$

     RDKit          3D

  8  7  0  0  0  0  0  0  0  0999 V2000
   -1.6169   -0.3329    0.0001 C   0  0  0  0  0  0  0  0  0  1  0  0
   -0.4305    0.6172   -0.0001 C   0  0  0  0  0  0  0  0  0  2  0  0
    1.1839   -0.1594   -0.0001 S   0  0  0  0  0  1  0  0  0  3  0  0
   -1.6012   -0.9738    0.8819 H   0  0  0  0  0  0  0  0  0  4  0  0
   -1.6000   -0.9753   -0.8807 H   0  0  0  0  0  0  0  0  0  5  0  0
   -2.5551    0.2268   -0.0020 H   0  0  0  0  0  0  0  0  0  6  0  0
   -0.4493    1.2812    0.8705 H   0  0  0  0  0  0  0  0  0  7  0  0
   -0.4522    1.2851   -0.8673 H   0  0  0  0  0  0  0  0  0  8  0  0
  1  5  1  0
  1  4  1  0
  1  6  1  0
  1  2  1  0
  2  8  1  0
  2  3  1  0
  2  7  1  0
M  RAD  1   3   2
M  END
>  <rmg_smiles>  (4) 
CC[S]

>  <rmg_adjacency_list>  (4) 
multiplicity 2
1 S u1 p2 c0 {3,S}
2 C u0 p0 c0 {3,S} {4,S} {5,S} {6,S}
3 C u0 p0 c0 {1,S} {2,S} {7,S} {8,S}
4 H u0 p0 c0 {2,S}
5 H u0 p0 c0 {2,S}
6 H u0 p0 c0 {2,S}
7 H u0 p0 c0 {3,S}
8 H u0 p0 c0 {3,S}


>  <multiplicity>  (4) 
2

>  <reaction>  (4) 
rmg_rxn_1339

>  <type>  (4) 
r1

>  <role_mapnums>  (4) 
{}

>  <role_mapidx>  (4) 
{}

>  <ordered_mapped_smiles>  (4) 
[C:1]([C:2]([S:3])([H:7])[H:8])([H:4])([H:5])[H:6]

>  <level_of_theory>  (4) 
wb97xd/def2tzvp

>  <lot_method>  (4) 
wb97xd

>  <lot_basis>  (4) 
def2tzvp

>  <spin_multiplicity>  (4) 
2.0

>  <optical_isomers>  (4) 
1.0

>  <modes>  (4) 
IdealGasTranslation(mass=(61.0112, 'amu')),         NonlinearRotor(             inertia = ([15.0527, 92.9616, 101.839

>  <frequency_value>  (4) 
unknown

>  <frequency_units>  (4) 
unknown

>  <frequency_list>  (4) 
unknown

>  <arkane_path>  (4) 
/home/calvin/Dropbox/PersonalFolders/Calvin/ATLAS_Converged/rmg_rxn_1339/output/Species/rmg_rxn_1339_p1_CCsbr-S-sbr/arkane/output.py

>  <path_exists>  (4) 
True

>  <E0_value>  (4) 
-1253208.9185605997

>  <E0_units>  (4) 
kJ/mol

>  <thermo_class>  (4) 
NASA

>  <Cp0_value>  (4) 
33.257888

>  <Cp0_units>  (4) 
J/(mol*K)

>  <CpInf_value>  (4) 
182.918384

>  <CpInf_units>  (4) 
J/(mol*K)

>  <Tmin_value>  (4) 
10.0

>  <Tmin_units>  (4) 
K

>  <Tmax_value>  (4) 
3000.0

>  <Tmax_units>  (4) 
K

>  <polynomials>  (4) 
[{"name": "polynomial1", "class": "NASAPolynomial", "Tmin_value": 10.0, "Tmin_units": "K", "Tmax_value": 439.5257437319796, "Tmax_units": "K", "coeffs": [3.971332492600562, 0.0017403322942627275, 6.642846977684784e-05, -1.1844352750193869e-07, 6.916831890051913e-11, -150726216.46166947, 8.835149389513024]}, {"name": "polynomial2", "class": "NASAPolynomial", "Tmin_value": 439.5257437319796, "Tmin_units": "K", "Tmax_value": 3000.0, "Tmax_units": "K", "coeffs": [1.3713194486799267, 0.025396259688034082, -1.4283076861757463e-05, 3.947283896045598e-09, -4.291102536658995e-13, -150725987.8486112, 19.242011058098168]}]

>  <H298_value>  (4) 
-299520.8468630362

>  <H298_units>  (4) 
kcal/mol

>  <S298_value>  (4) 
67.60463006694792

>  <S298_units>  (4) 
cal/(mol*K)

>  <Cp_T_value_list>  (4) 
[15.568337315704635, 18.851324026602132, 21.7902581605444, 24.371434823428743, 28.600678400625164, 31.800621615622973, 36.72059241019404, 39.23548163734409, 40.50368844043758]

>  <Cp_T_units>  (4) 
cal/(mol*K)

>  <T_list>  (4) 
[300.0, 400.0, 500.0, 600.0, 800.0, 1000.0, 1500.0, 2000.0, 2400.0]

>  <T_units>  (4) 
K

>  <yaml_path>  (4) 
/home/calvin/Dropbox/PersonalFolders/Calvin/ATLAS_Converged/rmg_rxn_1339/output/Species/rmg_rxn_1339_p1_CCsbr-S-sbr/rmg_rxn_1339_p1_CCsbr-S-sbr.yml

>  <frequencies_cm1>  (4) 
[225.15471467216, 334.1818405978, 490.21348103884, 681.83670639344, 904.5605082623199, 980.5711687694, 1069.3956238836, 1246.1174910938, 1278.26184937672, 1403.3714549218, 1419.57067329168, 1475.67394335608, 1482.4928597788398, 3000.1240834401196, 3017.33274865204, 3021.01345278356, 3090.4524083394, 3104.31685170048]

>  <ZPE_kJmol>  (4) 
168.8208970985797

>  <E_elec_kJmol>  (4) 
-1253377.7394576983

>  <E0_minus_Eelec_plus_ZPE_kJmol>  (4) 
0.0

>  <rxn>  (4) 
rmg_rxn_1339

>  <species_type>  (4) 
p0

>  <species_folder>  (4) 
rmg_rxn_1339_p1_CCsbr-S-sbr

>  <frequencies_cm1_list>  (4) 
[225.15471467216, 334.1818405978, 490.21348103884, 681.83670639344, 904.5605082623199, 980.5711687694, 1069.3956238836, 1246.1174910938, 1278.26184937672, 1403.3714549218, 1419.57067329168, 1475.67394335608, 1482.4928597788398, 3000.1240834401196, 3017.33274865204, 3021.01345278356, 3090.4524083394, 3104.31685170048]

>  <E0_kJmol>  (4) 
-1.25321e+06

>  <H298_kJmol>  (4) 
-1.2532e+06

$$$$

     RDKit          3D

 13 12  0  0  0  0  0  0  0  0999 V2000
   -2.7070   -0.4344   -0.2055 C   0  0  0  0  0  3  0  0  0  1  0  0
   -1.6720    0.4487    0.0704 O   0  0  0  0  0  0  0  0  0  2  0  0
   -0.3991   -0.2089    0.0000 C   0  0  0  0  0  0  0  0  0  3  0  0
    0.6760    0.8635    0.0035 C   0  0  0  0  0  0  0  0  0  4  0  0
    2.0575    0.2721   -0.0091 C   0  0  0  0  0  0  0  0  0  5  0  0
    2.2973   -0.9310   -0.0033 O   0  0  0  0  0  0  0  0  0  6  0  0
   -3.6755    0.0422    0.2382 H   0  0  0  0  0  0  0  0  0  7  0  0
   -2.5094   -1.4767    0.5114 H   0  0  0  0  0  0  0  0  0  8  0  0
   -0.3167   -0.8506   -0.8718 H   0  0  0  0  0  0  0  0  0  9  0  0
   -0.2954   -0.8300    0.9139 H   0  0  0  0  0  0  0  0  0 10  0  0
    0.5688    1.4911   -0.8987 H   0  0  0  0  0  0  0  0  0 11  0  0
    0.5799    1.5212    0.8631 H   0  0  0  0  0  0  0  0  0 12  0  0
    2.8808    1.0068   -0.0260 H   0  0  0  0  0  0  0  0  0 13  0  0
  1  8  1  0
  1  7  1  0
  1  2  1  0
  2  3  1  0
  3  4  1  0
  3  9  1  0
  3 10  1  0
  4  5  1  0
  4 12  1  0
  4 11  1  0
  5  6  1  0
  5 13  1  0
M  RAD  1   1   2
M  END
>  <rmg_smiles>  (5) 
[CH2]OCC[CH]O

>  <rmg_adjacency_list>  (5) 
multiplicity 2
1  O u0 p2 c0 {4,S} {6,S}
2  O u0 p2 c0 {5,S}
3  C u0 p0 c0 {4,S} {5,S} {7,S} {8,S}
4  C u0 p0 c0 {1,S} {3,S} {9,S} {10,S}
5  C u0 p0 c0 {2,S} {3,S} {11,S}
6  C u1 p0 c0 {1,S} {12,S} {13,S}
7  H u0 p0 c0 {3,S}
8  H u0 p0 c0 {3,S}
9  H u0 p0 c0 {4,S}
10 H u0 p0 c0 {4,S}
11 H u0 p0 c0 {5,S}
12 H u0 p0 c0 {6,S}
13 H u0 p0 c0 {6,S}


>  <multiplicity>  (5) 
2

>  <reaction>  (5) 
rmg_rxn_1339

>  <type>  (5) 
r2

>  <role_mapnums>  (5) 
{}

>  <role_mapidx>  (5) 
{}

>  <ordered_mapped_smiles>  (5) 
[C:1]([O:2][C:3]([C:4]([CH:5]([OH:6])[H:13])([H:11])[H:12])([H:9])[H:10])([H:7])[H:8]

>  <level_of_theory>  (5) 
wb97xd/def2tzvp

>  <lot_method>  (5) 
wb97xd

>  <lot_basis>  (5) 
def2tzvp

>  <spin_multiplicity>  (5) 
2.0

>  <optical_isomers>  (5) 
2.0

>  <modes>  (5) 
IdealGasTranslation(mass=(87.0446, 'amu')),         NonlinearRotor(             inertia = ([42.6978, 308.679, 343.305

>  <frequency_value>  (5) 
unknown

>  <frequency_units>  (5) 
unknown

>  <frequency_list>  (5) 
unknown

>  <arkane_path>  (5) 
/home/calvin/Dropbox/PersonalFolders/Calvin/ATLAS_Converged/rmg_rxn_1339/output/Species/rmg_rxn_1339_r2_sbr-CH2-sbrOCCC=O/arkane/output.py

>  <path_exists>  (5) 
True

>  <E0_value>  (5) 
-805817.2707726001

>  <E0_units>  (5) 
kJ/mol

>  <thermo_class>  (5) 
NASA

>  <Cp0_value>  (5) 
33.257888

>  <Cp0_units>  (5) 
J/(mol*K)

>  <CpInf_value>  (5) 
307.635464

>  <CpInf_units>  (5) 
J/(mol*K)

>  <Tmin_value>  (5) 
10.0

>  <Tmin_units>  (5) 
K

>  <Tmax_value>  (5) 
3000.0

>  <Tmax_units>  (5) 
K

>  <polynomials>  (5) 
[{"name": "polynomial1", "class": "NASAPolynomial", "Tmin_value": 10.0, "Tmin_units": "K", "Tmax_value": 848.7481586044175, "Tmax_units": "K", "coeffs": [3.8391832038762055, 0.017648908552463077, 5.587439355546979e-05, -8.223625298538009e-08, 3.285208394099403e-11, -96917433.13816744, 11.66847398088421]}, {"name": "polynomial2", "class": "NASAPolynomial", "Tmin_value": 848.7481586044175, "Tmin_units": "K", "Tmax_value": 3000.0, "Tmax_units": "K", "coeffs": [1.3874589095296035, 0.04688441111892003, -2.7041477707297145e-05, 7.435878454552619e-09, -7.904896269928865e-13, -96917653.80354828, 19.342890965820466]}]

>  <H298_value>  (5) 
-192590.4344562697

>  <H298_units>  (5) 
kcal/mol

>  <S298_value>  (5) 
80.72095618465457

>  <S298_units>  (5) 
cal/(mol*K)

>  <Cp_T_value_list>  (5) 
[24.26036193304411, 30.635853978169912, 36.57644235906376, 41.806670424041755, 49.81762549684448, 55.394933517948274, 63.521029559920144, 67.22632935172831, 68.99217135295126]

>  <Cp_T_units>  (5) 
cal/(mol*K)

>  <T_list>  (5) 
[300.0, 400.0, 500.0, 600.0, 800.0, 1000.0, 1500.0, 2000.0, 2400.0]

>  <T_units>  (5) 
K

>  <yaml_path>  (5) 
/home/calvin/Dropbox/PersonalFolders/Calvin/ATLAS_Converged/rmg_rxn_1339/output/Species/rmg_rxn_1339_r2_sbr-CH2-sbrOCCC=O/rmg_rxn_1339_r2_sbr-CH2-sbrOCCC=O.yml

>  <frequencies_cm1>  (5) 
[136.21352080751998, 205.837884967, 226.22596438207998, 282.70005165376, 343.22566026423993, 493.44783112455997, 683.39551206108, 700.78271889132, 817.63820808176, 887.17330143208, 910.562253432, 984.2175379743198, 1086.60428909552, 1114.2507719938399, 1134.06202464204, 1217.44096039748, 1289.09108522636, 1298.6842637184, 1307.69374845824, 1330.11445552804, 1385.4142883099998, 1413.0882391496, 1444.51843095924, 1495.6843385785598, 1501.4457392620398, 1681.2783508221999, 1686.83374194608, 2455.7712901383993, 2883.4128009413994, 2934.66797936988, 2953.5727899558397, 3113.5117450439598, 3127.9392812012798]

>  <ZPE_kJmol>  (5) 
266.3276965840741

>  <E_elec_kJmol>  (5) 
-806083.5984691841

>  <E0_minus_Eelec_plus_ZPE_kJmol>  (5) 
0.0

>  <rxn>  (5) 
rmg_rxn_1339

>  <species_type>  (5) 
r1

>  <species_folder>  (5) 
rmg_rxn_1339_r2_sbr-CH2-sbrOCCC=O

>  <frequencies_cm1_list>  (5) 
[136.21352080751998, 205.837884967, 226.22596438207998, 282.70005165376, 343.22566026423993, 493.44783112455997, 683.39551206108, 700.78271889132, 817.63820808176, 887.17330143208, 910.562253432, 984.2175379743198, 1086.60428909552, 1114.2507719938399, 1134.06202464204, 1217.44096039748, 1289.09108522636, 1298.6842637184, 1307.69374845824, 1330.11445552804, 1385.4142883099998, 1413.0882391496, 1444.51843095924, 1495.6843385785598, 1501.4457392620398, 1681.2783508221999, 1686.83374194608, 2455.7712901383993, 2883.4128009413994, 2934.66797936988, 2953.5727899558397, 3113.5117450439598, 3127.9392812012798]

>  <E0_kJmol>  (5) 
-805817

>  <H298_kJmol>  (5) 
-805798

$$$$
