
     RDKit          3D

 14 13  0  0  0  0  0  0  0  0999 V2000
   -0.7017   -1.6203   -1.1330 C   0  0  0  0  0  0  0  0  0  1  0  0
   -0.5472   -1.5615    0.1822 C   0  0  0  0  0  0  0  0  0  2  0  0
   -0.3812   -0.4616    0.9585 O   0  0  0  0  0  0  0  0  0  3  0  0
   -0.5930    0.7976    0.3806 C   0  0  0  0  0  0  0  0  0  4  0  0
    0.4019    1.1870   -0.5110 O   0  0  0  0  0  0  0  0  0  5  0  0
    1.6537    1.3746    0.0499 C   0  0  0  0  0  0  0  0  0  6  0  0
   -0.6707   -0.7519   -1.7749 H   0  0  0  0  0  0  0  0  0  7  0  0
   -0.8495   -2.5877   -1.5903 H   0  0  0  0  0  0  0  0  0  8  0  0
   -0.5356   -2.4509    0.8002 H   0  0  0  0  0  0  0  0  0  9  0  0
   -0.6419    1.4875    1.2282 H   0  0  0  0  0  0  0  0  0 10  0  0
   -1.5271    0.8025   -0.1859 H   0  0  0  0  0  0  0  0  0 11  0  0
    2.1437    0.4136    0.2120 H   0  0  0  0  0  0  0  0  0 12  0  0
    2.2874    1.9027   -0.6582 H   0  0  0  0  0  0  0  0  0 13  0  0
    1.6261    1.8486    1.0360 H   0  0  0  0  0  0  0  0  0 14  0  0
  1  8  1  0
  1  7  1  0
  1  2  1  0
  2  9  1  0
  2  3  1  0
  3  4  1  0
  4 11  1  0
  4 10  1  0
  4  5  1  0
  5  6  1  0
  6 14  1  0
  6 13  1  0
  6 12  1  0
M  END
>  <rmg_smiles>  (1) 
[CH2][CH]OCOC

>  <rmg_adjacency_list>  (1) 
1  O u0 p2 c0 {3,S} {4,S}
2  O u0 p2 c0 {3,S} {5,S}
3  C u0 p0 c0 {1,S} {2,S} {7,S} {8,S}
4  C u0 p0 c0 {1,S} {9,S} {10,S} {11,S}
5  C u0 p0 c0 {2,S} {6,S} {12,S}
6  C u0 p0 c0 {5,S} {13,S} {14,S}
7  H u0 p0 c0 {3,S}
8  H u0 p0 c0 {3,S}
9  H u0 p0 c0 {4,S}
10 H u0 p0 c0 {4,S}
11 H u0 p0 c0 {4,S}
12 H u0 p0 c0 {5,S}
13 H u0 p0 c0 {6,S}
14 H u0 p0 c0 {6,S}


>  <multiplicity>  (1) 
1

>  <reaction>  (1) 
rmg_rxn_15477

>  <type>  (1) 
r1h

>  <role_mapnums>  (1) 
{"r1h_a": 6, "r1h_h": 12}

>  <role_mapidx>  (1) 
{"r1h_a": 5, "r1h_h": 11}

>  <ordered_mapped_smiles>  (1) 
[CH:1]([CH:2]([O:3][C:4]([O:5][C:6]([H:12])([H:13])[H:14])([H:10])[H:11])[H:9])([H:7])[H:8]

>  <mol_properties>  (1) 
{"5": {"label": "donator", "atom_type": "Cs"}, "11": {"label": "d_hydrogen", "atom_type": "H0"}}

>  <level_of_theory>  (1) 
wb97xd/def2tzvp

>  <lot_method>  (1) 
wb97xd

>  <lot_basis>  (1) 
def2tzvp

>  <spin_multiplicity>  (1) 
1.0

>  <optical_isomers>  (1) 
2.0

>  <modes>  (1) 
IdealGasTranslation(mass=(88.0524, 'amu')),         NonlinearRotor(inertia=([74.6, 207.265, 226.772

>  <frequency_value>  (1) 
unknown

>  <frequency_units>  (1) 
unknown

>  <frequency_list>  (1) 
unknown

>  <arkane_path>  (1) 
/home/calvin/Dropbox/PersonalFolders/Calvin/ZEUS_Converged/rmg_rxn_15477/output/Species/rmg_rxn_15477_r2_C=COCOC/arkane/output.py

>  <path_exists>  (1) 
True

>  <E0_value>  (1) 
-807464.8692773131

>  <E0_units>  (1) 
kJ/mol

>  <thermo_class>  (1) 
NASA

>  <Cp0_value>  (1) 
33.257888

>  <Cp0_units>  (1) 
J/(mol*K)

>  <CpInf_value>  (1) 
332.57888

>  <CpInf_units>  (1) 
J/(mol*K)

>  <Tmin_value>  (1) 
10.0

>  <Tmin_units>  (1) 
K

>  <Tmax_value>  (1) 
3000.0

>  <Tmax_units>  (1) 
K

>  <polynomials>  (1) 
[{"name": "polynomial1", "class": "NASAPolynomial", "Tmin_value": 10.0, "Tmin_units": "K", "Tmax_value": 1126.322217082228, "Tmax_units": "K", "coeffs": [3.8695009715898734, 0.028498370923579583, 1.702204581962229e-05, -3.0641721490768154e-08, 1.0501478828757013e-11, -97115598.34059127, 10.802000825127106]}, {"name": "polynomial2", "class": "NASAPolynomial", "Tmin_value": 1126.322217082228, "Tmin_units": "K", "Tmax_value": 3000.0, "Tmax_units": "K", "coeffs": [6.6832996486708485, 0.036558954023596386, -1.7755798377607594e-05, 4.174165742581221e-09, -3.8503179432622687e-13, -97117377.32166298, -8.19117627442157]}]

>  <H298_value>  (1) 
-192983.7541683184

>  <H298_units>  (1) 
kcal/mol

>  <S298_value>  (1) 
83.15593660548997

>  <S298_units>  (1) 
cal/(mol*K)

>  <Cp_T_value_list>  (1) 
[26.248477842824045, 32.39175282831716, 38.15501091629452, 43.3982844934546, 52.01543094609469, 58.12514441573683, 66.98827460021275, 71.5609582964223, 73.68686306629188]

>  <Cp_T_units>  (1) 
cal/(mol*K)

>  <T_list>  (1) 
[300.0, 400.0, 500.0, 600.0, 800.0, 1000.0, 1500.0, 2000.0, 2400.0]

>  <T_units>  (1) 
K

>  <yaml_path>  (1) 
/home/calvin/Dropbox/PersonalFolders/Calvin/ZEUS_Converged/rmg_rxn_15477/output/Species/rmg_rxn_15477_r2_C=COCOC/rmg_rxn_15477_r2_C=COCOC.yml

>  <frequencies_cm1>  (1) 
[74.04670270556, 138.48649294843997, 165.9063653312, 221.56328134979998, 286.20908115227996, 409.34786191051995, 520.22220688724, 668.65896156436, 725.4145952341601, 872.38868203812, 904.47123745316, 964.57795995912, 1001.1995926706799, 1023.65463466708, 1124.2216346784799, 1173.32057971648, 1192.9807586876398, 1223.71738497996, 1242.86254005212, 1330.47153876468, 1353.0501864968398, 1415.64275768864, 1444.00340706024, 1470.2558919386001, 1478.18039299788, 1491.75642297552, 1501.1229909519998, 1698.2672725038801, 2978.5205476233996, 2998.8330901999593, 3051.1320503970796, 3063.76730338588, 3117.3572568231602, 3151.18402650948, 3170.4459203320794, 3245.9552909107997]

>  <ZPE_kJmol>  (1) 
310.3903354231273

>  <E_elec_kJmol>  (1) 
-807775.2596127363

>  <E0_minus_Eelec_plus_ZPE_kJmol>  (1) 
0.0

>  <rxn>  (1) 
rmg_rxn_15477

>  <species_type>  (1) 
r1

>  <species_folder>  (1) 
rmg_rxn_15477_r2_C=COCOC

>  <frequencies_cm1_list>  (1) 
[74.04670270556, 138.48649294843997, 165.9063653312, 221.56328134979998, 286.20908115227996, 409.34786191051995, 520.22220688724, 668.65896156436, 725.4145952341601, 872.38868203812, 904.47123745316, 964.57795995912, 1001.1995926706799, 1023.65463466708, 1124.2216346784799, 1173.32057971648, 1192.9807586876398, 1223.71738497996, 1242.86254005212, 1330.47153876468, 1353.0501864968398, 1415.64275768864, 1444.00340706024, 1470.2558919386001, 1478.18039299788, 1491.75642297552, 1501.1229909519998, 1698.2672725038801, 2978.5205476233996, 2998.8330901999593, 3051.1320503970796, 3063.76730338588, 3117.3572568231602, 3151.18402650948, 3170.4459203320794, 3245.9552909107997]

>  <E0_kJmol>  (1) 
-807465

>  <H298_kJmol>  (1) 
-807444

$$$$

     RDKit          3D

  6  5  0  0  0  0  0  0  0  0999 V2000
    0.7245   -0.7587    0.3513 O   0  0  0  0  0  0  0  0  0  1  0  0
    0.0877    0.4749    0.1373 N   0  0  0  0  0  0  0  0  0  2  0  0
   -0.9410    0.4012   -0.5552 C   0  0  0  0  0  0  0  0  0  3  0  0
    1.4790   -0.5144    0.8921 H   0  0  0  0  0  0  0  0  0  4  0  0
   -1.3996   -0.4788   -1.0053 H   0  0  0  0  0  0  0  0  0  5  0  0
   -1.4365    1.3591   -0.7107 H   0  0  0  0  0  0  0  0  0  6  0  0
  1  4  1  0
  1  2  1  0
  2  3  1  0
  3  6  1  0
  3  5  1  0
M  END
>  <rmg_smiles>  (2) 
[CH2][N]O

>  <rmg_adjacency_list>  (2) 
1 O u0 p2 c0 {2,S} {6,S}
2 N u0 p1 c0 {1,S} {3,S}
3 C u0 p0 c0 {2,S} {4,S} {5,S}
4 H u0 p0 c0 {3,S}
5 H u0 p0 c0 {3,S}
6 H u0 p0 c0 {1,S}


>  <multiplicity>  (2) 
1

>  <reaction>  (2) 
rmg_rxn_15477

>  <type>  (2) 
r2h

>  <role_mapnums>  (2) 
{"r2h_a": 3, "r2h_h": 6}

>  <role_mapidx>  (2) 
{"r2h_a": 2, "r2h_h": 5}

>  <ordered_mapped_smiles>  (2) 
[O:1]([NH:2][CH:3]([H:5])[H:6])[H:4]

>  <mol_properties>  (2) 
{"2": {"label": "acceptor", "atom_type": "Cs"}, "5": {"label": "a_hydrogen", "atom_type": "H0"}}

>  <level_of_theory>  (2) 
wb97xd/def2tzvp

>  <lot_method>  (2) 
wb97xd

>  <lot_basis>  (2) 
def2tzvp

>  <spin_multiplicity>  (2) 
1.0

>  <optical_isomers>  (2) 
1.0

>  <modes>  (2) 
IdealGasTranslation(mass=(45.0215, 'amu')),         NonlinearRotor(             inertia = ([7.10552, 42.1368, 49.2423

>  <frequency_value>  (2) 
unknown

>  <frequency_units>  (2) 
unknown

>  <frequency_list>  (2) 
unknown

>  <arkane_path>  (2) 
/home/calvin/Dropbox/PersonalFolders/Calvin/ZEUS_Converged/rmg_rxn_15477/output/Species/rmg_rxn_15477_p1_ON=C/arkane/output.py

>  <path_exists>  (2) 
True

>  <E0_value>  (2) 
-445765.04652910994

>  <E0_units>  (2) 
kJ/mol

>  <thermo_class>  (2) 
NASA

>  <Cp0_value>  (2) 
33.257888

>  <Cp0_units>  (2) 
J/(mol*K)

>  <CpInf_value>  (2) 
133.031552

>  <CpInf_units>  (2) 
J/(mol*K)

>  <Tmin_value>  (2) 
10.0

>  <Tmin_units>  (2) 
K

>  <Tmax_value>  (2) 
3000.0

>  <Tmax_units>  (2) 
K

>  <polynomials>  (2) 
[{"name": "polynomial1", "class": "NASAPolynomial", "Tmin_value": 10.0, "Tmin_units": "K", "Tmax_value": 555.0008285415723, "Tmax_units": "K", "coeffs": [4.0729558966761115, -0.006525504673073184, 8.044401869233928e-05, -1.3643340673050255e-07, 7.605604608176978e-11, -53613151.050707266, 6.598063650688069]}, {"name": "polynomial2", "class": "NASAPolynomial", "Tmin_value": 555.0008285415723, "Tmin_units": "K", "Tmax_value": 3000.0, "Tmax_units": "K", "coeffs": [1.9629419554542669, 0.01794293278685335, -1.0716899102514014e-05, 3.1351804200574135e-09, -3.5588210478784073e-13, -53613059.472560614, 14.250328412630774]}]

>  <H298_value>  (2) 
-106537.6194767193

>  <H298_units>  (2) 
kcal/mol

>  <S298_value>  (2) 
60.36296822828259

>  <S298_units>  (2) 
cal/(mol*K)

>  <Cp_T_value_list>  (2) 
[12.494795700177992, 15.001608210431446, 17.130783734283074, 18.881829280437152, 21.69615330289245, 23.7834318087242, 26.9145239767162, 28.553257692891545, 29.47039525924992]

>  <Cp_T_units>  (2) 
cal/(mol*K)

>  <T_list>  (2) 
[300.0, 400.0, 500.0, 600.0, 800.0, 1000.0, 1500.0, 2000.0, 2400.0]

>  <T_units>  (2) 
K

>  <yaml_path>  (2) 
/home/calvin/Dropbox/PersonalFolders/Calvin/ZEUS_Converged/rmg_rxn_15477/output/Species/rmg_rxn_15477_p1_ON=C/rmg_rxn_15477_p1_ON=C.yml

>  <frequencies_cm1>  (2) 
[438.20980121048, 539.7244451960399, 801.7205361099999, 965.59427378648, 986.4836431299199, 1183.2914424011199, 1353.5034075279598, 1444.4016922088, 1728.97643085492, 3083.6403589019596, 3214.03754314344, 3841.1169085952]

>  <ZPE_kJmol>  (2) 
117.11863122037906

>  <E_elec_kJmol>  (2) 
-445882.1651603303

>  <E0_minus_Eelec_plus_ZPE_kJmol>  (2) 
0.0

>  <rxn>  (2) 
rmg_rxn_15477

>  <species_type>  (2) 
p0

>  <species_folder>  (2) 
rmg_rxn_15477_p1_ON=C

>  <frequencies_cm1_list>  (2) 
[438.20980121048, 539.7244451960399, 801.7205361099999, 965.59427378648, 986.4836431299199, 1183.2914424011199, 1353.5034075279598, 1444.4016922088, 1728.97643085492, 3083.6403589019596, 3214.03754314344, 3841.1169085952]

>  <E0_kJmol>  (2) 
-445765

>  <H298_kJmol>  (2) 
-445753

$$$$

     RDKit          3D

 19 17  0  0  0  0  0  0  0  0999 V2000
    3.3057   -1.6346    1.0845 O   0  0  0  0  0  0  0  0  0  1  0  0
    2.6688   -0.4010    0.8706 N   0  0  0  0  0  0  0  0  0  2  0  0
    1.6401   -0.4747    0.1780 C   0  0  0  0  0  3  0  0  0  3  0  0
    4.0601   -1.3903    1.6253 H   0  0  0  0  0  0  0  0  0  4  0  0
    1.1815   -1.3547   -0.2720 H   0  0  0  0  0  0  0  0  0  5  0  0
   -1.9351   -1.0953   -1.3974 C   0  0  0  0  0  0  0  0  0  6  0  0
   -1.7806   -1.0365   -0.0822 C   0  0  0  0  0  0  0  0  0  7  0  0
   -1.6147    0.0633    0.6941 O   0  0  0  0  0  0  0  0  0  8  0  0
   -1.8264    1.3226    0.1162 C   0  0  0  0  0  0  0  0  0  9  0  0
   -0.8316    1.7120   -0.7754 O   0  0  0  0  0  0  0  0  0 10  0  0
    0.4202    1.8996   -0.2145 C   0  0  0  0  0  0  0  0  0 11  0  0
   -1.9042   -0.2269   -2.0393 H   0  0  0  0  0  0  0  0  0 12  0  0
   -2.0830   -2.0627   -1.8547 H   0  0  0  0  0  0  0  0  0 13  0  0
   -1.7691   -1.9259    0.5359 H   0  0  0  0  0  0  0  0  0 14  0  0
   -1.8754    2.0125    0.9638 H   0  0  0  0  0  0  0  0  0 15  0  0
   -2.7605    1.3275   -0.4503 H   0  0  0  0  0  0  0  0  0 16  0  0
    0.9893    0.7836   -0.0263 H   0  0  0  0  0  0  0  0  0 17  0  0
    1.0540    2.4277   -0.9226 H   0  0  0  0  0  0  0  0  0 18  0  0
    0.3926    2.3736    0.7716 H   0  0  0  0  0  0  0  0  0 19  0  0
  1  4  1  0
  1  2  1  0
  2  3  1  0
  3  5  1  0
  6 13  1  0
  6  7  1  0
  6 12  1  0
  7 14  1  0
  7  8  1  0
  8  9  1  0
  9 10  1  0
  9 15  1  0
  9 16  1  0
 10 11  1  0
 11 19  1  0
 11 18  1  0
 11 17  1  0
M  RAD  1   3   2
M  END
>  <rmg_smiles>  (3) 
COCO[CH][CH2].[CH][N]O

>  <rmg_adjacency_list>  (3) 
multiplicity 2
1  O u0 p2 c0 {5,S} {6,S}
2  O u0 p2 c0 {5,S} {7,S}
3  O u0 p2 c0 {4,S} {18,S}
4  N u0 p1 c0 {3,S} {9,S}
5  C u0 p0 c0 {1,S} {2,S} {10,S} {11,S}
6  C u0 p0 c0 {1,S} {12,S} {13,S} {14,S}
7  C u0 p0 c0 {2,S} {8,S} {15,S}
8  C u0 p0 c0 {7,S} {16,S} {17,S}
9  C u1 p1 c0 {4,S} {19,S}
10 H u0 p0 c0 {5,S}
11 H u0 p0 c0 {5,S}
12 H u0 p0 c0 {6,S}
13 H u0 p0 c0 {6,S}
14 H u0 p0 c0 {6,S}
15 H u0 p0 c0 {7,S}
16 H u0 p0 c0 {8,S}
17 H u0 p0 c0 {8,S}
18 H u0 p0 c0 {3,S}
19 H u0 p0 c0 {9,S}


>  <multiplicity>  (3) 
2

>  <reaction>  (3) 
rmg_rxn_15477

>  <type>  (3) 
ts

>  <role_mapnums>  (3) 
{"*2": 17, "*1": 11, "*3": 3, "*0": 10, "*4": 2}

>  <role_mapidx>  (3) 
{"*2": 16, "*1": 10, "*3": 2, "*0": 9, "*4": 1}

>  <ordered_mapped_smiles>  (3) 
[O:1]([NH:2][CH:3][H:5])[H:4].[CH:6]([CH:7]([O:8][C:9]([O:10][C:11]([H:17])([H:18])[H:19])([H:15])[H:16])[H:14])([H:12])[H:13]

>  <mol_properties>  (3) 
{"1": {"label": "*4", "atom_type": "N3s"}, "2": {"label": "*3", "atom_type": "C2s"}, "9": {"label": "*0", "atom_type": "O2s"}, "10": {"label": "*1", "atom_type": "Cs"}, "16": {"label": "*2", "atom_type": "H0"}}

>  <level_of_theory>  (3) 
wb97xd/def2tzvp

>  <lot_method>  (3) 
wb97xd

>  <lot_basis>  (3) 
def2tzvp

>  <spin_multiplicity>  (3) 
2.0

>  <optical_isomers>  (3) 
2.0

>  <modes>  (3) 
IdealGasTranslation(mass=(132.066, 'amu')),         NonlinearRotor(             inertia = ([230.659, 645.612, 777.53

>  <frequency_value>  (3) 
-1540.97

>  <frequency_units>  (3) 
cm^-1

>  <frequency_list>  (3) 
unknown

>  <arkane_path>  (3) 
/home/calvin/Dropbox/PersonalFolders/Calvin/ZEUS_Converged/rmg_rxn_15477/output/rxns/TS0/arkane/output.py

>  <path_exists>  (3) 
True

>  <E0_value>  (3) 
-1251440.0

>  <E0_units>  (3) 
kJ/mol

>  <thermo_class>  (3) 
unknown

>  <Cp0_value>  (3) 
unknown

>  <Cp0_units>  (3) 
unknown

>  <CpInf_value>  (3) 
unknown

>  <CpInf_units>  (3) 
unknown

>  <Tmin_value>  (3) 
unknown

>  <Tmin_units>  (3) 
unknown

>  <Tmax_value>  (3) 
unknown

>  <Tmax_units>  (3) 
unknown

>  <polynomials>  (3) 
unknown

>  <H298_value>  (3) 
unknown

>  <H298_units>  (3) 
unknown

>  <S298_value>  (3) 
unknown

>  <S298_units>  (3) 
unknown

>  <Cp_T_value_list>  (3) 
unknown

>  <Cp_T_units>  (3) 
unknown

>  <T_list>  (3) 
unknown

>  <T_units>  (3) 
unknown

>  <yaml_path>  (3) 
unknown

>  <frequencies_cm1>  (3) 
unknown

>  <ZPE_kJmol>  (3) 
unknown

>  <E_elec_kJmol>  (3) 
unknown

>  <E0_minus_Eelec_plus_ZPE_kJmol>  (3) 
unknown

>  <rxn>  (3) 
unknown

>  <species_type>  (3) 
unknown

>  <species_folder>  (3) 
unknown

>  <frequencies_cm1_list>  (3) 
[]

>  <ts_imag_freq_cm1>  (3) 
-1559.6907

>  <ts_freq_out_path>  (3) 
/home/calvin/Dropbox/PersonalFolders/Calvin/ZEUS_Converged/rmg_rxn_15477/output/rxns/TS0/geometry/freq.out

>  <E0_kJmol>  (3) 
-1.25144e+06

>  <H298_kJmol>  (3) 
unknown

$$$$

     RDKit          3D

 13 12  0  0  0  0  0  0  0  0999 V2000
    2.6140   -0.1760    0.1061 C   0  0  0  0  0  3  0  0  0  1  0  0
    1.7369    0.6015    0.7849 O   0  0  0  0  0  0  0  0  0  2  0  0
    0.3829    0.2955    0.5984 C   0  0  0  0  0  0  0  0  0  3  0  0
    0.0214   -0.9610    1.0915 O   0  0  0  0  0  0  0  0  0  4  0  0
   -0.0421   -1.1265    2.4384 C   0  0  0  0  0  0  0  0  0  5  0  0
    0.3542   -0.2893    3.3854 C   0  0  0  0  0  0  0  0  0  6  0  0
    3.6468    0.0574    0.3129 H   0  0  0  0  0  0  0  0  0  7  0  0
    2.2997   -1.1687   -0.1909 H   0  0  0  0  0  0  0  0  0  8  0  0
    0.1461    0.2666   -0.4670 H   0  0  0  0  0  0  0  0  0  9  0  0
   -0.1746    1.0839    1.1083 H   0  0  0  0  0  0  0  0  0 10  0  0
   -0.4863   -2.0871    2.6674 H   0  0  0  0  0  0  0  0  0 11  0  0
    0.8422    0.6530    3.1826 H   0  0  0  0  0  0  0  0  0 12  0  0
    0.2043   -0.5722    4.4170 H   0  0  0  0  0  0  0  0  0 13  0  0
  1  8  1  0
  1  7  1  0
  1  2  1  0
  2  3  1  0
  3  4  1  0
  3  9  1  0
  3 10  1  0
  4  5  1  0
  5 11  1  0
  5  6  1  0
  6 12  1  0
  6 13  1  0
M  RAD  1   1   2
M  END
>  <rmg_smiles>  (4) 
[CH2][CH]OCO[CH2]

>  <rmg_adjacency_list>  (4) 
multiplicity 2
1  O u0 p2 c0 {3,S} {4,S}
2  O u0 p2 c0 {3,S} {6,S}
3  C u0 p0 c0 {1,S} {2,S} {7,S} {8,S}
4  C u0 p0 c0 {1,S} {5,S} {9,S}
5  C u0 p0 c0 {4,S} {10,S} {11,S}
6  C u1 p0 c0 {2,S} {12,S} {13,S}
7  H u0 p0 c0 {3,S}
8  H u0 p0 c0 {3,S}
9  H u0 p0 c0 {4,S}
10 H u0 p0 c0 {5,S}
11 H u0 p0 c0 {5,S}
12 H u0 p0 c0 {6,S}
13 H u0 p0 c0 {6,S}


>  <multiplicity>  (4) 
2

>  <reaction>  (4) 
rmg_rxn_15477

>  <type>  (4) 
r1

>  <role_mapnums>  (4) 
{}

>  <role_mapidx>  (4) 
{}

>  <ordered_mapped_smiles>  (4) 
[C:1]([O:2][C:3]([O:4][CH:5]([CH:6]([H:12])[H:13])[H:11])([H:9])[H:10])([H:7])[H:8]

>  <level_of_theory>  (4) 
wb97xd/def2tzvp

>  <lot_method>  (4) 
wb97xd

>  <lot_basis>  (4) 
def2tzvp

>  <spin_multiplicity>  (4) 
2.0

>  <optical_isomers>  (4) 
2.0

>  <modes>  (4) 
IdealGasTranslation(mass=(87.0446, 'amu')),         NonlinearRotor(             inertia = ([72.7273, 199.476, 220.908

>  <frequency_value>  (4) 
unknown

>  <frequency_units>  (4) 
unknown

>  <frequency_list>  (4) 
unknown

>  <arkane_path>  (4) 
/home/calvin/Dropbox/PersonalFolders/Calvin/ZEUS_Converged/rmg_rxn_15477/output/Species/rmg_rxn_15477_p2_sbr-CH2-sbrOCOC=C/arkane/output.py

>  <path_exists>  (4) 
True

>  <E0_value>  (4) 
-805750.711592887

>  <E0_units>  (4) 
kJ/mol

>  <thermo_class>  (4) 
NASA

>  <Cp0_value>  (4) 
33.257888

>  <Cp0_units>  (4) 
J/(mol*K)

>  <CpInf_value>  (4) 
307.635464

>  <CpInf_units>  (4) 
J/(mol*K)

>  <Tmin_value>  (4) 
10.0

>  <Tmin_units>  (4) 
K

>  <Tmax_value>  (4) 
3000.0

>  <Tmax_units>  (4) 
K

>  <polynomials>  (4) 
[{"name": "polynomial1", "class": "NASAPolynomial", "Tmin_value": 10.0, "Tmin_units": "K", "Tmax_value": 795.833183974657, "Tmax_units": "K", "coeffs": [3.6724417656433466, 0.029821680697272538, 2.0678152124366964e-05, -4.852398163950526e-08, 2.215152792395944e-11, -96909423.41612482, 12.022685191557494]}, {"name": "polynomial2", "class": "NASAPolynomial", "Tmin_value": 795.833183974657, "Tmin_units": "K", "Tmax_value": 3000.0, "Tmax_units": "K", "coeffs": [3.3688646664144435, 0.042491831872105854, -2.420776744185498e-05, 6.6726121260221715e-09, -7.152020713564091e-13, -96909728.00973469, 11.200688031175948]}]

>  <H298_value>  (4) 
-192574.037039463

>  <H298_units>  (4) 
kcal/mol

>  <S298_value>  (4) 
84.18914479572827

>  <S298_units>  (4) 
cal/(mol*K)

>  <Cp_T_value_list>  (4) 
[26.527735336734747, 32.53288089472878, 37.899590906671776, 42.524714673169235, 49.66583405243175, 54.86744545512572, 62.67349468233981, 66.4901857675222, 68.41161567804997]

>  <Cp_T_units>  (4) 
cal/(mol*K)

>  <T_list>  (4) 
[300.0, 400.0, 500.0, 600.0, 800.0, 1000.0, 1500.0, 2000.0, 2400.0]

>  <T_units>  (4) 
K

>  <yaml_path>  (4) 
/home/calvin/Dropbox/PersonalFolders/Calvin/ZEUS_Converged/rmg_rxn_15477/output/Species/rmg_rxn_15477_p2_sbr-CH2-sbrOCOC=C/rmg_rxn_15477_p2_sbr-CH2-sbrOCOC=C.yml

>  <frequencies_cm1>  (4) 
[76.86216668676, 146.69940739115998, 181.7004315672, 260.23814267204, 288.06316718868, 406.52553094399997, 518.1071754086801, 574.4233220179999, 660.8031303582799, 723.2789627996399, 874.46937859008, 906.81287944728, 980.6467056079199, 1000.80817450744, 1037.944831118, 1128.2388210906797, 1214.24781222368, 1224.7336988073198, 1265.413719843, 1331.5908573718398, 1353.20126017388, 1416.0685107784798, 1439.55360057288, 1472.40525834376, 1500.951316319, 1699.97715184856, 3028.2924572227603, 3089.51163135056, 3117.30918792592, 3151.7951882029597, 3176.8665516062797, 3244.2248106101597, 3258.02058411804]

>  <ZPE_kJmol>  (4) 
273.6445664469421

>  <E_elec_kJmol>  (4) 
-806024.3561593338

>  <E0_minus_Eelec_plus_ZPE_kJmol>  (4) 
0.0

>  <rxn>  (4) 
rmg_rxn_15477

>  <species_type>  (4) 
p1

>  <species_folder>  (4) 
rmg_rxn_15477_p2_sbr-CH2-sbrOCOC=C

>  <frequencies_cm1_list>  (4) 
[76.86216668676, 146.69940739115998, 181.7004315672, 260.23814267204, 288.06316718868, 406.52553094399997, 518.1071754086801, 574.4233220179999, 660.8031303582799, 723.2789627996399, 874.46937859008, 906.81287944728, 980.6467056079199, 1000.80817450744, 1037.944831118, 1128.2388210906797, 1214.24781222368, 1224.7336988073198, 1265.413719843, 1331.5908573718398, 1353.20126017388, 1416.0685107784798, 1439.55360057288, 1472.40525834376, 1500.951316319, 1699.97715184856, 3028.2924572227603, 3089.51163135056, 3117.30918792592, 3151.7951882029597, 3176.8665516062797, 3244.2248106101597, 3258.02058411804]

>  <E0_kJmol>  (4) 
-805751

>  <H298_kJmol>  (4) 
-805730

$$$$

     RDKit          3D

  5  4  0  0  0  0  0  0  0  0999 V2000
    0.8934    0.3742    0.4948 O   0  0  0  0  0  0  0  0  0  1  0  0
    0.1582   -0.1610   -0.5904 N   0  0  0  0  0  0  0  0  0  2  0  0
   -1.0297   -0.3739   -0.4689 C   0  0  0  0  0  3  0  0  0  3  0  0
    1.7805    0.4382    0.1306 H   0  0  0  0  0  0  0  0  0  4  0  0
   -1.8023   -0.2775    0.2859 H   0  0  0  0  0  0  0  0  0  5  0  0
  1  4  1  0
  1  2  1  0
  2  3  1  0
  3  5  1  0
M  RAD  1   3   2
M  END
>  <rmg_smiles>  (5) 
[CH][N]O

>  <rmg_adjacency_list>  (5) 
multiplicity 2
1 O u0 p2 c0 {2,S} {4,S}
2 N u0 p1 c0 {1,S} {3,S}
3 C u1 p1 c0 {2,S} {5,S}
4 H u0 p0 c0 {1,S}
5 H u0 p0 c0 {3,S}


>  <multiplicity>  (5) 
2

>  <reaction>  (5) 
rmg_rxn_15477

>  <type>  (5) 
r2

>  <role_mapnums>  (5) 
{}

>  <role_mapidx>  (5) 
{}

>  <ordered_mapped_smiles>  (5) 
[O:1]([NH:2][CH:3][H:5])[H:4]

>  <level_of_theory>  (5) 
wb97xd/def2tzvp

>  <lot_method>  (5) 
wb97xd

>  <lot_basis>  (5) 
def2tzvp

>  <spin_multiplicity>  (5) 
2.0

>  <optical_isomers>  (5) 
1.0

>  <modes>  (5) 
IdealGasTranslation(mass=(44.0136, 'amu')),         NonlinearRotor(             inertia = ([5.81591, 41.4826, 47.2985

>  <frequency_value>  (5) 
unknown

>  <frequency_units>  (5) 
unknown

>  <frequency_list>  (5) 
unknown

>  <arkane_path>  (5) 
/home/calvin/Dropbox/PersonalFolders/Calvin/ZEUS_Converged/rmg_rxn_15477/output/Species/rmg_rxn_15477_r1_ON=sbr-CH-sbr/arkane/output.py

>  <path_exists>  (5) 
True

>  <E0_value>  (5) 
-444005.359324532

>  <E0_units>  (5) 
kJ/mol

>  <thermo_class>  (5) 
NASA

>  <Cp0_value>  (5) 
33.257888

>  <Cp0_units>  (5) 
J/(mol*K)

>  <CpInf_value>  (5) 
108.088136

>  <CpInf_units>  (5) 
J/(mol*K)

>  <Tmin_value>  (5) 
10.0

>  <Tmin_units>  (5) 
K

>  <Tmax_value>  (5) 
3000.0

>  <Tmax_units>  (5) 
K

>  <polynomials>  (5) 
[{"name": "polynomial1", "class": "NASAPolynomial", "Tmin_value": 10.0, "Tmin_units": "K", "Tmax_value": 581.5521855773558, "Tmax_units": "K", "coeffs": [3.9651854378376354, 0.0020096300724220997, 4.068547950040168e-05, -7.790242028845132e-08, 4.4772375189871534e-11, -53401508.17068676, 6.828671301777145]}, {"name": "polynomial2", "class": "NASAPolynomial", "Tmin_value": 581.5521855773558, "Tmin_units": "K", "Tmax_value": 3000.0, "Tmax_units": "K", "coeffs": [3.5849357627708427, 0.012844035212889389, -8.4590302800557e-06, 2.7367089532336234e-09, -3.401217371194876e-13, -53401602.928060964, 7.262096783490094]}]

>  <H298_value>  (5) 
-106116.84893693788

>  <H298_units>  (5) 
kcal/mol

>  <S298_value>  (5) 
62.05085615552054

>  <S298_units>  (5) 
cal/(mol*K)

>  <Cp_T_value_list>  (5) 
[12.895099247909474, 14.783091657217865, 16.298752276569193, 17.47381546838603, 19.292328661132526, 20.6004316585094, 22.520408903315662, 23.62512089396801, 24.312373577063074]

>  <Cp_T_units>  (5) 
cal/(mol*K)

>  <T_list>  (5) 
[300.0, 400.0, 500.0, 600.0, 800.0, 1000.0, 1500.0, 2000.0, 2400.0]

>  <T_units>  (5) 
K

>  <yaml_path>  (5) 
/home/calvin/Dropbox/PersonalFolders/Calvin/ZEUS_Converged/rmg_rxn_15477/output/Species/rmg_rxn_15477_r1_ON=sbr-CH-sbr/rmg_rxn_15477_r1_ON=sbr-CH-sbr.yml

>  <frequencies_cm1>  (5) 
[407.41137205027997, 410.42597860575995, 739.51938308144, 761.67227772376, 903.0703724478799, 1348.68965081864, 1755.81260948548, 3154.3291057860397, 3817.47387813844]

>  <ZPE_kJmol>  (5) 
79.54214655441899

>  <E_elec_kJmol>  (5) 
-444084.9014710864

>  <E0_minus_Eelec_plus_ZPE_kJmol>  (5) 
0.0

>  <rxn>  (5) 
rmg_rxn_15477

>  <species_type>  (5) 
r0

>  <species_folder>  (5) 
rmg_rxn_15477_r1_ON=sbr-CH-sbr

>  <frequencies_cm1_list>  (5) 
[407.41137205027997, 410.42597860575995, 739.51938308144, 761.67227772376, 903.0703724478799, 1348.68965081864, 1755.81260948548, 3154.3291057860397, 3817.47387813844]

>  <E0_kJmol>  (5) 
-444005

>  <H298_kJmol>  (5) 
-443993

$$$$
