
     RDKit          3D

 10  9  0  0  0  0  0  0  0  0999 V2000
    0.0626    0.2021   -2.0417 C   0  0  0  0  0  0  0  0  0  1  0  0
    0.0120    0.0558   -0.5938 C   0  0  0  0  0  2  0  0  0  2  0  0
   -0.0414   -0.0710    0.5999 C   0  0  0  0  0  2  0  0  0  3  0  0
   -0.0591   -0.1992    2.0283 C   0  0  0  0  0  0  0  0  0  4  0  0
    1.0133   -0.1604   -2.4365 H   0  0  0  0  0  0  0  0  0  5  0  0
   -0.0481    1.2483   -2.3316 H   0  0  0  0  0  0  0  0  0  6  0  0
   -0.7384   -0.3666   -2.5178 H   0  0  0  0  0  0  0  0  0  7  0  0
   -0.0479   -1.2317    2.3750 H   0  0  0  0  0  0  0  0  0  8  0  0
   -0.8555    0.3675    2.5086 H   0  0  0  0  0  0  0  0  0  9  0  0
    0.8567    0.2295    2.4330 H   0  0  0  0  0  0  0  0  0 10  0  0
  1  5  1  0
  1  7  1  0
  1  6  1  0
  1  2  1  0
  2  3  1  0
  3  4  1  0
  4  8  1  0
  4  9  1  0
  4 10  1  0
M  RAD  2   2   3   3   3
M  END
>  <rmg_smiles>  (1) 
C[C][C]C

>  <rmg_adjacency_list>  (1) 
1  C u0 p0 c0 {3,S} {5,S} {6,S} {7,S}
2  C u0 p0 c0 {4,S} {8,S} {9,S} {10,S}
3  C u0 p1 c0 {1,S} {4,S}
4  C u0 p1 c0 {2,S} {3,S}
5  H u0 p0 c0 {1,S}
6  H u0 p0 c0 {1,S}
7  H u0 p0 c0 {1,S}
8  H u0 p0 c0 {2,S}
9  H u0 p0 c0 {2,S}
10 H u0 p0 c0 {2,S}


>  <multiplicity>  (1) 
1

>  <reaction>  (1) 
rmg_rxn_3113

>  <type>  (1) 
r1h

>  <role_mapnums>  (1) 
{"r1h_a": 4, "r1h_h": 10}

>  <role_mapidx>  (1) 
{"r1h_a": 3, "r1h_h": 9}

>  <ordered_mapped_smiles>  (1) 
[C:1]([C:2][C:3][C:4]([H:8])([H:9])[H:10])([H:5])([H:6])[H:7]

>  <mol_properties>  (1) 
{"3": {"label": "donator", "atom_type": "Cs"}, "9": {"label": "d_hydrogen", "atom_type": "H0"}}

>  <level_of_theory>  (1) 
wb97xd/def2tzvp

>  <lot_method>  (1) 
wb97xd

>  <lot_basis>  (1) 
def2tzvp

>  <spin_multiplicity>  (1) 
1.0

>  <optical_isomers>  (1) 
2.0

>  <modes>  (1) 
IdealGasTranslation(mass=(54.047, 'amu')),         NonlinearRotor(             inertia = ([6.28532, 149.436, 149.436

>  <frequency_value>  (1) 
unknown

>  <frequency_units>  (1) 
unknown

>  <frequency_list>  (1) 
unknown

>  <arkane_path>  (1) 
/home/calvin/Dropbox/PersonalFolders/Calvin/ATLAS_Converged/rmg_rxn_3113/output/Species/rmg_rxn_3113_r2_CCtCC/arkane/output.py

>  <path_exists>  (1) 
True

>  <E0_value>  (1) 
-409307.6694927636

>  <E0_units>  (1) 
kJ/mol

>  <thermo_class>  (1) 
NASA

>  <Cp0_value>  (1) 
33.257888

>  <Cp0_units>  (1) 
J/(mol*K)

>  <CpInf_value>  (1) 
232.805216

>  <CpInf_units>  (1) 
J/(mol*K)

>  <Tmin_value>  (1) 
10.0

>  <Tmin_units>  (1) 
K

>  <Tmax_value>  (1) 
3000.0

>  <Tmax_units>  (1) 
K

>  <polynomials>  (1) 
[{"name": "polynomial1", "class": "NASAPolynomial", "Tmin_value": 10.0, "Tmin_units": "K", "Tmax_value": 464.06242457459604, "Tmax_units": "K", "coeffs": [3.692327413176776, 0.031015840519612793, -7.562491845473793e-05, 1.7646731922404102e-07, -1.4060267867377427e-10, -49228341.22574224, 7.885723657285193]}, {"name": "polynomial2", "class": "NASAPolynomial", "Tmin_value": 464.06242457459604, "Tmin_units": "K", "Tmax_value": 3000.0, "Tmax_units": "K", "coeffs": [1.3669882589581752, 0.03204569364352473, -1.7496022058118956e-05, 4.670587893902884e-09, -4.888953248503915e-13, -49227920.67387797, 19.524753977616793]}]

>  <H298_value>  (1) 
-97822.722075197

>  <H298_units>  (1) 
kcal/mol

>  <S298_value>  (1) 
71.70940087176196

>  <S298_units>  (1) 
cal/(mol*K)

>  <Cp_T_value_list>  (1) 
[19.507557344736686, 23.2367166622897, 26.964597959536903, 30.28765546344781, 35.764110180043964, 39.93957657444633, 46.41653484158141, 49.71327985111846, 51.36014583508234]

>  <Cp_T_units>  (1) 
cal/(mol*K)

>  <T_list>  (1) 
[300.0, 400.0, 500.0, 600.0, 800.0, 1000.0, 1500.0, 2000.0, 2400.0]

>  <T_units>  (1) 
K

>  <yaml_path>  (1) 
/home/calvin/Dropbox/PersonalFolders/Calvin/ATLAS_Converged/rmg_rxn_3113/output/Species/rmg_rxn_3113_r2_CCtCC/rmg_rxn_3113_r2_CCtCC.yml

>  <frequencies_cm1>  (1) 
[29.81645025944, 201.34687656772, 202.02670811439998, 411.19508096159996, 412.11525699448, 722.0291714714, 1040.8701668643198, 1041.3096539248002, 1055.0779594914, 1055.44190971336, 1163.29478114928, 1403.9139467620798, 1405.14313713436, 1467.7494422968, 1467.9211169298, 1468.0103877389602, 1468.34000303432, 2367.78460723324, 3017.0512022539197, 3017.9507773308396, 3086.1811434703595, 3086.9502458262, 3087.37599891604, 3087.73308215268]

>  <ZPE_kJmol>  (1) 
219.91334167413072

>  <E_elec_kJmol>  (1) 
-409527.5828344377

>  <E0_minus_Eelec_plus_ZPE_kJmol>  (1) 
0.0

>  <rxn>  (1) 
rmg_rxn_3113

>  <species_type>  (1) 
r1

>  <species_folder>  (1) 
rmg_rxn_3113_r2_CCtCC

>  <frequencies_cm1_list>  (1) 
[29.81645025944, 201.34687656772, 202.02670811439998, 411.19508096159996, 412.11525699448, 722.0291714714, 1040.8701668643198, 1041.3096539248002, 1055.0779594914, 1055.44190971336, 1163.29478114928, 1403.9139467620798, 1405.14313713436, 1467.7494422968, 1467.9211169298, 1468.0103877389602, 1468.34000303432, 2367.78460723324, 3017.0512022539197, 3017.9507773308396, 3086.1811434703595, 3086.9502458262, 3087.37599891604, 3087.73308215268]

>  <E0_kJmol>  (1) 
-409308

>  <H298_kJmol>  (1) 
-409290

$$$$

     RDKit          3D

  4  3  0  0  0  0  0  0  0  0999 V2000
    0.0264    0.0122    0.0133 C   0  0  0  0  0  3  0  0  0  1  0  0
    0.6990    0.4254   -0.7266 H   0  0  0  0  0  0  0  0  0  2  0  0
    0.1847   -0.0079    1.0835 H   0  0  0  0  0  0  0  0  0  3  0  0
   -0.8857   -0.4164   -0.3803 H   0  0  0  0  0  0  0  0  0  4  0  0
  1  3  1  0
  1  4  1  0
  1  2  1  0
M  RAD  1   1   2
M  END
>  <rmg_smiles>  (2) 
[CH3]

>  <rmg_adjacency_list>  (2) 
multiplicity 2
1 C u1 p0 c0 {2,S} {3,S} {4,S}
2 H u0 p0 c0 {1,S}
3 H u0 p0 c0 {1,S}
4 H u0 p0 c0 {1,S}


>  <multiplicity>  (2) 
2

>  <reaction>  (2) 
rmg_rxn_3113

>  <type>  (2) 
r2h

>  <role_mapnums>  (2) 
{"r2h_a": 1, "r2h_h": 4}

>  <role_mapidx>  (2) 
{"r2h_a": 0, "r2h_h": 3}

>  <ordered_mapped_smiles>  (2) 
[C:1]([H:2])([H:3])[H:4]

>  <mol_properties>  (2) 
{"0": {"label": "acceptor", "atom_type": "Cs"}, "3": {"label": "a_hydrogen", "atom_type": "H0"}}

>  <level_of_theory>  (2) 
wb97xd/def2tzvp

>  <lot_method>  (2) 
wb97xd

>  <lot_basis>  (2) 
def2tzvp

>  <spin_multiplicity>  (2) 
2.0

>  <optical_isomers>  (2) 
1.0

>  <modes>  (2) 
IdealGasTranslation(mass=(15.0235, 'amu')),         NonlinearRotor(             inertia = ([1.76141, 1.76141, 3.52282

>  <frequency_value>  (2) 
unknown

>  <frequency_units>  (2) 
unknown

>  <frequency_list>  (2) 
unknown

>  <arkane_path>  (2) 
/home/calvin/Dropbox/PersonalFolders/Calvin/ATLAS_Converged/rmg_rxn_3113/output/Species/rmg_rxn_3113_p1_sbr-CH3-sbr/arkane/output.py

>  <path_exists>  (2) 
True

>  <E0_value>  (2) 
-104520.13119505523

>  <E0_units>  (2) 
kJ/mol

>  <thermo_class>  (2) 
NASA

>  <Cp0_value>  (2) 
33.257888

>  <Cp0_units>  (2) 
J/(mol*K)

>  <CpInf_value>  (2) 
83.14472

>  <CpInf_units>  (2) 
J/(mol*K)

>  <Tmin_value>  (2) 
10.0

>  <Tmin_units>  (2) 
K

>  <Tmax_value>  (2) 
3000.0

>  <Tmax_units>  (2) 
K

>  <polynomials>  (2) 
[{"name": "polynomial1", "class": "NASAPolynomial", "Tmin_value": 10.0, "Tmin_units": "K", "Tmax_value": 646.7595511850164, "Tmax_units": "K", "coeffs": [3.9912257858476514, 0.00042746838227036415, 9.381039991476058e-06, -1.0944339285143208e-08, 4.263092042587705e-12, -12570867.748455517, 0.20527880717700853]}, {"name": "polynomial2", "class": "NASAPolynomial", "Tmin_value": 646.7595511850164, "Tmin_units": "K", "Tmax_value": 3000.0, "Tmax_units": "K", "coeffs": [3.248853600439243, 0.005018843892609398, -1.2676259453269182e-06, 3.2190850906026965e-11, 2.015866016283914e-14, -12570771.722075555, 3.4632772013773527]}]

>  <H298_value>  (2) 
-24978.38329133143

>  <H298_units>  (2) 
kcal/mol

>  <S298_value>  (2) 
46.49953999396712

>  <S298_units>  (2) 
cal/(mol*K)

>  <Cp_T_value_list>  (2) 
[9.345422381427998, 10.078866905578547, 10.827534708529729, 11.55242757481392, 12.87190518277653, 14.014616975507817, 16.16723326452146, 17.479673013416814, 18.09624915803834]

>  <Cp_T_units>  (2) 
cal/(mol*K)

>  <T_list>  (2) 
[300.0, 400.0, 500.0, 600.0, 800.0, 1000.0, 1500.0, 2000.0, 2400.0]

>  <T_units>  (2) 
K

>  <yaml_path>  (2) 
/home/calvin/Dropbox/PersonalFolders/Calvin/ATLAS_Converged/rmg_rxn_3113/output/Species/rmg_rxn_3113_p1_sbr-CH3-sbr/rmg_rxn_3113_p1_sbr-CH3-sbr.yml

>  <frequencies_cm1>  (2) 
[520.22220688724, 1393.4280601784399, 1393.43492716376, 3088.8592677451597, 3268.6163424668, 3268.6232094521197]

>  <ZPE_kJmol>  (2) 
77.35764153782172

>  <E_elec_kJmol>  (2) 
-104597.48883659308

>  <E0_minus_Eelec_plus_ZPE_kJmol>  (2) 
0.0

>  <rxn>  (2) 
rmg_rxn_3113

>  <species_type>  (2) 
p0

>  <species_folder>  (2) 
rmg_rxn_3113_p1_sbr-CH3-sbr

>  <frequencies_cm1_list>  (2) 
[520.22220688724, 1393.4280601784399, 1393.43492716376, 3088.8592677451597, 3268.6163424668, 3268.6232094521197]

>  <E0_kJmol>  (2) 
-104520

>  <H298_kJmol>  (2) 
-104510

$$$$

     RDKit          3D

 13 11  0  0  0  0  0  0  0  0999 V2000
    1.7140    0.6246    2.4023 C   0  0  0  0  0  2  0  0  0  1  0  0
    2.3865    1.0378    1.6624 H   0  0  0  0  0  0  0  0  0  2  0  0
    1.8723    0.6045    3.4725 H   0  0  0  0  0  0  0  0  0  3  0  0
   -0.4328   -0.0383   -2.6575 C   0  0  0  0  0  0  0  0  0  4  0  0
   -0.4834   -0.1845   -1.2096 C   0  0  0  0  0  0  0  0  0  5  0  0
   -0.5368   -0.3114   -0.0159 C   0  0  0  0  0  0  0  0  0  6  0  0
   -0.5545   -0.4396    1.4125 C   0  0  0  0  0  0  0  0  0  7  0  0
    0.5179   -0.4007   -3.0523 H   0  0  0  0  0  0  0  0  0  8  0  0
   -0.5435    1.0080   -2.9474 H   0  0  0  0  0  0  0  0  0  9  0  0
   -1.2338   -0.6069   -3.1335 H   0  0  0  0  0  0  0  0  0 10  0  0
   -0.5433   -1.4720    1.7593 H   0  0  0  0  0  0  0  0  0 11  0  0
   -1.3509    0.1272    1.8928 H   0  0  0  0  0  0  0  0  0 12  0  0
    0.4893    0.0492    1.8739 H   0  0  0  0  0  0  0  0  0 13  0  0
  1  3  1  0
  1  2  1  0
  4  8  1  0
  4  5  1  0
  4  9  1  0
  4 10  1  0
  5  6  1  0
  6  7  1  0
  7 13  1  0
  7 12  1  0
  7 11  1  0
M  RAD  1   1   3
M  END
>  <rmg_smiles>  (3) 
CCCC.[CH2]

>  <rmg_adjacency_list>  (3) 
multiplicity 3
1  C u0 p0 c0 {3,S} {6,S} {7,S} {8,S}
2  C u0 p0 c0 {4,S} {9,S} {10,S} {11,S}
3  C u0 p1 c0 {1,S} {4,S}
4  C u0 p1 c0 {2,S} {3,S}
5  C u2 p1 c0 {12,S} {13,S}
6  H u0 p0 c0 {1,S}
7  H u0 p0 c0 {1,S}
8  H u0 p0 c0 {1,S}
9  H u0 p0 c0 {2,S}
10 H u0 p0 c0 {2,S}
11 H u0 p0 c0 {2,S}
12 H u0 p0 c0 {5,S}
13 H u0 p0 c0 {5,S}


>  <multiplicity>  (3) 
3

>  <reaction>  (3) 
rmg_rxn_3113

>  <type>  (3) 
ts

>  <role_mapnums>  (3) 
{"*2": 13, "*1": 7, "*3": 1, "*0": 6, "*4": 2}

>  <role_mapidx>  (3) 
{"*2": 12, "*1": 6, "*3": 0, "*0": 5, "*4": 1}

>  <ordered_mapped_smiles>  (3) 
[C:1]([H:2])[H:3].[C:4]([CH2:5][CH2:6][C:7]([H:11])([H:12])[H:13])([H:8])([H:9])[H:10]

>  <mol_properties>  (3) 
{"0": {"label": "*3", "atom_type": "C2s"}, "1": {"label": "*4", "atom_type": "H0"}, "5": {"label": "*0", "atom_type": "C2s"}, "6": {"label": "*1", "atom_type": "Cs"}, "12": {"label": "*2", "atom_type": "H0"}}

>  <level_of_theory>  (3) 
wb97xd/def2tzvp

>  <lot_method>  (3) 
wb97xd

>  <lot_basis>  (3) 
def2tzvp

>  <spin_multiplicity>  (3) 
3.0

>  <optical_isomers>  (3) 
2.0

>  <modes>  (3) 
IdealGasTranslation(mass=(68.0626, 'amu')),         NonlinearRotor(             inertia = ([47.782, 278.896, 320.278

>  <frequency_value>  (3) 
-1370.89

>  <frequency_units>  (3) 
cm^-1

>  <frequency_list>  (3) 
unknown

>  <arkane_path>  (3) 
/home/calvin/Dropbox/PersonalFolders/Calvin/ATLAS_Converged/rmg_rxn_3113/output/rxns/TS0/arkane/output.py

>  <path_exists>  (3) 
True

>  <E0_value>  (3) 
-512036.0

>  <E0_units>  (3) 
kJ/mol

>  <thermo_class>  (3) 
unknown

>  <Cp0_value>  (3) 
unknown

>  <Cp0_units>  (3) 
unknown

>  <CpInf_value>  (3) 
unknown

>  <CpInf_units>  (3) 
unknown

>  <Tmin_value>  (3) 
unknown

>  <Tmin_units>  (3) 
unknown

>  <Tmax_value>  (3) 
unknown

>  <Tmax_units>  (3) 
unknown

>  <polynomials>  (3) 
unknown

>  <H298_value>  (3) 
unknown

>  <H298_units>  (3) 
unknown

>  <S298_value>  (3) 
unknown

>  <S298_units>  (3) 
unknown

>  <Cp_T_value_list>  (3) 
unknown

>  <Cp_T_units>  (3) 
unknown

>  <T_list>  (3) 
unknown

>  <T_units>  (3) 
unknown

>  <yaml_path>  (3) 
unknown

>  <frequencies_cm1>  (3) 
unknown

>  <ZPE_kJmol>  (3) 
unknown

>  <E_elec_kJmol>  (3) 
unknown

>  <E0_minus_Eelec_plus_ZPE_kJmol>  (3) 
unknown

>  <rxn>  (3) 
unknown

>  <species_type>  (3) 
unknown

>  <species_folder>  (3) 
unknown

>  <frequencies_cm1_list>  (3) 
[]

>  <ts_imag_freq_cm1>  (3) 
-1387.5423

>  <ts_freq_out_path>  (3) 
/home/calvin/Dropbox/PersonalFolders/Calvin/ATLAS_Converged/rmg_rxn_3113/output/rxns/TS0/geometry/freq.out

>  <E0_kJmol>  (3) 
-512036

>  <H298_kJmol>  (3) 
unknown

$$$$

     RDKit          3D

  9  8  0  0  0  0  0  0  0  0999 V2000
    2.2285    0.1429   -0.1875 C   0  0  0  0  0  0  0  0  0  1  0  0
    0.8689    0.0588   -0.0734 C   0  0  0  0  0  0  0  0  0  2  0  0
   -0.3436   -0.0148    0.0282 C   0  0  0  0  0  3  0  0  0  3  0  0
   -1.7876   -0.1130    0.1500 C   0  0  0  0  0  0  0  0  0  4  0  0
    2.8646    0.0330    0.6803 H   0  0  0  0  0  0  0  0  0  5  0  0
    2.6934    0.3211   -1.1477 H   0  0  0  0  0  0  0  0  0  6  0  0
   -2.1322    0.3380    1.0826 H   0  0  0  0  0  0  0  0  0  7  0  0
   -2.1068   -1.1583    0.1470 H   0  0  0  0  0  0  0  0  0  8  0  0
   -2.2854    0.3923   -0.6795 H   0  0  0  0  0  0  0  0  0  9  0  0
  1  5  1  0
  1  6  1  0
  1  2  1  0
  2  3  1  0
  3  4  1  0
  4  8  1  0
  4  9  1  0
  4  7  1  0
M  RAD  1   3   2
M  END
>  <rmg_smiles>  (4) 
[CH2]C[C]C

>  <rmg_adjacency_list>  (4) 
multiplicity 2
1 C u0 p0 c0 {3,S} {5,S} {6,S} {7,S}
2 C u0 p0 c0 {4,S} {8,S} {9,S}
3 C u1 p1 c0 {1,S} {4,S}
4 C u0 p1 c0 {2,S} {3,S}
5 H u0 p0 c0 {1,S}
6 H u0 p0 c0 {1,S}
7 H u0 p0 c0 {1,S}
8 H u0 p0 c0 {2,S}
9 H u0 p0 c0 {2,S}


>  <multiplicity>  (4) 
2

>  <reaction>  (4) 
rmg_rxn_3113

>  <type>  (4) 
r1

>  <role_mapnums>  (4) 
{}

>  <role_mapidx>  (4) 
{}

>  <ordered_mapped_smiles>  (4) 
[CH:1]([CH2:2][CH:3][C:4]([H:7])([H:8])[H:9])([H:5])[H:6]

>  <level_of_theory>  (4) 
wb97xd/def2tzvp

>  <lot_method>  (4) 
wb97xd

>  <lot_basis>  (4) 
def2tzvp

>  <spin_multiplicity>  (4) 
2.0

>  <optical_isomers>  (4) 
2.0

>  <modes>  (4) 
IdealGasTranslation(mass=(53.0391, 'amu')),         NonlinearRotor(             inertia = ([4.88746, 139.242, 140.992

>  <frequency_value>  (4) 
unknown

>  <frequency_units>  (4) 
unknown

>  <frequency_list>  (4) 
unknown

>  <arkane_path>  (4) 
/home/calvin/Dropbox/PersonalFolders/Calvin/ATLAS_Converged/rmg_rxn_3113/output/Species/rmg_rxn_3113_p2_sbr-CH2-sbrCtCC/arkane/output.py

>  <path_exists>  (4) 
True

>  <E0_value>  (4) 
-407625.4064849042

>  <E0_units>  (4) 
kJ/mol

>  <thermo_class>  (4) 
NASA

>  <Cp0_value>  (4) 
33.257888

>  <Cp0_units>  (4) 
J/(mol*K)

>  <CpInf_value>  (4) 
207.8618

>  <CpInf_units>  (4) 
J/(mol*K)

>  <Tmin_value>  (4) 
10.0

>  <Tmin_units>  (4) 
K

>  <Tmax_value>  (4) 
3000.0

>  <Tmax_units>  (4) 
K

>  <polynomials>  (4) 
[{"name": "polynomial1", "class": "NASAPolynomial", "Tmin_value": 10.0, "Tmin_units": "K", "Tmax_value": 502.02681672017746, "Tmax_units": "K", "coeffs": [3.6872708306254283, 0.02905362892588458, -4.470123419696922e-05, 7.503439442217303e-08, -5.158529069834182e-11, -49026010.75493381, 10.463726652875142]}, {"name": "polynomial2", "class": "NASAPolynomial", "Tmin_value": 502.02681672017746, "Tmin_units": "K", "Tmax_value": 3000.0, "Tmax_units": "K", "coeffs": [2.89846206737678, 0.02729908074769455, -1.5437590070255374e-05, 4.274702327424854e-09, -4.631616139282801e-13, -49025830.24365285, 14.734719791594486]}]

>  <H298_value>  (4) 
-97420.59795787682

>  <H298_units>  (4) 
kcal/mol

>  <S298_value>  (4) 
76.91244568160063

>  <S298_units>  (4) 
cal/(mol*K)

>  <Cp_T_value_list>  (4) 
[19.8488866808607, 23.12739289331374, 26.21919338964091, 28.980799697417396, 33.497556262468905, 36.9053925328209, 42.11858387894413, 44.77831245474619, 46.148163827512555]

>  <Cp_T_units>  (4) 
cal/(mol*K)

>  <T_list>  (4) 
[300.0, 400.0, 500.0, 600.0, 800.0, 1000.0, 1500.0, 2000.0, 2400.0]

>  <T_units>  (4) 
K

>  <yaml_path>  (4) 
/home/calvin/Dropbox/PersonalFolders/Calvin/ATLAS_Converged/rmg_rxn_3113/output/Species/rmg_rxn_3113_p2_sbr-CH2-sbrCtCC/rmg_rxn_3113_p2_sbr-CH2-sbrCtCC.yml

>  <frequencies_cm1>  (4) 
[24.18552229704, 186.74766577739996, 206.32544092471997, 398.28514856, 428.84323323399997, 670.45124473288, 768.8002084859199, 1023.53102893132, 1025.11730254024, 1044.32426048028, 1244.297739984, 1401.51050190008, 1455.78715386936, 1460.16829050352, 1460.7931861676398, 2137.33544687936, 3007.2588811876003, 3071.0325738544398, 3085.0961597897995, 3128.557309880079, 3222.30539346872]

>  <ZPE_kJmol>  (4) 
182.1360065892337

>  <E_elec_kJmol>  (4) 
-407807.5424914934

>  <E0_minus_Eelec_plus_ZPE_kJmol>  (4) 
0.0

>  <rxn>  (4) 
rmg_rxn_3113

>  <species_type>  (4) 
p1

>  <species_folder>  (4) 
rmg_rxn_3113_p2_sbr-CH2-sbrCtCC

>  <frequencies_cm1_list>  (4) 
[24.18552229704, 186.74766577739996, 206.32544092471997, 398.28514856, 428.84323323399997, 670.45124473288, 768.8002084859199, 1023.53102893132, 1025.11730254024, 1044.32426048028, 1244.297739984, 1401.51050190008, 1455.78715386936, 1460.16829050352, 1460.7931861676398, 2137.33544687936, 3007.2588811876003, 3071.0325738544398, 3085.0961597897995, 3128.557309880079, 3222.30539346872]

>  <E0_kJmol>  (4) 
-407625

>  <H298_kJmol>  (4) 
-407608

$$$$

     RDKit          3D

  3  2  0  0  0  0  0  0  0  0999 V2000
    0.0000    0.0000    0.1037 C   0  0  0  0  0  2  0  0  0  1  0  0
    0.0000    0.9954   -0.3147 H   0  0  0  0  0  0  0  0  0  2  0  0
    0.0000   -0.9954   -0.3147 H   0  0  0  0  0  0  0  0  0  3  0  0
  1  3  1  0
  1  2  1  0
M  RAD  1   1   3
M  END
>  <rmg_smiles>  (5) 
[CH2]

>  <rmg_adjacency_list>  (5) 
multiplicity 3
1 C u2 p1 c0 {2,S} {3,S}
2 H u0 p0 c0 {1,S}
3 H u0 p0 c0 {1,S}


>  <multiplicity>  (5) 
3

>  <reaction>  (5) 
rmg_rxn_3113

>  <type>  (5) 
r2

>  <role_mapnums>  (5) 
{}

>  <role_mapidx>  (5) 
{}

>  <ordered_mapped_smiles>  (5) 
[C:1]([H:2])[H:3]

>  <level_of_theory>  (5) 
wb97xd/def2tzvp

>  <lot_method>  (5) 
wb97xd

>  <lot_basis>  (5) 
def2tzvp

>  <spin_multiplicity>  (5) 
3.0

>  <optical_isomers>  (5) 
1.0

>  <modes>  (5) 
IdealGasTranslation(mass=(14.0157, 'amu')),         NonlinearRotor(             inertia = ([0.302189, 1.99708, 2.29927

>  <frequency_value>  (5) 
unknown

>  <frequency_units>  (5) 
unknown

>  <frequency_list>  (5) 
unknown

>  <arkane_path>  (5) 
/home/calvin/Dropbox/PersonalFolders/Calvin/ATLAS_Converged/rmg_rxn_3113/output/Species/rmg_rxn_3113_r1_sbr-CH2-sbr/arkane/output.py

>  <path_exists>  (5) 
True

>  <E0_value>  (5) 
-102746.3604097037

>  <E0_units>  (5) 
kJ/mol

>  <thermo_class>  (5) 
NASA

>  <Cp0_value>  (5) 
33.257888

>  <Cp0_units>  (5) 
J/(mol*K)

>  <CpInf_value>  (5) 
58.201304

>  <CpInf_units>  (5) 
J/(mol*K)

>  <Tmin_value>  (5) 
10.0

>  <Tmin_units>  (5) 
K

>  <Tmax_value>  (5) 
3000.0

>  <Tmax_units>  (5) 
K

>  <polynomials>  (5) 
[{"name": "polynomial1", "class": "NASAPolynomial", "Tmin_value": 10.0, "Tmin_units": "K", "Tmax_value": 961.2537703468265, "Tmax_units": "K", "coeffs": [4.003567274783497, -0.00017628649893863886, 3.2424154420246973e-06, -2.3237373613409304e-09, 5.265367404586338e-13, -12357532.895886488, 0.5988309128090271]}, {"name": "polynomial2", "class": "NASAPolynomial", "Tmin_value": 961.2537703468265, "Tmin_units": "K", "Tmax_value": 3000.0, "Tmax_units": "K", "coeffs": [3.235887744652184, 0.002682865290017016, -6.958956295252623e-07, 4.471411525242933e-11, 4.944011528851231e-15, -12357369.816021634, 4.352691540085104]}]

>  <H298_value>  (5) 
-24554.56617285692

>  <H298_units>  (5) 
kcal/mol

>  <S298_value>  (5) 
46.65862348821438

>  <S298_units>  (5) 
cal/(mol*K)

>  <Cp_T_value_list>  (5) 
[8.31451721635151, 8.577974181765384, 8.879771166632237, 9.20350213712947, 9.863697946528214, 10.477577141433397, 11.66561697983005, 12.429684371368914, 12.814628264430327]

>  <Cp_T_units>  (5) 
cal/(mol*K)

>  <T_list>  (5) 
[300.0, 400.0, 500.0, 600.0, 800.0, 1000.0, 1500.0, 2000.0, 2400.0]

>  <T_units>  (5) 
K

>  <yaml_path>  (5) 
/home/calvin/Dropbox/PersonalFolders/Calvin/ATLAS_Converged/rmg_rxn_3113/output/Species/rmg_rxn_3113_r1_sbr-CH2-sbr/rmg_rxn_3113_r1_sbr-CH2-sbr.yml

>  <frequencies_cm1>  (5) 
[1058.90973729996, 3101.0619006588, 3329.06641423876]

>  <ZPE_kJmol>  (5) 
44.79440797275059

>  <E_elec_kJmol>  (5) 
-102791.15481767643

>  <E0_minus_Eelec_plus_ZPE_kJmol>  (5) 
0.0

>  <rxn>  (5) 
rmg_rxn_3113

>  <species_type>  (5) 
r0

>  <species_folder>  (5) 
rmg_rxn_3113_r1_sbr-CH2-sbr

>  <frequencies_cm1_list>  (5) 
[1058.90973729996, 3101.0619006588, 3329.06641423876]

>  <E0_kJmol>  (5) 
-102746

>  <H298_kJmol>  (5) 
-102736

$$$$
