
     RDKit          3D

 22 23  0  0  0  0  0  0  0  0999 V2000
   -0.2181   -1.6860   -1.3601 C   0  0  0  0  0  0  0  0  0  1  0  0
    0.1606   -1.7464    0.1229 C   0  0  0  0  0  0  0  0  0  2  0  0
   -0.3996   -0.4634    0.7068 C   0  0  0  0  0  0  0  0  0  3  0  0
    0.3798    0.3079    1.7510 C   0  0  0  0  0  0  0  0  0  4  0  0
    0.9940    1.4661    0.9518 C   0  0  0  0  0  0  0  0  0  5  0  0
   -0.1121    1.8379   -0.0406 C   0  0  0  0  0  0  0  0  0  6  0  0
   -0.7271    0.4905   -0.4486 C   0  0  0  0  0  0  0  0  0  7  0  0
   -0.1188   -0.1950   -1.6820 C   0  0  0  0  0  0  0  0  0  8  0  0
    0.4212   -2.3064   -1.9894 H   0  0  0  0  0  0  0  0  0  9  0  0
   -1.2484   -2.0276   -1.4924 H   0  0  0  0  0  0  0  0  0 10  0  0
   -0.2184   -2.6434    0.6196 H   0  0  0  0  0  0  0  0  0 11  0  0
    1.2523   -1.7589    0.2359 H   0  0  0  0  0  0  0  0  0 12  0  0
   -1.3575   -0.7509    1.1402 H   0  0  0  0  0  0  0  0  0 13  0  0
   -0.2918    0.7110    2.5177 H   0  0  0  0  0  0  0  0  0 14  0  0
    1.1222   -0.3070    2.2628 H   0  0  0  0  0  0  0  0  0 15  0  0
    1.8751    1.1087    0.4108 H   0  0  0  0  0  0  0  0  0 16  0  0
    1.3108    2.3028    1.5761 H   0  0  0  0  0  0  0  0  0 17  0  0
   -0.8617    2.4531    0.4646 H   0  0  0  0  0  0  0  0  0 18  0  0
    0.2540    2.4078   -0.8964 H   0  0  0  0  0  0  0  0  0 19  0  0
   -1.8067    0.5812   -0.5988 H   0  0  0  0  0  0  0  0  0 20  0  0
   -0.6216    0.0824   -2.6095 H   0  0  0  0  0  0  0  0  0 21  0  0
    0.9342    0.0916   -1.7789 H   0  0  0  0  0  0  0  0  0 22  0  0
  1  8  1  0
  1 10  1  0
  1  9  1  0
  1  2  1  0
  2 12  1  0
  2 11  1  0
  2  3  1  0
  3  4  1  0
  3 13  1  0
  3  7  1  0
  4 14  1  0
  4  5  1  0
  4 15  1  0
  5 16  1  0
  5 17  1  0
  5  6  1  0
  6  7  1  0
  6 19  1  0
  6 18  1  0
  7 20  1  0
  7  8  1  0
  8 22  1  0
  8 21  1  0
M  END
>  <rmg_smiles>  (1) 
C1CC2CCCC2C1

>  <rmg_adjacency_list>  (1) 
1  C u0 p0 c0 {2,S} {3,S} {4,S} {9,S}
2  C u0 p0 c0 {1,S} {5,S} {6,S} {10,S}
3  C u0 p0 c0 {1,S} {7,S} {13,S} {14,S}
4  C u0 p0 c0 {1,S} {8,S} {15,S} {16,S}
5  C u0 p0 c0 {2,S} {8,S} {19,S} {20,S}
6  C u0 p0 c0 {2,S} {7,S} {21,S} {22,S}
7  C u0 p0 c0 {3,S} {6,S} {11,S} {12,S}
8  C u0 p0 c0 {4,S} {5,S} {17,S} {18,S}
9  H u0 p0 c0 {1,S}
10 H u0 p0 c0 {2,S}
11 H u0 p0 c0 {7,S}
12 H u0 p0 c0 {7,S}
13 H u0 p0 c0 {3,S}
14 H u0 p0 c0 {3,S}
15 H u0 p0 c0 {4,S}
16 H u0 p0 c0 {4,S}
17 H u0 p0 c0 {8,S}
18 H u0 p0 c0 {8,S}
19 H u0 p0 c0 {5,S}
20 H u0 p0 c0 {5,S}
21 H u0 p0 c0 {6,S}
22 H u0 p0 c0 {6,S}


>  <multiplicity>  (1) 
1

>  <reaction>  (1) 
rxn_571

>  <type>  (1) 
r1h

>  <role_mapnums>  (1) 
{"r1h_a": 3, "r1h_h": 13}

>  <role_mapidx>  (1) 
{"r1h_a": 2, "r1h_h": 12}

>  <ordered_mapped_smiles>  (1) 
[C:1]1([H:9])([H:10])[C:2]([H:11])([H:12])[C:3]2([H:13])[C:4]([H:14])([H:15])[C:5]([H:16])([H:17])[C:6]([H:18])([H:19])[C:7]2([H:20])[C:8]1([H:21])[H:22]

>  <mol_properties>  (1) 
{"2": {"label": "donator", "atom_type": "Cs"}, "12": {"label": "d_hydrogen", "atom_type": "H0"}}

>  <level_of_theory>  (1) 
wb97xd/def2tzvp

>  <lot_method>  (1) 
wb97xd

>  <lot_basis>  (1) 
def2tzvp

>  <spin_multiplicity>  (1) 
1.0

>  <optical_isomers>  (1) 
1.0

>  <modes>  (1) 
IdealGasTranslation(mass=(110.11, 'amu')),         NonlinearRotor(             inertia = ([146.16, 254.143, 330.352

>  <frequency_value>  (1) 
unknown

>  <frequency_units>  (1) 
unknown

>  <frequency_list>  (1) 
unknown

>  <arkane_path>  (1) 
/home/calvin/Dropbox/PersonalFolders/Calvin/HAb_Converged/rxn_571/output/Species/rxn_571_C1CC2CCCC2C1/arkane/output.py

>  <path_exists>  (1) 
True

>  <E0_value>  (1) 
-822068.5647386889

>  <E0_units>  (1) 
kJ/mol

>  <thermo_class>  (1) 
NASA

>  <Cp0_value>  (1) 
33.257888

>  <Cp0_units>  (1) 
J/(mol*K)

>  <CpInf_value>  (1) 
532.126208

>  <CpInf_units>  (1) 
J/(mol*K)

>  <Tmin_value>  (1) 
10.0

>  <Tmin_units>  (1) 
K

>  <Tmax_value>  (1) 
3000.0

>  <Tmax_units>  (1) 
K

>  <polynomials>  (1) 
[{"name": "polynomial1", "class": "NASAPolynomial", "Tmin_value": 10.0, "Tmin_units": "K", "Tmax_value": 631.1554087767174, "Tmax_units": "K", "coeffs": [4.104892732192084, -0.00872402245613231, 0.0002586838352826795, -3.8715965058313203e-07, 1.8543893870085067e-10, -98872009.83151405, 11.711801191684385]}, {"name": "polynomial2", "class": "NASAPolynomial", "Tmin_value": 631.1554087767174, "Tmin_units": "K", "Tmax_value": 3000.0, "Tmax_units": "K", "coeffs": [-8.339564241366276, 0.09752899339998983, -5.8919991130410155e-05, 1.705923018149873e-08, -1.9017313185535466e-12, -98870984.4094117, 61.70104968838544]}]

>  <H298_value>  (1) 
-196474.24862839645

>  <H298_units>  (1) 
kcal/mol

>  <S298_value>  (1) 
81.34524085312425

>  <S298_units>  (1) 
cal/(mol*K)

>  <Cp_T_value_list>  (1) 
[31.433584756109013, 43.66631245461224, 54.86442195893942, 64.39157523859107, 79.34957857997146, 90.27270430862933, 105.98037139896968, 113.43888502925647, 117.40970049175486]

>  <Cp_T_units>  (1) 
cal/(mol*K)

>  <T_list>  (1) 
[300.0, 400.0, 500.0, 600.0, 800.0, 1000.0, 1500.0, 2000.0, 2400.0]

>  <T_units>  (1) 
K

>  <yaml_path>  (1) 
/home/calvin/Dropbox/PersonalFolders/Calvin/HAb_Converged/rxn_571/output/Species/rxn_571_C1CC2CCCC2C1/rxn_571_C1CC2CCCC2C1.yml

>  <frequencies_cm1>  (1) 
[104.48804862911999, 193.17516403692, 284.30005923332, 354.38451140924, 393.75980523412, 536.4076912864799, 546.84550897288, 589.015665823, 687.2204228843199, 771.9521547477999, 809.8922486408001, 842.5310298667599, 889.59048026472, 905.6866938548001, 914.3802972699199, 927.22155981832, 933.9649394025599, 960.1075525158, 996.54377662372, 1021.0245792895199, 1030.08899991192, 1051.48652616904, 1068.6333885130798, 1089.19314256116, 1150.77626691092, 1188.5515531562398, 1194.01080648564, 1212.42806111388, 1220.75771430704, 1259.1235612898797, 1274.34766774432, 1301.0327726978398, 1303.03793241128, 1323.01399270716, 1323.82429697492, 1335.4501031216798, 1337.88101592496, 1343.2166635186, 1357.4862590135597, 1367.1755753000798, 1477.40442365672, 1478.31086571896, 1479.4507852820798, 1483.57097647408, 1496.2336974041598, 1502.40025022152, 3003.36530051116, 3004.25800860276, 3014.3250090818797, 3016.1859621035996, 3016.74905489984, 3018.8846873343596, 3037.5079515222, 3052.3475067987197, 3066.73384104412, 3068.2514447998396, 3072.3785029771598, 3072.460906801, 3078.0849677780793, 3083.11846801764]

>  <ZPE_kJmol>  (1) 
537.8174543033537

>  <E_elec_kJmol>  (1) 
-822606.3821929923

>  <E0_minus_Eelec_plus_ZPE_kJmol>  (1) 
0.0

>  <rxn>  (1) 
rxn_571

>  <species_type>  (1) 
r1

>  <species_folder>  (1) 
rxn_571_C1CC2CCCC2C1

>  <frequencies_cm1_list>  (1) 
[104.48804862911999, 193.17516403692, 284.30005923332, 354.38451140924, 393.75980523412, 536.4076912864799, 546.84550897288, 589.015665823, 687.2204228843199, 771.9521547477999, 809.8922486408001, 842.5310298667599, 889.59048026472, 905.6866938548001, 914.3802972699199, 927.22155981832, 933.9649394025599, 960.1075525158, 996.54377662372, 1021.0245792895199, 1030.08899991192, 1051.48652616904, 1068.6333885130798, 1089.19314256116, 1150.77626691092, 1188.5515531562398, 1194.01080648564, 1212.42806111388, 1220.75771430704, 1259.1235612898797, 1274.34766774432, 1301.0327726978398, 1303.03793241128, 1323.01399270716, 1323.82429697492, 1335.4501031216798, 1337.88101592496, 1343.2166635186, 1357.4862590135597, 1367.1755753000798, 1477.40442365672, 1478.31086571896, 1479.4507852820798, 1483.57097647408, 1496.2336974041598, 1502.40025022152, 3003.36530051116, 3004.25800860276, 3014.3250090818797, 3016.1859621035996, 3016.74905489984, 3018.8846873343596, 3037.5079515222, 3052.3475067987197, 3066.73384104412, 3068.2514447998396, 3072.3785029771598, 3072.460906801, 3078.0849677780793, 3083.11846801764]

>  <E0_kJmol>  (1) 
-822069

>  <H298_kJmol>  (1) 
-822048

$$$$

     RDKit          3D

 21 21  0  0  0  0  0  0  0  0999 V2000
    1.0564    0.1136    2.5122 C   0  0  0  0  0  0  0  0  0  1  0  0
    0.6945    0.9015    1.2689 C   0  0  0  0  0  0  0  0  0  2  0  0
    0.0149    2.2195    1.5875 C   0  0  0  0  0  0  0  0  0  3  0  0
    0.1223    0.1226    0.1375 C   0  0  0  0  0  0  0  0  0  4  0  0
   -0.5575    0.7539   -0.9105 C   0  0  0  0  0  0  0  0  0  5  0  0
   -0.9897    0.0507   -2.0219 C   0  0  0  0  0  0  0  0  0  6  0  0
   -0.7610   -1.3129   -2.1239 C   0  0  0  0  0  0  0  0  0  7  0  0
   -0.1054   -1.9620   -1.0894 C   0  0  0  0  0  0  0  0  0  8  0  0
    0.3257   -1.2568    0.0217 C   0  0  0  0  0  0  0  0  0  9  0  0
    1.7913   -0.6662    2.3076 H   0  0  0  0  0  0  0  0  0 10  0  0
    1.4941    0.7763    3.2602 H   0  0  0  0  0  0  0  0  0 11  0  0
    0.1778   -0.3635    2.9589 H   0  0  0  0  0  0  0  0  0 12  0  0
   -1.0299    2.0724    1.8802 H   0  0  0  0  0  0  0  0  0 13  0  0
    0.5268    2.7148    2.4140 H   0  0  0  0  0  0  0  0  0 14  0  0
    0.0290    2.9104    0.7437 H   0  0  0  0  0  0  0  0  0 15  0  0
   -0.7514    1.8169   -0.8654 H   0  0  0  0  0  0  0  0  0 16  0  0
   -1.5090    0.5743   -2.8152 H   0  0  0  0  0  0  0  0  0 17  0  0
   -1.0953   -1.8630   -2.9941 H   0  0  0  0  0  0  0  0  0 18  0  0
    0.0738   -3.0287   -1.1459 H   0  0  0  0  0  0  0  0  0 19  0  0
    0.8345   -1.7955    0.8093 H   0  0  0  0  0  0  0  0  0 20  0  0
    1.6643    1.2038    0.8736 H   0  0  0  0  0  0  0  0  0 21  0  0
  1 11  1  0
  1 10  1  0
  1 12  1  0
  1  2  1  0
  2  3  1  0
  2  4  1  0
  2 21  1  0
  3 15  1  0
  3 13  1  0
  3 14  1  0
  4  9  1  0
  4  5  1  0
  5 16  1  0
  5  6  1  0
  6  7  1  0
  6 17  1  0
  7 18  1  0
  7  8  1  0
  8 19  1  0
  8  9  1  0
  9 20  1  0
M  END
>  <rmg_smiles>  (2) 
CC(C)C1[CH][CH][CH][CH][CH]1

>  <rmg_adjacency_list>  (2) 
1  C u0 p0 c0 {2,S} {3,S} {4,S} {10,S}
2  C u0 p0 c0 {1,S} {11,S} {12,S} {13,S}
3  C u0 p0 c0 {1,S} {14,S} {15,S} {16,S}
4  C u0 p0 c0 {1,S} {5,S} {6,S}
5  C u0 p0 c0 {4,S} {7,S} {17,S}
6  C u0 p0 c0 {4,S} {9,S} {21,S}
7  C u0 p0 c0 {5,S} {8,S} {18,S}
8  C u0 p0 c0 {7,S} {9,S} {19,S}
9  C u0 p0 c0 {6,S} {8,S} {20,S}
10 H u0 p0 c0 {1,S}
11 H u0 p0 c0 {2,S}
12 H u0 p0 c0 {2,S}
13 H u0 p0 c0 {2,S}
14 H u0 p0 c0 {3,S}
15 H u0 p0 c0 {3,S}
16 H u0 p0 c0 {3,S}
17 H u0 p0 c0 {5,S}
18 H u0 p0 c0 {7,S}
19 H u0 p0 c0 {8,S}
20 H u0 p0 c0 {9,S}
21 H u0 p0 c0 {6,S}


>  <multiplicity>  (2) 
1

>  <reaction>  (2) 
rxn_571

>  <type>  (2) 
r2h

>  <role_mapnums>  (2) 
{"r2h_a": 2, "r2h_h": 21}

>  <role_mapidx>  (2) 
{"r2h_a": 1, "r2h_h": 20}

>  <ordered_mapped_smiles>  (2) 
[C:1]([C:2]([C:3]([H:13])([H:14])[H:15])([CH:4]1[CH:5]([H:16])[CH:6]([H:17])[CH:7]([H:18])[CH:8]([H:19])[CH:9]1[H:20])[H:21])([H:10])([H:11])[H:12]

>  <mol_properties>  (2) 
{"1": {"label": "acceptor", "atom_type": "Cs"}, "20": {"label": "a_hydrogen", "atom_type": "H0"}}

>  <level_of_theory>  (2) 
wb97xd/def2tzvp

>  <lot_method>  (2) 
wb97xd

>  <lot_basis>  (2) 
def2tzvp

>  <spin_multiplicity>  (2) 
1.0

>  <optical_isomers>  (2) 
1.0

>  <modes>  (2) 
IdealGasTranslation(mass=(120.094, 'amu')),         NonlinearRotor(             inertia = ([149.32, 463.91, 504.647

>  <frequency_value>  (2) 
unknown

>  <frequency_units>  (2) 
unknown

>  <frequency_list>  (2) 
unknown

>  <arkane_path>  (2) 
/home/calvin/Dropbox/PersonalFolders/Calvin/HAb_Converged/rxn_571/output/Species/rxn_571_CC[C]c1ccccc1/arkane/output.py

>  <path_exists>  (2) 
True

>  <E0_value>  (2) 
-918971.9705539708

>  <E0_units>  (2) 
kJ/mol

>  <thermo_class>  (2) 
NASA

>  <Cp0_value>  (2) 
33.257888

>  <Cp0_units>  (2) 
J/(mol*K)

>  <CpInf_value>  (2) 
507.182792

>  <CpInf_units>  (2) 
J/(mol*K)

>  <Tmin_value>  (2) 
10.0

>  <Tmin_units>  (2) 
K

>  <Tmax_value>  (2) 
3000.0

>  <Tmax_units>  (2) 
K

>  <polynomials>  (2) 
[{"name": "polynomial1", "class": "NASAPolynomial", "Tmin_value": 10.0, "Tmin_units": "K", "Tmax_value": 361.8957796999639, "Tmax_units": "K", "coeffs": [3.904348984267116, 0.00661653537135646, 0.0002808737170771108, -5.999594269178534e-07, 4.235169182850027e-10, -110526797.72623062, 13.49573620553717]}, {"name": "polynomial2", "class": "NASAPolynomial", "Tmin_value": 361.8957796999639, "Tmin_units": "K", "Tmax_value": 3000.0, "Tmax_units": "K", "coeffs": [-3.3908176185577426, 0.08724915042066951, -5.3334822818118166e-05, 1.5701827774540676e-08, -1.7850286443604722e-12, -110526269.70708372, 41.2759137782472]}]

>  <H298_value>  (2) 
-219633.70644198687

>  <H298_units>  (2) 
kcal/mol

>  <S298_value>  (2) 
90.8647762729768

>  <S298_units>  (2) 
cal/(mol*K)

>  <Cp_T_value_list>  (2) 
[36.563658961352125, 47.562776396615114, 57.13460348229578, 65.41564160236089, 78.65841095411464, 88.31207117618139, 102.21498275479881, 108.94334191674544, 112.55073561561348]

>  <Cp_T_units>  (2) 
cal/(mol*K)

>  <T_list>  (2) 
[300.0, 400.0, 500.0, 600.0, 800.0, 1000.0, 1500.0, 2000.0, 2400.0]

>  <T_units>  (2) 
K

>  <yaml_path>  (2) 
/home/calvin/Dropbox/PersonalFolders/Calvin/HAb_Converged/rxn_571/output/Species/rxn_571_CC[C]c1ccccc1/rxn_571_CCCc1ccccc1.yml

>  <frequencies_cm1>  (2) 
[40.364139710959996, 128.71477283808, 218.52120685304, 233.34702815891998, 266.85791652052, 308.13536527904, 321.59465650623997, 414.80711523991994, 466.94813477468, 550.3133365594799, 568.586384496, 632.73089437012, 716.65918895116, 754.681686668, 783.96251207248, 862.0195342049199, 904.83518767512, 929.47393100328, 933.9718063878798, 965.95822400844, 981.62868450868, 994.4218781598398, 1016.0460149325199, 1049.9277205014, 1069.59476645788, 1107.56919527748, 1128.8637167548, 1168.97377800892, 1175.1197298703198, 1202.8829515190798, 1234.84190119836, 1303.2851438828, 1340.7170808621202, 1342.0355420435599, 1378.7945144615198, 1391.1344870815599, 1410.5131196546, 1472.453327241, 1477.58983226036, 1484.7452309638, 1489.7306623061197, 1494.12553291092, 1530.39694937116, 1639.69188772428, 1662.05765891152, 3009.34644472488, 3011.8460273813594, 3016.5430453402396, 3079.47209881272, 3084.9519530980792, 3090.83695951732, 3093.05499577568, 3143.16338765572, 3146.4320726680403, 3159.08105962748, 3167.4725156885197, 3180.6639944882395]

>  <ZPE_kJmol>  (2) 
482.88765773606417

>  <E_elec_kJmol>  (2) 
-919454.8582117069

>  <E0_minus_Eelec_plus_ZPE_kJmol>  (2) 
0.0

>  <rxn>  (2) 
rxn_571

>  <species_type>  (2) 
p0

>  <species_folder>  (2) 
rxn_571_CC[C]c1ccccc1

>  <frequencies_cm1_list>  (2) 
[40.364139710959996, 128.71477283808, 218.52120685304, 233.34702815891998, 266.85791652052, 308.13536527904, 321.59465650623997, 414.80711523991994, 466.94813477468, 550.3133365594799, 568.586384496, 632.73089437012, 716.65918895116, 754.681686668, 783.96251207248, 862.0195342049199, 904.83518767512, 929.47393100328, 933.9718063878798, 965.95822400844, 981.62868450868, 994.4218781598398, 1016.0460149325199, 1049.9277205014, 1069.59476645788, 1107.56919527748, 1128.8637167548, 1168.97377800892, 1175.1197298703198, 1202.8829515190798, 1234.84190119836, 1303.2851438828, 1340.7170808621202, 1342.0355420435599, 1378.7945144615198, 1391.1344870815599, 1410.5131196546, 1472.453327241, 1477.58983226036, 1484.7452309638, 1489.7306623061197, 1494.12553291092, 1530.39694937116, 1639.69188772428, 1662.05765891152, 3009.34644472488, 3011.8460273813594, 3016.5430453402396, 3079.47209881272, 3084.9519530980792, 3090.83695951732, 3093.05499577568, 3143.16338765572, 3146.4320726680403, 3159.08105962748, 3167.4725156885197, 3180.6639944882395]

>  <E0_kJmol>  (2) 
-918972

>  <H298_kJmol>  (2) 
-918947

$$$$

     RDKit          3D

 42 43  0  0  0  0  0  0  0  0999 V2000
   -0.5340   -0.8392    2.7249 C   0  0  0  0  0  0  0  0  0  1  0  0
   -0.8958   -0.0512    1.4815 C   0  0  0  0  0  0  0  0  0  2  0  0
   -1.5755    1.2667    1.8002 C   0  0  0  0  0  0  0  0  0  3  0  0
   -1.4681   -0.8302    0.3501 C   0  0  0  0  0  0  0  0  0  4  0  0
   -2.1479   -0.1988   -0.6979 C   0  0  0  0  0  0  0  0  0  5  0  0
   -2.5801   -0.9021   -1.8093 C   0  0  0  0  0  0  0  0  0  6  0  0
   -2.3514   -2.2657   -1.9113 C   0  0  0  0  0  0  0  0  0  7  0  0
   -1.6958   -2.9148   -0.8768 C   0  0  0  0  0  0  0  0  0  8  0  0
   -1.2647   -2.2096    0.2344 C   0  0  0  0  0  0  0  0  0  9  0  0
    0.2010   -1.6189    2.5203 H   0  0  0  0  0  0  0  0  0 10  0  0
   -0.0963   -0.1764    3.4728 H   0  0  0  0  0  0  0  0  0 11  0  0
   -1.4126   -1.3163    3.1715 H   0  0  0  0  0  0  0  0  0 12  0  0
   -2.6203    1.1197    2.0929 H   0  0  0  0  0  0  0  0  0 13  0  0
   -1.0636    1.7621    2.6266 H   0  0  0  0  0  0  0  0  0 14  0  0
   -1.5613    1.9576    0.9564 H   0  0  0  0  0  0  0  0  0 15  0  0
   -2.3418    0.8642   -0.6528 H   0  0  0  0  0  0  0  0  0 16  0  0
   -3.0994   -0.3785   -2.6026 H   0  0  0  0  0  0  0  0  0 17  0  0
   -2.6857   -2.8158   -2.7814 H   0  0  0  0  0  0  0  0  0 18  0  0
   -1.5166   -3.9815   -0.9332 H   0  0  0  0  0  0  0  0  0 19  0  0
   -0.7559   -2.7483    1.0219 H   0  0  0  0  0  0  0  0  0 20  0  0
    1.6586   -0.5484   -1.6079 C   0  0  0  0  0  0  0  0  0 21  0  0
    2.0373   -0.6089   -0.1249 C   0  0  0  0  0  0  0  0  0 22  0  0
    1.4771    0.6741    0.4590 C   0  0  0  0  0  3  0  0  0 23  0  0
    2.2565    1.4454    1.5032 C   0  0  0  0  0  0  0  0  0 24  0  0
    2.8707    2.6037    0.7040 C   0  0  0  0  0  0  0  0  0 25  0  0
    1.7647    2.9755   -0.2884 C   0  0  0  0  0  0  0  0  0 26  0  0
    1.1497    1.6281   -0.6964 C   0  0  0  0  0  0  0  0  0 27  0  0
    1.7580    0.9426   -1.9298 C   0  0  0  0  0  0  0  0  0 28  0  0
    2.2979   -1.1688   -2.2372 H   0  0  0  0  0  0  0  0  0 29  0  0
    0.6283   -0.8900   -1.7402 H   0  0  0  0  0  0  0  0  0 30  0  0
    1.6584   -1.5058    0.3718 H   0  0  0  0  0  0  0  0  0 31  0  0
    3.1290   -0.6214   -0.0119 H   0  0  0  0  0  0  0  0  0 32  0  0
    0.2463    0.3048    1.0159 H   0  0  0  0  0  0  0  0  0 33  0  0
    1.5849    1.8486    2.2699 H   0  0  0  0  0  0  0  0  0 34  0  0
    2.9989    0.8305    2.0150 H   0  0  0  0  0  0  0  0  0 35  0  0
    3.7518    2.2462    0.1631 H   0  0  0  0  0  0  0  0  0 36  0  0
    3.1875    3.4404    1.3283 H   0  0  0  0  0  0  0  0  0 37  0  0
    1.0150    3.5906    0.2168 H   0  0  0  0  0  0  0  0  0 38  0  0
    2.1307    3.5453   -1.1442 H   0  0  0  0  0  0  0  0  0 39  0  0
    0.0700    1.7187   -0.8466 H   0  0  0  0  0  0  0  0  0 40  0  0
    1.2552    1.2199   -2.8573 H   0  0  0  0  0  0  0  0  0 41  0  0
    2.8109    1.2292   -2.0267 H   0  0  0  0  0  0  0  0  0 42  0  0
  1 11  1  0
  1 10  1  0
  1 12  1  0
  1  2  1  0
  2  3  1  0
  2  4  1  0
  2 33  1  0
  3 15  1  0
  3 13  1  0
  3 14  1  0
  4  9  1  0
  4  5  1  0
  5 16  1  0
  5  6  1  0
  6  7  1  0
  6 17  1  0
  7 18  1  0
  7  8  1  0
  8 19  1  0
  8  9  1  0
  9 20  1  0
 21 29  1  0
 21 28  1  0
 21 30  1  0
 21 22  1  0
 22 32  1  0
 22 23  1  0
 22 31  1  0
 23 24  1  0
 23 27  1  0
 24 25  1  0
 24 35  1  0
 24 34  1  0
 25 36  1  0
 25 26  1  0
 25 37  1  0
 26 39  1  0
 26 38  1  0
 26 27  1  0
 27 28  1  0
 27 40  1  0
 28 41  1  0
 28 42  1  0
M  RAD  1  23   2
M  END
>  <rmg_smiles>  (3) 
C1C[C]2CCCC2C1.CC(C)C1[CH][CH][CH][CH][CH]1

>  <rmg_adjacency_list>  (3) 
multiplicity 2
1  C u0 p0 c0 {3,S} {4,S} {11,S} {19,S}
2  C u0 p0 c0 {9,S} {10,S} {12,S} {18,S}
3  C u0 p0 c0 {1,S} {6,S} {24,S} {25,S}
4  C u0 p0 c0 {1,S} {5,S} {26,S} {27,S}
5  C u0 p0 c0 {4,S} {7,S} {20,S} {21,S}
6  C u0 p0 c0 {3,S} {8,S} {22,S} {23,S}
7  C u0 p0 c0 {5,S} {11,S} {28,S} {29,S}
8  C u0 p0 c0 {6,S} {11,S} {30,S} {31,S}
9  C u0 p0 c0 {2,S} {32,S} {33,S} {34,S}
10 C u0 p0 c0 {2,S} {35,S} {36,S} {37,S}
11 C u1 p0 c0 {1,S} {7,S} {8,S}
12 C u0 p0 c0 {2,S} {13,S} {14,S}
13 C u0 p0 c0 {12,S} {15,S} {38,S}
14 C u0 p0 c0 {12,S} {17,S} {42,S}
15 C u0 p0 c0 {13,S} {16,S} {39,S}
16 C u0 p0 c0 {15,S} {17,S} {40,S}
17 C u0 p0 c0 {14,S} {16,S} {41,S}
18 H u0 p0 c0 {2,S}
19 H u0 p0 c0 {1,S}
20 H u0 p0 c0 {5,S}
21 H u0 p0 c0 {5,S}
22 H u0 p0 c0 {6,S}
23 H u0 p0 c0 {6,S}
24 H u0 p0 c0 {3,S}
25 H u0 p0 c0 {3,S}
26 H u0 p0 c0 {4,S}
27 H u0 p0 c0 {4,S}
28 H u0 p0 c0 {7,S}
29 H u0 p0 c0 {7,S}
30 H u0 p0 c0 {8,S}
31 H u0 p0 c0 {8,S}
32 H u0 p0 c0 {9,S}
33 H u0 p0 c0 {9,S}
34 H u0 p0 c0 {9,S}
35 H u0 p0 c0 {10,S}
36 H u0 p0 c0 {10,S}
37 H u0 p0 c0 {10,S}
38 H u0 p0 c0 {13,S}
39 H u0 p0 c0 {15,S}
40 H u0 p0 c0 {16,S}
41 H u0 p0 c0 {17,S}
42 H u0 p0 c0 {14,S}


>  <multiplicity>  (3) 
2

>  <reaction>  (3) 
rxn_571

>  <type>  (3) 
ts

>  <role_mapnums>  (3) 
{"*2": 33, "*1": 23, "*3": 2, "*0": 4, "*4": 27}

>  <role_mapidx>  (3) 
{"*2": 32, "*1": 22, "*3": 1, "*0": 3, "*4": 26}

>  <ordered_mapped_smiles>  (3) 
[C:1]([C:2]([C:3]([H:13])([H:14])[H:15])([CH:4]1[CH:5]([H:16])[CH:6]([H:17])[CH:7]([H:18])[CH:8]([H:19])[CH:9]1[H:20])[H:33])([H:10])([H:11])[H:12].[C:21]1([H:29])([H:30])[C:22]([H:31])([H:32])[C:23]2[C:24]([H:34])([H:35])[C:25]([H:36])([H:37])[C:26]([H:38])([H:39])[C:27]2([H:40])[C:28]1([H:41])[H:42]

>  <mol_properties>  (3) 
{"1": {"label": "*3", "atom_type": "Cs"}, "3": {"label": "*0", "atom_type": "Cs"}, "22": {"label": "*1", "atom_type": "Cs"}, "26": {"label": "*4", "atom_type": "Cs"}, "32": {"label": "*2", "atom_type": "H0"}}

>  <level_of_theory>  (3) 
wb97xd/def2tzvp

>  <lot_method>  (3) 
wb97xd

>  <lot_basis>  (3) 
def2tzvp

>  <spin_multiplicity>  (3) 
2.0

>  <optical_isomers>  (3) 
2.0

>  <modes>  (3) 
IdealGasTranslation(mass=(229.196, 'amu')),         NonlinearRotor(             inertia = ([705.797, 1431.06, 1653.13

>  <frequency_value>  (3) 
-1558.25

>  <frequency_units>  (3) 
cm^-1

>  <frequency_list>  (3) 
unknown

>  <arkane_path>  (3) 
/home/calvin/Dropbox/PersonalFolders/Calvin/HAb_Converged/rxn_571/output/rxns/TS0/arkane/output.py

>  <path_exists>  (3) 
True

>  <E0_value>  (3) 
-1739300.0

>  <E0_units>  (3) 
kJ/mol

>  <thermo_class>  (3) 
unknown

>  <Cp0_value>  (3) 
unknown

>  <Cp0_units>  (3) 
unknown

>  <CpInf_value>  (3) 
unknown

>  <CpInf_units>  (3) 
unknown

>  <Tmin_value>  (3) 
unknown

>  <Tmin_units>  (3) 
unknown

>  <Tmax_value>  (3) 
unknown

>  <Tmax_units>  (3) 
unknown

>  <polynomials>  (3) 
unknown

>  <H298_value>  (3) 
unknown

>  <H298_units>  (3) 
unknown

>  <S298_value>  (3) 
unknown

>  <S298_units>  (3) 
unknown

>  <Cp_T_value_list>  (3) 
unknown

>  <Cp_T_units>  (3) 
unknown

>  <T_list>  (3) 
unknown

>  <T_units>  (3) 
unknown

>  <yaml_path>  (3) 
unknown

>  <frequencies_cm1>  (3) 
unknown

>  <ZPE_kJmol>  (3) 
unknown

>  <E_elec_kJmol>  (3) 
unknown

>  <E0_minus_Eelec_plus_ZPE_kJmol>  (3) 
unknown

>  <rxn>  (3) 
unknown

>  <species_type>  (3) 
unknown

>  <species_folder>  (3) 
unknown

>  <frequencies_cm1_list>  (3) 
[]

>  <ts_imag_freq_cm1>  (3) 
-1577.1772

>  <ts_freq_out_path>  (3) 
/home/calvin/Dropbox/PersonalFolders/Calvin/HAb_Converged/rxn_571/output/rxns/TS0/geometry/freq.out

>  <E0_kJmol>  (3) 
-1.7393e+06

>  <H298_kJmol>  (3) 
unknown

$$$$

     RDKit          3D

 21 22  0  0  0  0  0  0  0  0999 V2000
   -2.2298    0.3537    0.0543 C   0  0  0  0  0  0  0  0  0  1  0  0
   -1.1556    1.4284   -0.1994 C   0  0  0  0  0  0  0  0  0  2  0  0
    0.0609    0.6285   -0.5240 C   0  0  0  0  0  3  0  0  0  3  0  0
    1.4977    1.0080   -0.3953 C   0  0  0  0  0  0  0  0  0  4  0  0
    2.2141   -0.3503   -0.2737 C   0  0  0  0  0  0  0  0  0  5  0  0
    1.1785   -1.2652    0.3956 C   0  0  0  0  0  0  0  0  0  6  0  0
   -0.1494   -0.8311   -0.2398 C   0  0  0  0  0  0  0  0  0  7  0  0
   -1.4409   -0.8502    0.5889 C   0  0  0  0  0  0  0  0  0  8  0  0
   -2.7102    0.0864   -0.8907 H   0  0  0  0  0  0  0  0  0  9  0  0
   -3.0138    0.6865    0.7353 H   0  0  0  0  0  0  0  0  0 10  0  0
   -1.4459    2.1368   -0.9815 H   0  0  0  0  0  0  0  0  0 11  0  0
   -0.9857    2.0292    0.7068 H   0  0  0  0  0  0  0  0  0 12  0  0
    1.6525    1.6113    0.5121 H   0  0  0  0  0  0  0  0  0 13  0  0
    1.8766    1.6104   -1.2268 H   0  0  0  0  0  0  0  0  0 14  0  0
    3.1516   -0.2903    0.2803 H   0  0  0  0  0  0  0  0  0 15  0  0
    2.4485   -0.7309   -1.2715 H   0  0  0  0  0  0  0  0  0 16  0  0
    1.1473   -1.0612    1.4707 H   0  0  0  0  0  0  0  0  0 17  0  0
    1.4017   -2.3251    0.2670 H   0  0  0  0  0  0  0  0  0 18  0  0
   -0.3078   -1.3981   -1.1697 H   0  0  0  0  0  0  0  0  0 19  0  0
   -1.1949   -0.6901    1.6436 H   0  0  0  0  0  0  0  0  0 20  0  0
   -1.9953   -1.7869    0.5178 H   0  0  0  0  0  0  0  0  0 21  0  0
  1  8  1  0
  1 10  1  0
  1  9  1  0
  1  2  1  0
  2 12  1  0
  2 11  1  0
  2  3  1  0
  3  4  1  0
  3  7  1  0
  4 14  1  0
  4  5  1  0
  4 13  1  0
  5 16  1  0
  5 15  1  0
  5  6  1  0
  6  7  1  0
  6 17  1  0
  6 18  1  0
  7 19  1  0
  7  8  1  0
  8 20  1  0
  8 21  1  0
M  RAD  1   3   2
M  END
>  <rmg_smiles>  (4) 
C1C[C]2CCCC2C1

>  <rmg_adjacency_list>  (4) 
multiplicity 2
1  C u0 p0 c0 {2,S} {3,S} {8,S} {9,S}
2  C u0 p0 c0 {1,S} {5,S} {14,S} {15,S}
3  C u0 p0 c0 {1,S} {4,S} {16,S} {17,S}
4  C u0 p0 c0 {3,S} {6,S} {10,S} {11,S}
5  C u0 p0 c0 {2,S} {7,S} {12,S} {13,S}
6  C u0 p0 c0 {4,S} {8,S} {18,S} {19,S}
7  C u0 p0 c0 {5,S} {8,S} {20,S} {21,S}
8  C u1 p0 c0 {1,S} {6,S} {7,S}
9  H u0 p0 c0 {1,S}
10 H u0 p0 c0 {4,S}
11 H u0 p0 c0 {4,S}
12 H u0 p0 c0 {5,S}
13 H u0 p0 c0 {5,S}
14 H u0 p0 c0 {2,S}
15 H u0 p0 c0 {2,S}
16 H u0 p0 c0 {3,S}
17 H u0 p0 c0 {3,S}
18 H u0 p0 c0 {6,S}
19 H u0 p0 c0 {6,S}
20 H u0 p0 c0 {7,S}
21 H u0 p0 c0 {7,S}


>  <multiplicity>  (4) 
2

>  <reaction>  (4) 
rxn_571

>  <type>  (4) 
r1

>  <role_mapnums>  (4) 
{}

>  <role_mapidx>  (4) 
{}

>  <ordered_mapped_smiles>  (4) 
[C:1]1([H:9])([H:10])[C:2]([H:11])([H:12])[C:3]2[C:4]([H:13])([H:14])[C:5]([H:15])([H:16])[C:6]([H:17])([H:18])[C:7]2([H:19])[C:8]1([H:20])[H:21]

>  <level_of_theory>  (4) 
wb97xd/def2tzvp

>  <lot_method>  (4) 
wb97xd

>  <lot_basis>  (4) 
def2tzvp

>  <spin_multiplicity>  (4) 
2.0

>  <optical_isomers>  (4) 
1.0

>  <modes>  (4) 
IdealGasTranslation(mass=(109.102, 'amu')),         NonlinearRotor(             inertia = ([128.096, 276.317, 371.4

>  <frequency_value>  (4) 
unknown

>  <frequency_units>  (4) 
unknown

>  <frequency_list>  (4) 
unknown

>  <arkane_path>  (4) 
/home/calvin/Dropbox/PersonalFolders/Calvin/HAb_Converged/rxn_571/output/Species/rxn_571_C1C[C]2CCCC2C1/arkane/output.py

>  <path_exists>  (4) 
True

>  <E0_value>  (4) 
-820358.0894855347

>  <E0_units>  (4) 
kJ/mol

>  <thermo_class>  (4) 
NASA

>  <Cp0_value>  (4) 
33.257888

>  <Cp0_units>  (4) 
J/(mol*K)

>  <CpInf_value>  (4) 
507.182792

>  <CpInf_units>  (4) 
J/(mol*K)

>  <Tmin_value>  (4) 
10.0

>  <Tmin_units>  (4) 
K

>  <Tmax_value>  (4) 
3000.0

>  <Tmax_units>  (4) 
K

>  <polynomials>  (4) 
[{"name": "polynomial1", "class": "NASAPolynomial", "Tmin_value": 10.0, "Tmin_units": "K", "Tmax_value": 579.35086050788, "Tmax_units": "K", "coeffs": [4.0168197431565185, -0.0023297630194267305, 0.00023712396292664435, -3.756310989706859e-07, 1.906783516451148e-10, -98666285.54334764, 12.540459604510119]}, {"name": "polynomial2", "class": "NASAPolynomial", "Tmin_value": 579.35086050788, "Tmin_units": "K", "Tmax_value": 3000.0, "Tmax_units": "K", "coeffs": [-7.178507488411498, 0.09308274536709106, -5.6815413242134675e-05, 1.6584634856092287e-08, -1.8610860274994795e-12, -98665292.38247325, 57.816503635904304]}]

>  <H298_value>  (4) 
-196065.24781156375

>  <H298_units>  (4) 
kcal/mol

>  <S298_value>  (4) 
84.10171794049678

>  <S298_units>  (4) 
cal/(mol*K)

>  <Cp_T_value_list>  (4) 
[31.91752213710447, 43.45170902327354, 53.84621888221555, 62.7136048060052, 76.81518220931488, 87.06423337223478, 101.67010562403804, 108.55122006851184, 112.24323691068717]

>  <Cp_T_units>  (4) 
cal/(mol*K)

>  <T_list>  (4) 
[300.0, 400.0, 500.0, 600.0, 800.0, 1000.0, 1500.0, 2000.0, 2400.0]

>  <T_units>  (4) 
K

>  <yaml_path>  (4) 
/home/calvin/Dropbox/PersonalFolders/Calvin/HAb_Converged/rxn_571/output/Species/rxn_571_C1C[C]2CCCC2C1/rxn_571_C1CC2CCCC2C1.yml

>  <frequencies_cm1>  (4) 
[110.77134019692, 171.11154020376, 233.23028940848, 257.58748633851997, 365.8043079964, 501.11825372699997, 529.7535825114, 570.2001260461999, 607.59772809892, 733.54510585304, 827.3824602508398, 846.9465014275199, 869.77922761652, 898.1261430174801, 911.25581894932, 918.2326760344399, 937.4465009598, 970.46983336368, 989.62872240648, 1011.43140079748, 1048.2865110099199, 1056.8633756745999, 1096.30733935268, 1147.9745369003601, 1154.28529640944, 1200.28723106812, 1211.91303721488, 1214.6529643575598, 1226.3474403575199, 1232.83674148492, 1281.2009190936799, 1291.3846583232398, 1310.70835501372, 1325.28009786276, 1330.9453607517598, 1338.90419673764, 1347.22011596016, 1364.11976683268, 1457.1193490214398, 1464.1923439010397, 1476.69712416876, 1480.9752560231198, 1491.6808861369998, 1495.08691085572, 2931.77697855016, 2941.8851809412, 2944.8723195554, 3007.1146744958796, 3011.12499392276, 3011.5370130419597, 3012.60139576656, 3027.36541420456, 3028.16198450168, 3070.6411556912, 3073.4016837898394, 3079.81544807872, 3080.9416336711997]

>  <ZPE_kJmol>  (4) 
499.60810598606855

>  <E_elec_kJmol>  (4) 
-820857.6975915207

>  <E0_minus_Eelec_plus_ZPE_kJmol>  (4) 
0.0

>  <rxn>  (4) 
rxn_571

>  <species_type>  (4) 
p1

>  <species_folder>  (4) 
rxn_571_C1C[C]2CCCC2C1

>  <frequencies_cm1_list>  (4) 
[110.77134019692, 171.11154020376, 233.23028940848, 257.58748633851997, 365.8043079964, 501.11825372699997, 529.7535825114, 570.2001260461999, 607.59772809892, 733.54510585304, 827.3824602508398, 846.9465014275199, 869.77922761652, 898.1261430174801, 911.25581894932, 918.2326760344399, 937.4465009598, 970.46983336368, 989.62872240648, 1011.43140079748, 1048.2865110099199, 1056.8633756745999, 1096.30733935268, 1147.9745369003601, 1154.28529640944, 1200.28723106812, 1211.91303721488, 1214.6529643575598, 1226.3474403575199, 1232.83674148492, 1281.2009190936799, 1291.3846583232398, 1310.70835501372, 1325.28009786276, 1330.9453607517598, 1338.90419673764, 1347.22011596016, 1364.11976683268, 1457.1193490214398, 1464.1923439010397, 1476.69712416876, 1480.9752560231198, 1491.6808861369998, 1495.08691085572, 2931.77697855016, 2941.8851809412, 2944.8723195554, 3007.1146744958796, 3011.12499392276, 3011.5370130419597, 3012.60139576656, 3027.36541420456, 3028.16198450168, 3070.6411556912, 3073.4016837898394, 3079.81544807872, 3080.9416336711997]

>  <E0_kJmol>  (4) 
-820358

>  <H298_kJmol>  (4) 
-820337

$$$$

     RDKit          3D

 20 20  0  0  0  0  0  0  0  0999 V2000
   -2.4774    0.8083    0.1488 C   0  0  0  0  0  0  0  0  0  1  0  0
   -1.4172   -0.1696   -0.2476 C   0  0  0  0  0  3  0  0  0  2  0  0
   -0.2904    0.2932   -1.1156 C   0  0  0  0  0  0  0  0  0  3  0  0
   -1.4797   -1.5204    0.1947 C   0  0  0  0  0  0  0  0  0  4  0  0
   -0.4907   -2.4664   -0.1650 C   0  0  0  0  0  0  0  0  0  5  0  0
   -0.5559   -3.7750    0.2665 C   0  0  0  0  0  0  0  0  0  6  0  0
   -1.6038   -4.2041    1.0733 C   0  0  0  0  0  0  0  0  0  7  0  0
   -2.5899   -3.2959    1.4424 C   0  0  0  0  0  0  0  0  0  8  0  0
   -2.5339   -1.9852    1.0162 C   0  0  0  0  0  0  0  0  0  9  0  0
   -3.4697    0.4933   -0.1924 H   0  0  0  0  0  0  0  0  0 10  0  0
   -2.5434    0.9184    1.2368 H   0  0  0  0  0  0  0  0  0 11  0  0
   -2.2829    1.7944   -0.2706 H   0  0  0  0  0  0  0  0  0 12  0  0
   -0.2452   -0.2661   -2.0565 H   0  0  0  0  0  0  0  0  0 13  0  0
   -0.3905    1.3487   -1.3647 H   0  0  0  0  0  0  0  0  0 14  0  0
    0.6811    0.1589   -0.6274 H   0  0  0  0  0  0  0  0  0 15  0  0
    0.3373   -2.1635   -0.7918 H   0  0  0  0  0  0  0  0  0 16  0  0
    0.2187   -4.4725   -0.0281 H   0  0  0  0  0  0  0  0  0 17  0  0
   -1.6513   -5.2316    1.4097 H   0  0  0  0  0  0  0  0  0 18  0  0
   -3.4116   -3.6175    2.0706 H   0  0  0  0  0  0  0  0  0 19  0  0
   -3.3164   -1.3029    1.3205 H   0  0  0  0  0  0  0  0  0 20  0  0
  1 11  1  0
  1 10  1  0
  1 12  1  0
  1  2  1  0
  2  3  1  0
  2  4  1  0
  3 15  1  0
  3 13  1  0
  3 14  1  0
  4  9  1  0
  4  5  1  0
  5 16  1  0
  5  6  1  0
  6  7  1  0
  6 17  1  0
  7 18  1  0
  7  8  1  0
  8 19  1  0
  8  9  1  0
  9 20  1  0
M  RAD  1   2   2
M  END
>  <rmg_smiles>  (5) 
C[C](C)C1[CH][CH][CH][CH][CH]1

>  <rmg_adjacency_list>  (5) 
multiplicity 2
1  C u0 p0 c0 {3,S} {10,S} {11,S} {12,S}
2  C u0 p0 c0 {3,S} {13,S} {14,S} {15,S}
3  C u1 p0 c0 {1,S} {2,S} {4,S}
4  C u0 p0 c0 {3,S} {5,S} {6,S}
5  C u0 p0 c0 {4,S} {7,S} {16,S}
6  C u0 p0 c0 {4,S} {9,S} {20,S}
7  C u0 p0 c0 {5,S} {8,S} {17,S}
8  C u0 p0 c0 {7,S} {9,S} {18,S}
9  C u0 p0 c0 {6,S} {8,S} {19,S}
10 H u0 p0 c0 {1,S}
11 H u0 p0 c0 {1,S}
12 H u0 p0 c0 {1,S}
13 H u0 p0 c0 {2,S}
14 H u0 p0 c0 {2,S}
15 H u0 p0 c0 {2,S}
16 H u0 p0 c0 {5,S}
17 H u0 p0 c0 {7,S}
18 H u0 p0 c0 {8,S}
19 H u0 p0 c0 {9,S}
20 H u0 p0 c0 {6,S}


>  <multiplicity>  (5) 
2

>  <reaction>  (5) 
rxn_571

>  <type>  (5) 
r2

>  <role_mapnums>  (5) 
{}

>  <role_mapidx>  (5) 
{}

>  <ordered_mapped_smiles>  (5) 
[C:1]([C:2]([C:3]([H:13])([H:14])[H:15])[CH:4]1[CH:5]([H:16])[CH:6]([H:17])[CH:7]([H:18])[CH:8]([H:19])[CH:9]1[H:20])([H:10])([H:11])[H:12]

>  <level_of_theory>  (5) 
wb97xd/def2tzvp

>  <lot_method>  (5) 
wb97xd

>  <lot_basis>  (5) 
def2tzvp

>  <spin_multiplicity>  (5) 
2.0

>  <optical_isomers>  (5) 
1.0

>  <modes>  (5) 
IdealGasTranslation(mass=(119.086, 'amu')),         NonlinearRotor(             inertia = ([147.943, 418.336, 560.064

>  <frequency_value>  (5) 
unknown

>  <frequency_units>  (5) 
unknown

>  <frequency_list>  (5) 
unknown

>  <arkane_path>  (5) 
/home/calvin/Dropbox/PersonalFolders/Calvin/HAb_Converged/rxn_571/output/Species/rxn_571_C[C][C]c1ccccc1/arkane/output.py

>  <path_exists>  (5) 
True

>  <E0_value>  (5) 
-917305.6793154374

>  <E0_units>  (5) 
kJ/mol

>  <thermo_class>  (5) 
NASA

>  <Cp0_value>  (5) 
33.257888

>  <Cp0_units>  (5) 
J/(mol*K)

>  <CpInf_value>  (5) 
482.239376

>  <CpInf_units>  (5) 
J/(mol*K)

>  <Tmin_value>  (5) 
10.0

>  <Tmin_units>  (5) 
K

>  <Tmax_value>  (5) 
3000.0

>  <Tmax_units>  (5) 
K

>  <polynomials>  (5) 
[{"name": "polynomial1", "class": "NASAPolynomial", "Tmin_value": 10.0, "Tmin_units": "K", "Tmax_value": 820.2225002457031, "Tmax_units": "K", "coeffs": [3.7087715908878534, 0.03551334410867291, 7.625059119540152e-05, -1.2560734316113271e-07, 5.320480088877488e-11, -110326392.84742013, 12.19412592857727]}, {"name": "polynomial2", "class": "NASAPolynomial", "Tmin_value": 820.2225002457031, "Tmin_units": "K", "Tmax_value": 3000.0, "Tmax_units": "K", "coeffs": [2.0631615838326263, 0.07155383546720528, -4.0892856549356014e-05, 1.1247434201086425e-08, -1.200197285964276e-12, -110327065.27984656, 14.06242109608226]}]

>  <H298_value>  (5) 
-219235.10103074583

>  <H298_units>  (5) 
kcal/mol

>  <S298_value>  (5) 
91.98557876161978

>  <S298_units>  (5) 
cal/(mol*K)

>  <Cp_T_value_list>  (5) 
[36.29610547032918, 46.57490747487287, 55.94477856481854, 64.04994476982951, 76.31181375819965, 84.99555925751662, 97.907834516263, 104.08137794150619, 107.1390022615462]

>  <Cp_T_units>  (5) 
cal/(mol*K)

>  <T_list>  (5) 
[300.0, 400.0, 500.0, 600.0, 800.0, 1000.0, 1500.0, 2000.0, 2400.0]

>  <T_units>  (5) 
K

>  <yaml_path>  (5) 
/home/calvin/Dropbox/PersonalFolders/Calvin/HAb_Converged/rxn_571/output/Species/rxn_571_C[C][C]c1ccccc1/rxn_571_CCCc1ccccc1.yml

>  <frequencies_cm1>  (5) 
[63.56081612192, 120.90701052923998, 139.35173309875998, 146.39726003707997, 226.46630886828, 338.41877054023996, 360.33818768168, 416.18737928923997, 451.99870773303996, 518.2376481297599, 524.17759043156, 626.9420257453601, 690.9491959130801, 730.7777107690799, 767.1040631118799, 830.7266821016799, 897.8583305899999, 913.4944561636399, 942.5692720085199, 968.56767843004, 978.9505602338799, 993.91372124616, 999.23563486916, 1039.80578413972, 1044.4753341573198, 1105.9691876979198, 1113.02158162156, 1170.28537220504, 1199.70353731592, 1239.75866268748, 1319.3882244581998, 1348.18836089028, 1355.0896811368798, 1389.11559339748, 1406.12511603512, 1462.54426742424, 1462.78461191044, 1474.0258668792799, 1486.24910074888, 1486.8121935451197, 1509.72045657264, 1596.1139988835598, 1617.80680550944, 2981.31541064864, 2984.9205779416397, 3027.138803689, 3028.1413835457197, 3095.76058799176, 3103.71255699232, 3152.0767346010794, 3159.1703304366397, 3175.07426843776, 3181.8657169192397, 3186.23311958276]

>  <ZPE_kJmol>  (5) 
445.9053042173275

>  <E_elec_kJmol>  (5) 
-917751.5846196548

>  <E0_minus_Eelec_plus_ZPE_kJmol>  (5) 
0.0

>  <rxn>  (5) 
rxn_571

>  <species_type>  (5) 
r0

>  <species_folder>  (5) 
rxn_571_C[C][C]c1ccccc1

>  <frequencies_cm1_list>  (5) 
[63.56081612192, 120.90701052923998, 139.35173309875998, 146.39726003707997, 226.46630886828, 338.41877054023996, 360.33818768168, 416.18737928923997, 451.99870773303996, 518.2376481297599, 524.17759043156, 626.9420257453601, 690.9491959130801, 730.7777107690799, 767.1040631118799, 830.7266821016799, 897.8583305899999, 913.4944561636399, 942.5692720085199, 968.56767843004, 978.9505602338799, 993.91372124616, 999.23563486916, 1039.80578413972, 1044.4753341573198, 1105.9691876979198, 1113.02158162156, 1170.28537220504, 1199.70353731592, 1239.75866268748, 1319.3882244581998, 1348.18836089028, 1355.0896811368798, 1389.11559339748, 1406.12511603512, 1462.54426742424, 1462.78461191044, 1474.0258668792799, 1486.24910074888, 1486.8121935451197, 1509.72045657264, 1596.1139988835598, 1617.80680550944, 2981.31541064864, 2984.9205779416397, 3027.138803689, 3028.1413835457197, 3095.76058799176, 3103.71255699232, 3152.0767346010794, 3159.1703304366397, 3175.07426843776, 3181.8657169192397, 3186.23311958276]

>  <E0_kJmol>  (5) 
-917306

>  <H298_kJmol>  (5) 
-917280

$$$$
