
     RDKit          3D

 12 11  0  0  0  0  0  0  0  0999 V2000
   -0.8260    0.4422   -1.4446 C   0  0  0  0  0  0  0  0  0  1  0  0
   -0.4953    0.2397    0.0132 C   0  0  0  0  0  0  0  0  0  2  0  0
    0.7626   -0.9979    0.2348 S   0  0  0  0  0  0  0  0  0  3  0  0
   -0.3370    1.4983    0.8267 C   0  0  0  0  0  0  0  0  0  4  0  0
   -1.0080   -0.5067   -1.9509 H   0  0  0  0  0  0  0  0  0  5  0  0
   -0.0131    0.9577   -1.9665 H   0  0  0  0  0  0  0  0  0  6  0  0
   -1.7244    1.0555   -1.5368 H   0  0  0  0  0  0  0  0  0  7  0  0
   -1.3881   -0.2247    0.4320 H   0  0  0  0  0  0  0  0  0  8  0  0
    0.8040   -0.9462    1.5734 H   0  0  0  0  0  0  0  0  0  9  0  0
   -1.2095    2.1424    0.6920 H   0  0  0  0  0  0  0  0  0 10  0  0
    0.5513    2.0563    0.5155 H   0  0  0  0  0  0  0  0  0 11  0  0
   -0.2425    1.2750    1.8908 H   0  0  0  0  0  0  0  0  0 12  0  0
  1  5  1  0
  1  7  1  0
  1  6  1  0
  1  2  1  0
  2  8  1  0
  2  3  1  0
  2  4  1  0
  3  9  1  0
  4 11  1  0
  4 12  1  0
  4 10  1  0
M  END
>  <rmg_smiles>  (1) 
CC(S)C

>  <rmg_adjacency_list>  (1) 
1  S u0 p2 c0 {2,S} {12,S}
2  C u0 p0 c0 {1,S} {3,S} {4,S} {5,S}
3  C u0 p0 c0 {2,S} {6,S} {7,S} {8,S}
4  C u0 p0 c0 {2,S} {9,S} {10,S} {11,S}
5  H u0 p0 c0 {2,S}
6  H u0 p0 c0 {3,S}
7  H u0 p0 c0 {3,S}
8  H u0 p0 c0 {3,S}
9  H u0 p0 c0 {4,S}
10 H u0 p0 c0 {4,S}
11 H u0 p0 c0 {4,S}
12 H u0 p0 c0 {1,S}


>  <multiplicity>  (1) 
1

>  <reaction>  (1) 
rxn_1949

>  <type>  (1) 
r1h

>  <role_mapnums>  (1) 
{"r1h_a": 2, "r1h_h": 8}

>  <role_mapidx>  (1) 
{"r1h_a": 1, "r1h_h": 7}

>  <ordered_mapped_smiles>  (1) 
[C:1]([C:2]([S:3][H:9])([C:4]([H:10])([H:11])[H:12])[H:8])([H:5])([H:6])[H:7]

>  <mol_properties>  (1) 
{"1": {"label": "donator", "atom_type": "Cs"}, "7": {"label": "d_hydrogen", "atom_type": "H0"}}

>  <level_of_theory>  (1) 
wb97xd/def2tzvp

>  <lot_method>  (1) 
wb97xd

>  <lot_basis>  (1) 
def2tzvp

>  <spin_multiplicity>  (1) 
1.0

>  <optical_isomers>  (1) 
1.0

>  <modes>  (1) 
IdealGasTranslation(mass=(76.0347, 'amu')),         NonlinearRotor(             inertia = ([63.6143, 114.445, 159.626

>  <frequency_value>  (1) 
unknown

>  <frequency_units>  (1) 
unknown

>  <frequency_list>  (1) 
unknown

>  <arkane_path>  (1) 
/home/calvin/Dropbox/PersonalFolders/Calvin/HAb_Converged/rxn_1949/output/Species/rxn_1949_CC[S]C/arkane/output.py

>  <path_exists>  (1) 
True

>  <E0_value>  (1) 
-1358037.5822550058

>  <E0_units>  (1) 
kJ/mol

>  <thermo_class>  (1) 
NASA

>  <Cp0_value>  (1) 
33.257888

>  <Cp0_units>  (1) 
J/(mol*K)

>  <CpInf_value>  (1) 
282.692048

>  <CpInf_units>  (1) 
J/(mol*K)

>  <Tmin_value>  (1) 
10.0

>  <Tmin_units>  (1) 
K

>  <Tmax_value>  (1) 
3000.0

>  <Tmax_units>  (1) 
K

>  <polynomials>  (1) 
[{"name": "polynomial1", "class": "NASAPolynomial", "Tmin_value": 10.0, "Tmin_units": "K", "Tmax_value": 320.9959568783199, "Tmax_units": "K", "coeffs": [3.875707707258065, 0.009381393221698805, 0.00011821761563925809, -2.840791683127776e-07, 2.2503054199897307e-10, -163334191.46119478, 9.447715656882277]}, {"name": "polynomial2", "class": "NASAPolynomial", "Tmin_value": 320.9959568783199, "Tmin_units": "K", "Tmax_value": 3000.0, "Tmax_units": "K", "coeffs": [1.4804313687165462, 0.0392293738339864, -2.1260332941863044e-05, 5.597575733417067e-09, -5.766692868203356e-13, -163334037.68600142, 18.28172887429199]}]

>  <H298_value>  (1) 
-324574.4746758071

>  <H298_units>  (1) 
kcal/mol

>  <S298_value>  (1) 
74.54106238673705

>  <S298_units>  (1) 
cal/(mol*K)

>  <Cp_T_value_list>  (1) 
[22.817742792292417, 28.047451919441322, 32.67700803830931, 36.76068886623605, 43.494132537801676, 48.62769564827391, 56.55822768504675, 60.513904730141455, 62.43762055183555]

>  <Cp_T_units>  (1) 
cal/(mol*K)

>  <T_list>  (1) 
[300.0, 400.0, 500.0, 600.0, 800.0, 1000.0, 1500.0, 2000.0, 2400.0]

>  <T_units>  (1) 
K

>  <yaml_path>  (1) 
/home/calvin/Dropbox/PersonalFolders/Calvin/HAb_Converged/rxn_1949/output/Species/rxn_1949_CC[S]C/rxn_1949_CCSC.yml

>  <frequencies_cm1>  (1) 
[200.30996178439997, 239.06722693047996, 267.56521600848, 329.97237859663994, 342.10634165708, 410.44657956172, 623.61153786516, 869.4496123211601, 901.3398921472399, 934.4387613896399, 956.6946608117601, 1108.0979531471198, 1133.34785816876, 1186.1618422648799, 1298.32031349644, 1327.60113890092, 1394.17656157832, 1410.9800746563599, 1469.09537141952, 1472.7211396684797, 1483.6945822098398, 1489.7375292914398, 2684.9363242374397, 3006.5378477289996, 3009.88206957984, 3034.84356121804, 3072.7630541550793, 3080.1175954327996, 3104.83187559948, 3107.40699509448]

>  <ZPE_kJmol>  (1) 
268.8623138646832

>  <E_elec_kJmol>  (1) 
-1358306.4445688706

>  <E0_minus_Eelec_plus_ZPE_kJmol>  (1) 
0.0

>  <rxn>  (1) 
rxn_1949

>  <species_type>  (1) 
r1

>  <species_folder>  (1) 
rxn_1949_CC[S]C

>  <frequencies_cm1_list>  (1) 
[200.30996178439997, 239.06722693047996, 267.56521600848, 329.97237859663994, 342.10634165708, 410.44657956172, 623.61153786516, 869.4496123211601, 901.3398921472399, 934.4387613896399, 956.6946608117601, 1108.0979531471198, 1133.34785816876, 1186.1618422648799, 1298.32031349644, 1327.60113890092, 1394.17656157832, 1410.9800746563599, 1469.09537141952, 1472.7211396684797, 1483.6945822098398, 1489.7375292914398, 2684.9363242374397, 3006.5378477289996, 3009.88206957984, 3034.84356121804, 3072.7630541550793, 3080.1175954327996, 3104.83187559948, 3107.40699509448]

>  <E0_kJmol>  (1) 
-1.35804e+06

>  <H298_kJmol>  (1) 
-1.35802e+06

$$$$

     RDKit          3D

  6  5  0  0  0  0  0  0  0  0999 V2000
    0.7205   -0.3748    1.2283 S   0  0  0  0  0  0  0  0  0  1  0  0
    0.4853    0.1111   -0.2741 C   0  0  0  0  0  0  0  0  0  2  0  0
   -0.6893    0.2986   -1.0027 C   0  0  0  0  0  2  0  0  0  3  0  0
   -1.6374    0.4892   -1.7212 C   0  0  0  0  0  2  0  0  0  4  0  0
   -2.4948    0.6459   -2.3316 H   0  0  0  0  0  0  0  0  0  5  0  0
    1.3644    0.4608   -0.8154 H   0  0  0  0  0  0  0  0  0  6  0  0
  1  2  1  0
  2  6  1  0
  2  3  1  0
  3  4  1  0
  4  5  1  0
M  RAD  2   3   3   4   3
M  END
>  <rmg_smiles>  (2) 
[CH][C][CH][S]

>  <rmg_adjacency_list>  (2) 
1 S u0 p2 c0 {2,S}
2 C u0 p0 c0 {1,S} {3,S} {5,S}
3 C u0 p1 c0 {2,S} {4,S}
4 C u0 p1 c0 {3,S} {6,S}
5 H u0 p0 c0 {2,S}
6 H u0 p0 c0 {4,S}


>  <multiplicity>  (2) 
1

>  <reaction>  (2) 
rxn_1949

>  <type>  (2) 
r2h

>  <role_mapnums>  (2) 
{"r2h_a": 2, "r2h_h": 6}

>  <role_mapidx>  (2) 
{"r2h_a": 1, "r2h_h": 5}

>  <ordered_mapped_smiles>  (2) 
[SH:1][CH:2]([C:3][C:4][H:5])[H:6]

>  <mol_properties>  (2) 
{"1": {"label": "acceptor", "atom_type": "Cs"}, "5": {"label": "a_hydrogen", "atom_type": "H0"}}

>  <level_of_theory>  (2) 
wb97xd/def2tzvp

>  <lot_method>  (2) 
wb97xd

>  <lot_basis>  (2) 
def2tzvp

>  <spin_multiplicity>  (2) 
1.0

>  <optical_isomers>  (2) 
1.0

>  <modes>  (2) 
IdealGasTranslation(mass=(69.9877, 'amu')),         NonlinearRotor(             inertia = ([11.6212, 161.614, 173.235

>  <frequency_value>  (2) 
unknown

>  <frequency_units>  (2) 
unknown

>  <frequency_list>  (2) 
unknown

>  <arkane_path>  (2) 
/home/calvin/Dropbox/PersonalFolders/Calvin/HAb_Converged/rxn_1949/output/Species/rxn_1949_S=CCtC/arkane/output.py

>  <path_exists>  (2) 
True

>  <E0_value>  (2) 
-1348403.2166827258

>  <E0_units>  (2) 
kJ/mol

>  <thermo_class>  (2) 
NASA

>  <Cp0_value>  (2) 
33.257888

>  <Cp0_units>  (2) 
J/(mol*K)

>  <CpInf_value>  (2) 
133.031552

>  <CpInf_units>  (2) 
J/(mol*K)

>  <Tmin_value>  (2) 
10.0

>  <Tmin_units>  (2) 
K

>  <Tmax_value>  (2) 
3000.0

>  <Tmax_units>  (2) 
K

>  <polynomials>  (2) 
[{"name": "polynomial1", "class": "NASAPolynomial", "Tmin_value": 10.0, "Tmin_units": "K", "Tmax_value": 526.1931186551269, "Tmax_units": "K", "coeffs": [3.9344179530593837, 0.004065911246821127, 6.553703840412658e-05, -1.443495918647441e-07, 9.394913877894461e-11, -162175444.89571163, 8.726396833892856]}, {"name": "polynomial2", "class": "NASAPolynomial", "Tmin_value": 526.1931186551269, "Tmin_units": "K", "Tmax_value": 3000.0, "Tmax_units": "K", "coeffs": [4.093919333345027, 0.01690723381309554, -1.1131975130527351e-05, 3.5450645767000207e-09, -4.3283902101660573e-13, -162175656.24187788, 6.210553362827294]}]

>  <H298_value>  (2) 
-322272.7386756088

>  <H298_units>  (2) 
kcal/mol

>  <S298_value>  (2) 
67.91208442892471

>  <S298_units>  (2) 
cal/(mol*K)

>  <Cp_T_value_list>  (2) 
[15.73087337153612, 18.308993297637482, 20.229276045615624, 21.740807345987587, 24.110825163743634, 25.79672956901056, 28.180916020636673, 29.441614337399088, 30.200603661820587]

>  <Cp_T_units>  (2) 
cal/(mol*K)

>  <T_list>  (2) 
[300.0, 400.0, 500.0, 600.0, 800.0, 1000.0, 1500.0, 2000.0, 2400.0]

>  <T_units>  (2) 
K

>  <yaml_path>  (2) 
/home/calvin/Dropbox/PersonalFolders/Calvin/HAb_Converged/rxn_1949/output/Species/rxn_1949_S=CCtC/rxn_1949_S=CCtC.yml

>  <frequencies_cm1>  (2) 
[195.80521941447998, 323.02298945279995, 518.06597349676, 673.6855948186, 732.2953145248, 869.92343430824, 913.78286954708, 1131.63797882408, 1352.94031473172, 2194.1048145197997, 3080.7287571262796, 3429.86689175104]

>  <ZPE_kJmol>  (2) 
92.2073468060466

>  <E_elec_kJmol>  (2) 
-1348495.424029532

>  <E0_minus_Eelec_plus_ZPE_kJmol>  (2) 
0.0

>  <rxn>  (2) 
rxn_1949

>  <species_type>  (2) 
p0

>  <species_folder>  (2) 
rxn_1949_S=CCtC

>  <frequencies_cm1_list>  (2) 
[195.80521941447998, 323.02298945279995, 518.06597349676, 673.6855948186, 732.2953145248, 869.92343430824, 913.78286954708, 1131.63797882408, 1352.94031473172, 2194.1048145197997, 3080.7287571262796, 3429.86689175104]

>  <E0_kJmol>  (2) 
-1.3484e+06

>  <H298_kJmol>  (2) 
-1.34839e+06

$$$$

     RDKit          3D

 17 15  0  0  0  0  0  0  0  0999 V2000
   -0.8311   -0.7028    1.8861 S   0  0  0  0  0  0  0  0  0  1  0  0
   -1.0664   -0.2169    0.3838 C   0  0  0  0  0  0  0  0  0  2  0  0
   -2.2409   -0.0295   -0.3448 C   0  0  0  0  0  0  0  0  0  3  0  0
   -3.1891    0.1612   -1.0633 C   0  0  0  0  0  0  0  0  0  4  0  0
   -4.0465    0.3179   -1.6738 H   0  0  0  0  0  0  0  0  0  5  0  0
    0.7912    0.9921   -2.2585 C   0  0  0  0  0  0  0  0  0  6  0  0
    1.1219    0.7895   -0.8007 C   0  0  0  0  0  3  0  0  0  7  0  0
    2.3798   -0.4480   -0.5792 S   0  0  0  0  0  0  0  0  0  8  0  0
    1.2802    2.0482    0.0127 C   0  0  0  0  0  0  0  0  0  9  0  0
    0.6092    0.0432   -2.7649 H   0  0  0  0  0  0  0  0  0 10  0  0
    1.6040    1.5076   -2.7805 H   0  0  0  0  0  0  0  0  0 11  0  0
   -0.1072    1.6054   -2.3508 H   0  0  0  0  0  0  0  0  0 12  0  0
    0.0114    0.2119   -0.2799 H   0  0  0  0  0  0  0  0  0 13  0  0
    2.4212   -0.3964    0.7595 H   0  0  0  0  0  0  0  0  0 14  0  0
    0.4077    2.6922   -0.1220 H   0  0  0  0  0  0  0  0  0 15  0  0
    2.1685    2.6061   -0.2984 H   0  0  0  0  0  0  0  0  0 16  0  0
    1.3747    1.8248    1.0768 H   0  0  0  0  0  0  0  0  0 17  0  0
  1  2  1  0
  2 13  1  0
  2  3  1  0
  3  4  1  0
  4  5  1  0
  6  7  1  0
  6 11  1  0
  6 12  1  0
  6 10  1  0
  7  8  1  0
  7  9  1  0
  8 14  1  0
  9 17  1  0
  9 16  1  0
  9 15  1  0
M  RAD  1   7   2
M  END
>  <rmg_smiles>  (3) 
C[C](S)C.[CH][C][CH][S]

>  <rmg_adjacency_list>  (3) 
multiplicity 2
1  S u0 p2 c0 {5,S} {16,S}
2  S u0 p2 c0 {6,S}
3  C u0 p0 c0 {5,S} {9,S} {10,S} {11,S}
4  C u0 p0 c0 {5,S} {12,S} {13,S} {14,S}
5  C u1 p0 c0 {1,S} {3,S} {4,S}
6  C u0 p0 c0 {2,S} {7,S} {15,S}
7  C u0 p1 c0 {6,S} {8,S}
8  C u0 p1 c0 {7,S} {17,S}
9  H u0 p0 c0 {3,S}
10 H u0 p0 c0 {3,S}
11 H u0 p0 c0 {3,S}
12 H u0 p0 c0 {4,S}
13 H u0 p0 c0 {4,S}
14 H u0 p0 c0 {4,S}
15 H u0 p0 c0 {6,S}
16 H u0 p0 c0 {1,S}
17 H u0 p0 c0 {8,S}


>  <multiplicity>  (3) 
2

>  <reaction>  (3) 
rxn_1949

>  <type>  (3) 
ts

>  <role_mapnums>  (3) 
{"*2": 13, "*1": 7, "*3": 2, "*0": 1, "*4": 8}

>  <role_mapidx>  (3) 
{"*2": 12, "*1": 6, "*3": 1, "*0": 0, "*4": 7}

>  <ordered_mapped_smiles>  (3) 
[SH:1][CH:2]([CH2:3][CH2:4][H:5])[H:13].[C:6]([C:7]([S:8][H:14])[C:9]([H:15])([H:16])[H:17])([H:10])([H:11])[H:12]

>  <mol_properties>  (3) 
{"0": {"label": "*0", "atom_type": "S2s"}, "1": {"label": "*3", "atom_type": "Cs"}, "6": {"label": "*1", "atom_type": "Cs"}, "7": {"label": "*4", "atom_type": "S2s"}, "12": {"label": "*2", "atom_type": "H0"}}

>  <level_of_theory>  (3) 
wb97xd/def2tzvp

>  <lot_method>  (3) 
wb97xd

>  <lot_basis>  (3) 
def2tzvp

>  <spin_multiplicity>  (3) 
2.0

>  <optical_isomers>  (3) 
2.0

>  <modes>  (3) 
IdealGasTranslation(mass=(145.015, 'amu')),         NonlinearRotor(             inertia = ([315.186, 579.643, 744.157

>  <frequency_value>  (3) 
-1690.95

>  <frequency_units>  (3) 
cm^-1

>  <frequency_list>  (3) 
unknown

>  <arkane_path>  (3) 
/home/calvin/Dropbox/PersonalFolders/Calvin/HAb_Converged/rxn_1949/output/rxns/TS0/arkane/output.py

>  <path_exists>  (3) 
True

>  <E0_value>  (3) 
-2704720.0

>  <E0_units>  (3) 
kJ/mol

>  <thermo_class>  (3) 
unknown

>  <Cp0_value>  (3) 
unknown

>  <Cp0_units>  (3) 
unknown

>  <CpInf_value>  (3) 
unknown

>  <CpInf_units>  (3) 
unknown

>  <Tmin_value>  (3) 
unknown

>  <Tmin_units>  (3) 
unknown

>  <Tmax_value>  (3) 
unknown

>  <Tmax_units>  (3) 
unknown

>  <polynomials>  (3) 
unknown

>  <H298_value>  (3) 
unknown

>  <H298_units>  (3) 
unknown

>  <S298_value>  (3) 
unknown

>  <S298_units>  (3) 
unknown

>  <Cp_T_value_list>  (3) 
unknown

>  <Cp_T_units>  (3) 
unknown

>  <T_list>  (3) 
unknown

>  <T_units>  (3) 
unknown

>  <yaml_path>  (3) 
unknown

>  <frequencies_cm1>  (3) 
unknown

>  <ZPE_kJmol>  (3) 
unknown

>  <E_elec_kJmol>  (3) 
unknown

>  <E0_minus_Eelec_plus_ZPE_kJmol>  (3) 
unknown

>  <rxn>  (3) 
unknown

>  <species_type>  (3) 
unknown

>  <species_folder>  (3) 
unknown

>  <frequencies_cm1_list>  (3) 
[]

>  <ts_imag_freq_cm1>  (3) 
-1711.4896

>  <ts_freq_out_path>  (3) 
/home/calvin/Dropbox/PersonalFolders/Calvin/HAb_Converged/rxn_1949/output/rxns/TS0/geometry/freq.out

>  <E0_kJmol>  (3) 
-2.70472e+06

>  <H298_kJmol>  (3) 
unknown

$$$$

     RDKit          3D

 11 10  0  0  0  0  0  0  0  0999 V2000
    1.0781   -1.0166   -0.1159 C   0  0  0  0  0  0  0  0  0  1  0  0
    0.2180    0.1942   -0.2297 C   0  0  0  0  0  3  0  0  0  2  0  0
    0.9343    1.7769   -0.3011 S   0  0  0  0  0  0  0  0  0  3  0  0
   -1.1949    0.1490    0.2439 C   0  0  0  0  0  0  0  0  0  4  0  0
    1.4718   -1.1461    0.9024 H   0  0  0  0  0  0  0  0  0  5  0  0
    1.9367   -0.9751   -0.7902 H   0  0  0  0  0  0  0  0  0  6  0  0
    0.5033   -1.9136   -0.3576 H   0  0  0  0  0  0  0  0  0  7  0  0
    2.1166    1.4195   -0.8209 H   0  0  0  0  0  0  0  0  0  8  0  0
   -1.2620    0.0939    1.3399 H   0  0  0  0  0  0  0  0  0  9  0  0
   -1.7600    1.0270   -0.0739 H   0  0  0  0  0  0  0  0  0 10  0  0
   -1.6972   -0.7380   -0.1506 H   0  0  0  0  0  0  0  0  0 11  0  0
  1  5  1  0
  1  7  1  0
  1  6  1  0
  1  2  1  0
  2  3  1  0
  2  4  1  0
  3  8  1  0
  4  9  1  0
  4 10  1  0
  4 11  1  0
M  RAD  1   2   2
M  END
>  <rmg_smiles>  (4) 
C[C](S)C

>  <rmg_adjacency_list>  (4) 
multiplicity 2
1  S u0 p2 c0 {4,S} {11,S}
2  C u0 p0 c0 {4,S} {5,S} {6,S} {7,S}
3  C u0 p0 c0 {4,S} {8,S} {9,S} {10,S}
4  C u1 p0 c0 {1,S} {2,S} {3,S}
5  H u0 p0 c0 {2,S}
6  H u0 p0 c0 {2,S}
7  H u0 p0 c0 {2,S}
8  H u0 p0 c0 {3,S}
9  H u0 p0 c0 {3,S}
10 H u0 p0 c0 {3,S}
11 H u0 p0 c0 {1,S}


>  <multiplicity>  (4) 
2

>  <reaction>  (4) 
rxn_1949

>  <type>  (4) 
r1

>  <role_mapnums>  (4) 
{}

>  <role_mapidx>  (4) 
{}

>  <ordered_mapped_smiles>  (4) 
[C:1]([C:2]([S:3][H:8])[C:4]([H:9])([H:10])[H:11])([H:5])([H:6])[H:7]

>  <level_of_theory>  (4) 
wb97xd/def2tzvp

>  <lot_method>  (4) 
wb97xd

>  <lot_basis>  (4) 
def2tzvp

>  <spin_multiplicity>  (4) 
2.0

>  <optical_isomers>  (4) 
2.0

>  <modes>  (4) 
IdealGasTranslation(mass=(75.0268, 'amu')),         NonlinearRotor(             inertia = ([61.999, 107.328, 162.226

>  <frequency_value>  (4) 
unknown

>  <frequency_units>  (4) 
unknown

>  <frequency_list>  (4) 
unknown

>  <arkane_path>  (4) 
/home/calvin/Dropbox/PersonalFolders/Calvin/HAb_Converged/rxn_1949/output/Species/rxn_1949_C[C][S]C/arkane/output.py

>  <path_exists>  (4) 
True

>  <E0_value>  (4) 
-1356347.4134395572

>  <E0_units>  (4) 
kJ/mol

>  <thermo_class>  (4) 
NASA

>  <Cp0_value>  (4) 
33.257888

>  <Cp0_units>  (4) 
J/(mol*K)

>  <CpInf_value>  (4) 
257.748632

>  <CpInf_units>  (4) 
J/(mol*K)

>  <Tmin_value>  (4) 
10.0

>  <Tmin_units>  (4) 
K

>  <Tmax_value>  (4) 
3000.0

>  <Tmax_units>  (4) 
K

>  <polynomials>  (4) 
[{"name": "polynomial1", "class": "NASAPolynomial", "Tmin_value": 10.0, "Tmin_units": "K", "Tmax_value": 631.511036458598, "Tmax_units": "K", "coeffs": [3.630144501923197, 0.030233799754007962, -1.5729865197854517e-05, 1.0342555122076897e-08, -6.278675853253594e-12, -163130908.91812575, 11.085422231430835]}, {"name": "polynomial2", "class": "NASAPolynomial", "Tmin_value": 631.511036458598, "Tmin_units": "K", "Tmax_value": 3000.0, "Tmax_units": "K", "coeffs": [2.121241242594707, 0.035971217312262126, -2.0284227742328106e-05, 5.57187370145946e-09, -5.981486451043817e-13, -163130642.16838282, 18.274548777693933]}]

>  <H298_value>  (4) 
-324170.22635589016

>  <H298_units>  (4) 
kcal/mol

>  <S298_value>  (4) 
79.79982372204114

>  <S298_units>  (4) 
cal/(mol*K)

>  <Cp_T_value_list>  (4) 
[22.878685143927463, 27.24077654618155, 31.22891087325513, 34.831653006690544, 40.78563883173169, 45.27245080713911, 52.09561404746616, 55.50541234106847, 57.22251846881106]

>  <Cp_T_units>  (4) 
cal/(mol*K)

>  <T_list>  (4) 
[300.0, 400.0, 500.0, 600.0, 800.0, 1000.0, 1500.0, 2000.0, 2400.0]

>  <T_units>  (4) 
K

>  <yaml_path>  (4) 
/home/calvin/Dropbox/PersonalFolders/Calvin/HAb_Converged/rxn_1949/output/Species/rxn_1949_C[C][S]C/rxn_1949_CCSC.yml

>  <frequencies_cm1>  (4) 
[136.00751124791998, 145.49081797484, 227.77790306439996, 252.01836124399998, 317.69420884448, 349.40594705224, 628.3497577359599, 911.91504954004, 945.1100565769199, 959.9015429561998, 985.2063838604, 1047.7989550522, 1210.77998463708, 1266.96565852532, 1390.69500002108, 1406.7156767726399, 1455.1279232786399, 1462.5374004389198, 1466.95287199968, 1477.52802939248, 2689.0427814587997, 2949.1641853804, 2953.29124355772, 3034.22553253924, 3035.0633047482797, 3077.07552093604, 3083.7982995643197]

>  <ZPE_kJmol>  (4) 
232.4682179533116

>  <E_elec_kJmol>  (4) 
-1356579.8816575103

>  <E0_minus_Eelec_plus_ZPE_kJmol>  (4) 
0.0

>  <rxn>  (4) 
rxn_1949

>  <species_type>  (4) 
p1

>  <species_folder>  (4) 
rxn_1949_C[C][S]C

>  <frequencies_cm1_list>  (4) 
[136.00751124791998, 145.49081797484, 227.77790306439996, 252.01836124399998, 317.69420884448, 349.40594705224, 628.3497577359599, 911.91504954004, 945.1100565769199, 959.9015429561998, 985.2063838604, 1047.7989550522, 1210.77998463708, 1266.96565852532, 1390.69500002108, 1406.7156767726399, 1455.1279232786399, 1462.5374004389198, 1466.95287199968, 1477.52802939248, 2689.0427814587997, 2949.1641853804, 2953.29124355772, 3034.22553253924, 3035.0633047482797, 3077.07552093604, 3083.7982995643197]

>  <E0_kJmol>  (4) 
-1.35635e+06

>  <H298_kJmol>  (4) 
-1.35633e+06

$$$$

     RDKit          3D

  5  4  0  0  0  0  0  0  0  0999 V2000
    2.6236   -0.7239   -0.0480 S   0  0  0  0  0  0  0  0  0  1  0  0
    1.1387   -0.3127    0.0749 C   0  0  0  0  0  3  0  0  0  2  0  0
   -0.1295    0.0381    0.1799 C   0  0  0  0  0  0  0  0  0  3  0  0
   -1.3055    0.3633    0.2773 C   0  0  0  0  0  0  0  0  0  4  0  0
   -2.3276    0.6458    0.3620 H   0  0  0  0  0  0  0  0  0  5  0  0
  1  2  1  0
  2  3  1  0
  3  4  1  0
  4  5  1  0
M  RAD  1   2   2
M  END
>  <rmg_smiles>  (5) 
[CH][C][C][S]

>  <rmg_adjacency_list>  (5) 
multiplicity 2
1 S u0 p2 c0 {3,S}
2 C u0 p1 c0 {3,S} {4,S}
3 C u1 p1 c0 {1,S} {2,S}
4 C u0 p1 c0 {2,S} {5,S}
5 H u0 p0 c0 {4,S}


>  <multiplicity>  (5) 
2

>  <reaction>  (5) 
rxn_1949

>  <type>  (5) 
r2

>  <role_mapnums>  (5) 
{}

>  <role_mapidx>  (5) 
{}

>  <ordered_mapped_smiles>  (5) 
[SH:1][CH:2][CH2:3][CH2:4][H:5]

>  <level_of_theory>  (5) 
wb97xd/def2tzvp

>  <lot_method>  (5) 
wb97xd

>  <lot_basis>  (5) 
def2tzvp

>  <spin_multiplicity>  (5) 
2.0

>  <optical_isomers>  (5) 
1.0

>  <modes>  (5) 
IdealGasTranslation(mass=(68.9799, 'amu')),         LinearRotor(inertia=(188.075, 'amu*angstrom^2'), symmetry=1),         HarmonicOscillator(             frequencies = ([93.4966, 167.289, 201.971, 376.378, 540.956, 717.169, 781.564, 1596.2, 2040.71, 3466.67

>  <frequency_value>  (5) 
unknown

>  <frequency_units>  (5) 
unknown

>  <frequency_list>  (5) 
unknown

>  <arkane_path>  (5) 
/home/calvin/Dropbox/PersonalFolders/Calvin/HAb_Converged/rxn_1949/output/Species/rxn_1949_S=[C]CtC/arkane/output.py

>  <path_exists>  (5) 
True

>  <E0_value>  (5) 
-1346748.525888848

>  <E0_units>  (5) 
kJ/mol

>  <thermo_class>  (5) 
NASA

>  <Cp0_value>  (5) 
29.100652

>  <Cp0_units>  (5) 
J/(mol*K)

>  <CpInf_value>  (5) 
112.245372

>  <CpInf_units>  (5) 
J/(mol*K)

>  <Tmin_value>  (5) 
10.0

>  <Tmin_units>  (5) 
K

>  <Tmax_value>  (5) 
3000.0

>  <Tmax_units>  (5) 
K

>  <polynomials>  (5) 
[{"name": "polynomial1", "class": "NASAPolynomial", "Tmin_value": 10.0, "Tmin_units": "K", "Tmax_value": 769.7583891784509, "Tmax_units": "K", "coeffs": [3.111163816671663, 0.02992862827494502, -5.221181068105274e-05, 4.759075179668085e-08, -1.6928575309993778e-11, -161976427.06542102, 9.397313552116858]}, {"name": "polynomial2", "class": "NASAPolynomial", "Tmin_value": 769.7583891784509, "Tmin_units": "K", "Tmax_value": 3000.0, "Tmax_units": "K", "coeffs": [6.43678943721919, 0.009329834181756159, -5.60720972366639e-06, 1.6290695139550947e-09, -1.8293267488808612e-13, -161976840.7686189, -5.13826461973475]}]

>  <H298_value>  (5) 
-321876.8702999363

>  <H298_units>  (5) 
kcal/mol

>  <S298_value>  (5) 
67.7811479534956

>  <S298_units>  (5) 
cal/(mol*K)

>  <Cp_T_value_list>  (5) 
[16.967798828593466, 18.562817862288746, 19.69984038306643, 20.582984090055223, 22.000754506675843, 23.06262586652686, 24.61618623194758, 25.383089848936045, 25.797623295395837]

>  <Cp_T_units>  (5) 
cal/(mol*K)

>  <T_list>  (5) 
[300.0, 400.0, 500.0, 600.0, 800.0, 1000.0, 1500.0, 2000.0, 2400.0]

>  <T_units>  (5) 
K

>  <yaml_path>  (5) 
/home/calvin/Dropbox/PersonalFolders/Calvin/HAb_Converged/rxn_1949/output/Species/rxn_1949_S=[C]CtC/rxn_1949_S=CCtC.yml

>  <frequencies_cm1>  (5) 
[92.37468652464001, 165.28146966708, 199.54772641387999, 371.86098904863996, 534.4643344409199, 708.5630132588799, 772.1856322486799, 1577.0443806499197, 2016.2224267905199, 3425.0668690123593]

>  <ZPE_kJmol>  (5) 
58.99153421110432

>  <E_elec_kJmol>  (5) 
-1346807.517423059

>  <E0_minus_Eelec_plus_ZPE_kJmol>  (5) 
0.0

>  <rxn>  (5) 
rxn_1949

>  <species_type>  (5) 
r0

>  <species_folder>  (5) 
rxn_1949_S=[C]CtC

>  <frequencies_cm1_list>  (5) 
[92.37468652464001, 165.28146966708, 199.54772641387999, 371.86098904863996, 534.4643344409199, 708.5630132588799, 772.1856322486799, 1577.0443806499197, 2016.2224267905199, 3425.0668690123593]

>  <E0_kJmol>  (5) 
-1.34675e+06

>  <H298_kJmol>  (5) 
-1.34673e+06

$$$$
