
     RDKit          3D

 25 26  0  0  0  0  0  0  0  0999 V2000
   -0.5567    0.5493   -0.1641 C   0  0  0  0  0  0  0  0  0  1  0  0
    0.3331   -0.4045    0.6319 C   0  0  0  0  0  0  0  0  0  2  0  0
   -1.1343    1.4567    0.9169 C   0  0  0  0  0  0  0  0  0  3  0  0
   -0.5138   -0.7378    1.8648 C   0  0  0  0  0  0  0  0  0  4  0  0
    0.1892    1.1603   -1.3345 C   0  0  0  0  0  0  0  0  0  5  0  0
    0.8208   -1.5466   -0.2423 C   0  0  0  0  0  0  0  0  0  6  0  0
   -1.3832    0.4989    2.0716 C   0  0  0  0  0  0  0  0  0  7  0  0
    0.7123    0.0367   -2.2344 C   0  0  0  0  0  0  0  0  0  8  0  0
    1.5548   -0.9831   -1.4631 C   0  0  0  0  0  0  0  0  0  9  0  0
   -1.3800   -0.0456   -0.5747 H   0  0  0  0  0  0  0  0  0 10  0  0
    1.2090    0.1695    0.9662 H   0  0  0  0  0  0  0  0  0 11  0  0
   -1.4164    0.9261    3.0711 H   0  0  0  0  0  0  0  0  0 12  0  0
   -2.4065    0.1571    1.9352 H   0  0  0  0  0  0  0  0  0 13  0  0
   -0.4014    2.2224    1.2010 H   0  0  0  0  0  0  0  0  0 14  0  0
   -2.0392    1.9815    0.5989 H   0  0  0  0  0  0  0  0  0 15  0  0
    0.0903   -0.9787    2.7416 H   0  0  0  0  0  0  0  0  0 16  0  0
   -1.1353   -1.6177    1.6593 H   0  0  0  0  0  0  0  0  0 17  0  0
   -0.4608    1.8283   -1.9060 H   0  0  0  0  0  0  0  0  0 18  0  0
    1.0264    1.7647   -0.9646 H   0  0  0  0  0  0  0  0  0 19  0  0
    1.4768   -2.2209    0.3149 H   0  0  0  0  0  0  0  0  0 20  0  0
   -0.0444   -2.1351   -0.5695 H   0  0  0  0  0  0  0  0  0 21  0  0
    1.2967    0.4505   -3.0595 H   0  0  0  0  0  0  0  0  0 22  0  0
   -0.1470   -0.4759   -2.6811 H   0  0  0  0  0  0  0  0  0 23  0  0
    2.4785   -0.4995   -1.1255 H   0  0  0  0  0  0  0  0  0 24  0  0
    1.8550   -1.7947   -2.1300 H   0  0  0  0  0  0  0  0  0 25  0  0
  1  3  1  0
  1  5  1  0
  1 10  1  0
  1  2  1  0
  2 11  1  0
  2  6  1  0
  2  4  1  0
  3 15  1  0
  3  7  1  0
  3 14  1  0
  4 17  1  0
  4  7  1  0
  4 16  1  0
  5 18  1  0
  5  8  1  0
  5 19  1  0
  6  9  1  0
  6 20  1  0
  6 21  1  0
  7 12  1  0
  7 13  1  0
  8 23  1  0
  8  9  1  0
  8 22  1  0
  9 24  1  0
  9 25  1  0
M  END
>  <rmg_smiles>  (1) 
C1CCC2CCCC2C1

>  <rmg_adjacency_list>  (1) 
1  C u0 p0 c0 {2,S} {3,S} {5,S} {10,S}
2  C u0 p0 c0 {1,S} {4,S} {6,S} {11,S}
3  C u0 p0 c0 {1,S} {7,S} {14,S} {15,S}
4  C u0 p0 c0 {2,S} {7,S} {16,S} {17,S}
5  C u0 p0 c0 {1,S} {8,S} {18,S} {19,S}
6  C u0 p0 c0 {2,S} {9,S} {20,S} {21,S}
7  C u0 p0 c0 {3,S} {4,S} {12,S} {13,S}
8  C u0 p0 c0 {5,S} {9,S} {22,S} {23,S}
9  C u0 p0 c0 {6,S} {8,S} {24,S} {25,S}
10 H u0 p0 c0 {1,S}
11 H u0 p0 c0 {2,S}
12 H u0 p0 c0 {7,S}
13 H u0 p0 c0 {7,S}
14 H u0 p0 c0 {3,S}
15 H u0 p0 c0 {3,S}
16 H u0 p0 c0 {4,S}
17 H u0 p0 c0 {4,S}
18 H u0 p0 c0 {5,S}
19 H u0 p0 c0 {5,S}
20 H u0 p0 c0 {6,S}
21 H u0 p0 c0 {6,S}
22 H u0 p0 c0 {8,S}
23 H u0 p0 c0 {8,S}
24 H u0 p0 c0 {9,S}
25 H u0 p0 c0 {9,S}


>  <multiplicity>  (1) 
1

>  <reaction>  (1) 
rxn_613

>  <type>  (1) 
r1h

>  <role_mapnums>  (1) 
{"r1h_a": 7, "r1h_h": 13}

>  <role_mapidx>  (1) 
{"r1h_a": 6, "r1h_h": 12}

>  <ordered_mapped_smiles>  (1) 
[C:1]12([H:10])[C:2]([H:11])([C:4]([H:16])([H:17])[C:7]([H:12])([H:13])[C:3]1([H:14])[H:15])[C:6]([H:20])([H:21])[C:9]([H:24])([H:25])[C:8]([H:22])([H:23])[C:5]2([H:18])[H:19]

>  <mol_properties>  (1) 
{"6": {"label": "donator", "atom_type": "Cs"}, "12": {"label": "d_hydrogen", "atom_type": "H0"}}

>  <level_of_theory>  (1) 
wb97xd/def2tzvp

>  <lot_method>  (1) 
wb97xd

>  <lot_basis>  (1) 
def2tzvp

>  <spin_multiplicity>  (1) 
1.0

>  <optical_isomers>  (1) 
2.0

>  <modes>  (1) 
IdealGasTranslation(mass=(124.125, 'amu')),         NonlinearRotor(             inertia = ([170.024, 375.242, 505.424

>  <frequency_value>  (1) 
unknown

>  <frequency_units>  (1) 
unknown

>  <frequency_list>  (1) 
unknown

>  <arkane_path>  (1) 
/home/calvin/Dropbox/PersonalFolders/Calvin/HAb_Converged/rxn_613/output/Species/rxn_613_C1CCC2CCCC2C1/arkane/output.py

>  <path_exists>  (1) 
True

>  <E0_value>  (1) 
-925233.0049241188

>  <E0_units>  (1) 
kJ/mol

>  <thermo_class>  (1) 
NASA

>  <Cp0_value>  (1) 
33.257888

>  <Cp0_units>  (1) 
J/(mol*K)

>  <CpInf_value>  (1) 
606.956456

>  <CpInf_units>  (1) 
J/(mol*K)

>  <Tmin_value>  (1) 
10.0

>  <Tmin_units>  (1) 
K

>  <Tmax_value>  (1) 
3000.0

>  <Tmax_units>  (1) 
K

>  <polynomials>  (1) 
[{"name": "polynomial1", "class": "NASAPolynomial", "Tmin_value": 10.0, "Tmin_units": "K", "Tmax_value": 492.86414085374884, "Tmax_units": "K", "coeffs": [4.007994789865864, -0.0014434969438387518, 0.0002774235318770471, -4.47143959124011e-07, 2.345687014006794e-10, -111279824.80461533, 12.742603075803766]}, {"name": "polynomial2", "class": "NASAPolynomial", "Tmin_value": 492.86414085374884, "Tmin_units": "K", "Tmax_value": 3000.0, "Tmax_units": "K", "coeffs": [-9.95853370242537, 0.11191389639895702, -6.759505783925652e-05, 1.9571966588871765e-08, -2.183492026273649e-12, -111278448.17509678, 70.24048730977755]}]

>  <H298_value>  (1) 
-221130.41480672767

>  <H298_units>  (1) 
kcal/mol

>  <S298_value>  (1) 
87.40258332007863

>  <S298_units>  (1) 
cal/(mol*K)

>  <Cp_T_value_list>  (1) 
[36.50534740058796, 50.089738669944325, 62.417515537946755, 73.12949241055418, 90.29515590280347, 102.83551087971135, 120.87161605712708, 129.42454969138163, 133.951878152645]

>  <Cp_T_units>  (1) 
cal/(mol*K)

>  <T_list>  (1) 
[300.0, 400.0, 500.0, 600.0, 800.0, 1000.0, 1500.0, 2000.0, 2400.0]

>  <T_units>  (1) 
K

>  <yaml_path>  (1) 
/home/calvin/Dropbox/PersonalFolders/Calvin/HAb_Converged/rxn_613/output/Species/rxn_613_C1CCC2CCCC2C1/rxn_613_C1CCC2CCCC2C1.yml

>  <frequencies_cm1>  (1) 
[79.74630052116, 161.44969185852, 192.46099756363998, 319.95344701476, 325.08995203411996, 337.32691987436, 425.16252910247994, 470.50523317043996, 497.06673238819997, 579.3538174777599, 623.59780389452, 769.3495673115199, 782.1839628746, 837.42199278868, 848.74565158136, 873.0204446875598, 907.5545138618398, 921.7142375916799, 922.5451428153999, 945.43967187228, 987.1978096031999, 1015.3867843418, 1044.03584709684, 1066.28487953364, 1072.4857672776, 1096.98030391404, 1116.2696656779199, 1122.75209982, 1142.3985448205199, 1202.0657802659998, 1207.82031396416, 1217.5508321625998, 1256.61711164808, 1262.63945777372, 1284.5314069738797, 1286.2687542598399, 1313.97704002604, 1316.9847795961998, 1320.6311488011202, 1339.9411115209598, 1339.9754464475598, 1365.2322184545199, 1368.74811493836, 1376.8580246012798, 1398.55083122716, 1401.5036349147601, 1472.50826312356, 1476.82072990452, 1478.06365424744, 1478.81215564732, 1486.92206531024, 1491.0628574582, 1506.3831017071197, 2950.4551786205598, 2962.34193020948, 2991.31374127456, 2991.7532283350397, 2996.8759993837602, 3001.07172741428, 3015.06664349644, 3015.65720423396, 3043.90798184044, 3044.3474689009204, 3044.821290888, 3053.3088847435192, 3057.07199269888, 3062.7784574998, 3072.117557535, 3090.8781614292393]

>  <ZPE_kJmol>  (1) 
613.2521071062491

>  <E_elec_kJmol>  (1) 
-925846.257031225

>  <E0_minus_Eelec_plus_ZPE_kJmol>  (1) 
0.0

>  <rxn>  (1) 
rxn_613

>  <species_type>  (1) 
r1

>  <species_folder>  (1) 
rxn_613_C1CCC2CCCC2C1

>  <frequencies_cm1_list>  (1) 
[79.74630052116, 161.44969185852, 192.46099756363998, 319.95344701476, 325.08995203411996, 337.32691987436, 425.16252910247994, 470.50523317043996, 497.06673238819997, 579.3538174777599, 623.59780389452, 769.3495673115199, 782.1839628746, 837.42199278868, 848.74565158136, 873.0204446875598, 907.5545138618398, 921.7142375916799, 922.5451428153999, 945.43967187228, 987.1978096031999, 1015.3867843418, 1044.03584709684, 1066.28487953364, 1072.4857672776, 1096.98030391404, 1116.2696656779199, 1122.75209982, 1142.3985448205199, 1202.0657802659998, 1207.82031396416, 1217.5508321625998, 1256.61711164808, 1262.63945777372, 1284.5314069738797, 1286.2687542598399, 1313.97704002604, 1316.9847795961998, 1320.6311488011202, 1339.9411115209598, 1339.9754464475598, 1365.2322184545199, 1368.74811493836, 1376.8580246012798, 1398.55083122716, 1401.5036349147601, 1472.50826312356, 1476.82072990452, 1478.06365424744, 1478.81215564732, 1486.92206531024, 1491.0628574582, 1506.3831017071197, 2950.4551786205598, 2962.34193020948, 2991.31374127456, 2991.7532283350397, 2996.8759993837602, 3001.07172741428, 3015.06664349644, 3015.65720423396, 3043.90798184044, 3044.3474689009204, 3044.821290888, 3053.3088847435192, 3057.07199269888, 3062.7784574998, 3072.117557535, 3090.8781614292393]

>  <E0_kJmol>  (1) 
-925233

>  <H298_kJmol>  (1) 
-925210

$$$$

     RDKit          3D

 15 15  0  0  0  0  0  0  0  0999 V2000
   -0.1616    0.1836    0.9250 C   0  0  0  0  0  0  0  0  0  1  0  0
   -0.4490    1.1341   -0.0598 C   0  0  0  0  0  0  0  0  0  2  0  0
    0.3071   -1.0665    0.5085 C   0  0  0  0  0  0  0  0  0  3  0  0
   -0.2474    0.8575   -1.4005 C   0  0  0  0  0  0  0  0  0  4  0  0
    0.2416   -0.3807   -1.7946 C   0  0  0  0  0  0  0  0  0  5  0  0
    0.5083   -1.3446   -0.8321 C   0  0  0  0  0  0  0  0  0  6  0  0
   -0.2236    0.5298    2.3464 C   0  0  0  0  0  0  0  0  0  7  0  0
    0.7610    0.9171    2.5975 H   0  0  0  0  0  0  0  0  0  8  0  0
   -0.8173    2.1088    0.2391 H   0  0  0  0  0  0  0  0  0  9  0  0
   -0.4686    1.6133   -2.1439 H   0  0  0  0  0  0  0  0  0 10  0  0
    0.4055   -0.5950   -2.8428 H   0  0  0  0  0  0  0  0  0 11  0  0
    0.8801   -2.3176   -1.1287 H   0  0  0  0  0  0  0  0  0 12  0  0
    0.5301   -1.8219    1.2534 H   0  0  0  0  0  0  0  0  0 13  0  0
   -0.3284   -0.3113    3.0279 H   0  0  0  0  0  0  0  0  0 14  0  0
   -0.8851    1.3555    2.5976 H   0  0  0  0  0  0  0  0  0 15  0  0
  1  3  1  0
  1  7  1  0
  1  2  1  0
  2  9  1  0
  2  4  1  0
  3  6  1  0
  3 13  1  0
  4  5  1  0
  4 10  1  0
  5 11  1  0
  5  6  1  0
  6 12  1  0
  7 14  1  0
  7  8  1  0
  7 15  1  0
M  END
>  <rmg_smiles>  (2) 
CC1[CH][CH][CH][CH][CH]1

>  <rmg_adjacency_list>  (2) 
1  C u0 p0 c0 {2,S} {8,S} {9,S} {10,S}
2  C u0 p0 c0 {1,S} {3,S} {4,S}
3  C u0 p0 c0 {2,S} {5,S} {11,S}
4  C u0 p0 c0 {2,S} {7,S} {15,S}
5  C u0 p0 c0 {3,S} {6,S} {12,S}
6  C u0 p0 c0 {5,S} {7,S} {13,S}
7  C u0 p0 c0 {4,S} {6,S} {14,S}
8  H u0 p0 c0 {1,S}
9  H u0 p0 c0 {1,S}
10 H u0 p0 c0 {1,S}
11 H u0 p0 c0 {3,S}
12 H u0 p0 c0 {5,S}
13 H u0 p0 c0 {6,S}
14 H u0 p0 c0 {7,S}
15 H u0 p0 c0 {4,S}


>  <multiplicity>  (2) 
1

>  <reaction>  (2) 
rxn_613

>  <type>  (2) 
r2h

>  <role_mapnums>  (2) 
{"r2h_a": 7, "r2h_h": 8}

>  <role_mapidx>  (2) 
{"r2h_a": 6, "r2h_h": 7}

>  <ordered_mapped_smiles>  (2) 
[CH:1]1([C:7]([H:8])([H:14])[H:15])[CH:2]([H:9])[CH:4]([H:10])[CH:5]([H:11])[CH:6]([H:12])[CH:3]1[H:13]

>  <mol_properties>  (2) 
{"6": {"label": "acceptor", "atom_type": "Cs"}, "7": {"label": "a_hydrogen", "atom_type": "H0"}}

>  <level_of_theory>  (2) 
wb97xd/def2tzvp

>  <lot_method>  (2) 
wb97xd

>  <lot_basis>  (2) 
def2tzvp

>  <spin_multiplicity>  (2) 
1.0

>  <optical_isomers>  (2) 
1.0

>  <modes>  (2) 
IdealGasTranslation(mass=(92.0626, 'amu')),         NonlinearRotor(             inertia = ([90.1823, 198.896, 285.945

>  <frequency_value>  (2) 
unknown

>  <frequency_units>  (2) 
unknown

>  <frequency_list>  (2) 
unknown

>  <arkane_path>  (2) 
/home/calvin/Dropbox/PersonalFolders/Calvin/HAb_Converged/rxn_613/output/Species/rxn_613_Cc1ccccc1/arkane/output.py

>  <path_exists>  (2) 
True

>  <E0_value>  (2) 
-712667.4186954657

>  <E0_units>  (2) 
kJ/mol

>  <thermo_class>  (2) 
NASA

>  <Cp0_value>  (2) 
33.257888

>  <Cp0_units>  (2) 
J/(mol*K)

>  <CpInf_value>  (2) 
357.522296

>  <CpInf_units>  (2) 
J/(mol*K)

>  <Tmin_value>  (2) 
10.0

>  <Tmin_units>  (2) 
K

>  <Tmax_value>  (2) 
3000.0

>  <Tmax_units>  (2) 
K

>  <polynomials>  (2) 
[{"name": "polynomial1", "class": "NASAPolynomial", "Tmin_value": 10.0, "Tmin_units": "K", "Tmax_value": 551.6404107050422, "Tmax_units": "K", "coeffs": [3.9807877443631, 0.00035561988080208296, 0.00017407945539970812, -2.980514466570864e-07, 1.625970399361135e-10, -85714089.32981402, 11.957872909957874]}, {"name": "polynomial2", "class": "NASAPolynomial", "Tmin_value": 551.6404107050422, "Tmin_units": "K", "Tmax_value": 3000.0, "Tmax_units": "K", "coeffs": [-2.4640727136101863, 0.06292197006651765, -3.910390273638268e-05, 1.1617229825521433e-08, -1.3239176957032157e-12, -85713619.20098881, 37.03314537917204]}]

>  <H298_value>  (2) 
-170327.1711088113

>  <H298_units>  (2) 
kcal/mol

>  <S298_value>  (2) 
79.81344471114225

>  <S298_units>  (2) 
cal/(mol*K)

>  <Cp_T_value_list>  (2) 
[25.881917309628086, 33.90758568479932, 40.90534559010948, 46.79761268221675, 56.14404960423432, 62.889733704082204, 72.41563025517803, 76.9434671339039, 79.45318395865998]

>  <Cp_T_units>  (2) 
cal/(mol*K)

>  <T_list>  (2) 
[300.0, 400.0, 500.0, 600.0, 800.0, 1000.0, 1500.0, 2000.0, 2400.0]

>  <T_units>  (2) 
K

>  <yaml_path>  (2) 
/home/calvin/Dropbox/PersonalFolders/Calvin/HAb_Converged/rxn_613/output/Species/rxn_613_Cc1ccccc1/rxn_613_Cc1ccccc1.yml

>  <frequencies_cm1>  (2) 
[32.67311615255999, 208.88682644908, 346.6454189536, 414.1066827372799, 475.62800421915995, 527.95443235756, 633.69913930024, 711.73556047672, 745.6928028841199, 800.1617304423601, 861.8684605278798, 915.5202168330399, 979.4449831769199, 991.60641417864, 997.6768292015198, 1015.82627140228, 1052.7363174972797, 1058.5389200926797, 1109.8078324918, 1173.8974064833599, 1201.1112693065197, 1232.0058362611999, 1316.04400260736, 1349.7815014845198, 1404.03755249784, 1462.1391152903598, 1476.8481978457999, 1495.6225357106798, 1530.4999541509599, 1640.12450779944, 1663.1975784746398, 3015.0391755551595, 3079.01201079628, 3101.631860440359, 3145.0655425893597, 3146.5282104625194, 3159.5205466879593, 3168.9008486350795, 3181.02107772488]

>  <ZPE_kJmol>  (2) 
333.8912309447283

>  <E_elec_kJmol>  (2) 
-713001.3099264104

>  <E0_minus_Eelec_plus_ZPE_kJmol>  (2) 
0.0

>  <rxn>  (2) 
rxn_613

>  <species_type>  (2) 
p0

>  <species_folder>  (2) 
rxn_613_Cc1ccccc1

>  <frequencies_cm1_list>  (2) 
[32.67311615255999, 208.88682644908, 346.6454189536, 414.1066827372799, 475.62800421915995, 527.95443235756, 633.69913930024, 711.73556047672, 745.6928028841199, 800.1617304423601, 861.8684605278798, 915.5202168330399, 979.4449831769199, 991.60641417864, 997.6768292015198, 1015.82627140228, 1052.7363174972797, 1058.5389200926797, 1109.8078324918, 1173.8974064833599, 1201.1112693065197, 1232.0058362611999, 1316.04400260736, 1349.7815014845198, 1404.03755249784, 1462.1391152903598, 1476.8481978457999, 1495.6225357106798, 1530.4999541509599, 1640.12450779944, 1663.1975784746398, 3015.0391755551595, 3079.01201079628, 3101.631860440359, 3145.0655425893597, 3146.5282104625194, 3159.5205466879593, 3168.9008486350795, 3181.02107772488]

>  <E0_kJmol>  (2) 
-712667

>  <H298_kJmol>  (2) 
-712649

$$$$

     RDKit          3D

 39 40  0  0  0  0  0  0  0  0999 V2000
    0.7774    0.8942    0.1014 C   0  0  0  0  0  0  0  0  0  1  0  0
    1.6672   -0.0596    0.8974 C   0  0  0  0  0  0  0  0  0  2  0  0
    0.1998    1.8016    1.1824 C   0  0  0  0  0  0  0  0  0  3  0  0
    0.8203   -0.3929    2.1303 C   0  0  0  0  0  0  0  0  0  4  0  0
    1.5233    1.5052   -1.0691 C   0  0  0  0  0  0  0  0  0  5  0  0
    2.1549   -1.2017    0.0231 C   0  0  0  0  0  0  0  0  0  6  0  0
   -0.0491    0.8437    2.3371 C   0  0  0  0  0  3  0  0  0  7  0  0
    2.0464    0.3816   -1.9689 C   0  0  0  0  0  0  0  0  0  8  0  0
    2.8889   -0.6382   -1.1976 C   0  0  0  0  0  0  0  0  0  9  0  0
   -2.4762   -0.4050    0.4378 C   0  0  0  0  0  0  0  0  0 10  0  0
   -2.7635    0.5454   -0.5470 C   0  0  0  0  0  0  0  0  0 11  0  0
   -2.0074   -1.6551    0.0213 C   0  0  0  0  0  0  0  0  0 12  0  0
   -2.5619    0.2689   -1.8877 C   0  0  0  0  0  0  0  0  0 13  0  0
   -2.0729   -0.9693   -2.2818 C   0  0  0  0  0  0  0  0  0 14  0  0
   -1.8062   -1.9332   -1.3193 C   0  0  0  0  0  0  0  0  0 15  0  0
   -2.5381   -0.0588    1.8591 C   0  0  0  0  0  0  0  0  0 16  0  0
   -0.0459    0.2993   -0.3092 H   0  0  0  0  0  0  0  0  0 17  0  0
    2.5431    0.5144    1.2316 H   0  0  0  0  0  0  0  0  0 18  0  0
   -0.0823    1.2710    3.3366 H   0  0  0  0  0  0  0  0  0 19  0  0
   -1.3375    0.4135    2.1653 H   0  0  0  0  0  0  0  0  0 20  0  0
    0.9327    2.5673    1.4665 H   0  0  0  0  0  0  0  0  0 21  0  0
   -0.7051    2.3264    0.8643 H   0  0  0  0  0  0  0  0  0 22  0  0
    1.4244   -0.6338    3.0070 H   0  0  0  0  0  0  0  0  0 23  0  0
    0.1988   -1.2728    1.9248 H   0  0  0  0  0  0  0  0  0 24  0  0
    0.8733    2.1732   -1.6405 H   0  0  0  0  0  0  0  0  0 25  0  0
    2.3605    2.1096   -0.6991 H   0  0  0  0  0  0  0  0  0 26  0  0
    2.8109   -1.8760    0.5804 H   0  0  0  0  0  0  0  0  0 27  0  0
    1.2897   -1.7902   -0.3040 H   0  0  0  0  0  0  0  0  0 28  0  0
    2.6308    0.7954   -2.7940 H   0  0  0  0  0  0  0  0  0 29  0  0
    1.1871   -0.1310   -2.4156 H   0  0  0  0  0  0  0  0  0 30  0  0
    3.8126   -0.1546   -0.8600 H   0  0  0  0  0  0  0  0  0 31  0  0
    3.1891   -1.4498   -1.8645 H   0  0  0  0  0  0  0  0  0 32  0  0
   -3.1318    1.5202   -0.2481 H   0  0  0  0  0  0  0  0  0 33  0  0
   -2.7831    1.0247   -2.6311 H   0  0  0  0  0  0  0  0  0 34  0  0
   -1.9090   -1.1837   -3.3300 H   0  0  0  0  0  0  0  0  0 35  0  0
   -1.4344   -2.9062   -1.6160 H   0  0  0  0  0  0  0  0  0 36  0  0
   -1.7844   -2.4105    0.7662 H   0  0  0  0  0  0  0  0  0 37  0  0
   -2.6429   -0.8999    2.5406 H   0  0  0  0  0  0  0  0  0 38  0  0
   -3.1996    0.7668    2.1104 H   0  0  0  0  0  0  0  0  0 39  0  0
  1  3  1  0
  1  5  1  0
  1 17  1  0
  1  2  1  0
  2  6  1  0
  2  4  1  0
  2 18  1  0
  3 22  1  0
  3 21  1  0
  3  7  1  0
  4 23  1  0
  4  7  1  0
  4 24  1  0
  5 26  1  0
  5 25  1  0
  5  8  1  0
  6 27  1  0
  6  9  1  0
  6 28  1  0
  7 19  1  0
  8 29  1  0
  8  9  1  0
  8 30  1  0
  9 31  1  0
  9 32  1  0
 10 16  1  0
 10 11  1  0
 10 12  1  0
 11 13  1  0
 11 33  1  0
 12 15  1  0
 12 37  1  0
 13 34  1  0
 13 14  1  0
 14 35  1  0
 14 15  1  0
 15 36  1  0
 16 20  1  0
 16 38  1  0
 16 39  1  0
M  RAD  1   7   2
M  END
>  <rmg_smiles>  (3) 
CC1[CH][CH][CH][CH][CH]1.[CH]1CC2CCCCC2C1

>  <rmg_adjacency_list>  (3) 
multiplicity 2
1  C u0 p0 c0 {2,S} {3,S} {7,S} {17,S}
2  C u0 p0 c0 {1,S} {4,S} {8,S} {18,S}
3  C u0 p0 c0 {1,S} {5,S} {19,S} {20,S}
4  C u0 p0 c0 {2,S} {6,S} {21,S} {22,S}
5  C u0 p0 c0 {3,S} {6,S} {23,S} {24,S}
6  C u0 p0 c0 {4,S} {5,S} {25,S} {26,S}
7  C u0 p0 c0 {1,S} {11,S} {27,S} {28,S}
8  C u0 p0 c0 {2,S} {11,S} {29,S} {30,S}
9  C u0 p0 c0 {10,S} {31,S} {32,S} {33,S}
10 C u0 p0 c0 {9,S} {12,S} {13,S}
11 C u1 p0 c0 {7,S} {8,S} {34,S}
12 C u0 p0 c0 {10,S} {14,S} {35,S}
13 C u0 p0 c0 {10,S} {16,S} {39,S}
14 C u0 p0 c0 {12,S} {15,S} {36,S}
15 C u0 p0 c0 {14,S} {16,S} {37,S}
16 C u0 p0 c0 {13,S} {15,S} {38,S}
17 H u0 p0 c0 {1,S}
18 H u0 p0 c0 {2,S}
19 H u0 p0 c0 {3,S}
20 H u0 p0 c0 {3,S}
21 H u0 p0 c0 {4,S}
22 H u0 p0 c0 {4,S}
23 H u0 p0 c0 {5,S}
24 H u0 p0 c0 {5,S}
25 H u0 p0 c0 {6,S}
26 H u0 p0 c0 {6,S}
27 H u0 p0 c0 {7,S}
28 H u0 p0 c0 {7,S}
29 H u0 p0 c0 {8,S}
30 H u0 p0 c0 {8,S}
31 H u0 p0 c0 {9,S}
32 H u0 p0 c0 {9,S}
33 H u0 p0 c0 {9,S}
34 H u0 p0 c0 {11,S}
35 H u0 p0 c0 {12,S}
36 H u0 p0 c0 {14,S}
37 H u0 p0 c0 {15,S}
38 H u0 p0 c0 {16,S}
39 H u0 p0 c0 {13,S}


>  <multiplicity>  (3) 
2

>  <reaction>  (3) 
rxn_613

>  <type>  (3) 
ts

>  <role_mapnums>  (3) 
{"*2": 20, "*1": 16, "*3": 7, "*0": 10, "*4": 3}

>  <role_mapidx>  (3) 
{"*2": 19, "*1": 15, "*3": 6, "*0": 9, "*4": 2}

>  <ordered_mapped_smiles>  (3) 
[C:1]12([H:17])[C:2]([H:18])([C:4]([H:23])([H:24])[C:7]([H:19])[C:3]1([H:21])[H:22])[C:6]([H:27])([H:28])[C:9]([H:31])([H:32])[C:8]([H:29])([H:30])[C:5]2([H:25])[H:26].[CH:10]1([C:16]([H:20])([H:38])[H:39])[CH:11]([H:33])[CH:13]([H:34])[CH:14]([H:35])[CH:15]([H:36])[CH:12]1[H:37]

>  <mol_properties>  (3) 
{"2": {"label": "*4", "atom_type": "Cs"}, "6": {"label": "*3", "atom_type": "Cs"}, "9": {"label": "*0", "atom_type": "Cs"}, "15": {"label": "*1", "atom_type": "Cs"}, "19": {"label": "*2", "atom_type": "H0"}}

>  <level_of_theory>  (3) 
wb97xd/def2tzvp

>  <lot_method>  (3) 
wb97xd

>  <lot_basis>  (3) 
def2tzvp

>  <spin_multiplicity>  (3) 
2.0

>  <optical_isomers>  (3) 
2.0

>  <modes>  (3) 
IdealGasTranslation(mass=(215.18, 'amu')),         NonlinearRotor(             inertia = ([732.784, 1082.27, 1351.64

>  <frequency_value>  (3) 
-1716.11

>  <frequency_units>  (3) 
cm^-1

>  <frequency_list>  (3) 
unknown

>  <arkane_path>  (3) 
/home/calvin/Dropbox/PersonalFolders/Calvin/HAb_Converged/rxn_613/output/rxns/TS0/arkane/output.py

>  <path_exists>  (3) 
True

>  <E0_value>  (3) 
-1636150.0

>  <E0_units>  (3) 
kJ/mol

>  <thermo_class>  (3) 
unknown

>  <Cp0_value>  (3) 
unknown

>  <Cp0_units>  (3) 
unknown

>  <CpInf_value>  (3) 
unknown

>  <CpInf_units>  (3) 
unknown

>  <Tmin_value>  (3) 
unknown

>  <Tmin_units>  (3) 
unknown

>  <Tmax_value>  (3) 
unknown

>  <Tmax_units>  (3) 
unknown

>  <polynomials>  (3) 
unknown

>  <H298_value>  (3) 
unknown

>  <H298_units>  (3) 
unknown

>  <S298_value>  (3) 
unknown

>  <S298_units>  (3) 
unknown

>  <Cp_T_value_list>  (3) 
unknown

>  <Cp_T_units>  (3) 
unknown

>  <T_list>  (3) 
unknown

>  <T_units>  (3) 
unknown

>  <yaml_path>  (3) 
unknown

>  <frequencies_cm1>  (3) 
unknown

>  <ZPE_kJmol>  (3) 
unknown

>  <E_elec_kJmol>  (3) 
unknown

>  <E0_minus_Eelec_plus_ZPE_kJmol>  (3) 
unknown

>  <rxn>  (3) 
unknown

>  <species_type>  (3) 
unknown

>  <species_folder>  (3) 
unknown

>  <frequencies_cm1_list>  (3) 
[]

>  <ts_imag_freq_cm1>  (3) 
-1736.9496

>  <ts_freq_out_path>  (3) 
/home/calvin/Dropbox/PersonalFolders/Calvin/HAb_Converged/rxn_613/output/rxns/TS0/geometry/freq.out

>  <E0_kJmol>  (3) 
-1.63615e+06

>  <H298_kJmol>  (3) 
unknown

$$$$

     RDKit          3D

 24 25  0  0  0  0  0  0  0  0999 V2000
   -2.3462    0.0587    0.4026 C   0  0  0  0  0  3  0  0  0  1  0  0
   -1.9216   -0.8977   -0.6619 C   0  0  0  0  0  0  0  0  0  2  0  0
   -0.4224   -0.6048   -0.8347 C   0  0  0  0  0  0  0  0  0  3  0  0
    0.4246   -1.4411    0.1277 C   0  0  0  0  0  0  0  0  0  4  0  0
    1.8615   -0.9403    0.2199 C   0  0  0  0  0  0  0  0  0  5  0  0
    1.8962    0.5175    0.6671 C   0  0  0  0  0  0  0  0  0  6  0  0
    1.1011    1.4007   -0.2911 C   0  0  0  0  0  0  0  0  0  7  0  0
   -0.3231    0.9028   -0.5260 C   0  0  0  0  0  0  0  0  0  8  0  0
   -1.3110    1.1041    0.6384 C   0  0  0  0  0  0  0  0  0  9  0  0
   -3.2900    0.0057    0.9268 H   0  0  0  0  0  0  0  0  0 10  0  0
   -2.1170   -1.9442   -0.4050 H   0  0  0  0  0  0  0  0  0 11  0  0
   -2.4616   -0.7093   -1.6016 H   0  0  0  0  0  0  0  0  0 12  0  0
   -0.0868   -0.8050   -1.8562 H   0  0  0  0  0  0  0  0  0 13  0  0
   -0.0273   -1.4106    1.1258 H   0  0  0  0  0  0  0  0  0 14  0  0
    0.4005   -2.4873   -0.1884 H   0  0  0  0  0  0  0  0  0 15  0  0
    2.4341   -1.5641    0.9101 H   0  0  0  0  0  0  0  0  0 16  0  0
    2.3441   -1.0297   -0.7603 H   0  0  0  0  0  0  0  0  0 17  0  0
    1.4821    0.5910    1.6781 H   0  0  0  0  0  0  0  0  0 18  0  0
    2.9265    0.8752    0.7283 H   0  0  0  0  0  0  0  0  0 19  0  0
    1.0758    2.4318    0.0723 H   0  0  0  0  0  0  0  0  0 20  0  0
    1.6246    1.4246   -1.2529 H   0  0  0  0  0  0  0  0  0 21  0  0
   -0.7335    1.4393   -1.3877 H   0  0  0  0  0  0  0  0  0 22  0  0
   -0.8124    0.9625    1.6085 H   0  0  0  0  0  0  0  0  0 23  0  0
   -1.7184    2.1202    0.6602 H   0  0  0  0  0  0  0  0  0 24  0  0
  1 10  1  0
  1  9  1  0
  1  2  1  0
  2 12  1  0
  2 11  1  0
  2  3  1  0
  3  4  1  0
  3 13  1  0
  3  8  1  0
  4 14  1  0
  4  5  1  0
  4 15  1  0
  5 16  1  0
  5 17  1  0
  5  6  1  0
  6  7  1  0
  6 19  1  0
  6 18  1  0
  7 20  1  0
  7 21  1  0
  7  8  1  0
  8  9  1  0
  8 22  1  0
  9 24  1  0
  9 23  1  0
M  RAD  1   1   2
M  END
>  <rmg_smiles>  (4) 
[CH]1CC2CCCCC2C1

>  <rmg_adjacency_list>  (4) 
multiplicity 2
1  C u0 p0 c0 {2,S} {3,S} {7,S} {10,S}
2  C u0 p0 c0 {1,S} {4,S} {8,S} {11,S}
3  C u0 p0 c0 {1,S} {5,S} {12,S} {13,S}
4  C u0 p0 c0 {2,S} {6,S} {18,S} {19,S}
5  C u0 p0 c0 {3,S} {6,S} {14,S} {15,S}
6  C u0 p0 c0 {4,S} {5,S} {16,S} {17,S}
7  C u0 p0 c0 {1,S} {9,S} {20,S} {21,S}
8  C u0 p0 c0 {2,S} {9,S} {22,S} {23,S}
9  C u1 p0 c0 {7,S} {8,S} {24,S}
10 H u0 p0 c0 {1,S}
11 H u0 p0 c0 {2,S}
12 H u0 p0 c0 {3,S}
13 H u0 p0 c0 {3,S}
14 H u0 p0 c0 {5,S}
15 H u0 p0 c0 {5,S}
16 H u0 p0 c0 {6,S}
17 H u0 p0 c0 {6,S}
18 H u0 p0 c0 {4,S}
19 H u0 p0 c0 {4,S}
20 H u0 p0 c0 {7,S}
21 H u0 p0 c0 {7,S}
22 H u0 p0 c0 {8,S}
23 H u0 p0 c0 {8,S}
24 H u0 p0 c0 {9,S}


>  <multiplicity>  (4) 
2

>  <reaction>  (4) 
rxn_613

>  <type>  (4) 
r1

>  <role_mapnums>  (4) 
{}

>  <role_mapidx>  (4) 
{}

>  <ordered_mapped_smiles>  (4) 
[C:1]1([H:10])[C:2]([H:11])([H:12])[C:3]2([H:13])[C:4]([H:14])([H:15])[C:5]([H:16])([H:17])[C:6]([H:18])([H:19])[C:7]([H:20])([H:21])[C:8]2([H:22])[C:9]1([H:23])[H:24]

>  <level_of_theory>  (4) 
wb97xd/def2tzvp

>  <lot_method>  (4) 
wb97xd

>  <lot_basis>  (4) 
def2tzvp

>  <spin_multiplicity>  (4) 
2.0

>  <optical_isomers>  (4) 
2.0

>  <modes>  (4) 
IdealGasTranslation(mass=(123.117, 'amu')),         NonlinearRotor(             inertia = ([182.859, 335.738, 424.72

>  <frequency_value>  (4) 
unknown

>  <frequency_units>  (4) 
unknown

>  <frequency_list>  (4) 
unknown

>  <arkane_path>  (4) 
/home/calvin/Dropbox/PersonalFolders/Calvin/HAb_Converged/rxn_613/output/Species/rxn_613_[CH]1CC2CCCCC2C1/arkane/output.py

>  <path_exists>  (4) 
True

>  <E0_value>  (4) 
-923523.381550898

>  <E0_units>  (4) 
kJ/mol

>  <thermo_class>  (4) 
NASA

>  <Cp0_value>  (4) 
33.257888

>  <Cp0_units>  (4) 
J/(mol*K)

>  <CpInf_value>  (4) 
582.01304

>  <CpInf_units>  (4) 
J/(mol*K)

>  <Tmin_value>  (4) 
10.0

>  <Tmin_units>  (4) 
K

>  <Tmax_value>  (4) 
3000.0

>  <Tmax_units>  (4) 
K

>  <polynomials>  (4) 
[{"name": "polynomial1", "class": "NASAPolynomial", "Tmin_value": 10.0, "Tmin_units": "K", "Tmax_value": 526.4834343259283, "Tmax_units": "K", "coeffs": [3.98643894828874, -0.00023182140811730054, 0.00028231001506313013, -4.759214837969805e-07, 2.590692260082836e-10, -111074203.63386503, 13.49617432795343]}, {"name": "polynomial2", "class": "NASAPolynomial", "Tmin_value": 526.4834343259283, "Tmin_units": "K", "Tmax_value": 3000.0, "Tmax_units": "K", "coeffs": [-8.038530107035681, 0.1064091818695619, -6.505516623617582e-05, 1.906120741359288e-08, -2.1496250536372206e-12, -111073149.21835624, 61.78404410488912]}]

>  <H298_value>  (4) 
-220721.71313565032

>  <H298_units>  (4) 
kcal/mol

>  <S298_value>  (4) 
89.39628008765251

>  <S298_units>  (4) 
cal/(mol*K)

>  <Cp_T_value_list>  (4) 
[36.90913064982296, 50.15015676910796, 61.90083300801128, 71.988043048504, 88.09755552735788, 99.81155582762689, 116.55009221226358, 124.50807980477506, 128.7878327045076]

>  <Cp_T_units>  (4) 
cal/(mol*K)

>  <T_list>  (4) 
[300.0, 400.0, 500.0, 600.0, 800.0, 1000.0, 1500.0, 2000.0, 2400.0]

>  <T_units>  (4) 
K

>  <yaml_path>  (4) 
/home/calvin/Dropbox/PersonalFolders/Calvin/HAb_Converged/rxn_613/output/Species/rxn_613_[CH]1CC2CCCCC2C1/rxn_613_CH1CC2CCCCC2C1.yml

>  <frequencies_cm1>  (4) 
[146.42472797835998, 158.91577427544, 205.58380651015997, 300.86322782516, 319.93971304412, 341.24796849208, 360.57166518256, 413.82513633915994, 476.2185649566799, 587.1615797866, 608.54537207308, 718.4995410169199, 772.020824601, 810.8742275415599, 835.6159756495199, 860.57746728772, 899.1355898595199, 910.8163318888398, 920.0592941295598, 932.81815285412, 958.1367277289598, 1008.73267556672, 1015.1807747821998, 1048.8564707914802, 1053.3474791907602, 1058.02389619368, 1092.04294146896, 1112.6850993408798, 1130.1890449215598, 1155.4664178844798, 1170.0381607335198, 1233.24876060412, 1247.16813984776, 1271.69014442548, 1273.9081806838399, 1295.6902581188797, 1312.967593184, 1330.9247597958001, 1338.83552688444, 1355.8175815808, 1365.2802873517599, 1368.27429295128, 1378.8425833587598, 1392.36367745384, 1394.5061768736798, 1457.40089541956, 1463.74598985524, 1472.3503224611998, 1478.6336140289998, 1482.5340616907597, 1495.07317688508, 2942.0225206476, 2948.31267920072, 2993.1403593696796, 2993.82705790168, 2997.4802940919203, 3004.5876238981195, 3006.34557214004, 3011.77049054284, 3016.1790951182797, 3025.6898697864804, 3042.96033786628, 3048.17924670948, 3052.8556637123997, 3057.50461277404, 3183.91894552992]

>  <ZPE_kJmol>  (4) 
574.904176107268

>  <E_elec_kJmol>  (4) 
-924098.2857270052

>  <E0_minus_Eelec_plus_ZPE_kJmol>  (4) 
0.0

>  <rxn>  (4) 
rxn_613

>  <species_type>  (4) 
p1

>  <species_folder>  (4) 
rxn_613_[CH]1CC2CCCCC2C1

>  <frequencies_cm1_list>  (4) 
[146.42472797835998, 158.91577427544, 205.58380651015997, 300.86322782516, 319.93971304412, 341.24796849208, 360.57166518256, 413.82513633915994, 476.2185649566799, 587.1615797866, 608.54537207308, 718.4995410169199, 772.020824601, 810.8742275415599, 835.6159756495199, 860.57746728772, 899.1355898595199, 910.8163318888398, 920.0592941295598, 932.81815285412, 958.1367277289598, 1008.73267556672, 1015.1807747821998, 1048.8564707914802, 1053.3474791907602, 1058.02389619368, 1092.04294146896, 1112.6850993408798, 1130.1890449215598, 1155.4664178844798, 1170.0381607335198, 1233.24876060412, 1247.16813984776, 1271.69014442548, 1273.9081806838399, 1295.6902581188797, 1312.967593184, 1330.9247597958001, 1338.83552688444, 1355.8175815808, 1365.2802873517599, 1368.27429295128, 1378.8425833587598, 1392.36367745384, 1394.5061768736798, 1457.40089541956, 1463.74598985524, 1472.3503224611998, 1478.6336140289998, 1482.5340616907597, 1495.07317688508, 2942.0225206476, 2948.31267920072, 2993.1403593696796, 2993.82705790168, 2997.4802940919203, 3004.5876238981195, 3006.34557214004, 3011.77049054284, 3016.1790951182797, 3025.6898697864804, 3042.96033786628, 3048.17924670948, 3052.8556637123997, 3057.50461277404, 3183.91894552992]

>  <E0_kJmol>  (4) 
-923523

>  <H298_kJmol>  (4) 
-923500

$$$$

     RDKit          3D

 14 14  0  0  0  0  0  0  0  0999 V2000
    2.3111    0.1295    0.0255 C   0  0  0  0  0  0  0  0  0  1  0  0
    0.9132    0.0511    0.0101 C   0  0  0  0  0  0  0  0  0  2  0  0
    0.2446   -1.1981    0.0389 C   0  0  0  0  0  3  0  0  0  3  0  0
   -1.1306   -1.2689    0.0235 C   0  0  0  0  0  0  0  0  0  4  0  0
   -1.8967   -0.1062   -0.0209 C   0  0  0  0  0  0  0  0  0  5  0  0
   -1.2644    1.1347   -0.0499 C   0  0  0  0  0  0  0  0  0  6  0  0
    0.1101    1.2180   -0.0350 C   0  0  0  0  0  0  0  0  0  7  0  0
    2.9188   -0.7647    0.0599 H   0  0  0  0  0  0  0  0  0  8  0  0
    2.8158    1.0859    0.0034 H   0  0  0  0  0  0  0  0  0  9  0  0
    0.8353   -2.1058    0.0735 H   0  0  0  0  0  0  0  0  0 10  0  0
   -1.6191   -2.2351    0.0461 H   0  0  0  0  0  0  0  0  0 11  0  0
   -2.9772   -0.1668   -0.0328 H   0  0  0  0  0  0  0  0  0 12  0  0
   -1.8572    2.0404   -0.0845 H   0  0  0  0  0  0  0  0  0 13  0  0
    0.5964    2.1860   -0.0577 H   0  0  0  0  0  0  0  0  0 14  0  0
  1  8  1  0
  1  9  1  0
  1  2  1  0
  2  7  1  0
  2  3  1  0
  3  4  1  0
  3 10  1  0
  4  5  1  0
  4 11  1  0
  5 12  1  0
  5  6  1  0
  6 13  1  0
  6  7  1  0
  7 14  1  0
M  RAD  1   3   2
M  END
>  <rmg_smiles>  (5) 
[CH2]C1[CH][CH][CH][CH][CH]1

>  <rmg_adjacency_list>  (5) 
multiplicity 2
1  C u0 p0 c0 {2,S} {3,S} {7,S}
2  C u1 p0 c0 {1,S} {4,S} {8,S}
3  C u0 p0 c0 {1,S} {6,S} {12,S}
4  C u0 p0 c0 {2,S} {5,S} {9,S}
5  C u0 p0 c0 {4,S} {6,S} {10,S}
6  C u0 p0 c0 {3,S} {5,S} {11,S}
7  C u0 p0 c0 {1,S} {13,S} {14,S}
8  H u0 p0 c0 {2,S}
9  H u0 p0 c0 {4,S}
10 H u0 p0 c0 {5,S}
11 H u0 p0 c0 {6,S}
12 H u0 p0 c0 {3,S}
13 H u0 p0 c0 {7,S}
14 H u0 p0 c0 {7,S}


>  <multiplicity>  (5) 
2

>  <reaction>  (5) 
rxn_613

>  <type>  (5) 
r2

>  <role_mapnums>  (5) 
{}

>  <role_mapidx>  (5) 
{}

>  <ordered_mapped_smiles>  (5) 
[CH:1]([CH:2]1[C:3]([H:10])[CH:4]([H:11])[CH:5]([H:12])[CH:6]([H:13])[CH:7]1[H:14])([H:8])[H:9]

>  <level_of_theory>  (5) 
wb97xd/def2tzvp

>  <lot_method>  (5) 
wb97xd

>  <lot_basis>  (5) 
def2tzvp

>  <spin_multiplicity>  (5) 
2.0

>  <optical_isomers>  (5) 
1.0

>  <modes>  (5) 
IdealGasTranslation(mass=(91.0548, 'amu')),         NonlinearRotor(             inertia = ([90.2688, 184.999, 275.268

>  <frequency_value>  (5) 
unknown

>  <frequency_units>  (5) 
unknown

>  <frequency_list>  (5) 
unknown

>  <arkane_path>  (5) 
/home/calvin/Dropbox/PersonalFolders/Calvin/HAb_Converged/rxn_613/output/Species/rxn_613_[CH2]c1ccccc1/arkane/output.py

>  <path_exists>  (5) 
True

>  <E0_value>  (5) 
-710982.0623900568

>  <E0_units>  (5) 
kJ/mol

>  <thermo_class>  (5) 
NASA

>  <Cp0_value>  (5) 
33.257888

>  <Cp0_units>  (5) 
J/(mol*K)

>  <CpInf_value>  (5) 
332.57888

>  <CpInf_units>  (5) 
J/(mol*K)

>  <Tmin_value>  (5) 
10.0

>  <Tmin_units>  (5) 
K

>  <Tmax_value>  (5) 
3000.0

>  <Tmax_units>  (5) 
K

>  <polynomials>  (5) 
[{"name": "polynomial1", "class": "NASAPolynomial", "Tmin_value": 10.0, "Tmin_units": "K", "Tmax_value": 553.2109116327725, "Tmax_units": "K", "coeffs": [4.142543359170266, -0.014218763448623044, 0.0002576829967730386, -4.632974771235726e-07, 2.671038579104251e-10, -85511387.18347761, 10.487951999207327]}, {"name": "polynomial2", "class": "NASAPolynomial", "Tmin_value": 553.2109116327725, "Tmin_units": "K", "Tmax_value": 3000.0, "Tmax_units": "K", "coeffs": [-0.7942917364053798, 0.057999794075117024, -3.716274122111428e-05, 1.1355675181462914e-08, -1.3253487492588121e-12, -85511399.83577849, 26.331454017928447]}]

>  <H298_value>  (5) 
-169924.63454747986

>  <H298_units>  (5) 
kcal/mol

>  <S298_value>  (5) 
74.98251677136349

>  <S298_units>  (5) 
cal/(mol*K)

>  <Cp_T_value_list>  (5) 
[25.283016477228646, 33.52643449610302, 40.21254898412453, 45.52304279605987, 53.838654413345935, 59.76143508278511, 67.97251227799326, 71.92525612415508, 74.23565128362748]

>  <Cp_T_units>  (5) 
cal/(mol*K)

>  <T_list>  (5) 
[300.0, 400.0, 500.0, 600.0, 800.0, 1000.0, 1500.0, 2000.0, 2400.0]

>  <T_units>  (5) 
K

>  <yaml_path>  (5) 
/home/calvin/Dropbox/PersonalFolders/Calvin/HAb_Converged/rxn_613/output/Species/rxn_613_[CH2]c1ccccc1/rxn_613_CH2c1ccccc1.yml

>  <frequencies_cm1>  (5) 
[200.24815891652, 361.60171298056, 390.17523889708, 478.87608827552, 500.34228438583995, 531.78621016612, 625.85017507948, 685.3594698625999, 711.2686054749599, 777.5487477835999, 833.0683240958, 836.50868374112, 906.74420959408, 969.6801300518798, 974.03379874476, 983.70251407532, 992.09397013636, 1038.3980521491198, 1114.7108600102797, 1165.8355657176799, 1178.3403459854, 1276.27729061924, 1315.886061945, 1345.4965026448397, 1472.9546171693598, 1482.97354875124, 1496.57704667016, 1589.63156474148, 1604.18957361988, 3131.52384753832, 3150.75140643432, 3153.26472306144, 3164.65705170732, 3171.3798303356, 3183.3901876602795, 3230.66251460316]

>  <ZPE_kJmol>  (5) 
299.2207520027369

>  <E_elec_kJmol>  (5) 
-711281.2831420596

>  <E0_minus_Eelec_plus_ZPE_kJmol>  (5) 
0.0

>  <rxn>  (5) 
rxn_613

>  <species_type>  (5) 
r0

>  <species_folder>  (5) 
rxn_613_[CH2]c1ccccc1

>  <frequencies_cm1_list>  (5) 
[200.24815891652, 361.60171298056, 390.17523889708, 478.87608827552, 500.34228438583995, 531.78621016612, 625.85017507948, 685.3594698625999, 711.2686054749599, 777.5487477835999, 833.0683240958, 836.50868374112, 906.74420959408, 969.6801300518798, 974.03379874476, 983.70251407532, 992.09397013636, 1038.3980521491198, 1114.7108600102797, 1165.8355657176799, 1178.3403459854, 1276.27729061924, 1315.886061945, 1345.4965026448397, 1472.9546171693598, 1482.97354875124, 1496.57704667016, 1589.63156474148, 1604.18957361988, 3131.52384753832, 3150.75140643432, 3153.26472306144, 3164.65705170732, 3171.3798303356, 3183.3901876602795, 3230.66251460316]

>  <E0_kJmol>  (5) 
-710982

>  <H298_kJmol>  (5) 
-710965

$$$$
