
     RDKit          3D

 13 12  0  0  0  0  0  0  0  0999 V2000
    0.0405   -0.1097   -1.8639 C   0  0  0  0  0  0  0  0  0  1  0  0
    0.3844    0.1554   -0.4118 C   0  0  0  0  0  0  0  0  0  2  0  0
    0.1206    1.5906    0.0046 C   0  0  0  0  0  0  0  0  0  3  0  0
   -0.4165   -0.7726    0.3265 O   0  0  0  0  0  0  0  0  0  4  0  0
   -0.0342   -0.7779    1.6547 O   0  0  0  0  0  0  0  0  0  5  0  0
    0.6504    0.5222   -2.5103 H   0  0  0  0  0  0  0  0  0  6  0  0
    0.2255   -1.1524   -2.1209 H   0  0  0  0  0  0  0  0  0  7  0  0
   -1.0106    0.1146   -2.0558 H   0  0  0  0  0  0  0  0  0  8  0  0
    1.4332   -0.0951   -0.2229 H   0  0  0  0  0  0  0  0  0  9  0  0
   -0.9290    1.8492   -0.1523 H   0  0  0  0  0  0  0  0  0 10  0  0
    0.3713    1.7436    1.0534 H   0  0  0  0  0  0  0  0  0 11  0  0
    0.7340    2.2682   -0.5915 H   0  0  0  0  0  0  0  0  0 12  0  0
   -0.6855   -0.2370    2.1073 H   0  0  0  0  0  0  0  0  0 13  0  0
  1  8  1  0
  1  7  1  0
  1  6  1  0
  1  2  1  0
  2  4  1  0
  2  9  1  0
  2  3  1  0
  3 11  1  0
  3 12  1  0
  3 10  1  0
  4  5  1  0
  5 13  1  0
M  END
>  <rmg_smiles>  (1) 
CC(C)OO

>  <rmg_adjacency_list>  (1) 
1  O u0 p2 c0 {2,S} {3,S}
2  O u0 p2 c0 {1,S} {13,S}
3  C u0 p0 c0 {1,S} {4,S} {5,S} {6,S}
4  C u0 p0 c0 {3,S} {7,S} {8,S} {9,S}
5  C u0 p0 c0 {3,S} {10,S} {11,S} {12,S}
6  H u0 p0 c0 {3,S}
7  H u0 p0 c0 {4,S}
8  H u0 p0 c0 {4,S}
9  H u0 p0 c0 {4,S}
10 H u0 p0 c0 {5,S}
11 H u0 p0 c0 {5,S}
12 H u0 p0 c0 {5,S}
13 H u0 p0 c0 {2,S}


>  <multiplicity>  (1) 
1

>  <reaction>  (1) 
rxn_453

>  <type>  (1) 
r1h

>  <role_mapnums>  (1) 
{"r1h_a": 5, "r1h_h": 13}

>  <role_mapidx>  (1) 
{"r1h_a": 4, "r1h_h": 12}

>  <ordered_mapped_smiles>  (1) 
[C:1]([C:2]([C:3]([H:10])([H:11])[H:12])([O:4][O:5][H:13])[H:9])([H:6])([H:7])[H:8]

>  <mol_properties>  (1) 
{"4": {"label": "donator", "atom_type": "O2s"}, "12": {"label": "d_hydrogen", "atom_type": "H0"}}

>  <level_of_theory>  (1) 
wb97xd/def2tzvp

>  <lot_method>  (1) 
wb97xd

>  <lot_basis>  (1) 
def2tzvp

>  <spin_multiplicity>  (1) 
1.0

>  <optical_isomers>  (1) 
2.0

>  <modes>  (1) 
IdealGasTranslation(mass=(76.0524, 'amu')),         NonlinearRotor(             inertia = ([64.1047, 129.852, 175.955

>  <frequency_value>  (1) 
unknown

>  <frequency_units>  (1) 
unknown

>  <frequency_list>  (1) 
unknown

>  <arkane_path>  (1) 
/home/calvin/Dropbox/PersonalFolders/Calvin/HAb_Converged/rxn_453/output/Species/rxn_453_CC[C]OO/arkane/output.py

>  <path_exists>  (1) 
True

>  <E0_value>  (1) 
-707325.5666596143

>  <E0_units>  (1) 
kJ/mol

>  <thermo_class>  (1) 
NASA

>  <Cp0_value>  (1) 
33.257888

>  <Cp0_units>  (1) 
J/(mol*K)

>  <CpInf_value>  (1) 
307.635464

>  <CpInf_units>  (1) 
J/(mol*K)

>  <Tmin_value>  (1) 
10.0

>  <Tmin_units>  (1) 
K

>  <Tmax_value>  (1) 
3000.0

>  <Tmax_units>  (1) 
K

>  <polynomials>  (1) 
[{"name": "polynomial1", "class": "NASAPolynomial", "Tmin_value": 10.0, "Tmin_units": "K", "Tmax_value": 373.3983625194583, "Tmax_units": "K", "coeffs": [3.723173860561931, 0.02235433983077, 6.041976750016539e-05, -1.4464068510593587e-07, 1.0056348969149726e-10, -85071610.76002444, 10.433324162586633]}, {"name": "polynomial2", "class": "NASAPolynomial", "Tmin_value": 373.3983625194583, "Tmin_units": "K", "Tmax_value": 3000.0, "Tmax_units": "K", "coeffs": [1.7545939219209903, 0.04344251694118376, -2.4294448018531906e-05, 6.6077982562282255e-09, -7.009656554179919e-13, -85071463.74657878, 17.991324991001278]}]

>  <H298_value>  (1) 
-169050.09429787137

>  <H298_units>  (1) 
kcal/mol

>  <S298_value>  (1) 
79.31200709181388

>  <S298_units>  (1) 
cal/(mol*K)

>  <Cp_T_value_list>  (1) 
[25.3895849021321, 31.09867562713878, 36.13616746725511, 40.559961898210354, 47.80471237867219, 53.276003636416135, 61.6203758028639, 65.7939655527096, 67.90375818381932]

>  <Cp_T_units>  (1) 
cal/(mol*K)

>  <T_list>  (1) 
[300.0, 400.0, 500.0, 600.0, 800.0, 1000.0, 1500.0, 2000.0, 2400.0]

>  <T_units>  (1) 
K

>  <yaml_path>  (1) 
/home/calvin/Dropbox/PersonalFolders/Calvin/HAb_Converged/rxn_453/output/Species/rxn_453_CC[C]OO/rxn_453_CCCOO.yml

>  <frequencies_cm1>  (1) 
[133.06157454563998, 202.04044208503998, 231.56161197571998, 271.760944039, 294.33959177116, 356.83602516848, 473.3344311222799, 510.8556389107599, 830.6442782778399, 918.9743104489999, 929.5838027684, 950.3564333613999, 1015.8537393435599, 1142.37794386456, 1177.4545048791201, 1189.91808323492, 1344.7960701421998, 1368.9884594245598, 1383.43659653784, 1397.6375221795997, 1405.7886337544398, 1467.7151073702, 1472.94088319872, 1480.87225124332, 1499.65345609352, 3008.92069163504, 3016.50184342832, 3024.30960573716, 3091.2421116512, 3101.35718102756, 3105.31256457188, 3112.21388481848, 3782.0264999166]

>  <ZPE_kJmol>  (1) 
291.2469082235302

>  <E_elec_kJmol>  (1) 
-707616.8135678378

>  <E0_minus_Eelec_plus_ZPE_kJmol>  (1) 
0.0

>  <rxn>  (1) 
rxn_453

>  <species_type>  (1) 
r0

>  <species_folder>  (1) 
rxn_453_CC[C]OO

>  <frequencies_cm1_list>  (1) 
[133.06157454563998, 202.04044208503998, 231.56161197571998, 271.760944039, 294.33959177116, 356.83602516848, 473.3344311222799, 510.8556389107599, 830.6442782778399, 918.9743104489999, 929.5838027684, 950.3564333613999, 1015.8537393435599, 1142.37794386456, 1177.4545048791201, 1189.91808323492, 1344.7960701421998, 1368.9884594245598, 1383.43659653784, 1397.6375221795997, 1405.7886337544398, 1467.7151073702, 1472.94088319872, 1480.87225124332, 1499.65345609352, 3008.92069163504, 3016.50184342832, 3024.30960573716, 3091.2421116512, 3101.35718102756, 3105.31256457188, 3112.21388481848, 3782.0264999166]

>  <E0_kJmol>  (1) 
-707326

>  <H298_kJmol>  (1) 
-707306

$$$$

     RDKit          3D

  8  7  0  0  0  0  0  0  0  0999 V2000
    1.3871   -0.4223   -0.0178 H   0  0  0  0  0  0  0  0  0  1  0  0
   -0.6107   -0.1255   -0.4219 C   0  0  0  0  0  0  0  0  0  2  0  0
    0.5819    0.1480    0.4399 C   0  0  0  0  0  0  0  0  0  3  0  0
   -1.4843    0.4296   -0.0607 H   0  0  0  0  0  0  0  0  0  4  0  0
   -0.8664   -1.1853   -0.4217 H   0  0  0  0  0  0  0  0  0  5  0  0
   -0.4329    0.1773   -1.4548 H   0  0  0  0  0  0  0  0  0  6  0  0
    0.5644   -0.2838    1.4381 H   0  0  0  0  0  0  0  0  0  7  0  0
    0.9640    1.1661    0.4229 H   0  0  0  0  0  0  0  0  0  8  0  0
  1  3  1  0
  2  5  1  0
  2  6  1  0
  2  3  1  0
  2  4  1  0
  3  8  1  0
  3  7  1  0
M  END
>  <rmg_smiles>  (2) 
CC

>  <rmg_adjacency_list>  (2) 
1 H u0 p0 c0 {3,S}
2 C u0 p0 c0 {3,S} {4,S} {5,S} {6,S}
3 C u0 p0 c0 {1,S} {2,S} {7,S} {8,S}
4 H u0 p0 c0 {2,S}
5 H u0 p0 c0 {2,S}
6 H u0 p0 c0 {2,S}
7 H u0 p0 c0 {3,S}
8 H u0 p0 c0 {3,S}


>  <multiplicity>  (2) 
1

>  <reaction>  (2) 
rxn_453

>  <type>  (2) 
r2h

>  <role_mapnums>  (2) 
{"r2h_a": 3, "r2h_h": 1}

>  <role_mapidx>  (2) 
{"r2h_a": 2, "r2h_h": 0}

>  <ordered_mapped_smiles>  (2) 
[H:1][C:3]([C:2]([H:4])([H:5])[H:6])([H:7])[H:8]

>  <mol_properties>  (2) 
{"0": {"label": "a_hydrogen", "atom_type": "H0"}, "2": {"label": "acceptor", "atom_type": "Cs"}}

>  <level_of_theory>  (2) 
wb97xd/def2tzvp

>  <lot_method>  (2) 
wb97xd

>  <lot_basis>  (2) 
def2tzvp

>  <spin_multiplicity>  (2) 
1.0

>  <optical_isomers>  (2) 
1.0

>  <modes>  (2) 
IdealGasTranslation(mass=(30.0469, 'amu')),         NonlinearRotor(             inertia = ([6.25566, 25.1393, 25.1393

>  <frequency_value>  (2) 
unknown

>  <frequency_units>  (2) 
unknown

>  <frequency_list>  (2) 
unknown

>  <arkane_path>  (2) 
/home/calvin/Dropbox/PersonalFolders/Calvin/HAb_Converged/rxn_453/output/Species/rxn_453_CC/arkane/output.py

>  <path_exists>  (2) 
True

>  <E0_value>  (2) 
-209409.0952137841

>  <E0_units>  (2) 
kJ/mol

>  <thermo_class>  (2) 
NASA

>  <Cp0_value>  (2) 
33.257888

>  <Cp0_units>  (2) 
J/(mol*K)

>  <CpInf_value>  (2) 
182.918384

>  <CpInf_units>  (2) 
J/(mol*K)

>  <Tmin_value>  (2) 
10.0

>  <Tmin_units>  (2) 
K

>  <Tmax_value>  (2) 
3000.0

>  <Tmax_units>  (2) 
K

>  <polynomials>  (2) 
[{"name": "polynomial1", "class": "NASAPolynomial", "Tmin_value": 10.0, "Tmin_units": "K", "Tmax_value": 746.6686841225998, "Tmax_units": "K", "coeffs": [4.05949155328205, -0.003835565665241399, 5.3186040380635144e-05, -6.162047637406245e-08, 2.3242210517060023e-11, -25186098.42214424, 3.537324504259843]}, {"name": "polynomial2", "class": "NASAPolynomial", "Tmin_value": 746.6686841225998, "Tmin_units": "K", "Tmax_value": 3000.0, "Tmax_units": "K", "coeffs": [-1.046496014036793, 0.026500176421266477, -1.3747367898389822e-05, 3.490635384402257e-09, -3.493819827122593e-13, -25185419.059970565, 26.122432242478077]}]

>  <H298_value>  (2) 
-50047.2003571238

>  <H298_units>  (2) 
kcal/mol

>  <S298_value>  (2) 
54.420548043106656

>  <S298_units>  (2) 
cal/(mol*K)

>  <Cp_T_value_list>  (2) 
[12.360572544544063, 15.274308747535915, 18.259044378417013, 21.07888414556187, 25.832548078118208, 29.50517950077797, 35.34115403896942, 38.351806873475496, 39.80767330504735]

>  <Cp_T_units>  (2) 
cal/(mol*K)

>  <T_list>  (2) 
[300.0, 400.0, 500.0, 600.0, 800.0, 1000.0, 1500.0, 2000.0, 2400.0]

>  <T_units>  (2) 
K

>  <yaml_path>  (2) 
/home/calvin/Dropbox/PersonalFolders/Calvin/HAb_Converged/rxn_453/output/Species/rxn_453_CC/rxn_453_CC.yml

>  <frequencies_cm1>  (2) 
[304.49586305944, 822.3970289085198, 822.4107628791601, 1005.43652261312, 1210.79371860772, 1210.8005855930398, 1393.77140944444, 1414.4616362136, 1489.39418002544, 1489.4010470107598, 1490.3006220876798, 1490.3006220876798, 3015.21771717348, 3016.07609033848, 3072.8111230523195, 3072.8179900376404, 3096.4266855677993, 3096.4335525531196]

>  <ZPE_kJmol>  (2) 
194.47545128409476

>  <E_elec_kJmol>  (2) 
-209603.57066506823

>  <E0_minus_Eelec_plus_ZPE_kJmol>  (2) 
0.0

>  <rxn>  (2) 
rxn_453

>  <species_type>  (2) 
p0

>  <species_folder>  (2) 
rxn_453_CC

>  <frequencies_cm1_list>  (2) 
[304.49586305944, 822.3970289085198, 822.4107628791601, 1005.43652261312, 1210.79371860772, 1210.8005855930398, 1393.77140944444, 1414.4616362136, 1489.39418002544, 1489.4010470107598, 1490.3006220876798, 1490.3006220876798, 3015.21771717348, 3016.07609033848, 3072.8111230523195, 3072.8179900376404, 3096.4266855677993, 3096.4335525531196]

>  <E0_kJmol>  (2) 
-209409

>  <H298_kJmol>  (2) 
-209397

$$$$

     RDKit          3D

 20 18  0  0  0  0  0  0  0  0999 V2000
    0.8115   -0.2703   -2.3724 C   0  0  0  0  0  0  0  0  0  1  0  0
    1.1555   -0.0052   -0.9204 C   0  0  0  0  0  0  0  0  0  2  0  0
    0.8917    1.4300   -0.5039 C   0  0  0  0  0  0  0  0  0  3  0  0
    0.3546   -0.9332   -0.1821 O   0  0  0  0  0  0  0  0  0  4  0  0
    0.7369   -0.9384    1.1462 O   0  0  0  0  0  0  0  0  0  5  0  0
    1.4214    0.3616   -3.0188 H   0  0  0  0  0  0  0  0  0  6  0  0
    0.9966   -1.3130   -2.6294 H   0  0  0  0  0  0  0  0  0  7  0  0
   -0.2396   -0.0460   -2.5643 H   0  0  0  0  0  0  0  0  0  8  0  0
    2.2043   -0.2557   -0.7314 H   0  0  0  0  0  0  0  0  0  9  0  0
   -0.1579    1.6887   -0.6608 H   0  0  0  0  0  0  0  0  0 10  0  0
    1.1423    1.5830    0.5449 H   0  0  0  0  0  0  0  0  0 11  0  0
    1.5051    2.1076   -1.1000 H   0  0  0  0  0  0  0  0  0 12  0  0
   -0.0471   -0.2874    1.6909 H   0  0  0  0  0  0  0  0  0 13  0  0
   -2.2557    0.1587    1.4067 C   0  0  0  0  0  0  0  0  0 14  0  0
   -1.0631    0.4322    2.2684 C   0  0  0  0  0  3  0  0  0 15  0  0
   -3.1293    0.7138    1.7679 H   0  0  0  0  0  0  0  0  0 16  0  0
   -2.5114   -0.9011    1.4068 H   0  0  0  0  0  0  0  0  0 17  0  0
   -2.0779    0.4615    0.3737 H   0  0  0  0  0  0  0  0  0 18  0  0
   -1.0806    0.0004    3.2667 H   0  0  0  0  0  0  0  0  0 19  0  0
   -0.6810    1.4503    2.2514 H   0  0  0  0  0  0  0  0  0 20  0  0
  1  8  1  0
  1  7  1  0
  1  6  1  0
  1  2  1  0
  2  4  1  0
  2  9  1  0
  2  3  1  0
  3 11  1  0
  3 12  1  0
  3 10  1  0
  4  5  1  0
  5 13  1  0
 14 18  1  0
 14 17  1  0
 14 15  1  0
 14 16  1  0
 15 19  1  0
 15 20  1  0
M  RAD  1  15   2
M  END
>  <rmg_smiles>  (3) 
CC(C)OO.[CH2]C

>  <rmg_adjacency_list>  (3) 
multiplicity 2
1  O u0 p2 c0 {2,S} {3,S}
2  O u0 p2 c0 {1,S} {20,S}
3  C u0 p0 c0 {1,S} {4,S} {5,S} {8,S}
4  C u0 p0 c0 {3,S} {9,S} {10,S} {11,S}
5  C u0 p0 c0 {3,S} {12,S} {13,S} {14,S}
6  C u0 p0 c0 {7,S} {15,S} {16,S} {17,S}
7  C u1 p0 c0 {6,S} {18,S} {19,S}
8  H u0 p0 c0 {3,S}
9  H u0 p0 c0 {4,S}
10 H u0 p0 c0 {4,S}
11 H u0 p0 c0 {4,S}
12 H u0 p0 c0 {5,S}
13 H u0 p0 c0 {5,S}
14 H u0 p0 c0 {5,S}
15 H u0 p0 c0 {6,S}
16 H u0 p0 c0 {6,S}
17 H u0 p0 c0 {6,S}
18 H u0 p0 c0 {7,S}
19 H u0 p0 c0 {7,S}
20 H u0 p0 c0 {2,S}


>  <multiplicity>  (3) 
2

>  <reaction>  (3) 
rxn_453

>  <type>  (3) 
ts

>  <role_mapnums>  (3) 
{"*2": 13, "*1": 5, "*3": 15, "*0": 4, "*4": 14}

>  <role_mapidx>  (3) 
{"*2": 12, "*1": 4, "*3": 14, "*0": 3, "*4": 13}

>  <ordered_mapped_smiles>  (3) 
[C:1]([C:2]([C:3]([H:10])([H:11])[H:12])([O:4][O:5][H:13])[H:9])([H:6])([H:7])[H:8].[C:14]([C:15]([H:19])[H:20])([H:16])([H:17])[H:18]

>  <mol_properties>  (3) 
{"3": {"label": "*0", "atom_type": "O2s"}, "4": {"label": "*1", "atom_type": "O2s"}, "12": {"label": "*2", "atom_type": "H0"}, "13": {"label": "*4", "atom_type": "Cs"}, "14": {"label": "*3", "atom_type": "Cs"}}

>  <level_of_theory>  (3) 
wb97xd/def2tzvp

>  <lot_method>  (3) 
wb97xd

>  <lot_basis>  (3) 
def2tzvp

>  <spin_multiplicity>  (3) 
2.0

>  <optical_isomers>  (3) 
2.0

>  <modes>  (3) 
IdealGasTranslation(mass=(105.092, 'amu')),         NonlinearRotor(             inertia = ([136.504, 381.484, 398.636

>  <frequency_value>  (3) 
-1904.07

>  <frequency_units>  (3) 
cm^-1

>  <frequency_list>  (3) 
unknown

>  <arkane_path>  (3) 
/home/calvin/Dropbox/PersonalFolders/Calvin/HAb_Converged/rxn_453/output/rxns/TS0/arkane/output.py

>  <path_exists>  (3) 
True

>  <E0_value>  (3) 
-914995.0

>  <E0_units>  (3) 
kJ/mol

>  <thermo_class>  (3) 
unknown

>  <Cp0_value>  (3) 
unknown

>  <Cp0_units>  (3) 
unknown

>  <CpInf_value>  (3) 
unknown

>  <CpInf_units>  (3) 
unknown

>  <Tmin_value>  (3) 
unknown

>  <Tmin_units>  (3) 
unknown

>  <Tmax_value>  (3) 
unknown

>  <Tmax_units>  (3) 
unknown

>  <polynomials>  (3) 
unknown

>  <H298_value>  (3) 
unknown

>  <H298_units>  (3) 
unknown

>  <S298_value>  (3) 
unknown

>  <S298_units>  (3) 
unknown

>  <Cp_T_value_list>  (3) 
unknown

>  <Cp_T_units>  (3) 
unknown

>  <T_list>  (3) 
unknown

>  <T_units>  (3) 
unknown

>  <yaml_path>  (3) 
unknown

>  <frequencies_cm1>  (3) 
unknown

>  <ZPE_kJmol>  (3) 
unknown

>  <E_elec_kJmol>  (3) 
unknown

>  <E0_minus_Eelec_plus_ZPE_kJmol>  (3) 
unknown

>  <rxn>  (3) 
unknown

>  <species_type>  (3) 
unknown

>  <species_folder>  (3) 
unknown

>  <frequencies_cm1_list>  (3) 
[]

>  <ts_imag_freq_cm1>  (3) 
-1927.1921

>  <ts_freq_out_path>  (3) 
/home/calvin/Dropbox/PersonalFolders/Calvin/HAb_Converged/rxn_453/output/rxns/TS0/geometry/freq.out

>  <E0_kJmol>  (3) 
-914995

>  <H298_kJmol>  (3) 
unknown

$$$$

     RDKit          3D

 12 11  0  0  0  0  0  0  0  0999 V2000
    1.2775    0.1218   -0.1182 C   0  0  0  0  0  0  0  0  0  1  0  0
   -0.2120    0.2324   -0.3617 C   0  0  0  0  0  0  0  0  0  2  0  0
   -0.6396   -0.1667   -1.7560 C   0  0  0  0  0  0  0  0  0  3  0  0
   -0.9208   -0.6727    0.5392 O   0  0  0  0  0  0  0  0  0  4  0  0
   -0.8742   -0.2720    1.7724 O   0  0  0  0  0  1  0  0  0  5  0  0
    1.8080    0.8238   -0.7630 H   0  0  0  0  0  0  0  0  0  6  0  0
    1.5119    0.3589    0.9187 H   0  0  0  0  0  0  0  0  0  7  0  0
    1.6288   -0.8872   -0.3414 H   0  0  0  0  0  0  0  0  0  8  0  0
   -0.5681    1.2339   -0.1128 H   0  0  0  0  0  0  0  0  0  9  0  0
   -0.3304   -1.1900   -1.9754 H   0  0  0  0  0  0  0  0  0 10  0  0
   -0.1712    0.4958   -2.4844 H   0  0  0  0  0  0  0  0  0 11  0  0
   -1.7211   -0.0962   -1.8697 H   0  0  0  0  0  0  0  0  0 12  0  0
  1  8  1  0
  1  7  1  0
  1  6  1  0
  1  2  1  0
  2  4  1  0
  2  9  1  0
  2  3  1  0
  3 11  1  0
  3 12  1  0
  3 10  1  0
  4  5  1  0
M  RAD  1   5   2
M  END
>  <rmg_smiles>  (4) 
CC(C)O[O]

>  <rmg_adjacency_list>  (4) 
multiplicity 2
1  O u0 p2 c0 {2,S} {3,S}
2  O u1 p2 c0 {1,S}
3  C u0 p0 c0 {1,S} {4,S} {5,S} {6,S}
4  C u0 p0 c0 {3,S} {7,S} {8,S} {9,S}
5  C u0 p0 c0 {3,S} {10,S} {11,S} {12,S}
6  H u0 p0 c0 {3,S}
7  H u0 p0 c0 {4,S}
8  H u0 p0 c0 {4,S}
9  H u0 p0 c0 {4,S}
10 H u0 p0 c0 {5,S}
11 H u0 p0 c0 {5,S}
12 H u0 p0 c0 {5,S}


>  <multiplicity>  (4) 
2

>  <reaction>  (4) 
rxn_453

>  <type>  (4) 
r1

>  <role_mapnums>  (4) 
{}

>  <role_mapidx>  (4) 
{}

>  <ordered_mapped_smiles>  (4) 
[C:1]([C:2]([C:3]([H:10])([H:11])[H:12])([O:4][O:5])[H:9])([H:6])([H:7])[H:8]

>  <level_of_theory>  (4) 
wb97xd/def2tzvp

>  <lot_method>  (4) 
wb97xd

>  <lot_basis>  (4) 
def2tzvp

>  <spin_multiplicity>  (4) 
2.0

>  <optical_isomers>  (4) 
2.0

>  <modes>  (4) 
IdealGasTranslation(mass=(75.0446, 'amu')),         NonlinearRotor(             inertia = ([63.1485, 122.982, 169.051

>  <frequency_value>  (4) 
unknown

>  <frequency_units>  (4) 
unknown

>  <frequency_list>  (4) 
unknown

>  <arkane_path>  (4) 
/home/calvin/Dropbox/PersonalFolders/Calvin/HAb_Converged/rxn_453/output/Species/rxn_453_CC[C]O[O]/arkane/output.py

>  <path_exists>  (4) 
True

>  <E0_value>  (4) 
-705679.693932973

>  <E0_units>  (4) 
kJ/mol

>  <thermo_class>  (4) 
NASA

>  <Cp0_value>  (4) 
33.257888

>  <Cp0_units>  (4) 
J/(mol*K)

>  <CpInf_value>  (4) 
282.692048

>  <CpInf_units>  (4) 
J/(mol*K)

>  <Tmin_value>  (4) 
10.0

>  <Tmin_units>  (4) 
K

>  <Tmax_value>  (4) 
3000.0

>  <Tmax_units>  (4) 
K

>  <polynomials>  (4) 
[{"name": "polynomial1", "class": "NASAPolynomial", "Tmin_value": 10.0, "Tmin_units": "K", "Tmax_value": 784.0443098398882, "Tmax_units": "K", "coeffs": [3.732084480595777, 0.022497093687099342, 2.6049364468455034e-05, -4.776437604712989e-08, 2.054600798942877e-11, -84873659.75787416, 11.154283232464214]}, {"name": "polynomial2", "class": "NASAPolynomial", "Tmin_value": 784.0443098398882, "Tmin_units": "K", "Tmax_value": 3000.0, "Tmax_units": "K", "coeffs": [1.7767780258034005, 0.040196982649254843, -2.2591295355952496e-05, 6.159999754932853e-09, -6.549569870670291e-13, -84873590.56775095, 18.597732747788342]}]

>  <H298_value>  (4) 
-168657.00459466028

>  <H298_units>  (4) 
kcal/mol

>  <S298_value>  (4) 
79.28211410875679

>  <S298_units>  (4) 
cal/(mol*K)

>  <Cp_T_value_list>  (4) 
[23.255164646979747, 28.5519405822447, 33.398087276098806, 37.66505359194139, 44.43708630871117, 49.45661786302551, 57.06485413554544, 60.82093528737992, 62.69559170785201]

>  <Cp_T_units>  (4) 
cal/(mol*K)

>  <T_list>  (4) 
[300.0, 400.0, 500.0, 600.0, 800.0, 1000.0, 1500.0, 2000.0, 2400.0]

>  <T_units>  (4) 
K

>  <yaml_path>  (4) 
/home/calvin/Dropbox/PersonalFolders/Calvin/HAb_Converged/rxn_453/output/Species/rxn_453_CC[C]O[O]/rxn_453_CCCOO.yml

>  <frequencies_cm1>  (4) 
[104.22710318696, 200.79751774212, 241.93762679423997, 307.40746483512, 347.58619594244, 454.6287631105999, 533.03600149436, 814.1703804951601, 904.4025675999599, 936.1623747049599, 948.2620028388, 1129.0628593290799, 1161.74970945228, 1193.2142361885199, 1269.30043353412, 1342.15914777932, 1356.4905461421602, 1397.02636048612, 1410.5749225224797, 1468.4155398728396, 1472.50826312356, 1479.36838145824, 1496.6457165233599, 3024.0349263243597, 3027.653827588, 3052.78012687388, 3100.00438491952, 3108.0318907586, 3112.60530298172, 3118.5040433716]

>  <ZPE_kJmol>  (4) 
260.26410869114926

>  <E_elec_kJmol>  (4) 
-705939.9580416641

>  <E0_minus_Eelec_plus_ZPE_kJmol>  (4) 
0.0

>  <rxn>  (4) 
rxn_453

>  <species_type>  (4) 
p1

>  <species_folder>  (4) 
rxn_453_CC[C]O[O]

>  <frequencies_cm1_list>  (4) 
[104.22710318696, 200.79751774212, 241.93762679423997, 307.40746483512, 347.58619594244, 454.6287631105999, 533.03600149436, 814.1703804951601, 904.4025675999599, 936.1623747049599, 948.2620028388, 1129.0628593290799, 1161.74970945228, 1193.2142361885199, 1269.30043353412, 1342.15914777932, 1356.4905461421602, 1397.02636048612, 1410.5749225224797, 1468.4155398728396, 1472.50826312356, 1479.36838145824, 1496.6457165233599, 3024.0349263243597, 3027.653827588, 3052.78012687388, 3100.00438491952, 3108.0318907586, 3112.60530298172, 3118.5040433716]

>  <E0_kJmol>  (4) 
-705680

>  <H298_kJmol>  (4) 
-705661

$$$$

     RDKit          3D

  7  6  0  0  0  0  0  0  0  0999 V2000
   -0.6201    0.0189   -0.0017 C   0  0  0  0  0  0  0  0  0  1  0  0
    0.8589   -0.0553    0.0500 C   0  0  0  0  0  3  0  0  0  2  0  0
   -1.0738   -0.9730   -0.0559 H   0  0  0  0  0  0  0  0  0  3  0  0
   -0.9680    0.5706   -0.8872 H   0  0  0  0  0  0  0  0  0  4  0  0
   -1.0303    0.5369    0.8678 H   0  0  0  0  0  0  0  0  0  5  0  0
    1.3939   -0.8386   -0.4695 H   0  0  0  0  0  0  0  0  0  6  0  0
    1.4394    0.7404    0.4965 H   0  0  0  0  0  0  0  0  0  7  0  0
  1  5  1  0
  1  4  1  0
  1  3  1  0
  1  2  1  0
  2  7  1  0
  2  6  1  0
M  RAD  1   2   2
M  END
>  <rmg_smiles>  (5) 
C[CH2]

>  <rmg_adjacency_list>  (5) 
multiplicity 2
1 C u0 p0 c0 {2,S} {3,S} {4,S} {5,S}
2 C u1 p0 c0 {1,S} {6,S} {7,S}
3 H u0 p0 c0 {1,S}
4 H u0 p0 c0 {1,S}
5 H u0 p0 c0 {1,S}
6 H u0 p0 c0 {2,S}
7 H u0 p0 c0 {2,S}


>  <multiplicity>  (5) 
2

>  <reaction>  (5) 
rxn_453

>  <type>  (5) 
r2

>  <role_mapnums>  (5) 
{}

>  <role_mapidx>  (5) 
{}

>  <ordered_mapped_smiles>  (5) 
[C:1]([C:2]([H:6])[H:7])([H:3])([H:4])[H:5]

>  <level_of_theory>  (5) 
wb97xd/def2tzvp

>  <lot_method>  (5) 
wb97xd

>  <lot_basis>  (5) 
def2tzvp

>  <spin_multiplicity>  (5) 
2.0

>  <optical_isomers>  (5) 
1.0

>  <modes>  (5) 
IdealGasTranslation(mass=(29.0391, 'amu')),         NonlinearRotor(             inertia = ([4.86051, 22.0602, 23.8144

>  <frequency_value>  (5) 
unknown

>  <frequency_units>  (5) 
unknown

>  <frequency_list>  (5) 
unknown

>  <arkane_path>  (5) 
/home/calvin/Dropbox/PersonalFolders/Calvin/HAb_Converged/rxn_453/output/Species/rxn_453_C[CH2]/arkane/output.py

>  <path_exists>  (5) 
True

>  <E0_value>  (5) 
-207679.78865121285

>  <E0_units>  (5) 
kJ/mol

>  <thermo_class>  (5) 
NASA

>  <Cp0_value>  (5) 
33.257888

>  <Cp0_units>  (5) 
J/(mol*K)

>  <CpInf_value>  (5) 
157.97496800000002

>  <CpInf_units>  (5) 
J/(mol*K)

>  <Tmin_value>  (5) 
10.0

>  <Tmin_units>  (5) 
K

>  <Tmax_value>  (5) 
3000.0

>  <Tmax_units>  (5) 
K

>  <polynomials>  (5) 
[{"name": "polynomial1", "class": "NASAPolynomial", "Tmin_value": 10.0, "Tmin_units": "K", "Tmax_value": 487.87976470861213, "Tmax_units": "K", "coeffs": [3.9121871353579607, 0.009303342355112522, -1.0632548237956822e-05, 4.8831908404358495e-08, -4.7450160133634566e-11, -24978109.370781355, 5.932423398139755]}, {"name": "polynomial2", "class": "NASAPolynomial", "Tmin_value": 487.87976470861213, "Tmin_units": "K", "Tmax_value": 3000.0, "Tmax_units": "K", "coeffs": [1.255601804674027, 0.02015925973571526, -1.042095542288469e-05, 2.645655029251924e-09, -2.6467461504495006e-13, -24977720.132981308, 18.174806831505954]}]

>  <H298_value>  (5) 
-49633.563072244775

>  <H298_units>  (5) 
kcal/mol

>  <S298_value>  (5) 
61.32124798502571

>  <S298_units>  (5) 
cal/(mol*K)

>  <Cp_T_value_list>  (5) 
[13.275286080102546, 15.585331501205383, 17.97260864331377, 20.143861899983392, 23.766518336877798, 26.578661465366384, 31.07297867985595, 33.426295758137194, 34.588101279891]

>  <Cp_T_units>  (5) 
cal/(mol*K)

>  <T_list>  (5) 
[300.0, 400.0, 500.0, 600.0, 800.0, 1000.0, 1500.0, 2000.0, 2400.0]

>  <T_units>  (5) 
K

>  <yaml_path>  (5) 
/home/calvin/Dropbox/PersonalFolders/Calvin/HAb_Converged/rxn_453/output/Species/rxn_453_C[CH2]/rxn_453_CCH2.yml

>  <frequencies_cm1>  (5) 
[107.07690209476, 475.05117745227994, 809.2398850354, 971.27327064612, 1064.95268438156, 1183.6279246817999, 1386.8220203006, 1452.9442219468801, 1466.90480310244, 1470.74344789632, 2948.7315653052397, 3035.3173832051198, 3081.4978594821196, 3128.7358514984, 3230.1062887922394]

>  <ZPE_kJmol>  (5) 
154.3962225328414

>  <E_elec_kJmol>  (5) 
-207834.1848737457

>  <E0_minus_Eelec_plus_ZPE_kJmol>  (5) 
0.0

>  <rxn>  (5) 
rxn_453

>  <species_type>  (5) 
r1

>  <species_folder>  (5) 
rxn_453_C[CH2]

>  <frequencies_cm1_list>  (5) 
[107.07690209476, 475.05117745227994, 809.2398850354, 971.27327064612, 1064.95268438156, 1183.6279246817999, 1386.8220203006, 1452.9442219468801, 1466.90480310244, 1470.74344789632, 2948.7315653052397, 3035.3173832051198, 3081.4978594821196, 3128.7358514984, 3230.1062887922394]

>  <E0_kJmol>  (5) 
-207680

>  <H298_kJmol>  (5) 
-207667

$$$$
