
     RDKit          3D

  9  8  0  0  0  0  0  0  0  0999 V2000
    0.6927    0.0665   -2.2159 C   0  0  0  0  0  2  0  0  0  1  0  0
    0.6644   -0.0923   -1.0283 C   0  0  0  0  0  2  0  0  0  2  0  0
    0.6841   -0.2533    0.4053 C   0  0  0  0  0  0  0  0  0  3  0  0
   -0.5570    0.0121    1.0931 C   0  0  0  0  0  2  0  0  0  4  0  0
   -1.5569    0.2640    1.7038 C   0  0  0  0  0  2  0  0  0  5  0  0
    0.7015    0.1991   -3.2710 H   0  0  0  0  0  0  0  0  0  6  0  0
    1.4046    0.4713    0.7874 H   0  0  0  0  0  0  0  0  0  7  0  0
    1.1166   -1.2104    0.7006 H   0  0  0  0  0  0  0  0  0  8  0  0
   -2.4559    0.4761    2.2306 H   0  0  0  0  0  0  0  0  0  9  0  0
  1  6  1  0
  1  2  1  0
  2  3  1  0
  3  4  1  0
  3  7  1  0
  3  8  1  0
  4  5  1  0
  5  9  1  0
M  RAD  4   1   3   2   3   4   3   5   3
M  END
>  <rmg_smiles>  (1) 
[CH][C]C[C][CH]

>  <rmg_adjacency_list>  (1) 
1 C u0 p0 c0 {2,S} {3,S} {6,S} {7,S}
2 C u0 p1 c0 {1,S} {4,S}
3 C u0 p1 c0 {1,S} {5,S}
4 C u0 p1 c0 {2,S} {8,S}
5 C u0 p1 c0 {3,S} {9,S}
6 H u0 p0 c0 {1,S}
7 H u0 p0 c0 {1,S}
8 H u0 p0 c0 {4,S}
9 H u0 p0 c0 {5,S}


>  <multiplicity>  (1) 
1

>  <reaction>  (1) 
rxn_1363

>  <type>  (1) 
r1h

>  <role_mapnums>  (1) 
{"r1h_a": 3, "r1h_h": 7}

>  <role_mapidx>  (1) 
{"r1h_a": 2, "r1h_h": 6}

>  <ordered_mapped_smiles>  (1) 
[C:1]([C:2][C:3]([C:4][C:5][H:9])([H:7])[H:8])[H:6]

>  <mol_properties>  (1) 
{"2": {"label": "donator", "atom_type": "Cs"}, "6": {"label": "d_hydrogen", "atom_type": "H0"}}

>  <level_of_theory>  (1) 
wb97xd/def2tzvp

>  <lot_method>  (1) 
wb97xd

>  <lot_basis>  (1) 
def2tzvp

>  <spin_multiplicity>  (1) 
1.0

>  <optical_isomers>  (1) 
1.0

>  <modes>  (1) 
IdealGasTranslation(mass=(64.0313, 'amu')),         NonlinearRotor(             inertia = ([26.0751, 176.474, 199.453

>  <frequency_value>  (1) 
unknown

>  <frequency_units>  (1) 
unknown

>  <frequency_list>  (1) 
unknown

>  <arkane_path>  (1) 
/home/calvin/Dropbox/PersonalFolders/Calvin/HAb_Converged/rxn_1363/output/Species/rxn_1363_CtCCCtC/arkane/output.py

>  <path_exists>  (1) 
True

>  <E0_value>  (1) 
-505987.19351265096

>  <E0_units>  (1) 
kJ/mol

>  <thermo_class>  (1) 
NASA

>  <Cp0_value>  (1) 
33.257888

>  <Cp0_units>  (1) 
J/(mol*K)

>  <CpInf_value>  (1) 
207.8618

>  <CpInf_units>  (1) 
J/(mol*K)

>  <Tmin_value>  (1) 
10.0

>  <Tmin_units>  (1) 
K

>  <Tmax_value>  (1) 
3000.0

>  <Tmax_units>  (1) 
K

>  <polynomials>  (1) 
[{"name": "polynomial1", "class": "NASAPolynomial", "Tmin_value": 10.0, "Tmin_units": "K", "Tmax_value": 497.8513259912737, "Tmax_units": "K", "coeffs": [3.8915923857803536, 0.006957077216274673, 0.00011247108954423451, -2.58415972479989e-07, 1.7696354569532415e-10, -60856199.4251038, 8.432123404375208]}, {"name": "polynomial2", "class": "NASAPolynomial", "Tmin_value": 497.8513259912737, "Tmin_units": "K", "Tmax_value": 3000.0, "Tmax_units": "K", "coeffs": [4.075787334974484, 0.027762889535938477, -1.736147806652233e-05, 5.355292661241066e-09, -6.423462202508128e-13, -60856493.94799508, 4.89821145227154]}]

>  <H298_value>  (1) 
-120929.79228656254

>  <H298_units>  (1) 
kcal/mol

>  <S298_value>  (1) 
71.02155085771051

>  <S298_units>  (1) 
cal/(mol*K)

>  <Cp_T_value_list>  (1) 
[20.979509503559502, 25.16090011310623, 28.30999724146717, 30.91474121272046, 35.081264888538236, 38.134781385911204, 42.68326999943224, 45.150237682434486, 46.5496532279807]

>  <Cp_T_units>  (1) 
cal/(mol*K)

>  <T_list>  (1) 
[300.0, 400.0, 500.0, 600.0, 800.0, 1000.0, 1500.0, 2000.0, 2400.0]

>  <T_units>  (1) 
K

>  <yaml_path>  (1) 
/home/calvin/Dropbox/PersonalFolders/Calvin/HAb_Converged/rxn_1363/output/Species/rxn_1363_CtCCCtC/rxn_1363_CtCCCtC.yml

>  <frequencies_cm1>  (1) 
[136.57060404415998, 317.76287869768, 341.09689481504, 341.70805650852003, 565.30396551304, 688.26420465296, 689.33545436288, 698.59215057424, 701.977574337, 902.24633420948, 929.56320181244, 996.6124464769199, 1233.63331178204, 1332.80631377348, 1444.34675632624, 2232.8002767979997, 2237.0990096083196, 3019.1456327765195, 3054.0230512167996, 3436.67207420316, 3437.69525501584]

>  <ZPE_kJmol>  (1) 
171.88700812582363

>  <E_elec_kJmol>  (1) 
-506159.0805207768

>  <E0_minus_Eelec_plus_ZPE_kJmol>  (1) 
0.0

>  <rxn>  (1) 
rxn_1363

>  <species_type>  (1) 
r0

>  <species_folder>  (1) 
rxn_1363_CtCCCtC

>  <frequencies_cm1_list>  (1) 
[136.57060404415998, 317.76287869768, 341.09689481504, 341.70805650852003, 565.30396551304, 688.26420465296, 689.33545436288, 698.59215057424, 701.977574337, 902.24633420948, 929.56320181244, 996.6124464769199, 1233.63331178204, 1332.80631377348, 1444.34675632624, 2232.8002767979997, 2237.0990096083196, 3019.1456327765195, 3054.0230512167996, 3436.67207420316, 3437.69525501584]

>  <E0_kJmol>  (1) 
-505987

>  <H298_kJmol>  (1) 
-505970

$$$$

     RDKit          3D

  9  8  0  0  0  0  0  0  0  0999 V2000
   -0.8847   -0.9965   -0.5473 H   0  0  0  0  0  0  0  0  0  1  0  0
    0.5412    0.2567   -1.1597 C   0  0  0  0  0  0  0  0  0  2  0  0
   -0.1835   -0.2421   -0.1905 C   0  0  0  0  0  0  0  0  0  3  0  0
   -0.3165   -0.0029    1.2588 C   0  0  0  0  0  0  0  0  0  4  0  0
    0.4367   -0.0895   -2.1826 H   0  0  0  0  0  0  0  0  0  5  0  0
    1.2714    1.0438   -0.9740 H   0  0  0  0  0  0  0  0  0  6  0  0
   -0.0711   -0.9020    1.8282 H   0  0  0  0  0  0  0  0  0  7  0  0
    0.3507    0.8031    1.5815 H   0  0  0  0  0  0  0  0  0  8  0  0
   -1.3425    0.2735    1.5104 H   0  0  0  0  0  0  0  0  0  9  0  0
  1  3  1  0
  2  5  1  0
  2  6  1  0
  2  3  1  0
  3  4  1  0
  4  8  1  0
  4  9  1  0
  4  7  1  0
M  END
>  <rmg_smiles>  (2) 
[CH2][CH]C

>  <rmg_adjacency_list>  (2) 
1 C u0 p0 c0 {2,S} {4,S} {5,S} {6,S}
2 C u0 p0 c0 {1,S} {3,S} {7,S}
3 C u0 p0 c0 {2,S} {8,S} {9,S}
4 H u0 p0 c0 {1,S}
5 H u0 p0 c0 {1,S}
6 H u0 p0 c0 {1,S}
7 H u0 p0 c0 {2,S}
8 H u0 p0 c0 {3,S}
9 H u0 p0 c0 {3,S}


>  <multiplicity>  (2) 
1

>  <reaction>  (2) 
rxn_1363

>  <type>  (2) 
r2h

>  <role_mapnums>  (2) 
{"r2h_a": 3, "r2h_h": 1}

>  <role_mapidx>  (2) 
{"r2h_a": 2, "r2h_h": 0}

>  <ordered_mapped_smiles>  (2) 
[H:1][CH:3]([CH:2]([H:5])[H:6])[C:4]([H:7])([H:8])[H:9]

>  <mol_properties>  (2) 
{"0": {"label": "a_hydrogen", "atom_type": "H0"}, "2": {"label": "acceptor", "atom_type": "Cs"}}

>  <level_of_theory>  (2) 
wb97xd/def2tzvp

>  <lot_method>  (2) 
wb97xd

>  <lot_basis>  (2) 
def2tzvp

>  <spin_multiplicity>  (2) 
1.0

>  <optical_isomers>  (2) 
1.0

>  <modes>  (2) 
IdealGasTranslation(mass=(42.047, 'amu')),         NonlinearRotor(             inertia = ([10.7194, 53.9495, 61.5633

>  <frequency_value>  (2) 
unknown

>  <frequency_units>  (2) 
unknown

>  <frequency_list>  (2) 
unknown

>  <arkane_path>  (2) 
/home/calvin/Dropbox/PersonalFolders/Calvin/HAb_Converged/rxn_1363/output/Species/rxn_1363_C=CC/arkane/output.py

>  <path_exists>  (2) 
True

>  <E0_value>  (2) 
-309367.8832800635

>  <E0_units>  (2) 
kJ/mol

>  <thermo_class>  (2) 
NASA

>  <Cp0_value>  (2) 
33.257888

>  <Cp0_units>  (2) 
J/(mol*K)

>  <CpInf_value>  (2) 
207.8618

>  <CpInf_units>  (2) 
J/(mol*K)

>  <Tmin_value>  (2) 
10.0

>  <Tmin_units>  (2) 
K

>  <Tmax_value>  (2) 
3000.0

>  <Tmax_units>  (2) 
K

>  <polynomials>  (2) 
[{"name": "polynomial1", "class": "NASAPolynomial", "Tmin_value": 10.0, "Tmin_units": "K", "Tmax_value": 531.9066404514887, "Tmax_units": "K", "coeffs": [4.0204367106395305, -0.0017312814973888466, 7.469369070858841e-05, -1.103989586823944e-07, 5.357411953540602e-11, -37208361.619619094, 6.984063163619424]}, {"name": "polynomial2", "class": "NASAPolynomial", "Tmin_value": 531.9066404514887, "Tmin_units": "K", "Tmax_value": 3000.0, "Tmax_units": "K", "coeffs": [-0.30746978474152303, 0.03081497539241948, -1.7087881859194207e-05, 4.635359552359225e-09, -4.926745989402899e-13, -37207901.209693715, 25.131571818199003]}]

>  <H298_value>  (2) 
-73937.54315081466

>  <H298_units>  (2) 
kcal/mol

>  <S298_value>  (2) 
63.235428095961645

>  <S298_units>  (2) 
cal/(mol*K)

>  <Cp_T_value_list>  (2) 
[15.255114438428619, 19.0471333221202, 22.6079143488244, 25.768633340780376, 30.96022164704354, 34.89993402421754, 40.97109580318192, 44.05842766532305, 45.61775865339882]

>  <Cp_T_units>  (2) 
cal/(mol*K)

>  <T_list>  (2) 
[300.0, 400.0, 500.0, 600.0, 800.0, 1000.0, 1500.0, 2000.0, 2400.0]

>  <T_units>  (2) 
K

>  <yaml_path>  (2) 
/home/calvin/Dropbox/PersonalFolders/Calvin/HAb_Converged/rxn_1363/output/Species/rxn_1363_C=CC/rxn_1363_C=CC.yml

>  <frequencies_cm1>  (2) 
[200.92112347787997, 429.72220735495995, 590.1693193567598, 925.5460154002399, 944.49202789812, 949.7315376972799, 1024.05291981564, 1068.7501272635197, 1186.76613697304, 1322.2792252779197, 1396.37399688072, 1440.26090006084, 1466.0326959668, 1481.02332492036, 1720.5094379553598, 3007.2932161142003, 3065.80679802592, 3091.5648599612396, 3111.3280437122, 3123.2628641983597, 3201.2855514042]

>  <ZPE_kJmol>  (2) 
207.8343042708976

>  <E_elec_kJmol>  (2) 
-309575.71758433443

>  <E0_minus_Eelec_plus_ZPE_kJmol>  (2) 
0.0

>  <rxn>  (2) 
rxn_1363

>  <species_type>  (2) 
p0

>  <species_folder>  (2) 
rxn_1363_C=CC

>  <frequencies_cm1_list>  (2) 
[200.92112347787997, 429.72220735495995, 590.1693193567598, 925.5460154002399, 944.49202789812, 949.7315376972799, 1024.05291981564, 1068.7501272635197, 1186.76613697304, 1322.2792252779197, 1396.37399688072, 1440.26090006084, 1466.0326959668, 1481.02332492036, 1720.5094379553598, 3007.2932161142003, 3065.80679802592, 3091.5648599612396, 3111.3280437122, 3123.2628641983597, 3201.2855514042]

>  <E0_kJmol>  (2) 
-309368

>  <H298_kJmol>  (2) 
-309355

$$$$

     RDKit          3D

 17 15  0  0  0  0  0  0  0  0999 V2000
   -0.3268   -0.6612   -2.8005 C   0  0  0  0  0  0  0  0  0  1  0  0
   -0.3552   -0.8200   -1.6128 C   0  0  0  0  0  0  0  0  0  2  0  0
   -0.3355   -0.9810   -0.1793 C   0  0  0  0  0  0  0  0  0  3  0  0
   -1.5765   -0.7156    0.5086 C   0  0  0  0  0  0  0  0  0  4  0  0
   -2.5765   -0.4637    1.1192 C   0  0  0  0  0  0  0  0  0  5  0  0
   -0.3180   -0.5286   -3.8555 H   0  0  0  0  0  0  0  0  0  6  0  0
    0.4852   -0.1557    0.2559 H   0  0  0  0  0  0  0  0  0  7  0  0
    0.0971   -1.9381    0.1160 H   0  0  0  0  0  0  0  0  0  8  0  0
   -3.4754   -0.2516    1.6460 H   0  0  0  0  0  0  0  0  0  9  0  0
    2.1627    1.3682   -0.2285 C   0  0  0  0  0  0  0  0  0 10  0  0
    1.4379    0.8694    0.7407 C   0  0  0  0  0  3  0  0  0 11  0  0
    1.3050    1.1086    2.1899 C   0  0  0  0  0  0  0  0  0 12  0  0
    2.0582    1.0219   -1.2514 H   0  0  0  0  0  0  0  0  0 13  0  0
    2.8929    2.1553   -0.0428 H   0  0  0  0  0  0  0  0  0 14  0  0
    1.5503    0.2095    2.7593 H   0  0  0  0  0  0  0  0  0 15  0  0
    1.9722    1.9146    2.5127 H   0  0  0  0  0  0  0  0  0 16  0  0
    0.2790    1.3850    2.4415 H   0  0  0  0  0  0  0  0  0 17  0  0
  1  6  1  0
  1  2  1  0
  2  3  1  0
  3  4  1  0
  3  7  1  0
  3  8  1  0
  4  5  1  0
  5  9  1  0
 10 13  1  0
 10 14  1  0
 10 11  1  0
 11 12  1  0
 12 15  1  0
 12 17  1  0
 12 16  1  0
M  RAD  1  11   2
M  END
>  <rmg_smiles>  (3) 
[CH2][C]C.[CH]CCC[CH]

>  <rmg_adjacency_list>  (3) 
multiplicity 2
1  C u0 p0 c0 {5,S} {6,S} {9,S} {10,S}
2  C u0 p0 c0 {4,S} {11,S} {12,S} {13,S}
3  C u0 p0 c0 {4,S} {14,S} {15,S}
4  C u1 p1 c0 {2,S} {3,S}
5  C u0 p1 c0 {1,S} {7,S}
6  C u0 p1 c0 {1,S} {8,S}
7  C u0 p1 c0 {5,S} {16,S}
8  C u0 p1 c0 {6,S} {17,S}
9  H u0 p0 c0 {1,S}
10 H u0 p0 c0 {1,S}
11 H u0 p0 c0 {2,S}
12 H u0 p0 c0 {2,S}
13 H u0 p0 c0 {2,S}
14 H u0 p0 c0 {3,S}
15 H u0 p0 c0 {3,S}
16 H u0 p0 c0 {7,S}
17 H u0 p0 c0 {8,S}


>  <multiplicity>  (3) 
2

>  <reaction>  (3) 
rxn_1363

>  <type>  (3) 
ts

>  <role_mapnums>  (3) 
{"*2": 7, "*1": 3, "*3": 11, "*0": 2, "*4": 10}

>  <role_mapidx>  (3) 
{"*2": 6, "*1": 2, "*3": 10, "*0": 1, "*4": 9}

>  <ordered_mapped_smiles>  (3) 
[CH2:1]([CH2:2][C:3]([CH2:4][CH2:5][H:9])([H:7])[H:8])[H:6].[CH:10]([CH:11][C:12]([H:15])([H:16])[H:17])([H:13])[H:14]

>  <mol_properties>  (3) 
{"1": {"label": "*0", "atom_type": "C2s"}, "2": {"label": "*1", "atom_type": "Cs"}, "6": {"label": "*2", "atom_type": "H0"}, "9": {"label": "*4", "atom_type": "Cs"}, "10": {"label": "*3", "atom_type": "C2s"}}

>  <level_of_theory>  (3) 
wb97xd/def2tzvp

>  <lot_method>  (3) 
wb97xd

>  <lot_basis>  (3) 
def2tzvp

>  <spin_multiplicity>  (3) 
2.0

>  <optical_isomers>  (3) 
2.0

>  <modes>  (3) 
IdealGasTranslation(mass=(105.07, 'amu')),         NonlinearRotor(             inertia = ([247.599, 359.059, 573.402

>  <frequency_value>  (3) 
-1320.88

>  <frequency_units>  (3) 
cm^-1

>  <frequency_list>  (3) 
unknown

>  <arkane_path>  (3) 
/home/calvin/Dropbox/PersonalFolders/Calvin/HAb_Converged/rxn_1363/output/rxns/TS0/arkane/output.py

>  <path_exists>  (3) 
True

>  <E0_value>  (3) 
-813595.0

>  <E0_units>  (3) 
kJ/mol

>  <thermo_class>  (3) 
unknown

>  <Cp0_value>  (3) 
unknown

>  <Cp0_units>  (3) 
unknown

>  <CpInf_value>  (3) 
unknown

>  <CpInf_units>  (3) 
unknown

>  <Tmin_value>  (3) 
unknown

>  <Tmin_units>  (3) 
unknown

>  <Tmax_value>  (3) 
unknown

>  <Tmax_units>  (3) 
unknown

>  <polynomials>  (3) 
unknown

>  <H298_value>  (3) 
unknown

>  <H298_units>  (3) 
unknown

>  <S298_value>  (3) 
unknown

>  <S298_units>  (3) 
unknown

>  <Cp_T_value_list>  (3) 
unknown

>  <Cp_T_units>  (3) 
unknown

>  <T_list>  (3) 
unknown

>  <T_units>  (3) 
unknown

>  <yaml_path>  (3) 
unknown

>  <frequencies_cm1>  (3) 
unknown

>  <ZPE_kJmol>  (3) 
unknown

>  <E_elec_kJmol>  (3) 
unknown

>  <E0_minus_Eelec_plus_ZPE_kJmol>  (3) 
unknown

>  <rxn>  (3) 
unknown

>  <species_type>  (3) 
unknown

>  <species_folder>  (3) 
unknown

>  <frequencies_cm1_list>  (3) 
[]

>  <ts_imag_freq_cm1>  (3) 
-1336.9272

>  <ts_freq_out_path>  (3) 
/home/calvin/Dropbox/PersonalFolders/Calvin/HAb_Converged/rxn_1363/output/rxns/TS0/geometry/freq.out

>  <E0_kJmol>  (3) 
-813595

>  <H298_kJmol>  (3) 
unknown

$$$$

     RDKit          3D

  8  7  0  0  0  0  0  0  0  0999 V2000
   -2.2129    0.4855    0.7390 C   0  0  0  0  0  0  0  0  0  1  0  0
   -1.2226    0.0526    0.1974 C   0  0  0  0  0  0  0  0  0  2  0  0
   -0.1006   -0.4575   -0.4419 C   0  0  0  0  0  3  0  0  0  3  0  0
    1.1960   -0.1737   -0.0342 C   0  0  0  0  0  0  0  0  0  4  0  0
    2.3329    0.0603    0.3036 C   0  0  0  0  0  0  0  0  0  5  0  0
   -3.0803    0.8696    1.2198 H   0  0  0  0  0  0  0  0  0  6  0  0
   -0.2433   -1.1067   -1.2980 H   0  0  0  0  0  0  0  0  0  7  0  0
    3.3308    0.2700    0.6058 H   0  0  0  0  0  0  0  0  0  8  0  0
  1  6  1  0
  1  2  1  0
  2  3  1  0
  3  4  1  0
  3  7  1  0
  4  5  1  0
  5  8  1  0
M  RAD  1   3   2
M  END
>  <rmg_smiles>  (4) 
[CH]C[CH]C[CH]

>  <rmg_adjacency_list>  (4) 
multiplicity 2
1 C u1 p0 c0 {2,S} {3,S} {6,S}
2 C u0 p1 c0 {1,S} {4,S}
3 C u0 p1 c0 {1,S} {5,S}
4 C u0 p1 c0 {2,S} {7,S}
5 C u0 p1 c0 {3,S} {8,S}
6 H u0 p0 c0 {1,S}
7 H u0 p0 c0 {4,S}
8 H u0 p0 c0 {5,S}


>  <multiplicity>  (4) 
2

>  <reaction>  (4) 
rxn_1363

>  <type>  (4) 
r1

>  <role_mapnums>  (4) 
{}

>  <role_mapidx>  (4) 
{}

>  <ordered_mapped_smiles>  (4) 
[CH2:1]([CH2:2][C:3]([CH2:4][CH2:5][H:8])[H:7])[H:6]

>  <level_of_theory>  (4) 
wb97xd/def2tzvp

>  <lot_method>  (4) 
wb97xd

>  <lot_basis>  (4) 
def2tzvp

>  <spin_multiplicity>  (4) 
2.0

>  <optical_isomers>  (4) 
1.0

>  <modes>  (4) 
IdealGasTranslation(mass=(63.0235, 'amu')),         NonlinearRotor(             inertia = ([17.4877, 183.017, 200.505

>  <frequency_value>  (4) 
unknown

>  <frequency_units>  (4) 
unknown

>  <frequency_list>  (4) 
unknown

>  <arkane_path>  (4) 
/home/calvin/Dropbox/PersonalFolders/Calvin/HAb_Converged/rxn_1363/output/Species/rxn_1363_CtC[CH]CtC/arkane/output.py

>  <path_exists>  (4) 
True

>  <E0_value>  (4) 
-504350.2602594301

>  <E0_units>  (4) 
kJ/mol

>  <thermo_class>  (4) 
NASA

>  <Cp0_value>  (4) 
33.257888

>  <Cp0_units>  (4) 
J/(mol*K)

>  <CpInf_value>  (4) 
182.918384

>  <CpInf_units>  (4) 
J/(mol*K)

>  <Tmin_value>  (4) 
10.0

>  <Tmin_units>  (4) 
K

>  <Tmax_value>  (4) 
3000.0

>  <Tmax_units>  (4) 
K

>  <polynomials>  (4) 
[{"name": "polynomial1", "class": "NASAPolynomial", "Tmin_value": 10.0, "Tmin_units": "K", "Tmax_value": 511.3919089489883, "Tmax_units": "K", "coeffs": [3.8659954757573973, 0.008525616172306112, 0.00010836986673963408, -2.626119315958765e-07, 1.8230598905311024e-10, -60659320.69120562, 8.776064020238547]}, {"name": "polynomial2", "class": "NASAPolynomial", "Tmin_value": 511.3919089489883, "Tmin_units": "K", "Tmax_value": 3000.0, "Tmax_units": "K", "coeffs": [5.628254952966442, 0.022649494843224656, -1.4916539685924306e-05, 4.8216558906608004e-09, -6.002662773476099e-13, -60659865.858327985, -2.111983316915381]}]

>  <H298_value>  (4) 
-120538.51368508991

>  <H298_units>  (4) 
kcal/mol

>  <S298_value>  (4) 
71.92961318485641

>  <S298_units>  (4) 
cal/(mol*K)

>  <Cp_T_value_list>  (4) 
[20.99111005886384, 24.790978026499133, 27.40139790751197, 29.433868246293493, 32.638046849521324, 34.940256474405714, 38.30245845445545, 40.20133175263048, 41.34770744760823]

>  <Cp_T_units>  (4) 
cal/(mol*K)

>  <T_list>  (4) 
[300.0, 400.0, 500.0, 600.0, 800.0, 1000.0, 1500.0, 2000.0, 2400.0]

>  <T_units>  (4) 
K

>  <yaml_path>  (4) 
/home/calvin/Dropbox/PersonalFolders/Calvin/HAb_Converged/rxn_1363/output/Species/rxn_1363_CtC[CH]CtC/rxn_1363_CtCCHCtC.yml

>  <frequencies_cm1>  (4) 
[140.92427273703998, 354.42571332116, 356.18366156308, 383.39752438624004, 580.9812929985999, 582.4370938864399, 598.9659275516799, 670.81519495484, 678.8701687352, 681.5894949219199, 955.0809192615599, 1115.22588390928, 1366.0425227222797, 2023.89971637828, 2119.4194821794795, 3149.0140591483596, 3426.6737435772397, 3430.6016591802795]

>  <ZPE_kJmol>  (4) 
135.26507637113028

>  <E_elec_kJmol>  (4) 
-504485.5253358012

>  <E0_minus_Eelec_plus_ZPE_kJmol>  (4) 
0.0

>  <rxn>  (4) 
rxn_1363

>  <species_type>  (4) 
p1

>  <species_folder>  (4) 
rxn_1363_CtC[CH]CtC

>  <frequencies_cm1_list>  (4) 
[140.92427273703998, 354.42571332116, 356.18366156308, 383.39752438624004, 580.9812929985999, 582.4370938864399, 598.9659275516799, 670.81519495484, 678.8701687352, 681.5894949219199, 955.0809192615599, 1115.22588390928, 1366.0425227222797, 2023.89971637828, 2119.4194821794795, 3149.0140591483596, 3426.6737435772397, 3430.6016591802795]

>  <E0_kJmol>  (4) 
-504350

>  <H298_kJmol>  (4) 
-504333

$$$$

     RDKit          3D

  8  7  0  0  0  0  0  0  0  0999 V2000
    1.4097   -0.3618   -0.1144 C   0  0  0  0  0  0  0  0  0  1  0  0
    0.1804   -0.1811   -0.5085 C   0  0  0  0  0  3  0  0  0  2  0  0
   -1.1132    0.2655    0.0162 C   0  0  0  0  0  0  0  0  0  3  0  0
    2.1849   -0.7256   -0.7809 H   0  0  0  0  0  0  0  0  0  4  0  0
    1.7118   -0.1519    0.9143 H   0  0  0  0  0  0  0  0  0  5  0  0
   -1.8662   -0.5198   -0.0756 H   0  0  0  0  0  0  0  0  0  6  0  0
   -1.0300    0.5356    1.0772 H   0  0  0  0  0  0  0  0  0  7  0  0
   -1.4772    1.1391   -0.5284 H   0  0  0  0  0  0  0  0  0  8  0  0
  1  5  1  0
  1  4  1  0
  1  2  1  0
  2  3  1  0
  3  6  1  0
  3  7  1  0
  3  8  1  0
M  RAD  1   2   2
M  END
>  <rmg_smiles>  (5) 
[CH2][C]C

>  <rmg_adjacency_list>  (5) 
multiplicity 2
1 C u0 p0 c0 {3,S} {4,S} {5,S} {6,S}
2 C u0 p0 c0 {3,S} {7,S} {8,S}
3 C u1 p1 c0 {1,S} {2,S}
4 H u0 p0 c0 {1,S}
5 H u0 p0 c0 {1,S}
6 H u0 p0 c0 {1,S}
7 H u0 p0 c0 {2,S}
8 H u0 p0 c0 {2,S}


>  <multiplicity>  (5) 
2

>  <reaction>  (5) 
rxn_1363

>  <type>  (5) 
r2

>  <role_mapnums>  (5) 
{}

>  <role_mapidx>  (5) 
{}

>  <ordered_mapped_smiles>  (5) 
[CH:1]([CH:2][C:3]([H:6])([H:7])[H:8])([H:4])[H:5]

>  <level_of_theory>  (5) 
wb97xd/def2tzvp

>  <lot_method>  (5) 
wb97xd

>  <lot_basis>  (5) 
def2tzvp

>  <spin_multiplicity>  (5) 
2.0

>  <optical_isomers>  (5) 
1.0

>  <modes>  (5) 
IdealGasTranslation(mass=(41.0391, 'amu')),         NonlinearRotor(             inertia = ([6.71616, 57.9316, 61.5152

>  <frequency_value>  (5) 
unknown

>  <frequency_units>  (5) 
unknown

>  <frequency_list>  (5) 
unknown

>  <arkane_path>  (5) 
/home/calvin/Dropbox/PersonalFolders/Calvin/HAb_Converged/rxn_1363/output/Species/rxn_1363_C=[C]C/arkane/output.py

>  <path_exists>  (5) 
True

>  <E0_value>  (5) 
-307613.2565359382

>  <E0_units>  (5) 
kJ/mol

>  <thermo_class>  (5) 
NASA

>  <Cp0_value>  (5) 
33.257888

>  <Cp0_units>  (5) 
J/(mol*K)

>  <CpInf_value>  (5) 
182.918384

>  <CpInf_units>  (5) 
J/(mol*K)

>  <Tmin_value>  (5) 
10.0

>  <Tmin_units>  (5) 
K

>  <Tmax_value>  (5) 
3000.0

>  <Tmax_units>  (5) 
K

>  <polynomials>  (5) 
[{"name": "polynomial1", "class": "NASAPolynomial", "Tmin_value": 10.0, "Tmin_units": "K", "Tmax_value": 538.1692736306433, "Tmax_units": "K", "coeffs": [3.9303886196913362, 0.005418243692389709, 4.114996360384344e-05, -6.443969944539894e-08, 3.128163040505741e-11, -36997327.50077409, 7.425360615295283]}, {"name": "polynomial2", "class": "NASAPolynomial", "Tmin_value": 538.1692736306433, "Tmin_units": "K", "Tmax_value": 3000.0, "Tmax_units": "K", "coeffs": [1.273053533371181, 0.025169201287411135, -1.3900535286108769e-05, 3.755192168085655e-09, -3.9753238140025035e-13, -36997041.482044026, 18.59902444170328]}]

>  <H298_value>  (5) 
-73518.02602426113

>  <H298_units>  (5) 
kcal/mol

>  <S298_value>  (5) 
65.08531904367933

>  <S298_units>  (5) 
cal/(mol*K)

>  <Cp_T_value_list>  (5) 
[15.446293369595749, 18.596972462105906, 21.515764657035927, 24.104780904171406, 28.36121466049163, 31.59534994857027, 36.5882810723973, 39.12876014023866, 40.40916769152129]

>  <Cp_T_units>  (5) 
cal/(mol*K)

>  <T_list>  (5) 
[300.0, 400.0, 500.0, 600.0, 800.0, 1000.0, 1500.0, 2000.0, 2400.0]

>  <T_units>  (5) 
K

>  <yaml_path>  (5) 
/home/calvin/Dropbox/PersonalFolders/Calvin/HAb_Converged/rxn_1363/output/Species/rxn_1363_C=[C]C/rxn_1363_C=CC.yml

>  <frequencies_cm1>  (5) 
[176.04890264884, 312.71564448747995, 484.0194602802, 893.4634599852, 895.1939402858399, 932.7632169715598, 1043.3422815795197, 1098.3399670074, 1378.28635754784, 1408.11654177792, 1443.1999697778, 1458.9940360138, 1748.70527967928, 2967.7256467003594, 3032.41264841476, 3055.0530990147995, 3082.9330594139997, 3144.5573856756796]

>  <ZPE_kJmol>  (5) 
170.8020872739218

>  <E_elec_kJmol>  (5) 
-307784.0586232121

>  <E0_minus_Eelec_plus_ZPE_kJmol>  (5) 
0.0

>  <rxn>  (5) 
rxn_1363

>  <species_type>  (5) 
r1

>  <species_folder>  (5) 
rxn_1363_C=[C]C

>  <frequencies_cm1_list>  (5) 
[176.04890264884, 312.71564448747995, 484.0194602802, 893.4634599852, 895.1939402858399, 932.7632169715598, 1043.3422815795197, 1098.3399670074, 1378.28635754784, 1408.11654177792, 1443.1999697778, 1458.9940360138, 1748.70527967928, 2967.7256467003594, 3032.41264841476, 3055.0530990147995, 3082.9330594139997, 3144.5573856756796]

>  <E0_kJmol>  (5) 
-307613

>  <H298_kJmol>  (5) 
-307599

$$$$
