
     RDKit          3D

 19 20  0  0  0  0  0  0  0  0999 V2000
    0.8513   -1.1596   -0.5077 C   0  0  0  0  0  0  0  0  0  1  0  0
    1.3431    0.2755   -0.7235 C   0  0  0  0  0  0  0  0  0  2  0  0
    0.3939    1.0901    0.1727 C   0  0  0  0  0  0  0  0  0  3  0  0
   -1.0026    1.0867   -0.4708 C   0  0  0  0  0  0  0  0  0  4  0  0
   -1.4865   -0.3753   -0.2626 C   0  0  0  0  0  0  0  0  0  5  0  0
   -0.3006   -1.0294    0.4748 C   0  0  0  0  0  0  0  0  0  6  0  0
    0.1871    0.1314    1.3533 C   0  0  0  0  0  0  0  0  0  7  0  0
    1.6367   -1.7254   -0.0083 H   0  0  0  0  0  0  0  0  0  8  0  0
    0.6501   -1.7481   -1.4019 H   0  0  0  0  0  0  0  0  0  9  0  0
    2.3809    0.3969   -0.3989 H   0  0  0  0  0  0  0  0  0 10  0  0
    1.2945    0.5891   -1.7686 H   0  0  0  0  0  0  0  0  0 11  0  0
    0.7638    2.0842    0.4202 H   0  0  0  0  0  0  0  0  0 12  0  0
   -0.9656    1.3720   -1.5232 H   0  0  0  0  0  0  0  0  0 13  0  0
   -1.6621    1.7932    0.0359 H   0  0  0  0  0  0  0  0  0 14  0  0
   -1.7106   -0.8836   -1.2012 H   0  0  0  0  0  0  0  0  0 15  0  0
   -2.3883   -0.4091    0.3523 H   0  0  0  0  0  0  0  0  0 16  0  0
   -0.5587   -1.9528    0.9917 H   0  0  0  0  0  0  0  0  0 17  0  0
    1.1100   -0.0954    1.8900 H   0  0  0  0  0  0  0  0  0 18  0  0
   -0.5649    0.4799    2.0638 H   0  0  0  0  0  0  0  0  0 19  0  0
  1  8  1  0
  1  6  1  0
  1  9  1  0
  1  2  1  0
  2 11  1  0
  2  3  1  0
  2 10  1  0
  3  4  1  0
  3 12  1  0
  3  7  1  0
  4 14  1  0
  4  5  1  0
  4 13  1  0
  5 16  1  0
  5 15  1  0
  5  6  1  0
  6  7  1  0
  6 17  1  0
  7 18  1  0
  7 19  1  0
M  END
>  <rmg_smiles>  (1) 
C1CC2CCC1C2

>  <rmg_adjacency_list>  (1) 
1  C u0 p0 c0 {3,S} {5,S} {6,S} {8,S}
2  C u0 p0 c0 {3,S} {4,S} {7,S} {9,S}
3  C u0 p0 c0 {1,S} {2,S} {18,S} {19,S}
4  C u0 p0 c0 {2,S} {5,S} {10,S} {11,S}
5  C u0 p0 c0 {1,S} {4,S} {12,S} {13,S}
6  C u0 p0 c0 {1,S} {7,S} {14,S} {15,S}
7  C u0 p0 c0 {2,S} {6,S} {16,S} {17,S}
8  H u0 p0 c0 {1,S}
9  H u0 p0 c0 {2,S}
10 H u0 p0 c0 {4,S}
11 H u0 p0 c0 {4,S}
12 H u0 p0 c0 {5,S}
13 H u0 p0 c0 {5,S}
14 H u0 p0 c0 {6,S}
15 H u0 p0 c0 {6,S}
16 H u0 p0 c0 {7,S}
17 H u0 p0 c0 {7,S}
18 H u0 p0 c0 {3,S}
19 H u0 p0 c0 {3,S}


>  <multiplicity>  (1) 
1

>  <reaction>  (1) 
rxn_487

>  <type>  (1) 
r1h

>  <role_mapnums>  (1) 
{"r1h_a": 1, "r1h_h": 8}

>  <role_mapidx>  (1) 
{"r1h_a": 0, "r1h_h": 7}

>  <ordered_mapped_smiles>  (1) 
[C:1]1([H:8])([H:9])[C:2]([H:10])([H:11])[C:3]2([H:12])[C:4]([H:13])([H:14])[C:5]([H:15])([H:16])[C:6]1([H:17])[C:7]2([H:18])[H:19]

>  <mol_properties>  (1) 
{"0": {"label": "donator", "atom_type": "Cs"}, "7": {"label": "d_hydrogen", "atom_type": "H0"}}

>  <level_of_theory>  (1) 
wb97xd/def2tzvp

>  <lot_method>  (1) 
wb97xd

>  <lot_basis>  (1) 
def2tzvp

>  <spin_multiplicity>  (1) 
1.0

>  <optical_isomers>  (1) 
1.0

>  <modes>  (1) 
IdealGasTranslation(mass=(96.0939, 'amu')),         NonlinearRotor(             inertia = ([135.336, 156.085, 180.607

>  <frequency_value>  (1) 
unknown

>  <frequency_units>  (1) 
unknown

>  <frequency_list>  (1) 
unknown

>  <arkane_path>  (1) 
/home/calvin/Dropbox/PersonalFolders/Calvin/HAb_Converged/rxn_487/output/Species/rxn_487_C1CC2CCC1C2/arkane/output.py

>  <path_exists>  (1) 
True

>  <E0_value>  (1) 
-718893.5806331062

>  <E0_units>  (1) 
kJ/mol

>  <thermo_class>  (1) 
NASA

>  <Cp0_value>  (1) 
33.257888

>  <Cp0_units>  (1) 
J/(mol*K)

>  <CpInf_value>  (1) 
457.29596

>  <CpInf_units>  (1) 
J/(mol*K)

>  <Tmin_value>  (1) 
10.0

>  <Tmin_units>  (1) 
K

>  <Tmax_value>  (1) 
3000.0

>  <Tmax_units>  (1) 
K

>  <polynomials>  (1) 
[{"name": "polynomial1", "class": "NASAPolynomial", "Tmin_value": 10.0, "Tmin_units": "K", "Tmax_value": 662.4178125457627, "Tmax_units": "K", "coeffs": [4.239403585768697, -0.01836828814634063, 0.0002578950712714286, -3.7381328534857083e-07, 1.74409927807895e-10, -86462928.5201383, 9.87949578073462]}, {"name": "polynomial2", "class": "NASAPolynomial", "Tmin_value": 662.4178125457627, "Tmin_units": "K", "Tmax_value": 3000.0, "Tmax_units": "K", "coeffs": [-6.999983226389214, 0.08370637401899614, -5.070273549604008e-05, 1.4717426455763106e-08, -1.6436943039919863e-12, -86462189.9567335, 53.80936817756756]}]

>  <H298_value>  (1) 
-171815.58472962098

>  <H298_units>  (1) 
kcal/mol

>  <S298_value>  (1) 
73.63684385034063

>  <S298_units>  (1) 
cal/(mol*K)

>  <Cp_T_value_list>  (1) 
[26.348838520541374, 37.15309814493767, 47.10273015631388, 55.48382566754763, 68.31505323621754, 77.6548383777145, 91.07076230422987, 97.45683083224962, 100.88536523646154]

>  <Cp_T_units>  (1) 
cal/(mol*K)

>  <T_list>  (1) 
[300.0, 400.0, 500.0, 600.0, 800.0, 1000.0, 1500.0, 2000.0, 2400.0]

>  <T_units>  (1) 
K

>  <yaml_path>  (1) 
/home/calvin/Dropbox/PersonalFolders/Calvin/HAb_Converged/rxn_487/output/Species/rxn_487_C1CC2CCC1C2/rxn_487_C1CC2CCC1C2.yml

>  <frequencies_cm1>  (1) 
[154.85738595131997, 340.37586135643994, 406.75900844488, 450.69398052224, 546.52276066284, 762.7915963309199, 767.83883054112, 803.5128192785198, 822.9257867781599, 828.1927645185999, 886.4866029000799, 904.4231685559199, 936.7804033837599, 957.0723450043599, 964.2964135609999, 966.8990009972799, 969.81060277296, 1009.5017779225599, 1041.98261848616, 1088.6987196181199, 1128.4585646209198, 1135.50409155924, 1162.87589504476, 1186.2717140299999, 1234.53288685896, 1241.50287695876, 1269.37597037264, 1285.33484425632, 1285.7125284489198, 1300.5726846814, 1328.01315802012, 1340.8956224804401, 1342.91451616452, 1343.99949984508, 1472.87221334552, 1484.7314969931601, 1486.79845957448, 1493.51437121744, 1517.5419528521197, 3027.37228118988, 3027.8598371476, 3028.0795806778397, 3039.1354270430397, 3039.76032270716, 3064.0831847106, 3066.3286889102396, 3077.8514902772, 3080.41974278688, 3084.8970172155196, 3085.2334994962002, 3090.71335378156]

>  <ZPE_kJmol>  (1) 
462.7371032824111

>  <E_elec_kJmol>  (1) 
-719356.3177363885

>  <E0_minus_Eelec_plus_ZPE_kJmol>  (1) 
0.0

>  <rxn>  (1) 
rxn_487

>  <species_type>  (1) 
r1

>  <species_folder>  (1) 
rxn_487_C1CC2CCC1C2

>  <frequencies_cm1_list>  (1) 
[154.85738595131997, 340.37586135643994, 406.75900844488, 450.69398052224, 546.52276066284, 762.7915963309199, 767.83883054112, 803.5128192785198, 822.9257867781599, 828.1927645185999, 886.4866029000799, 904.4231685559199, 936.7804033837599, 957.0723450043599, 964.2964135609999, 966.8990009972799, 969.81060277296, 1009.5017779225599, 1041.98261848616, 1088.6987196181199, 1128.4585646209198, 1135.50409155924, 1162.87589504476, 1186.2717140299999, 1234.53288685896, 1241.50287695876, 1269.37597037264, 1285.33484425632, 1285.7125284489198, 1300.5726846814, 1328.01315802012, 1340.8956224804401, 1342.91451616452, 1343.99949984508, 1472.87221334552, 1484.7314969931601, 1486.79845957448, 1493.51437121744, 1517.5419528521197, 3027.37228118988, 3027.8598371476, 3028.0795806778397, 3039.1354270430397, 3039.76032270716, 3064.0831847106, 3066.3286889102396, 3077.8514902772, 3080.41974278688, 3084.8970172155196, 3085.2334994962002, 3090.71335378156]

>  <E0_kJmol>  (1) 
-718894

>  <H298_kJmol>  (1) 
-718876

$$$$

     RDKit          3D

 11 10  0  0  0  0  0  0  0  0999 V2000
   -0.8335   -0.7659    0.6409 C   0  0  0  0  0  0  0  0  0  1  0  0
   -0.1131   -0.1243   -0.5170 C   0  0  0  0  0  0  0  0  0  2  0  0
    0.9603    0.8660   -0.1460 C   0  0  0  0  0  0  0  0  0  3  0  0
   -1.2783   -0.0096    1.2932 H   0  0  0  0  0  0  0  0  0  4  0  0
   -1.6334   -1.4256    0.2996 H   0  0  0  0  0  0  0  0  0  5  0  0
   -0.1509   -1.3641    1.2555 H   0  0  0  0  0  0  0  0  0  6  0  0
    0.2204   -0.8491   -1.2609 H   0  0  0  0  0  0  0  0  0  7  0  0
    1.7656    0.3872    0.4238 H   0  0  0  0  0  0  0  0  0  8  0  0
    1.4101    1.3230   -1.0292 H   0  0  0  0  0  0  0  0  0  9  0  0
    0.5574    1.6676    0.4793 H   0  0  0  0  0  0  0  0  0 10  0  0
   -0.8745    0.4293   -1.0682 H   0  0  0  0  0  0  0  0  0 11  0  0
  1  5  1  0
  1  4  1  0
  1  6  1  0
  1  2  1  0
  2  7  1  0
  2 11  1  0
  2  3  1  0
  3  9  1  0
  3 10  1  0
  3  8  1  0
M  END
>  <rmg_smiles>  (2) 
CCC

>  <rmg_adjacency_list>  (2) 
1  C u0 p0 c0 {2,S} {4,S} {5,S} {6,S}
2  C u0 p0 c0 {1,S} {3,S} {7,S} {11,S}
3  C u0 p0 c0 {2,S} {8,S} {9,S} {10,S}
4  H u0 p0 c0 {1,S}
5  H u0 p0 c0 {1,S}
6  H u0 p0 c0 {1,S}
7  H u0 p0 c0 {2,S}
8  H u0 p0 c0 {3,S}
9  H u0 p0 c0 {3,S}
10 H u0 p0 c0 {3,S}
11 H u0 p0 c0 {2,S}


>  <multiplicity>  (2) 
1

>  <reaction>  (2) 
rxn_487

>  <type>  (2) 
r2h

>  <role_mapnums>  (2) 
{"r2h_a": 2, "r2h_h": 11}

>  <role_mapidx>  (2) 
{"r2h_a": 1, "r2h_h": 10}

>  <ordered_mapped_smiles>  (2) 
[C:1]([C:2]([C:3]([H:8])([H:9])[H:10])([H:7])[H:11])([H:4])([H:5])[H:6]

>  <mol_properties>  (2) 
{"1": {"label": "acceptor", "atom_type": "Cs"}, "10": {"label": "a_hydrogen", "atom_type": "H0"}}

>  <level_of_theory>  (2) 
wb97xd/def2tzvp

>  <lot_method>  (2) 
wb97xd

>  <lot_basis>  (2) 
def2tzvp

>  <spin_multiplicity>  (2) 
1.0

>  <optical_isomers>  (2) 
1.0

>  <modes>  (2) 
IdealGasTranslation(mass=(44.0626, 'amu')),         NonlinearRotor(             inertia = ([17.0625, 59.5808, 67.2958

>  <frequency_value>  (2) 
unknown

>  <frequency_units>  (2) 
unknown

>  <frequency_list>  (2) 
unknown

>  <arkane_path>  (2) 
/home/calvin/Dropbox/PersonalFolders/Calvin/HAb_Converged/rxn_487/output/Species/rxn_487_CCC/arkane/output.py

>  <path_exists>  (2) 
True

>  <E0_value>  (2) 
-312559.7664121831

>  <E0_units>  (2) 
kJ/mol

>  <thermo_class>  (2) 
NASA

>  <Cp0_value>  (2) 
33.257888

>  <Cp0_units>  (2) 
J/(mol*K)

>  <CpInf_value>  (2) 
257.748632

>  <CpInf_units>  (2) 
J/(mol*K)

>  <Tmin_value>  (2) 
10.0

>  <Tmin_units>  (2) 
K

>  <Tmax_value>  (2) 
3000.0

>  <Tmax_units>  (2) 
K

>  <polynomials>  (2) 
[{"name": "polynomial1", "class": "NASAPolynomial", "Tmin_value": 10.0, "Tmin_units": "K", "Tmax_value": 577.4310568776192, "Tmax_units": "K", "coeffs": [3.9747269033817734, 0.0011347804367172543, 7.533889062875609e-05, -1.0470498139729524e-07, 4.699078499553375e-11, -37592254.8773633, 6.773591698117238]}, {"name": "polynomial2", "class": "NASAPolynomial", "Tmin_value": 577.4310568776192, "Tmin_units": "K", "Tmax_value": 3000.0, "Tmax_units": "K", "coeffs": [-1.3041055241664254, 0.03770227026025092, -1.9652378532074013e-05, 4.9654907444475164e-09, -4.909963524622396e-13, -37591645.24138486, 29.34198158192454]}]

>  <H298_value>  (2) 
-74700.16503809701

>  <H298_units>  (2) 
kcal/mol

>  <S298_value>  (2) 
64.12787959081382

>  <S298_units>  (2) 
cal/(mol*K)

>  <Cp_T_value_list>  (2) 
[17.187849905588877, 21.82888089347945, 26.282080105357306, 30.30750880664003, 37.00458219733553, 42.16907955247373, 50.28489012355217, 54.3677942411287, 56.31048938168173]

>  <Cp_T_units>  (2) 
cal/(mol*K)

>  <T_list>  (2) 
[300.0, 400.0, 500.0, 600.0, 800.0, 1000.0, 1500.0, 2000.0, 2400.0]

>  <T_units>  (2) 
K

>  <yaml_path>  (2) 
/home/calvin/Dropbox/PersonalFolders/Calvin/HAb_Converged/rxn_487/output/Species/rxn_487_CCC/rxn_487_CCC.yml

>  <frequencies_cm1>  (2) 
[219.27657523823999, 274.69314677064, 369.88329727648, 749.53831466332, 878.21188558948, 908.3991530561998, 929.9271520343999, 1065.0968910732797, 1172.11199030016, 1205.9799618984, 1309.06714552224, 1359.46395078572, 1398.3379546822398, 1410.31397708032, 1476.4087107853202, 1480.39842925624, 1483.440503753, 1494.09119798432, 1498.5410044716796, 3005.39792816588, 3007.40308787932, 3010.35589156692, 3037.8787687294803, 3071.65746951856, 3081.94421352792, 3083.3450785332, 3086.08500567588]

>  <ZPE_kJmol>  (2) 
269.5620865819488

>  <E_elec_kJmol>  (2) 
-312829.32849876507

>  <E0_minus_Eelec_plus_ZPE_kJmol>  (2) 
0.0

>  <rxn>  (2) 
rxn_487

>  <species_type>  (2) 
p0

>  <species_folder>  (2) 
rxn_487_CCC

>  <frequencies_cm1_list>  (2) 
[219.27657523823999, 274.69314677064, 369.88329727648, 749.53831466332, 878.21188558948, 908.3991530561998, 929.9271520343999, 1065.0968910732797, 1172.11199030016, 1205.9799618984, 1309.06714552224, 1359.46395078572, 1398.3379546822398, 1410.31397708032, 1476.4087107853202, 1480.39842925624, 1483.440503753, 1494.09119798432, 1498.5410044716796, 3005.39792816588, 3007.40308787932, 3010.35589156692, 3037.8787687294803, 3071.65746951856, 3081.94421352792, 3083.3450785332, 3086.08500567588]

>  <E0_kJmol>  (2) 
-312560

>  <H298_kJmol>  (2) 
-312545

$$$$

     RDKit          3D

 29 29  0  0  0  0  0  0  0  0999 V2000
    1.1481   -2.4767    1.5275 C   0  0  0  0  0  0  0  0  0  1  0  0
    1.8686   -1.8351    0.3696 C   0  0  0  0  0  3  0  0  0  2  0  0
    2.9419   -0.8448    0.7406 C   0  0  0  0  0  0  0  0  0  3  0  0
    0.7034   -1.7203    2.1798 H   0  0  0  0  0  0  0  0  0  4  0  0
    0.3483   -3.1364    1.1862 H   0  0  0  0  0  0  0  0  0  5  0  0
    1.8308   -3.0748    2.1421 H   0  0  0  0  0  0  0  0  0  6  0  0
    2.2021   -2.5598   -0.3743 H   0  0  0  0  0  0  0  0  0  7  0  0
    3.7473   -1.3235    1.3104 H   0  0  0  0  0  0  0  0  0  8  0  0
    3.3917   -0.3877   -0.1426 H   0  0  0  0  0  0  0  0  0  9  0  0
    2.5391   -0.0431    1.3659 H   0  0  0  0  0  0  0  0  0 10  0  0
   -0.0431   -0.4515   -0.9288 C   0  0  0  0  0  0  0  0  0 11  0  0
    0.4487    0.9836   -1.1446 C   0  0  0  0  0  0  0  0  0 12  0  0
   -0.5005    1.7982   -0.2484 C   0  0  0  0  0  0  0  0  0 13  0  0
   -1.8971    1.7948   -0.8919 C   0  0  0  0  0  0  0  0  0 14  0  0
   -2.3809    0.3329   -0.6837 C   0  0  0  0  0  0  0  0  0 15  0  0
   -1.1950   -0.3212    0.0537 C   0  0  0  0  0  0  0  0  0 16  0  0
   -0.7073    0.8396    0.9321 C   0  0  0  0  0  0  0  0  0 17  0  0
    0.9278   -1.1510   -0.3114 H   0  0  0  0  0  0  0  0  0 18  0  0
   -0.2443   -1.0400   -1.8230 H   0  0  0  0  0  0  0  0  0 19  0  0
    1.4864    1.1050   -0.8200 H   0  0  0  0  0  0  0  0  0 20  0  0
    0.4001    1.2972   -2.1897 H   0  0  0  0  0  0  0  0  0 21  0  0
   -0.1306    2.7923   -0.0009 H   0  0  0  0  0  0  0  0  0 22  0  0
   -1.8600    2.0801   -1.9443 H   0  0  0  0  0  0  0  0  0 23  0  0
   -2.5565    2.5013   -0.3852 H   0  0  0  0  0  0  0  0  0 24  0  0
   -2.6050   -0.1755   -1.6223 H   0  0  0  0  0  0  0  0  0 25  0  0
   -3.2828    0.2990   -0.0688 H   0  0  0  0  0  0  0  0  0 26  0  0
   -1.4531   -1.2447    0.5705 H   0  0  0  0  0  0  0  0  0 27  0  0
    0.2156    0.6127    1.4689 H   0  0  0  0  0  0  0  0  0 28  0  0
   -1.4594    1.1880    1.6427 H   0  0  0  0  0  0  0  0  0 29  0  0
  1  4  1  0
  1  5  1  0
  1  6  1  0
  1  2  1  0
  2  3  1  0
  2  7  1  0
  3  8  1  0
  3  9  1  0
  3 10  1  0
 11 16  1  0
 11 19  1  0
 11 12  1  0
 11 18  1  0
 12 20  1  0
 12 21  1  0
 12 13  1  0
 13 17  1  0
 13 14  1  0
 13 22  1  0
 14 15  1  0
 14 24  1  0
 14 23  1  0
 15 25  1  0
 15 16  1  0
 15 26  1  0
 16 17  1  0
 16 27  1  0
 17 28  1  0
 17 29  1  0
M  RAD  1   2   2
M  END
>  <rmg_smiles>  (3) 
C1CC2CCC1C2.C[CH]C

>  <rmg_adjacency_list>  (3) 
multiplicity 2
1  C u0 p0 c0 {3,S} {5,S} {6,S} {11,S}
2  C u0 p0 c0 {3,S} {4,S} {7,S} {12,S}
3  C u0 p0 c0 {1,S} {2,S} {21,S} {22,S}
4  C u0 p0 c0 {2,S} {5,S} {13,S} {14,S}
5  C u0 p0 c0 {1,S} {4,S} {15,S} {16,S}
6  C u0 p0 c0 {1,S} {7,S} {17,S} {18,S}
7  C u0 p0 c0 {2,S} {6,S} {19,S} {20,S}
8  C u0 p0 c0 {10,S} {23,S} {24,S} {25,S}
9  C u0 p0 c0 {10,S} {26,S} {27,S} {28,S}
10 C u1 p0 c0 {8,S} {9,S} {29,S}
11 H u0 p0 c0 {1,S}
12 H u0 p0 c0 {2,S}
13 H u0 p0 c0 {4,S}
14 H u0 p0 c0 {4,S}
15 H u0 p0 c0 {5,S}
16 H u0 p0 c0 {5,S}
17 H u0 p0 c0 {6,S}
18 H u0 p0 c0 {6,S}
19 H u0 p0 c0 {7,S}
20 H u0 p0 c0 {7,S}
21 H u0 p0 c0 {3,S}
22 H u0 p0 c0 {3,S}
23 H u0 p0 c0 {8,S}
24 H u0 p0 c0 {8,S}
25 H u0 p0 c0 {8,S}
26 H u0 p0 c0 {9,S}
27 H u0 p0 c0 {9,S}
28 H u0 p0 c0 {9,S}
29 H u0 p0 c0 {10,S}


>  <multiplicity>  (3) 
2

>  <reaction>  (3) 
rxn_487

>  <type>  (3) 
ts

>  <role_mapnums>  (3) 
{"*2": 18, "*1": 11, "*3": 2, "*0": 12, "*4": 1}

>  <role_mapidx>  (3) 
{"*2": 17, "*1": 10, "*3": 1, "*0": 11, "*4": 0}

>  <ordered_mapped_smiles>  (3) 
[C:1]([C:2]([C:3]([H:8])([H:9])[H:10])[H:7])([H:4])([H:5])[H:6].[C:11]1([H:18])([H:19])[C:12]([H:20])([H:21])[C:13]2([H:22])[C:14]([H:23])([H:24])[C:15]([H:25])([H:26])[C:16]1([H:27])[C:17]2([H:28])[H:29]

>  <mol_properties>  (3) 
{"0": {"label": "*4", "atom_type": "Cs"}, "1": {"label": "*3", "atom_type": "Cs"}, "10": {"label": "*1", "atom_type": "Cs"}, "11": {"label": "*0", "atom_type": "Cs"}, "17": {"label": "*2", "atom_type": "H0"}}

>  <level_of_theory>  (3) 
wb97xd/def2tzvp

>  <lot_method>  (3) 
wb97xd

>  <lot_basis>  (3) 
def2tzvp

>  <spin_multiplicity>  (3) 
2.0

>  <optical_isomers>  (3) 
2.0

>  <modes>  (3) 
IdealGasTranslation(mass=(139.149, 'amu')),         NonlinearRotor(             inertia = ([209.566, 645.959, 714.731

>  <frequency_value>  (3) 
-1740.18

>  <frequency_units>  (3) 
cm^-1

>  <frequency_list>  (3) 
unknown

>  <arkane_path>  (3) 
/home/calvin/Dropbox/PersonalFolders/Calvin/HAb_Converged/rxn_487/output/rxns/TS0/arkane/output.py

>  <path_exists>  (3) 
True

>  <E0_value>  (3) 
-1029680.0

>  <E0_units>  (3) 
kJ/mol

>  <thermo_class>  (3) 
unknown

>  <Cp0_value>  (3) 
unknown

>  <Cp0_units>  (3) 
unknown

>  <CpInf_value>  (3) 
unknown

>  <CpInf_units>  (3) 
unknown

>  <Tmin_value>  (3) 
unknown

>  <Tmin_units>  (3) 
unknown

>  <Tmax_value>  (3) 
unknown

>  <Tmax_units>  (3) 
unknown

>  <polynomials>  (3) 
unknown

>  <H298_value>  (3) 
unknown

>  <H298_units>  (3) 
unknown

>  <S298_value>  (3) 
unknown

>  <S298_units>  (3) 
unknown

>  <Cp_T_value_list>  (3) 
unknown

>  <Cp_T_units>  (3) 
unknown

>  <T_list>  (3) 
unknown

>  <T_units>  (3) 
unknown

>  <yaml_path>  (3) 
unknown

>  <frequencies_cm1>  (3) 
unknown

>  <ZPE_kJmol>  (3) 
unknown

>  <E_elec_kJmol>  (3) 
unknown

>  <E0_minus_Eelec_plus_ZPE_kJmol>  (3) 
unknown

>  <rxn>  (3) 
unknown

>  <species_type>  (3) 
unknown

>  <species_folder>  (3) 
unknown

>  <frequencies_cm1_list>  (3) 
[]

>  <ts_imag_freq_cm1>  (3) 
-1761.3198

>  <ts_freq_out_path>  (3) 
/home/calvin/Dropbox/PersonalFolders/Calvin/HAb_Converged/rxn_487/output/rxns/TS0/geometry/freq.out

>  <E0_kJmol>  (3) 
-1.02968e+06

>  <H298_kJmol>  (3) 
unknown

$$$$

     RDKit          3D

 18 19  0  0  0  0  0  0  0  0999 V2000
    1.0085    0.0884    1.2095 C   0  0  0  0  0  3  0  0  0  1  0  0
    1.2139    1.0410    0.0690 C   0  0  0  0  0  0  0  0  0  2  0  0
    0.2881    0.4324   -1.0019 C   0  0  0  0  0  0  0  0  0  3  0  0
   -1.1714    0.6323   -0.5516 C   0  0  0  0  0  0  0  0  0  4  0  0
   -1.3278   -0.3670    0.6275 C   0  0  0  0  0  0  0  0  0  5  0  0
    0.0899   -0.9908    0.7354 C   0  0  0  0  0  0  0  0  0  6  0  0
    0.4790   -1.0703   -0.7525 C   0  0  0  0  0  0  0  0  0  7  0  0
    1.2161    0.3102    2.2471 H   0  0  0  0  0  0  0  0  0  8  0  0
    2.2567    1.0516   -0.2755 H   0  0  0  0  0  0  0  0  0  9  0  0
    0.9543    2.0764    0.3130 H   0  0  0  0  0  0  0  0  0 10  0  0
    0.4908    0.7813   -2.0131 H   0  0  0  0  0  0  0  0  0 11  0  0
   -1.8596    0.3913   -1.3630 H   0  0  0  0  0  0  0  0  0 12  0  0
   -1.3656    1.6639   -0.2546 H   0  0  0  0  0  0  0  0  0 13  0  0
   -1.6314    0.1167    1.5558 H   0  0  0  0  0  0  0  0  0 14  0  0
   -2.0651   -1.1401    0.3991 H   0  0  0  0  0  0  0  0  0 15  0  0
    0.1199   -1.9185    1.3041 H   0  0  0  0  0  0  0  0  0 16  0  0
   -0.2009   -1.6913   -1.3392 H   0  0  0  0  0  0  0  0  0 17  0  0
    1.5046   -1.4076   -0.9091 H   0  0  0  0  0  0  0  0  0 18  0  0
  1  8  1  0
  1  6  1  0
  1  2  1  0
  2  3  1  0
  2 10  1  0
  2  9  1  0
  3  4  1  0
  3 11  1  0
  3  7  1  0
  4 12  1  0
  4  5  1  0
  4 13  1  0
  5 14  1  0
  5 15  1  0
  5  6  1  0
  6  7  1  0
  6 16  1  0
  7 17  1  0
  7 18  1  0
M  RAD  1   1   2
M  END
>  <rmg_smiles>  (4) 
[CH]1CC2CCC1C2

>  <rmg_adjacency_list>  (4) 
multiplicity 2
1  C u0 p0 c0 {3,S} {4,S} {6,S} {8,S}
2  C u0 p0 c0 {3,S} {5,S} {7,S} {9,S}
3  C u0 p0 c0 {1,S} {2,S} {14,S} {15,S}
4  C u0 p0 c0 {1,S} {5,S} {10,S} {11,S}
5  C u0 p0 c0 {2,S} {4,S} {12,S} {13,S}
6  C u0 p0 c0 {1,S} {7,S} {16,S} {17,S}
7  C u1 p0 c0 {2,S} {6,S} {18,S}
8  H u0 p0 c0 {1,S}
9  H u0 p0 c0 {2,S}
10 H u0 p0 c0 {4,S}
11 H u0 p0 c0 {4,S}
12 H u0 p0 c0 {5,S}
13 H u0 p0 c0 {5,S}
14 H u0 p0 c0 {3,S}
15 H u0 p0 c0 {3,S}
16 H u0 p0 c0 {6,S}
17 H u0 p0 c0 {6,S}
18 H u0 p0 c0 {7,S}


>  <multiplicity>  (4) 
2

>  <reaction>  (4) 
rxn_487

>  <type>  (4) 
r1

>  <role_mapnums>  (4) 
{}

>  <role_mapidx>  (4) 
{}

>  <ordered_mapped_smiles>  (4) 
[C:1]1([H:8])[C:2]([H:9])([H:10])[C:3]2([H:11])[C:4]([H:12])([H:13])[C:5]([H:14])([H:15])[C:6]1([H:16])[C:7]2([H:17])[H:18]

>  <level_of_theory>  (4) 
wb97xd/def2tzvp

>  <lot_method>  (4) 
wb97xd

>  <lot_basis>  (4) 
def2tzvp

>  <spin_multiplicity>  (4) 
2.0

>  <optical_isomers>  (4) 
2.0

>  <modes>  (4) 
IdealGasTranslation(mass=(95.0861, 'amu')),         NonlinearRotor(             inertia = ([132.076, 151.536, 174.491

>  <frequency_value>  (4) 
unknown

>  <frequency_units>  (4) 
unknown

>  <frequency_list>  (4) 
unknown

>  <arkane_path>  (4) 
/home/calvin/Dropbox/PersonalFolders/Calvin/HAb_Converged/rxn_487/output/Species/rxn_487_[CH]1CC2CCC1C2/arkane/output.py

>  <path_exists>  (4) 
True

>  <E0_value>  (4) 
-717174.6605343558

>  <E0_units>  (4) 
kJ/mol

>  <thermo_class>  (4) 
NASA

>  <Cp0_value>  (4) 
33.257888

>  <Cp0_units>  (4) 
J/(mol*K)

>  <CpInf_value>  (4) 
432.352544

>  <CpInf_units>  (4) 
J/(mol*K)

>  <Tmin_value>  (4) 
10.0

>  <Tmin_units>  (4) 
K

>  <Tmax_value>  (4) 
3000.0

>  <Tmax_units>  (4) 
K

>  <polynomials>  (4) 
[{"name": "polynomial1", "class": "NASAPolynomial", "Tmin_value": 10.0, "Tmin_units": "K", "Tmax_value": 627.8575921144865, "Tmax_units": "K", "coeffs": [4.196860558820338, -0.016171105268722473, 0.00026078071603870495, -4.023045641305321e-07, 1.994526736098869e-10, -86256187.80409713, 11.805109187536795]}, {"name": "polynomial2", "class": "NASAPolynomial", "Tmin_value": 627.8575921144865, "Tmin_units": "K", "Tmax_value": 3000.0, "Tmax_units": "K", "coeffs": [-5.155123360865168, 0.0782768443570585, -4.816421106910532e-05, 1.418738663471415e-08, -1.605060631155765e-12, -86255700.7118907, 47.097238820075255]}]

>  <H298_value>  (4) 
-171404.61720790953

>  <H298_units>  (4) 
kcal/mol

>  <S298_value>  (4) 
78.13622956239406

>  <S298_units>  (4) 
cal/(mol*K)

>  <Cp_T_value_list>  (4) 
[26.964676953533466, 37.382989594264686, 46.66797183764434, 54.30346962845638, 66.07017706139216, 74.59940600620303, 86.73655345511231, 92.52402479168427, 95.69953412861575]

>  <Cp_T_units>  (4) 
cal/(mol*K)

>  <T_list>  (4) 
[300.0, 400.0, 500.0, 600.0, 800.0, 1000.0, 1500.0, 2000.0, 2400.0]

>  <T_units>  (4) 
K

>  <yaml_path>  (4) 
/home/calvin/Dropbox/PersonalFolders/Calvin/HAb_Converged/rxn_487/output/Species/rxn_487_[CH]1CC2CCC1C2/rxn_487_CH1CC2CCC1C2.yml

>  <frequencies_cm1>  (4) 
[193.92366543679998, 286.69663711, 376.72968164051997, 444.80210711767995, 471.88549721975994, 575.8310540086, 765.9023406808799, 775.8320014535999, 815.4819746912799, 831.9284045326799, 874.91573263588, 910.4386476962399, 914.8815871982799, 937.18555551764, 949.47059225512, 959.71613435256, 965.2715254764399, 1010.9919137369999, 1035.07443125424, 1037.4504081749599, 1108.18035697096, 1132.1530027230801, 1143.67580409004, 1182.37126636824, 1216.39031164352, 1247.2505436715999, 1266.38883175844, 1275.3365136304, 1286.14514852408, 1310.02165648172, 1334.4475232649597, 1339.6389641668798, 1349.2252756736, 1458.5751499092798, 1478.1460580712799, 1483.955527652, 1507.2689428133997, 2964.07241051012, 3015.2863870266797, 3024.7216248563595, 3032.1173680459997, 3039.44444138244, 3070.4488801022394, 3085.21976552556, 3086.5588276629596, 3090.45927532472, 3091.9356771685193, 3183.2528479538796]

>  <ZPE_kJmol>  (4) 
424.2981940261813

>  <E_elec_kJmol>  (4) 
-717598.958728382

>  <E0_minus_Eelec_plus_ZPE_kJmol>  (4) 
0.0

>  <rxn>  (4) 
rxn_487

>  <species_type>  (4) 
p1

>  <species_folder>  (4) 
rxn_487_[CH]1CC2CCC1C2

>  <frequencies_cm1_list>  (4) 
[193.92366543679998, 286.69663711, 376.72968164051997, 444.80210711767995, 471.88549721975994, 575.8310540086, 765.9023406808799, 775.8320014535999, 815.4819746912799, 831.9284045326799, 874.91573263588, 910.4386476962399, 914.8815871982799, 937.18555551764, 949.47059225512, 959.71613435256, 965.2715254764399, 1010.9919137369999, 1035.07443125424, 1037.4504081749599, 1108.18035697096, 1132.1530027230801, 1143.67580409004, 1182.37126636824, 1216.39031164352, 1247.2505436715999, 1266.38883175844, 1275.3365136304, 1286.14514852408, 1310.02165648172, 1334.4475232649597, 1339.6389641668798, 1349.2252756736, 1458.5751499092798, 1478.1460580712799, 1483.955527652, 1507.2689428133997, 2964.07241051012, 3015.2863870266797, 3024.7216248563595, 3032.1173680459997, 3039.44444138244, 3070.4488801022394, 3085.21976552556, 3086.5588276629596, 3090.45927532472, 3091.9356771685193, 3183.2528479538796]

>  <E0_kJmol>  (4) 
-717175

>  <H298_kJmol>  (4) 
-717157

$$$$

     RDKit          3D

 10  9  0  0  0  0  0  0  0  0999 V2000
    1.2930    0.1441    0.3288 C   0  0  0  0  0  0  0  0  0  1  0  0
   -0.0374   -0.1647    0.9100 C   0  0  0  0  0  3  0  0  0  2  0  0
   -1.2664    0.4569    0.3567 C   0  0  0  0  0  0  0  0  0  3  0  0
    1.4384    1.2242    0.2174 H   0  0  0  0  0  0  0  0  0  4  0  0
    2.1077   -0.2477    0.9385 H   0  0  0  0  0  0  0  0  0  5  0  0
    1.4057   -0.2836   -0.6789 H   0  0  0  0  0  0  0  0  0  6  0  0
   -0.1309   -0.9912    1.6030 H   0  0  0  0  0  0  0  0  0  7  0  0
   -1.5005    0.0716   -0.6471 H   0  0  0  0  0  0  0  0  0  8  0  0
   -2.1382    0.2713    0.9849 H   0  0  0  0  0  0  0  0  0  9  0  0
   -1.1497    1.5406    0.2456 H   0  0  0  0  0  0  0  0  0 10  0  0
  1  5  1  0
  1  4  1  0
  1  6  1  0
  1  2  1  0
  2  7  1  0
  2  3  1  0
  3  9  1  0
  3 10  1  0
  3  8  1  0
M  RAD  1   2   2
M  END
>  <rmg_smiles>  (5) 
C[CH]C

>  <rmg_adjacency_list>  (5) 
multiplicity 2
1  C u0 p0 c0 {3,S} {4,S} {5,S} {6,S}
2  C u0 p0 c0 {3,S} {7,S} {8,S} {9,S}
3  C u1 p0 c0 {1,S} {2,S} {10,S}
4  H u0 p0 c0 {1,S}
5  H u0 p0 c0 {1,S}
6  H u0 p0 c0 {1,S}
7  H u0 p0 c0 {2,S}
8  H u0 p0 c0 {2,S}
9  H u0 p0 c0 {2,S}
10 H u0 p0 c0 {3,S}


>  <multiplicity>  (5) 
2

>  <reaction>  (5) 
rxn_487

>  <type>  (5) 
r2

>  <role_mapnums>  (5) 
{}

>  <role_mapidx>  (5) 
{}

>  <ordered_mapped_smiles>  (5) 
[C:1]([C:2]([C:3]([H:8])([H:9])[H:10])[H:7])([H:4])([H:5])[H:6]

>  <level_of_theory>  (5) 
wb97xd/def2tzvp

>  <lot_method>  (5) 
wb97xd

>  <lot_basis>  (5) 
def2tzvp

>  <spin_multiplicity>  (5) 
2.0

>  <optical_isomers>  (5) 
1.0

>  <modes>  (5) 
IdealGasTranslation(mass=(43.0548, 'amu')),         NonlinearRotor(             inertia = ([13.4945, 59.9891, 67.2321

>  <frequency_value>  (5) 
unknown

>  <frequency_units>  (5) 
unknown

>  <frequency_list>  (5) 
unknown

>  <arkane_path>  (5) 
/home/calvin/Dropbox/PersonalFolders/Calvin/HAb_Converged/rxn_487/output/Species/rxn_487_C[CH]C/arkane/output.py

>  <path_exists>  (5) 
True

>  <E0_value>  (5) 
-310845.2184059608

>  <E0_units>  (5) 
kJ/mol

>  <thermo_class>  (5) 
NASA

>  <Cp0_value>  (5) 
33.257888

>  <Cp0_units>  (5) 
J/(mol*K)

>  <CpInf_value>  (5) 
232.805216

>  <CpInf_units>  (5) 
J/(mol*K)

>  <Tmin_value>  (5) 
10.0

>  <Tmin_units>  (5) 
K

>  <Tmax_value>  (5) 
3000.0

>  <Tmax_units>  (5) 
K

>  <polynomials>  (5) 
[{"name": "polynomial1", "class": "NASAPolynomial", "Tmin_value": 10.0, "Tmin_units": "K", "Tmax_value": 447.8128792552529, "Tmax_units": "K", "coeffs": [3.752012635379411, 0.026641862649172638, -7.746058003612534e-05, 2.1389576411497674e-07, -1.844633782932518e-10, -37386043.96321184, 8.05688024181999]}, {"name": "polynomial2", "class": "NASAPolynomial", "Tmin_value": 447.8128792552529, "Tmin_units": "K", "Tmax_value": 3000.0, "Tmax_units": "K", "coeffs": [0.3456331898922003, 0.0329396549778818, -1.7732866616299737e-05, 4.6556958792141865e-09, -4.78902486015414e-13, -37385496.94179907, 24.455396824893292]}]

>  <H298_value>  (5) 
-74289.9090718394

>  <H298_units>  (5) 
kcal/mol

>  <S298_value>  (5) 
70.4573159165227

>  <S298_units>  (5) 
cal/(mol*K)

>  <Cp_T_value_list>  (5) 
[17.99246870913784, 21.823762730245537, 25.70307457878351, 29.150647616604275, 34.84741547055869, 39.20602419681299, 45.99328941377369, 49.43494906715023, 51.132806782188474]

>  <Cp_T_units>  (5) 
cal/(mol*K)

>  <T_list>  (5) 
[300.0, 400.0, 500.0, 600.0, 800.0, 1000.0, 1500.0, 2000.0, 2400.0]

>  <T_units>  (5) 
K

>  <yaml_path>  (5) 
/home/calvin/Dropbox/PersonalFolders/Calvin/HAb_Converged/rxn_487/output/Species/rxn_487_C[CH]C/rxn_487_CCHC.yml

>  <frequencies_cm1>  (5) 
[105.22281605836, 112.68722910119999, 345.60850417028, 388.99411742204, 888.91751570336, 934.4593623456, 940.8456586931999, 1017.3988110405598, 1144.8637925504, 1173.26564383392, 1356.01672415508, 1400.16457277736, 1405.7130969159198, 1454.7502390860398, 1462.58546933616, 1465.42840125864, 1476.53231652108, 2938.8637074004, 2942.7366871208797, 3008.0211165581195, 3008.4194017066793, 3085.04122390724, 3085.8858631016, 3161.75918390228]

>  <ZPE_kJmol>  (5) 
229.10994966023972

>  <E_elec_kJmol>  (5) 
-311074.328355621

>  <E0_minus_Eelec_plus_ZPE_kJmol>  (5) 
0.0

>  <rxn>  (5) 
rxn_487

>  <species_type>  (5) 
r0

>  <species_folder>  (5) 
rxn_487_C[CH]C

>  <frequencies_cm1_list>  (5) 
[105.22281605836, 112.68722910119999, 345.60850417028, 388.99411742204, 888.91751570336, 934.4593623456, 940.8456586931999, 1017.3988110405598, 1144.8637925504, 1173.26564383392, 1356.01672415508, 1400.16457277736, 1405.7130969159198, 1454.7502390860398, 1462.58546933616, 1465.42840125864, 1476.53231652108, 2938.8637074004, 2942.7366871208797, 3008.0211165581195, 3008.4194017066793, 3085.04122390724, 3085.8858631016, 3161.75918390228]

>  <E0_kJmol>  (5) 
-310845

>  <H298_kJmol>  (5) 
-310829

$$$$
