
     RDKit          3D

  7  6  0  0  0  0  0  0  0  0999 V2000
   -0.0764    0.8860    0.6831 N   0  0  0  0  0  0  0  0  0  1  0  0
    0.1046   -0.3433    0.2263 N   0  0  0  0  0  0  0  0  0  2  0  0
    0.0534   -0.6675   -0.9979 C   0  0  0  0  0  0  0  0  0  3  0  0
   -0.1387    0.8016    1.6994 H   0  0  0  0  0  0  0  0  0  4  0  0
   -0.9649    1.2716    0.3581 H   0  0  0  0  0  0  0  0  0  5  0  0
    0.2036   -1.7083   -1.2545 H   0  0  0  0  0  0  0  0  0  6  0  0
   -0.1118    0.0622   -1.7913 H   0  0  0  0  0  0  0  0  0  7  0  0
  1  5  1  0
  1  2  1  0
  1  4  1  0
  2  3  1  0
  3  6  1  0
  3  7  1  0
M  END
>  <rmg_smiles>  (1) 
[CH2][N]N

>  <rmg_adjacency_list>  (1) 
1 N u0 p1 c0 {2,S} {4,S} {5,S}
2 N u0 p1 c0 {1,S} {3,S}
3 C u0 p0 c0 {2,S} {6,S} {7,S}
4 H u0 p0 c0 {1,S}
5 H u0 p0 c0 {1,S}
6 H u0 p0 c0 {3,S}
7 H u0 p0 c0 {3,S}


>  <multiplicity>  (1) 
1

>  <reaction>  (1) 
rxn_723

>  <type>  (1) 
r1h

>  <role_mapnums>  (1) 
{"r1h_a": 1, "r1h_h": 4}

>  <role_mapidx>  (1) 
{"r1h_a": 0, "r1h_h": 3}

>  <ordered_mapped_smiles>  (1) 
[N:1]([NH:2][CH:3]([H:6])[H:7])([H:4])[H:5]

>  <mol_properties>  (1) 
{"0": {"label": "donator", "atom_type": "N3s"}, "3": {"label": "d_hydrogen", "atom_type": "H0"}}

>  <level_of_theory>  (1) 
wb97xd/def2tzvp

>  <lot_method>  (1) 
wb97xd

>  <lot_basis>  (1) 
def2tzvp

>  <spin_multiplicity>  (1) 
1.0

>  <optical_isomers>  (1) 
2.0

>  <modes>  (1) 
IdealGasTranslation(mass=(44.0374, 'amu')),         NonlinearRotor(             inertia = ([7.61299, 43.7943, 50.9227

>  <frequency_value>  (1) 
unknown

>  <frequency_units>  (1) 
unknown

>  <frequency_list>  (1) 
unknown

>  <arkane_path>  (1) 
/home/calvin/Dropbox/PersonalFolders/Calvin/HAb_Converged/rxn_723/output/Species/rxn_723_NN=C/arkane/output.py

>  <path_exists>  (1) 
True

>  <E0_value>  (1) 
-393600.8159653641

>  <E0_units>  (1) 
kJ/mol

>  <thermo_class>  (1) 
NASA

>  <Cp0_value>  (1) 
33.257888

>  <Cp0_units>  (1) 
J/(mol*K)

>  <CpInf_value>  (1) 
157.97496800000002

>  <CpInf_units>  (1) 
J/(mol*K)

>  <Tmin_value>  (1) 
10.0

>  <Tmin_units>  (1) 
K

>  <Tmax_value>  (1) 
3000.0

>  <Tmax_units>  (1) 
K

>  <polynomials>  (1) 
[{"name": "polynomial1", "class": "NASAPolynomial", "Tmin_value": 10.0, "Tmin_units": "K", "Tmax_value": 502.0556569549206, "Tmax_units": "K", "coeffs": [4.085040608621346, -0.008026048478553658, 0.000101737520963973, -1.818546584379073e-07, 1.086750406533025e-10, -47339243.257141165, 7.328544947644257]}, {"name": "polynomial2", "class": "NASAPolynomial", "Tmin_value": 502.0556569549206, "Tmin_units": "K", "Tmax_value": 3000.0, "Tmax_units": "K", "coeffs": [1.4029483372902305, 0.021804844693594633, -1.2670817533347091e-05, 3.6366266402442123e-09, -4.0783991480738574e-13, -47339080.591873914, 17.357909487520892]}]

>  <H298_value>  (1) 
-94069.96859020829

>  <H298_units>  (1) 
kcal/mol

>  <S298_value>  (1) 
62.27323171202578

>  <S298_units>  (1) 
cal/(mol*K)

>  <Cp_T_value_list>  (1) 
[13.520545661692251, 16.485879980604505, 19.011116430276495, 21.177691759717284, 24.70575103378575, 27.355412180109955, 31.41733986209593, 33.577713139956245, 34.760700450721984]

>  <Cp_T_units>  (1) 
cal/(mol*K)

>  <T_list>  (1) 
[300.0, 400.0, 500.0, 600.0, 800.0, 1000.0, 1500.0, 2000.0, 2400.0]

>  <T_units>  (1) 
K

>  <yaml_path>  (1) 
/home/calvin/Dropbox/PersonalFolders/Calvin/HAb_Converged/rxn_723/output/Species/rxn_723_NN=C/rxn_723_NN=C.yml

>  <frequencies_cm1>  (1) 
[428.21147058455995, 516.3766951080399, 646.1489836854, 789.2157558422799, 948.9074994588799, 1077.6703411941999, 1180.37984062544, 1308.8611359626398, 1469.1159723754797, 1651.3932307095597, 1706.35658121084, 3018.4383332885595, 3187.32497024864, 3455.2129345671597, 3630.4171980216397]

>  <ZPE_kJmol>  (1) 
149.61717369959624

>  <E_elec_kJmol>  (1) 
-393750.4331390637

>  <E0_minus_Eelec_plus_ZPE_kJmol>  (1) 
0.0

>  <rxn>  (1) 
rxn_723

>  <species_type>  (1) 
r1

>  <species_folder>  (1) 
rxn_723_NN=C

>  <frequencies_cm1_list>  (1) 
[428.21147058455995, 516.3766951080399, 646.1489836854, 789.2157558422799, 948.9074994588799, 1077.6703411941999, 1180.37984062544, 1308.8611359626398, 1469.1159723754797, 1651.3932307095597, 1706.35658121084, 3018.4383332885595, 3187.32497024864, 3455.2129345671597, 3630.4171980216397]

>  <E0_kJmol>  (1) 
-393601

>  <H298_kJmol>  (1) 
-393589

$$$$

     RDKit          3D

  4  3  0  0  0  0  0  0  0  0999 V2000
    0.1635    0.6626    0.0799 O   0  0  0  0  0  0  0  0  0  1  0  0
   -0.2282   -0.6535   -0.0107 O   0  0  0  0  0  0  0  0  0  2  0  0
    0.6039   -1.1371   -0.0899 H   0  0  0  0  0  0  0  0  0  3  0  0
    0.3769    0.9344   -0.8157 H   0  0  0  0  0  0  0  0  0  4  0  0
  1  2  1  0
  1  4  1  0
  2  3  1  0
M  END
>  <rmg_smiles>  (2) 
OO

>  <rmg_adjacency_list>  (2) 
1 O u0 p2 c0 {2,S} {4,S}
2 O u0 p2 c0 {1,S} {3,S}
3 H u0 p0 c0 {2,S}
4 H u0 p0 c0 {1,S}


>  <multiplicity>  (2) 
1

>  <reaction>  (2) 
rxn_723

>  <type>  (2) 
r2h

>  <role_mapnums>  (2) 
{"r2h_a": 1, "r2h_h": 4}

>  <role_mapidx>  (2) 
{"r2h_a": 0, "r2h_h": 3}

>  <ordered_mapped_smiles>  (2) 
[O:1]([O:2][H:3])[H:4]

>  <mol_properties>  (2) 
{"0": {"label": "acceptor", "atom_type": "O2s"}, "3": {"label": "a_hydrogen", "atom_type": "H0"}}

>  <level_of_theory>  (2) 
wb97xd/def2tzvp

>  <lot_method>  (2) 
wb97xd

>  <lot_basis>  (2) 
def2tzvp

>  <spin_multiplicity>  (2) 
1.0

>  <optical_isomers>  (2) 
2.0

>  <modes>  (2) 
IdealGasTranslation(mass=(34.0055, 'amu')),         NonlinearRotor(             inertia = ([1.6422, 18.4839, 19.1306

>  <frequency_value>  (2) 
unknown

>  <frequency_units>  (2) 
unknown

>  <frequency_list>  (2) 
unknown

>  <arkane_path>  (2) 
/home/calvin/Dropbox/PersonalFolders/Calvin/HAb_Converged/rxn_723/output/Species/rxn_723_OO/arkane/output.py

>  <path_exists>  (2) 
True

>  <E0_value>  (2) 
-397869.6784032715

>  <E0_units>  (2) 
kJ/mol

>  <thermo_class>  (2) 
NASA

>  <Cp0_value>  (2) 
33.257888

>  <Cp0_units>  (2) 
J/(mol*K)

>  <CpInf_value>  (2) 
83.14472

>  <CpInf_units>  (2) 
J/(mol*K)

>  <Tmin_value>  (2) 
10.0

>  <Tmin_units>  (2) 
K

>  <Tmax_value>  (2) 
3000.0

>  <Tmax_units>  (2) 
K

>  <polynomials>  (2) 
[{"name": "polynomial1", "class": "NASAPolynomial", "Tmin_value": 10.0, "Tmin_units": "K", "Tmax_value": 455.78106288096404, "Tmax_units": "K", "coeffs": [3.993411036033662, 0.00039597769380578143, 1.891318343950514e-05, -3.2458663273975925e-08, 1.830389461818306e-11, -47852668.906908266, 4.504010200645888]}, {"name": "polynomial2", "class": "NASAPolynomial", "Tmin_value": 455.78106288096404, "Tmin_units": "K", "Tmax_value": 3000.0, "Tmax_units": "K", "coeffs": [3.1932894099772424, 0.0074090928900088, -4.13817425256861e-06, 1.2156565940750795e-09, -1.433593106081876e-13, -47852595.87875142, 7.736455149271243]}]

>  <H298_value>  (2) 
-95090.51348489316

>  <H298_units>  (2) 
kcal/mol

>  <S298_value>  (2) 
55.5670496873013

>  <S298_units>  (2) 
cal/(mol*K)

>  <Cp_T_value_list>  (2) 
[10.107465812395086, 11.06702468787646, 11.935737360557455, 12.7042208397447, 13.981643941817545, 14.976592388023054, 16.639120825815006, 17.666826111390996, 18.25874653130484]

>  <Cp_T_units>  (2) 
cal/(mol*K)

>  <T_list>  (2) 
[300.0, 400.0, 500.0, 600.0, 800.0, 1000.0, 1500.0, 2000.0, 2400.0]

>  <T_units>  (2) 
K

>  <yaml_path>  (2) 
/home/calvin/Dropbox/PersonalFolders/Calvin/HAb_Converged/rxn_723/output/Species/rxn_723_OO/rxn_723_OO.yml

>  <frequencies_cm1>  (2) 
[384.68165064108, 1007.86056843108, 1337.5514006295998, 1458.46527814416, 3787.7329647175193, 3788.3509933963196]

>  <ZPE_kJmol>  (2) 
70.36821125363778

>  <E_elec_kJmol>  (2) 
-397940.04661452514

>  <E0_minus_Eelec_plus_ZPE_kJmol>  (2) 
0.0

>  <rxn>  (2) 
rxn_723

>  <species_type>  (2) 
p0

>  <species_folder>  (2) 
rxn_723_OO

>  <frequencies_cm1_list>  (2) 
[384.68165064108, 1007.86056843108, 1337.5514006295998, 1458.46527814416, 3787.7329647175193, 3788.3509933963196]

>  <E0_kJmol>  (2) 
-397870

>  <H298_kJmol>  (2) 
-397859

$$$$

     RDKit          3D

 10  8  0  0  0  0  0  0  0  0999 V2000
   -0.0927    0.6786    1.7620 O   0  0  0  0  0  0  0  0  0  1  0  0
   -0.4844   -0.6375    1.6713 O   0  0  0  0  0  0  0  0  0  2  0  0
    0.3477   -1.1210    1.5922 H   0  0  0  0  0  0  0  0  0  3  0  0
    0.2432    1.1127   -0.5768 N   0  0  0  0  0  2  0  0  0  4  0  0
    0.4242   -0.1166   -1.0336 N   0  0  0  0  0  0  0  0  0  5  0  0
    0.3730   -0.4408   -2.2578 C   0  0  0  0  0  0  0  0  0  6  0  0
    0.1666    1.0089    0.6737 H   0  0  0  0  0  0  0  0  0  7  0  0
   -0.6453    1.4983   -0.9018 H   0  0  0  0  0  0  0  0  0  8  0  0
    0.5232   -1.4815   -2.5144 H   0  0  0  0  0  0  0  0  0  9  0  0
    0.2078    0.2890   -3.0512 H   0  0  0  0  0  0  0  0  0 10  0  0
  1  2  1  0
  1  7  1  0
  2  3  1  0
  4  8  1  0
  4  5  1  0
  5  6  1  0
  6  9  1  0
  6 10  1  0
M  RAD  1   4   2
M  END
>  <rmg_smiles>  (3) 
[CH2][N][NH].OO

>  <rmg_adjacency_list>  (3) 
multiplicity 2
1  O u0 p2 c0 {2,S} {9,S}
2  O u0 p2 c0 {1,S} {8,S}
3  N u0 p1 c0 {4,S} {5,S}
4  N u1 p1 c0 {3,S} {10,S}
5  C u0 p0 c0 {3,S} {6,S} {7,S}
6  H u0 p0 c0 {5,S}
7  H u0 p0 c0 {5,S}
8  H u0 p0 c0 {2,S}
9  H u0 p0 c0 {1,S}
10 H u0 p0 c0 {4,S}


>  <multiplicity>  (3) 
2

>  <reaction>  (3) 
rxn_723

>  <type>  (3) 
ts

>  <role_mapnums>  (3) 
{"*2": 7, "*1": 4, "*3": 1, "*0": 2, "*4": 5}

>  <role_mapidx>  (3) 
{"*2": 6, "*1": 3, "*3": 0, "*0": 1, "*4": 4}

>  <ordered_mapped_smiles>  (3) 
[O:1]([O:2][H:3])[H:7].[N:4]([NH:5][CH:6]([H:9])[H:10])[H:8]

>  <mol_properties>  (3) 
{"0": {"label": "*3", "atom_type": "O2s"}, "1": {"label": "*0", "atom_type": "O2s"}, "3": {"label": "*1", "atom_type": "N3s"}, "4": {"label": "*4", "atom_type": "N3s"}, "6": {"label": "*2", "atom_type": "H0"}}

>  <level_of_theory>  (3) 
wb97xd/def2tzvp

>  <lot_method>  (3) 
wb97xd

>  <lot_basis>  (3) 
def2tzvp

>  <spin_multiplicity>  (3) 
2.0

>  <optical_isomers>  (3) 
2.0

>  <modes>  (3) 
IdealGasTranslation(mass=(77.0351, 'amu')),         NonlinearRotor(             inertia = ([42.3596, 204.026, 240.712

>  <frequency_value>  (3) 
-1966.69

>  <frequency_units>  (3) 
cm^-1

>  <frequency_list>  (3) 
unknown

>  <arkane_path>  (3) 
/home/calvin/Dropbox/PersonalFolders/Calvin/HAb_Converged/rxn_723/output/rxns/TS0/arkane/output.py

>  <path_exists>  (3) 
True

>  <E0_value>  (3) 
-789755.0

>  <E0_units>  (3) 
kJ/mol

>  <thermo_class>  (3) 
unknown

>  <Cp0_value>  (3) 
unknown

>  <Cp0_units>  (3) 
unknown

>  <CpInf_value>  (3) 
unknown

>  <CpInf_units>  (3) 
unknown

>  <Tmin_value>  (3) 
unknown

>  <Tmin_units>  (3) 
unknown

>  <Tmax_value>  (3) 
unknown

>  <Tmax_units>  (3) 
unknown

>  <polynomials>  (3) 
unknown

>  <H298_value>  (3) 
unknown

>  <H298_units>  (3) 
unknown

>  <S298_value>  (3) 
unknown

>  <S298_units>  (3) 
unknown

>  <Cp_T_value_list>  (3) 
unknown

>  <Cp_T_units>  (3) 
unknown

>  <T_list>  (3) 
unknown

>  <T_units>  (3) 
unknown

>  <yaml_path>  (3) 
unknown

>  <frequencies_cm1>  (3) 
unknown

>  <ZPE_kJmol>  (3) 
unknown

>  <E_elec_kJmol>  (3) 
unknown

>  <E0_minus_Eelec_plus_ZPE_kJmol>  (3) 
unknown

>  <rxn>  (3) 
unknown

>  <species_type>  (3) 
unknown

>  <species_folder>  (3) 
unknown

>  <frequencies_cm1_list>  (3) 
[]

>  <ts_imag_freq_cm1>  (3) 
-1990.5763

>  <ts_freq_out_path>  (3) 
/home/calvin/Dropbox/PersonalFolders/Calvin/HAb_Converged/rxn_723/output/rxns/TS0/geometry/freq.out

>  <E0_kJmol>  (3) 
-789755

>  <H298_kJmol>  (3) 
unknown

$$$$

     RDKit          3D

  6  5  0  0  0  0  0  0  0  0999 V2000
    1.2558   -0.4675   -0.6086 N   0  0  0  0  0  2  0  0  0  1  0  0
    0.2471   -0.3558    0.1829 N   0  0  0  0  0  0  0  0  0  2  0  0
   -0.8740    0.1951   -0.0484 C   0  0  0  0  0  0  0  0  0  3  0  0
    2.0947   -0.2181   -0.0805 H   0  0  0  0  0  0  0  0  0  4  0  0
   -1.6754    0.0384    0.6613 H   0  0  0  0  0  0  0  0  0  5  0  0
   -1.0304    0.8241   -0.9226 H   0  0  0  0  0  0  0  0  0  6  0  0
  1  2  1  0
  1  4  1  0
  2  3  1  0
  3  6  1  0
  3  5  1  0
M  RAD  1   1   2
M  END
>  <rmg_smiles>  (4) 
[CH2][N][NH]

>  <rmg_adjacency_list>  (4) 
multiplicity 2
1 N u0 p1 c0 {2,S} {3,S}
2 N u1 p1 c0 {1,S} {6,S}
3 C u0 p0 c0 {1,S} {4,S} {5,S}
4 H u0 p0 c0 {3,S}
5 H u0 p0 c0 {3,S}
6 H u0 p0 c0 {2,S}


>  <multiplicity>  (4) 
2

>  <reaction>  (4) 
rxn_723

>  <type>  (4) 
r1

>  <role_mapnums>  (4) 
{}

>  <role_mapidx>  (4) 
{}

>  <ordered_mapped_smiles>  (4) 
[N:1]([NH:2][CH:3]([H:5])[H:6])[H:4]

>  <level_of_theory>  (4) 
wb97xd/def2tzvp

>  <lot_method>  (4) 
wb97xd

>  <lot_basis>  (4) 
def2tzvp

>  <spin_multiplicity>  (4) 
2.0

>  <optical_isomers>  (4) 
2.0

>  <modes>  (4) 
IdealGasTranslation(mass=(43.0296, 'amu')),         NonlinearRotor(             inertia = ([5.19225, 43.658, 47.8424

>  <frequency_value>  (4) 
unknown

>  <frequency_units>  (4) 
unknown

>  <frequency_list>  (4) 
unknown

>  <arkane_path>  (4) 
/home/calvin/Dropbox/PersonalFolders/Calvin/HAb_Converged/rxn_723/output/Species/rxn_723_[NH]N=C/arkane/output.py

>  <path_exists>  (4) 
True

>  <E0_value>  (4) 
-391920.6336525532

>  <E0_units>  (4) 
kJ/mol

>  <thermo_class>  (4) 
NASA

>  <Cp0_value>  (4) 
33.257888

>  <Cp0_units>  (4) 
J/(mol*K)

>  <CpInf_value>  (4) 
133.031552

>  <CpInf_units>  (4) 
J/(mol*K)

>  <Tmin_value>  (4) 
10.0

>  <Tmin_units>  (4) 
K

>  <Tmax_value>  (4) 
3000.0

>  <Tmax_units>  (4) 
K

>  <polynomials>  (4) 
[{"name": "polynomial1", "class": "NASAPolynomial", "Tmin_value": 10.0, "Tmin_units": "K", "Tmax_value": 496.61948360369047, "Tmax_units": "K", "coeffs": [4.048839462374512, -0.004811513861438718, 7.691176186119057e-05, -1.3944750224042592e-07, 8.394685227006281e-11, -47137163.978332974, 7.75607759192425]}, {"name": "polynomial2", "class": "NASAPolynomial", "Tmin_value": 496.61948360369047, "Tmin_units": "K", "Tmax_value": 3000.0, "Tmax_units": "K", "coeffs": [1.9689678759396247, 0.018077911612663203, -1.076084303305779e-05, 3.1291358803639165e-09, -3.534783617650406e-13, -47137033.078425094, 15.572526680838202]}]

>  <H298_value>  (4) 
-93668.4252697279

>  <H298_units>  (4) 
kcal/mol

>  <S298_value>  (4) 
63.07256293229624

>  <S298_units>  (4) 
cal/(mol*K)

>  <Cp_T_value_list>  (4) 
[12.802241675577793, 15.211102149141666, 17.262390934998518, 19.021329796684324, 21.862630800995866, 23.969076677960874, 27.11600474349806, 28.732725135310126, 29.615558250451485]

>  <Cp_T_units>  (4) 
cal/(mol*K)

>  <T_list>  (4) 
[300.0, 400.0, 500.0, 600.0, 800.0, 1000.0, 1500.0, 2000.0, 2400.0]

>  <T_units>  (4) 
K

>  <yaml_path>  (4) 
/home/calvin/Dropbox/PersonalFolders/Calvin/HAb_Converged/rxn_723/output/Species/rxn_723_[NH]N=C/rxn_723_NHN=C.yml

>  <frequencies_cm1>  (4) 
[393.14177655532, 444.89824491215995, 784.3813981769999, 942.0199131829199, 1128.6577071952, 1167.0784900606, 1268.0506422058797, 1481.2980043331602, 1665.49115157152, 3071.09437672232, 3205.7490918622, 3402.9139743700403]

>  <ZPE_kJmol>  (4) 
113.37476298191258

>  <E_elec_kJmol>  (4) 
-392034.0084155351

>  <E0_minus_Eelec_plus_ZPE_kJmol>  (4) 
0.0

>  <rxn>  (4) 
rxn_723

>  <species_type>  (4) 
p1

>  <species_folder>  (4) 
rxn_723_[NH]N=C

>  <frequencies_cm1_list>  (4) 
[393.14177655532, 444.89824491215995, 784.3813981769999, 942.0199131829199, 1128.6577071952, 1167.0784900606, 1268.0506422058797, 1481.2980043331602, 1665.49115157152, 3071.09437672232, 3205.7490918622, 3402.9139743700403]

>  <E0_kJmol>  (4) 
-391921

>  <H298_kJmol>  (4) 
-391909

$$$$

     RDKit          3D

  3  2  0  0  0  0  0  0  0  0999 V2000
    0.9943   -0.1797    0.0000 O   0  0  0  0  0  1  0  0  0  1  0  0
   -0.1595    0.4394    0.0000 O   0  0  0  0  0  0  0  0  0  2  0  0
   -0.8348   -0.2597    0.0000 H   0  0  0  0  0  0  0  0  0  3  0  0
  1  2  1  0
  2  3  1  0
M  RAD  1   1   2
M  END
>  <rmg_smiles>  (5) 
[O]O

>  <rmg_adjacency_list>  (5) 
multiplicity 2
1 O u1 p2 c0 {2,S}
2 O u0 p2 c0 {1,S} {3,S}
3 H u0 p0 c0 {2,S}


>  <multiplicity>  (5) 
2

>  <reaction>  (5) 
rxn_723

>  <type>  (5) 
r2

>  <role_mapnums>  (5) 
{}

>  <role_mapidx>  (5) 
{}

>  <ordered_mapped_smiles>  (5) 
[O:1][O:2][H:3]

>  <level_of_theory>  (5) 
wb97xd/def2tzvp

>  <lot_method>  (5) 
wb97xd

>  <lot_basis>  (5) 
def2tzvp

>  <spin_multiplicity>  (5) 
2.0

>  <optical_isomers>  (5) 
1.0

>  <modes>  (5) 
IdealGasTranslation(mass=(32.9977, 'amu')),         NonlinearRotor(             inertia = ([0.803517, 14.5889, 15.3924

>  <frequency_value>  (5) 
unknown

>  <frequency_units>  (5) 
unknown

>  <frequency_list>  (5) 
unknown

>  <arkane_path>  (5) 
/home/calvin/Dropbox/PersonalFolders/Calvin/HAb_Converged/rxn_723/output/Species/rxn_723_[O]O/arkane/output.py

>  <path_exists>  (5) 
True

>  <E0_value>  (5) 
-396214.7927695905

>  <E0_units>  (5) 
kJ/mol

>  <thermo_class>  (5) 
NASA

>  <Cp0_value>  (5) 
33.257888

>  <Cp0_units>  (5) 
J/(mol*K)

>  <CpInf_value>  (5) 
58.201304

>  <CpInf_units>  (5) 
J/(mol*K)

>  <Tmin_value>  (5) 
10.0

>  <Tmin_units>  (5) 
K

>  <Tmax_value>  (5) 
3000.0

>  <Tmax_units>  (5) 
K

>  <polynomials>  (5) 
[{"name": "polynomial1", "class": "NASAPolynomial", "Tmin_value": 10.0, "Tmin_units": "K", "Tmax_value": 938.1901641883775, "Tmax_units": "K", "coeffs": [4.028900763568748, -0.0017001850192041605, 1.0116513729421136e-05, -1.0102502975955476e-08, 3.2943616799556636e-12, -47653633.38795187, 4.661311963627797]}, {"name": "polynomial2", "class": "NASAPolynomial", "Tmin_value": 938.1901641883775, "Tmin_units": "K", "Tmax_value": 3000.0, "Tmax_units": "K", "coeffs": [3.0224709900106443, 0.00428209217697721, -2.152234978217665e-06, 5.370565329041951e-10, -5.2799153043016775e-14, -47653518.97920004, 9.055842364041489]}]

>  <H298_value>  (5) 
-94695.23338060976

>  <H298_units>  (5) 
kcal/mol

>  <S298_value>  (5) 
54.59701487407024

>  <S298_units>  (5) 
cal/(mol*K)

>  <Cp_T_value_list>  (5) 
[8.312978103030632, 8.754130351990018, 9.242540000567846, 9.728455522252242, 10.572357002256187, 11.201059485179156, 12.218042363471625, 12.776508208459937, 13.066159106759592]

>  <Cp_T_units>  (5) 
cal/(mol*K)

>  <T_list>  (5) 
[300.0, 400.0, 500.0, 600.0, 800.0, 1000.0, 1500.0, 2000.0, 2400.0]

>  <T_units>  (5) 
K

>  <yaml_path>  (5) 
/home/calvin/Dropbox/PersonalFolders/Calvin/HAb_Converged/rxn_723/output/Species/rxn_723_[O]O/rxn_723_OO.yml

>  <frequencies_cm1>  (5) 
[1229.25217514788, 1446.77766912952, 3624.6283293968795]

>  <ZPE_kJmol>  (5) 
37.68631575394318

>  <E_elec_kJmol>  (5) 
-396252.4790853445

>  <E0_minus_Eelec_plus_ZPE_kJmol>  (5) 
0.0

>  <rxn>  (5) 
rxn_723

>  <species_type>  (5) 
r0

>  <species_folder>  (5) 
rxn_723_[O]O

>  <frequencies_cm1_list>  (5) 
[1229.25217514788, 1446.77766912952, 3624.6283293968795]

>  <E0_kJmol>  (5) 
-396215

>  <H298_kJmol>  (5) 
-396205

$$$$
