
     RDKit          3D

  9  8  0  0  0  0  0  0  0  0999 V2000
   -0.2244   -0.4897   -1.1709 C   0  0  0  0  0  0  0  0  0  1  0  0
   -0.0510   -0.3807    0.1287 C   0  0  0  0  0  0  0  0  0  2  0  0
    0.2535    0.8055    0.9659 C   0  0  0  0  0  0  0  0  0  3  0  0
   -0.4439   -1.4455   -1.6332 H   0  0  0  0  0  0  0  0  0  4  0  0
   -0.1557    0.3743   -1.8286 H   0  0  0  0  0  0  0  0  0  5  0  0
   -0.1254   -1.3143    0.6863 H   0  0  0  0  0  0  0  0  0  6  0  0
   -0.5294    0.9672    1.7106 H   0  0  0  0  0  0  0  0  0  7  0  0
    0.3396    1.7081    0.3548 H   0  0  0  0  0  0  0  0  0  8  0  0
    1.1904    0.6648    1.5098 H   0  0  0  0  0  0  0  0  0  9  0  0
  1  5  1  0
  1  4  1  0
  1  2  1  0
  2  6  1  0
  2  3  1  0
  3  8  1  0
  3  7  1  0
  3  9  1  0
M  END
>  <rmg_smiles>  (1) 
[CH2][CH]C

>  <rmg_adjacency_list>  (1) 
1 C u0 p0 c0 {2,S} {4,S} {5,S} {6,S}
2 C u0 p0 c0 {1,S} {3,S} {7,S}
3 C u0 p0 c0 {2,S} {8,S} {9,S}
4 H u0 p0 c0 {1,S}
5 H u0 p0 c0 {1,S}
6 H u0 p0 c0 {1,S}
7 H u0 p0 c0 {2,S}
8 H u0 p0 c0 {3,S}
9 H u0 p0 c0 {3,S}


>  <multiplicity>  (1) 
1

>  <reaction>  (1) 
rxn_348

>  <type>  (1) 
r1h

>  <role_mapnums>  (1) 
{"r1h_a": 2, "r1h_h": 6}

>  <role_mapidx>  (1) 
{"r1h_a": 1, "r1h_h": 5}

>  <ordered_mapped_smiles>  (1) 
[CH:1]([CH:2]([C:3]([H:7])([H:8])[H:9])[H:6])([H:4])[H:5]

>  <mol_properties>  (1) 
{"1": {"label": "donator", "atom_type": "Cs"}, "5": {"label": "d_hydrogen", "atom_type": "H0"}}

>  <level_of_theory>  (1) 
wb97xd/def2tzvp

>  <lot_method>  (1) 
wb97xd

>  <lot_basis>  (1) 
def2tzvp

>  <spin_multiplicity>  (1) 
1.0

>  <optical_isomers>  (1) 
1.0

>  <modes>  (1) 
IdealGasTranslation(mass=(42.047, 'amu')),         NonlinearRotor(             inertia = ([10.7194, 53.9495, 61.5633

>  <frequency_value>  (1) 
unknown

>  <frequency_units>  (1) 
unknown

>  <frequency_list>  (1) 
unknown

>  <arkane_path>  (1) 
/home/calvin/Dropbox/PersonalFolders/Calvin/HAb_Converged/rxn_348/output/Species/rxn_348_C=CC/arkane/output.py

>  <path_exists>  (1) 
True

>  <E0_value>  (1) 
-309367.8832800635

>  <E0_units>  (1) 
kJ/mol

>  <thermo_class>  (1) 
NASA

>  <Cp0_value>  (1) 
33.257888

>  <Cp0_units>  (1) 
J/(mol*K)

>  <CpInf_value>  (1) 
207.8618

>  <CpInf_units>  (1) 
J/(mol*K)

>  <Tmin_value>  (1) 
10.0

>  <Tmin_units>  (1) 
K

>  <Tmax_value>  (1) 
3000.0

>  <Tmax_units>  (1) 
K

>  <polynomials>  (1) 
[{"name": "polynomial1", "class": "NASAPolynomial", "Tmin_value": 10.0, "Tmin_units": "K", "Tmax_value": 531.9066404514887, "Tmax_units": "K", "coeffs": [4.0204367106395305, -0.0017312814973888466, 7.469369070858841e-05, -1.103989586823944e-07, 5.357411953540602e-11, -37208361.619619094, 6.984063163619424]}, {"name": "polynomial2", "class": "NASAPolynomial", "Tmin_value": 531.9066404514887, "Tmin_units": "K", "Tmax_value": 3000.0, "Tmax_units": "K", "coeffs": [-0.30746978474152303, 0.03081497539241948, -1.7087881859194207e-05, 4.635359552359225e-09, -4.926745989402899e-13, -37207901.209693715, 25.131571818199003]}]

>  <H298_value>  (1) 
-73937.54315081466

>  <H298_units>  (1) 
kcal/mol

>  <S298_value>  (1) 
63.235428095961645

>  <S298_units>  (1) 
cal/(mol*K)

>  <Cp_T_value_list>  (1) 
[15.255114438428619, 19.0471333221202, 22.6079143488244, 25.768633340780376, 30.96022164704354, 34.89993402421754, 40.97109580318192, 44.05842766532305, 45.61775865339882]

>  <Cp_T_units>  (1) 
cal/(mol*K)

>  <T_list>  (1) 
[300.0, 400.0, 500.0, 600.0, 800.0, 1000.0, 1500.0, 2000.0, 2400.0]

>  <T_units>  (1) 
K

>  <yaml_path>  (1) 
/home/calvin/Dropbox/PersonalFolders/Calvin/HAb_Converged/rxn_348/output/Species/rxn_348_C=CC/rxn_348_C=CC.yml

>  <frequencies_cm1>  (1) 
[200.92112347787997, 429.72220735495995, 590.1693193567598, 925.5460154002399, 944.49202789812, 949.7315376972799, 1024.05291981564, 1068.7501272635197, 1186.76613697304, 1322.2792252779197, 1396.37399688072, 1440.26090006084, 1466.0326959668, 1481.02332492036, 1720.5094379553598, 3007.2932161142003, 3065.80679802592, 3091.5648599612396, 3111.3280437122, 3123.2628641983597, 3201.2855514042]

>  <ZPE_kJmol>  (1) 
207.8343042708976

>  <E_elec_kJmol>  (1) 
-309575.71758433443

>  <E0_minus_Eelec_plus_ZPE_kJmol>  (1) 
0.0

>  <rxn>  (1) 
rxn_348

>  <species_type>  (1) 
r1

>  <species_folder>  (1) 
rxn_348_C=CC

>  <frequencies_cm1_list>  (1) 
[200.92112347787997, 429.72220735495995, 590.1693193567598, 925.5460154002399, 944.49202789812, 949.7315376972799, 1024.05291981564, 1068.7501272635197, 1186.76613697304, 1322.2792252779197, 1396.37399688072, 1440.26090006084, 1466.0326959668, 1481.02332492036, 1720.5094379553598, 3007.2932161142003, 3065.80679802592, 3091.5648599612396, 3111.3280437122, 3123.2628641983597, 3201.2855514042]

>  <E0_kJmol>  (1) 
-309368

>  <H298_kJmol>  (1) 
-309355

$$$$

     RDKit          3D

  6  5  0  0  0  0  0  0  0  0999 V2000
   -0.4803    0.3975    0.1909 C   0  0  0  0  0  0  0  0  0  1  0  0
    0.4785   -0.4212   -0.1763 C   0  0  0  0  0  0  0  0  0  2  0  0
   -1.2794    0.2086    0.8986 H   0  0  0  0  0  0  0  0  0  3  0  0
    0.5621   -1.4284    0.2244 H   0  0  0  0  0  0  0  0  0  4  0  0
    1.2296   -0.1206   -0.9004 H   0  0  0  0  0  0  0  0  0  5  0  0
   -0.4886    1.3749   -0.2778 H   0  0  0  0  0  0  0  0  0  6  0  0
  1  3  1  0
  1  6  1  0
  1  2  1  0
  2  4  1  0
  2  5  1  0
M  END
>  <rmg_smiles>  (2) 
[CH2][CH2]

>  <rmg_adjacency_list>  (2) 
1 C u0 p0 c0 {2,S} {3,S} {6,S}
2 C u0 p0 c0 {1,S} {4,S} {5,S}
3 H u0 p0 c0 {1,S}
4 H u0 p0 c0 {2,S}
5 H u0 p0 c0 {2,S}
6 H u0 p0 c0 {1,S}


>  <multiplicity>  (2) 
1

>  <reaction>  (2) 
rxn_348

>  <type>  (2) 
r2h

>  <role_mapnums>  (2) 
{"r2h_a": 1, "r2h_h": 6}

>  <role_mapidx>  (2) 
{"r2h_a": 0, "r2h_h": 5}

>  <ordered_mapped_smiles>  (2) 
[CH:1]([CH:2]([H:4])[H:5])([H:3])[H:6]

>  <mol_properties>  (2) 
{"0": {"label": "acceptor", "atom_type": "Cs"}, "5": {"label": "a_hydrogen", "atom_type": "H0"}}

>  <level_of_theory>  (2) 
wb97xd/def2tzvp

>  <lot_method>  (2) 
wb97xd

>  <lot_basis>  (2) 
def2tzvp

>  <spin_multiplicity>  (2) 
1.0

>  <optical_isomers>  (2) 
1.0

>  <modes>  (2) 
IdealGasTranslation(mass=(28.0313, 'amu')),         NonlinearRotor(             inertia = ([3.4313, 16.5733, 20.0046

>  <frequency_value>  (2) 
unknown

>  <frequency_units>  (2) 
unknown

>  <frequency_list>  (2) 
unknown

>  <arkane_path>  (2) 
/home/calvin/Dropbox/PersonalFolders/Calvin/HAb_Converged/rxn_348/output/Species/rxn_348_C=C/arkane/output.py

>  <path_exists>  (2) 
True

>  <E0_value>  (2) 
-206204.08464717612

>  <E0_units>  (2) 
kJ/mol

>  <thermo_class>  (2) 
NASA

>  <Cp0_value>  (2) 
33.257888

>  <Cp0_units>  (2) 
J/(mol*K)

>  <CpInf_value>  (2) 
133.031552

>  <CpInf_units>  (2) 
J/(mol*K)

>  <Tmin_value>  (2) 
10.0

>  <Tmin_units>  (2) 
K

>  <Tmax_value>  (2) 
3000.0

>  <Tmax_units>  (2) 
K

>  <polynomials>  (2) 
[{"name": "polynomial1", "class": "NASAPolynomial", "Tmin_value": 10.0, "Tmin_units": "K", "Tmax_value": 769.5217501758626, "Tmax_units": "K", "coeffs": [4.102594925382579, -0.006879522193259702, 5.062107249177076e-05, -5.972223289849955e-08, 2.3228029141840905e-11, -24800625.606387716, 3.2220821404236424]}, {"name": "polynomial2", "class": "NASAPolynomial", "Tmin_value": 769.5217501758626, "Tmin_units": "K", "Tmax_value": 3000.0, "Tmax_units": "K", "coeffs": [0.4501873055486705, 0.01806199469136872, -9.606651718966085e-06, 2.51372192351987e-09, -2.587294024527882e-13, -24800239.83662215, 18.740105419928828]}]

>  <H298_value>  (2) 
-49281.46687172266

>  <H298_units>  (2) 
kcal/mol

>  <S298_value>  (2) 
52.28638692235232

>  <S298_units>  (2) 
cal/(mol*K)

>  <Cp_T_value_list>  (2) 
[10.27441708697483, 12.365536101969841, 14.515698252557122, 16.511337099494305, 19.738079638388314, 22.178263460277243, 26.036790662755205, 28.054735064109895, 29.07349068569704]

>  <Cp_T_units>  (2) 
cal/(mol*K)

>  <T_list>  (2) 
[300.0, 400.0, 500.0, 600.0, 800.0, 1000.0, 1500.0, 2000.0, 2400.0]

>  <T_units>  (2) 
K

>  <yaml_path>  (2) 
/home/calvin/Dropbox/PersonalFolders/Calvin/HAb_Converged/rxn_348/output/Species/rxn_348_C=C/rxn_348_C=C.yml

>  <frequencies_cm1>  (2) 
[832.94471836004, 977.0690062561998, 990.3016869678398, 1058.52518612204, 1234.34061127, 1375.2030811391598, 1460.7588512410398, 1695.25953293372, 3111.1769700351597, 3128.9967969405598, 3189.2477261382396, 3215.2736005010397]

>  <ZPE_kJmol>  (2) 
133.19882255210345

>  <E_elec_kJmol>  (2) 
-206337.28346972825

>  <E0_minus_Eelec_plus_ZPE_kJmol>  (2) 
0.0

>  <rxn>  (2) 
rxn_348

>  <species_type>  (2) 
p0

>  <species_folder>  (2) 
rxn_348_C=C

>  <frequencies_cm1_list>  (2) 
[832.94471836004, 977.0690062561998, 990.3016869678398, 1058.52518612204, 1234.34061127, 1375.2030811391598, 1460.7588512410398, 1695.25953293372, 3111.1769700351597, 3128.9967969405598, 3189.2477261382396, 3215.2736005010397]

>  <E0_kJmol>  (2) 
-206204

>  <H298_kJmol>  (2) 
-206194

$$$$

     RDKit          3D

 14 12  0  0  0  0  0  0  0  0999 V2000
   -0.2874   -1.4717    0.9214 C   0  0  0  0  0  3  0  0  0  1  0  0
    0.6713   -2.2903    0.5542 C   0  0  0  0  0  0  0  0  0  2  0  0
   -1.0865   -1.6605    1.6291 H   0  0  0  0  0  0  0  0  0  3  0  0
    0.7550   -3.2976    0.9549 H   0  0  0  0  0  0  0  0  0  4  0  0
    1.4225   -1.9898   -0.1700 H   0  0  0  0  0  0  0  0  0  5  0  0
   -0.3823    0.7601   -1.6320 C   0  0  0  0  0  0  0  0  0  6  0  0
   -0.2090    0.8691   -0.3324 C   0  0  0  0  0  0  0  0  0  7  0  0
    0.0956    2.0553    0.5048 C   0  0  0  0  0  0  0  0  0  8  0  0
   -0.6018   -0.1956   -2.0943 H   0  0  0  0  0  0  0  0  0  9  0  0
   -0.3136    1.6242   -2.2897 H   0  0  0  0  0  0  0  0  0 10  0  0
   -0.2979   -0.2463    0.3338 H   0  0  0  0  0  0  0  0  0 11  0  0
   -0.6874    2.2170    1.2495 H   0  0  0  0  0  0  0  0  0 12  0  0
    0.1817    2.9580   -0.1063 H   0  0  0  0  0  0  0  0  0 13  0  0
    1.0325    1.9146    1.0487 H   0  0  0  0  0  0  0  0  0 14  0  0
  1  3  1  0
  1  2  1  0
  2  5  1  0
  2  4  1  0
  6  9  1  0
  6  7  1  0
  6 10  1  0
  7  8  1  0
  7 11  1  0
  8 14  1  0
  8 13  1  0
  8 12  1  0
M  RAD  1   1   2
M  END
>  <rmg_smiles>  (3) 
[CH2][CH]C.[CH][CH2]

>  <rmg_adjacency_list>  (3) 
multiplicity 2
1  C u0 p0 c0 {2,S} {6,S} {7,S} {8,S}
2  C u0 p0 c0 {1,S} {3,S} {9,S}
3  C u0 p0 c0 {2,S} {10,S} {11,S}
4  C u0 p0 c0 {5,S} {12,S} {13,S}
5  C u1 p1 c0 {4,S} {14,S}
6  H u0 p0 c0 {1,S}
7  H u0 p0 c0 {1,S}
8  H u0 p0 c0 {1,S}
9  H u0 p0 c0 {2,S}
10 H u0 p0 c0 {3,S}
11 H u0 p0 c0 {3,S}
12 H u0 p0 c0 {4,S}
13 H u0 p0 c0 {4,S}
14 H u0 p0 c0 {5,S}


>  <multiplicity>  (3) 
2

>  <reaction>  (3) 
rxn_348

>  <type>  (3) 
ts

>  <role_mapnums>  (3) 
{"*2": 11, "*1": 7, "*3": 1, "*0": 6, "*4": 2}

>  <role_mapidx>  (3) 
{"*2": 10, "*1": 6, "*3": 0, "*0": 5, "*4": 1}

>  <ordered_mapped_smiles>  (3) 
[CH:1]([CH:2]([H:4])[H:5])[H:3].[CH:6]([CH:7]([C:8]([H:12])([H:13])[H:14])[H:11])([H:9])[H:10]

>  <mol_properties>  (3) 
{"0": {"label": "*3", "atom_type": "C2s"}, "1": {"label": "*4", "atom_type": "Cs"}, "5": {"label": "*0", "atom_type": "Cs"}, "6": {"label": "*1", "atom_type": "Cs"}, "10": {"label": "*2", "atom_type": "H0"}}

>  <level_of_theory>  (3) 
wb97xd/def2tzvp

>  <lot_method>  (3) 
wb97xd

>  <lot_basis>  (3) 
def2tzvp

>  <spin_multiplicity>  (3) 
2.0

>  <optical_isomers>  (3) 
2.0

>  <modes>  (3) 
IdealGasTranslation(mass=(69.0704, 'amu')),         NonlinearRotor(             inertia = ([66.0352, 220.275, 262.954

>  <frequency_value>  (3) 
-1614.04

>  <frequency_units>  (3) 
cm^-1

>  <frequency_list>  (3) 
unknown

>  <arkane_path>  (3) 
/home/calvin/Dropbox/PersonalFolders/Calvin/HAb_Converged/rxn_348/output/rxns/TS0/arkane/output.py

>  <path_exists>  (3) 
True

>  <E0_value>  (3) 
-513768.0

>  <E0_units>  (3) 
kJ/mol

>  <thermo_class>  (3) 
unknown

>  <Cp0_value>  (3) 
unknown

>  <Cp0_units>  (3) 
unknown

>  <CpInf_value>  (3) 
unknown

>  <CpInf_units>  (3) 
unknown

>  <Tmin_value>  (3) 
unknown

>  <Tmin_units>  (3) 
unknown

>  <Tmax_value>  (3) 
unknown

>  <Tmax_units>  (3) 
unknown

>  <polynomials>  (3) 
unknown

>  <H298_value>  (3) 
unknown

>  <H298_units>  (3) 
unknown

>  <S298_value>  (3) 
unknown

>  <S298_units>  (3) 
unknown

>  <Cp_T_value_list>  (3) 
unknown

>  <Cp_T_units>  (3) 
unknown

>  <T_list>  (3) 
unknown

>  <T_units>  (3) 
unknown

>  <yaml_path>  (3) 
unknown

>  <frequencies_cm1>  (3) 
unknown

>  <ZPE_kJmol>  (3) 
unknown

>  <E_elec_kJmol>  (3) 
unknown

>  <E0_minus_Eelec_plus_ZPE_kJmol>  (3) 
unknown

>  <rxn>  (3) 
unknown

>  <species_type>  (3) 
unknown

>  <species_folder>  (3) 
unknown

>  <frequencies_cm1_list>  (3) 
[]

>  <ts_imag_freq_cm1>  (3) 
-1633.6392

>  <ts_freq_out_path>  (3) 
/home/calvin/Dropbox/PersonalFolders/Calvin/HAb_Converged/rxn_348/output/rxns/TS0/geometry/freq.out

>  <E0_kJmol>  (3) 
-513768

>  <H298_kJmol>  (3) 
unknown

$$$$

     RDKit          3D

  8  7  0  0  0  0  0  0  0  0999 V2000
    1.4038   -0.4003    0.0140 C   0  0  0  0  0  0  0  0  0  1  0  0
    0.2804    0.0563    0.4920 C   0  0  0  0  0  3  0  0  0  2  0  0
   -1.0935    0.3323    0.0625 C   0  0  0  0  0  0  0  0  0  3  0  0
    1.4898   -0.7154   -1.0285 H   0  0  0  0  0  0  0  0  0  4  0  0
    2.2990   -0.4891    0.6210 H   0  0  0  0  0  0  0  0  0  5  0  0
   -1.3399    1.3883    0.1900 H   0  0  0  0  0  0  0  0  0  6  0  0
   -1.2285    0.0762   -0.9967 H   0  0  0  0  0  0  0  0  0  7  0  0
   -1.8111   -0.2482    0.6457 H   0  0  0  0  0  0  0  0  0  8  0  0
  1  5  1  0
  1  4  1  0
  1  2  1  0
  2  3  1  0
  3  6  1  0
  3  7  1  0
  3  8  1  0
M  RAD  1   2   2
M  END
>  <rmg_smiles>  (4) 
[CH2][C]C

>  <rmg_adjacency_list>  (4) 
multiplicity 2
1 C u0 p0 c0 {3,S} {4,S} {5,S} {6,S}
2 C u0 p0 c0 {3,S} {7,S} {8,S}
3 C u1 p1 c0 {1,S} {2,S}
4 H u0 p0 c0 {1,S}
5 H u0 p0 c0 {1,S}
6 H u0 p0 c0 {1,S}
7 H u0 p0 c0 {2,S}
8 H u0 p0 c0 {2,S}


>  <multiplicity>  (4) 
2

>  <reaction>  (4) 
rxn_348

>  <type>  (4) 
r1

>  <role_mapnums>  (4) 
{}

>  <role_mapidx>  (4) 
{}

>  <ordered_mapped_smiles>  (4) 
[CH:1]([CH:2][C:3]([H:6])([H:7])[H:8])([H:4])[H:5]

>  <level_of_theory>  (4) 
wb97xd/def2tzvp

>  <lot_method>  (4) 
wb97xd

>  <lot_basis>  (4) 
def2tzvp

>  <spin_multiplicity>  (4) 
2.0

>  <optical_isomers>  (4) 
1.0

>  <modes>  (4) 
IdealGasTranslation(mass=(41.0391, 'amu')),         NonlinearRotor(             inertia = ([6.71616, 57.9316, 61.5152

>  <frequency_value>  (4) 
unknown

>  <frequency_units>  (4) 
unknown

>  <frequency_list>  (4) 
unknown

>  <arkane_path>  (4) 
/home/calvin/Dropbox/PersonalFolders/Calvin/HAb_Converged/rxn_348/output/Species/rxn_348_C=[C]C/arkane/output.py

>  <path_exists>  (4) 
True

>  <E0_value>  (4) 
-307613.2562792769

>  <E0_units>  (4) 
kJ/mol

>  <thermo_class>  (4) 
NASA

>  <Cp0_value>  (4) 
33.257888

>  <Cp0_units>  (4) 
J/(mol*K)

>  <CpInf_value>  (4) 
182.918384

>  <CpInf_units>  (4) 
J/(mol*K)

>  <Tmin_value>  (4) 
10.0

>  <Tmin_units>  (4) 
K

>  <Tmax_value>  (4) 
3000.0

>  <Tmax_units>  (4) 
K

>  <polynomials>  (4) 
[{"name": "polynomial1", "class": "NASAPolynomial", "Tmin_value": 10.0, "Tmin_units": "K", "Tmax_value": 538.1687435193878, "Tmax_units": "K", "coeffs": [3.93039251722744, 0.005417928594915489, 4.115135925960942e-05, -6.444195040259997e-08, 3.1282900924672696e-11, -36997327.46995285, 7.425360626691283]}, {"name": "polynomial2", "class": "NASAPolynomial", "Tmin_value": 538.1687435193878, "Tmin_units": "K", "Tmax_value": 3000.0, "Tmax_units": "K", "coeffs": [1.2730235235922125, 0.02516927369883844, -1.3900597345713134e-05, 3.755214790819376e-09, -3.97535341384456e-13, -36997041.44953528, 18.599148798917813]}]

>  <H298_value>  (4) 
-73518.02597167484

>  <H298_units>  (4) 
kcal/mol

>  <S298_value>  (4) 
65.08526526117362

>  <S298_units>  (4) 
cal/(mol*K)

>  <Cp_T_value_list>  (4) 
[15.44626255334313, 18.59695184982686, 21.515751343877753, 24.10477215751453, 28.361211822057705, 31.595349958095916, 36.588281748163645, 39.128760531282474, 40.409169372349]

>  <Cp_T_units>  (4) 
cal/(mol*K)

>  <T_list>  (4) 
[300.0, 400.0, 500.0, 600.0, 800.0, 1000.0, 1500.0, 2000.0, 2400.0]

>  <T_units>  (4) 
K

>  <yaml_path>  (4) 
/home/calvin/Dropbox/PersonalFolders/Calvin/HAb_Converged/rxn_348/output/Species/rxn_348_C=[C]C/rxn_348_C=CC.yml

>  <frequencies_cm1>  (4) 
[176.04890264884, 312.72251147279997, 484.02632726551997, 893.4634599852, 895.1939402858399, 932.7632169715598, 1043.3422815795197, 1098.3399670074, 1378.28635754784, 1408.11654177792, 1443.1999697778, 1458.9940360138, 1748.70527967928, 2967.7256467003594, 3032.41264841476, 3055.0530990147995, 3082.9330594139997, 3144.5505186903597]

>  <ZPE_kJmol>  (4) 
170.80212834762708

>  <E_elec_kJmol>  (4) 
-307784.05840762454

>  <E0_minus_Eelec_plus_ZPE_kJmol>  (4) 
0.0

>  <rxn>  (4) 
rxn_348

>  <species_type>  (4) 
p1

>  <species_folder>  (4) 
rxn_348_C=[C]C

>  <frequencies_cm1_list>  (4) 
[176.04890264884, 312.72251147279997, 484.02632726551997, 893.4634599852, 895.1939402858399, 932.7632169715598, 1043.3422815795197, 1098.3399670074, 1378.28635754784, 1408.11654177792, 1443.1999697778, 1458.9940360138, 1748.70527967928, 2967.7256467003594, 3032.41264841476, 3055.0530990147995, 3082.9330594139997, 3144.5505186903597]

>  <E0_kJmol>  (4) 
-307613

>  <H298_kJmol>  (4) 
-307599

$$$$

     RDKit          3D

  5  4  0  0  0  0  0  0  0  0999 V2000
    0.0397    0.7134    0.0000 C   0  0  0  0  0  3  0  0  0  1  0  0
    0.0458   -0.5870    0.0000 C   0  0  0  0  0  0  0  0  0  2  0  0
   -0.6871    1.5118    0.0000 H   0  0  0  0  0  0  0  0  0  3  0  0
   -0.8806   -1.1637    0.0000 H   0  0  0  0  0  0  0  0  0  4  0  0
    0.9690   -1.1600    0.0000 H   0  0  0  0  0  0  0  0  0  5  0  0
  1  3  1  0
  1  2  1  0
  2  5  1  0
  2  4  1  0
M  RAD  1   1   2
M  END
>  <rmg_smiles>  (5) 
[CH][CH2]

>  <rmg_adjacency_list>  (5) 
multiplicity 2
1 C u0 p0 c0 {2,S} {3,S} {4,S}
2 C u1 p1 c0 {1,S} {5,S}
3 H u0 p0 c0 {1,S}
4 H u0 p0 c0 {1,S}
5 H u0 p0 c0 {2,S}


>  <multiplicity>  (5) 
2

>  <reaction>  (5) 
rxn_348

>  <type>  (5) 
r2

>  <role_mapnums>  (5) 
{}

>  <role_mapidx>  (5) 
{}

>  <ordered_mapped_smiles>  (5) 
[CH:1]([CH:2]([H:4])[H:5])[H:3]

>  <level_of_theory>  (5) 
wb97xd/def2tzvp

>  <lot_method>  (5) 
wb97xd

>  <lot_basis>  (5) 
def2tzvp

>  <spin_multiplicity>  (5) 
2.0

>  <optical_isomers>  (5) 
1.0

>  <modes>  (5) 
IdealGasTranslation(mass=(27.0235, 'amu')),         NonlinearRotor(             inertia = ([2.14183, 15.3481, 17.4899

>  <frequency_value>  (5) 
unknown

>  <frequency_units>  (5) 
unknown

>  <frequency_list>  (5) 
unknown

>  <arkane_path>  (5) 
/home/calvin/Dropbox/PersonalFolders/Calvin/HAb_Converged/rxn_348/output/Species/rxn_348_[CH]=C/arkane/output.py

>  <path_exists>  (5) 
True

>  <E0_value>  (5) 
-204434.59610714423

>  <E0_units>  (5) 
kJ/mol

>  <thermo_class>  (5) 
NASA

>  <Cp0_value>  (5) 
33.257888

>  <Cp0_units>  (5) 
J/(mol*K)

>  <CpInf_value>  (5) 
108.088136

>  <CpInf_units>  (5) 
J/(mol*K)

>  <Tmin_value>  (5) 
10.0

>  <Tmin_units>  (5) 
K

>  <Tmax_value>  (5) 
3000.0

>  <Tmax_units>  (5) 
K

>  <polynomials>  (5) 
[{"name": "polynomial1", "class": "NASAPolynomial", "Tmin_value": 10.0, "Tmin_units": "K", "Tmax_value": 605.1562073532106, "Tmax_units": "K", "coeffs": [4.0732302477000095, -0.005855893423713469, 5.173301484019039e-05, -7.605753070838568e-08, 3.74067872861101e-11, -24587803.17884632, 4.922911546686311]}, {"name": "polynomial2", "class": "NASAPolynomial", "Tmin_value": 605.1562073532106, "Tmin_units": "K", "Tmax_value": 3000.0, "Tmax_units": "K", "coeffs": [1.907334803595395, 0.013219860447203871, -7.347353045060493e-06, 2.024442812279225e-09, -2.192078156816895e-13, -24587628.1872574, 13.564186384006128]}]

>  <H298_value>  (5) 
-48858.50309296871

>  <H298_units>  (5) 
kcal/mol

>  <S298_value>  (5) 
55.807333309528325

>  <S298_units>  (5) 
cal/(mol*K)

>  <Cp_T_value_list>  (5) 
[10.376944352757018, 12.118158212925861, 13.730146484867369, 15.108875169207579, 17.343631711777416, 19.047527728648078, 21.716860438361014, 23.14273061905272, 23.900837148526193]

>  <Cp_T_units>  (5) 
cal/(mol*K)

>  <T_list>  (5) 
[300.0, 400.0, 500.0, 600.0, 800.0, 1000.0, 1500.0, 2000.0, 2400.0]

>  <T_units>  (5) 
K

>  <yaml_path>  (5) 
/home/calvin/Dropbox/PersonalFolders/Calvin/HAb_Converged/rxn_348/output/Species/rxn_348_[CH]=C/rxn_348_CH=C.yml

>  <frequencies_cm1>  (5) 
[709.40765245324, 831.6056562226399, 928.3889473227199, 1044.4341322454, 1381.5275746188797, 1653.3915234376798, 3045.07536934484, 3137.58739557588, 3217.88305492264]

>  <ZPE_kJmol>  (5) 
95.3980343814778

>  <E_elec_kJmol>  (5) 
-204529.9941415257

>  <E0_minus_Eelec_plus_ZPE_kJmol>  (5) 
0.0

>  <rxn>  (5) 
rxn_348

>  <species_type>  (5) 
r0

>  <species_folder>  (5) 
rxn_348_[CH]=C

>  <frequencies_cm1_list>  (5) 
[709.40765245324, 831.6056562226399, 928.3889473227199, 1044.4341322454, 1381.5275746188797, 1653.3915234376798, 3045.07536934484, 3137.58739557588, 3217.88305492264]

>  <E0_kJmol>  (5) 
-204435

>  <H298_kJmol>  (5) 
-204424

$$$$
