
     RDKit          3D

  8  7  0  0  0  0  0  0  0  0999 V2000
    1.0643    0.3443   -1.5404 C   0  0  0  0  0  2  0  0  0  1  0  0
    0.4056    0.2147   -0.5381 C   0  0  0  0  0  2  0  0  0  2  0  0
   -0.3418    0.2020    0.6336 C   0  0  0  0  0  0  0  0  0  3  0  0
   -1.0090   -0.7320    1.2807 C   0  0  0  0  0  0  0  0  0  4  0  0
    1.6417    0.4226   -2.4300 H   0  0  0  0  0  0  0  0  0  5  0  0
   -0.4318    1.1755    1.1156 H   0  0  0  0  0  0  0  0  0  6  0  0
   -1.5559   -0.4964    2.1870 H   0  0  0  0  0  0  0  0  0  7  0  0
   -1.0429   -1.7590    0.9274 H   0  0  0  0  0  0  0  0  0  8  0  0
  1  5  1  0
  1  2  1  0
  2  3  1  0
  3  4  1  0
  3  6  1  0
  4  8  1  0
  4  7  1  0
M  RAD  2   1   3   2   3
M  END
>  <rmg_smiles>  (1) 
[CH][C][CH][CH2]

>  <rmg_adjacency_list>  (1) 
1 C u0 p0 c0 {2,S} {3,S} {5,S}
2 C u0 p0 c0 {1,S} {6,S} {7,S}
3 C u0 p1 c0 {1,S} {4,S}
4 C u0 p1 c0 {3,S} {8,S}
5 H u0 p0 c0 {1,S}
6 H u0 p0 c0 {2,S}
7 H u0 p0 c0 {2,S}
8 H u0 p0 c0 {4,S}


>  <multiplicity>  (1) 
1

>  <reaction>  (1) 
rxn_1786

>  <type>  (1) 
r1h

>  <role_mapnums>  (1) 
{"r1h_a": 3, "r1h_h": 6}

>  <role_mapidx>  (1) 
{"r1h_a": 2, "r1h_h": 5}

>  <ordered_mapped_smiles>  (1) 
[C:1]([C:2][CH:3]([CH:4]([H:7])[H:8])[H:6])[H:5]

>  <mol_properties>  (1) 
{"2": {"label": "donator", "atom_type": "Cs"}, "5": {"label": "d_hydrogen", "atom_type": "H0"}}

>  <level_of_theory>  (1) 
wb97xd/def2tzvp

>  <lot_method>  (1) 
wb97xd

>  <lot_basis>  (1) 
def2tzvp

>  <spin_multiplicity>  (1) 
1.0

>  <optical_isomers>  (1) 
1.0

>  <modes>  (1) 
IdealGasTranslation(mass=(52.0313, 'amu')),         NonlinearRotor(             inertia = ([9.86559, 105.845, 115.711

>  <frequency_value>  (1) 
unknown

>  <frequency_units>  (1) 
unknown

>  <frequency_list>  (1) 
unknown

>  <arkane_path>  (1) 
/home/calvin/Dropbox/PersonalFolders/Calvin/HAb_Converged/rxn_1786/output/Species/rxn_1786_CtCC=C/arkane/output.py

>  <path_exists>  (1) 
True

>  <E0_value>  (1) 
-406091.886125891

>  <E0_units>  (1) 
kJ/mol

>  <thermo_class>  (1) 
NASA

>  <Cp0_value>  (1) 
33.257888

>  <Cp0_units>  (1) 
J/(mol*K)

>  <CpInf_value>  (1) 
182.918384

>  <CpInf_units>  (1) 
J/(mol*K)

>  <Tmin_value>  (1) 
10.0

>  <Tmin_units>  (1) 
K

>  <Tmax_value>  (1) 
3000.0

>  <Tmax_units>  (1) 
K

>  <polynomials>  (1) 
[{"name": "polynomial1", "class": "NASAPolynomial", "Tmin_value": 10.0, "Tmin_units": "K", "Tmax_value": 539.6924259091454, "Tmax_units": "K", "coeffs": [3.952165135673625, 0.002856988610718535, 7.748969027068091e-05, -1.4636771659515447e-07, 8.592251635550374e-11, -48841570.194759525, 7.59056634578395]}, {"name": "polynomial2", "class": "NASAPolynomial", "Tmin_value": 539.6924259091454, "Tmin_units": "K", "Tmax_value": 3000.0, "Tmax_units": "K", "coeffs": [2.1702296891625794, 0.026363759472425752, -1.64707651230591e-05, 5.0606479604362095e-09, -6.036458079288838e-13, -48841527.85434033, 13.698684547881204]}]

>  <H298_value>  (1) 
-97054.8281313212

>  <H298_units>  (1) 
kcal/mol

>  <S298_value>  (1) 
66.12779656879917

>  <S298_units>  (1) 
cal/(mol*K)

>  <Cp_T_value_list>  (1) 
[16.94566075459627, 20.518689246869094, 23.50323718540477, 25.98049414422314, 29.93477402200161, 32.8291008840918, 37.12176727992767, 39.42923508788264, 40.74274810859482]

>  <Cp_T_units>  (1) 
cal/(mol*K)

>  <T_list>  (1) 
[300.0, 400.0, 500.0, 600.0, 800.0, 1000.0, 1500.0, 2000.0, 2400.0]

>  <T_units>  (1) 
K

>  <yaml_path>  (1) 
/home/calvin/Dropbox/PersonalFolders/Calvin/HAb_Converged/rxn_1786/output/Species/rxn_1786_CtCC=C/rxn_1786_CtCC=C.yml

>  <frequencies_cm1>  (1) 
[225.237118496, 321.82126702179994, 559.30222034336, 675.23753350092, 692.86508481736, 707.3338228865999, 885.99904694236, 971.2114677782399, 1012.2485720505599, 1105.4198288723198, 1315.886061945, 1434.5613022452399, 1683.44831818332, 2214.2525494486795, 3131.88779776028, 3144.7221933233595, 3226.7002640735195, 3436.58967037932]

>  <ZPE_kJmol>  (1) 
159.96902072108773

>  <E_elec_kJmol>  (1) 
-406251.8551466121

>  <E0_minus_Eelec_plus_ZPE_kJmol>  (1) 
0.0

>  <rxn>  (1) 
rxn_1786

>  <species_type>  (1) 
r0

>  <species_folder>  (1) 
rxn_1786_CtCC=C

>  <frequencies_cm1_list>  (1) 
[225.237118496, 321.82126702179994, 559.30222034336, 675.23753350092, 692.86508481736, 707.3338228865999, 885.99904694236, 971.2114677782399, 1012.2485720505599, 1105.4198288723198, 1315.886061945, 1434.5613022452399, 1683.44831818332, 2214.2525494486795, 3131.88779776028, 3144.7221933233595, 3226.7002640735195, 3436.58967037932]

>  <E0_kJmol>  (1) 
-406092

>  <H298_kJmol>  (1) 
-406077

$$$$

     RDKit          3D

 19 19  0  0  0  0  0  0  0  0999 V2000
   -0.9234   -1.6053   -0.9807 H   0  0  0  0  0  0  0  0  0  1  0  0
   -1.8069    0.1003   -1.7085 C   0  0  0  0  0  0  0  0  0  2  0  0
   -1.1208   -0.6193   -0.5599 C   0  0  0  0  0  0  0  0  0  3  0  0
    0.2177   -0.0541   -0.1860 C   0  0  0  0  0  0  0  0  0  4  0  0
    0.4593    0.6101    1.0128 C   0  0  0  0  0  0  0  0  0  5  0  0
    1.7138    1.1309    1.2945 C   0  0  0  0  0  0  0  0  0  6  0  0
    2.7501    0.9914    0.3866 C   0  0  0  0  0  0  0  0  0  7  0  0
    2.5214    0.3299   -0.8114 C   0  0  0  0  0  0  0  0  0  8  0  0
    1.2690   -0.1845   -1.0956 C   0  0  0  0  0  0  0  0  0  9  0  0
   -2.2984   -0.8921    0.7655 S   0  0  0  0  0  0  0  0  0 10  0  0
   -2.7192   -0.4197   -2.0043 H   0  0  0  0  0  0  0  0  0 11  0  0
   -2.0577    1.1268   -1.4306 H   0  0  0  0  0  0  0  0  0 12  0  0
   -1.1401    0.1355   -2.5706 H   0  0  0  0  0  0  0  0  0 13  0  0
   -0.3446    0.7362    1.7261 H   0  0  0  0  0  0  0  0  0 14  0  0
    1.8779    1.6499    2.2306 H   0  0  0  0  0  0  0  0  0 15  0  0
    3.7300    1.3937    0.6099 H   0  0  0  0  0  0  0  0  0 16  0  0
    3.3244    0.2094   -1.5278 H   0  0  0  0  0  0  0  0  0 17  0  0
    1.1073   -0.7069   -2.0307 H   0  0  0  0  0  0  0  0  0 18  0  0
   -1.4577   -1.5002    1.6140 H   0  0  0  0  0  0  0  0  0 19  0  0
  1  3  1  0
  2 12  1  0
  2 13  1  0
  2 11  1  0
  2  3  1  0
  3 10  1  0
  3  4  1  0
  4  9  1  0
  4  5  1  0
  5 14  1  0
  5  6  1  0
  6  7  1  0
  6 15  1  0
  7  8  1  0
  7 16  1  0
  8 17  1  0
  8  9  1  0
  9 18  1  0
 10 19  1  0
M  END
>  <rmg_smiles>  (2) 
CC([C]1[CH][CH][CH][CH][CH]1)S

>  <rmg_adjacency_list>  (2) 
1  S u0 p2 c0 {2,S} {19,S}
2  C u0 p0 c0 {1,S} {3,S} {4,S} {10,S}
3  C u0 p0 c0 {2,S} {11,S} {12,S} {13,S}
4  C u0 p0 c0 {2,S} {5,S} {6,S}
5  C u0 p0 c0 {4,S} {7,S} {14,S}
6  C u0 p0 c0 {4,S} {9,S} {18,S}
7  C u0 p0 c0 {5,S} {8,S} {15,S}
8  C u0 p0 c0 {7,S} {9,S} {16,S}
9  C u0 p0 c0 {6,S} {8,S} {17,S}
10 H u0 p0 c0 {2,S}
11 H u0 p0 c0 {3,S}
12 H u0 p0 c0 {3,S}
13 H u0 p0 c0 {3,S}
14 H u0 p0 c0 {5,S}
15 H u0 p0 c0 {7,S}
16 H u0 p0 c0 {8,S}
17 H u0 p0 c0 {9,S}
18 H u0 p0 c0 {6,S}
19 H u0 p0 c0 {1,S}


>  <multiplicity>  (2) 
1

>  <reaction>  (2) 
rxn_1786

>  <type>  (2) 
r2h

>  <role_mapnums>  (2) 
{"r2h_a": 3, "r2h_h": 1}

>  <role_mapidx>  (2) 
{"r2h_a": 2, "r2h_h": 0}

>  <ordered_mapped_smiles>  (2) 
[H:1][C:3]([C:2]([H:11])([H:12])[H:13])([CH:4]1[CH:5]([H:14])[CH:6]([H:15])[CH:7]([H:16])[CH:8]([H:17])[CH:9]1[H:18])[S:10][H:19]

>  <mol_properties>  (2) 
{"0": {"label": "a_hydrogen", "atom_type": "H0"}, "2": {"label": "acceptor", "atom_type": "Cs"}}

>  <level_of_theory>  (2) 
wb97xd/def2tzvp

>  <lot_method>  (2) 
wb97xd

>  <lot_basis>  (2) 
def2tzvp

>  <spin_multiplicity>  (2) 
1.0

>  <optical_isomers>  (2) 
2.0

>  <modes>  (2) 
IdealGasTranslation(mass=(138.05, 'amu')),         NonlinearRotor(             inertia = ([178.651, 604.969, 626.407

>  <frequency_value>  (2) 
unknown

>  <frequency_units>  (2) 
unknown

>  <frequency_list>  (2) 
unknown

>  <arkane_path>  (2) 
/home/calvin/Dropbox/PersonalFolders/Calvin/HAb_Converged/rxn_1786/output/Species/rxn_1786_CC[c1ccccc1]S/arkane/output.py

>  <path_exists>  (2) 
True

>  <E0_value>  (2) 
-1861292.4343690395

>  <E0_units>  (2) 
kJ/mol

>  <thermo_class>  (2) 
NASA

>  <Cp0_value>  (2) 
33.257888

>  <Cp0_units>  (2) 
J/(mol*K)

>  <CpInf_value>  (2) 
457.29596

>  <CpInf_units>  (2) 
J/(mol*K)

>  <Tmin_value>  (2) 
10.0

>  <Tmin_units>  (2) 
K

>  <Tmax_value>  (2) 
3000.0

>  <Tmax_units>  (2) 
K

>  <polynomials>  (2) 
[{"name": "polynomial1", "class": "NASAPolynomial", "Tmin_value": 10.0, "Tmin_units": "K", "Tmax_value": 722.7664142091418, "Tmax_units": "K", "coeffs": [3.6608515252103317, 0.0342996709971938, 8.82169399017406e-05, -1.5845088814404363e-07, 7.50017080321262e-11, -223861769.3875646, 13.927799547703751]}, {"name": "polynomial2", "class": "NASAPolynomial", "Tmin_value": 722.7664142091418, "Tmin_units": "K", "Tmax_value": 3000.0, "Tmax_units": "K", "coeffs": [1.7720950891779477, 0.07095895759163033, -4.225186023058591e-05, 1.2057319614183655e-08, -1.3280542285806054e-12, -223862180.8602778, 17.691467686274006]}]

>  <H298_value>  (2) 
-444853.3733999712

>  <H298_units>  (2) 
kcal/mol

>  <S298_value>  (2) 
94.73503352813326

>  <S298_units>  (2) 
cal/(mol*K)

>  <Cp_T_value_list>  (2) 
[36.206141885258056, 46.25147059273533, 55.13736489612033, 62.58425090867032, 73.77990452984669, 81.88971530572444, 93.6252970115961, 99.14622064976784, 101.98664250277587]

>  <Cp_T_units>  (2) 
cal/(mol*K)

>  <T_list>  (2) 
[300.0, 400.0, 500.0, 600.0, 800.0, 1000.0, 1500.0, 2000.0, 2400.0]

>  <T_units>  (2) 
K

>  <yaml_path>  (2) 
/home/calvin/Dropbox/PersonalFolders/Calvin/HAb_Converged/rxn_1786/output/Species/rxn_1786_CC[c1ccccc1]S/rxn_1786_CCc1ccccc1S.yml

>  <frequencies_cm1>  (2) 
[38.619925439679996, 113.133583147, 200.19322303395995, 216.23450074148, 249.58744844071998, 264.58494437959996, 299.67523936479995, 404.45856836267996, 414.23028847304, 539.0240126934, 577.57526827988, 629.64075097612, 697.3217582900401, 715.539870344, 784.2097235439999, 800.5325476496399, 862.09507104344, 870.4384582072399, 934.92631734736, 982.8922098075599, 986.64158379228, 999.0158913389199, 1015.9910790499598, 1051.4521912424398, 1079.23601384716, 1092.59230029456, 1120.4928616497198, 1175.6004188427198, 1201.4614855578398, 1220.57917268872, 1250.5123616985998, 1304.7272107999997, 1341.2664396877199, 1372.07860281856, 1401.9293880046, 1478.2421958657599, 1482.9872827218799, 1485.9606873654398, 1528.5771982613599, 1640.6257977278, 1660.5537891264398, 2704.47289747284, 3020.3404882222, 3056.7767123301196, 3100.1005227139995, 3101.6112594843994, 3145.2166162663993, 3154.1093622557996, 3163.29052162864, 3171.9360561465196, 3182.54554846592]

>  <ZPE_kJmol>  (2) 
408.4401292927415

>  <E_elec_kJmol>  (2) 
-1861700.874498332

>  <E0_minus_Eelec_plus_ZPE_kJmol>  (2) 
0.0

>  <rxn>  (2) 
rxn_1786

>  <species_type>  (2) 
p0

>  <species_folder>  (2) 
rxn_1786_CC[c1ccccc1]S

>  <frequencies_cm1_list>  (2) 
[38.619925439679996, 113.133583147, 200.19322303395995, 216.23450074148, 249.58744844071998, 264.58494437959996, 299.67523936479995, 404.45856836267996, 414.23028847304, 539.0240126934, 577.57526827988, 629.64075097612, 697.3217582900401, 715.539870344, 784.2097235439999, 800.5325476496399, 862.09507104344, 870.4384582072399, 934.92631734736, 982.8922098075599, 986.64158379228, 999.0158913389199, 1015.9910790499598, 1051.4521912424398, 1079.23601384716, 1092.59230029456, 1120.4928616497198, 1175.6004188427198, 1201.4614855578398, 1220.57917268872, 1250.5123616985998, 1304.7272107999997, 1341.2664396877199, 1372.07860281856, 1401.9293880046, 1478.2421958657599, 1482.9872827218799, 1485.9606873654398, 1528.5771982613599, 1640.6257977278, 1660.5537891264398, 2704.47289747284, 3020.3404882222, 3056.7767123301196, 3100.1005227139995, 3101.6112594843994, 3145.2166162663993, 3154.1093622557996, 3163.29052162864, 3171.9360561465196, 3182.54554846592]

>  <E0_kJmol>  (2) 
-1.86129e+06

>  <H298_kJmol>  (2) 
-1.86127e+06

$$$$

     RDKit          3D

 26 25  0  0  0  0  0  0  0  0999 V2000
    0.7650   -1.9846   -3.1771 C   0  0  0  0  0  0  0  0  0  1  0  0
    0.1063   -2.1142   -2.1748 C   0  0  0  0  0  0  0  0  0  2  0  0
   -0.6411   -2.1269   -1.0031 C   0  0  0  0  0  3  0  0  0  3  0  0
   -1.3082   -3.0609   -0.3560 C   0  0  0  0  0  0  0  0  0  4  0  0
    1.3425   -1.9063   -4.0667 H   0  0  0  0  0  0  0  0  0  5  0  0
   -0.7599   -0.8411   -0.3665 H   0  0  0  0  0  0  0  0  0  6  0  0
   -1.8552   -2.8253    0.5503 H   0  0  0  0  0  0  0  0  0  7  0  0
   -1.3422   -4.0879   -0.7093 H   0  0  0  0  0  0  0  0  0  8  0  0
   -1.6748    1.0213   -1.0273 C   0  0  0  0  0  0  0  0  0  9  0  0
   -0.9887    0.3017    0.1212 C   0  0  0  0  0  0  0  0  0 10  0  0
    0.3498    0.8669    0.4951 C   0  0  0  0  0  0  0  0  0 11  0  0
    0.5914    1.5311    1.6940 C   0  0  0  0  0  0  0  0  0 12  0  0
    1.8459    2.0519    1.9756 C   0  0  0  0  0  0  0  0  0 13  0  0
    2.8822    1.9124    1.0678 C   0  0  0  0  0  0  0  0  0 14  0  0
    2.6535    1.2509   -0.1303 C   0  0  0  0  0  0  0  0  0 15  0  0
    1.4011    0.7365   -0.4144 C   0  0  0  0  0  0  0  0  0 16  0  0
   -2.1663    0.0289    1.4467 S   0  0  0  0  0  0  0  0  0 17  0  0
   -2.5872    0.5013   -1.3231 H   0  0  0  0  0  0  0  0  0 18  0  0
   -1.9256    2.0478   -0.7495 H   0  0  0  0  0  0  0  0  0 19  0  0
   -1.0081    1.0565   -1.8894 H   0  0  0  0  0  0  0  0  0 20  0  0
   -0.2125    1.6572    2.4073 H   0  0  0  0  0  0  0  0  0 21  0  0
    2.0100    2.5709    2.9117 H   0  0  0  0  0  0  0  0  0 22  0  0
    3.8621    2.3147    1.2911 H   0  0  0  0  0  0  0  0  0 23  0  0
    3.4565    1.1304   -0.8466 H   0  0  0  0  0  0  0  0  0 24  0  0
    1.2394    0.2141   -1.3495 H   0  0  0  0  0  0  0  0  0 25  0  0
   -1.3256   -0.5792    2.2951 H   0  0  0  0  0  0  0  0  0 26  0  0
  1  5  1  0
  1  2  1  0
  2  3  1  0
  3  4  1  0
  4  7  1  0
  4  8  1  0
  6 10  1  0
  9 18  1  0
  9 20  1  0
  9 10  1  0
  9 19  1  0
 10 17  1  0
 10 11  1  0
 11 16  1  0
 11 12  1  0
 12 21  1  0
 12 13  1  0
 13 14  1  0
 13 22  1  0
 14 15  1  0
 14 23  1  0
 15 16  1  0
 15 24  1  0
 16 25  1  0
 17 26  1  0
M  RAD  1   3   2
M  END
>  <rmg_smiles>  (3) 
CC([C]1[CH][CH][CH][CH][CH]1)S.[CH][C][C][CH2]

>  <rmg_adjacency_list>  (3) 
multiplicity 2
1  S u0 p2 c0 {2,S} {25,S}
2  C u0 p0 c0 {1,S} {3,S} {4,S} {14,S}
3  C u0 p0 c0 {2,S} {15,S} {16,S} {17,S}
4  C u0 p0 c0 {2,S} {5,S} {6,S}
5  C u0 p0 c0 {4,S} {7,S} {18,S}
6  C u0 p0 c0 {4,S} {9,S} {22,S}
7  C u0 p0 c0 {5,S} {8,S} {19,S}
8  C u0 p0 c0 {7,S} {9,S} {20,S}
9  C u0 p0 c0 {6,S} {8,S} {21,S}
10 C u0 p0 c0 {11,S} {23,S} {24,S}
11 C u1 p1 c0 {10,S} {12,S}
12 C u0 p1 c0 {11,S} {13,S}
13 C u0 p1 c0 {12,S} {26,S}
14 H u0 p0 c0 {2,S}
15 H u0 p0 c0 {3,S}
16 H u0 p0 c0 {3,S}
17 H u0 p0 c0 {3,S}
18 H u0 p0 c0 {5,S}
19 H u0 p0 c0 {7,S}
20 H u0 p0 c0 {8,S}
21 H u0 p0 c0 {9,S}
22 H u0 p0 c0 {6,S}
23 H u0 p0 c0 {10,S}
24 H u0 p0 c0 {10,S}
25 H u0 p0 c0 {1,S}
26 H u0 p0 c0 {13,S}


>  <multiplicity>  (3) 
2

>  <reaction>  (3) 
rxn_1786

>  <type>  (3) 
ts

>  <role_mapnums>  (3) 
{"*2": 6, "*1": 3, "*3": 10, "*0": 11, "*4": 2}

>  <role_mapidx>  (3) 
{"*2": 5, "*1": 2, "*3": 9, "*0": 10, "*4": 1}

>  <ordered_mapped_smiles>  (3) 
[CH2:1]([CH2:2][CH:3][CH:4]([H:7])[H:8])[H:5].[H:6][C:10]([C:9]([H:18])([H:19])[H:20])([CH:11]1[CH:12]([H:21])[CH:13]([H:22])[CH:14]([H:23])[CH:15]([H:24])[CH:16]1[H:25])[S:17][H:26]

>  <mol_properties>  (3) 
{"1": {"label": "*4", "atom_type": "C2s"}, "2": {"label": "*1", "atom_type": "C2s"}, "5": {"label": "*2", "atom_type": "H0"}, "9": {"label": "*3", "atom_type": "Cs"}, "10": {"label": "*0", "atom_type": "Cs"}}

>  <level_of_theory>  (3) 
wb97xd/def2tzvp

>  <lot_method>  (3) 
wb97xd

>  <lot_basis>  (3) 
def2tzvp

>  <spin_multiplicity>  (3) 
2.0

>  <optical_isomers>  (3) 
2.0

>  <modes>  (3) 
IdealGasTranslation(mass=(189.074, 'amu')),         NonlinearRotor(             inertia = ([614.921, 940.66, 1331.66

>  <frequency_value>  (3) 
-1504.2

>  <frequency_units>  (3) 
cm^-1

>  <frequency_list>  (3) 
unknown

>  <arkane_path>  (3) 
/home/calvin/Dropbox/PersonalFolders/Calvin/HAb_Converged/rxn_1786/output/rxns/TS0/arkane/output.py

>  <path_exists>  (3) 
True

>  <E0_value>  (3) 
-2265630.0

>  <E0_units>  (3) 
kJ/mol

>  <thermo_class>  (3) 
unknown

>  <Cp0_value>  (3) 
unknown

>  <Cp0_units>  (3) 
unknown

>  <CpInf_value>  (3) 
unknown

>  <CpInf_units>  (3) 
unknown

>  <Tmin_value>  (3) 
unknown

>  <Tmin_units>  (3) 
unknown

>  <Tmax_value>  (3) 
unknown

>  <Tmax_units>  (3) 
unknown

>  <polynomials>  (3) 
unknown

>  <H298_value>  (3) 
unknown

>  <H298_units>  (3) 
unknown

>  <S298_value>  (3) 
unknown

>  <S298_units>  (3) 
unknown

>  <Cp_T_value_list>  (3) 
unknown

>  <Cp_T_units>  (3) 
unknown

>  <T_list>  (3) 
unknown

>  <T_units>  (3) 
unknown

>  <yaml_path>  (3) 
unknown

>  <frequencies_cm1>  (3) 
unknown

>  <ZPE_kJmol>  (3) 
unknown

>  <E_elec_kJmol>  (3) 
unknown

>  <E0_minus_Eelec_plus_ZPE_kJmol>  (3) 
unknown

>  <rxn>  (3) 
unknown

>  <species_type>  (3) 
unknown

>  <species_folder>  (3) 
unknown

>  <frequencies_cm1_list>  (3) 
[]

>  <ts_imag_freq_cm1>  (3) 
-1522.474

>  <ts_freq_out_path>  (3) 
/home/calvin/Dropbox/PersonalFolders/Calvin/HAb_Converged/rxn_1786/output/rxns/TS0/geometry/freq.out

>  <E0_kJmol>  (3) 
-2.26563e+06

>  <H298_kJmol>  (3) 
unknown

$$$$

     RDKit          3D

  7  6  0  0  0  0  0  0  0  0999 V2000
    1.3002    0.7433    2.1279 C   0  0  0  0  0  0  0  0  0  1  0  0
    0.5758    0.3292    1.2319 C   0  0  0  0  0  0  0  0  0  2  0  0
   -0.2057   -0.1176    0.2652 C   0  0  0  0  0  3  0  0  0  3  0  0
   -0.9747   -0.5572   -0.6858 C   0  0  0  0  0  0  0  0  0  4  0  0
    1.9293    1.1030    2.9060 H   0  0  0  0  0  0  0  0  0  5  0  0
   -1.9977   -0.8727   -0.4932 H   0  0  0  0  0  0  0  0  0  6  0  0
   -0.6274   -0.6280   -1.7143 H   0  0  0  0  0  0  0  0  0  7  0  0
  1  5  1  0
  1  2  1  0
  2  3  1  0
  3  4  1  0
  4  7  1  0
  4  6  1  0
M  RAD  1   3   2
M  END
>  <rmg_smiles>  (4) 
[CH]C[C][CH2]

>  <rmg_adjacency_list>  (4) 
multiplicity 2
1 C u0 p0 c0 {2,S} {5,S} {6,S}
2 C u1 p1 c0 {1,S} {3,S}
3 C u0 p1 c0 {2,S} {4,S}
4 C u0 p1 c0 {3,S} {7,S}
5 H u0 p0 c0 {1,S}
6 H u0 p0 c0 {1,S}
7 H u0 p0 c0 {4,S}


>  <multiplicity>  (4) 
2

>  <reaction>  (4) 
rxn_1786

>  <type>  (4) 
r1

>  <role_mapnums>  (4) 
{}

>  <role_mapidx>  (4) 
{}

>  <ordered_mapped_smiles>  (4) 
[CH2:1]([CH2:2][CH:3][CH:4]([H:6])[H:7])[H:5]

>  <level_of_theory>  (4) 
wb97xd/def2tzvp

>  <lot_method>  (4) 
wb97xd

>  <lot_basis>  (4) 
def2tzvp

>  <spin_multiplicity>  (4) 
2.0

>  <optical_isomers>  (4) 
1.0

>  <modes>  (4) 
IdealGasTranslation(mass=(51.0235, 'amu')),         NonlinearRotor(             inertia = ([1.72772, 120.695, 122.423

>  <frequency_value>  (4) 
unknown

>  <frequency_units>  (4) 
unknown

>  <frequency_list>  (4) 
unknown

>  <arkane_path>  (4) 
/home/calvin/Dropbox/PersonalFolders/Calvin/HAb_Converged/rxn_1786/output/Species/rxn_1786_CtC[C]=C/arkane/output.py

>  <path_exists>  (4) 
True

>  <E0_value>  (4) 
-404373.4116208043

>  <E0_units>  (4) 
kJ/mol

>  <thermo_class>  (4) 
NASA

>  <Cp0_value>  (4) 
33.257888

>  <Cp0_units>  (4) 
J/(mol*K)

>  <CpInf_value>  (4) 
157.97496800000002

>  <CpInf_units>  (4) 
J/(mol*K)

>  <Tmin_value>  (4) 
10.0

>  <Tmin_units>  (4) 
K

>  <Tmax_value>  (4) 
3000.0

>  <Tmax_units>  (4) 
K

>  <polynomials>  (4) 
[{"name": "polynomial1", "class": "NASAPolynomial", "Tmin_value": 10.0, "Tmin_units": "K", "Tmax_value": 324.9481434603645, "Tmax_units": "K", "coeffs": [3.860961364971355, 0.012108435500850123, 9.288734115861749e-05, -3.6032360880084985e-07, 3.9419326408449565e-10, -48634890.06087829, 7.523329778540559]}, {"name": "polynomial2", "class": "NASAPolynomial", "Tmin_value": 324.9481434603645, "Tmin_units": "K", "Tmax_value": 3000.0, "Tmax_units": "K", "coeffs": [4.571574631930448, 0.019088306141430436, -1.1931597960835935e-05, 3.6687250969441827e-09, -4.3673841784026295e-13, -48635019.276542336, 3.616187301341094]}]

>  <H298_value>  (4) 
-96643.630129285

>  <H298_units>  (4) 
kcal/mol

>  <S298_value>  (4) 
69.25606681631054

>  <S298_units>  (4) 
cal/(mol*K)

>  <Cp_T_value_list>  (4) 
[18.515956981881043, 20.9083123552338, 22.980299804192455, 24.77058144276671, 27.63309213731296, 29.729144789818942, 32.846332355122094, 34.54516293544259, 35.53925735145252]

>  <Cp_T_units>  (4) 
cal/(mol*K)

>  <T_list>  (4) 
[300.0, 400.0, 500.0, 600.0, 800.0, 1000.0, 1500.0, 2000.0, 2400.0]

>  <T_units>  (4) 
K

>  <yaml_path>  (4) 
/home/calvin/Dropbox/PersonalFolders/Calvin/HAb_Converged/rxn_1786/output/Species/rxn_1786_CtC[C]=C/rxn_1786_CtCC=C.yml

>  <frequencies_cm1>  (4) 
[60.93762772967999, 224.90750320063995, 350.559600586, 378.97518584015995, 541.79827476268, 666.4821272179199, 890.0643022518001, 901.2506213380799, 969.4947214482399, 1424.29515919184, 1805.7630607031601, 2002.63952982756, 3064.40593302064, 3135.01227608088, 3426.46086703232]

>  <ZPE_kJmol>  (4) 
118.68781105781598

>  <E_elec_kJmol>  (4) 
-404492.0994318621

>  <E0_minus_Eelec_plus_ZPE_kJmol>  (4) 
0.0

>  <rxn>  (4) 
rxn_1786

>  <species_type>  (4) 
p1

>  <species_folder>  (4) 
rxn_1786_CtC[C]=C

>  <frequencies_cm1_list>  (4) 
[60.93762772967999, 224.90750320063995, 350.559600586, 378.97518584015995, 541.79827476268, 666.4821272179199, 890.0643022518001, 901.2506213380799, 969.4947214482399, 1424.29515919184, 1805.7630607031601, 2002.63952982756, 3064.40593302064, 3135.01227608088, 3426.46086703232]

>  <E0_kJmol>  (4) 
-404373

>  <H298_kJmol>  (4) 
-404357

$$$$

     RDKit          3D

 18 18  0  0  0  0  0  0  0  0999 V2000
    2.7512    0.0489   -0.5734 C   0  0  0  0  0  0  0  0  0  1  0  0
    1.4277   -0.4568   -0.0957 C   0  0  0  0  0  3  0  0  0  2  0  0
    0.5787   -1.2468   -0.9255 C   0  0  0  0  0  0  0  0  0  3  0  0
    0.9949   -1.6342   -2.2194 C   0  0  0  0  0  0  0  0  0  4  0  0
    0.1850   -2.4001   -3.0330 C   0  0  0  0  0  0  0  0  0  5  0  0
   -1.0677   -2.8151   -2.5986 C   0  0  0  0  0  0  0  0  0  6  0  0
   -1.4988   -2.4481   -1.3288 C   0  0  0  0  0  0  0  0  0  7  0  0
   -0.6986   -1.6827   -0.5072 C   0  0  0  0  0  0  0  0  0  8  0  0
    0.9655   -0.2084    1.5666 S   0  0  0  0  0  0  0  0  0  9  0  0
    3.1739    0.7873    0.1063 H   0  0  0  0  0  0  0  0  0 10  0  0
    3.4796   -0.7649   -0.6651 H   0  0  0  0  0  0  0  0  0 11  0  0
    2.6603    0.5178   -1.5558 H   0  0  0  0  0  0  0  0  0 12  0  0
    1.9693   -1.3375   -2.5829 H   0  0  0  0  0  0  0  0  0 13  0  0
    0.5357   -2.6808   -4.0185 H   0  0  0  0  0  0  0  0  0 14  0  0
   -1.6995   -3.4158   -3.2398 H   0  0  0  0  0  0  0  0  0 15  0  0
   -2.4742   -2.7614   -0.9778 H   0  0  0  0  0  0  0  0  0 16  0  0
   -1.0689   -1.4003    0.4702 H   0  0  0  0  0  0  0  0  0 17  0  0
    1.8478    0.7580    1.8433 H   0  0  0  0  0  0  0  0  0 18  0  0
  1 10  1  0
  1 11  1  0
  1 12  1  0
  1  2  1  0
  2  9  1  0
  2  3  1  0
  3  4  1  0
  3  8  1  0
  4  5  1  0
  4 13  1  0
  5 14  1  0
  5  6  1  0
  6 15  1  0
  6  7  1  0
  7  8  1  0
  7 16  1  0
  8 17  1  0
  9 18  1  0
M  RAD  1   2   2
M  END
>  <rmg_smiles>  (5) 
C[C]([C]1[CH][CH][CH][CH][CH]1)S

>  <rmg_adjacency_list>  (5) 
multiplicity 2
1  S u0 p2 c0 {4,S} {18,S}
2  C u0 p0 c0 {4,S} {10,S} {11,S} {12,S}
3  C u0 p0 c0 {4,S} {5,S} {6,S}
4  C u1 p0 c0 {1,S} {2,S} {3,S}
5  C u0 p0 c0 {3,S} {7,S} {13,S}
6  C u0 p0 c0 {3,S} {9,S} {17,S}
7  C u0 p0 c0 {5,S} {8,S} {14,S}
8  C u0 p0 c0 {7,S} {9,S} {15,S}
9  C u0 p0 c0 {6,S} {8,S} {16,S}
10 H u0 p0 c0 {2,S}
11 H u0 p0 c0 {2,S}
12 H u0 p0 c0 {2,S}
13 H u0 p0 c0 {5,S}
14 H u0 p0 c0 {7,S}
15 H u0 p0 c0 {8,S}
16 H u0 p0 c0 {9,S}
17 H u0 p0 c0 {6,S}
18 H u0 p0 c0 {1,S}


>  <multiplicity>  (5) 
2

>  <reaction>  (5) 
rxn_1786

>  <type>  (5) 
r2

>  <role_mapnums>  (5) 
{}

>  <role_mapidx>  (5) 
{}

>  <ordered_mapped_smiles>  (5) 
[C:1]([C:2]([CH:3]1[CH:4]([H:13])[CH:5]([H:14])[CH:6]([H:15])[CH:7]([H:16])[CH:8]1[H:17])[S:9][H:18])([H:10])([H:11])[H:12]

>  <level_of_theory>  (5) 
wb97xd/def2tzvp

>  <lot_method>  (5) 
wb97xd

>  <lot_basis>  (5) 
def2tzvp

>  <spin_multiplicity>  (5) 
2.0

>  <optical_isomers>  (5) 
2.0

>  <modes>  (5) 
IdealGasTranslation(mass=(137.042, 'amu')),         NonlinearRotor(             inertia = ([173.921, 537.489, 706.933

>  <frequency_value>  (5) 
unknown

>  <frequency_units>  (5) 
unknown

>  <frequency_list>  (5) 
unknown

>  <arkane_path>  (5) 
/home/calvin/Dropbox/PersonalFolders/Calvin/HAb_Converged/rxn_1786/output/Species/rxn_1786_C[C][c1ccccc1]S/arkane/output.py

>  <path_exists>  (5) 
True

>  <E0_value>  (5) 
-1859635.999590636

>  <E0_units>  (5) 
kJ/mol

>  <thermo_class>  (5) 
NASA

>  <Cp0_value>  (5) 
33.257888

>  <Cp0_units>  (5) 
J/(mol*K)

>  <CpInf_value>  (5) 
432.352544

>  <CpInf_units>  (5) 
J/(mol*K)

>  <Tmin_value>  (5) 
10.0

>  <Tmin_units>  (5) 
K

>  <Tmax_value>  (5) 
3000.0

>  <Tmax_units>  (5) 
K

>  <polynomials>  (5) 
[{"name": "polynomial1", "class": "NASAPolynomial", "Tmin_value": 10.0, "Tmin_units": "K", "Tmax_value": 772.0295036970148, "Tmax_units": "K", "coeffs": [3.5929422818437096, 0.04140702300232924, 5.219148012962769e-05, -1.0698478782351069e-07, 4.9895198024629436e-11, -223662546.9277343, 14.551201455978017]}, {"name": "polynomial2", "class": "NASAPolynomial", "Tmin_value": 772.0295036970148, "Tmin_units": "K", "Tmax_value": 3000.0, "Tmax_units": "K", "coeffs": [3.877316089975616, 0.06379654613973394, -3.7673795416994426e-05, 1.0652559346798017e-08, -1.1630174914439727e-12, -223663301.9865974, 8.647122048037788]}]

>  <H298_value>  (5) 
-444457.343646824

>  <H298_units>  (5) 
kcal/mol

>  <S298_value>  (5) 
97.03899921770716

>  <S298_units>  (5) 
cal/(mol*K)

>  <Cp_T_value_list>  (5) 
[36.22249054625582, 45.57991752423582, 53.83277869407935, 60.77631112890387, 71.10435972485959, 78.47400706539639, 89.16736136102854, 94.16859229239351, 96.70306532241592]

>  <Cp_T_units>  (5) 
cal/(mol*K)

>  <T_list>  (5) 
[300.0, 400.0, 500.0, 600.0, 800.0, 1000.0, 1500.0, 2000.0, 2400.0]

>  <T_units>  (5) 
K

>  <yaml_path>  (5) 
/home/calvin/Dropbox/PersonalFolders/Calvin/HAb_Converged/rxn_1786/output/Species/rxn_1786_C[C][c1ccccc1]S/rxn_1786_CCc1ccccc1S.yml

>  <frequencies_cm1>  (5) 
[47.334129810760004, 109.61768666315999, 132.75256020623996, 175.60941558835998, 206.74432702924, 311.73366558671995, 334.74493339404, 395.42161568156, 413.13843780715996, 485.55766499188, 517.1183295225999, 627.03129655452, 669.59287156788, 690.35176819024, 766.4173645798799, 829.1610094487199, 857.4461219818, 896.8763516892399, 944.6225006191999, 969.9273415234001, 981.2029314188399, 993.137751905, 1007.50348519444, 1043.7062318014798, 1085.7115810039197, 1096.829230237, 1165.47161549572, 1172.00211853504, 1199.9988176846798, 1307.7143494142, 1334.1797108374801, 1349.9119742055998, 1400.8993402065998, 1464.6867668440798, 1468.6490173737197, 1482.5477956614, 1507.35821362256, 1596.8625002834399, 1620.78707713832, 2710.3647708773997, 2988.74548876488, 3053.7346378333596, 3101.6387274256795, 3153.40206276784, 3159.3900739668798, 3171.11888489344, 3180.01849786816, 3186.80994634964]

>  <ZPE_kJmol>  (5) 
373.0291325178228

>  <E_elec_kJmol>  (5) 
-1860009.0287231535

>  <E0_minus_Eelec_plus_ZPE_kJmol>  (5) 
0.0

>  <rxn>  (5) 
rxn_1786

>  <species_type>  (5) 
r1

>  <species_folder>  (5) 
rxn_1786_C[C][c1ccccc1]S

>  <frequencies_cm1_list>  (5) 
[47.334129810760004, 109.61768666315999, 132.75256020623996, 175.60941558835998, 206.74432702924, 311.73366558671995, 334.74493339404, 395.42161568156, 413.13843780715996, 485.55766499188, 517.1183295225999, 627.03129655452, 669.59287156788, 690.35176819024, 766.4173645798799, 829.1610094487199, 857.4461219818, 896.8763516892399, 944.6225006191999, 969.9273415234001, 981.2029314188399, 993.137751905, 1007.50348519444, 1043.7062318014798, 1085.7115810039197, 1096.829230237, 1165.47161549572, 1172.00211853504, 1199.9988176846798, 1307.7143494142, 1334.1797108374801, 1349.9119742055998, 1400.8993402065998, 1464.6867668440798, 1468.6490173737197, 1482.5477956614, 1507.35821362256, 1596.8625002834399, 1620.78707713832, 2710.3647708773997, 2988.74548876488, 3053.7346378333596, 3101.6387274256795, 3153.40206276784, 3159.3900739668798, 3171.11888489344, 3180.01849786816, 3186.80994634964]

>  <E0_kJmol>  (5) 
-1.85964e+06

>  <H298_kJmol>  (5) 
-1.85961e+06

$$$$
