
     RDKit          3D

 10  9  0  0  0  0  0  0  0  0999 V2000
   -0.4253   -1.3419   -1.2935 C   0  0  0  0  0  2  0  0  0  1  0  0
   -0.2686   -0.6375   -0.3297 C   0  0  0  0  0  2  0  0  0  2  0  0
   -0.0081    0.1572    0.8248 C   0  0  0  0  0  0  0  0  0  3  0  0
    0.5596    1.5404    0.5924 C   0  0  0  0  0  0  0  0  0  4  0  0
   -0.5932   -1.9458   -2.1523 H   0  0  0  0  0  0  0  0  0  5  0  0
    0.7978   -0.3753    1.3290 H   0  0  0  0  0  0  0  0  0  6  0  0
   -0.8155    0.1193    1.5553 H   0  0  0  0  0  0  0  0  0  7  0  0
   -0.1476    2.1777    0.0557 H   0  0  0  0  0  0  0  0  0  8  0  0
    0.7925    2.0190    1.5446 H   0  0  0  0  0  0  0  0  0  9  0  0
    1.4767    1.4817    0.0045 H   0  0  0  0  0  0  0  0  0 10  0  0
  1  5  1  0
  1  2  1  0
  2  3  1  0
  3  4  1  0
  3  6  1  0
  3  7  1  0
  4  8  1  0
  4  9  1  0
  4 10  1  0
M  RAD  2   1   3   2   3
M  END
>  <rmg_smiles>  (1) 
[CH][C]CC

>  <rmg_adjacency_list>  (1) 
1  C u0 p0 c0 {2,S} {3,S} {5,S} {6,S}
2  C u0 p0 c0 {1,S} {7,S} {8,S} {9,S}
3  C u0 p1 c0 {1,S} {4,S}
4  C u0 p1 c0 {3,S} {10,S}
5  H u0 p0 c0 {1,S}
6  H u0 p0 c0 {1,S}
7  H u0 p0 c0 {2,S}
8  H u0 p0 c0 {2,S}
9  H u0 p0 c0 {2,S}
10 H u0 p0 c0 {4,S}


>  <multiplicity>  (1) 
1

>  <reaction>  (1) 
rxn_1281

>  <type>  (1) 
r1h

>  <role_mapnums>  (1) 
{"r1h_a": 3, "r1h_h": 6}

>  <role_mapidx>  (1) 
{"r1h_a": 2, "r1h_h": 5}

>  <ordered_mapped_smiles>  (1) 
[C:1]([C:2][C:3]([C:4]([H:8])([H:9])[H:10])([H:6])[H:7])[H:5]

>  <mol_properties>  (1) 
{"2": {"label": "donator", "atom_type": "Cs"}, "5": {"label": "d_hydrogen", "atom_type": "H0"}}

>  <level_of_theory>  (1) 
wb97xd/def2tzvp

>  <lot_method>  (1) 
wb97xd

>  <lot_basis>  (1) 
def2tzvp

>  <spin_multiplicity>  (1) 
1.0

>  <optical_isomers>  (1) 
1.0

>  <modes>  (1) 
IdealGasTranslation(mass=(54.047, 'amu')),         NonlinearRotor(             inertia = ([18.311, 110.882, 122.965

>  <frequency_value>  (1) 
unknown

>  <frequency_units>  (1) 
unknown

>  <frequency_list>  (1) 
unknown

>  <arkane_path>  (1) 
/home/calvin/Dropbox/PersonalFolders/Calvin/HAb_Converged/rxn_1281/output/Species/rxn_1281_CtCCC/arkane/output.py

>  <path_exists>  (1) 
True

>  <E0_value>  (1) 
-409281.9068125439

>  <E0_units>  (1) 
kJ/mol

>  <thermo_class>  (1) 
NASA

>  <Cp0_value>  (1) 
33.257888

>  <Cp0_units>  (1) 
J/(mol*K)

>  <CpInf_value>  (1) 
232.805216

>  <CpInf_units>  (1) 
J/(mol*K)

>  <Tmin_value>  (1) 
10.0

>  <Tmin_units>  (1) 
K

>  <Tmax_value>  (1) 
3000.0

>  <Tmax_units>  (1) 
K

>  <polynomials>  (1) 
[{"name": "polynomial1", "class": "NASAPolynomial", "Tmin_value": 10.0, "Tmin_units": "K", "Tmax_value": 360.48121370424, "Tmax_units": "K", "coeffs": [3.964907651517416, 0.0024252181225602747, 0.00010970866124517926, -2.330425775882924e-07, 1.6483387684637681e-10, -49225243.05086936, 8.23900007534587]}, {"name": "polynomial2", "class": "NASAPolynomial", "Tmin_value": 360.48121370424, "Tmin_units": "K", "Tmax_value": 3000.0, "Tmax_units": "K", "coeffs": [1.173366775306642, 0.03340704549885685, -1.9235392341731885e-05, 5.470981511725664e-09, -6.120493514194064e-13, -49225041.83097189, 18.857768088551204]}]

>  <H298_value>  (1) 
-97816.99696801163

>  <H298_units>  (1) 
kcal/mol

>  <S298_value>  (1) 
68.93760489416931

>  <S298_units>  (1) 
cal/(mol*K)

>  <Cp_T_value_list>  (1) 
[19.095578790385176, 23.435119416919605, 27.251876378154844, 30.59356719880144, 36.04553968052718, 40.149424943692715, 46.44174128793762, 49.72179624324852, 51.42678973904542]

>  <Cp_T_units>  (1) 
cal/(mol*K)

>  <T_list>  (1) 
[300.0, 400.0, 500.0, 600.0, 800.0, 1000.0, 1500.0, 2000.0, 2400.0]

>  <T_units>  (1) 
K

>  <yaml_path>  (1) 
/home/calvin/Dropbox/PersonalFolders/Calvin/HAb_Converged/rxn_1281/output/Species/rxn_1281_CtCCC/rxn_1281_CtCCC.yml

>  <frequencies_cm1>  (1) 
[204.17607451956, 218.97442788415998, 366.0789874092, 525.48918462768, 681.08133800824, 687.0144133247201, 787.3273348792799, 847.3241856201199, 1026.4769656336, 1086.98884027344, 1103.26359548184, 1280.9125057102399, 1344.0544357276399, 1402.80149514024, 1466.62325670432, 1482.32805213116, 1490.70577422156, 2222.88434999592, 3023.4855674987602, 3025.88901236076, 3057.6625534364, 3103.54088235932, 3108.5949835548395, 3438.35448560656]

>  <ZPE_kJmol>  (1) 
221.20174166210896

>  <E_elec_kJmol>  (1) 
-409503.108554206

>  <E0_minus_Eelec_plus_ZPE_kJmol>  (1) 
0.0

>  <rxn>  (1) 
rxn_1281

>  <species_type>  (1) 
r0

>  <species_folder>  (1) 
rxn_1281_CtCCC

>  <frequencies_cm1_list>  (1) 
[204.17607451956, 218.97442788415998, 366.0789874092, 525.48918462768, 681.08133800824, 687.0144133247201, 787.3273348792799, 847.3241856201199, 1026.4769656336, 1086.98884027344, 1103.26359548184, 1280.9125057102399, 1344.0544357276399, 1402.80149514024, 1466.62325670432, 1482.32805213116, 1490.70577422156, 2222.88434999592, 3023.4855674987602, 3025.88901236076, 3057.6625534364, 3103.54088235932, 3108.5949835548395, 3438.35448560656]

>  <E0_kJmol>  (1) 
-409282

>  <H298_kJmol>  (1) 
-409266

$$$$

     RDKit          3D

 12 11  0  0  0  0  0  0  0  0999 V2000
   -1.3075    0.6697   -0.1931 H   0  0  0  0  0  0  0  0  0  1  0  0
   -0.0783    0.8756    1.4802 C   0  0  0  0  0  0  0  0  0  2  0  0
   -0.4870    0.1050    0.2498 C   0  0  0  0  0  0  0  0  0  3  0  0
    0.7933    0.1374   -0.9931 S   0  0  0  0  0  0  0  0  0  4  0  0
   -1.1137   -1.2420    0.5053 C   0  0  0  0  0  0  0  0  0  5  0  0
    0.2956    1.8685    1.2264 H   0  0  0  0  0  0  0  0  0  6  0  0
    0.7044    0.3504    2.0378 H   0  0  0  0  0  0  0  0  0  7  0  0
   -0.9364    0.9914    2.1457 H   0  0  0  0  0  0  0  0  0  8  0  0
    0.0994   -0.5033   -1.9447 H   0  0  0  0  0  0  0  0  0  9  0  0
   -1.9380   -1.1418    1.2160 H   0  0  0  0  0  0  0  0  0 10  0  0
   -1.5124   -1.6720   -0.4150 H   0  0  0  0  0  0  0  0  0 11  0  0
   -0.3848   -1.9428    0.9233 H   0  0  0  0  0  0  0  0  0 12  0  0
  1  3  1  0
  2  7  1  0
  2  8  1  0
  2  6  1  0
  2  3  1  0
  3  5  1  0
  3  4  1  0
  4  9  1  0
  5 11  1  0
  5 12  1  0
  5 10  1  0
M  END
>  <rmg_smiles>  (2) 
CC(S)C

>  <rmg_adjacency_list>  (2) 
1  S u0 p2 c0 {2,S} {12,S}
2  C u0 p0 c0 {1,S} {3,S} {4,S} {5,S}
3  C u0 p0 c0 {2,S} {6,S} {7,S} {8,S}
4  C u0 p0 c0 {2,S} {9,S} {10,S} {11,S}
5  H u0 p0 c0 {2,S}
6  H u0 p0 c0 {3,S}
7  H u0 p0 c0 {3,S}
8  H u0 p0 c0 {3,S}
9  H u0 p0 c0 {4,S}
10 H u0 p0 c0 {4,S}
11 H u0 p0 c0 {4,S}
12 H u0 p0 c0 {1,S}


>  <multiplicity>  (2) 
1

>  <reaction>  (2) 
rxn_1281

>  <type>  (2) 
r2h

>  <role_mapnums>  (2) 
{"r2h_a": 3, "r2h_h": 1}

>  <role_mapidx>  (2) 
{"r2h_a": 2, "r2h_h": 0}

>  <ordered_mapped_smiles>  (2) 
[H:1][C:3]([C:2]([H:6])([H:7])[H:8])([S:4][H:9])[C:5]([H:10])([H:11])[H:12]

>  <mol_properties>  (2) 
{"0": {"label": "a_hydrogen", "atom_type": "H0"}, "2": {"label": "acceptor", "atom_type": "Cs"}}

>  <level_of_theory>  (2) 
wb97xd/def2tzvp

>  <lot_method>  (2) 
wb97xd

>  <lot_basis>  (2) 
def2tzvp

>  <spin_multiplicity>  (2) 
1.0

>  <optical_isomers>  (2) 
1.0

>  <modes>  (2) 
IdealGasTranslation(mass=(76.0347, 'amu')),         NonlinearRotor(             inertia = ([63.6143, 114.445, 159.626

>  <frequency_value>  (2) 
unknown

>  <frequency_units>  (2) 
unknown

>  <frequency_list>  (2) 
unknown

>  <arkane_path>  (2) 
/home/calvin/Dropbox/PersonalFolders/Calvin/HAb_Converged/rxn_1281/output/Species/rxn_1281_CC[S]C/arkane/output.py

>  <path_exists>  (2) 
True

>  <E0_value>  (2) 
-1358037.5822550058

>  <E0_units>  (2) 
kJ/mol

>  <thermo_class>  (2) 
NASA

>  <Cp0_value>  (2) 
33.257888

>  <Cp0_units>  (2) 
J/(mol*K)

>  <CpInf_value>  (2) 
282.692048

>  <CpInf_units>  (2) 
J/(mol*K)

>  <Tmin_value>  (2) 
10.0

>  <Tmin_units>  (2) 
K

>  <Tmax_value>  (2) 
3000.0

>  <Tmax_units>  (2) 
K

>  <polynomials>  (2) 
[{"name": "polynomial1", "class": "NASAPolynomial", "Tmin_value": 10.0, "Tmin_units": "K", "Tmax_value": 320.9959568783199, "Tmax_units": "K", "coeffs": [3.875707707258065, 0.009381393221698805, 0.00011821761563925809, -2.840791683127776e-07, 2.2503054199897307e-10, -163334191.46119478, 9.447715656882277]}, {"name": "polynomial2", "class": "NASAPolynomial", "Tmin_value": 320.9959568783199, "Tmin_units": "K", "Tmax_value": 3000.0, "Tmax_units": "K", "coeffs": [1.4804313687165462, 0.0392293738339864, -2.1260332941863044e-05, 5.597575733417067e-09, -5.766692868203356e-13, -163334037.68600142, 18.28172887429199]}]

>  <H298_value>  (2) 
-324574.4746758071

>  <H298_units>  (2) 
kcal/mol

>  <S298_value>  (2) 
74.54106238673705

>  <S298_units>  (2) 
cal/(mol*K)

>  <Cp_T_value_list>  (2) 
[22.817742792292417, 28.047451919441322, 32.67700803830931, 36.76068886623605, 43.494132537801676, 48.62769564827391, 56.55822768504675, 60.513904730141455, 62.43762055183555]

>  <Cp_T_units>  (2) 
cal/(mol*K)

>  <T_list>  (2) 
[300.0, 400.0, 500.0, 600.0, 800.0, 1000.0, 1500.0, 2000.0, 2400.0]

>  <T_units>  (2) 
K

>  <yaml_path>  (2) 
/home/calvin/Dropbox/PersonalFolders/Calvin/HAb_Converged/rxn_1281/output/Species/rxn_1281_CC[S]C/rxn_1281_CCSC.yml

>  <frequencies_cm1>  (2) 
[200.30996178439997, 239.06722693047996, 267.56521600848, 329.97237859663994, 342.10634165708, 410.44657956172, 623.61153786516, 869.4496123211601, 901.3398921472399, 934.4387613896399, 956.6946608117601, 1108.0979531471198, 1133.34785816876, 1186.1618422648799, 1298.32031349644, 1327.60113890092, 1394.17656157832, 1410.9800746563599, 1469.09537141952, 1472.7211396684797, 1483.6945822098398, 1489.7375292914398, 2684.9363242374397, 3006.5378477289996, 3009.88206957984, 3034.84356121804, 3072.7630541550793, 3080.1175954327996, 3104.83187559948, 3107.40699509448]

>  <ZPE_kJmol>  (2) 
268.8623138646832

>  <E_elec_kJmol>  (2) 
-1358306.4445688706

>  <E0_minus_Eelec_plus_ZPE_kJmol>  (2) 
0.0

>  <rxn>  (2) 
rxn_1281

>  <species_type>  (2) 
p0

>  <species_folder>  (2) 
rxn_1281_CC[S]C

>  <frequencies_cm1_list>  (2) 
[200.30996178439997, 239.06722693047996, 267.56521600848, 329.97237859663994, 342.10634165708, 410.44657956172, 623.61153786516, 869.4496123211601, 901.3398921472399, 934.4387613896399, 956.6946608117601, 1108.0979531471198, 1133.34785816876, 1186.1618422648799, 1298.32031349644, 1327.60113890092, 1394.17656157832, 1410.9800746563599, 1469.09537141952, 1472.7211396684797, 1483.6945822098398, 1489.7375292914398, 2684.9363242374397, 3006.5378477289996, 3009.88206957984, 3034.84356121804, 3072.7630541550793, 3080.1175954327996, 3104.83187559948, 3107.40699509448]

>  <E0_kJmol>  (2) 
-1.35804e+06

>  <H298_kJmol>  (2) 
-1.35802e+06

$$$$

     RDKit          3D

 21 19  0  0  0  0  0  0  0  0999 V2000
   -1.8704   -0.2993   -2.1961 C   0  0  0  0  0  0  0  0  0  1  0  0
   -1.7136    0.4052   -1.2323 C   0  0  0  0  0  0  0  0  0  2  0  0
   -1.4531    1.1998   -0.0778 C   0  0  0  0  0  0  0  0  0  3  0  0
   -0.8855    2.5831   -0.3102 C   0  0  0  0  0  0  0  0  0  4  0  0
   -2.0383   -0.9032   -3.0549 H   0  0  0  0  0  0  0  0  0  5  0  0
   -0.4627    0.5453    0.5418 H   0  0  0  0  0  0  0  0  0  6  0  0
   -2.2606    1.1620    0.6527 H   0  0  0  0  0  0  0  0  0  7  0  0
   -1.5926    3.2204   -0.8469 H   0  0  0  0  0  0  0  0  0  8  0  0
   -0.6526    3.0616    0.6421 H   0  0  0  0  0  0  0  0  0  9  0  0
    0.0317    2.5243   -0.8981 H   0  0  0  0  0  0  0  0  0 10  0  0
    0.9626    0.6163    2.3210 C   0  0  0  0  0  0  0  0  0 11  0  0
    0.5538   -0.1543    1.0905 C   0  0  0  0  0  3  0  0  0 12  0  0
    1.8342   -0.1219   -0.1524 S   0  0  0  0  0  0  0  0  0 13  0  0
   -0.0729   -1.5013    1.3460 C   0  0  0  0  0  0  0  0  0 14  0  0
    1.3364    1.6092    2.0671 H   0  0  0  0  0  0  0  0  0 15  0  0
    1.7452    0.0912    2.8786 H   0  0  0  0  0  0  0  0  0 16  0  0
    0.1044    0.7321    2.9864 H   0  0  0  0  0  0  0  0  0 17  0  0
    1.1402   -0.7626   -1.1040 H   0  0  0  0  0  0  0  0  0 18  0  0
   -0.8971   -1.4011    2.0568 H   0  0  0  0  0  0  0  0  0 19  0  0
   -0.4716   -1.9313    0.4257 H   0  0  0  0  0  0  0  0  0 20  0  0
    0.6560   -2.2021    1.7640 H   0  0  0  0  0  0  0  0  0 21  0  0
  1  5  1  0
  1  2  1  0
  2  3  1  0
  3  4  1  0
  3  6  1  0
  3  7  1  0
  4 10  1  0
  4  9  1  0
  4  8  1  0
 11 17  1  0
 11 12  1  0
 11 16  1  0
 11 15  1  0
 12 13  1  0
 12 14  1  0
 13 18  1  0
 14 19  1  0
 14 20  1  0
 14 21  1  0
M  RAD  1  12   2
M  END
>  <rmg_smiles>  (3) 
C[C](S)C.[CH][C]CC

>  <rmg_adjacency_list>  (3) 
multiplicity 2
1  S u0 p2 c0 {6,S} {20,S}
2  C u0 p0 c0 {3,S} {7,S} {9,S} {10,S}
3  C u0 p0 c0 {2,S} {11,S} {12,S} {13,S}
4  C u0 p0 c0 {6,S} {14,S} {15,S} {16,S}
5  C u0 p0 c0 {6,S} {17,S} {18,S} {19,S}
6  C u1 p0 c0 {1,S} {4,S} {5,S}
7  C u0 p1 c0 {2,S} {8,S}
8  C u0 p1 c0 {7,S} {21,S}
9  H u0 p0 c0 {2,S}
10 H u0 p0 c0 {2,S}
11 H u0 p0 c0 {3,S}
12 H u0 p0 c0 {3,S}
13 H u0 p0 c0 {3,S}
14 H u0 p0 c0 {4,S}
15 H u0 p0 c0 {4,S}
16 H u0 p0 c0 {4,S}
17 H u0 p0 c0 {5,S}
18 H u0 p0 c0 {5,S}
19 H u0 p0 c0 {5,S}
20 H u0 p0 c0 {1,S}
21 H u0 p0 c0 {8,S}


>  <multiplicity>  (3) 
2

>  <reaction>  (3) 
rxn_1281

>  <type>  (3) 
ts

>  <role_mapnums>  (3) 
{"*2": 6, "*1": 3, "*3": 12, "*0": 2, "*4": 13}

>  <role_mapidx>  (3) 
{"*2": 5, "*1": 2, "*3": 11, "*0": 1, "*4": 12}

>  <ordered_mapped_smiles>  (3) 
[CH2:1]([CH2:2][C:3]([C:4]([H:8])([H:9])[H:10])([H:6])[H:7])[H:5].[C:11]([C:12]([S:13][H:18])[C:14]([H:19])([H:20])[H:21])([H:15])([H:16])[H:17]

>  <mol_properties>  (3) 
{"1": {"label": "*0", "atom_type": "C2s"}, "2": {"label": "*1", "atom_type": "Cs"}, "5": {"label": "*2", "atom_type": "H0"}, "11": {"label": "*3", "atom_type": "Cs"}, "12": {"label": "*4", "atom_type": "S2s"}}

>  <level_of_theory>  (3) 
wb97xd/def2tzvp

>  <lot_method>  (3) 
wb97xd

>  <lot_basis>  (3) 
def2tzvp

>  <spin_multiplicity>  (3) 
2.0

>  <optical_isomers>  (3) 
2.0

>  <modes>  (3) 
IdealGasTranslation(mass=(129.074, 'amu')),         NonlinearRotor(             inertia = ([271.196, 480.252, 528.578

>  <frequency_value>  (3) 
-1705.49

>  <frequency_units>  (3) 
cm^-1

>  <frequency_list>  (3) 
unknown

>  <arkane_path>  (3) 
/home/calvin/Dropbox/PersonalFolders/Calvin/HAb_Converged/rxn_1281/output/rxns/TS0/arkane/output.py

>  <path_exists>  (3) 
True

>  <E0_value>  (3) 
-1765590.0

>  <E0_units>  (3) 
kJ/mol

>  <thermo_class>  (3) 
unknown

>  <Cp0_value>  (3) 
unknown

>  <Cp0_units>  (3) 
unknown

>  <CpInf_value>  (3) 
unknown

>  <CpInf_units>  (3) 
unknown

>  <Tmin_value>  (3) 
unknown

>  <Tmin_units>  (3) 
unknown

>  <Tmax_value>  (3) 
unknown

>  <Tmax_units>  (3) 
unknown

>  <polynomials>  (3) 
unknown

>  <H298_value>  (3) 
unknown

>  <H298_units>  (3) 
unknown

>  <S298_value>  (3) 
unknown

>  <S298_units>  (3) 
unknown

>  <Cp_T_value_list>  (3) 
unknown

>  <Cp_T_units>  (3) 
unknown

>  <T_list>  (3) 
unknown

>  <T_units>  (3) 
unknown

>  <yaml_path>  (3) 
unknown

>  <frequencies_cm1>  (3) 
unknown

>  <ZPE_kJmol>  (3) 
unknown

>  <E_elec_kJmol>  (3) 
unknown

>  <E0_minus_Eelec_plus_ZPE_kJmol>  (3) 
unknown

>  <rxn>  (3) 
unknown

>  <species_type>  (3) 
unknown

>  <species_folder>  (3) 
unknown

>  <frequencies_cm1_list>  (3) 
[]

>  <ts_imag_freq_cm1>  (3) 
-1726.2064

>  <ts_freq_out_path>  (3) 
/home/calvin/Dropbox/PersonalFolders/Calvin/HAb_Converged/rxn_1281/output/rxns/TS0/geometry/freq.out

>  <E0_kJmol>  (3) 
-1.76559e+06

>  <H298_kJmol>  (3) 
unknown

$$$$

     RDKit          3D

  9  8  0  0  0  0  0  0  0  0999 V2000
    2.3038   -0.0269    0.1590 C   0  0  0  0  0  0  0  0  0  1  0  0
    1.1426    0.1377   -0.1648 C   0  0  0  0  0  0  0  0  0  2  0  0
   -0.1694    0.3175   -0.5203 C   0  0  0  0  0  3  0  0  0  3  0  0
   -1.3163   -0.1910    0.2856 C   0  0  0  0  0  0  0  0  0  4  0  0
    3.3199   -0.1683    0.4378 H   0  0  0  0  0  0  0  0  0  5  0  0
   -0.3786    0.8584   -1.4360 H   0  0  0  0  0  0  0  0  0  6  0  0
   -1.9694    0.6309    0.5951 H   0  0  0  0  0  0  0  0  0  7  0  0
   -1.9325   -0.8770   -0.3039 H   0  0  0  0  0  0  0  0  0  8  0  0
   -0.9753   -0.7144    1.1774 H   0  0  0  0  0  0  0  0  0  9  0  0
  1  5  1  0
  1  2  1  0
  2  3  1  0
  3  4  1  0
  3  6  1  0
  4  8  1  0
  4  9  1  0
  4  7  1  0
M  RAD  1   3   2
M  END
>  <rmg_smiles>  (4) 
[CH]C[CH]C

>  <rmg_adjacency_list>  (4) 
multiplicity 2
1 C u0 p0 c0 {2,S} {5,S} {6,S} {7,S}
2 C u1 p0 c0 {1,S} {3,S} {8,S}
3 C u0 p1 c0 {2,S} {4,S}
4 C u0 p1 c0 {3,S} {9,S}
5 H u0 p0 c0 {1,S}
6 H u0 p0 c0 {1,S}
7 H u0 p0 c0 {1,S}
8 H u0 p0 c0 {2,S}
9 H u0 p0 c0 {4,S}


>  <multiplicity>  (4) 
2

>  <reaction>  (4) 
rxn_1281

>  <type>  (4) 
r1

>  <role_mapnums>  (4) 
{}

>  <role_mapidx>  (4) 
{}

>  <ordered_mapped_smiles>  (4) 
[CH2:1]([CH2:2][C:3]([C:4]([H:7])([H:8])[H:9])[H:6])[H:5]

>  <level_of_theory>  (4) 
wb97xd/def2tzvp

>  <lot_method>  (4) 
wb97xd

>  <lot_basis>  (4) 
def2tzvp

>  <spin_multiplicity>  (4) 
2.0

>  <optical_isomers>  (4) 
1.0

>  <modes>  (4) 
IdealGasTranslation(mass=(53.0391, 'amu')),         NonlinearRotor(             inertia = ([13.0163, 113.224, 123.133

>  <frequency_value>  (4) 
unknown

>  <frequency_units>  (4) 
unknown

>  <frequency_list>  (4) 
unknown

>  <arkane_path>  (4) 
/home/calvin/Dropbox/PersonalFolders/Calvin/HAb_Converged/rxn_1281/output/Species/rxn_1281_CtC[CH]C/arkane/output.py

>  <path_exists>  (4) 
True

>  <E0_value>  (4) 
-407611.0180987149

>  <E0_units>  (4) 
kJ/mol

>  <thermo_class>  (4) 
NASA

>  <Cp0_value>  (4) 
33.257888

>  <Cp0_units>  (4) 
J/(mol*K)

>  <CpInf_value>  (4) 
207.8618

>  <CpInf_units>  (4) 
J/(mol*K)

>  <Tmin_value>  (4) 
10.0

>  <Tmin_units>  (4) 
K

>  <Tmax_value>  (4) 
3000.0

>  <Tmax_units>  (4) 
K

>  <polynomials>  (4) 
[{"name": "polynomial1", "class": "NASAPolynomial", "Tmin_value": 10.0, "Tmin_units": "K", "Tmax_value": 225.12244092476377, "Tmax_units": "K", "coeffs": [3.9266130103725434, 0.006751552972290672, 0.0001283541194316844, -4.2549688859148007e-07, 4.774737524189803e-10, -49024283.39050682, 9.03931398875942]}, {"name": "polynomial2", "class": "NASAPolynomial", "Tmin_value": 225.12244092476377, "Tmin_units": "K", "Tmax_value": 3000.0, "Tmax_units": "K", "coeffs": [2.698793800089887, 0.02856763785346583, -1.700774111948388e-05, 4.9718456847290095e-09, -5.66009400316375e-13, -49024228.10872656, 13.132014034873661]}]

>  <H298_value>  (4) 
-97417.42510508596

>  <H298_units>  (4) 
kcal/mol

>  <S298_value>  (4) 
72.15152284270778

>  <S298_units>  (4) 
cal/(mol*K)

>  <Cp_T_value_list>  (4) 
[19.609840418917145, 23.266846927668503, 26.46319689496793, 29.246023227567047, 33.746139284951916, 37.090269030960386, 42.123590532288944, 44.75530859912038, 46.19956450688901]

>  <Cp_T_units>  (4) 
cal/(mol*K)

>  <T_list>  (4) 
[300.0, 400.0, 500.0, 600.0, 800.0, 1000.0, 1500.0, 2000.0, 2400.0]

>  <T_units>  (4) 
K

>  <yaml_path>  (4) 
/home/calvin/Dropbox/PersonalFolders/Calvin/HAb_Converged/rxn_1281/output/Species/rxn_1281_CtC[CH]C/rxn_1281_CtCCHC.yml

>  <frequencies_cm1>  (4) 
[83.4682065646, 211.55121675324, 392.1460636839199, 478.7318815838, 554.46786267808, 595.8689171723599, 660.0408949877599, 865.1234115695598, 998.98842339764, 1092.3794237496397, 1143.49726247172, 1380.42198998236, 1394.47184194708, 1461.2464071987597, 1480.32289241772, 2005.2970531463998, 2994.3558157713196, 3043.5921005157197, 3109.55636149964, 3150.5453968747197, 3427.4497129183997]

>  <ZPE_kJmol>  (4) 
182.57126464434097

>  <E_elec_kJmol>  (4) 
-407793.5893633592

>  <E0_minus_Eelec_plus_ZPE_kJmol>  (4) 
0.0

>  <rxn>  (4) 
rxn_1281

>  <species_type>  (4) 
p1

>  <species_folder>  (4) 
rxn_1281_CtC[CH]C

>  <frequencies_cm1_list>  (4) 
[83.4682065646, 211.55121675324, 392.1460636839199, 478.7318815838, 554.46786267808, 595.8689171723599, 660.0408949877599, 865.1234115695598, 998.98842339764, 1092.3794237496397, 1143.49726247172, 1380.42198998236, 1394.47184194708, 1461.2464071987597, 1480.32289241772, 2005.2970531463998, 2994.3558157713196, 3043.5921005157197, 3109.55636149964, 3150.5453968747197, 3427.4497129183997]

>  <E0_kJmol>  (4) 
-407611

>  <H298_kJmol>  (4) 
-407595

$$$$

     RDKit          3D

 11 10  0  0  0  0  0  0  0  0999 V2000
    1.0781   -1.0166   -0.1159 C   0  0  0  0  0  0  0  0  0  1  0  0
    0.2180    0.1942   -0.2297 C   0  0  0  0  0  3  0  0  0  2  0  0
    0.9343    1.7769   -0.3011 S   0  0  0  0  0  0  0  0  0  3  0  0
   -1.1949    0.1490    0.2439 C   0  0  0  0  0  0  0  0  0  4  0  0
    1.4718   -1.1461    0.9024 H   0  0  0  0  0  0  0  0  0  5  0  0
    1.9367   -0.9751   -0.7902 H   0  0  0  0  0  0  0  0  0  6  0  0
    0.5033   -1.9136   -0.3576 H   0  0  0  0  0  0  0  0  0  7  0  0
    2.1166    1.4195   -0.8209 H   0  0  0  0  0  0  0  0  0  8  0  0
   -1.2620    0.0939    1.3399 H   0  0  0  0  0  0  0  0  0  9  0  0
   -1.7600    1.0270   -0.0739 H   0  0  0  0  0  0  0  0  0 10  0  0
   -1.6972   -0.7380   -0.1506 H   0  0  0  0  0  0  0  0  0 11  0  0
  1  5  1  0
  1  7  1  0
  1  6  1  0
  1  2  1  0
  2  3  1  0
  2  4  1  0
  3  8  1  0
  4  9  1  0
  4 10  1  0
  4 11  1  0
M  RAD  1   2   2
M  END
>  <rmg_smiles>  (5) 
C[C](S)C

>  <rmg_adjacency_list>  (5) 
multiplicity 2
1  S u0 p2 c0 {4,S} {11,S}
2  C u0 p0 c0 {4,S} {5,S} {6,S} {7,S}
3  C u0 p0 c0 {4,S} {8,S} {9,S} {10,S}
4  C u1 p0 c0 {1,S} {2,S} {3,S}
5  H u0 p0 c0 {2,S}
6  H u0 p0 c0 {2,S}
7  H u0 p0 c0 {2,S}
8  H u0 p0 c0 {3,S}
9  H u0 p0 c0 {3,S}
10 H u0 p0 c0 {3,S}
11 H u0 p0 c0 {1,S}


>  <multiplicity>  (5) 
2

>  <reaction>  (5) 
rxn_1281

>  <type>  (5) 
r2

>  <role_mapnums>  (5) 
{}

>  <role_mapidx>  (5) 
{}

>  <ordered_mapped_smiles>  (5) 
[C:1]([C:2]([S:3][H:8])[C:4]([H:9])([H:10])[H:11])([H:5])([H:6])[H:7]

>  <level_of_theory>  (5) 
wb97xd/def2tzvp

>  <lot_method>  (5) 
wb97xd

>  <lot_basis>  (5) 
def2tzvp

>  <spin_multiplicity>  (5) 
2.0

>  <optical_isomers>  (5) 
2.0

>  <modes>  (5) 
IdealGasTranslation(mass=(75.0268, 'amu')),         NonlinearRotor(             inertia = ([61.999, 107.328, 162.226

>  <frequency_value>  (5) 
unknown

>  <frequency_units>  (5) 
unknown

>  <frequency_list>  (5) 
unknown

>  <arkane_path>  (5) 
/home/calvin/Dropbox/PersonalFolders/Calvin/HAb_Converged/rxn_1281/output/Species/rxn_1281_C[C][S]C/arkane/output.py

>  <path_exists>  (5) 
True

>  <E0_value>  (5) 
-1356347.4134395572

>  <E0_units>  (5) 
kJ/mol

>  <thermo_class>  (5) 
NASA

>  <Cp0_value>  (5) 
33.257888

>  <Cp0_units>  (5) 
J/(mol*K)

>  <CpInf_value>  (5) 
257.748632

>  <CpInf_units>  (5) 
J/(mol*K)

>  <Tmin_value>  (5) 
10.0

>  <Tmin_units>  (5) 
K

>  <Tmax_value>  (5) 
3000.0

>  <Tmax_units>  (5) 
K

>  <polynomials>  (5) 
[{"name": "polynomial1", "class": "NASAPolynomial", "Tmin_value": 10.0, "Tmin_units": "K", "Tmax_value": 631.511036458598, "Tmax_units": "K", "coeffs": [3.630144501923197, 0.030233799754007962, -1.5729865197854517e-05, 1.0342555122076897e-08, -6.278675853253594e-12, -163130908.91812575, 11.085422231430835]}, {"name": "polynomial2", "class": "NASAPolynomial", "Tmin_value": 631.511036458598, "Tmin_units": "K", "Tmax_value": 3000.0, "Tmax_units": "K", "coeffs": [2.121241242594707, 0.035971217312262126, -2.0284227742328106e-05, 5.57187370145946e-09, -5.981486451043817e-13, -163130642.16838282, 18.274548777693933]}]

>  <H298_value>  (5) 
-324170.22635589016

>  <H298_units>  (5) 
kcal/mol

>  <S298_value>  (5) 
79.79982372204114

>  <S298_units>  (5) 
cal/(mol*K)

>  <Cp_T_value_list>  (5) 
[22.878685143927463, 27.24077654618155, 31.22891087325513, 34.831653006690544, 40.78563883173169, 45.27245080713911, 52.09561404746616, 55.50541234106847, 57.22251846881106]

>  <Cp_T_units>  (5) 
cal/(mol*K)

>  <T_list>  (5) 
[300.0, 400.0, 500.0, 600.0, 800.0, 1000.0, 1500.0, 2000.0, 2400.0]

>  <T_units>  (5) 
K

>  <yaml_path>  (5) 
/home/calvin/Dropbox/PersonalFolders/Calvin/HAb_Converged/rxn_1281/output/Species/rxn_1281_C[C][S]C/rxn_1281_CCSC.yml

>  <frequencies_cm1>  (5) 
[136.00751124791998, 145.49081797484, 227.77790306439996, 252.01836124399998, 317.69420884448, 349.40594705224, 628.3497577359599, 911.91504954004, 945.1100565769199, 959.9015429561998, 985.2063838604, 1047.7989550522, 1210.77998463708, 1266.96565852532, 1390.69500002108, 1406.7156767726399, 1455.1279232786399, 1462.5374004389198, 1466.95287199968, 1477.52802939248, 2689.0427814587997, 2949.1641853804, 2953.29124355772, 3034.22553253924, 3035.0633047482797, 3077.07552093604, 3083.7982995643197]

>  <ZPE_kJmol>  (5) 
232.4682179533116

>  <E_elec_kJmol>  (5) 
-1356579.8816575103

>  <E0_minus_Eelec_plus_ZPE_kJmol>  (5) 
0.0

>  <rxn>  (5) 
rxn_1281

>  <species_type>  (5) 
r1

>  <species_folder>  (5) 
rxn_1281_C[C][S]C

>  <frequencies_cm1_list>  (5) 
[136.00751124791998, 145.49081797484, 227.77790306439996, 252.01836124399998, 317.69420884448, 349.40594705224, 628.3497577359599, 911.91504954004, 945.1100565769199, 959.9015429561998, 985.2063838604, 1047.7989550522, 1210.77998463708, 1266.96565852532, 1390.69500002108, 1406.7156767726399, 1455.1279232786399, 1462.5374004389198, 1466.95287199968, 1477.52802939248, 2689.0427814587997, 2949.1641853804, 2953.29124355772, 3034.22553253924, 3035.0633047482797, 3077.07552093604, 3083.7982995643197]

>  <E0_kJmol>  (5) 
-1.35635e+06

>  <H298_kJmol>  (5) 
-1.35633e+06

$$$$
