
     RDKit          3D

  5  4  0  0  0  0  0  0  0  0999 V2000
   -0.0019   -0.0014   -0.6242 C   0  0  0  0  0  0  0  0  0  1  0  0
    0.0022   -0.0689    0.6290 N   0  0  0  0  0  0  0  0  0  2  0  0
   -0.0071    0.9316   -1.1924 H   0  0  0  0  0  0  0  0  0  3  0  0
   -0.0002   -0.9325   -1.1926 H   0  0  0  0  0  0  0  0  0  4  0  0
   -0.0001    0.8868    1.0393 H   0  0  0  0  0  0  0  0  0  5  0  0
  1  3  1  0
  1  4  1  0
  1  2  1  0
  2  5  1  0
M  END
>  <rmg_smiles>  (1) 
[CH2][NH]

>  <rmg_adjacency_list>  (1) 
1 N u0 p1 c0 {2,S} {5,S}
2 C u0 p0 c0 {1,S} {3,S} {4,S}
3 H u0 p0 c0 {2,S}
4 H u0 p0 c0 {2,S}
5 H u0 p0 c0 {1,S}


>  <multiplicity>  (1) 
1

>  <reaction>  (1) 
rxn_667

>  <type>  (1) 
r1h

>  <role_mapnums>  (1) 
{"r1h_a": 2, "r1h_h": 5}

>  <role_mapidx>  (1) 
{"r1h_a": 1, "r1h_h": 4}

>  <ordered_mapped_smiles>  (1) 
[CH:1]([NH:2][H:5])([H:3])[H:4]

>  <mol_properties>  (1) 
{"1": {"label": "donator", "atom_type": "N3s"}, "4": {"label": "d_hydrogen", "atom_type": "H0"}}

>  <level_of_theory>  (1) 
wb97xd/def2tzvp

>  <lot_method>  (1) 
wb97xd

>  <lot_basis>  (1) 
def2tzvp

>  <spin_multiplicity>  (1) 
1.0

>  <optical_isomers>  (1) 
1.0

>  <modes>  (1) 
IdealGasTranslation(mass=(29.0266, 'amu')),         NonlinearRotor(             inertia = ([2.54329, 14.3364, 16.8797

>  <frequency_value>  (1) 
unknown

>  <frequency_units>  (1) 
unknown

>  <frequency_list>  (1) 
unknown

>  <arkane_path>  (1) 
/home/calvin/Dropbox/PersonalFolders/Calvin/HAb_Converged/rxn_667/output/Species/rxn_667_C=N/arkane/output.py

>  <path_exists>  (1) 
True

>  <E0_value>  (1) 
-248356.34423816652

>  <E0_units>  (1) 
kJ/mol

>  <thermo_class>  (1) 
NASA

>  <Cp0_value>  (1) 
33.257888

>  <Cp0_units>  (1) 
J/(mol*K)

>  <CpInf_value>  (1) 
108.088136

>  <CpInf_units>  (1) 
J/(mol*K)

>  <Tmin_value>  (1) 
10.0

>  <Tmin_units>  (1) 
K

>  <Tmax_value>  (1) 
3000.0

>  <Tmax_units>  (1) 
K

>  <polynomials>  (1) 
[{"name": "polynomial1", "class": "NASAPolynomial", "Tmin_value": 10.0, "Tmin_units": "K", "Tmax_value": 929.7245041416248, "Tmax_units": "K", "coeffs": [4.082145433180602, -0.004843975621351913, 3.06182483299597e-05, -3.0748398747364916e-08, 1.005203482703049e-11, -29870371.356622625, 4.365827516701529]}, {"name": "polynomial2", "class": "NASAPolynomial", "Tmin_value": 929.7245041416248, "Tmin_units": "K", "Tmax_value": 3000.0, "Tmax_units": "K", "coeffs": [0.8877926126409245, 0.013678157391694009, -6.975215360748043e-06, 1.7369713544725003e-09, -1.698199001818517e-13, -29869983.92454052, 18.433203146604594]}]

>  <H298_value>  (1) 
-59356.18051805212

>  <H298_units>  (1) 
kcal/mol

>  <S298_value>  (1) 
54.2244639708233

>  <S298_units>  (1) 
cal/(mol*K)

>  <Cp_T_value_list>  (1) 
[9.2123113963801, 10.597592405896666, 12.120811126511391, 13.631082115641764, 16.248944756592767, 18.198610788717026, 21.289657079468707, 22.89639137582938, 23.679165475597802]

>  <Cp_T_units>  (1) 
cal/(mol*K)

>  <T_list>  (1) 
[300.0, 400.0, 500.0, 600.0, 800.0, 1000.0, 1500.0, 2000.0, 2400.0]

>  <T_units>  (1) 
K

>  <yaml_path>  (1) 
/home/calvin/Dropbox/PersonalFolders/Calvin/HAb_Converged/rxn_667/output/Species/rxn_667_C=N/rxn_667_C=N.yml

>  <frequencies_cm1>  (1) 
[1070.7758879329199, 1100.41379657404, 1160.96000614048, 1358.81158718032, 1481.75122536428, 1720.3789652342798, 3005.1987855916, 3102.24988911916, 3440.05749796592]

>  <ZPE_kJmol>  (1) 
104.3179698886586

>  <E_elec_kJmol>  (1) 
-248460.6622080552

>  <E0_minus_Eelec_plus_ZPE_kJmol>  (1) 
0.0

>  <rxn>  (1) 
rxn_667

>  <species_type>  (1) 
r1

>  <species_folder>  (1) 
rxn_667_C=N

>  <frequencies_cm1_list>  (1) 
[1070.7758879329199, 1100.41379657404, 1160.96000614048, 1358.81158718032, 1481.75122536428, 1720.3789652342798, 3005.1987855916, 3102.24988911916, 3440.05749796592]

>  <E0_kJmol>  (1) 
-248356

>  <H298_kJmol>  (1) 
-248346

$$$$

     RDKit          3D

  2  1  0  0  0  0  0  0  0  0999 V2000
   -0.0018    0.5377    0.0688 H   0  0  0  0  0  0  0  0  0  1  0  0
    0.0007   -0.1963   -0.0251 H   0  0  0  0  0  0  0  0  0  2  0  0
  1  2  1  0
M  END
>  <rmg_smiles>  (2) 
[H][H]

>  <rmg_adjacency_list>  (2) 
1 H u0 p0 c0 {2,S}
2 H u0 p0 c0 {1,S}


>  <multiplicity>  (2) 
1

>  <reaction>  (2) 
rxn_667

>  <type>  (2) 
r2h

>  <role_mapnums>  (2) 
{"r2h_a": 1, "r2h_h": 2}

>  <role_mapidx>  (2) 
{"r2h_a": 0, "r2h_h": 1}

>  <ordered_mapped_smiles>  (2) 
[H:1][H:2]

>  <mol_properties>  (2) 
{"0": {"label": "acceptor", "atom_type": "H0"}, "1": {"label": "a_hydrogen", "atom_type": "H0"}}

>  <level_of_theory>  (2) 
wb97xd/def2tzvp

>  <lot_method>  (2) 
wb97xd

>  <lot_basis>  (2) 
def2tzvp

>  <spin_multiplicity>  (2) 
1.0

>  <optical_isomers>  (2) 
1.0

>  <modes>  (2) 
IdealGasTranslation(mass=(2.01565, 'amu')),         LinearRotor(inertia=(0.279051, 'amu*angstrom^2'), symmetry=2),         HarmonicOscillator(frequencies=([4384.98

>  <frequency_value>  (2) 
unknown

>  <frequency_units>  (2) 
unknown

>  <frequency_list>  (2) 
unknown

>  <arkane_path>  (2) 
/home/calvin/Dropbox/PersonalFolders/Calvin/HAb_Converged/rxn_667/output/Species/rxn_667_[H][H]/arkane/output.py

>  <path_exists>  (2) 
True

>  <E0_value>  (2) 
-3062.16965545063

>  <E0_units>  (2) 
kJ/mol

>  <thermo_class>  (2) 
NASA

>  <Cp0_value>  (2) 
29.100652

>  <Cp0_units>  (2) 
J/(mol*K)

>  <CpInf_value>  (2) 
37.415124

>  <CpInf_units>  (2) 
J/(mol*K)

>  <Tmin_value>  (2) 
10.0

>  <Tmin_units>  (2) 
K

>  <Tmax_value>  (2) 
3000.0

>  <Tmax_units>  (2) 
K

>  <polynomials>  (2) 
[{"name": "polynomial1", "class": "NASAPolynomial", "Tmin_value": 10.0, "Tmin_units": "K", "Tmax_value": 609.8839760798177, "Tmax_units": "K", "coeffs": [3.498630427760662, 8.118128927195725e-05, -2.559636751505851e-07, 1.12469612407288e-11, 3.0815171130046294e-13, -368293.8823611774, -4.277290681887199]}, {"name": "polynomial2", "class": "NASAPolynomial", "Tmin_value": 609.8839760798177, "Tmin_units": "K", "Tmax_value": 3000.0, "Tmax_units": "K", "coeffs": [3.686867766797846, -0.0007828622299568348, 9.578139376048542e-07, -3.193665739780837e-10, 3.533006631714403e-14, -368323.7341208647, -5.148841965058497]}]

>  <H298_value>  (2) 
-729.8011438890577

>  <H298_units>  (2) 
kcal/mol

>  <S298_value>  (2) 
31.136082854374543

>  <S298_units>  (2) 
cal/(mol*K)

>  <Cp_T_value_list>  (2) 
[6.960683160805141, 6.952753142081975, 6.947066275630451, 6.950370161364484, 7.003977696739648, 7.10979357060473, 7.489089863592967, 7.874797646413975, 8.112273708870758]

>  <Cp_T_units>  (2) 
cal/(mol*K)

>  <T_list>  (2) 
[300.0, 400.0, 500.0, 600.0, 800.0, 1000.0, 1500.0, 2000.0, 2400.0]

>  <T_units>  (2) 
K

>  <yaml_path>  (2) 
/home/calvin/Dropbox/PersonalFolders/Calvin/HAb_Converged/rxn_667/output/Species/rxn_667_[H][H]/rxn_667_HH.yml

>  <frequencies_cm1>  (2) 
[4384.97527895388]

>  <ZPE_kJmol>  (2) 
26.22798418526521

>  <E_elec_kJmol>  (2) 
-3088.3976396358958

>  <E0_minus_Eelec_plus_ZPE_kJmol>  (2) 
0.0

>  <rxn>  (2) 
rxn_667

>  <species_type>  (2) 
p0

>  <species_folder>  (2) 
rxn_667_[H][H]

>  <frequencies_cm1_list>  (2) 
[4384.97527895388]

>  <E0_kJmol>  (2) 
-3062.17

>  <H298_kJmol>  (2) 
-3053.49

$$$$

     RDKit          3D

  6  4  0  0  0  0  0  0  0  0999 V2000
   -0.0020    1.9654    1.1942 H   0  0  0  0  0 15  0  0  0  1  0  0
   -0.0000   -0.0863   -0.6445 C   0  0  0  0  0  0  0  0  0  2  0  0
    0.0040   -0.1537    0.6087 N   0  0  0  0  0  0  0  0  0  3  0  0
   -0.0052    0.8467   -1.2127 H   0  0  0  0  0  0  0  0  0  4  0  0
    0.0017   -1.0173   -1.2129 H   0  0  0  0  0  0  0  0  0  5  0  0
    0.0015    0.8899    1.0567 H   0  0  0  0  0  0  0  0  0  6  0  0
  2  5  1  0
  2  4  1  0
  2  3  1  0
  3  6  1  0
M  END
>  <rmg_smiles>  (3) 
[CH2][NH]

>  <rmg_adjacency_list>  (3) 
multiplicity 2
1 N u0 p1 c0 {2,S} {5,S}
2 C u0 p0 c0 {1,S} {3,S} {4,S}
3 H u0 p0 c0 {2,S}
4 H u0 p0 c0 {2,S}
5 H u0 p0 c0 {1,S}
6 H u1 p0 c0


>  <multiplicity>  (3) 
2

>  <reaction>  (3) 
rxn_667

>  <type>  (3) 
ts

>  <role_mapnums>  (3) 
{"*2": 6, "*1": 3, "*3": 1, "*0": null, "*4": 2}

>  <role_mapidx>  (3) 
{"*2": 5, "*1": 2, "*3": 0, "*4": 1}

>  <ordered_mapped_smiles>  (3) 
[H:1].[CH:2]([NH:3][H:6])([H:4])[H:5]

>  <mol_properties>  (3) 
{"0": {"label": "*3", "atom_type": "H0"}, "1": {"label": "*4", "atom_type": "Cs"}, "2": {"label": "*1", "atom_type": "N3s"}, "5": {"label": "*2", "atom_type": "H0"}}

>  <level_of_theory>  (3) 
wb97xd/def2tzvp

>  <lot_method>  (3) 
wb97xd

>  <lot_basis>  (3) 
def2tzvp

>  <spin_multiplicity>  (3) 
2.0

>  <optical_isomers>  (3) 
1.0

>  <modes>  (3) 
IdealGasTranslation(mass=(30.0344, 'amu')),         NonlinearRotor(             inertia = ([6.0073, 16.5507, 22.558

>  <frequency_value>  (3) 
-1223.06

>  <frequency_units>  (3) 
cm^-1

>  <frequency_list>  (3) 
unknown

>  <arkane_path>  (3) 
/home/calvin/Dropbox/PersonalFolders/Calvin/HAb_Converged/rxn_667/output/rxns/TS0/arkane/output.py

>  <path_exists>  (3) 
True

>  <E0_value>  (3) 
-249659.0

>  <E0_units>  (3) 
kJ/mol

>  <thermo_class>  (3) 
unknown

>  <Cp0_value>  (3) 
unknown

>  <Cp0_units>  (3) 
unknown

>  <CpInf_value>  (3) 
unknown

>  <CpInf_units>  (3) 
unknown

>  <Tmin_value>  (3) 
unknown

>  <Tmin_units>  (3) 
unknown

>  <Tmax_value>  (3) 
unknown

>  <Tmax_units>  (3) 
unknown

>  <polynomials>  (3) 
unknown

>  <H298_value>  (3) 
unknown

>  <H298_units>  (3) 
unknown

>  <S298_value>  (3) 
unknown

>  <S298_units>  (3) 
unknown

>  <Cp_T_value_list>  (3) 
unknown

>  <Cp_T_units>  (3) 
unknown

>  <T_list>  (3) 
unknown

>  <T_units>  (3) 
unknown

>  <yaml_path>  (3) 
unknown

>  <frequencies_cm1>  (3) 
unknown

>  <ZPE_kJmol>  (3) 
unknown

>  <E_elec_kJmol>  (3) 
unknown

>  <E0_minus_Eelec_plus_ZPE_kJmol>  (3) 
unknown

>  <rxn>  (3) 
unknown

>  <species_type>  (3) 
unknown

>  <species_folder>  (3) 
unknown

>  <frequencies_cm1_list>  (3) 
[]

>  <ts_imag_freq_cm1>  (3) 
-1237.9199

>  <ts_freq_out_path>  (3) 
/home/calvin/Dropbox/PersonalFolders/Calvin/HAb_Converged/rxn_667/output/rxns/TS0/geometry/freq.out

>  <E0_kJmol>  (3) 
-249659

>  <H298_kJmol>  (3) 
unknown

$$$$

     RDKit          3D

  4  3  0  0  0  0  0  0  0  0999 V2000
   -0.0235    0.0026    0.0007 C   0  0  0  0  0  0  0  0  0  1  0  0
    1.2046   -0.1325   -0.0372 N   0  0  0  0  0  2  0  0  0  2  0  0
   -0.6930   -0.8666    0.0185 H   0  0  0  0  0  0  0  0  0  3  0  0
   -0.4880    0.9965    0.0179 H   0  0  0  0  0  0  0  0  0  4  0  0
  1  3  1  0
  1  4  1  0
  1  2  1  0
M  RAD  1   2   2
M  END
>  <rmg_smiles>  (4) 
[CH2][N]

>  <rmg_adjacency_list>  (4) 
multiplicity 2
1 N u1 p2 c0 {2,S}
2 C u0 p0 c0 {1,S} {3,S} {4,S}
3 H u0 p0 c0 {2,S}
4 H u0 p0 c0 {2,S}


>  <multiplicity>  (4) 
2

>  <reaction>  (4) 
rxn_667

>  <type>  (4) 
r1

>  <role_mapnums>  (4) 
{}

>  <role_mapidx>  (4) 
{}

>  <ordered_mapped_smiles>  (4) 
[CH:1]([NH:2])([H:3])[H:4]

>  <level_of_theory>  (4) 
wb97xd/def2tzvp

>  <lot_method>  (4) 
wb97xd

>  <lot_basis>  (4) 
def2tzvp

>  <spin_multiplicity>  (4) 
2.0

>  <optical_isomers>  (4) 
1.0

>  <modes>  (4) 
IdealGasTranslation(mass=(28.0187, 'amu')),         NonlinearRotor(             inertia = ([1.77036, 12.7332, 14.5036

>  <frequency_value>  (4) 
unknown

>  <frequency_units>  (4) 
unknown

>  <frequency_list>  (4) 
unknown

>  <arkane_path>  (4) 
/home/calvin/Dropbox/PersonalFolders/Calvin/HAb_Converged/rxn_667/output/Species/rxn_667_C=[N]/arkane/output.py

>  <path_exists>  (4) 
True

>  <E0_value>  (4) 
-246684.5521079164

>  <E0_units>  (4) 
kJ/mol

>  <thermo_class>  (4) 
NASA

>  <Cp0_value>  (4) 
33.257888

>  <Cp0_units>  (4) 
J/(mol*K)

>  <CpInf_value>  (4) 
83.14472

>  <CpInf_units>  (4) 
J/(mol*K)

>  <Tmin_value>  (4) 
10.0

>  <Tmin_units>  (4) 
K

>  <Tmax_value>  (4) 
3000.0

>  <Tmax_units>  (4) 
K

>  <polynomials>  (4) 
[{"name": "polynomial1", "class": "NASAPolynomial", "Tmin_value": 10.0, "Tmin_units": "K", "Tmax_value": 940.7115147014066, "Tmax_units": "K", "coeffs": [4.066582322176055, -0.002945297737503203, 2.0923665491113676e-05, -2.1725859678267992e-08, 7.260528712319913e-12, -29669301.271777656, 3.887653957496315]}, {"name": "polynomial2", "class": "NASAPolynomial", "Tmin_value": 940.7115147014066, "Tmin_units": "K", "Tmax_value": 3000.0, "Tmax_units": "K", "coeffs": [2.417736019426672, 0.008438496046430401, -4.2007115812525825e-06, 1.0206571750372709e-09, -9.76792644324066e-14, -29669184.533969242, 10.713238634198367]}]

>  <H298_value>  (4) 
-58956.59162286701

>  <H298_units>  (4) 
kcal/mol

>  <S298_value>  (4) 
53.51422667564984

>  <S298_units>  (4) 
cal/(mol*K)

>  <Cp_T_value_list>  (4) 
[9.018608748710106, 9.998955851352573, 11.054631860789643, 12.082418393933246, 13.814587537277745, 15.06004127844482, 17.038498756224165, 18.072194366523956, 18.56613061937485]

>  <Cp_T_units>  (4) 
cal/(mol*K)

>  <T_list>  (4) 
[300.0, 400.0, 500.0, 600.0, 800.0, 1000.0, 1500.0, 2000.0, 2400.0]

>  <T_units>  (4) 
K

>  <yaml_path>  (4) 
/home/calvin/Dropbox/PersonalFolders/Calvin/HAb_Converged/rxn_667/output/Species/rxn_667_C=[N]/rxn_667_C=N.yml

>  <frequencies_cm1>  (4) 
[931.60269645248, 995.74033934128, 1367.3953188303199, 1729.09316960536, 2962.5273388131195, 3028.35426009064]

>  <ZPE_kJmol>  (4) 
65.8826340447903

>  <E_elec_kJmol>  (4) 
-246750.4347419612

>  <E0_minus_Eelec_plus_ZPE_kJmol>  (4) 
0.0

>  <rxn>  (4) 
rxn_667

>  <species_type>  (4) 
p1

>  <species_folder>  (4) 
rxn_667_C=[N]

>  <frequencies_cm1_list>  (4) 
[931.60269645248, 995.74033934128, 1367.3953188303199, 1729.09316960536, 2962.5273388131195, 3028.35426009064]

>  <E0_kJmol>  (4) 
-246685

>  <H298_kJmol>  (4) 
-246674

$$$$

     RDKit          3D

  1  0  0  0  0  0  0  0  0  0999 V2000
    0.0000    0.0000    0.0000 H   0  0  0  0  0 15  0  0  0  1  0  0
M  END
>  <rmg_smiles>  (5) 
[H]

>  <rmg_adjacency_list>  (5) 
multiplicity 2
1 H u1 p0 c0


>  <multiplicity>  (5) 
2

>  <reaction>  (5) 
rxn_667

>  <type>  (5) 
r2

>  <role_mapnums>  (5) 
{}

>  <role_mapidx>  (5) 
{}

>  <ordered_mapped_smiles>  (5) 
[H:1]

>  <level_of_theory>  (5) 
wb97xd/def2tzvp

>  <lot_method>  (5) 
wb97xd

>  <lot_basis>  (5) 
def2tzvp

>  <spin_multiplicity>  (5) 
2.0

>  <optical_isomers>  (5) 
1.0

>  <modes>  (5) 
IdealGasTranslation(mass=(1.00797, 'amu')),

>  <frequency_value>  (5) 
unknown

>  <frequency_units>  (5) 
unknown

>  <frequency_list>  (5) 
unknown

>  <arkane_path>  (5) 
/home/calvin/Dropbox/PersonalFolders/Calvin/HAb_Converged/rxn_667/output/Species/rxn_667_[H]/arkane/output.py

>  <path_exists>  (5) 
True

>  <E0_value>  (5) 
-1319.7535890175566

>  <E0_units>  (5) 
kJ/mol

>  <thermo_class>  (5) 
NASA

>  <Cp0_value>  (5) 
20.78618

>  <Cp0_units>  (5) 
J/(mol*K)

>  <CpInf_value>  (5) 
20.78618

>  <CpInf_units>  (5) 
J/(mol*K)

>  <Tmin_value>  (5) 
10.0

>  <Tmin_units>  (5) 
K

>  <Tmax_value>  (5) 
3000.0

>  <Tmax_units>  (5) 
K

>  <polynomials>  (5) 
[{"name": "polynomial1", "class": "NASAPolynomial", "Tmin_value": 10.0, "Tmin_units": "K", "Tmax_value": 1853.5663026740365, "Tmax_units": "K", "coeffs": [2.500000000000126, -2.814048095438137e-15, 9.047587538332909e-18, -8.591944598242694e-21, 2.4182720553650057e-24, -158729.69562032758, -0.461069367474324]}, {"name": "polynomial2", "class": "NASAPolynomial", "Tmin_value": 1853.5663026740365, "Tmin_units": "K", "Tmax_value": 3000.0, "Tmax_units": "K", "coeffs": [2.500000000696122, -1.3129776766613561e-12, 9.140875080033424e-16, -2.782806647322001e-19, 3.1263265306749967e-23, -158729.69562061856, -0.4610693713504795]}]

>  <H298_value>  (5) 
-313.9482141882736

>  <H298_units>  (5) 
kcal/mol

>  <S298_value>  (5) 
27.387012987908147

>  <S298_units>  (5) 
cal/(mol*K)

>  <Cp_T_value_list>  (5) 
[4.968016252389826, 4.968016252389978, 4.968016252390173, 4.96801625239036, 4.968016252390567, 4.968016252390427, 4.968016252389077, 4.968016252391019, 4.968016252390868]

>  <Cp_T_units>  (5) 
cal/(mol*K)

>  <T_list>  (5) 
[300.0, 400.0, 500.0, 600.0, 800.0, 1000.0, 1500.0, 2000.0, 2400.0]

>  <T_units>  (5) 
K

>  <yaml_path>  (5) 
/home/calvin/Dropbox/PersonalFolders/Calvin/HAb_Converged/rxn_667/output/Species/rxn_667_[H]/rxn_667_H.yml

>  <frequencies_cm1>  (5) 
[]

>  <ZPE_kJmol>  (5) 
unknown

>  <E_elec_kJmol>  (5) 
unknown

>  <E0_minus_Eelec_plus_ZPE_kJmol>  (5) 
unknown

>  <rxn>  (5) 
rxn_667

>  <species_type>  (5) 
r0

>  <species_folder>  (5) 
rxn_667_[H]

>  <frequencies_cm1_list>  (5) 
[]

>  <E0_kJmol>  (5) 
-1319.75

>  <H298_kJmol>  (5) 
-1313.56

$$$$
