
     RDKit          3D

  7  6  0  0  0  0  0  0  0  0999 V2000
   -1.1827    0.4583    0.2873 C   0  0  0  0  0  0  0  0  0  1  0  0
   -0.0025   -0.0206    0.0018 C   0  0  0  0  0  2  0  0  0  2  0  0
    1.1731   -0.4517   -0.2870 C   0  0  0  0  0  0  0  0  0  3  0  0
   -1.8386    0.8235   -0.4937 H   0  0  0  0  0  0  0  0  0  4  0  0
   -1.5389    0.4924    1.3097 H   0  0  0  0  0  0  0  0  0  5  0  0
    1.4618   -1.4735   -0.4926 H   0  0  0  0  0  0  0  0  0  6  0  0
    1.9856    0.2599   -0.3437 H   0  0  0  0  0  0  0  0  0  7  0  0
  1  5  1  0
  1  4  1  0
  1  2  1  0
  2  3  1  0
  3  6  1  0
  3  7  1  0
M  RAD  1   2   3
M  END
>  <rmg_smiles>  (1) 
[CH2][C][CH2]

>  <rmg_adjacency_list>  (1) 
1 C u0 p0 c0 {3,S} {4,S} {5,S}
2 C u0 p0 c0 {3,S} {6,S} {7,S}
3 C u0 p1 c0 {1,S} {2,S}
4 H u0 p0 c0 {1,S}
5 H u0 p0 c0 {1,S}
6 H u0 p0 c0 {2,S}
7 H u0 p0 c0 {2,S}


>  <multiplicity>  (1) 
1

>  <reaction>  (1) 
rxn_256

>  <type>  (1) 
r1h

>  <role_mapnums>  (1) 
{"r1h_a": 3, "r1h_h": 7}

>  <role_mapidx>  (1) 
{"r1h_a": 2, "r1h_h": 6}

>  <ordered_mapped_smiles>  (1) 
[CH:1]([C:2][CH:3]([H:6])[H:7])([H:4])[H:5]

>  <mol_properties>  (1) 
{"2": {"label": "donator", "atom_type": "Cs"}, "6": {"label": "d_hydrogen", "atom_type": "H0"}}

>  <level_of_theory>  (1) 
wb97xd/def2tzvp

>  <lot_method>  (1) 
wb97xd

>  <lot_basis>  (1) 
def2tzvp

>  <spin_multiplicity>  (1) 
1.0

>  <optical_isomers>  (1) 
1.0

>  <modes>  (1) 
IdealGasTranslation(mass=(40.0313, 'amu')),         NonlinearRotor(             inertia = ([3.47492, 56.1175, 56.1175

>  <frequency_value>  (1) 
unknown

>  <frequency_units>  (1) 
unknown

>  <frequency_list>  (1) 
unknown

>  <arkane_path>  (1) 
/home/calvin/Dropbox/PersonalFolders/Calvin/HAb_Converged/rxn_256/output/Species/rxn_256_C=C=C/arkane/output.py

>  <path_exists>  (1) 
True

>  <E0_value>  (1) 
-306138.997842003

>  <E0_units>  (1) 
kJ/mol

>  <thermo_class>  (1) 
NASA

>  <Cp0_value>  (1) 
33.257888

>  <Cp0_units>  (1) 
J/(mol*K)

>  <CpInf_value>  (1) 
157.97496800000002

>  <CpInf_units>  (1) 
J/(mol*K)

>  <Tmin_value>  (1) 
10.0

>  <Tmin_units>  (1) 
K

>  <Tmax_value>  (1) 
3000.0

>  <Tmax_units>  (1) 
K

>  <polynomials>  (1) 
[{"name": "polynomial1", "class": "NASAPolynomial", "Tmin_value": 10.0, "Tmin_units": "K", "Tmax_value": 478.689340519761, "Tmax_units": "K", "coeffs": [4.059516161453229, -0.005912614580382805, 9.600646743971966e-05, -1.77788062123867e-07, 1.0996134921450719e-10, -36820016.27934644, 4.873728959152359]}, {"name": "polynomial2", "class": "NASAPolynomial", "Tmin_value": 478.689340519761, "Tmin_units": "K", "Tmax_value": 3000.0, "Tmax_units": "K", "coeffs": [1.5378315597470078, 0.021998336555596625, -1.2885639168275073e-05, 3.7126389769187168e-09, -4.1726814982831054e-13, -36819853.21856111, 14.36318164832194]}]

>  <H298_value>  (1) 
-73166.0043183083

>  <H298_units>  (1) 
kcal/mol

>  <S298_value>  (1) 
57.92822490187408

>  <S298_units>  (1) 
cal/(mol*K)

>  <Cp_T_value_list>  (1) 
[13.943677776035827, 16.87551595392454, 19.382398763692873, 21.552954477195343, 25.077850238681368, 27.71338269288983, 31.716580438515564, 33.81583480861908, 34.95918145570537]

>  <Cp_T_units>  (1) 
cal/(mol*K)

>  <T_list>  (1) 
[300.0, 400.0, 500.0, 600.0, 800.0, 1000.0, 1500.0, 2000.0, 2400.0]

>  <T_units>  (1) 
K

>  <yaml_path>  (1) 
/home/calvin/Dropbox/PersonalFolders/Calvin/HAb_Converged/rxn_256/output/Species/rxn_256_C=C=C/rxn_256_C=C=C.yml

>  <frequencies_cm1>  (1) 
[373.07644545027995, 373.220652142, 876.8041535988799, 876.92775933464, 877.4153152923599, 1011.45886873876, 1011.6717452836799, 1107.69280101324, 1411.7835119388, 1473.7992563637201, 2053.1530738414795, 3116.3066080692, 3118.70318594588, 3198.73789985048, 3198.8546386009198]

>  <ZPE_kJmol>  (1) 
144.0280692503442

>  <E_elec_kJmol>  (1) 
-306283.0259112533

>  <E0_minus_Eelec_plus_ZPE_kJmol>  (1) 
0.0

>  <rxn>  (1) 
rxn_256

>  <species_type>  (1) 
r0

>  <species_folder>  (1) 
rxn_256_C=C=C

>  <frequencies_cm1_list>  (1) 
[373.07644545027995, 373.220652142, 876.8041535988799, 876.92775933464, 877.4153152923599, 1011.45886873876, 1011.6717452836799, 1107.69280101324, 1411.7835119388, 1473.7992563637201, 2053.1530738414795, 3116.3066080692, 3118.70318594588, 3198.73789985048, 3198.8546386009198]

>  <E0_kJmol>  (1) 
-306139

>  <H298_kJmol>  (1) 
-306127

$$$$

     RDKit          3D

  3  2  0  0  0  0  0  0  0  0999 V2000
    0.0653    0.0449   -0.0350 O   0  0  0  0  0  0  0  0  0  1  0  0
   -0.6852   -0.5179   -0.2727 H   0  0  0  0  0  0  0  0  0  2  0  0
   -0.0360    0.0409    0.9275 H   0  0  0  0  0  0  0  0  0  3  0  0
  1  2  1  0
  1  3  1  0
M  END
>  <rmg_smiles>  (2) 
O

>  <rmg_adjacency_list>  (2) 
1 O u0 p2 c0 {2,S} {3,S}
2 H u0 p0 c0 {1,S}
3 H u0 p0 c0 {1,S}


>  <multiplicity>  (2) 
1

>  <reaction>  (2) 
rxn_256

>  <type>  (2) 
r2h

>  <role_mapnums>  (2) 
{"r2h_a": 1, "r2h_h": 2}

>  <role_mapidx>  (2) 
{"r2h_a": 0, "r2h_h": 1}

>  <ordered_mapped_smiles>  (2) 
[O:1]([H:2])[H:3]

>  <mol_properties>  (2) 
{"0": {"label": "acceptor", "atom_type": "O2s"}, "1": {"label": "a_hydrogen", "atom_type": "H0"}}

>  <level_of_theory>  (2) 
wb97xd/def2tzvp

>  <lot_method>  (2) 
wb97xd

>  <lot_basis>  (2) 
def2tzvp

>  <spin_multiplicity>  (2) 
1.0

>  <optical_isomers>  (2) 
1.0

>  <modes>  (2) 
IdealGasTranslation(mass=(18.0106, 'amu')),         NonlinearRotor(             inertia = ([0.602336, 1.17002, 1.77235

>  <frequency_value>  (2) 
unknown

>  <frequency_units>  (2) 
unknown

>  <frequency_list>  (2) 
unknown

>  <arkane_path>  (2) 
/home/calvin/Dropbox/PersonalFolders/Calvin/HAb_Converged/rxn_256/output/Species/rxn_256_O/arkane/output.py

>  <path_exists>  (2) 
True

>  <E0_value>  (2) 
-200631.8610370755

>  <E0_units>  (2) 
kJ/mol

>  <thermo_class>  (2) 
NASA

>  <Cp0_value>  (2) 
33.257888

>  <Cp0_units>  (2) 
J/(mol*K)

>  <CpInf_value>  (2) 
58.201304

>  <CpInf_units>  (2) 
J/(mol*K)

>  <Tmin_value>  (2) 
10.0

>  <Tmin_units>  (2) 
K

>  <Tmax_value>  (2) 
3000.0

>  <Tmax_units>  (2) 
K

>  <polynomials>  (2) 
[{"name": "polynomial1", "class": "NASAPolynomial", "Tmin_value": 10.0, "Tmin_units": "K", "Tmax_value": 775.5892611220346, "Tmax_units": "K", "coeffs": [4.0046377604896435, -0.0002349968237338005, 9.297667881726044e-07, 1.2709781190462173e-09, -1.099134861879461e-12, -24130439.408818465, -0.1238602766167563]}, {"name": "polynomial2", "class": "NASAPolynomial", "Tmin_value": 775.5892611220346, "Tmin_units": "K", "Tmax_value": 3000.0, "Tmax_units": "K", "coeffs": [3.5165154437069566, 0.001116128343838406, 5.723157882575294e-07, -3.60634757198529e-10, 5.17568046911035e-14, -24130328.613551635, 2.333142915795675]}]

>  <H298_value>  (2) 
-47949.795051442925

>  <H298_units>  (2) 
kcal/mol

>  <S298_value>  (2) 
45.0524244619197

>  <S298_units>  (2) 
cal/(mol*K)

>  <Cp_T_value_list>  (2) 
[8.034735208537397, 8.172598301648419, 8.365657236320523, 8.605476742654242, 9.165502751993213, 9.72952523102407, 10.975927733177299, 11.88561344031021, 12.367407656630238]

>  <Cp_T_units>  (2) 
cal/(mol*K)

>  <T_list>  (2) 
[300.0, 400.0, 500.0, 600.0, 800.0, 1000.0, 1500.0, 2000.0, 2400.0]

>  <T_units>  (2) 
K

>  <yaml_path>  (2) 
/home/calvin/Dropbox/PersonalFolders/Calvin/HAb_Converged/rxn_256/output/Species/rxn_256_O/rxn_256_O.yml

>  <frequencies_cm1>  (2) 
[1605.0960156821197, 3829.7657818612397, 3938.29848484384]

>  <ZPE_kJmol>  (2) 
56.06396479185102

>  <E_elec_kJmol>  (2) 
-200687.92500186732

>  <E0_minus_Eelec_plus_ZPE_kJmol>  (2) 
0.0

>  <rxn>  (2) 
rxn_256

>  <species_type>  (2) 
p0

>  <species_folder>  (2) 
rxn_256_O

>  <frequencies_cm1_list>  (2) 
[1605.0960156821197, 3829.7657818612397, 3938.29848484384]

>  <E0_kJmol>  (2) 
-200632

>  <H298_kJmol>  (2) 
-200622

$$$$

     RDKit          3D

  9  7  0  0  0  0  0  0  0  0999 V2000
    2.4273    0.8575   -0.1131 O   0  0  0  0  0  1  0  0  0  1  0  0
   -1.8806    0.1920    0.1854 C   0  0  0  0  0  0  0  0  0  2  0  0
   -0.7004   -0.2869   -0.1000 C   0  0  0  0  0  0  0  0  0  3  0  0
    0.4753   -0.7180   -0.3888 C   0  0  0  0  0  0  0  0  0  4  0  0
   -2.5364    0.5572   -0.5955 H   0  0  0  0  0  0  0  0  0  5  0  0
   -2.2368    0.2261    1.2078 H   0  0  0  0  0  0  0  0  0  6  0  0
    0.7640   -1.7398   -0.5944 H   0  0  0  0  0  0  0  0  0  7  0  0
    1.3616    0.0583   -0.4507 H   0  0  0  0  0  0  0  0  0  8  0  0
    2.3260    0.8535    0.8494 H   0  0  0  0  0  0  0  0  0  9  0  0
  1  9  1  0
  2  5  1  0
  2  6  1  0
  2  3  1  0
  3  4  1  0
  4  8  1  0
  4  7  1  0
M  RAD  1   1   2
M  END
>  <rmg_smiles>  (3) 
[CH2]C[CH2].[OH]

>  <rmg_adjacency_list>  (3) 
multiplicity 2
1 O u1 p2 c0 {9,S}
2 C u0 p0 c0 {4,S} {5,S} {6,S}
3 C u0 p0 c0 {4,S} {7,S} {8,S}
4 C u0 p1 c0 {2,S} {3,S}
5 H u0 p0 c0 {2,S}
6 H u0 p0 c0 {2,S}
7 H u0 p0 c0 {3,S}
8 H u0 p0 c0 {3,S}
9 H u0 p0 c0 {1,S}


>  <multiplicity>  (3) 
2

>  <reaction>  (3) 
rxn_256

>  <type>  (3) 
ts

>  <role_mapnums>  (3) 
{"*2": 8, "*1": 4, "*3": 1, "*0": 3, "*4": 9}

>  <role_mapidx>  (3) 
{"*2": 7, "*1": 3, "*3": 0, "*0": 2, "*4": 8}

>  <ordered_mapped_smiles>  (3) 
[O:1][H:9].[CH:2]([CH2:3][CH:4]([H:7])[H:8])([H:5])[H:6]

>  <mol_properties>  (3) 
{"0": {"label": "*3", "atom_type": "O2s"}, "2": {"label": "*0", "atom_type": "C2s"}, "3": {"label": "*1", "atom_type": "Cs"}, "7": {"label": "*2", "atom_type": "H0"}, "8": {"label": "*4", "atom_type": "H0"}}

>  <level_of_theory>  (3) 
wb97xd/def2tzvp

>  <lot_method>  (3) 
wb97xd

>  <lot_basis>  (3) 
def2tzvp

>  <spin_multiplicity>  (3) 
2.0

>  <optical_isomers>  (3) 
2.0

>  <modes>  (3) 
IdealGasTranslation(mass=(57.034, 'amu')),         NonlinearRotor(             inertia = ([23.6368, 169.021, 187.599

>  <frequency_value>  (3) 
-944.524

>  <frequency_units>  (3) 
cm^-1

>  <frequency_list>  (3) 
unknown

>  <arkane_path>  (3) 
/home/calvin/Dropbox/PersonalFolders/Calvin/HAb_Converged/rxn_256/output/rxns/TS0/arkane/output.py

>  <path_exists>  (3) 
True

>  <E0_value>  (3) 
-504970.0

>  <E0_units>  (3) 
kJ/mol

>  <thermo_class>  (3) 
unknown

>  <Cp0_value>  (3) 
unknown

>  <Cp0_units>  (3) 
unknown

>  <CpInf_value>  (3) 
unknown

>  <CpInf_units>  (3) 
unknown

>  <Tmin_value>  (3) 
unknown

>  <Tmin_units>  (3) 
unknown

>  <Tmax_value>  (3) 
unknown

>  <Tmax_units>  (3) 
unknown

>  <polynomials>  (3) 
unknown

>  <H298_value>  (3) 
unknown

>  <H298_units>  (3) 
unknown

>  <S298_value>  (3) 
unknown

>  <S298_units>  (3) 
unknown

>  <Cp_T_value_list>  (3) 
unknown

>  <Cp_T_units>  (3) 
unknown

>  <T_list>  (3) 
unknown

>  <T_units>  (3) 
unknown

>  <yaml_path>  (3) 
unknown

>  <frequencies_cm1>  (3) 
unknown

>  <ZPE_kJmol>  (3) 
unknown

>  <E_elec_kJmol>  (3) 
unknown

>  <E0_minus_Eelec_plus_ZPE_kJmol>  (3) 
unknown

>  <rxn>  (3) 
unknown

>  <species_type>  (3) 
unknown

>  <species_folder>  (3) 
unknown

>  <frequencies_cm1_list>  (3) 
[]

>  <ts_imag_freq_cm1>  (3) 
-955.996

>  <ts_freq_out_path>  (3) 
/home/calvin/Dropbox/PersonalFolders/Calvin/HAb_Converged/rxn_256/output/rxns/TS0/geometry/freq.out

>  <E0_kJmol>  (3) 
-504970

>  <H298_kJmol>  (3) 
unknown

$$$$

     RDKit          3D

  6  5  0  0  0  0  0  0  0  0999 V2000
    1.4968   -0.0097    0.1113 C   0  0  0  0  0  0  0  0  0  1  0  0
    0.2829   -0.0018    0.0210 C   0  0  0  0  0  0  0  0  0  2  0  0
   -1.0795    0.0070   -0.0803 C   0  0  0  0  0  3  0  0  0  3  0  0
    2.5571   -0.0165    0.1902 H   0  0  0  0  0  0  0  0  0  4  0  0
   -1.6181    0.9389   -0.1832 H   0  0  0  0  0  0  0  0  0  5  0  0
   -1.6393   -0.9179   -0.0591 H   0  0  0  0  0  0  0  0  0  6  0  0
  1  4  1  0
  1  2  1  0
  2  3  1  0
  3  6  1  0
  3  5  1  0
M  RAD  1   3   2
M  END
>  <rmg_smiles>  (4) 
[CH]C[CH2]

>  <rmg_adjacency_list>  (4) 
multiplicity 2
1 C u1 p0 c0 {2,S} {4,S} {5,S}
2 C u0 p1 c0 {1,S} {3,S}
3 C u0 p1 c0 {2,S} {6,S}
4 H u0 p0 c0 {1,S}
5 H u0 p0 c0 {1,S}
6 H u0 p0 c0 {3,S}


>  <multiplicity>  (4) 
2

>  <reaction>  (4) 
rxn_256

>  <type>  (4) 
r1

>  <role_mapnums>  (4) 
{}

>  <role_mapidx>  (4) 
{}

>  <ordered_mapped_smiles>  (4) 
[CH2:1]([CH2:2][C:3]([H:5])[H:6])[H:4]

>  <level_of_theory>  (4) 
wb97xd/def2tzvp

>  <lot_method>  (4) 
wb97xd

>  <lot_basis>  (4) 
def2tzvp

>  <spin_multiplicity>  (4) 
2.0

>  <optical_isomers>  (4) 
1.0

>  <modes>  (4) 
IdealGasTranslation(mass=(39.0235, 'amu')),         NonlinearRotor(             inertia = ([1.74527, 52.5377, 54.2829

>  <frequency_value>  (4) 
unknown

>  <frequency_units>  (4) 
unknown

>  <frequency_list>  (4) 
unknown

>  <arkane_path>  (4) 
/home/calvin/Dropbox/PersonalFolders/Calvin/HAb_Converged/rxn_256/output/Species/rxn_256_[CH]=C=C/arkane/output.py

>  <path_exists>  (4) 
True

>  <E0_value>  (4) 
-304448.46556643327

>  <E0_units>  (4) 
kJ/mol

>  <thermo_class>  (4) 
NASA

>  <Cp0_value>  (4) 
33.257888

>  <Cp0_units>  (4) 
J/(mol*K)

>  <CpInf_value>  (4) 
133.031552

>  <CpInf_units>  (4) 
J/(mol*K)

>  <Tmin_value>  (4) 
10.0

>  <Tmin_units>  (4) 
K

>  <Tmax_value>  (4) 
3000.0

>  <Tmax_units>  (4) 
K

>  <polynomials>  (4) 
[{"name": "polynomial1", "class": "NASAPolynomial", "Tmin_value": 10.0, "Tmin_units": "K", "Tmax_value": 545.4322858033976, "Tmax_units": "K", "coeffs": [3.9499603218219184, 0.003017565134064686, 5.5663880593738125e-05, -1.145891938777454e-07, 7.087527216200762e-11, -36616690.41912999, 5.464661756584002]}, {"name": "polynomial2", "class": "NASAPolynomial", "Tmin_value": 545.4322858033976, "Tmin_units": "K", "Tmax_value": 3000.0, "Tmax_units": "K", "coeffs": [3.789373911177466, 0.015460066047789113, -9.533910331026645e-06, 2.9656464623318287e-09, -3.6191150968379614e-13, -36616840.46347278, 4.606005615672744]}]

>  <H298_value>  (4) 
-72761.72685205255

>  <H298_units>  (4) 
kcal/mol

>  <S298_value>  (4) 
60.54560432912815

>  <S298_units>  (4) 
cal/(mol*K)

>  <Cp_T_value_list>  (4) 
[14.596350865656005, 16.978505208172123, 18.840244425047544, 20.322925848209742, 22.70561515204646, 24.480922661541676, 27.23477345925829, 28.831290583038445, 29.744408163505042]

>  <Cp_T_units>  (4) 
cal/(mol*K)

>  <T_list>  (4) 
[300.0, 400.0, 500.0, 600.0, 800.0, 1000.0, 1500.0, 2000.0, 2400.0]

>  <T_units>  (4) 
K

>  <yaml_path>  (4) 
/home/calvin/Dropbox/PersonalFolders/Calvin/HAb_Converged/rxn_256/output/Species/rxn_256_[CH]=C=C/rxn_256_CH=C=C.yml

>  <frequencies_cm1>  (4) 
[355.94331707688, 407.51437683008004, 504.51054447508, 653.44172209524, 683.5053838262, 1024.2589293752399, 1075.37676809732, 1445.76135530216, 1997.3313501752, 3133.58394313432, 3230.4359040876, 3427.03082681388]

>  <ZPE_kJmol>  (4) 
107.29725110288972

>  <E_elec_kJmol>  (4) 
-304555.76281753613

>  <E0_minus_Eelec_plus_ZPE_kJmol>  (4) 
0.0

>  <rxn>  (4) 
rxn_256

>  <species_type>  (4) 
p1

>  <species_folder>  (4) 
rxn_256_[CH]=C=C

>  <frequencies_cm1_list>  (4) 
[355.94331707688, 407.51437683008004, 504.51054447508, 653.44172209524, 683.5053838262, 1024.2589293752399, 1075.37676809732, 1445.76135530216, 1997.3313501752, 3133.58394313432, 3230.4359040876, 3427.03082681388]

>  <E0_kJmol>  (4) 
-304448

>  <H298_kJmol>  (4) 
-304435

$$$$

     RDKit          3D

  2  1  0  0  0  0  0  0  0  0999 V2000
    0.0000    0.0000    0.4855 O   0  0  0  0  0  1  0  0  0  1  0  0
    0.0000    0.0000   -0.4855 H   0  0  0  0  0  0  0  0  0  2  0  0
  1  2  1  0
M  RAD  1   1   2
M  END
>  <rmg_smiles>  (5) 
[OH]

>  <rmg_adjacency_list>  (5) 
multiplicity 2
1 O u1 p2 c0 {2,S}
2 H u0 p0 c0 {1,S}


>  <multiplicity>  (5) 
2

>  <reaction>  (5) 
rxn_256

>  <type>  (5) 
r2

>  <role_mapnums>  (5) 
{}

>  <role_mapidx>  (5) 
{}

>  <ordered_mapped_smiles>  (5) 
[O:1][H:2]

>  <level_of_theory>  (5) 
wb97xd/def2tzvp

>  <lot_method>  (5) 
wb97xd

>  <lot_basis>  (5) 
def2tzvp

>  <spin_multiplicity>  (5) 
2.0

>  <optical_isomers>  (5) 
1.0

>  <modes>  (5) 
IdealGasTranslation(mass=(17.0027, 'amu')),         LinearRotor(inertia=(0.893825, 'amu*angstrom^2'), symmetry=1),         HarmonicOscillator(frequencies=([3770.81

>  <frequency_value>  (5) 
unknown

>  <frequency_units>  (5) 
unknown

>  <frequency_list>  (5) 
unknown

>  <arkane_path>  (5) 
/home/calvin/Dropbox/PersonalFolders/Calvin/HAb_Converged/rxn_256/output/Species/rxn_256_[OH]/arkane/output.py

>  <path_exists>  (5) 
True

>  <E0_value>  (5) 
-198836.11065553885

>  <E0_units>  (5) 
kJ/mol

>  <thermo_class>  (5) 
NASA

>  <Cp0_value>  (5) 
29.100652

>  <Cp0_units>  (5) 
J/(mol*K)

>  <CpInf_value>  (5) 
37.415124

>  <CpInf_units>  (5) 
J/(mol*K)

>  <Tmin_value>  (5) 
10.0

>  <Tmin_units>  (5) 
K

>  <Tmax_value>  (5) 
3000.0

>  <Tmax_units>  (5) 
K

>  <polynomials>  (5) 
[{"name": "polynomial1", "class": "NASAPolynomial", "Tmin_value": 10.0, "Tmin_units": "K", "Tmax_value": 985.6459359324402, "Tmax_units": "K", "coeffs": [3.49686777077684, 0.00018334165413566602, -9.927422114975035e-07, 1.559335065614597e-09, -6.051175734082516e-13, -23914460.19003281, 1.4722271748407303]}, {"name": "polynomial2", "class": "NASAPolynomial", "Tmin_value": 985.6459359324402, "Tmin_units": "K", "Tmax_value": 3000.0, "Tmax_units": "K", "coeffs": [3.4538997471416084, -0.0002990851320361188, 7.409868333423891e-07, -2.8938793165350344e-10, 3.527321549332907e-14, -23914419.815698914, 1.8407453398243376]}]

>  <H298_value>  (5) 
-47520.89563591001

>  <H298_units>  (5) 
kcal/mol

>  <S298_value>  (5) 
42.56065351108258

>  <S298_units>  (5) 
cal/(mol*K)

>  <Cp_T_value_list>  (5) 
[6.95467440837288, 6.946622347988586, 6.950155535415497, 6.9708793647131895, 7.071890602250594, 7.236783548847422, 7.699190754845551, 8.085833580657471, 8.29452334304518]

>  <Cp_T_units>  (5) 
cal/(mol*K)

>  <T_list>  (5) 
[300.0, 400.0, 500.0, 600.0, 800.0, 1000.0, 1500.0, 2000.0, 2400.0]

>  <T_units>  (5) 
K

>  <yaml_path>  (5) 
/home/calvin/Dropbox/PersonalFolders/Calvin/HAb_Converged/rxn_256/output/Species/rxn_256_[OH]/rxn_256_OH.yml

>  <frequencies_cm1>  (5) 
[3725.55927963024]

>  <ZPE_kJmol>  (5) 
22.28379948603074

>  <E_elec_kJmol>  (5) 
-198858.39445502489

>  <E0_minus_Eelec_plus_ZPE_kJmol>  (5) 
0.0

>  <rxn>  (5) 
rxn_256

>  <species_type>  (5) 
r1

>  <species_folder>  (5) 
rxn_256_[OH]

>  <frequencies_cm1_list>  (5) 
[3725.55927963024]

>  <E0_kJmol>  (5) 
-198836

>  <H298_kJmol>  (5) 
-198827

$$$$
