
     RDKit          3D

 13 12  0  0  0  0  0  0  0  0999 V2000
   -0.9012   -0.5275   -1.9117 C   0  0  0  0  0  2  0  0  0  1  0  0
   -0.4016   -0.3220   -0.8363 C   0  0  0  0  0  2  0  0  0  2  0  0
    0.1874   -0.1325    0.4502 C   0  0  0  0  0  0  0  0  0  3  0  0
   -0.6983    0.5491    1.4712 C   0  0  0  0  0  0  0  0  0  4  0  0
    1.6338    0.3155    0.4407 C   0  0  0  0  0  0  0  0  0  5  0  0
   -1.3444   -0.6941   -2.8637 H   0  0  0  0  0  0  0  0  0  6  0  0
    0.2325   -1.1462    0.8484 H   0  0  0  0  0  0  0  0  0  7  0  0
   -1.6957    0.1094    1.4777 H   0  0  0  0  0  0  0  0  0  8  0  0
   -0.7981    1.6150    1.2466 H   0  0  0  0  0  0  0  0  0  9  0  0
   -0.2654    0.4497    2.4686 H   0  0  0  0  0  0  0  0  0 10  0  0
    1.7117    1.3559    0.1112 H   0  0  0  0  0  0  0  0  0 11  0  0
    2.2328   -0.2965   -0.2337 H   0  0  0  0  0  0  0  0  0 12  0  0
    2.0584    0.2474    1.4439 H   0  0  0  0  0  0  0  0  0 13  0  0
  1  6  1  0
  1  2  1  0
  2  3  1  0
  3  4  1  0
  3  5  1  0
  3  7  1  0
  4  8  1  0
  4  9  1  0
  4 10  1  0
  5 11  1  0
  5 12  1  0
  5 13  1  0
M  RAD  2   1   3   2   3
M  END
>  <rmg_smiles>  (1) 
[CH][C]C(C)C

>  <rmg_adjacency_list>  (1) 
1  C u0 p0 c0 {2,S} {3,S} {4,S} {6,S}
2  C u0 p0 c0 {1,S} {7,S} {8,S} {9,S}
3  C u0 p0 c0 {1,S} {10,S} {11,S} {12,S}
4  C u0 p1 c0 {1,S} {5,S}
5  C u0 p1 c0 {4,S} {13,S}
6  H u0 p0 c0 {1,S}
7  H u0 p0 c0 {2,S}
8  H u0 p0 c0 {2,S}
9  H u0 p0 c0 {2,S}
10 H u0 p0 c0 {3,S}
11 H u0 p0 c0 {3,S}
12 H u0 p0 c0 {3,S}
13 H u0 p0 c0 {5,S}


>  <multiplicity>  (1) 
1

>  <reaction>  (1) 
rxn_1332

>  <type>  (1) 
r1h

>  <role_mapnums>  (1) 
{"r1h_a": 3, "r1h_h": 7}

>  <role_mapidx>  (1) 
{"r1h_a": 2, "r1h_h": 6}

>  <ordered_mapped_smiles>  (1) 
[C:1]([C:2][C:3]([C:4]([H:8])([H:9])[H:10])([C:5]([H:11])([H:12])[H:13])[H:7])[H:6]

>  <mol_properties>  (1) 
{"2": {"label": "donator", "atom_type": "Cs"}, "6": {"label": "d_hydrogen", "atom_type": "H0"}}

>  <level_of_theory>  (1) 
wb97xd/def2tzvp

>  <lot_method>  (1) 
wb97xd

>  <lot_basis>  (1) 
def2tzvp

>  <spin_multiplicity>  (1) 
1.0

>  <optical_isomers>  (1) 
1.0

>  <modes>  (1) 
IdealGasTranslation(mass=(68.0626, 'amu')),         NonlinearRotor(             inertia = ([63.031, 131.338, 177.504

>  <frequency_value>  (1) 
unknown

>  <frequency_units>  (1) 
unknown

>  <frequency_list>  (1) 
unknown

>  <arkane_path>  (1) 
/home/calvin/Dropbox/PersonalFolders/Calvin/HAb_Converged/rxn_1332/output/Species/rxn_1332_CtCC[C]C/arkane/output.py

>  <path_exists>  (1) 
True

>  <E0_value>  (1) 
-512436.2321226376

>  <E0_units>  (1) 
kJ/mol

>  <thermo_class>  (1) 
NASA

>  <Cp0_value>  (1) 
33.257888

>  <Cp0_units>  (1) 
J/(mol*K)

>  <CpInf_value>  (1) 
307.635464

>  <CpInf_units>  (1) 
J/(mol*K)

>  <Tmin_value>  (1) 
10.0

>  <Tmin_units>  (1) 
K

>  <Tmax_value>  (1) 
3000.0

>  <Tmax_units>  (1) 
K

>  <polynomials>  (1) 
[{"name": "polynomial1", "class": "NASAPolynomial", "Tmin_value": 10.0, "Tmin_units": "K", "Tmax_value": 293.0407624013314, "Tmax_units": "K", "coeffs": [3.9101886097059264, 0.0069849319055039685, 0.00016661855350475234, -4.2944025859153837e-07, 3.715868629965923e-10, -61631842.919720486, 9.420104844549218]}, {"name": "polynomial2", "class": "NASAPolynomial", "Tmin_value": 293.0407624013314, "Tmin_units": "K", "Tmax_value": 3000.0, "Tmax_units": "K", "coeffs": [1.1644442010838205, 0.04446438207111068, -2.52295815987051e-05, 7.014702784040353e-09, -7.641632564807846e-13, -61631681.99713866, 19.29648088401905]}]

>  <H298_value>  (1) 
-122470.68169768815

>  <H298_units>  (1) 
kcal/mol

>  <S298_value>  (1) 
75.75418343380927

>  <S298_units>  (1) 
cal/(mol*K)

>  <Cp_T_value_list>  (1) 
[24.673759492733886, 30.48939610587082, 35.607396985307304, 40.0949997668281, 47.42973897696881, 52.95862441339962, 61.40568267180244, 65.70875577504152, 67.91222494070715]

>  <Cp_T_units>  (1) 
cal/(mol*K)

>  <T_list>  (1) 
[300.0, 400.0, 500.0, 600.0, 800.0, 1000.0, 1500.0, 2000.0, 2400.0]

>  <T_units>  (1) 
K

>  <yaml_path>  (1) 
/home/calvin/Dropbox/PersonalFolders/Calvin/HAb_Converged/rxn_1332/output/Species/rxn_1332_CtCC[C]C/rxn_1332_CtCCCC.yml

>  <frequencies_cm1>  (1) 
[181.78970237636, 214.59329125, 227.57876049012, 284.68461041124, 357.7218662747599, 538.28237827884, 546.74250419308, 681.47275617148, 684.6727713305999, 777.09552675248, 934.7477757290399, 938.00959375604, 968.90416071072, 1120.3143200313998, 1127.90233881, 1188.30434168472, 1322.0938166742799, 1344.4252529349199, 1390.50272443212, 1410.02556369688, 1473.5177099656, 1475.7288792386398, 1485.74781082052, 1496.61824858208, 2216.82766894368, 3013.5353057700795, 3017.3808175492795, 3019.5370509397603, 3091.98374606576, 3096.2206760082004, 3103.6370201537993, 3105.55290905808, 3437.4617775149595]

>  <ZPE_kJmol>  (1) 
294.721743692255

>  <E_elec_kJmol>  (1) 
-512730.9538663298

>  <E0_minus_Eelec_plus_ZPE_kJmol>  (1) 
0.0

>  <rxn>  (1) 
rxn_1332

>  <species_type>  (1) 
r0

>  <species_folder>  (1) 
rxn_1332_CtCC[C]C

>  <frequencies_cm1_list>  (1) 
[181.78970237636, 214.59329125, 227.57876049012, 284.68461041124, 357.7218662747599, 538.28237827884, 546.74250419308, 681.47275617148, 684.6727713305999, 777.09552675248, 934.7477757290399, 938.00959375604, 968.90416071072, 1120.3143200313998, 1127.90233881, 1188.30434168472, 1322.0938166742799, 1344.4252529349199, 1390.50272443212, 1410.02556369688, 1473.5177099656, 1475.7288792386398, 1485.74781082052, 1496.61824858208, 2216.82766894368, 3013.5353057700795, 3017.3808175492795, 3019.5370509397603, 3091.98374606576, 3096.2206760082004, 3103.6370201537993, 3105.55290905808, 3437.4617775149595]

>  <E0_kJmol>  (1) 
-512436

>  <H298_kJmol>  (1) 
-512417

$$$$

     RDKit          3D

 13 12  0  0  0  0  0  0  0  0999 V2000
    0.0367    1.2749   -0.6894 H   0  0  0  0  0  0  0  0  0  1  0  0
    0.6513   -0.4850   -1.4968 C   0  0  0  0  0  0  0  0  0  2  0  0
    0.0657    0.2507   -0.3175 C   0  0  0  0  0  0  0  0  0  3  0  0
   -1.3289   -0.0111    0.0412 C   0  0  0  0  0  0  0  0  0  4  0  0
   -2.1998   -0.7118   -0.6865 C   0  0  0  0  0  0  0  0  0  5  0  0
    1.1661    0.4466    1.0953 S   0  0  0  0  0  0  0  0  0  6  0  0
    0.6805   -1.5626   -1.3106 H   0  0  0  0  0  0  0  0  0  7  0  0
    0.0560   -0.3049   -2.3945 H   0  0  0  0  0  0  0  0  0  8  0  0
    1.6688   -0.1477   -1.6900 H   0  0  0  0  0  0  0  0  0  9  0  0
   -1.6634    0.4444    0.9682 H   0  0  0  0  0  0  0  0  0 10  0  0
   -3.2251   -0.8276   -0.3605 H   0  0  0  0  0  0  0  0  0 11  0  0
   -1.9240   -1.1895   -1.6180 H   0  0  0  0  0  0  0  0  0 12  0  0
    0.8645   -0.7019    1.7215 H   0  0  0  0  0  0  0  0  0 13  0  0
  1  3  1  0
  2  9  1  0
  2  8  1  0
  2  7  1  0
  2  3  1  0
  3  4  1  0
  3  6  1  0
  4  5  1  0
  4 10  1  0
  5 11  1  0
  5 12  1  0
  6 13  1  0
M  END
>  <rmg_smiles>  (2) 
[CH2][CH]C(S)C

>  <rmg_adjacency_list>  (2) 
1  S u0 p2 c0 {2,S} {13,S}
2  C u0 p0 c0 {1,S} {3,S} {4,S} {6,S}
3  C u0 p0 c0 {2,S} {7,S} {8,S} {9,S}
4  C u0 p0 c0 {2,S} {5,S} {10,S}
5  C u0 p0 c0 {4,S} {11,S} {12,S}
6  H u0 p0 c0 {2,S}
7  H u0 p0 c0 {3,S}
8  H u0 p0 c0 {3,S}
9  H u0 p0 c0 {3,S}
10 H u0 p0 c0 {4,S}
11 H u0 p0 c0 {5,S}
12 H u0 p0 c0 {5,S}
13 H u0 p0 c0 {1,S}


>  <multiplicity>  (2) 
1

>  <reaction>  (2) 
rxn_1332

>  <type>  (2) 
r2h

>  <role_mapnums>  (2) 
{"r2h_a": 3, "r2h_h": 1}

>  <role_mapidx>  (2) 
{"r2h_a": 2, "r2h_h": 0}

>  <ordered_mapped_smiles>  (2) 
[H:1][C:3]([C:2]([H:7])([H:8])[H:9])([CH:4]([CH:5]([H:11])[H:12])[H:10])[S:6][H:13]

>  <mol_properties>  (2) 
{"0": {"label": "a_hydrogen", "atom_type": "H0"}, "2": {"label": "acceptor", "atom_type": "Cs"}}

>  <level_of_theory>  (2) 
wb97xd/def2tzvp

>  <lot_method>  (2) 
wb97xd

>  <lot_basis>  (2) 
def2tzvp

>  <spin_multiplicity>  (2) 
1.0

>  <optical_isomers>  (2) 
2.0

>  <modes>  (2) 
IdealGasTranslation(mass=(88.0347, 'amu')),         NonlinearRotor(             inertia = ([80.9896, 186.939, 240.36

>  <frequency_value>  (2) 
unknown

>  <frequency_units>  (2) 
unknown

>  <frequency_list>  (2) 
unknown

>  <arkane_path>  (2) 
/home/calvin/Dropbox/PersonalFolders/Calvin/HAb_Converged/rxn_1332/output/Species/rxn_1332_CC[C=C]S/arkane/output.py

>  <path_exists>  (2) 
True

>  <E0_value>  (2) 
-1457993.2203154718

>  <E0_units>  (2) 
kJ/mol

>  <thermo_class>  (2) 
NASA

>  <Cp0_value>  (2) 
33.257888

>  <Cp0_units>  (2) 
J/(mol*K)

>  <CpInf_value>  (2) 
307.635464

>  <CpInf_units>  (2) 
J/(mol*K)

>  <Tmin_value>  (2) 
10.0

>  <Tmin_units>  (2) 
K

>  <Tmax_value>  (2) 
3000.0

>  <Tmax_units>  (2) 
K

>  <polynomials>  (2) 
[{"name": "polynomial1", "class": "NASAPolynomial", "Tmin_value": 10.0, "Tmin_units": "K", "Tmax_value": 295.7227912497842, "Tmax_units": "K", "coeffs": [3.859964156764265, 0.01144860889918731, 0.0001493029899500801, -3.9039348716992893e-07, 3.358044146618703e-10, -175356080.2071909, 11.069034930037732]}, {"name": "polynomial2", "class": "NASAPolynomial", "Tmin_value": 295.7227912497842, "Tmin_units": "K", "Tmax_value": 3000.0, "Tmax_units": "K", "coeffs": [1.2850875538289555, 0.046276930240981576, -2.7357704114677986e-05, 7.864783684789184e-09, -8.783951656354052e-13, -175355927.91757682, 20.354264054524194]}]

>  <H298_value>  (2) 
-348464.0452129305

>  <H298_units>  (2) 
kcal/mol

>  <S298_value>  (2) 
80.12210228638097

>  <S298_units>  (2) 
cal/(mol*K)

>  <Cp_T_value_list>  (2) 
[25.657235309186788, 31.595562401016796, 36.787812405776, 41.308907051164105, 48.616370543623205, 54.03354017598102, 62.08513628914328, 66.11849050718591, 68.25869648313012]

>  <Cp_T_units>  (2) 
cal/(mol*K)

>  <T_list>  (2) 
[300.0, 400.0, 500.0, 600.0, 800.0, 1000.0, 1500.0, 2000.0, 2400.0]

>  <T_units>  (2) 
K

>  <yaml_path>  (2) 
/home/calvin/Dropbox/PersonalFolders/Calvin/HAb_Converged/rxn_1332/output/Species/rxn_1332_CC[C=C]S/rxn_1332_CCC=CS.yml

>  <frequencies_cm1>  (2) 
[112.52242145352, 239.03975898919998, 283.2974793766, 286.77904093384, 324.26591379572, 340.0531130464, 516.9535218749198, 611.3059001717199, 707.99305347732, 859.67102522548, 891.12181799108, 956.0216962503999, 997.40214978872, 1034.16112220668, 1059.6582386998398, 1092.5304974266799, 1167.99179910816, 1255.42912318772, 1324.7582069784398, 1338.95226563488, 1400.5765918965599, 1439.5192656462798, 1479.7323316801999, 1488.1993245797596, 1707.24242231712, 2690.2788388163995, 3016.12415923572, 3026.0744209644, 3087.1562553858, 3110.68941407744, 3126.04399325296, 3140.3273227185596, 3212.2246590189598]

>  <ZPE_kJmol>  (2) 
283.0610419775438

>  <E_elec_kJmol>  (2) 
-1458276.2813574492

>  <E0_minus_Eelec_plus_ZPE_kJmol>  (2) 
0.0

>  <rxn>  (2) 
rxn_1332

>  <species_type>  (2) 
p0

>  <species_folder>  (2) 
rxn_1332_CC[C=C]S

>  <frequencies_cm1_list>  (2) 
[112.52242145352, 239.03975898919998, 283.2974793766, 286.77904093384, 324.26591379572, 340.0531130464, 516.9535218749198, 611.3059001717199, 707.99305347732, 859.67102522548, 891.12181799108, 956.0216962503999, 997.40214978872, 1034.16112220668, 1059.6582386998398, 1092.5304974266799, 1167.99179910816, 1255.42912318772, 1324.7582069784398, 1338.95226563488, 1400.5765918965599, 1439.5192656462798, 1479.7323316801999, 1488.1993245797596, 1707.24242231712, 2690.2788388163995, 3016.12415923572, 3026.0744209644, 3087.1562553858, 3110.68941407744, 3126.04399325296, 3140.3273227185596, 3212.2246590189598]

>  <E0_kJmol>  (2) 
-1.45799e+06

>  <H298_kJmol>  (2) 
-1.45797e+06

$$$$

     RDKit          3D

 25 23  0  0  0  0  0  0  0  0999 V2000
   -1.1753    1.1448   -2.7612 C   0  0  0  0  0  0  0  0  0  1  0  0
   -0.6757    1.3504   -1.6858 C   0  0  0  0  0  0  0  0  0  2  0  0
   -0.0867    1.5398   -0.3994 C   0  0  0  0  0  3  0  0  0  3  0  0
   -0.9723    2.2215    0.6216 C   0  0  0  0  0  0  0  0  0  4  0  0
    1.3598    1.9879   -0.4089 C   0  0  0  0  0  0  0  0  0  5  0  0
   -1.6184    0.9782   -3.7132 H   0  0  0  0  0  0  0  0  0  6  0  0
   -0.0308    0.2834    0.0943 H   0  0  0  0  0  0  0  0  0  7  0  0
   -1.9697    1.7817    0.6281 H   0  0  0  0  0  0  0  0  0  8  0  0
   -1.0721    3.2874    0.3971 H   0  0  0  0  0  0  0  0  0  9  0  0
   -0.5394    2.1221    1.6191 H   0  0  0  0  0  0  0  0  0 10  0  0
    1.4377    3.0282   -0.7384 H   0  0  0  0  0  0  0  0  0 11  0  0
    1.9587    1.3759   -1.0833 H   0  0  0  0  0  0  0  0  0 12  0  0
    1.7844    1.9197    0.5943 H   0  0  0  0  0  0  0  0  0 13  0  0
    0.5907   -1.7194   -0.6250 C   0  0  0  0  0  0  0  0  0 14  0  0
    0.0052   -0.9837    0.5543 C   0  0  0  0  0  0  0  0  0 15  0  0
   -1.3895   -1.2455    0.9131 C   0  0  0  0  0  0  0  0  0 16  0  0
   -2.2604   -1.9463    0.1853 C   0  0  0  0  0  0  0  0  0 17  0  0
    1.1055   -0.7878    1.9671 S   0  0  0  0  0  0  0  0  0 18  0  0
    0.6199   -2.7971   -0.4388 H   0  0  0  0  0  0  0  0  0 19  0  0
   -0.0046   -1.5394   -1.5227 H   0  0  0  0  0  0  0  0  0 20  0  0
    1.6082   -1.3821   -0.8182 H   0  0  0  0  0  0  0  0  0 21  0  0
   -1.7240   -0.7901    1.8400 H   0  0  0  0  0  0  0  0  0 22  0  0
   -3.2856   -2.0620    0.5114 H   0  0  0  0  0  0  0  0  0 23  0  0
   -1.9846   -2.4240   -0.7462 H   0  0  0  0  0  0  0  0  0 24  0  0
    0.8039   -1.9363    2.5934 H   0  0  0  0  0  0  0  0  0 25  0  0
  1  6  1  0
  1  2  1  0
  2  3  1  0
  3  4  1  0
  3  5  1  0
  4 10  1  0
  4  9  1  0
  4  8  1  0
  5 12  1  0
  5 11  1  0
  5 13  1  0
  7 15  1  0
 14 15  1  0
 14 19  1  0
 14 20  1  0
 14 21  1  0
 15 18  1  0
 15 16  1  0
 16 22  1  0
 16 17  1  0
 17 23  1  0
 17 24  1  0
 18 25  1  0
M  RAD  1   3   2
M  END
>  <rmg_smiles>  (3) 
[CH][C][C](C)C.[CH2][CH]C(S)C

>  <rmg_adjacency_list>  (3) 
multiplicity 2
1  S u0 p2 c0 {2,S} {24,S}
2  C u0 p0 c0 {1,S} {3,S} {7,S} {11,S}
3  C u0 p0 c0 {2,S} {12,S} {13,S} {14,S}
4  C u0 p0 c0 {6,S} {15,S} {16,S} {17,S}
5  C u0 p0 c0 {6,S} {18,S} {19,S} {20,S}
6  C u1 p0 c0 {4,S} {5,S} {9,S}
7  C u0 p0 c0 {2,S} {8,S} {21,S}
8  C u0 p0 c0 {7,S} {22,S} {23,S}
9  C u0 p1 c0 {6,S} {10,S}
10 C u0 p1 c0 {9,S} {25,S}
11 H u0 p0 c0 {2,S}
12 H u0 p0 c0 {3,S}
13 H u0 p0 c0 {3,S}
14 H u0 p0 c0 {3,S}
15 H u0 p0 c0 {4,S}
16 H u0 p0 c0 {4,S}
17 H u0 p0 c0 {4,S}
18 H u0 p0 c0 {5,S}
19 H u0 p0 c0 {5,S}
20 H u0 p0 c0 {5,S}
21 H u0 p0 c0 {7,S}
22 H u0 p0 c0 {8,S}
23 H u0 p0 c0 {8,S}
24 H u0 p0 c0 {1,S}
25 H u0 p0 c0 {10,S}


>  <multiplicity>  (3) 
2

>  <reaction>  (3) 
rxn_1332

>  <type>  (3) 
ts

>  <role_mapnums>  (3) 
{"*2": 7, "*1": 3, "*3": 15, "*0": 18, "*4": 2}

>  <role_mapidx>  (3) 
{"*2": 6, "*1": 2, "*3": 14, "*0": 17, "*4": 1}

>  <ordered_mapped_smiles>  (3) 
[CH2:1]([CH2:2][C:3]([C:4]([H:8])([H:9])[H:10])[C:5]([H:11])([H:12])[H:13])[H:6].[H:7][C:15]([C:14]([H:19])([H:20])[H:21])([CH:16]([CH:17]([H:23])[H:24])[H:22])[S:18][H:25]

>  <mol_properties>  (3) 
{"1": {"label": "*4", "atom_type": "C2s"}, "2": {"label": "*1", "atom_type": "Cs"}, "6": {"label": "*2", "atom_type": "H0"}, "14": {"label": "*3", "atom_type": "Cs"}, "17": {"label": "*0", "atom_type": "S2s"}}

>  <level_of_theory>  (3) 
wb97xd/def2tzvp

>  <lot_method>  (3) 
wb97xd

>  <lot_basis>  (3) 
def2tzvp

>  <spin_multiplicity>  (3) 
2.0

>  <optical_isomers>  (3) 
2.0

>  <modes>  (3) 
IdealGasTranslation(mass=(155.089, 'amu')),         NonlinearRotor(             inertia = ([416.574, 604.34, 761.228

>  <frequency_value>  (3) 
-1754.64

>  <frequency_units>  (3) 
cm^-1

>  <frequency_list>  (3) 
unknown

>  <arkane_path>  (3) 
/home/calvin/Dropbox/PersonalFolders/Calvin/HAb_Converged/rxn_1332/output/rxns/TS0/arkane/output.py

>  <path_exists>  (3) 
True

>  <E0_value>  (3) 
-1968710.0

>  <E0_units>  (3) 
kJ/mol

>  <thermo_class>  (3) 
unknown

>  <Cp0_value>  (3) 
unknown

>  <Cp0_units>  (3) 
unknown

>  <CpInf_value>  (3) 
unknown

>  <CpInf_units>  (3) 
unknown

>  <Tmin_value>  (3) 
unknown

>  <Tmin_units>  (3) 
unknown

>  <Tmax_value>  (3) 
unknown

>  <Tmax_units>  (3) 
unknown

>  <polynomials>  (3) 
unknown

>  <H298_value>  (3) 
unknown

>  <H298_units>  (3) 
unknown

>  <S298_value>  (3) 
unknown

>  <S298_units>  (3) 
unknown

>  <Cp_T_value_list>  (3) 
unknown

>  <Cp_T_units>  (3) 
unknown

>  <T_list>  (3) 
unknown

>  <T_units>  (3) 
unknown

>  <yaml_path>  (3) 
unknown

>  <frequencies_cm1>  (3) 
unknown

>  <ZPE_kJmol>  (3) 
unknown

>  <E_elec_kJmol>  (3) 
unknown

>  <E0_minus_Eelec_plus_ZPE_kJmol>  (3) 
unknown

>  <rxn>  (3) 
unknown

>  <species_type>  (3) 
unknown

>  <species_folder>  (3) 
unknown

>  <frequencies_cm1_list>  (3) 
[]

>  <ts_imag_freq_cm1>  (3) 
-1775.9509

>  <ts_freq_out_path>  (3) 
/home/calvin/Dropbox/PersonalFolders/Calvin/HAb_Converged/rxn_1332/output/rxns/TS0/geometry/freq.out

>  <E0_kJmol>  (3) 
-1.96871e+06

>  <H298_kJmol>  (3) 
unknown

$$$$

     RDKit          3D

 12 11  0  0  0  0  0  0  0  0999 V2000
    2.5164   -0.5559   -0.0242 C   0  0  0  0  0  0  0  0  0  1  0  0
    1.3287   -0.2938   -0.0132 C   0  0  0  0  0  0  0  0  0  2  0  0
   -0.0146    0.0027   -0.0006 C   0  0  0  0  0  3  0  0  0  3  0  0
   -1.0396   -1.0729   -0.1642 C   0  0  0  0  0  0  0  0  0  4  0  0
   -0.4887    1.4091    0.1769 C   0  0  0  0  0  0  0  0  0  5  0  0
    3.5543   -0.7850   -0.0339 H   0  0  0  0  0  0  0  0  0  6  0  0
   -1.7064   -1.1056    0.7044 H   0  0  0  0  0  0  0  0  0  7  0  0
   -0.5831   -2.0533   -0.2854 H   0  0  0  0  0  0  0  0  0  8  0  0
   -1.6716   -0.8741   -1.0367 H   0  0  0  0  0  0  0  0  0  9  0  0
   -1.0951    1.7228   -0.6798 H   0  0  0  0  0  0  0  0  0 10  0  0
    0.3401    2.1059    0.2861 H   0  0  0  0  0  0  0  0  0 11  0  0
   -1.1300    1.4913    1.0613 H   0  0  0  0  0  0  0  0  0 12  0  0
  1  6  1  0
  1  2  1  0
  2  3  1  0
  3  4  1  0
  3  5  1  0
  4  8  1  0
  4  9  1  0
  4  7  1  0
  5 11  1  0
  5 12  1  0
  5 10  1  0
M  RAD  1   3   2
M  END
>  <rmg_smiles>  (4) 
[CH]C[C](C)C

>  <rmg_adjacency_list>  (4) 
multiplicity 2
1  C u0 p0 c0 {3,S} {6,S} {7,S} {8,S}
2  C u0 p0 c0 {3,S} {9,S} {10,S} {11,S}
3  C u1 p0 c0 {1,S} {2,S} {4,S}
4  C u0 p1 c0 {3,S} {5,S}
5  C u0 p1 c0 {4,S} {12,S}
6  H u0 p0 c0 {1,S}
7  H u0 p0 c0 {1,S}
8  H u0 p0 c0 {1,S}
9  H u0 p0 c0 {2,S}
10 H u0 p0 c0 {2,S}
11 H u0 p0 c0 {2,S}
12 H u0 p0 c0 {5,S}


>  <multiplicity>  (4) 
2

>  <reaction>  (4) 
rxn_1332

>  <type>  (4) 
r1

>  <role_mapnums>  (4) 
{}

>  <role_mapidx>  (4) 
{}

>  <ordered_mapped_smiles>  (4) 
[CH2:1]([CH2:2][C:3]([C:4]([H:7])([H:8])[H:9])[C:5]([H:10])([H:11])[H:12])[H:6]

>  <level_of_theory>  (4) 
wb97xd/def2tzvp

>  <lot_method>  (4) 
wb97xd

>  <lot_basis>  (4) 
def2tzvp

>  <spin_multiplicity>  (4) 
2.0

>  <optical_isomers>  (4) 
1.0

>  <modes>  (4) 
IdealGasTranslation(mass=(67.0548, 'amu')),         NonlinearRotor(             inertia = ([59.1627, 131.378, 184.32

>  <frequency_value>  (4) 
unknown

>  <frequency_units>  (4) 
unknown

>  <frequency_list>  (4) 
unknown

>  <arkane_path>  (4) 
/home/calvin/Dropbox/PersonalFolders/Calvin/HAb_Converged/rxn_1332/output/Species/rxn_1332_CtC[C][C]C/arkane/output.py

>  <path_exists>  (4) 
True

>  <E0_value>  (4) 
-510778.0605189803

>  <E0_units>  (4) 
kJ/mol

>  <thermo_class>  (4) 
NASA

>  <Cp0_value>  (4) 
33.257888

>  <Cp0_units>  (4) 
J/(mol*K)

>  <CpInf_value>  (4) 
282.692048

>  <CpInf_units>  (4) 
J/(mol*K)

>  <Tmin_value>  (4) 
10.0

>  <Tmin_units>  (4) 
K

>  <Tmax_value>  (4) 
3000.0

>  <Tmax_units>  (4) 
K

>  <polynomials>  (4) 
[{"name": "polynomial1", "class": "NASAPolynomial", "Tmin_value": 10.0, "Tmin_units": "K", "Tmax_value": 1039.297839376542, "Tmax_units": "K", "coeffs": [3.598818116233137, 0.033392740321885155, -9.378432171899418e-06, -5.856696266128411e-09, 3.271376899501553e-12, -61432406.21278496, 9.976237246510115]}, {"name": "polynomial2", "class": "NASAPolynomial", "Tmin_value": 1039.297839376542, "Tmin_units": "K", "Tmax_value": 3000.0, "Tmax_units": "K", "coeffs": [5.079452673281011, 0.033284570157804484, -1.7290873427004894e-05, 4.394457265686428e-09, -4.3949451822427094e-13, -61433015.89895733, 1.3234305447781438]}]

>  <H298_value>  (4) 
-122073.98367000771

>  <H298_units>  (4) 
kcal/mol

>  <S298_value>  (4) 
79.4255488393029

>  <S298_units>  (4) 
cal/(mol*K)

>  <Cp_T_value_list>  (4) 
[25.1201753773187, 30.13456332004963, 34.623007965675164, 38.58588826040132, 45.014482399280844, 49.735420575541255, 57.04911167988228, 60.826095998833885, 62.665750252433256]

>  <Cp_T_units>  (4) 
cal/(mol*K)

>  <T_list>  (4) 
[300.0, 400.0, 500.0, 600.0, 800.0, 1000.0, 1500.0, 2000.0, 2400.0]

>  <T_units>  (4) 
K

>  <yaml_path>  (4) 
/home/calvin/Dropbox/PersonalFolders/Calvin/HAb_Converged/rxn_1332/output/Species/rxn_1332_CtC[C][C]C/rxn_1332_CtCCCC.yml

>  <frequencies_cm1>  (4) 
[99.21420390335999, 101.22623060211998, 185.93736150964, 255.63726250763995, 344.22137313563996, 457.05280892856, 461.24166997375994, 585.753847796, 665.5688181703599, 727.2892822265198, 951.3864811594, 965.6148747424401, 1006.9197914422399, 1043.12253804928, 1243.10975152364, 1333.7402237769998, 1389.39027281028, 1401.68217653308, 1454.72277114476, 1460.9648608006398, 1470.11168524688, 1490.7813110600798, 2012.45245184984, 2983.54718087764, 2987.02874243488, 3032.15856995792, 3032.5293871651998, 3111.8568015818396, 3113.09285893944, 3430.21024101704]

>  <ZPE_kJmol>  (4) 
255.9863644311404

>  <E_elec_kJmol>  (4) 
-511034.0468834115

>  <E0_minus_Eelec_plus_ZPE_kJmol>  (4) 
0.0

>  <rxn>  (4) 
rxn_1332

>  <species_type>  (4) 
p1

>  <species_folder>  (4) 
rxn_1332_CtC[C][C]C

>  <frequencies_cm1_list>  (4) 
[99.21420390335999, 101.22623060211998, 185.93736150964, 255.63726250763995, 344.22137313563996, 457.05280892856, 461.24166997375994, 585.753847796, 665.5688181703599, 727.2892822265198, 951.3864811594, 965.6148747424401, 1006.9197914422399, 1043.12253804928, 1243.10975152364, 1333.7402237769998, 1389.39027281028, 1401.68217653308, 1454.72277114476, 1460.9648608006398, 1470.11168524688, 1490.7813110600798, 2012.45245184984, 2983.54718087764, 2987.02874243488, 3032.15856995792, 3032.5293871651998, 3111.8568015818396, 3113.09285893944, 3430.21024101704]

>  <E0_kJmol>  (4) 
-510778

>  <H298_kJmol>  (4) 
-510758

$$$$

     RDKit          3D

 12 11  0  0  0  0  0  0  0  0999 V2000
   -0.9951    0.1196   -0.8321 C   0  0  0  0  0  0  0  0  0  1  0  0
   -0.3760    0.2571    0.5231 C   0  0  0  0  0  3  0  0  0  2  0  0
    0.9330   -0.1537    0.7810 C   0  0  0  0  0  0  0  0  0  3  0  0
    1.5987   -0.1880    1.9734 C   0  0  0  0  0  0  0  0  0  4  0  0
   -1.4483    0.9449    1.7152 S   0  0  0  0  0  0  0  0  0  5  0  0
   -1.9164   -0.4696   -0.7936 H   0  0  0  0  0  0  0  0  0  6  0  0
   -1.2565    1.0958   -1.2506 H   0  0  0  0  0  0  0  0  0  7  0  0
   -0.3088   -0.3780   -1.5170 H   0  0  0  0  0  0  0  0  0  8  0  0
    1.4783   -0.4898   -0.0971 H   0  0  0  0  0  0  0  0  0  9  0  0
    2.6278   -0.5153    2.0142 H   0  0  0  0  0  0  0  0  0 10  0  0
    1.1316    0.0690    2.9151 H   0  0  0  0  0  0  0  0  0 11  0  0
   -0.5306    1.3052    2.6211 H   0  0  0  0  0  0  0  0  0 12  0  0
  1  8  1  0
  1  7  1  0
  1  6  1  0
  1  2  1  0
  2  5  1  0
  2  3  1  0
  3  4  1  0
  3  9  1  0
  4 10  1  0
  4 11  1  0
  5 12  1  0
M  RAD  1   2   2
M  END
>  <rmg_smiles>  (5) 
[CH2][CH][C](S)C

>  <rmg_adjacency_list>  (5) 
multiplicity 2
1  S u0 p2 c0 {3,S} {12,S}
2  C u0 p0 c0 {3,S} {6,S} {7,S} {8,S}
3  C u1 p0 c0 {1,S} {2,S} {4,S}
4  C u0 p0 c0 {3,S} {5,S} {9,S}
5  C u0 p0 c0 {4,S} {10,S} {11,S}
6  H u0 p0 c0 {2,S}
7  H u0 p0 c0 {2,S}
8  H u0 p0 c0 {2,S}
9  H u0 p0 c0 {4,S}
10 H u0 p0 c0 {5,S}
11 H u0 p0 c0 {5,S}
12 H u0 p0 c0 {1,S}


>  <multiplicity>  (5) 
2

>  <reaction>  (5) 
rxn_1332

>  <type>  (5) 
r2

>  <role_mapnums>  (5) 
{}

>  <role_mapidx>  (5) 
{}

>  <ordered_mapped_smiles>  (5) 
[C:1]([C:2]([CH:3]([CH:4]([H:10])[H:11])[H:9])[S:5][H:12])([H:6])([H:7])[H:8]

>  <level_of_theory>  (5) 
wb97xd/def2tzvp

>  <lot_method>  (5) 
wb97xd

>  <lot_basis>  (5) 
def2tzvp

>  <spin_multiplicity>  (5) 
2.0

>  <optical_isomers>  (5) 
2.0

>  <modes>  (5) 
IdealGasTranslation(mass=(87.0269, 'amu')),         NonlinearRotor(             inertia = ([99.3628, 146.633, 242.323

>  <frequency_value>  (5) 
unknown

>  <frequency_units>  (5) 
unknown

>  <frequency_list>  (5) 
unknown

>  <arkane_path>  (5) 
/home/calvin/Dropbox/PersonalFolders/Calvin/HAb_Converged/rxn_1332/output/Species/rxn_1332_C[C][C=C]S/arkane/output.py

>  <path_exists>  (5) 
True

>  <E0_value>  (5) 
-1456353.608769656

>  <E0_units>  (5) 
kJ/mol

>  <thermo_class>  (5) 
NASA

>  <Cp0_value>  (5) 
33.257888

>  <Cp0_units>  (5) 
J/(mol*K)

>  <CpInf_value>  (5) 
282.692048

>  <CpInf_units>  (5) 
J/(mol*K)

>  <Tmin_value>  (5) 
10.0

>  <Tmin_units>  (5) 
K

>  <Tmax_value>  (5) 
3000.0

>  <Tmax_units>  (5) 
K

>  <polynomials>  (5) 
[{"name": "polynomial1", "class": "NASAPolynomial", "Tmin_value": 10.0, "Tmin_units": "K", "Tmax_value": 205.80650001419886, "Tmax_units": "K", "coeffs": [3.8440856794272613, 0.015173423929265718, 0.0001696066012291508, -6.246736811244413e-07, 7.671408260934974e-10, -175158884.09550312, 11.74548151434498]}, {"name": "polynomial2", "class": "NASAPolynomial", "Tmin_value": 205.80650001419886, "Tmin_units": "K", "Tmax_value": 3000.0, "Tmax_units": "K", "coeffs": [2.4662723419088897, 0.04195240539511486, -2.5570557967217166e-05, 7.565508554975468e-09, -8.660348196717911e-13, -175158827.38327616, 16.214552316063592]}]

>  <H298_value>  (5) 
-348072.01767856354

>  <H298_units>  (5) 
kcal/mol

>  <S298_value>  (5) 
82.8597520593648

>  <S298_units>  (5) 
cal/(mol*K)

>  <Cp_T_value_list>  (5) 
[25.730146269208497, 31.036126113187212, 35.65326063699916, 39.653168515089206, 46.067127151598726, 50.76834389713698, 57.64968549565848, 61.11924368128013, 63.03074206892615]

>  <Cp_T_units>  (5) 
cal/(mol*K)

>  <T_list>  (5) 
[300.0, 400.0, 500.0, 600.0, 800.0, 1000.0, 1500.0, 2000.0, 2400.0]

>  <T_units>  (5) 
K

>  <yaml_path>  (5) 
/home/calvin/Dropbox/PersonalFolders/Calvin/HAb_Converged/rxn_1332/output/Species/rxn_1332_C[C][C=C]S/rxn_1332_CCC=CS.yml

>  <frequencies_cm1>  (5) 
[98.9532584612, 151.42389329131998, 232.0010990362, 298.89927002364, 330.48053551031995, 349.21367146328, 522.0762929236399, 588.7821883221199, 625.9600468445999, 795.4921804247599, 896.58107132048, 946.2019072428, 949.3950554165998, 1028.4615243910798, 1048.7259980703998, 1178.03819863132, 1246.9003274202798, 1314.9315509855198, 1402.4787468301997, 1441.74416888996, 1459.15884366148, 1479.79413454808, 1527.8149628908398, 2701.01880385688, 2997.2948854882798, 3049.9715298779997, 3100.25159639104, 3118.39417160648, 3137.12730755944, 3226.2539100277195]

>  <ZPE_kJmol>  (5) 
246.6929046479244

>  <E_elec_kJmol>  (5) 
-1456600.3016743038

>  <E0_minus_Eelec_plus_ZPE_kJmol>  (5) 
0.0

>  <rxn>  (5) 
rxn_1332

>  <species_type>  (5) 
r1

>  <species_folder>  (5) 
rxn_1332_C[C][C=C]S

>  <frequencies_cm1_list>  (5) 
[98.9532584612, 151.42389329131998, 232.0010990362, 298.89927002364, 330.48053551031995, 349.21367146328, 522.0762929236399, 588.7821883221199, 625.9600468445999, 795.4921804247599, 896.58107132048, 946.2019072428, 949.3950554165998, 1028.4615243910798, 1048.7259980703998, 1178.03819863132, 1246.9003274202798, 1314.9315509855198, 1402.4787468301997, 1441.74416888996, 1459.15884366148, 1479.79413454808, 1527.8149628908398, 2701.01880385688, 2997.2948854882798, 3049.9715298779997, 3100.25159639104, 3118.39417160648, 3137.12730755944, 3226.2539100277195]

>  <E0_kJmol>  (5) 
-1.45635e+06

>  <H298_kJmol>  (5) 
-1.45633e+06

$$$$
