
     RDKit          3D

 11 10  0  0  0  0  0  0  0  0999 V2000
    0.1945   -0.0790   -1.2865 C   0  0  0  0  0  0  0  0  0  1  0  0
   -0.0418   -0.5171    0.1316 C   0  0  0  0  0  0  0  0  0  2  0  0
   -0.1900    0.5732    1.1552 C   0  0  0  0  0  0  0  0  0  3  0  0
    1.0695    0.5731   -1.3482 H   0  0  0  0  0  0  0  0  0  4  0  0
   -0.6632    0.4855   -1.6697 H   0  0  0  0  0  0  0  0  0  5  0  0
    0.3557   -0.9293   -1.9507 H   0  0  0  0  0  0  0  0  0  6  0  0
    0.8974   -0.9976    0.4078 H   0  0  0  0  0  0  0  0  0  7  0  0
   -0.7636   -1.3281    0.2345 H   0  0  0  0  0  0  0  0  0  8  0  0
   -1.0757    1.1852    0.9495 H   0  0  0  0  0  0  0  0  0  9  0  0
   -0.2924    0.1698    2.1636 H   0  0  0  0  0  0  0  0  0 10  0  0
    0.6777    1.2377    1.1396 H   0  0  0  0  0  0  0  0  0 11  0  0
  1  5  1  0
  1  4  1  0
  1  6  1  0
  1  2  1  0
  2  8  1  0
  2  7  1  0
  2  3  1  0
  3 11  1  0
  3  9  1  0
  3 10  1  0
M  END
>  <rmg_smiles>  (1) 
CCC

>  <rmg_adjacency_list>  (1) 
1  C u0 p0 c0 {2,S} {4,S} {5,S} {6,S}
2  C u0 p0 c0 {1,S} {3,S} {7,S} {8,S}
3  C u0 p0 c0 {2,S} {9,S} {10,S} {11,S}
4  H u0 p0 c0 {1,S}
5  H u0 p0 c0 {1,S}
6  H u0 p0 c0 {1,S}
7  H u0 p0 c0 {2,S}
8  H u0 p0 c0 {2,S}
9  H u0 p0 c0 {3,S}
10 H u0 p0 c0 {3,S}
11 H u0 p0 c0 {3,S}


>  <multiplicity>  (1) 
1

>  <reaction>  (1) 
rxn_949

>  <type>  (1) 
r1h

>  <role_mapnums>  (1) 
{"r1h_a": 2, "r1h_h": 7}

>  <role_mapidx>  (1) 
{"r1h_a": 1, "r1h_h": 6}

>  <ordered_mapped_smiles>  (1) 
[C:1]([C:2]([C:3]([H:9])([H:10])[H:11])([H:7])[H:8])([H:4])([H:5])[H:6]

>  <mol_properties>  (1) 
{"1": {"label": "donator", "atom_type": "Cs"}, "6": {"label": "d_hydrogen", "atom_type": "H0"}}

>  <level_of_theory>  (1) 
wb97xd/def2tzvp

>  <lot_method>  (1) 
wb97xd

>  <lot_basis>  (1) 
def2tzvp

>  <spin_multiplicity>  (1) 
1.0

>  <optical_isomers>  (1) 
1.0

>  <modes>  (1) 
IdealGasTranslation(mass=(44.0626, 'amu')),         NonlinearRotor(             inertia = ([17.0625, 59.5808, 67.2958

>  <frequency_value>  (1) 
unknown

>  <frequency_units>  (1) 
unknown

>  <frequency_list>  (1) 
unknown

>  <arkane_path>  (1) 
/home/calvin/Dropbox/PersonalFolders/Calvin/HAb_Converged/rxn_949/output/Species/rxn_949_CCC/arkane/output.py

>  <path_exists>  (1) 
True

>  <E0_value>  (1) 
-312559.7664121831

>  <E0_units>  (1) 
kJ/mol

>  <thermo_class>  (1) 
NASA

>  <Cp0_value>  (1) 
33.257888

>  <Cp0_units>  (1) 
J/(mol*K)

>  <CpInf_value>  (1) 
257.748632

>  <CpInf_units>  (1) 
J/(mol*K)

>  <Tmin_value>  (1) 
10.0

>  <Tmin_units>  (1) 
K

>  <Tmax_value>  (1) 
3000.0

>  <Tmax_units>  (1) 
K

>  <polynomials>  (1) 
[{"name": "polynomial1", "class": "NASAPolynomial", "Tmin_value": 10.0, "Tmin_units": "K", "Tmax_value": 577.4310568776192, "Tmax_units": "K", "coeffs": [3.9747269033817734, 0.0011347804367172543, 7.533889062875609e-05, -1.0470498139729524e-07, 4.699078499553375e-11, -37592254.8773633, 6.773591698117238]}, {"name": "polynomial2", "class": "NASAPolynomial", "Tmin_value": 577.4310568776192, "Tmin_units": "K", "Tmax_value": 3000.0, "Tmax_units": "K", "coeffs": [-1.3041055241664254, 0.03770227026025092, -1.9652378532074013e-05, 4.9654907444475164e-09, -4.909963524622396e-13, -37591645.24138486, 29.34198158192454]}]

>  <H298_value>  (1) 
-74700.16503809701

>  <H298_units>  (1) 
kcal/mol

>  <S298_value>  (1) 
64.12787959081382

>  <S298_units>  (1) 
cal/(mol*K)

>  <Cp_T_value_list>  (1) 
[17.187849905588877, 21.82888089347945, 26.282080105357306, 30.30750880664003, 37.00458219733553, 42.16907955247373, 50.28489012355217, 54.3677942411287, 56.31048938168173]

>  <Cp_T_units>  (1) 
cal/(mol*K)

>  <T_list>  (1) 
[300.0, 400.0, 500.0, 600.0, 800.0, 1000.0, 1500.0, 2000.0, 2400.0]

>  <T_units>  (1) 
K

>  <yaml_path>  (1) 
/home/calvin/Dropbox/PersonalFolders/Calvin/HAb_Converged/rxn_949/output/Species/rxn_949_CCC/rxn_949_CCC.yml

>  <frequencies_cm1>  (1) 
[219.27657523823999, 274.69314677064, 369.88329727648, 749.53831466332, 878.21188558948, 908.3991530561998, 929.9271520343999, 1065.0968910732797, 1172.11199030016, 1205.9799618984, 1309.06714552224, 1359.46395078572, 1398.3379546822398, 1410.31397708032, 1476.4087107853202, 1480.39842925624, 1483.440503753, 1494.09119798432, 1498.5410044716796, 3005.39792816588, 3007.40308787932, 3010.35589156692, 3037.8787687294803, 3071.65746951856, 3081.94421352792, 3083.3450785332, 3086.08500567588]

>  <ZPE_kJmol>  (1) 
269.5620865819488

>  <E_elec_kJmol>  (1) 
-312829.32849876507

>  <E0_minus_Eelec_plus_ZPE_kJmol>  (1) 
0.0

>  <rxn>  (1) 
rxn_949

>  <species_type>  (1) 
r1

>  <species_folder>  (1) 
rxn_949_CCC

>  <frequencies_cm1_list>  (1) 
[219.27657523823999, 274.69314677064, 369.88329727648, 749.53831466332, 878.21188558948, 908.3991530561998, 929.9271520343999, 1065.0968910732797, 1172.11199030016, 1205.9799618984, 1309.06714552224, 1359.46395078572, 1398.3379546822398, 1410.31397708032, 1476.4087107853202, 1480.39842925624, 1483.440503753, 1494.09119798432, 1498.5410044716796, 3005.39792816588, 3007.40308787932, 3010.35589156692, 3037.8787687294803, 3071.65746951856, 3081.94421352792, 3083.3450785332, 3086.08500567588]

>  <E0_kJmol>  (1) 
-312560

>  <H298_kJmol>  (1) 
-312545

$$$$

     RDKit          3D

  5  4  0  0  0  0  0  0  0  0999 V2000
   -0.5564   -1.3745    0.2795 S   0  0  0  0  0  0  0  0  0  1  0  0
   -0.4642    0.2757   -0.1467 C   0  0  0  0  0  0  0  0  0  2  0  0
    0.7604    1.2994   -0.2273 S   0  0  0  0  0  0  0  0  0  3  0  0
    0.7459   -1.5967    0.5440 H   0  0  0  0  0  0  0  0  0  4  0  0
   -1.4680    0.6192   -0.3966 H   0  0  0  0  0  0  0  0  0  5  0  0
  1  2  1  0
  1  4  1  0
  2  3  1  0
  2  5  1  0
M  END
>  <rmg_smiles>  (2) 
[S][CH]S

>  <rmg_adjacency_list>  (2) 
1 S u0 p2 c0 {3,S} {5,S}
2 S u0 p2 c0 {3,S}
3 C u0 p0 c0 {1,S} {2,S} {4,S}
4 H u0 p0 c0 {3,S}
5 H u0 p0 c0 {1,S}


>  <multiplicity>  (2) 
1

>  <reaction>  (2) 
rxn_949

>  <type>  (2) 
r2h

>  <role_mapnums>  (2) 
{"r2h_a": 2, "r2h_h": 5}

>  <role_mapidx>  (2) 
{"r2h_a": 1, "r2h_h": 4}

>  <ordered_mapped_smiles>  (2) 
[S:1]([CH:2]([SH:3])[H:5])[H:4]

>  <mol_properties>  (2) 
{"1": {"label": "acceptor", "atom_type": "Cs"}, "4": {"label": "a_hydrogen", "atom_type": "H0"}}

>  <level_of_theory>  (2) 
wb97xd/def2tzvp

>  <lot_method>  (2) 
wb97xd

>  <lot_basis>  (2) 
def2tzvp

>  <spin_multiplicity>  (2) 
1.0

>  <optical_isomers>  (2) 
1.0

>  <modes>  (2) 
IdealGasTranslation(mass=(77.9598, 'amu')),         NonlinearRotor(             inertia = ([10.0264, 146.145, 156.172

>  <frequency_value>  (2) 
unknown

>  <frequency_units>  (2) 
unknown

>  <frequency_list>  (2) 
unknown

>  <arkane_path>  (2) 
/home/calvin/Dropbox/PersonalFolders/Calvin/HAb_Converged/rxn_949/output/Species/rxn_949_SC=S/arkane/output.py

>  <path_exists>  (2) 
True

>  <E0_value>  (2) 
-2194033.905997937

>  <E0_units>  (2) 
kJ/mol

>  <thermo_class>  (2) 
NASA

>  <Cp0_value>  (2) 
33.257888

>  <Cp0_units>  (2) 
J/(mol*K)

>  <CpInf_value>  (2) 
108.088136

>  <CpInf_units>  (2) 
J/(mol*K)

>  <Tmin_value>  (2) 
10.0

>  <Tmin_units>  (2) 
K

>  <Tmax_value>  (2) 
3000.0

>  <Tmax_units>  (2) 
K

>  <polynomials>  (2) 
[{"name": "polynomial1", "class": "NASAPolynomial", "Tmin_value": 10.0, "Tmin_units": "K", "Tmax_value": 580.3286830943368, "Tmax_units": "K", "coeffs": [3.9648023297495008, 0.0020289220414139155, 4.369358946104129e-05, -8.278380096298224e-08, 4.716986387017451e-11, -263881325.33914053, 8.531798064925082]}, {"name": "polynomial2", "class": "NASAPolynomial", "Tmin_value": 580.3286830943368, "Tmin_units": "K", "Tmax_value": 3000.0, "Tmax_units": "K", "coeffs": [3.342559955457952, 0.014541878497382567, -9.906251351887283e-06, 3.2098988226728468e-09, -3.9511271280035685e-13, -263881391.6036389, 10.001993510605669]}]

>  <H298_value>  (2) 
-524383.672613201

>  <H298_units>  (2) 
kcal/mol

>  <S298_value>  (2) 
65.63165597743735

>  <S298_units>  (2) 
cal/(mol*K)

>  <Cp_T_value_list>  (2) 
[13.22051774429784, 15.255249180010175, 16.896823584085716, 18.170157980838923, 20.10594315452046, 21.44786652919708, 23.249248092205388, 24.1618451380613, 24.736369643688864]

>  <Cp_T_units>  (2) 
cal/(mol*K)

>  <T_list>  (2) 
[300.0, 400.0, 500.0, 600.0, 800.0, 1000.0, 1500.0, 2000.0, 2400.0]

>  <T_units>  (2) 
K

>  <yaml_path>  (2) 
/home/calvin/Dropbox/PersonalFolders/Calvin/HAb_Converged/rxn_949/output/Species/rxn_949_SC=S/rxn_949_SC=S.yml

>  <frequencies_cm1>  (2) 
[327.91914998595996, 432.32479479124, 696.55952291952, 858.7233812513199, 949.3950554165998, 1080.49953914604, 1319.23715078116, 2671.27789043596, 3080.76309205288]

>  <ZPE_kJmol>  (2) 
68.28704767958558

>  <E_elec_kJmol>  (2) 
-2194102.1930456166

>  <E0_minus_Eelec_plus_ZPE_kJmol>  (2) 
0.0

>  <rxn>  (2) 
rxn_949

>  <species_type>  (2) 
p0

>  <species_folder>  (2) 
rxn_949_SC=S

>  <frequencies_cm1_list>  (2) 
[327.91914998595996, 432.32479479124, 696.55952291952, 858.7233812513199, 949.3950554165998, 1080.49953914604, 1319.23715078116, 2671.27789043596, 3080.76309205288]

>  <E0_kJmol>  (2) 
-2.19403e+06

>  <H298_kJmol>  (2) 
-2.19402e+06

$$$$

     RDKit          3D

 15 13  0  0  0  0  0  0  0  0999 V2000
    0.5671   -1.8714    0.3968 S   0  0  0  0  0  0  0  0  0  1  0  0
    0.6593   -0.2213   -0.0294 C   0  0  0  0  0  0  0  0  0  2  0  0
    1.8839    0.8024   -0.1100 S   0  0  0  0  0  0  0  0  0  3  0  0
    1.8694   -2.0936    0.6613 H   0  0  0  0  0  0  0  0  0  4  0  0
   -1.5116    1.2403   -2.1000 C   0  0  0  0  0  0  0  0  0  5  0  0
   -1.7479    0.8022   -0.6819 C   0  0  0  0  0  3  0  0  0  6  0  0
   -1.8961    1.8925    0.3417 C   0  0  0  0  0  0  0  0  0  7  0  0
   -0.6366    1.8924   -2.1617 H   0  0  0  0  0  0  0  0  0  8  0  0
   -2.3693    1.8049   -2.4832 H   0  0  0  0  0  0  0  0  0  9  0  0
   -1.3504    0.3900   -2.7642 H   0  0  0  0  0  0  0  0  0 10  0  0
   -0.5692    0.1992   -0.3352 H   0  0  0  0  0  0  0  0  0 11  0  0
   -2.4697   -0.0088   -0.5790 H   0  0  0  0  0  0  0  0  0 12  0  0
   -2.7818    2.5045    0.1360 H   0  0  0  0  0  0  0  0  0 13  0  0
   -1.9985    1.4891    1.3501 H   0  0  0  0  0  0  0  0  0 14  0  0
   -1.0284    2.5570    0.3262 H   0  0  0  0  0  0  0  0  0 15  0  0
  1  2  1  0
  1  4  1  0
  2  3  1  0
  2 11  1  0
  5  8  1  0
  5  6  1  0
  5  9  1  0
  5 10  1  0
  6  7  1  0
  6 12  1  0
  7 13  1  0
  7 14  1  0
  7 15  1  0
M  RAD  1   6   2
M  END
>  <rmg_smiles>  (3) 
[S][CH]S.C[CH]C

>  <rmg_adjacency_list>  (3) 
multiplicity 2
1  S u0 p2 c0 {6,S} {15,S}
2  S u0 p2 c0 {6,S}
3  C u0 p0 c0 {5,S} {7,S} {8,S} {9,S}
4  C u0 p0 c0 {5,S} {10,S} {11,S} {12,S}
5  C u1 p0 c0 {3,S} {4,S} {13,S}
6  C u0 p0 c0 {1,S} {2,S} {14,S}
7  H u0 p0 c0 {3,S}
8  H u0 p0 c0 {3,S}
9  H u0 p0 c0 {3,S}
10 H u0 p0 c0 {4,S}
11 H u0 p0 c0 {4,S}
12 H u0 p0 c0 {4,S}
13 H u0 p0 c0 {5,S}
14 H u0 p0 c0 {6,S}
15 H u0 p0 c0 {1,S}


>  <multiplicity>  (3) 
2

>  <reaction>  (3) 
rxn_949

>  <type>  (3) 
ts

>  <role_mapnums>  (3) 
{"*2": 11, "*1": 6, "*3": 2, "*0": 1, "*4": 5}

>  <role_mapidx>  (3) 
{"*2": 10, "*1": 5, "*3": 1, "*0": 0, "*4": 4}

>  <ordered_mapped_smiles>  (3) 
[S:1]([CH:2]([SH:3])[H:11])[H:4].[C:5]([C:6]([C:7]([H:13])([H:14])[H:15])[H:12])([H:8])([H:9])[H:10]

>  <mol_properties>  (3) 
{"0": {"label": "*0", "atom_type": "S2s"}, "1": {"label": "*3", "atom_type": "Cs"}, "4": {"label": "*4", "atom_type": "Cs"}, "5": {"label": "*1", "atom_type": "Cs"}, "10": {"label": "*2", "atom_type": "H0"}}

>  <level_of_theory>  (3) 
wb97xd/def2tzvp

>  <lot_method>  (3) 
wb97xd

>  <lot_basis>  (3) 
def2tzvp

>  <spin_multiplicity>  (3) 
2.0

>  <optical_isomers>  (3) 
1.0

>  <modes>  (3) 
IdealGasTranslation(mass=(121.015, 'amu')),         NonlinearRotor(             inertia = ([205.879, 422.469, 516.811

>  <frequency_value>  (3) 
-1730.81

>  <frequency_units>  (3) 
cm^-1

>  <frequency_list>  (3) 
unknown

>  <arkane_path>  (3) 
/home/calvin/Dropbox/PersonalFolders/Calvin/HAb_Converged/rxn_949/output/rxns/TS0/arkane/output.py

>  <path_exists>  (3) 
True

>  <E0_value>  (3) 
-2504850.0

>  <E0_units>  (3) 
kJ/mol

>  <thermo_class>  (3) 
unknown

>  <Cp0_value>  (3) 
unknown

>  <Cp0_units>  (3) 
unknown

>  <CpInf_value>  (3) 
unknown

>  <CpInf_units>  (3) 
unknown

>  <Tmin_value>  (3) 
unknown

>  <Tmin_units>  (3) 
unknown

>  <Tmax_value>  (3) 
unknown

>  <Tmax_units>  (3) 
unknown

>  <polynomials>  (3) 
unknown

>  <H298_value>  (3) 
unknown

>  <H298_units>  (3) 
unknown

>  <S298_value>  (3) 
unknown

>  <S298_units>  (3) 
unknown

>  <Cp_T_value_list>  (3) 
unknown

>  <Cp_T_units>  (3) 
unknown

>  <T_list>  (3) 
unknown

>  <T_units>  (3) 
unknown

>  <yaml_path>  (3) 
unknown

>  <frequencies_cm1>  (3) 
unknown

>  <ZPE_kJmol>  (3) 
unknown

>  <E_elec_kJmol>  (3) 
unknown

>  <E0_minus_Eelec_plus_ZPE_kJmol>  (3) 
unknown

>  <rxn>  (3) 
unknown

>  <species_type>  (3) 
unknown

>  <species_folder>  (3) 
unknown

>  <frequencies_cm1_list>  (3) 
[]

>  <ts_imag_freq_cm1>  (3) 
-1751.8328

>  <ts_freq_out_path>  (3) 
/home/calvin/Dropbox/PersonalFolders/Calvin/HAb_Converged/rxn_949/output/rxns/TS0/geometry/freq.out

>  <E0_kJmol>  (3) 
-2.50485e+06

>  <H298_kJmol>  (3) 
unknown

$$$$

     RDKit          3D

 10  9  0  0  0  0  0  0  0  0999 V2000
    1.2930    0.1441    0.3288 C   0  0  0  0  0  0  0  0  0  1  0  0
   -0.0374   -0.1647    0.9100 C   0  0  0  0  0  3  0  0  0  2  0  0
   -1.2664    0.4569    0.3567 C   0  0  0  0  0  0  0  0  0  3  0  0
    1.4384    1.2242    0.2174 H   0  0  0  0  0  0  0  0  0  4  0  0
    2.1077   -0.2477    0.9385 H   0  0  0  0  0  0  0  0  0  5  0  0
    1.4057   -0.2836   -0.6789 H   0  0  0  0  0  0  0  0  0  6  0  0
   -0.1309   -0.9912    1.6030 H   0  0  0  0  0  0  0  0  0  7  0  0
   -1.5005    0.0716   -0.6471 H   0  0  0  0  0  0  0  0  0  8  0  0
   -2.1382    0.2713    0.9849 H   0  0  0  0  0  0  0  0  0  9  0  0
   -1.1497    1.5406    0.2456 H   0  0  0  0  0  0  0  0  0 10  0  0
  1  5  1  0
  1  4  1  0
  1  6  1  0
  1  2  1  0
  2  7  1  0
  2  3  1  0
  3  9  1  0
  3 10  1  0
  3  8  1  0
M  RAD  1   2   2
M  END
>  <rmg_smiles>  (4) 
C[CH]C

>  <rmg_adjacency_list>  (4) 
multiplicity 2
1  C u0 p0 c0 {3,S} {4,S} {5,S} {6,S}
2  C u0 p0 c0 {3,S} {7,S} {8,S} {9,S}
3  C u1 p0 c0 {1,S} {2,S} {10,S}
4  H u0 p0 c0 {1,S}
5  H u0 p0 c0 {1,S}
6  H u0 p0 c0 {1,S}
7  H u0 p0 c0 {2,S}
8  H u0 p0 c0 {2,S}
9  H u0 p0 c0 {2,S}
10 H u0 p0 c0 {3,S}


>  <multiplicity>  (4) 
2

>  <reaction>  (4) 
rxn_949

>  <type>  (4) 
r1

>  <role_mapnums>  (4) 
{}

>  <role_mapidx>  (4) 
{}

>  <ordered_mapped_smiles>  (4) 
[C:1]([C:2]([C:3]([H:8])([H:9])[H:10])[H:7])([H:4])([H:5])[H:6]

>  <level_of_theory>  (4) 
wb97xd/def2tzvp

>  <lot_method>  (4) 
wb97xd

>  <lot_basis>  (4) 
def2tzvp

>  <spin_multiplicity>  (4) 
2.0

>  <optical_isomers>  (4) 
1.0

>  <modes>  (4) 
IdealGasTranslation(mass=(43.0548, 'amu')),         NonlinearRotor(             inertia = ([13.4945, 59.9891, 67.2321

>  <frequency_value>  (4) 
unknown

>  <frequency_units>  (4) 
unknown

>  <frequency_list>  (4) 
unknown

>  <arkane_path>  (4) 
/home/calvin/Dropbox/PersonalFolders/Calvin/HAb_Converged/rxn_949/output/Species/rxn_949_C[CH]C/arkane/output.py

>  <path_exists>  (4) 
True

>  <E0_value>  (4) 
-310845.2184059608

>  <E0_units>  (4) 
kJ/mol

>  <thermo_class>  (4) 
NASA

>  <Cp0_value>  (4) 
33.257888

>  <Cp0_units>  (4) 
J/(mol*K)

>  <CpInf_value>  (4) 
232.805216

>  <CpInf_units>  (4) 
J/(mol*K)

>  <Tmin_value>  (4) 
10.0

>  <Tmin_units>  (4) 
K

>  <Tmax_value>  (4) 
3000.0

>  <Tmax_units>  (4) 
K

>  <polynomials>  (4) 
[{"name": "polynomial1", "class": "NASAPolynomial", "Tmin_value": 10.0, "Tmin_units": "K", "Tmax_value": 447.8128792552529, "Tmax_units": "K", "coeffs": [3.752012635379411, 0.026641862649172638, -7.746058003612534e-05, 2.1389576411497674e-07, -1.844633782932518e-10, -37386043.96321184, 8.05688024181999]}, {"name": "polynomial2", "class": "NASAPolynomial", "Tmin_value": 447.8128792552529, "Tmin_units": "K", "Tmax_value": 3000.0, "Tmax_units": "K", "coeffs": [0.3456331898922003, 0.0329396549778818, -1.7732866616299737e-05, 4.6556958792141865e-09, -4.78902486015414e-13, -37385496.94179907, 24.455396824893292]}]

>  <H298_value>  (4) 
-74289.9090718394

>  <H298_units>  (4) 
kcal/mol

>  <S298_value>  (4) 
70.4573159165227

>  <S298_units>  (4) 
cal/(mol*K)

>  <Cp_T_value_list>  (4) 
[17.99246870913784, 21.823762730245537, 25.70307457878351, 29.150647616604275, 34.84741547055869, 39.20602419681299, 45.99328941377369, 49.43494906715023, 51.132806782188474]

>  <Cp_T_units>  (4) 
cal/(mol*K)

>  <T_list>  (4) 
[300.0, 400.0, 500.0, 600.0, 800.0, 1000.0, 1500.0, 2000.0, 2400.0]

>  <T_units>  (4) 
K

>  <yaml_path>  (4) 
/home/calvin/Dropbox/PersonalFolders/Calvin/HAb_Converged/rxn_949/output/Species/rxn_949_C[CH]C/rxn_949_CCHC.yml

>  <frequencies_cm1>  (4) 
[105.22281605836, 112.68722910119999, 345.60850417028, 388.99411742204, 888.91751570336, 934.4593623456, 940.8456586931999, 1017.3988110405598, 1144.8637925504, 1173.26564383392, 1356.01672415508, 1400.16457277736, 1405.7130969159198, 1454.7502390860398, 1462.58546933616, 1465.42840125864, 1476.53231652108, 2938.8637074004, 2942.7366871208797, 3008.0211165581195, 3008.4194017066793, 3085.04122390724, 3085.8858631016, 3161.75918390228]

>  <ZPE_kJmol>  (4) 
229.10994966023972

>  <E_elec_kJmol>  (4) 
-311074.328355621

>  <E0_minus_Eelec_plus_ZPE_kJmol>  (4) 
0.0

>  <rxn>  (4) 
rxn_949

>  <species_type>  (4) 
p1

>  <species_folder>  (4) 
rxn_949_C[CH]C

>  <frequencies_cm1_list>  (4) 
[105.22281605836, 112.68722910119999, 345.60850417028, 388.99411742204, 888.91751570336, 934.4593623456, 940.8456586931999, 1017.3988110405598, 1144.8637925504, 1173.26564383392, 1356.01672415508, 1400.16457277736, 1405.7130969159198, 1454.7502390860398, 1462.58546933616, 1465.42840125864, 1476.53231652108, 2938.8637074004, 2942.7366871208797, 3008.0211165581195, 3008.4194017066793, 3085.04122390724, 3085.8858631016, 3161.75918390228]

>  <E0_kJmol>  (4) 
-310845

>  <H298_kJmol>  (4) 
-310829

$$$$

     RDKit          3D

  4  3  0  0  0  0  0  0  0  0999 V2000
   -0.7528   -0.8706   -0.3839 S   0  0  0  0  0  0  0  0  0  1  0  0
    0.7502   -0.2564   -0.0649 C   0  0  0  0  0  3  0  0  0  2  0  0
    1.5655    0.9691    0.4633 S   0  0  0  0  0  0  0  0  0  3  0  0
   -1.5629    0.1579   -0.0146 H   0  0  0  0  0  0  0  0  0  4  0  0
  1  2  1  0
  1  4  1  0
  2  3  1  0
M  RAD  1   2   2
M  END
>  <rmg_smiles>  (5) 
[S][C]S

>  <rmg_adjacency_list>  (5) 
multiplicity 2
1 S u0 p2 c0 {3,S} {4,S}
2 S u0 p2 c0 {3,S}
3 C u1 p1 c0 {1,S} {2,S}
4 H u0 p0 c0 {1,S}


>  <multiplicity>  (5) 
2

>  <reaction>  (5) 
rxn_949

>  <type>  (5) 
r2

>  <role_mapnums>  (5) 
{}

>  <role_mapidx>  (5) 
{}

>  <ordered_mapped_smiles>  (5) 
[S:1]([CH:2][SH:3])[H:4]

>  <level_of_theory>  (5) 
wb97xd/def2tzvp

>  <lot_method>  (5) 
wb97xd

>  <lot_basis>  (5) 
def2tzvp

>  <spin_multiplicity>  (5) 
2.0

>  <optical_isomers>  (5) 
1.0

>  <modes>  (5) 
IdealGasTranslation(mass=(76.952, 'amu')),         NonlinearRotor(             inertia = ([4.22571, 153.623, 157.849

>  <frequency_value>  (5) 
unknown

>  <frequency_units>  (5) 
unknown

>  <frequency_list>  (5) 
unknown

>  <arkane_path>  (5) 
/home/calvin/Dropbox/PersonalFolders/Calvin/HAb_Converged/rxn_949/output/Species/rxn_949_S[C]=S/arkane/output.py

>  <path_exists>  (5) 
True

>  <E0_value>  (5) 
-2192356.0916103646

>  <E0_units>  (5) 
kJ/mol

>  <thermo_class>  (5) 
NASA

>  <Cp0_value>  (5) 
33.257888

>  <Cp0_units>  (5) 
J/(mol*K)

>  <CpInf_value>  (5) 
83.14472

>  <CpInf_units>  (5) 
J/(mol*K)

>  <Tmin_value>  (5) 
10.0

>  <Tmin_units>  (5) 
K

>  <Tmax_value>  (5) 
3000.0

>  <Tmax_units>  (5) 
K

>  <polynomials>  (5) 
[{"name": "polynomial1", "class": "NASAPolynomial", "Tmin_value": 10.0, "Tmin_units": "K", "Tmax_value": 481.6514963883675, "Tmax_units": "K", "coeffs": [3.9517586254338513, 0.00319450782852083, 4.0406317044972455e-05, -1.0200918624138463e-07, 7.422315850279269e-11, -263679531.5552502, 9.007005229270508]}, {"name": "polynomial2", "class": "NASAPolynomial", "Tmin_value": 481.6514963883675, "Tmin_units": "K", "Tmax_value": 3000.0, "Tmax_units": "K", "coeffs": [4.350289465934482, 0.00903355618801913, -6.269961593820697e-06, 2.0329790861318483e-09, -2.489707632901742e-13, -263679676.06594586, 6.273837374430621]}]

>  <H298_value>  (5) 
-523982.679250146

>  <H298_units>  (5) 
kcal/mol

>  <S298_value>  (5) 
66.5974874736004

>  <S298_units>  (5) 
cal/(mol*K)

>  <Cp_T_value_list>  (5) 
[12.705481111540664, 14.041794733904966, 14.979838576614517, 15.738862039866001, 16.897745203822076, 17.68194958825418, 18.668016766310146, 19.112665855390723, 19.394133951552263]

>  <Cp_T_units>  (5) 
cal/(mol*K)

>  <T_list>  (5) 
[300.0, 400.0, 500.0, 600.0, 800.0, 1000.0, 1500.0, 2000.0, 2400.0]

>  <T_units>  (5) 
K

>  <yaml_path>  (5) 
/home/calvin/Dropbox/PersonalFolders/Calvin/HAb_Converged/rxn_949/output/Species/rxn_949_S[C]=S/rxn_949_SC=S.yml

>  <frequencies_cm1>  (5) 
[235.08437544487998, 441.86303740072, 611.8689929679599, 952.4165289574, 1320.6586167424, 2476.79799918824]

>  <ZPE_kJmol>  (5) 
36.119394970298

>  <E_elec_kJmol>  (5) 
-2192392.2110053347

>  <E0_minus_Eelec_plus_ZPE_kJmol>  (5) 
0.0

>  <rxn>  (5) 
rxn_949

>  <species_type>  (5) 
r0

>  <species_folder>  (5) 
rxn_949_S[C]=S

>  <frequencies_cm1_list>  (5) 
[235.08437544487998, 441.86303740072, 611.8689929679599, 952.4165289574, 1320.6586167424, 2476.79799918824]

>  <E0_kJmol>  (5) 
-2.19236e+06

>  <H298_kJmol>  (5) 
-2.19234e+06

$$$$
