
     RDKit          3D

 11 10  0  0  0  0  0  0  0  0999 V2000
   -0.3249   -0.8082   -0.9716 C   0  0  0  0  0  0  0  0  0  1  0  0
   -0.1226   -0.2888    0.4156 C   0  0  0  0  0  0  0  0  0  2  0  0
    0.3915    1.1063    0.5750 C   0  0  0  0  0  0  0  0  0  3  0  0
    0.5857   -0.6923   -1.5665 H   0  0  0  0  0  0  0  0  0  4  0  0
   -1.1174   -0.2526   -1.4870 H   0  0  0  0  0  0  0  0  0  5  0  0
   -0.6066   -1.8622   -0.9731 H   0  0  0  0  0  0  0  0  0  6  0  0
    0.7417   -0.8824    0.7049 H   0  0  0  0  0  0  0  0  0  7  0  0
   -0.8484   -0.6173    1.1560 H   0  0  0  0  0  0  0  0  0  8  0  0
   -0.3328    1.8347    0.1890 H   0  0  0  0  0  0  0  0  0  9  0  0
    0.5816    1.3511    1.6202 H   0  0  0  0  0  0  0  0  0 10  0  0
    1.3202    1.2454    0.0155 H   0  0  0  0  0  0  0  0  0 11  0  0
  1  5  1  0
  1  4  1  0
  1  6  1  0
  1  2  1  0
  2  7  1  0
  2  8  1  0
  2  3  1  0
  3 11  1  0
  3  9  1  0
  3 10  1  0
M  END
>  <rmg_smiles>  (1) 
CCC

>  <rmg_adjacency_list>  (1) 
1  C u0 p0 c0 {2,S} {4,S} {5,S} {6,S}
2  C u0 p0 c0 {1,S} {3,S} {7,S} {8,S}
3  C u0 p0 c0 {2,S} {9,S} {10,S} {11,S}
4  H u0 p0 c0 {1,S}
5  H u0 p0 c0 {1,S}
6  H u0 p0 c0 {1,S}
7  H u0 p0 c0 {2,S}
8  H u0 p0 c0 {2,S}
9  H u0 p0 c0 {3,S}
10 H u0 p0 c0 {3,S}
11 H u0 p0 c0 {3,S}


>  <multiplicity>  (1) 
1

>  <reaction>  (1) 
rxn_936

>  <type>  (1) 
r1h

>  <role_mapnums>  (1) 
{"r1h_a": 2, "r1h_h": 7}

>  <role_mapidx>  (1) 
{"r1h_a": 1, "r1h_h": 6}

>  <ordered_mapped_smiles>  (1) 
[C:1]([C:2]([C:3]([H:9])([H:10])[H:11])([H:7])[H:8])([H:4])([H:5])[H:6]

>  <mol_properties>  (1) 
{"1": {"label": "donator", "atom_type": "Cs"}, "6": {"label": "d_hydrogen", "atom_type": "H0"}}

>  <level_of_theory>  (1) 
wb97xd/def2tzvp

>  <lot_method>  (1) 
wb97xd

>  <lot_basis>  (1) 
def2tzvp

>  <spin_multiplicity>  (1) 
1.0

>  <optical_isomers>  (1) 
1.0

>  <modes>  (1) 
IdealGasTranslation(mass=(44.0626, 'amu')),         NonlinearRotor(             inertia = ([17.0625, 59.5808, 67.2958

>  <frequency_value>  (1) 
unknown

>  <frequency_units>  (1) 
unknown

>  <frequency_list>  (1) 
unknown

>  <arkane_path>  (1) 
/home/calvin/Dropbox/PersonalFolders/Calvin/HAb_Converged/rxn_936/output/Species/rxn_936_CCC/arkane/output.py

>  <path_exists>  (1) 
True

>  <E0_value>  (1) 
-312559.7664121831

>  <E0_units>  (1) 
kJ/mol

>  <thermo_class>  (1) 
NASA

>  <Cp0_value>  (1) 
33.257888

>  <Cp0_units>  (1) 
J/(mol*K)

>  <CpInf_value>  (1) 
257.748632

>  <CpInf_units>  (1) 
J/(mol*K)

>  <Tmin_value>  (1) 
10.0

>  <Tmin_units>  (1) 
K

>  <Tmax_value>  (1) 
3000.0

>  <Tmax_units>  (1) 
K

>  <polynomials>  (1) 
[{"name": "polynomial1", "class": "NASAPolynomial", "Tmin_value": 10.0, "Tmin_units": "K", "Tmax_value": 577.4310568776192, "Tmax_units": "K", "coeffs": [3.9747269033817734, 0.0011347804367172543, 7.533889062875609e-05, -1.0470498139729524e-07, 4.699078499553375e-11, -37592254.8773633, 6.773591698117238]}, {"name": "polynomial2", "class": "NASAPolynomial", "Tmin_value": 577.4310568776192, "Tmin_units": "K", "Tmax_value": 3000.0, "Tmax_units": "K", "coeffs": [-1.3041055241664254, 0.03770227026025092, -1.9652378532074013e-05, 4.9654907444475164e-09, -4.909963524622396e-13, -37591645.24138486, 29.34198158192454]}]

>  <H298_value>  (1) 
-74700.16503809701

>  <H298_units>  (1) 
kcal/mol

>  <S298_value>  (1) 
64.12787959081382

>  <S298_units>  (1) 
cal/(mol*K)

>  <Cp_T_value_list>  (1) 
[17.187849905588877, 21.82888089347945, 26.282080105357306, 30.30750880664003, 37.00458219733553, 42.16907955247373, 50.28489012355217, 54.3677942411287, 56.31048938168173]

>  <Cp_T_units>  (1) 
cal/(mol*K)

>  <T_list>  (1) 
[300.0, 400.0, 500.0, 600.0, 800.0, 1000.0, 1500.0, 2000.0, 2400.0]

>  <T_units>  (1) 
K

>  <yaml_path>  (1) 
/home/calvin/Dropbox/PersonalFolders/Calvin/HAb_Converged/rxn_936/output/Species/rxn_936_CCC/rxn_936_CCC.yml

>  <frequencies_cm1>  (1) 
[219.27657523823999, 274.69314677064, 369.88329727648, 749.53831466332, 878.21188558948, 908.3991530561998, 929.9271520343999, 1065.0968910732797, 1172.11199030016, 1205.9799618984, 1309.06714552224, 1359.46395078572, 1398.3379546822398, 1410.31397708032, 1476.4087107853202, 1480.39842925624, 1483.440503753, 1494.09119798432, 1498.5410044716796, 3005.39792816588, 3007.40308787932, 3010.35589156692, 3037.8787687294803, 3071.65746951856, 3081.94421352792, 3083.3450785332, 3086.08500567588]

>  <ZPE_kJmol>  (1) 
269.5620865819488

>  <E_elec_kJmol>  (1) 
-312829.32849876507

>  <E0_minus_Eelec_plus_ZPE_kJmol>  (1) 
0.0

>  <rxn>  (1) 
rxn_936

>  <species_type>  (1) 
r1

>  <species_folder>  (1) 
rxn_936_CCC

>  <frequencies_cm1_list>  (1) 
[219.27657523823999, 274.69314677064, 369.88329727648, 749.53831466332, 878.21188558948, 908.3991530561998, 929.9271520343999, 1065.0968910732797, 1172.11199030016, 1205.9799618984, 1309.06714552224, 1359.46395078572, 1398.3379546822398, 1410.31397708032, 1476.4087107853202, 1480.39842925624, 1483.440503753, 1494.09119798432, 1498.5410044716796, 3005.39792816588, 3007.40308787932, 3010.35589156692, 3037.8787687294803, 3071.65746951856, 3081.94421352792, 3083.3450785332, 3086.08500567588]

>  <E0_kJmol>  (1) 
-312560

>  <H298_kJmol>  (1) 
-312545

$$$$

     RDKit          3D

 13 12  0  0  0  0  0  0  0  0999 V2000
    1.1451    0.7586   -1.1563 S   0  0  0  0  0  0  0  0  0  1  0  0
   -0.0129   -0.2905   -0.7009 C   0  0  0  0  0  0  0  0  0  2  0  0
   -0.8062   -0.2715    0.5219 C   0  0  0  0  0  0  0  0  0  3  0  0
   -1.3697   -1.6262    0.9221 C   0  0  0  0  0  0  0  0  0  4  0  0
   -0.2718    0.5393    1.6833 C   0  0  0  0  0  0  0  0  0  5  0  0
   -0.2907   -1.0844   -1.3975 H   0  0  0  0  0  0  0  0  0  6  0  0
   -0.5913   -2.2576    1.3580 H   0  0  0  0  0  0  0  0  0  7  0  0
   -2.1582   -1.5079    1.6675 H   0  0  0  0  0  0  0  0  0  8  0  0
   -1.7907   -2.1531    0.0637 H   0  0  0  0  0  0  0  0  0  9  0  0
   -1.0359    0.6407    2.4565 H   0  0  0  0  0  0  0  0  0 10  0  0
    0.0416    1.5315    1.3622 H   0  0  0  0  0  0  0  0  0 11  0  0
    0.5972    0.0452    2.1255 H   0  0  0  0  0  0  0  0  0 12  0  0
   -1.6874    0.2831    0.1995 H   0  0  0  0  0  0  0  0  0 13  0  0
  1  2  1  0
  2  6  1  0
  2  3  1  0
  3  4  1  0
  3  5  1  0
  3 13  1  0
  4  8  1  0
  4  9  1  0
  4  7  1  0
  5 11  1  0
  5 12  1  0
  5 10  1  0
M  END
>  <rmg_smiles>  (2) 
[S][CH]C(C)C

>  <rmg_adjacency_list>  (2) 
1  S u0 p2 c0 {5,S}
2  C u0 p0 c0 {3,S} {4,S} {5,S} {6,S}
3  C u0 p0 c0 {2,S} {7,S} {8,S} {9,S}
4  C u0 p0 c0 {2,S} {10,S} {11,S} {12,S}
5  C u0 p0 c0 {1,S} {2,S} {13,S}
6  H u0 p0 c0 {2,S}
7  H u0 p0 c0 {3,S}
8  H u0 p0 c0 {3,S}
9  H u0 p0 c0 {3,S}
10 H u0 p0 c0 {4,S}
11 H u0 p0 c0 {4,S}
12 H u0 p0 c0 {4,S}
13 H u0 p0 c0 {5,S}


>  <multiplicity>  (2) 
1

>  <reaction>  (2) 
rxn_936

>  <type>  (2) 
r2h

>  <role_mapnums>  (2) 
{"r2h_a": 3, "r2h_h": 13}

>  <role_mapidx>  (2) 
{"r2h_a": 2, "r2h_h": 12}

>  <ordered_mapped_smiles>  (2) 
[SH:1][CH:2]([C:3]([C:4]([H:7])([H:8])[H:9])([C:5]([H:10])([H:11])[H:12])[H:13])[H:6]

>  <mol_properties>  (2) 
{"2": {"label": "acceptor", "atom_type": "Cs"}, "12": {"label": "a_hydrogen", "atom_type": "H0"}}

>  <level_of_theory>  (2) 
wb97xd/def2tzvp

>  <lot_method>  (2) 
wb97xd

>  <lot_basis>  (2) 
def2tzvp

>  <spin_multiplicity>  (2) 
1.0

>  <optical_isomers>  (2) 
2.0

>  <modes>  (2) 
IdealGasTranslation(mass=(88.0347, 'amu')),         NonlinearRotor(             inertia = ([69.6476, 205.177, 249.287

>  <frequency_value>  (2) 
unknown

>  <frequency_units>  (2) 
unknown

>  <frequency_list>  (2) 
unknown

>  <arkane_path>  (2) 
/home/calvin/Dropbox/PersonalFolders/Calvin/HAb_Converged/rxn_936/output/Species/rxn_936_S=CC[C]C/arkane/output.py

>  <path_exists>  (2) 
True

>  <E0_value>  (2) 
-1457998.5982336933

>  <E0_units>  (2) 
kJ/mol

>  <thermo_class>  (2) 
NASA

>  <Cp0_value>  (2) 
33.257888

>  <Cp0_units>  (2) 
J/(mol*K)

>  <CpInf_value>  (2) 
307.635464

>  <CpInf_units>  (2) 
J/(mol*K)

>  <Tmin_value>  (2) 
10.0

>  <Tmin_units>  (2) 
K

>  <Tmax_value>  (2) 
3000.0

>  <Tmax_units>  (2) 
K

>  <polynomials>  (2) 
[{"name": "polynomial1", "class": "NASAPolynomial", "Tmin_value": 10.0, "Tmin_units": "K", "Tmax_value": 850.5751909331584, "Tmax_units": "K", "coeffs": [3.763703885514242, 0.02277852482010402, 3.2299053490720314e-05, -5.360226294448367e-08, 2.1690872236821852e-11, -175356726.547155, 11.190919245660643]}, {"name": "polynomial2", "class": "NASAPolynomial", "Tmin_value": 850.5751909331584, "Tmin_units": "K", "Tmax_value": 3000.0, "Tmax_units": "K", "coeffs": [2.0035214740016922, 0.042738418303872316, -2.3502321935412024e-05, 6.281315111825424e-09, -6.560549792225942e-13, -175356849.7075047, 16.913744501828855]}]

>  <H298_value>  (2) 
-348465.4118362776

>  <H298_units>  (2) 
kcal/mol

>  <S298_value>  (2) 
80.33314738703915

>  <S298_units>  (2) 
cal/(mol*K)

>  <Cp_T_value_list>  (2) 
[24.30872432409684, 30.14135974077647, 35.53746487056036, 40.323452938173666, 47.88798169363404, 53.386060159439076, 61.820175444511975, 66.0243628186096, 68.0994235508572]

>  <Cp_T_units>  (2) 
cal/(mol*K)

>  <T_list>  (2) 
[300.0, 400.0, 500.0, 600.0, 800.0, 1000.0, 1500.0, 2000.0, 2400.0]

>  <T_units>  (2) 
K

>  <yaml_path>  (2) 
/home/calvin/Dropbox/PersonalFolders/Calvin/HAb_Converged/rxn_936/output/Species/rxn_936_S=CC[C]C/rxn_936_S=CCCC.yml

>  <frequencies_cm1>  (2) 
[81.46304685115999, 222.10577319008, 235.83974383007998, 264.91455967495995, 354.02742817259997, 403.35985071147996, 541.5304623352, 773.7375709309999, 866.2358631914, 917.52537654648, 938.1331994918, 970.7857146884, 1070.15785925412, 1116.20099582472, 1141.9384568040798, 1213.79459119256, 1287.09965948356, 1347.93428243344, 1376.37046864356, 1392.88556833816, 1420.9509373409999, 1469.66533120108, 1474.71256541128, 1487.9727140641999, 1494.5100840888397, 2973.6037861342797, 3014.7782301129996, 3022.28384506776, 3048.6668026672, 3090.6240829723997, 3094.4352598250002, 3098.5897859436, 3105.48423920488]

>  <ZPE_kJmol>  (2) 
288.97191783414803

>  <E_elec_kJmol>  (2) 
-1458287.5701515274

>  <E0_minus_Eelec_plus_ZPE_kJmol>  (2) 
0.0

>  <rxn>  (2) 
rxn_936

>  <species_type>  (2) 
p0

>  <species_folder>  (2) 
rxn_936_S=CC[C]C

>  <frequencies_cm1_list>  (2) 
[81.46304685115999, 222.10577319008, 235.83974383007998, 264.91455967495995, 354.02742817259997, 403.35985071147996, 541.5304623352, 773.7375709309999, 866.2358631914, 917.52537654648, 938.1331994918, 970.7857146884, 1070.15785925412, 1116.20099582472, 1141.9384568040798, 1213.79459119256, 1287.09965948356, 1347.93428243344, 1376.37046864356, 1392.88556833816, 1420.9509373409999, 1469.66533120108, 1474.71256541128, 1487.9727140641999, 1494.5100840888397, 2973.6037861342797, 3014.7782301129996, 3022.28384506776, 3048.6668026672, 3090.6240829723997, 3094.4352598250002, 3098.5897859436, 3105.48423920488]

>  <E0_kJmol>  (2) 
-1.458e+06

>  <H298_kJmol>  (2) 
-1.45798e+06

$$$$

     RDKit          3D

 23 21  0  0  0  0  0  0  0  0999 V2000
    2.0341    0.5602   -0.9273 S   0  0  0  0  0  0  0  0  0  1  0  0
    0.8761   -0.4889   -0.4719 C   0  0  0  0  0  0  0  0  0  2  0  0
    0.0828   -0.4699    0.7509 C   0  0  0  0  0  0  0  0  0  3  0  0
   -0.4807   -1.8245    1.1511 C   0  0  0  0  0  0  0  0  0  4  0  0
    0.6172    0.3410    1.9124 C   0  0  0  0  0  0  0  0  0  5  0  0
    0.5983   -1.2828   -1.1685 H   0  0  0  0  0  0  0  0  0  6  0  0
    0.2977   -2.4560    1.5871 H   0  0  0  0  0  0  0  0  0  7  0  0
   -1.2692   -1.7063    1.8965 H   0  0  0  0  0  0  0  0  0  8  0  0
   -0.9017   -2.3515    0.2927 H   0  0  0  0  0  0  0  0  0  9  0  0
   -0.1469    0.4423    2.6855 H   0  0  0  0  0  0  0  0  0 10  0  0
    0.9307    1.3331    1.5912 H   0  0  0  0  0  0  0  0  0 11  0  0
    1.4863   -0.1531    2.3546 H   0  0  0  0  0  0  0  0  0 12  0  0
   -2.3200    0.4649   -1.4037 C   0  0  0  0  0  0  0  0  0 13  0  0
   -2.1176    0.9842   -0.0165 C   0  0  0  0  0  3  0  0  0 14  0  0
   -1.6036    2.3794    0.1429 C   0  0  0  0  0  0  0  0  0 15  0  0
   -1.4094    0.5808   -1.9986 H   0  0  0  0  0  0  0  0  0 16  0  0
   -3.1125    1.0205   -1.9191 H   0  0  0  0  0  0  0  0  0 17  0  0
   -2.6017   -0.5891   -1.4052 H   0  0  0  0  0  0  0  0  0 18  0  0
   -0.9110    0.1556    0.3874 H   0  0  0  0  0  0  0  0  0 19  0  0
   -2.8435    0.6557    0.7239 H   0  0  0  0  0  0  0  0  0 20  0  0
   -2.3279    3.1078   -0.2431 H   0  0  0  0  0  0  0  0  0 21  0  0
   -1.4135    2.6242    1.1880 H   0  0  0  0  0  0  0  0  0 22  0  0
   -0.6749    2.5185   -0.4166 H   0  0  0  0  0  0  0  0  0 23  0  0
  1  2  1  0
  2  6  1  0
  2  3  1  0
  3  4  1  0
  3  5  1  0
  3 19  1  0
  4  9  1  0
  4  7  1  0
  4  8  1  0
  5 12  1  0
  5 10  1  0
  5 11  1  0
 13 17  1  0
 13 18  1  0
 13 14  1  0
 13 16  1  0
 14 15  1  0
 14 20  1  0
 15 23  1  0
 15 22  1  0
 15 21  1  0
M  RAD  1  14   2
M  END
>  <rmg_smiles>  (3) 
[S][CH]C(C)C.C[CH]C

>  <rmg_adjacency_list>  (3) 
multiplicity 2
1  S u0 p2 c0 {8,S}
2  C u0 p0 c0 {3,S} {4,S} {8,S} {9,S}
3  C u0 p0 c0 {2,S} {10,S} {11,S} {12,S}
4  C u0 p0 c0 {2,S} {13,S} {14,S} {15,S}
5  C u0 p0 c0 {7,S} {16,S} {17,S} {18,S}
6  C u0 p0 c0 {7,S} {19,S} {20,S} {21,S}
7  C u1 p0 c0 {5,S} {6,S} {22,S}
8  C u0 p0 c0 {1,S} {2,S} {23,S}
9  H u0 p0 c0 {2,S}
10 H u0 p0 c0 {3,S}
11 H u0 p0 c0 {3,S}
12 H u0 p0 c0 {3,S}
13 H u0 p0 c0 {4,S}
14 H u0 p0 c0 {4,S}
15 H u0 p0 c0 {4,S}
16 H u0 p0 c0 {5,S}
17 H u0 p0 c0 {5,S}
18 H u0 p0 c0 {5,S}
19 H u0 p0 c0 {6,S}
20 H u0 p0 c0 {6,S}
21 H u0 p0 c0 {6,S}
22 H u0 p0 c0 {7,S}
23 H u0 p0 c0 {8,S}


>  <multiplicity>  (3) 
2

>  <reaction>  (3) 
rxn_936

>  <type>  (3) 
ts

>  <role_mapnums>  (3) 
{"*2": 19, "*1": 14, "*3": 3, "*0": 2, "*4": 13}

>  <role_mapidx>  (3) 
{"*2": 18, "*1": 13, "*3": 2, "*0": 1, "*4": 12}

>  <ordered_mapped_smiles>  (3) 
[SH:1][CH:2]([C:3]([C:4]([H:7])([H:8])[H:9])([C:5]([H:10])([H:11])[H:12])[H:19])[H:6].[C:13]([C:14]([C:15]([H:21])([H:22])[H:23])[H:20])([H:16])([H:17])[H:18]

>  <mol_properties>  (3) 
{"1": {"label": "*0", "atom_type": "Cs"}, "2": {"label": "*3", "atom_type": "Cs"}, "12": {"label": "*4", "atom_type": "Cs"}, "13": {"label": "*1", "atom_type": "Cs"}, "18": {"label": "*2", "atom_type": "H0"}}

>  <level_of_theory>  (3) 
wb97xd/def2tzvp

>  <lot_method>  (3) 
wb97xd

>  <lot_basis>  (3) 
def2tzvp

>  <spin_multiplicity>  (3) 
2.0

>  <optical_isomers>  (3) 
2.0

>  <modes>  (3) 
IdealGasTranslation(mass=(131.089, 'amu')),         NonlinearRotor(             inertia = ([312.765, 465.375, 554.059

>  <frequency_value>  (3) 
-1092.1

>  <frequency_units>  (3) 
cm^-1

>  <frequency_list>  (3) 
unknown

>  <arkane_path>  (3) 
/home/calvin/Dropbox/PersonalFolders/Calvin/HAb_Converged/rxn_936/output/rxns/TS0/arkane/output.py

>  <path_exists>  (3) 
True

>  <E0_value>  (3) 
-1768830.0

>  <E0_units>  (3) 
kJ/mol

>  <thermo_class>  (3) 
unknown

>  <Cp0_value>  (3) 
unknown

>  <Cp0_units>  (3) 
unknown

>  <CpInf_value>  (3) 
unknown

>  <CpInf_units>  (3) 
unknown

>  <Tmin_value>  (3) 
unknown

>  <Tmin_units>  (3) 
unknown

>  <Tmax_value>  (3) 
unknown

>  <Tmax_units>  (3) 
unknown

>  <polynomials>  (3) 
unknown

>  <H298_value>  (3) 
unknown

>  <H298_units>  (3) 
unknown

>  <S298_value>  (3) 
unknown

>  <S298_units>  (3) 
unknown

>  <Cp_T_value_list>  (3) 
unknown

>  <Cp_T_units>  (3) 
unknown

>  <T_list>  (3) 
unknown

>  <T_units>  (3) 
unknown

>  <yaml_path>  (3) 
unknown

>  <frequencies_cm1>  (3) 
unknown

>  <ZPE_kJmol>  (3) 
unknown

>  <E_elec_kJmol>  (3) 
unknown

>  <E0_minus_Eelec_plus_ZPE_kJmol>  (3) 
unknown

>  <rxn>  (3) 
unknown

>  <species_type>  (3) 
unknown

>  <species_folder>  (3) 
unknown

>  <frequencies_cm1_list>  (3) 
[]

>  <ts_imag_freq_cm1>  (3) 
-1105.3641

>  <ts_freq_out_path>  (3) 
/home/calvin/Dropbox/PersonalFolders/Calvin/HAb_Converged/rxn_936/output/rxns/TS0/geometry/freq.out

>  <E0_kJmol>  (3) 
-1.76883e+06

>  <H298_kJmol>  (3) 
unknown

$$$$

     RDKit          3D

 10  9  0  0  0  0  0  0  0  0999 V2000
    1.2930    0.1441    0.3288 C   0  0  0  0  0  0  0  0  0  1  0  0
   -0.0374   -0.1647    0.9100 C   0  0  0  0  0  3  0  0  0  2  0  0
   -1.2664    0.4569    0.3567 C   0  0  0  0  0  0  0  0  0  3  0  0
    1.4384    1.2242    0.2174 H   0  0  0  0  0  0  0  0  0  4  0  0
    2.1077   -0.2477    0.9385 H   0  0  0  0  0  0  0  0  0  5  0  0
    1.4057   -0.2836   -0.6789 H   0  0  0  0  0  0  0  0  0  6  0  0
   -0.1309   -0.9912    1.6030 H   0  0  0  0  0  0  0  0  0  7  0  0
   -1.5005    0.0716   -0.6471 H   0  0  0  0  0  0  0  0  0  8  0  0
   -2.1382    0.2713    0.9849 H   0  0  0  0  0  0  0  0  0  9  0  0
   -1.1497    1.5406    0.2456 H   0  0  0  0  0  0  0  0  0 10  0  0
  1  5  1  0
  1  4  1  0
  1  6  1  0
  1  2  1  0
  2  7  1  0
  2  3  1  0
  3  9  1  0
  3 10  1  0
  3  8  1  0
M  RAD  1   2   2
M  END
>  <rmg_smiles>  (4) 
C[CH]C

>  <rmg_adjacency_list>  (4) 
multiplicity 2
1  C u0 p0 c0 {3,S} {4,S} {5,S} {6,S}
2  C u0 p0 c0 {3,S} {7,S} {8,S} {9,S}
3  C u1 p0 c0 {1,S} {2,S} {10,S}
4  H u0 p0 c0 {1,S}
5  H u0 p0 c0 {1,S}
6  H u0 p0 c0 {1,S}
7  H u0 p0 c0 {2,S}
8  H u0 p0 c0 {2,S}
9  H u0 p0 c0 {2,S}
10 H u0 p0 c0 {3,S}


>  <multiplicity>  (4) 
2

>  <reaction>  (4) 
rxn_936

>  <type>  (4) 
r1

>  <role_mapnums>  (4) 
{}

>  <role_mapidx>  (4) 
{}

>  <ordered_mapped_smiles>  (4) 
[C:1]([C:2]([C:3]([H:8])([H:9])[H:10])[H:7])([H:4])([H:5])[H:6]

>  <level_of_theory>  (4) 
wb97xd/def2tzvp

>  <lot_method>  (4) 
wb97xd

>  <lot_basis>  (4) 
def2tzvp

>  <spin_multiplicity>  (4) 
2.0

>  <optical_isomers>  (4) 
1.0

>  <modes>  (4) 
IdealGasTranslation(mass=(43.0548, 'amu')),         NonlinearRotor(             inertia = ([13.4945, 59.9891, 67.2321

>  <frequency_value>  (4) 
unknown

>  <frequency_units>  (4) 
unknown

>  <frequency_list>  (4) 
unknown

>  <arkane_path>  (4) 
/home/calvin/Dropbox/PersonalFolders/Calvin/HAb_Converged/rxn_936/output/Species/rxn_936_C[CH]C/arkane/output.py

>  <path_exists>  (4) 
True

>  <E0_value>  (4) 
-310845.2184059608

>  <E0_units>  (4) 
kJ/mol

>  <thermo_class>  (4) 
NASA

>  <Cp0_value>  (4) 
33.257888

>  <Cp0_units>  (4) 
J/(mol*K)

>  <CpInf_value>  (4) 
232.805216

>  <CpInf_units>  (4) 
J/(mol*K)

>  <Tmin_value>  (4) 
10.0

>  <Tmin_units>  (4) 
K

>  <Tmax_value>  (4) 
3000.0

>  <Tmax_units>  (4) 
K

>  <polynomials>  (4) 
[{"name": "polynomial1", "class": "NASAPolynomial", "Tmin_value": 10.0, "Tmin_units": "K", "Tmax_value": 447.8128792552529, "Tmax_units": "K", "coeffs": [3.752012635379411, 0.026641862649172638, -7.746058003612534e-05, 2.1389576411497674e-07, -1.844633782932518e-10, -37386043.96321184, 8.05688024181999]}, {"name": "polynomial2", "class": "NASAPolynomial", "Tmin_value": 447.8128792552529, "Tmin_units": "K", "Tmax_value": 3000.0, "Tmax_units": "K", "coeffs": [0.3456331898922003, 0.0329396549778818, -1.7732866616299737e-05, 4.6556958792141865e-09, -4.78902486015414e-13, -37385496.94179907, 24.455396824893292]}]

>  <H298_value>  (4) 
-74289.9090718394

>  <H298_units>  (4) 
kcal/mol

>  <S298_value>  (4) 
70.4573159165227

>  <S298_units>  (4) 
cal/(mol*K)

>  <Cp_T_value_list>  (4) 
[17.99246870913784, 21.823762730245537, 25.70307457878351, 29.150647616604275, 34.84741547055869, 39.20602419681299, 45.99328941377369, 49.43494906715023, 51.132806782188474]

>  <Cp_T_units>  (4) 
cal/(mol*K)

>  <T_list>  (4) 
[300.0, 400.0, 500.0, 600.0, 800.0, 1000.0, 1500.0, 2000.0, 2400.0]

>  <T_units>  (4) 
K

>  <yaml_path>  (4) 
/home/calvin/Dropbox/PersonalFolders/Calvin/HAb_Converged/rxn_936/output/Species/rxn_936_C[CH]C/rxn_936_CCHC.yml

>  <frequencies_cm1>  (4) 
[105.22281605836, 112.68722910119999, 345.60850417028, 388.99411742204, 888.91751570336, 934.4593623456, 940.8456586931999, 1017.3988110405598, 1144.8637925504, 1173.26564383392, 1356.01672415508, 1400.16457277736, 1405.7130969159198, 1454.7502390860398, 1462.58546933616, 1465.42840125864, 1476.53231652108, 2938.8637074004, 2942.7366871208797, 3008.0211165581195, 3008.4194017066793, 3085.04122390724, 3085.8858631016, 3161.75918390228]

>  <ZPE_kJmol>  (4) 
229.10994966023972

>  <E_elec_kJmol>  (4) 
-311074.328355621

>  <E0_minus_Eelec_plus_ZPE_kJmol>  (4) 
0.0

>  <rxn>  (4) 
rxn_936

>  <species_type>  (4) 
p1

>  <species_folder>  (4) 
rxn_936_C[CH]C

>  <frequencies_cm1_list>  (4) 
[105.22281605836, 112.68722910119999, 345.60850417028, 388.99411742204, 888.91751570336, 934.4593623456, 940.8456586931999, 1017.3988110405598, 1144.8637925504, 1173.26564383392, 1356.01672415508, 1400.16457277736, 1405.7130969159198, 1454.7502390860398, 1462.58546933616, 1465.42840125864, 1476.53231652108, 2938.8637074004, 2942.7366871208797, 3008.0211165581195, 3008.4194017066793, 3085.04122390724, 3085.8858631016, 3161.75918390228]

>  <E0_kJmol>  (4) 
-310845

>  <H298_kJmol>  (4) 
-310829

$$$$

     RDKit          3D

 12 11  0  0  0  0  0  0  0  0999 V2000
    2.7049    0.9350   -0.4404 S   0  0  0  0  0  1  0  0  0  1  0  0
    1.0313    1.0813   -0.4080 C   0  0  0  0  0  0  0  0  0  2  0  0
    0.1364    0.1019   -0.0473 C   0  0  0  0  0  0  0  0  0  3  0  0
    0.5360   -1.2679    0.3784 C   0  0  0  0  0  0  0  0  0  4  0  0
   -1.3304    0.3842   -0.0689 C   0  0  0  0  0  0  0  0  0  5  0  0
    0.6069    2.0398   -0.6990 H   0  0  0  0  0  0  0  0  0  6  0  0
    0.1578   -1.4699    1.3849 H   0  0  0  0  0  0  0  0  0  7  0  0
    0.0783   -2.0109   -0.2814 H   0  0  0  0  0  0  0  0  0  8  0  0
    1.6154   -1.3973    0.3689 H   0  0  0  0  0  0  0  0  0  9  0  0
   -1.8406   -0.3126   -0.7406 H   0  0  0  0  0  0  0  0  0 10  0  0
   -1.5514    1.4016   -0.3887 H   0  0  0  0  0  0  0  0  0 11  0  0
   -1.7610    0.2281    0.9247 H   0  0  0  0  0  0  0  0  0 12  0  0
  1  2  1  0
  2  6  1  0
  2  3  1  0
  3  4  1  0
  3  5  1  0
  4  8  1  0
  4  9  1  0
  4  7  1  0
  5 11  1  0
  5 12  1  0
  5 10  1  0
M  RAD  1   1   2
M  END
>  <rmg_smiles>  (5) 
[S][CH][C](C)C

>  <rmg_adjacency_list>  (5) 
multiplicity 2
1  S u1 p2 c0 {5,S}
2  C u0 p0 c0 {4,S} {6,S} {7,S} {8,S}
3  C u0 p0 c0 {4,S} {9,S} {10,S} {11,S}
4  C u0 p0 c0 {2,S} {3,S} {5,S}
5  C u0 p0 c0 {1,S} {4,S} {12,S}
6  H u0 p0 c0 {2,S}
7  H u0 p0 c0 {2,S}
8  H u0 p0 c0 {2,S}
9  H u0 p0 c0 {3,S}
10 H u0 p0 c0 {3,S}
11 H u0 p0 c0 {3,S}
12 H u0 p0 c0 {5,S}


>  <multiplicity>  (5) 
2

>  <reaction>  (5) 
rxn_936

>  <type>  (5) 
r2

>  <role_mapnums>  (5) 
{}

>  <role_mapidx>  (5) 
{}

>  <ordered_mapped_smiles>  (5) 
[S:1][CH:2]([CH:3]([C:4]([H:7])([H:8])[H:9])[C:5]([H:10])([H:11])[H:12])[H:6]

>  <level_of_theory>  (5) 
wb97xd/def2tzvp

>  <lot_method>  (5) 
wb97xd

>  <lot_basis>  (5) 
def2tzvp

>  <spin_multiplicity>  (5) 
2.0

>  <optical_isomers>  (5) 
1.0

>  <modes>  (5) 
IdealGasTranslation(mass=(87.0269, 'amu')),         NonlinearRotor(             inertia = ([59.4375, 215.284, 268.526

>  <frequency_value>  (5) 
unknown

>  <frequency_units>  (5) 
unknown

>  <frequency_list>  (5) 
unknown

>  <arkane_path>  (5) 
/home/calvin/Dropbox/PersonalFolders/Calvin/HAb_Converged/rxn_936/output/Species/rxn_936_S=C[C][C]C/arkane/output.py

>  <path_exists>  (5) 
True

>  <E0_value>  (5) 
-1456389.4058014078

>  <E0_units>  (5) 
kJ/mol

>  <thermo_class>  (5) 
NASA

>  <Cp0_value>  (5) 
33.257888

>  <Cp0_units>  (5) 
J/(mol*K)

>  <CpInf_value>  (5) 
282.692048

>  <CpInf_units>  (5) 
J/(mol*K)

>  <Tmin_value>  (5) 
10.0

>  <Tmin_units>  (5) 
K

>  <Tmax_value>  (5) 
3000.0

>  <Tmax_units>  (5) 
K

>  <polynomials>  (5) 
[{"name": "polynomial1", "class": "NASAPolynomial", "Tmin_value": 10.0, "Tmin_units": "K", "Tmax_value": 1069.7138576217342, "Tmax_units": "K", "coeffs": [3.7450953721106606, 0.02804067236145847, 4.837339460243766e-06, -1.862188975324303e-08, 7.102529060370391e-12, -175163186.63125047, 11.115318698362758]}, {"name": "polynomial2", "class": "NASAPolynomial", "Tmin_value": 1069.7138576217342, "Tmin_units": "K", "Tmax_value": 3000.0, "Tmax_units": "K", "coeffs": [5.373134457780288, 0.03266246334031504, -1.6660938713927265e-05, 4.135396675163868e-09, -4.033155674080627e-13, -175164147.67857578, 0.2872181639058632]}]

>  <H298_value>  (5) 
-348080.71273541875

>  <H298_units>  (5) 
kcal/mol

>  <S298_value>  (5) 
81.22134376115285

>  <S298_units>  (5) 
cal/(mol*K)

>  <Cp_T_value_list>  (5) 
[24.139386474933982, 29.26233594997063, 33.96322362768302, 38.17244953856237, 45.00688648485055, 49.886328245020486, 57.22140468570403, 60.97629997735028, 62.76138759591628]

>  <Cp_T_units>  (5) 
cal/(mol*K)

>  <T_list>  (5) 
[300.0, 400.0, 500.0, 600.0, 800.0, 1000.0, 1500.0, 2000.0, 2400.0]

>  <T_units>  (5) 
K

>  <yaml_path>  (5) 
/home/calvin/Dropbox/PersonalFolders/Calvin/HAb_Converged/rxn_936/output/Species/rxn_936_S=C[C][C]C/rxn_936_S=CCCC.yml

>  <frequencies_cm1>  (5) 
[87.46479202084001, 132.99290469244, 210.48683402863998, 250.26041300207999, 372.11506750548, 441.34801350172, 490.53622934888, 795.65012108712, 848.51217408048, 924.6601742939599, 952.54013469316, 965.5393379039199, 1058.3672454596801, 1073.62568684072, 1212.6752725854, 1351.19610046044, 1396.66927724948, 1403.6667352905597, 1418.3002810074797, 1452.5665377542798, 1454.3588209227999, 1474.34861518932, 1518.6063355767199, 3001.0991953555595, 3006.29063625748, 3055.78786644404, 3059.9835944745596, 3097.51166924836, 3108.51944671632, 3128.82512230756]

>  <ZPE_kJmol>  (5) 
255.66898791025585

>  <E_elec_kJmol>  (5) 
-1456645.074789318

>  <E0_minus_Eelec_plus_ZPE_kJmol>  (5) 
0.0

>  <rxn>  (5) 
rxn_936

>  <species_type>  (5) 
r0

>  <species_folder>  (5) 
rxn_936_S=C[C][C]C

>  <frequencies_cm1_list>  (5) 
[87.46479202084001, 132.99290469244, 210.48683402863998, 250.26041300207999, 372.11506750548, 441.34801350172, 490.53622934888, 795.65012108712, 848.51217408048, 924.6601742939599, 952.54013469316, 965.5393379039199, 1058.3672454596801, 1073.62568684072, 1212.6752725854, 1351.19610046044, 1396.66927724948, 1403.6667352905597, 1418.3002810074797, 1452.5665377542798, 1454.3588209227999, 1474.34861518932, 1518.6063355767199, 3001.0991953555595, 3006.29063625748, 3055.78786644404, 3059.9835944745596, 3097.51166924836, 3108.51944671632, 3128.82512230756]

>  <E0_kJmol>  (5) 
-1.45639e+06

>  <H298_kJmol>  (5) 
-1.45637e+06

$$$$
