
     RDKit          3D

 21 21  0  0  0  0  0  0  0  0999 V2000
   -1.1135    1.6167   -1.8796 C   0  0  0  0  0  0  0  0  0  1  0  0
   -1.2534    1.0432   -0.4856 C   0  0  0  0  0  0  0  0  0  2  0  0
   -1.6965    2.0689    0.5319 C   0  0  0  0  0  0  0  0  0  3  0  0
   -0.1996    0.0844   -0.0612 C   0  0  0  0  0  0  0  0  0  4  0  0
    0.1705   -0.9710   -0.9040 C   0  0  0  0  0  0  0  0  0  5  0  0
    1.1026   -1.9139   -0.5109 C   0  0  0  0  0  0  0  0  0  6  0  0
    1.7000   -1.8298    0.7395 C   0  0  0  0  0  0  0  0  0  7  0  0
    1.3476   -0.7931    1.5876 C   0  0  0  0  0  0  0  0  0  8  0  0
    0.4075    0.1479    1.1948 C   0  0  0  0  0  0  0  0  0  9  0  0
   -0.2931    2.3418   -1.9146 H   0  0  0  0  0  0  0  0  0 10  0  0
   -0.9110    0.8516   -2.6282 H   0  0  0  0  0  0  0  0  0 11  0  0
   -2.0305    2.1298   -2.1749 H   0  0  0  0  0  0  0  0  0 12  0  0
   -2.1336    0.4088   -0.5900 H   0  0  0  0  0  0  0  0  0 13  0  0
   -2.5644    2.6143    0.1578 H   0  0  0  0  0  0  0  0  0 14  0  0
   -1.9742    1.6109    1.4830 H   0  0  0  0  0  0  0  0  0 15  0  0
   -0.9086    2.8036    0.7315 H   0  0  0  0  0  0  0  0  0 16  0  0
   -0.2957   -1.0664   -1.8771 H   0  0  0  0  0  0  0  0  0 17  0  0
    1.3634   -2.7216   -1.1835 H   0  0  0  0  0  0  0  0  0 18  0  0
    2.4316   -2.5657    1.0475 H   0  0  0  0  0  0  0  0  0 19  0  0
    1.8075   -0.7120    2.5648 H   0  0  0  0  0  0  0  0  0 20  0  0
    0.1548    0.9491    1.8765 H   0  0  0  0  0  0  0  0  0 21  0  0
  1 11  1  0
  1 10  1  0
  1 12  1  0
  1  2  1  0
  2 13  1  0
  2  3  1  0
  2  4  1  0
  3 15  1  0
  3 16  1  0
  3 14  1  0
  4  9  1  0
  4  5  1  0
  5 17  1  0
  5  6  1  0
  6  7  1  0
  6 18  1  0
  7 19  1  0
  7  8  1  0
  8 20  1  0
  8  9  1  0
  9 21  1  0
M  END
>  <rmg_smiles>  (1) 
CC(C)C1[CH][CH][CH][CH][CH]1

>  <rmg_adjacency_list>  (1) 
1  C u0 p0 c0 {2,S} {3,S} {4,S} {10,S}
2  C u0 p0 c0 {1,S} {11,S} {12,S} {13,S}
3  C u0 p0 c0 {1,S} {14,S} {15,S} {16,S}
4  C u0 p0 c0 {1,S} {5,S} {6,S}
5  C u0 p0 c0 {4,S} {7,S} {17,S}
6  C u0 p0 c0 {4,S} {9,S} {21,S}
7  C u0 p0 c0 {5,S} {8,S} {18,S}
8  C u0 p0 c0 {7,S} {9,S} {19,S}
9  C u0 p0 c0 {6,S} {8,S} {20,S}
10 H u0 p0 c0 {1,S}
11 H u0 p0 c0 {2,S}
12 H u0 p0 c0 {2,S}
13 H u0 p0 c0 {2,S}
14 H u0 p0 c0 {3,S}
15 H u0 p0 c0 {3,S}
16 H u0 p0 c0 {3,S}
17 H u0 p0 c0 {5,S}
18 H u0 p0 c0 {7,S}
19 H u0 p0 c0 {8,S}
20 H u0 p0 c0 {9,S}
21 H u0 p0 c0 {6,S}


>  <multiplicity>  (1) 
1

>  <reaction>  (1) 
rxn_1561

>  <type>  (1) 
r1h

>  <role_mapnums>  (1) 
{"r1h_a": 2, "r1h_h": 13}

>  <role_mapidx>  (1) 
{"r1h_a": 1, "r1h_h": 12}

>  <ordered_mapped_smiles>  (1) 
[C:1]([C:2]([C:3]([H:14])([H:15])[H:16])([CH:4]1[CH:5]([H:17])[CH:6]([H:18])[CH:7]([H:19])[CH:8]([H:20])[CH:9]1[H:21])[H:13])([H:10])([H:11])[H:12]

>  <mol_properties>  (1) 
{"1": {"label": "donator", "atom_type": "Cs"}, "12": {"label": "d_hydrogen", "atom_type": "H0"}}

>  <level_of_theory>  (1) 
wb97xd/def2tzvp

>  <lot_method>  (1) 
wb97xd

>  <lot_basis>  (1) 
def2tzvp

>  <spin_multiplicity>  (1) 
1.0

>  <optical_isomers>  (1) 
1.0

>  <modes>  (1) 
IdealGasTranslation(mass=(120.094, 'amu')),         NonlinearRotor(             inertia = ([149.32, 463.91, 504.647

>  <frequency_value>  (1) 
unknown

>  <frequency_units>  (1) 
unknown

>  <frequency_list>  (1) 
unknown

>  <arkane_path>  (1) 
/home/calvin/Dropbox/PersonalFolders/Calvin/HAb_Converged/rxn_1561/output/Species/rxn_1561_CC[C]c1ccccc1/arkane/output.py

>  <path_exists>  (1) 
True

>  <E0_value>  (1) 
-918971.9705563578

>  <E0_units>  (1) 
kJ/mol

>  <thermo_class>  (1) 
NASA

>  <Cp0_value>  (1) 
33.257888

>  <Cp0_units>  (1) 
J/(mol*K)

>  <CpInf_value>  (1) 
507.182792

>  <CpInf_units>  (1) 
J/(mol*K)

>  <Tmin_value>  (1) 
10.0

>  <Tmin_units>  (1) 
K

>  <Tmax_value>  (1) 
3000.0

>  <Tmax_units>  (1) 
K

>  <polynomials>  (1) 
[{"name": "polynomial1", "class": "NASAPolynomial", "Tmin_value": 10.0, "Tmin_units": "K", "Tmax_value": 361.89922232211296, "Tmax_units": "K", "coeffs": [3.904348622062279, 0.0066165546790882615, 0.0002808737755672962, -5.999598061578041e-07, 4.2351735797772944e-10, -110526797.72652088, 13.495734278594782]}, {"name": "polynomial2", "class": "NASAPolynomial", "Tmin_value": 361.89922232211296, "Tmin_units": "K", "Tmax_value": 3000.0, "Tmax_units": "K", "coeffs": [-3.390813709941935, 0.08724915524894813, -5.3334839935951765e-05, 1.570183761902888e-08, -1.7850302751301086e-12, -110526269.70789742, 41.275892626906796]}]

>  <H298_value>  (1) 
-219633.7064411244

>  <H298_units>  (1) 
kcal/mol

>  <S298_value>  (1) 
90.86478001259816

>  <S298_units>  (1) 
cal/(mol*K)

>  <Cp_T_value_list>  (1) 
[36.563666942497676, 47.56278372816195, 57.13460978558492, 65.41564668608144, 78.65841331539274, 88.31207084387951, 102.21497799600469, 108.94333746029595, 112.55073339579498]

>  <Cp_T_units>  (1) 
cal/(mol*K)

>  <T_list>  (1) 
[300.0, 400.0, 500.0, 600.0, 800.0, 1000.0, 1500.0, 2000.0, 2400.0]

>  <T_units>  (1) 
K

>  <yaml_path>  (1) 
/home/calvin/Dropbox/PersonalFolders/Calvin/HAb_Converged/rxn_1561/output/Species/rxn_1561_CC[C]c1ccccc1/rxn_1561_CCCc1ccccc1.yml

>  <frequencies_cm1>  (1) 
[40.364139710959996, 128.71477283808, 218.52120685304, 233.34702815891998, 266.85791652052, 308.13536527904, 321.59465650623997, 414.80711523991994, 466.94813477468, 550.3133365594799, 568.586384496, 632.73089437012, 716.65918895116, 754.681686668, 783.96251207248, 862.0195342049199, 904.8283206898, 929.47393100328, 933.9718063878798, 965.95822400844, 981.62868450868, 994.4218781598398, 1016.0460149325199, 1049.9277205014, 1069.59476645788, 1107.56919527748, 1128.8637167548, 1168.97377800892, 1175.1197298703198, 1202.8829515190798, 1234.84190119836, 1303.2851438828, 1340.7170808621202, 1342.0355420435599, 1378.7945144615198, 1391.1344870815599, 1410.5131196546, 1472.453327241, 1477.58983226036, 1484.7452309638, 1489.7306623061197, 1494.12553291092, 1530.39694937116, 1639.69188772428, 1662.05765891152, 3009.3533117101997, 3011.8528943666793, 3016.5430453402396, 3079.47209881272, 3084.9519530980792, 3090.83695951732, 3093.05499577568, 3143.16338765572, 3146.4320726680403, 3159.08105962748, 3167.4725156885197, 3180.6639944882395]

>  <ZPE_kJmol>  (1) 
482.8876988097695

>  <E_elec_kJmol>  (1) 
-919454.8582551676

>  <E0_minus_Eelec_plus_ZPE_kJmol>  (1) 
0.0

>  <rxn>  (1) 
rxn_1561

>  <species_type>  (1) 
r0

>  <species_folder>  (1) 
rxn_1561_CC[C]c1ccccc1

>  <frequencies_cm1_list>  (1) 
[40.364139710959996, 128.71477283808, 218.52120685304, 233.34702815891998, 266.85791652052, 308.13536527904, 321.59465650623997, 414.80711523991994, 466.94813477468, 550.3133365594799, 568.586384496, 632.73089437012, 716.65918895116, 754.681686668, 783.96251207248, 862.0195342049199, 904.8283206898, 929.47393100328, 933.9718063878798, 965.95822400844, 981.62868450868, 994.4218781598398, 1016.0460149325199, 1049.9277205014, 1069.59476645788, 1107.56919527748, 1128.8637167548, 1168.97377800892, 1175.1197298703198, 1202.8829515190798, 1234.84190119836, 1303.2851438828, 1340.7170808621202, 1342.0355420435599, 1378.7945144615198, 1391.1344870815599, 1410.5131196546, 1472.453327241, 1477.58983226036, 1484.7452309638, 1489.7306623061197, 1494.12553291092, 1530.39694937116, 1639.69188772428, 1662.05765891152, 3009.3533117101997, 3011.8528943666793, 3016.5430453402396, 3079.47209881272, 3084.9519530980792, 3090.83695951732, 3093.05499577568, 3143.16338765572, 3146.4320726680403, 3159.08105962748, 3167.4725156885197, 3180.6639944882395]

>  <E0_kJmol>  (1) 
-918972

>  <H298_kJmol>  (1) 
-918947

$$$$

     RDKit          3D

  7  6  0  0  0  0  0  0  0  0999 V2000
    1.2211    0.9636    0.5296 H   0  0  0  0  0  0  0  0  0  1  0  0
    0.4427   -0.6814    1.5708 C   0  0  0  0  0  0  0  0  0  2  0  0
    0.4157    0.2385    0.4124 C   0  0  0  0  0  0  0  0  0  3  0  0
   -0.4124    0.2149   -0.9397 S   0  0  0  0  0  0  0  0  0  4  0  0
   -0.2750   -1.4974    1.4790 H   0  0  0  0  0  0  0  0  0  5  0  0
    0.2488   -0.1159    2.4866 H   0  0  0  0  0  0  0  0  0  6  0  0
    1.4554   -1.0846    1.6715 H   0  0  0  0  0  0  0  0  0  7  0  0
  1  3  1  0
  2  7  1  0
  2  5  1  0
  2  6  1  0
  2  3  1  0
  3  4  1  0
M  END
>  <rmg_smiles>  (2) 
C[CH][S]

>  <rmg_adjacency_list>  (2) 
1 S u0 p2 c0 {3,S}
2 C u0 p0 c0 {3,S} {4,S} {5,S} {6,S}
3 C u0 p0 c0 {1,S} {2,S} {7,S}
4 H u0 p0 c0 {2,S}
5 H u0 p0 c0 {2,S}
6 H u0 p0 c0 {2,S}
7 H u0 p0 c0 {3,S}


>  <multiplicity>  (2) 
1

>  <reaction>  (2) 
rxn_1561

>  <type>  (2) 
r2h

>  <role_mapnums>  (2) 
{"r2h_a": 3, "r2h_h": 1}

>  <role_mapidx>  (2) 
{"r2h_a": 2, "r2h_h": 0}

>  <ordered_mapped_smiles>  (2) 
[H:1][CH:3]([C:2]([H:5])([H:6])[H:7])[SH:4]

>  <mol_properties>  (2) 
{"0": {"label": "a_hydrogen", "atom_type": "H0"}, "2": {"label": "acceptor", "atom_type": "Cs"}}

>  <level_of_theory>  (2) 
wb97xd/def2tzvp

>  <lot_method>  (2) 
wb97xd

>  <lot_basis>  (2) 
def2tzvp

>  <spin_multiplicity>  (2) 
1.0

>  <optical_isomers>  (2) 
1.0

>  <modes>  (2) 
IdealGasTranslation(mass=(60.0034, 'amu')),         NonlinearRotor(             inertia = ([10.1821, 87.4169, 94.5043

>  <frequency_value>  (2) 
unknown

>  <frequency_units>  (2) 
unknown

>  <frequency_list>  (2) 
unknown

>  <arkane_path>  (2) 
/home/calvin/Dropbox/PersonalFolders/Calvin/HAb_Converged/rxn_1561/output/Species/rxn_1561_CC=S/arkane/output.py

>  <path_exists>  (2) 
True

>  <E0_value>  (2) 
-1251692.87971102

>  <E0_units>  (2) 
kJ/mol

>  <thermo_class>  (2) 
NASA

>  <Cp0_value>  (2) 
33.257888

>  <Cp0_units>  (2) 
J/(mol*K)

>  <CpInf_value>  (2) 
157.97496800000002

>  <CpInf_units>  (2) 
J/(mol*K)

>  <Tmin_value>  (2) 
10.0

>  <Tmin_units>  (2) 
K

>  <Tmax_value>  (2) 
3000.0

>  <Tmax_units>  (2) 
K

>  <polynomials>  (2) 
[{"name": "polynomial1", "class": "NASAPolynomial", "Tmin_value": 10.0, "Tmin_units": "K", "Tmax_value": 485.39622899743466, "Tmax_units": "K", "coeffs": [3.975940530572461, 0.0013748720414305338, 5.132788135128821e-05, -8.432386137464513e-08, 4.4867749425835864e-11, -150543879.09878448, 8.090912724756667]}, {"name": "polynomial2", "class": "NASAPolynomial", "Tmin_value": 485.39622899743466, "Tmin_units": "K", "Tmax_value": 3000.0, "Tmax_units": "K", "coeffs": [1.4651349812966712, 0.022068299956711855, -1.2628378415974456e-05, 3.5280372570941277e-09, -3.855767973354191e-13, -150543635.38297567, 18.3889911716905]}]

>  <H298_value>  (2) 
-299158.68811573734

>  <H298_units>  (2) 
kcal/mol

>  <S298_value>  (2) 
65.13190747939298

>  <S298_units>  (2) 
cal/(mol*K)

>  <Cp_T_value_list>  (2) 
[14.098427248842778, 16.871855394466547, 19.393339934655586, 21.604877323173096, 25.209772375709086, 27.915317068508738, 32.01166447471848, 34.0672583894089, 35.111294878115146]

>  <Cp_T_units>  (2) 
cal/(mol*K)

>  <T_list>  (2) 
[300.0, 400.0, 500.0, 600.0, 800.0, 1000.0, 1500.0, 2000.0, 2400.0]

>  <T_units>  (2) 
K

>  <yaml_path>  (2) 
/home/calvin/Dropbox/PersonalFolders/Calvin/HAb_Converged/rxn_1561/output/Species/rxn_1561_CC=S/rxn_1561_CC=S.yml

>  <frequencies_cm1>  (2) 
[170.46604358368, 396.01217641908, 770.63369356636, 837.4425937446399, 1045.2719044544401, 1080.9115582652398, 1167.33943550276, 1373.61680753024, 1381.75418513444, 1457.57943703788, 1469.4661886268, 3002.45885844892, 3059.70204807644, 3060.7801647716797, 3125.5770382512]

>  <ZPE_kJmol>  (2) 
139.95721324395197

>  <E_elec_kJmol>  (2) 
-1251832.836924264

>  <E0_minus_Eelec_plus_ZPE_kJmol>  (2) 
0.0

>  <rxn>  (2) 
rxn_1561

>  <species_type>  (2) 
p0

>  <species_folder>  (2) 
rxn_1561_CC=S

>  <frequencies_cm1_list>  (2) 
[170.46604358368, 396.01217641908, 770.63369356636, 837.4425937446399, 1045.2719044544401, 1080.9115582652398, 1167.33943550276, 1373.61680753024, 1381.75418513444, 1457.57943703788, 1469.4661886268, 3002.45885844892, 3059.70204807644, 3060.7801647716797, 3125.5770382512]

>  <E0_kJmol>  (2) 
-1.25169e+06

>  <H298_kJmol>  (2) 
-1.25168e+06

$$$$

     RDKit          3D

 27 26  0  0  0  0  0  0  0  0999 V2000
    0.2481    1.7616   -1.7373 C   0  0  0  0  0  0  0  0  0  1  0  0
    0.1082    1.1881   -0.3433 C   0  0  0  0  0  0  0  0  0  2  0  0
   -0.3349    2.2138    0.6742 C   0  0  0  0  0  0  0  0  0  3  0  0
    1.1620    0.2293    0.0811 C   0  0  0  0  0  0  0  0  0  4  0  0
    1.5321   -0.8260   -0.7617 C   0  0  0  0  0  0  0  0  0  5  0  0
    2.4641   -1.7689   -0.3686 C   0  0  0  0  0  0  0  0  0  6  0  0
    3.0616   -1.6848    0.8818 C   0  0  0  0  0  0  0  0  0  7  0  0
    2.7092   -0.6481    1.7299 C   0  0  0  0  0  0  0  0  0  8  0  0
    1.7690    0.2929    1.3371 C   0  0  0  0  0  0  0  0  0  9  0  0
    1.0684    2.4868   -1.7723 H   0  0  0  0  0  0  0  0  0 10  0  0
    0.4505    0.9965   -2.4859 H   0  0  0  0  0  0  0  0  0 11  0  0
   -0.6690    2.2747   -2.0326 H   0  0  0  0  0  0  0  0  0 12  0  0
   -0.9599    0.4183   -0.4699 H   0  0  0  0  0  0  0  0  0 13  0  0
   -1.2028    2.7592    0.3001 H   0  0  0  0  0  0  0  0  0 14  0  0
   -0.6126    1.7558    1.6253 H   0  0  0  0  0  0  0  0  0 15  0  0
    0.4530    2.9485    0.8739 H   0  0  0  0  0  0  0  0  0 16  0  0
    1.0659   -0.9214   -1.7348 H   0  0  0  0  0  0  0  0  0 17  0  0
    2.7250   -2.5767   -1.0412 H   0  0  0  0  0  0  0  0  0 18  0  0
    3.7931   -2.4207    1.1898 H   0  0  0  0  0  0  0  0  0 19  0  0
    3.1690   -0.5671    2.7071 H   0  0  0  0  0  0  0  0  0 20  0  0
    1.5163    1.0940    2.0188 H   0  0  0  0  0  0  0  0  0 21  0  0
   -1.9504   -1.4177    0.5404 C   0  0  0  0  0  0  0  0  0 22  0  0
   -1.9774   -0.4978   -0.6180 C   0  0  0  0  0  3  0  0  0 23  0  0
   -2.8056   -0.5214   -1.9701 S   0  0  0  0  0  0  0  0  0 24  0  0
   -2.6681   -2.2337    0.4486 H   0  0  0  0  0  0  0  0  0 25  0  0
   -2.1444   -0.8522    1.4562 H   0  0  0  0  0  0  0  0  0 26  0  0
   -0.9378   -1.8209    0.6412 H   0  0  0  0  0  0  0  0  0 27  0  0
  1 11  1  0
  1 10  1  0
  1 12  1  0
  1  2  1  0
  2 13  1  0
  2  3  1  0
  2  4  1  0
  3 15  1  0
  3 16  1  0
  3 14  1  0
  4  9  1  0
  4  5  1  0
  5 17  1  0
  5  6  1  0
  6  7  1  0
  6 18  1  0
  7 19  1  0
  7  8  1  0
  8 20  1  0
  8  9  1  0
  9 21  1  0
 22 25  1  0
 22 27  1  0
 22 26  1  0
 22 23  1  0
 23 24  1  0
M  RAD  1  23   2
M  END
>  <rmg_smiles>  (3) 
CC([C]1[CH][CH][CH][CH][CH]1)C.C[C][S]

>  <rmg_adjacency_list>  (3) 
multiplicity 2
1  S u0 p2 c0 {12,S}
2  C u0 p0 c0 {3,S} {4,S} {6,S} {13,S}
3  C u0 p0 c0 {2,S} {14,S} {15,S} {16,S}
4  C u0 p0 c0 {2,S} {17,S} {18,S} {19,S}
5  C u0 p0 c0 {12,S} {20,S} {21,S} {22,S}
6  C u0 p0 c0 {2,S} {7,S} {8,S}
7  C u0 p0 c0 {6,S} {9,S} {23,S}
8  C u0 p0 c0 {6,S} {11,S} {27,S}
9  C u0 p0 c0 {7,S} {10,S} {24,S}
10 C u0 p0 c0 {9,S} {11,S} {25,S}
11 C u0 p0 c0 {8,S} {10,S} {26,S}
12 C u1 p1 c0 {1,S} {5,S}
13 H u0 p0 c0 {2,S}
14 H u0 p0 c0 {3,S}
15 H u0 p0 c0 {3,S}
16 H u0 p0 c0 {3,S}
17 H u0 p0 c0 {4,S}
18 H u0 p0 c0 {4,S}
19 H u0 p0 c0 {4,S}
20 H u0 p0 c0 {5,S}
21 H u0 p0 c0 {5,S}
22 H u0 p0 c0 {5,S}
23 H u0 p0 c0 {7,S}
24 H u0 p0 c0 {9,S}
25 H u0 p0 c0 {10,S}
26 H u0 p0 c0 {11,S}
27 H u0 p0 c0 {8,S}


>  <multiplicity>  (3) 
2

>  <reaction>  (3) 
rxn_1561

>  <type>  (3) 
ts

>  <role_mapnums>  (3) 
{"*2": 13, "*1": 2, "*3": 23, "*0": 4, "*4": 24}

>  <role_mapidx>  (3) 
{"*2": 12, "*1": 1, "*3": 22, "*0": 3, "*4": 23}

>  <ordered_mapped_smiles>  (3) 
[C:1]([C:2]([C:3]([H:14])([H:15])[H:16])([CH:4]1[CH:5]([H:17])[CH:6]([H:18])[CH:7]([H:19])[CH:8]([H:20])[CH:9]1[H:21])[H:13])([H:10])([H:11])[H:12].[C:22]([CH:23][SH:24])([H:25])([H:26])[H:27]

>  <mol_properties>  (3) 
{"1": {"label": "*1", "atom_type": "Cs"}, "3": {"label": "*0", "atom_type": "Cs"}, "12": {"label": "*2", "atom_type": "H0"}, "22": {"label": "*3", "atom_type": "C2s"}, "23": {"label": "*4", "atom_type": "S2s"}}

>  <level_of_theory>  (3) 
wb97xd/def2tzvp

>  <lot_method>  (3) 
wb97xd

>  <lot_basis>  (3) 
def2tzvp

>  <spin_multiplicity>  (3) 
2.0

>  <optical_isomers>  (3) 
2.0

>  <modes>  (3) 
IdealGasTranslation(mass=(179.089, 'amu')),         NonlinearRotor(             inertia = ([433.437, 1035.34, 1164.41

>  <frequency_value>  (3) 
-1721.87

>  <frequency_units>  (3) 
cm^-1

>  <frequency_list>  (3) 
unknown

>  <arkane_path>  (3) 
/home/calvin/Dropbox/PersonalFolders/Calvin/HAb_Converged/rxn_1561/output/rxns/TS0/arkane/output.py

>  <path_exists>  (3) 
True

>  <E0_value>  (3) 
-2168930.0

>  <E0_units>  (3) 
kJ/mol

>  <thermo_class>  (3) 
unknown

>  <Cp0_value>  (3) 
unknown

>  <Cp0_units>  (3) 
unknown

>  <CpInf_value>  (3) 
unknown

>  <CpInf_units>  (3) 
unknown

>  <Tmin_value>  (3) 
unknown

>  <Tmin_units>  (3) 
unknown

>  <Tmax_value>  (3) 
unknown

>  <Tmax_units>  (3) 
unknown

>  <polynomials>  (3) 
unknown

>  <H298_value>  (3) 
unknown

>  <H298_units>  (3) 
unknown

>  <S298_value>  (3) 
unknown

>  <S298_units>  (3) 
unknown

>  <Cp_T_value_list>  (3) 
unknown

>  <Cp_T_units>  (3) 
unknown

>  <T_list>  (3) 
unknown

>  <T_units>  (3) 
unknown

>  <yaml_path>  (3) 
unknown

>  <frequencies_cm1>  (3) 
unknown

>  <ZPE_kJmol>  (3) 
unknown

>  <E_elec_kJmol>  (3) 
unknown

>  <E0_minus_Eelec_plus_ZPE_kJmol>  (3) 
unknown

>  <rxn>  (3) 
unknown

>  <species_type>  (3) 
unknown

>  <species_folder>  (3) 
unknown

>  <frequencies_cm1_list>  (3) 
[]

>  <ts_imag_freq_cm1>  (3) 
-1742.7799

>  <ts_freq_out_path>  (3) 
/home/calvin/Dropbox/PersonalFolders/Calvin/HAb_Converged/rxn_1561/output/rxns/TS0/geometry/freq.out

>  <E0_kJmol>  (3) 
-2.16893e+06

>  <H298_kJmol>  (3) 
unknown

$$$$

     RDKit          3D

 20 20  0  0  0  0  0  0  0  0999 V2000
   -2.4774    0.8083    0.1488 C   0  0  0  0  0  0  0  0  0  1  0  0
   -1.4172   -0.1696   -0.2476 C   0  0  0  0  0  3  0  0  0  2  0  0
   -0.2904    0.2932   -1.1156 C   0  0  0  0  0  0  0  0  0  3  0  0
   -1.4797   -1.5204    0.1947 C   0  0  0  0  0  0  0  0  0  4  0  0
   -0.4907   -2.4664   -0.1650 C   0  0  0  0  0  0  0  0  0  5  0  0
   -0.5559   -3.7750    0.2665 C   0  0  0  0  0  0  0  0  0  6  0  0
   -1.6038   -4.2041    1.0733 C   0  0  0  0  0  0  0  0  0  7  0  0
   -2.5899   -3.2959    1.4424 C   0  0  0  0  0  0  0  0  0  8  0  0
   -2.5339   -1.9852    1.0162 C   0  0  0  0  0  0  0  0  0  9  0  0
   -3.4697    0.4933   -0.1924 H   0  0  0  0  0  0  0  0  0 10  0  0
   -2.5434    0.9184    1.2368 H   0  0  0  0  0  0  0  0  0 11  0  0
   -2.2829    1.7944   -0.2706 H   0  0  0  0  0  0  0  0  0 12  0  0
   -0.2452   -0.2661   -2.0565 H   0  0  0  0  0  0  0  0  0 13  0  0
   -0.3905    1.3487   -1.3647 H   0  0  0  0  0  0  0  0  0 14  0  0
    0.6811    0.1589   -0.6274 H   0  0  0  0  0  0  0  0  0 15  0  0
    0.3373   -2.1635   -0.7918 H   0  0  0  0  0  0  0  0  0 16  0  0
    0.2187   -4.4725   -0.0281 H   0  0  0  0  0  0  0  0  0 17  0  0
   -1.6513   -5.2316    1.4097 H   0  0  0  0  0  0  0  0  0 18  0  0
   -3.4116   -3.6175    2.0706 H   0  0  0  0  0  0  0  0  0 19  0  0
   -3.3164   -1.3029    1.3205 H   0  0  0  0  0  0  0  0  0 20  0  0
  1 11  1  0
  1 10  1  0
  1 12  1  0
  1  2  1  0
  2  3  1  0
  2  4  1  0
  3 15  1  0
  3 13  1  0
  3 14  1  0
  4  9  1  0
  4  5  1  0
  5 16  1  0
  5  6  1  0
  6  7  1  0
  6 17  1  0
  7 18  1  0
  7  8  1  0
  8 19  1  0
  8  9  1  0
  9 20  1  0
M  RAD  1   2   2
M  END
>  <rmg_smiles>  (4) 
C[C](C)C1[CH][CH][CH][CH][CH]1

>  <rmg_adjacency_list>  (4) 
multiplicity 2
1  C u0 p0 c0 {3,S} {10,S} {11,S} {12,S}
2  C u0 p0 c0 {3,S} {13,S} {14,S} {15,S}
3  C u1 p0 c0 {1,S} {2,S} {4,S}
4  C u0 p0 c0 {3,S} {5,S} {6,S}
5  C u0 p0 c0 {4,S} {7,S} {16,S}
6  C u0 p0 c0 {4,S} {9,S} {20,S}
7  C u0 p0 c0 {5,S} {8,S} {17,S}
8  C u0 p0 c0 {7,S} {9,S} {18,S}
9  C u0 p0 c0 {6,S} {8,S} {19,S}
10 H u0 p0 c0 {1,S}
11 H u0 p0 c0 {1,S}
12 H u0 p0 c0 {1,S}
13 H u0 p0 c0 {2,S}
14 H u0 p0 c0 {2,S}
15 H u0 p0 c0 {2,S}
16 H u0 p0 c0 {5,S}
17 H u0 p0 c0 {7,S}
18 H u0 p0 c0 {8,S}
19 H u0 p0 c0 {9,S}
20 H u0 p0 c0 {6,S}


>  <multiplicity>  (4) 
2

>  <reaction>  (4) 
rxn_1561

>  <type>  (4) 
r1

>  <role_mapnums>  (4) 
{}

>  <role_mapidx>  (4) 
{}

>  <ordered_mapped_smiles>  (4) 
[C:1]([C:2]([C:3]([H:13])([H:14])[H:15])[CH:4]1[CH:5]([H:16])[CH:6]([H:17])[CH:7]([H:18])[CH:8]([H:19])[CH:9]1[H:20])([H:10])([H:11])[H:12]

>  <level_of_theory>  (4) 
wb97xd/def2tzvp

>  <lot_method>  (4) 
wb97xd

>  <lot_basis>  (4) 
def2tzvp

>  <spin_multiplicity>  (4) 
2.0

>  <optical_isomers>  (4) 
1.0

>  <modes>  (4) 
IdealGasTranslation(mass=(119.086, 'amu')),         NonlinearRotor(             inertia = ([147.943, 418.336, 560.064

>  <frequency_value>  (4) 
unknown

>  <frequency_units>  (4) 
unknown

>  <frequency_list>  (4) 
unknown

>  <arkane_path>  (4) 
/home/calvin/Dropbox/PersonalFolders/Calvin/HAb_Converged/rxn_1561/output/Species/rxn_1561_C[C][C]c1ccccc1/arkane/output.py

>  <path_exists>  (4) 
True

>  <E0_value>  (4) 
-917305.6793154374

>  <E0_units>  (4) 
kJ/mol

>  <thermo_class>  (4) 
NASA

>  <Cp0_value>  (4) 
33.257888

>  <Cp0_units>  (4) 
J/(mol*K)

>  <CpInf_value>  (4) 
482.239376

>  <CpInf_units>  (4) 
J/(mol*K)

>  <Tmin_value>  (4) 
10.0

>  <Tmin_units>  (4) 
K

>  <Tmax_value>  (4) 
3000.0

>  <Tmax_units>  (4) 
K

>  <polynomials>  (4) 
[{"name": "polynomial1", "class": "NASAPolynomial", "Tmin_value": 10.0, "Tmin_units": "K", "Tmax_value": 820.2225002457031, "Tmax_units": "K", "coeffs": [3.7087715908878534, 0.03551334410867291, 7.625059119540152e-05, -1.2560734316113271e-07, 5.320480088877488e-11, -110326392.84742013, 12.19412592857727]}, {"name": "polynomial2", "class": "NASAPolynomial", "Tmin_value": 820.2225002457031, "Tmin_units": "K", "Tmax_value": 3000.0, "Tmax_units": "K", "coeffs": [2.0631615838326263, 0.07155383546720528, -4.0892856549356014e-05, 1.1247434201086425e-08, -1.200197285964276e-12, -110327065.27984656, 14.06242109608226]}]

>  <H298_value>  (4) 
-219235.10103074583

>  <H298_units>  (4) 
kcal/mol

>  <S298_value>  (4) 
91.98557876161978

>  <S298_units>  (4) 
cal/(mol*K)

>  <Cp_T_value_list>  (4) 
[36.29610547032918, 46.57490747487287, 55.94477856481854, 64.04994476982951, 76.31181375819965, 84.99555925751662, 97.907834516263, 104.08137794150619, 107.1390022615462]

>  <Cp_T_units>  (4) 
cal/(mol*K)

>  <T_list>  (4) 
[300.0, 400.0, 500.0, 600.0, 800.0, 1000.0, 1500.0, 2000.0, 2400.0]

>  <T_units>  (4) 
K

>  <yaml_path>  (4) 
/home/calvin/Dropbox/PersonalFolders/Calvin/HAb_Converged/rxn_1561/output/Species/rxn_1561_C[C][C]c1ccccc1/rxn_1561_CCCc1ccccc1.yml

>  <frequencies_cm1>  (4) 
[63.56081612192, 120.90701052923998, 139.35173309875998, 146.39726003707997, 226.46630886828, 338.41877054023996, 360.33818768168, 416.18737928923997, 451.99870773303996, 518.2376481297599, 524.17759043156, 626.9420257453601, 690.9491959130801, 730.7777107690799, 767.1040631118799, 830.7266821016799, 897.8583305899999, 913.4944561636399, 942.5692720085199, 968.56767843004, 978.9505602338799, 993.91372124616, 999.23563486916, 1039.80578413972, 1044.4753341573198, 1105.9691876979198, 1113.02158162156, 1170.28537220504, 1199.70353731592, 1239.75866268748, 1319.3882244581998, 1348.18836089028, 1355.0896811368798, 1389.11559339748, 1406.12511603512, 1462.54426742424, 1462.78461191044, 1474.0258668792799, 1486.24910074888, 1486.8121935451197, 1509.72045657264, 1596.1139988835598, 1617.80680550944, 2981.31541064864, 2984.9205779416397, 3027.138803689, 3028.1413835457197, 3095.76058799176, 3103.71255699232, 3152.0767346010794, 3159.1703304366397, 3175.07426843776, 3181.8657169192397, 3186.23311958276]

>  <ZPE_kJmol>  (4) 
445.9053042173275

>  <E_elec_kJmol>  (4) 
-917751.5846196548

>  <E0_minus_Eelec_plus_ZPE_kJmol>  (4) 
0.0

>  <rxn>  (4) 
rxn_1561

>  <species_type>  (4) 
p1

>  <species_folder>  (4) 
rxn_1561_C[C][C]c1ccccc1

>  <frequencies_cm1_list>  (4) 
[63.56081612192, 120.90701052923998, 139.35173309875998, 146.39726003707997, 226.46630886828, 338.41877054023996, 360.33818768168, 416.18737928923997, 451.99870773303996, 518.2376481297599, 524.17759043156, 626.9420257453601, 690.9491959130801, 730.7777107690799, 767.1040631118799, 830.7266821016799, 897.8583305899999, 913.4944561636399, 942.5692720085199, 968.56767843004, 978.9505602338799, 993.91372124616, 999.23563486916, 1039.80578413972, 1044.4753341573198, 1105.9691876979198, 1113.02158162156, 1170.28537220504, 1199.70353731592, 1239.75866268748, 1319.3882244581998, 1348.18836089028, 1355.0896811368798, 1389.11559339748, 1406.12511603512, 1462.54426742424, 1462.78461191044, 1474.0258668792799, 1486.24910074888, 1486.8121935451197, 1509.72045657264, 1596.1139988835598, 1617.80680550944, 2981.31541064864, 2984.9205779416397, 3027.138803689, 3028.1413835457197, 3095.76058799176, 3103.71255699232, 3152.0767346010794, 3159.1703304366397, 3175.07426843776, 3181.8657169192397, 3186.23311958276]

>  <E0_kJmol>  (4) 
-917306

>  <H298_kJmol>  (4) 
-917280

$$$$

     RDKit          3D

  6  5  0  0  0  0  0  0  0  0999 V2000
   -0.5036    0.1196    0.0353 C   0  0  0  0  0  0  0  0  0  1  0  0
    0.9526    0.1121    0.2227 C   0  0  0  0  0  3  0  0  0  2  0  0
    2.2066   -0.6670   -0.2771 S   0  0  0  0  0  0  0  0  0  3  0  0
   -0.8527   -0.6450   -0.6654 H   0  0  0  0  0  0  0  0  0  4  0  0
   -0.8134    1.1060   -0.3189 H   0  0  0  0  0  0  0  0  0  5  0  0
   -0.9894   -0.0257    1.0035 H   0  0  0  0  0  0  0  0  0  6  0  0
  1  5  1  0
  1  4  1  0
  1  6  1  0
  1  2  1  0
  2  3  1  0
M  RAD  1   2   2
M  END
>  <rmg_smiles>  (5) 
C[C][S]

>  <rmg_adjacency_list>  (5) 
multiplicity 2
1 S u0 p2 c0 {3,S}
2 C u0 p0 c0 {3,S} {4,S} {5,S} {6,S}
3 C u1 p1 c0 {1,S} {2,S}
4 H u0 p0 c0 {2,S}
5 H u0 p0 c0 {2,S}
6 H u0 p0 c0 {2,S}


>  <multiplicity>  (5) 
2

>  <reaction>  (5) 
rxn_1561

>  <type>  (5) 
r2

>  <role_mapnums>  (5) 
{}

>  <role_mapidx>  (5) 
{}

>  <ordered_mapped_smiles>  (5) 
[C:1]([CH:2][SH:3])([H:4])([H:5])[H:6]

>  <level_of_theory>  (5) 
wb97xd/def2tzvp

>  <lot_method>  (5) 
wb97xd

>  <lot_basis>  (5) 
def2tzvp

>  <spin_multiplicity>  (5) 
2.0

>  <optical_isomers>  (5) 
1.0

>  <modes>  (5) 
IdealGasTranslation(mass=(58.9956, 'amu')),         NonlinearRotor(             inertia = ([5.66954, 91.603, 94.188

>  <frequency_value>  (5) 
unknown

>  <frequency_units>  (5) 
unknown

>  <frequency_list>  (5) 
unknown

>  <arkane_path>  (5) 
/home/calvin/Dropbox/PersonalFolders/Calvin/HAb_Converged/rxn_1561/output/Species/rxn_1561_C[C]=S/arkane/output.py

>  <path_exists>  (5) 
True

>  <E0_value>  (5) 
-1250003.2064730038

>  <E0_units>  (5) 
kJ/mol

>  <thermo_class>  (5) 
NASA

>  <Cp0_value>  (5) 
33.257888

>  <Cp0_units>  (5) 
J/(mol*K)

>  <CpInf_value>  (5) 
133.031552

>  <CpInf_units>  (5) 
J/(mol*K)

>  <Tmin_value>  (5) 
10.0

>  <Tmin_units>  (5) 
K

>  <Tmax_value>  (5) 
3000.0

>  <Tmax_units>  (5) 
K

>  <polynomials>  (5) 
[{"name": "polynomial1", "class": "NASAPolynomial", "Tmin_value": 10.0, "Tmin_units": "K", "Tmax_value": 414.45327961806714, "Tmax_units": "K", "coeffs": [3.8722319229487443, 0.014174356083143895, -4.244314246222252e-05, 1.261573273215411e-07, -1.1765707695229104e-10, -150340659.2528728, 8.372865344740191]}, {"name": "polynomial2", "class": "NASAPolynomial", "Tmin_value": 414.45327961806714, "Tmin_units": "K", "Tmax_value": 3000.0, "Tmax_units": "K", "coeffs": [2.268356711289993, 0.017429033442008832, -9.978411862551701e-06, 2.767668028104844e-09, -2.9864679142241373e-13, -150340421.31338018, 15.964598090813464]}]

>  <H298_value>  (5) 
-298754.75128676504

>  <H298_units>  (5) 
kcal/mol

>  <S298_value>  (5) 
66.87669967841377

>  <S298_units>  (5) 
cal/(mol*K)

>  <Cp_T_value_list>  (5) 
[13.429305931569482, 15.526281546883707, 17.518345187617275, 19.261317313064257, 22.097975108114465, 24.22007189455694, 27.402505345275653, 28.96506829296092, 29.756914382307922]

>  <Cp_T_units>  (5) 
cal/(mol*K)

>  <T_list>  (5) 
[300.0, 400.0, 500.0, 600.0, 800.0, 1000.0, 1500.0, 2000.0, 2400.0]

>  <T_units>  (5) 
K

>  <yaml_path>  (5) 
/home/calvin/Dropbox/PersonalFolders/Calvin/HAb_Converged/rxn_1561/output/Species/rxn_1561_C[C]=S/rxn_1561_CC=S.yml

>  <frequencies_cm1>  (5) 
[110.25631629792, 320.62641157612, 796.9754492538799, 970.2912917453599, 1043.01953326948, 1358.45450394368, 1382.55075543156, 1440.90639668092, 1457.8953183626, 2987.6124361870793, 3069.2540246565595, 3079.16995145864]

>  <ZPE_kJmol>  (5) 
107.7656967118827

>  <E_elec_kJmol>  (5) 
-1250110.9721697157

>  <E0_minus_Eelec_plus_ZPE_kJmol>  (5) 
0.0

>  <rxn>  (5) 
rxn_1561

>  <species_type>  (5) 
r1

>  <species_folder>  (5) 
rxn_1561_C[C]=S

>  <frequencies_cm1_list>  (5) 
[110.25631629792, 320.62641157612, 796.9754492538799, 970.2912917453599, 1043.01953326948, 1358.45450394368, 1382.55075543156, 1440.90639668092, 1457.8953183626, 2987.6124361870793, 3069.2540246565595, 3079.16995145864]

>  <E0_kJmol>  (5) 
-1.25e+06

>  <H298_kJmol>  (5) 
-1.24999e+06

$$$$
