
     RDKit          3D

 22 23  0  0  0  0  0  0  0  0999 V2000
   -0.4711   -1.2941   -1.6848 C   0  0  0  0  0  0  0  0  0  1  0  0
   -0.0188   -1.7273   -0.2875 C   0  0  0  0  0  0  0  0  0  2  0  0
   -0.4186   -0.5737    0.6133 C   0  0  0  0  0  0  0  0  0  3  0  0
    0.4896   -0.1453    1.7470 C   0  0  0  0  0  0  0  0  0  4  0  0
    1.2034    1.0895    1.1790 C   0  0  0  0  0  0  0  0  0  5  0  0
    0.1045    1.7962    0.3794 C   0  0  0  0  0  0  0  0  0  6  0  0
   -0.6929    0.6525   -0.2679 C   0  0  0  0  0  0  0  0  0  7  0  0
   -0.2388    0.2167   -1.6702 C   0  0  0  0  0  0  0  0  0  8  0  0
    0.0671   -1.8044   -2.4845 H   0  0  0  0  0  0  0  0  0  9  0  0
   -1.5359   -1.5070   -1.8114 H   0  0  0  0  0  0  0  0  0 10  0  0
   -0.4543   -2.6809    0.0221 H   0  0  0  0  0  0  0  0  0 11  0  0
    1.0711   -1.8537   -0.2634 H   0  0  0  0  0  0  0  0  0 12  0  0
   -1.3795   -0.8685    1.0350 H   0  0  0  0  0  0  0  0  0 13  0  0
   -0.0980    0.1463    2.6249 H   0  0  0  0  0  0  0  0  0 14  0  0
    1.1734   -0.9353    2.0620 H   0  0  0  0  0  0  0  0  0 15  0  0
    2.0063    0.7701    0.5080 H   0  0  0  0  0  0  0  0  0 16  0  0
    1.6512    1.7220    1.9468 H   0  0  0  0  0  0  0  0  0 17  0  0
   -0.5360    2.3605    1.0624 H   0  0  0  0  0  0  0  0  0 18  0  0
    0.4960    2.5010   -0.3562 H   0  0  0  0  0  0  0  0  0 19  0  0
   -1.7605    0.8880   -0.3001 H   0  0  0  0  0  0  0  0  0 20  0  0
   -0.7663    0.7434   -2.4665 H   0  0  0  0  0  0  0  0  0 21  0  0
    0.8301    0.4252   -1.7896 H   0  0  0  0  0  0  0  0  0 22  0  0
  1  8  1  0
  1 10  1  0
  1  9  1  0
  1  2  1  0
  2 12  1  0
  2 11  1  0
  2  3  1  0
  3  4  1  0
  3 13  1  0
  3  7  1  0
  4 14  1  0
  4  5  1  0
  4 15  1  0
  5 16  1  0
  5 17  1  0
  5  6  1  0
  6  7  1  0
  6 19  1  0
  6 18  1  0
  7 20  1  0
  7  8  1  0
  8 22  1  0
  8 21  1  0
M  END
>  <rmg_smiles>  (1) 
C1CC2CCCC2C1

>  <rmg_adjacency_list>  (1) 
1  C u0 p0 c0 {2,S} {3,S} {4,S} {9,S}
2  C u0 p0 c0 {1,S} {5,S} {6,S} {10,S}
3  C u0 p0 c0 {1,S} {7,S} {13,S} {14,S}
4  C u0 p0 c0 {1,S} {8,S} {15,S} {16,S}
5  C u0 p0 c0 {2,S} {8,S} {19,S} {20,S}
6  C u0 p0 c0 {2,S} {7,S} {21,S} {22,S}
7  C u0 p0 c0 {3,S} {6,S} {11,S} {12,S}
8  C u0 p0 c0 {4,S} {5,S} {17,S} {18,S}
9  H u0 p0 c0 {1,S}
10 H u0 p0 c0 {2,S}
11 H u0 p0 c0 {7,S}
12 H u0 p0 c0 {7,S}
13 H u0 p0 c0 {3,S}
14 H u0 p0 c0 {3,S}
15 H u0 p0 c0 {4,S}
16 H u0 p0 c0 {4,S}
17 H u0 p0 c0 {8,S}
18 H u0 p0 c0 {8,S}
19 H u0 p0 c0 {5,S}
20 H u0 p0 c0 {5,S}
21 H u0 p0 c0 {6,S}
22 H u0 p0 c0 {6,S}


>  <multiplicity>  (1) 
1

>  <reaction>  (1) 
rxn_570

>  <type>  (1) 
r1h

>  <role_mapnums>  (1) 
{"r1h_a": 3, "r1h_h": 13}

>  <role_mapidx>  (1) 
{"r1h_a": 2, "r1h_h": 12}

>  <ordered_mapped_smiles>  (1) 
[C:1]1([H:9])([H:10])[C:2]([H:11])([H:12])[C:3]2([H:13])[C:4]([H:14])([H:15])[C:5]([H:16])([H:17])[C:6]([H:18])([H:19])[C:7]2([H:20])[C:8]1([H:21])[H:22]

>  <mol_properties>  (1) 
{"2": {"label": "donator", "atom_type": "Cs"}, "12": {"label": "d_hydrogen", "atom_type": "H0"}}

>  <level_of_theory>  (1) 
wb97xd/def2tzvp

>  <lot_method>  (1) 
wb97xd

>  <lot_basis>  (1) 
def2tzvp

>  <spin_multiplicity>  (1) 
1.0

>  <optical_isomers>  (1) 
1.0

>  <modes>  (1) 
IdealGasTranslation(mass=(110.11, 'amu')),         NonlinearRotor(             inertia = ([146.16, 254.143, 330.352

>  <frequency_value>  (1) 
unknown

>  <frequency_units>  (1) 
unknown

>  <frequency_list>  (1) 
unknown

>  <arkane_path>  (1) 
/home/calvin/Dropbox/PersonalFolders/Calvin/HAb_Converged/rxn_570/output/Species/rxn_570_C1CC2CCCC2C1/arkane/output.py

>  <path_exists>  (1) 
True

>  <E0_value>  (1) 
-822068.5647386664

>  <E0_units>  (1) 
kJ/mol

>  <thermo_class>  (1) 
NASA

>  <Cp0_value>  (1) 
33.257888

>  <Cp0_units>  (1) 
J/(mol*K)

>  <CpInf_value>  (1) 
532.126208

>  <CpInf_units>  (1) 
J/(mol*K)

>  <Tmin_value>  (1) 
10.0

>  <Tmin_units>  (1) 
K

>  <Tmax_value>  (1) 
3000.0

>  <Tmax_units>  (1) 
K

>  <polynomials>  (1) 
[{"name": "polynomial1", "class": "NASAPolynomial", "Tmin_value": 10.0, "Tmin_units": "K", "Tmax_value": 631.1603476039522, "Tmax_units": "K", "coeffs": [4.104889492374794, -0.008723881260511266, 0.0002586826879023047, -3.871567720405649e-07, 1.8543676033002454e-10, -98872009.8313479, 11.711807421704037]}, {"name": "polynomial2", "class": "NASAPolynomial", "Tmin_value": 631.1603476039522, "Tmin_units": "K", "Tmax_value": 3000.0, "Tmax_units": "K", "coeffs": [-8.339453162831145, 0.09752868230448702, -5.891969195438952e-05, 1.7059112348906735e-08, -1.901715036556147e-12, -98870984.4376346, 61.700480242797994]}]

>  <H298_value>  (1) 
-196474.2486283963

>  <H298_units>  (1) 
kcal/mol

>  <S298_value>  (1) 
81.3452408536039

>  <S298_units>  (1) 
cal/(mol*K)

>  <Cp_T_value_list>  (1) 
[31.43357666913423, 43.666308714694196, 54.864430270517616, 64.3915908758313, 79.34957860700764, 90.27269955614224, 105.9803760171208, 113.43889187087962, 117.40969847086997]

>  <Cp_T_units>  (1) 
cal/(mol*K)

>  <T_list>  (1) 
[300.0, 400.0, 500.0, 600.0, 800.0, 1000.0, 1500.0, 2000.0, 2400.0]

>  <T_units>  (1) 
K

>  <yaml_path>  (1) 
/home/calvin/Dropbox/PersonalFolders/Calvin/HAb_Converged/rxn_570/output/Species/rxn_570_C1CC2CCCC2C1/rxn_570_C1CC2CCCC2C1.yml

>  <frequencies_cm1>  (1) 
[104.48804862911999, 193.17516403692, 284.30005923332, 354.38451140924, 393.75980523412, 536.4076912864799, 546.84550897288, 589.015665823, 687.2204228843199, 771.9521547477999, 809.8922486408001, 842.5310298667599, 889.59048026472, 905.6866938548001, 914.3802972699199, 927.22155981832, 933.9649394025599, 960.1075525158, 996.54377662372, 1021.0245792895199, 1030.08899991192, 1051.48652616904, 1068.6333885130798, 1089.19314256116, 1150.77626691092, 1188.5515531562398, 1194.01080648564, 1212.42806111388, 1220.75771430704, 1259.1235612898797, 1274.34766774432, 1301.0327726978398, 1303.03793241128, 1323.01399270716, 1323.82429697492, 1335.4501031216798, 1337.88101592496, 1343.2166635186, 1357.4862590135597, 1367.1755753000798, 1477.40442365672, 1478.31086571896, 1479.4507852820798, 1483.57097647408, 1496.2336974041598, 1502.40025022152, 3003.36530051116, 3004.2511416174398, 3014.3250090818797, 3016.1859621035996, 3016.74905489984, 3018.8846873343596, 3037.5079515222, 3052.3475067987197, 3066.73384104412, 3068.2514447998396, 3072.3785029771598, 3072.460906801, 3078.0849677780793, 3083.11846801764]

>  <ZPE_kJmol>  (1) 
537.8174132296483

>  <E_elec_kJmol>  (1) 
-822606.382151896

>  <E0_minus_Eelec_plus_ZPE_kJmol>  (1) 
0.0

>  <rxn>  (1) 
rxn_570

>  <species_type>  (1) 
r1

>  <species_folder>  (1) 
rxn_570_C1CC2CCCC2C1

>  <frequencies_cm1_list>  (1) 
[104.48804862911999, 193.17516403692, 284.30005923332, 354.38451140924, 393.75980523412, 536.4076912864799, 546.84550897288, 589.015665823, 687.2204228843199, 771.9521547477999, 809.8922486408001, 842.5310298667599, 889.59048026472, 905.6866938548001, 914.3802972699199, 927.22155981832, 933.9649394025599, 960.1075525158, 996.54377662372, 1021.0245792895199, 1030.08899991192, 1051.48652616904, 1068.6333885130798, 1089.19314256116, 1150.77626691092, 1188.5515531562398, 1194.01080648564, 1212.42806111388, 1220.75771430704, 1259.1235612898797, 1274.34766774432, 1301.0327726978398, 1303.03793241128, 1323.01399270716, 1323.82429697492, 1335.4501031216798, 1337.88101592496, 1343.2166635186, 1357.4862590135597, 1367.1755753000798, 1477.40442365672, 1478.31086571896, 1479.4507852820798, 1483.57097647408, 1496.2336974041598, 1502.40025022152, 3003.36530051116, 3004.2511416174398, 3014.3250090818797, 3016.1859621035996, 3016.74905489984, 3018.8846873343596, 3037.5079515222, 3052.3475067987197, 3066.73384104412, 3068.2514447998396, 3072.3785029771598, 3072.460906801, 3078.0849677780793, 3083.11846801764]

>  <E0_kJmol>  (1) 
-822069

>  <H298_kJmol>  (1) 
-822048

$$$$

     RDKit          3D

 18 18  0  0  0  0  0  0  0  0999 V2000
    1.2367   -0.2927    2.6996 C   0  0  0  0  0  0  0  0  0  1  0  0
    0.8683    0.7304    1.6528 C   0  0  0  0  0  0  0  0  0  2  0  0
    0.1787    0.2904    0.4267 C   0  0  0  0  0  0  0  0  0  3  0  0
   -0.4818    1.2300   -0.3724 C   0  0  0  0  0  0  0  0  0  4  0  0
   -1.0420    0.8764   -1.5858 C   0  0  0  0  0  0  0  0  0  5  0  0
   -0.9609   -0.4344   -2.0372 C   0  0  0  0  0  0  0  0  0  6  0  0
   -0.3241   -1.3826   -1.2515 C   0  0  0  0  0  0  0  0  0  7  0  0
    0.2368   -1.0264   -0.0353 C   0  0  0  0  0  0  0  0  0  8  0  0
    1.9401   -1.0324    2.3103 H   0  0  0  0  0  0  0  0  0  9  0  0
    0.3597   -0.8327    3.0687 H   0  0  0  0  0  0  0  0  0 10  0  0
    1.7169    0.1910    3.5509 H   0  0  0  0  0  0  0  0  0 11  0  0
    0.4216    1.6312    2.0738 H   0  0  0  0  0  0  0  0  0 12  0  0
   -0.5461    2.2572   -0.0308 H   0  0  0  0  0  0  0  0  0 13  0  0
   -1.5446    1.6260   -2.1846 H   0  0  0  0  0  0  0  0  0 14  0  0
   -1.3956   -0.7138   -2.9883 H   0  0  0  0  0  0  0  0  0 15  0  0
   -0.2615   -2.4101   -1.5883 H   0  0  0  0  0  0  0  0  0 16  0  0
    0.7316   -1.7841    0.5590 H   0  0  0  0  0  0  0  0  0 17  0  0
    1.8263    1.1028    1.2896 H   0  0  0  0  0  0  0  0  0 18  0  0
  1 10  1  0
  1 11  1  0
  1  9  1  0
  1  2  1  0
  2 18  1  0
  2 12  1  0
  2  3  1  0
  3  4  1  0
  3  8  1  0
  4  5  1  0
  4 13  1  0
  5 14  1  0
  5  6  1  0
  6 15  1  0
  6  7  1  0
  7  8  1  0
  7 16  1  0
  8 17  1  0
M  END
>  <rmg_smiles>  (2) 
CCC1[CH][CH][CH][CH][CH]1

>  <rmg_adjacency_list>  (2) 
1  C u0 p0 c0 {2,S} {3,S} {9,S} {10,S}
2  C u0 p0 c0 {1,S} {11,S} {12,S} {13,S}
3  C u0 p0 c0 {1,S} {4,S} {5,S}
4  C u0 p0 c0 {3,S} {6,S} {14,S}
5  C u0 p0 c0 {3,S} {8,S} {18,S}
6  C u0 p0 c0 {4,S} {7,S} {15,S}
7  C u0 p0 c0 {6,S} {8,S} {16,S}
8  C u0 p0 c0 {5,S} {7,S} {17,S}
9  H u0 p0 c0 {1,S}
10 H u0 p0 c0 {1,S}
11 H u0 p0 c0 {2,S}
12 H u0 p0 c0 {2,S}
13 H u0 p0 c0 {2,S}
14 H u0 p0 c0 {4,S}
15 H u0 p0 c0 {6,S}
16 H u0 p0 c0 {7,S}
17 H u0 p0 c0 {8,S}
18 H u0 p0 c0 {5,S}


>  <multiplicity>  (2) 
1

>  <reaction>  (2) 
rxn_570

>  <type>  (2) 
r2h

>  <role_mapnums>  (2) 
{"r2h_a": 2, "r2h_h": 18}

>  <role_mapidx>  (2) 
{"r2h_a": 1, "r2h_h": 17}

>  <ordered_mapped_smiles>  (2) 
[C:1]([C:2]([CH:3]1[CH:4]([H:13])[CH:5]([H:14])[CH:6]([H:15])[CH:7]([H:16])[CH:8]1[H:17])([H:12])[H:18])([H:9])([H:10])[H:11]

>  <mol_properties>  (2) 
{"1": {"label": "acceptor", "atom_type": "Cs"}, "17": {"label": "a_hydrogen", "atom_type": "H0"}}

>  <level_of_theory>  (2) 
wb97xd/def2tzvp

>  <lot_method>  (2) 
wb97xd

>  <lot_basis>  (2) 
def2tzvp

>  <spin_multiplicity>  (2) 
1.0

>  <optical_isomers>  (2) 
1.0

>  <modes>  (2) 
IdealGasTranslation(mass=(106.078, 'amu')),         NonlinearRotor(             inertia = ([110.416, 341.874, 411.865

>  <frequency_value>  (2) 
unknown

>  <frequency_units>  (2) 
unknown

>  <frequency_list>  (2) 
unknown

>  <arkane_path>  (2) 
/home/calvin/Dropbox/PersonalFolders/Calvin/HAb_Converged/rxn_570/output/Species/rxn_570_CCc1ccccc1/arkane/output.py

>  <path_exists>  (2) 
True

>  <E0_value>  (2) 
-815817.9037561571

>  <E0_units>  (2) 
kJ/mol

>  <thermo_class>  (2) 
NASA

>  <Cp0_value>  (2) 
33.257888

>  <Cp0_units>  (2) 
J/(mol*K)

>  <CpInf_value>  (2) 
432.352544

>  <CpInf_units>  (2) 
J/(mol*K)

>  <Tmin_value>  (2) 
10.0

>  <Tmin_units>  (2) 
K

>  <Tmax_value>  (2) 
3000.0

>  <Tmax_units>  (2) 
K

>  <polynomials>  (2) 
[{"name": "polynomial1", "class": "NASAPolynomial", "Tmin_value": 10.0, "Tmin_units": "K", "Tmax_value": 423.64221286564066, "Tmax_units": "K", "coeffs": [3.9313576428136847, 0.00433548241275686, 0.00021072402908531117, -3.936647014575837e-07, 2.39299197946727e-10, -98120227.55481465, 12.959903756557797]}, {"name": "polynomial2", "class": "NASAPolynomial", "Tmin_value": 423.64221286564066, "Tmin_units": "K", "Tmax_value": 3000.0, "Tmax_units": "K", "coeffs": [-3.831744087351853, 0.07763434183173747, -4.880767835098557e-05, 1.474976136685413e-08, -1.7152455638411797e-12, -98119569.80107659, 43.744896821921714]}]

>  <H298_value>  (2) 
-194980.06834128423

>  <H298_units>  (2) 
kcal/mol

>  <S298_value>  (2) 
85.45971865285561

>  <S298_units>  (2) 
cal/(mol*K)

>  <Cp_T_value_list>  (2) 
[30.814700172190967, 40.3659544276965, 48.72635221695798, 55.92346742650604, 67.34270920138786, 75.5723408499977, 87.237384341353, 92.9225471908414, 96.08425401549664]

>  <Cp_T_units>  (2) 
cal/(mol*K)

>  <T_list>  (2) 
[300.0, 400.0, 500.0, 600.0, 800.0, 1000.0, 1500.0, 2000.0, 2400.0]

>  <T_units>  (2) 
K

>  <yaml_path>  (2) 
/home/calvin/Dropbox/PersonalFolders/Calvin/HAb_Converged/rxn_570/output/Species/rxn_570_CCc1ccccc1/rxn_570_CCc1ccccc1.yml

>  <frequencies_cm1>  (2) 
[34.3349266, 135.74656580575999, 222.50405833863996, 311.72679860139993, 360.38625657892, 413.90067317767995, 501.90109005348, 566.8971061072799, 633.36952400488, 715.5124024027199, 770.2697433443999, 787.05265546648, 789.67584385872, 862.2324107498398, 927.82585452648, 978.1333889808, 979.96687406124, 993.1308849196799, 1016.5747728021599, 1052.53030793768, 1054.54920162176, 1082.5459007714, 1116.4276063402797, 1174.3094256025597, 1199.89581290488, 1226.84186330056, 1261.7192817408397, 1329.56509670244, 1349.48622111576, 1353.9360276031198, 1398.4615604179999, 1477.6173002016399, 1482.14951051284, 1484.5254874335599, 1494.4826161475598, 1529.46990635296, 1639.9047642691999, 1662.1469297206797, 3013.28809429856, 3020.8349111652396, 3058.19131130604, 3090.8506934879597, 3092.1760216547195, 3142.7239005952397, 3143.62347567216, 3158.5385677872, 3168.2416180443593, 3180.7601322827195]

>  <ZPE_kJmol>  (2) 
409.36782000073936

>  <E_elec_kJmol>  (2) 
-816227.2715761579

>  <E0_minus_Eelec_plus_ZPE_kJmol>  (2) 
0.0

>  <rxn>  (2) 
rxn_570

>  <species_type>  (2) 
p0

>  <species_folder>  (2) 
rxn_570_CCc1ccccc1

>  <frequencies_cm1_list>  (2) 
[34.3349266, 135.74656580575999, 222.50405833863996, 311.72679860139993, 360.38625657892, 413.90067317767995, 501.90109005348, 566.8971061072799, 633.36952400488, 715.5124024027199, 770.2697433443999, 787.05265546648, 789.67584385872, 862.2324107498398, 927.82585452648, 978.1333889808, 979.96687406124, 993.1308849196799, 1016.5747728021599, 1052.53030793768, 1054.54920162176, 1082.5459007714, 1116.4276063402797, 1174.3094256025597, 1199.89581290488, 1226.84186330056, 1261.7192817408397, 1329.56509670244, 1349.48622111576, 1353.9360276031198, 1398.4615604179999, 1477.6173002016399, 1482.14951051284, 1484.5254874335599, 1494.4826161475598, 1529.46990635296, 1639.9047642691999, 1662.1469297206797, 3013.28809429856, 3020.8349111652396, 3058.19131130604, 3090.8506934879597, 3092.1760216547195, 3142.7239005952397, 3143.62347567216, 3158.5385677872, 3168.2416180443593, 3180.7601322827195]

>  <E0_kJmol>  (2) 
-815818

>  <H298_kJmol>  (2) 
-815797

$$$$

     RDKit          3D

 39 40  0  0  0  0  0  0  0  0999 V2000
   -0.5555   -1.3750    2.6738 C   0  0  0  0  0  0  0  0  0  1  0  0
   -0.9239   -0.3519    1.6270 C   0  0  0  0  0  0  0  0  0  2  0  0
   -1.6135   -0.7918    0.4010 C   0  0  0  0  0  0  0  0  0  3  0  0
   -2.2740    0.1477   -0.3981 C   0  0  0  0  0  0  0  0  0  4  0  0
   -2.8343   -0.2059   -1.6116 C   0  0  0  0  0  0  0  0  0  5  0  0
   -2.7531   -1.5167   -2.0630 C   0  0  0  0  0  0  0  0  0  6  0  0
   -2.1163   -2.4649   -1.2773 C   0  0  0  0  0  0  0  0  0  7  0  0
   -1.5554   -2.1087   -0.0610 C   0  0  0  0  0  0  0  0  0  8  0  0
    0.1479   -2.1147    2.2845 H   0  0  0  0  0  0  0  0  0  9  0  0
   -1.4325   -1.9150    3.0429 H   0  0  0  0  0  0  0  0  0 10  0  0
   -0.0753   -0.8913    3.5251 H   0  0  0  0  0  0  0  0  0 11  0  0
   -1.3706    0.5489    2.0481 H   0  0  0  0  0  0  0  0  0 12  0  0
   -2.3383    1.1750   -0.0566 H   0  0  0  0  0  0  0  0  0 13  0  0
   -3.3369    0.5437   -2.2104 H   0  0  0  0  0  0  0  0  0 14  0  0
   -3.1878   -1.7961   -3.0141 H   0  0  0  0  0  0  0  0  0 15  0  0
   -2.0538   -3.4924   -1.6141 H   0  0  0  0  0  0  0  0  0 16  0  0
   -1.0606   -2.8664    0.5332 H   0  0  0  0  0  0  0  0  0 17  0  0
    1.3844   -0.2544   -1.6388 C   0  0  0  0  0  0  0  0  0 18  0  0
    1.8366   -0.6877   -0.2415 C   0  0  0  0  0  0  0  0  0 19  0  0
    1.4369    0.4659    0.6593 C   0  0  0  0  0  3  0  0  0 20  0  0
    2.3451    0.8944    1.7930 C   0  0  0  0  0  0  0  0  0 21  0  0
    3.0589    2.1292    1.2250 C   0  0  0  0  0  0  0  0  0 22  0  0
    1.9600    2.8358    0.4254 C   0  0  0  0  0  0  0  0  0 23  0  0
    1.1626    1.6921   -0.2219 C   0  0  0  0  0  0  0  0  0 24  0  0
    1.6167    1.2563   -1.6242 C   0  0  0  0  0  0  0  0  0 25  0  0
    1.9226   -0.7647   -2.4385 H   0  0  0  0  0  0  0  0  0 26  0  0
    0.3196   -0.4674   -1.7653 H   0  0  0  0  0  0  0  0  0 27  0  0
    1.4012   -1.6412    0.0681 H   0  0  0  0  0  0  0  0  0 28  0  0
    2.9266   -0.8140   -0.2174 H   0  0  0  0  0  0  0  0  0 29  0  0
    0.2185    0.0921    1.1940 H   0  0  0  0  0  0  0  0  0 30  0  0
    1.7575    1.1859    2.6709 H   0  0  0  0  0  0  0  0  0 31  0  0
    3.0289    0.1043    2.1080 H   0  0  0  0  0  0  0  0  0 32  0  0
    3.8618    1.8098    0.5540 H   0  0  0  0  0  0  0  0  0 33  0  0
    3.5067    2.7617    1.9928 H   0  0  0  0  0  0  0  0  0 34  0  0
    1.3195    3.4002    1.1084 H   0  0  0  0  0  0  0  0  0 35  0  0
    2.3515    3.5406   -0.3102 H   0  0  0  0  0  0  0  0  0 36  0  0
    0.0950    1.9277   -0.2541 H   0  0  0  0  0  0  0  0  0 37  0  0
    1.0891    1.7831   -2.4205 H   0  0  0  0  0  0  0  0  0 38  0  0
    2.6856    1.4649   -1.7436 H   0  0  0  0  0  0  0  0  0 39  0  0
  1 11  1  0
  1 10  1  0
  1  9  1  0
  1  2  1  0
  2 12  1  0
  2  3  1  0
  2 30  1  0
  3  4  1  0
  3  8  1  0
  4  5  1  0
  4 13  1  0
  5 14  1  0
  5  6  1  0
  6  7  1  0
  6 15  1  0
  7  8  1  0
  7 16  1  0
  8 17  1  0
 18 19  1  0
 18 25  1  0
 18 27  1  0
 18 26  1  0
 19 28  1  0
 19 29  1  0
 19 20  1  0
 20 24  1  0
 20 21  1  0
 21 32  1  0
 21 31  1  0
 21 22  1  0
 22 33  1  0
 22 34  1  0
 22 23  1  0
 23 24  1  0
 23 35  1  0
 23 36  1  0
 24 25  1  0
 24 37  1  0
 25 38  1  0
 25 39  1  0
M  RAD  1  20   2
M  END
>  <rmg_smiles>  (3) 
C1C[C]2CCCC2C1.CCC1[CH][CH][CH][CH][CH]1

>  <rmg_adjacency_list>  (3) 
multiplicity 2
1  C u0 p0 c0 {2,S} {3,S} {10,S} {17,S}
2  C u0 p0 c0 {1,S} {5,S} {22,S} {23,S}
3  C u0 p0 c0 {1,S} {4,S} {24,S} {25,S}
4  C u0 p0 c0 {3,S} {6,S} {18,S} {19,S}
5  C u0 p0 c0 {2,S} {7,S} {20,S} {21,S}
6  C u0 p0 c0 {4,S} {10,S} {27,S} {28,S}
7  C u0 p0 c0 {5,S} {10,S} {30,S} {31,S}
8  C u0 p0 c0 {9,S} {11,S} {26,S} {29,S}
9  C u0 p0 c0 {8,S} {32,S} {33,S} {34,S}
10 C u1 p0 c0 {1,S} {6,S} {7,S}
11 C u0 p0 c0 {8,S} {12,S} {13,S}
12 C u0 p0 c0 {11,S} {14,S} {35,S}
13 C u0 p0 c0 {11,S} {16,S} {39,S}
14 C u0 p0 c0 {12,S} {15,S} {36,S}
15 C u0 p0 c0 {14,S} {16,S} {37,S}
16 C u0 p0 c0 {13,S} {15,S} {38,S}
17 H u0 p0 c0 {1,S}
18 H u0 p0 c0 {4,S}
19 H u0 p0 c0 {4,S}
20 H u0 p0 c0 {5,S}
21 H u0 p0 c0 {5,S}
22 H u0 p0 c0 {2,S}
23 H u0 p0 c0 {2,S}
24 H u0 p0 c0 {3,S}
25 H u0 p0 c0 {3,S}
26 H u0 p0 c0 {8,S}
27 H u0 p0 c0 {6,S}
28 H u0 p0 c0 {6,S}
29 H u0 p0 c0 {8,S}
30 H u0 p0 c0 {7,S}
31 H u0 p0 c0 {7,S}
32 H u0 p0 c0 {9,S}
33 H u0 p0 c0 {9,S}
34 H u0 p0 c0 {9,S}
35 H u0 p0 c0 {12,S}
36 H u0 p0 c0 {14,S}
37 H u0 p0 c0 {15,S}
38 H u0 p0 c0 {16,S}
39 H u0 p0 c0 {13,S}


>  <multiplicity>  (3) 
2

>  <reaction>  (3) 
rxn_570

>  <type>  (3) 
ts

>  <role_mapnums>  (3) 
{"*2": 30, "*1": 20, "*3": 2, "*0": 3, "*4": 24}

>  <role_mapidx>  (3) 
{"*2": 29, "*1": 19, "*3": 1, "*0": 2, "*4": 23}

>  <ordered_mapped_smiles>  (3) 
[C:1]([C:2]([CH:3]1[CH:4]([H:13])[CH:5]([H:14])[CH:6]([H:15])[CH:7]([H:16])[CH:8]1[H:17])([H:12])[H:30])([H:9])([H:10])[H:11].[C:18]1([H:26])([H:27])[C:19]([H:28])([H:29])[C:20]2[C:21]([H:31])([H:32])[C:22]([H:33])([H:34])[C:23]([H:35])([H:36])[C:24]2([H:37])[C:25]1([H:38])[H:39]

>  <mol_properties>  (3) 
{"1": {"label": "*3", "atom_type": "Cs"}, "2": {"label": "*0", "atom_type": "Cs"}, "19": {"label": "*1", "atom_type": "Cs"}, "23": {"label": "*4", "atom_type": "Cs"}, "29": {"label": "*2", "atom_type": "H0"}}

>  <level_of_theory>  (3) 
wb97xd/def2tzvp

>  <lot_method>  (3) 
wb97xd

>  <lot_basis>  (3) 
def2tzvp

>  <spin_multiplicity>  (3) 
2.0

>  <optical_isomers>  (3) 
2.0

>  <modes>  (3) 
IdealGasTranslation(mass=(215.18, 'amu')),         NonlinearRotor(             inertia = ([582.348, 1381.72, 1585.6

>  <frequency_value>  (3) 
-1621.08

>  <frequency_units>  (3) 
cm^-1

>  <frequency_list>  (3) 
unknown

>  <arkane_path>  (3) 
/home/calvin/Dropbox/PersonalFolders/Calvin/HAb_Converged/rxn_570/output/rxns/TS0/arkane/output.py

>  <path_exists>  (3) 
True

>  <E0_value>  (3) 
-1636150.0

>  <E0_units>  (3) 
kJ/mol

>  <thermo_class>  (3) 
unknown

>  <Cp0_value>  (3) 
unknown

>  <Cp0_units>  (3) 
unknown

>  <CpInf_value>  (3) 
unknown

>  <CpInf_units>  (3) 
unknown

>  <Tmin_value>  (3) 
unknown

>  <Tmin_units>  (3) 
unknown

>  <Tmax_value>  (3) 
unknown

>  <Tmax_units>  (3) 
unknown

>  <polynomials>  (3) 
unknown

>  <H298_value>  (3) 
unknown

>  <H298_units>  (3) 
unknown

>  <S298_value>  (3) 
unknown

>  <S298_units>  (3) 
unknown

>  <Cp_T_value_list>  (3) 
unknown

>  <Cp_T_units>  (3) 
unknown

>  <T_list>  (3) 
unknown

>  <T_units>  (3) 
unknown

>  <yaml_path>  (3) 
unknown

>  <frequencies_cm1>  (3) 
unknown

>  <ZPE_kJmol>  (3) 
unknown

>  <E_elec_kJmol>  (3) 
unknown

>  <E0_minus_Eelec_plus_ZPE_kJmol>  (3) 
unknown

>  <rxn>  (3) 
unknown

>  <species_type>  (3) 
unknown

>  <species_folder>  (3) 
unknown

>  <frequencies_cm1_list>  (3) 
[]

>  <ts_imag_freq_cm1>  (3) 
-1640.7727

>  <ts_freq_out_path>  (3) 
/home/calvin/Dropbox/PersonalFolders/Calvin/HAb_Converged/rxn_570/output/rxns/TS0/geometry/freq.out

>  <E0_kJmol>  (3) 
-1.63615e+06

>  <H298_kJmol>  (3) 
unknown

$$$$

     RDKit          3D

 21 22  0  0  0  0  0  0  0  0999 V2000
   -2.2298    0.3537    0.0543 C   0  0  0  0  0  0  0  0  0  1  0  0
   -1.1556    1.4284   -0.1994 C   0  0  0  0  0  0  0  0  0  2  0  0
    0.0609    0.6285   -0.5240 C   0  0  0  0  0  3  0  0  0  3  0  0
    1.4977    1.0080   -0.3953 C   0  0  0  0  0  0  0  0  0  4  0  0
    2.2141   -0.3503   -0.2737 C   0  0  0  0  0  0  0  0  0  5  0  0
    1.1785   -1.2652    0.3956 C   0  0  0  0  0  0  0  0  0  6  0  0
   -0.1494   -0.8311   -0.2398 C   0  0  0  0  0  0  0  0  0  7  0  0
   -1.4409   -0.8502    0.5889 C   0  0  0  0  0  0  0  0  0  8  0  0
   -2.7102    0.0864   -0.8907 H   0  0  0  0  0  0  0  0  0  9  0  0
   -3.0138    0.6865    0.7353 H   0  0  0  0  0  0  0  0  0 10  0  0
   -1.4459    2.1368   -0.9815 H   0  0  0  0  0  0  0  0  0 11  0  0
   -0.9857    2.0292    0.7068 H   0  0  0  0  0  0  0  0  0 12  0  0
    1.6525    1.6113    0.5121 H   0  0  0  0  0  0  0  0  0 13  0  0
    1.8766    1.6104   -1.2268 H   0  0  0  0  0  0  0  0  0 14  0  0
    3.1516   -0.2903    0.2803 H   0  0  0  0  0  0  0  0  0 15  0  0
    2.4485   -0.7309   -1.2715 H   0  0  0  0  0  0  0  0  0 16  0  0
    1.1473   -1.0612    1.4707 H   0  0  0  0  0  0  0  0  0 17  0  0
    1.4017   -2.3251    0.2670 H   0  0  0  0  0  0  0  0  0 18  0  0
   -0.3078   -1.3981   -1.1697 H   0  0  0  0  0  0  0  0  0 19  0  0
   -1.1949   -0.6901    1.6436 H   0  0  0  0  0  0  0  0  0 20  0  0
   -1.9953   -1.7869    0.5178 H   0  0  0  0  0  0  0  0  0 21  0  0
  1  8  1  0
  1 10  1  0
  1  9  1  0
  1  2  1  0
  2 12  1  0
  2 11  1  0
  2  3  1  0
  3  4  1  0
  3  7  1  0
  4 14  1  0
  4  5  1  0
  4 13  1  0
  5 16  1  0
  5 15  1  0
  5  6  1  0
  6  7  1  0
  6 17  1  0
  6 18  1  0
  7 19  1  0
  7  8  1  0
  8 20  1  0
  8 21  1  0
M  RAD  1   3   2
M  END
>  <rmg_smiles>  (4) 
C1C[C]2CCCC2C1

>  <rmg_adjacency_list>  (4) 
multiplicity 2
1  C u0 p0 c0 {2,S} {3,S} {8,S} {9,S}
2  C u0 p0 c0 {1,S} {5,S} {14,S} {15,S}
3  C u0 p0 c0 {1,S} {4,S} {16,S} {17,S}
4  C u0 p0 c0 {3,S} {6,S} {10,S} {11,S}
5  C u0 p0 c0 {2,S} {7,S} {12,S} {13,S}
6  C u0 p0 c0 {4,S} {8,S} {18,S} {19,S}
7  C u0 p0 c0 {5,S} {8,S} {20,S} {21,S}
8  C u1 p0 c0 {1,S} {6,S} {7,S}
9  H u0 p0 c0 {1,S}
10 H u0 p0 c0 {4,S}
11 H u0 p0 c0 {4,S}
12 H u0 p0 c0 {5,S}
13 H u0 p0 c0 {5,S}
14 H u0 p0 c0 {2,S}
15 H u0 p0 c0 {2,S}
16 H u0 p0 c0 {3,S}
17 H u0 p0 c0 {3,S}
18 H u0 p0 c0 {6,S}
19 H u0 p0 c0 {6,S}
20 H u0 p0 c0 {7,S}
21 H u0 p0 c0 {7,S}


>  <multiplicity>  (4) 
2

>  <reaction>  (4) 
rxn_570

>  <type>  (4) 
r1

>  <role_mapnums>  (4) 
{}

>  <role_mapidx>  (4) 
{}

>  <ordered_mapped_smiles>  (4) 
[C:1]1([H:9])([H:10])[C:2]([H:11])([H:12])[C:3]2[C:4]([H:13])([H:14])[C:5]([H:15])([H:16])[C:6]([H:17])([H:18])[C:7]2([H:19])[C:8]1([H:20])[H:21]

>  <level_of_theory>  (4) 
wb97xd/def2tzvp

>  <lot_method>  (4) 
wb97xd

>  <lot_basis>  (4) 
def2tzvp

>  <spin_multiplicity>  (4) 
2.0

>  <optical_isomers>  (4) 
1.0

>  <modes>  (4) 
IdealGasTranslation(mass=(109.102, 'amu')),         NonlinearRotor(             inertia = ([128.096, 276.317, 371.4

>  <frequency_value>  (4) 
unknown

>  <frequency_units>  (4) 
unknown

>  <frequency_list>  (4) 
unknown

>  <arkane_path>  (4) 
/home/calvin/Dropbox/PersonalFolders/Calvin/HAb_Converged/rxn_570/output/Species/rxn_570_C1C[C]2CCCC2C1/arkane/output.py

>  <path_exists>  (4) 
True

>  <E0_value>  (4) 
-820358.0894855347

>  <E0_units>  (4) 
kJ/mol

>  <thermo_class>  (4) 
NASA

>  <Cp0_value>  (4) 
33.257888

>  <Cp0_units>  (4) 
J/(mol*K)

>  <CpInf_value>  (4) 
507.182792

>  <CpInf_units>  (4) 
J/(mol*K)

>  <Tmin_value>  (4) 
10.0

>  <Tmin_units>  (4) 
K

>  <Tmax_value>  (4) 
3000.0

>  <Tmax_units>  (4) 
K

>  <polynomials>  (4) 
[{"name": "polynomial1", "class": "NASAPolynomial", "Tmin_value": 10.0, "Tmin_units": "K", "Tmax_value": 579.35086050788, "Tmax_units": "K", "coeffs": [4.0168197431565185, -0.0023297630194267305, 0.00023712396292664435, -3.756310989706859e-07, 1.906783516451148e-10, -98666285.54334764, 12.540459604510119]}, {"name": "polynomial2", "class": "NASAPolynomial", "Tmin_value": 579.35086050788, "Tmin_units": "K", "Tmax_value": 3000.0, "Tmax_units": "K", "coeffs": [-7.178507488411498, 0.09308274536709106, -5.6815413242134675e-05, 1.6584634856092287e-08, -1.8610860274994795e-12, -98665292.38247325, 57.816503635904304]}]

>  <H298_value>  (4) 
-196065.24781156375

>  <H298_units>  (4) 
kcal/mol

>  <S298_value>  (4) 
84.10171794049678

>  <S298_units>  (4) 
cal/(mol*K)

>  <Cp_T_value_list>  (4) 
[31.91752213710447, 43.45170902327354, 53.84621888221555, 62.7136048060052, 76.81518220931488, 87.06423337223478, 101.67010562403804, 108.55122006851184, 112.24323691068717]

>  <Cp_T_units>  (4) 
cal/(mol*K)

>  <T_list>  (4) 
[300.0, 400.0, 500.0, 600.0, 800.0, 1000.0, 1500.0, 2000.0, 2400.0]

>  <T_units>  (4) 
K

>  <yaml_path>  (4) 
/home/calvin/Dropbox/PersonalFolders/Calvin/HAb_Converged/rxn_570/output/Species/rxn_570_C1C[C]2CCCC2C1/rxn_570_C1CC2CCCC2C1.yml

>  <frequencies_cm1>  (4) 
[110.77134019692, 171.11154020376, 233.23028940848, 257.58748633851997, 365.8043079964, 501.11825372699997, 529.7535825114, 570.2001260461999, 607.59772809892, 733.54510585304, 827.3824602508398, 846.9465014275199, 869.77922761652, 898.1261430174801, 911.25581894932, 918.2326760344399, 937.4465009598, 970.46983336368, 989.62872240648, 1011.43140079748, 1048.2865110099199, 1056.8633756745999, 1096.30733935268, 1147.9745369003601, 1154.28529640944, 1200.28723106812, 1211.91303721488, 1214.6529643575598, 1226.3474403575199, 1232.83674148492, 1281.2009190936799, 1291.3846583232398, 1310.70835501372, 1325.28009786276, 1330.9453607517598, 1338.90419673764, 1347.22011596016, 1364.11976683268, 1457.1193490214398, 1464.1923439010397, 1476.69712416876, 1480.9752560231198, 1491.6808861369998, 1495.08691085572, 2931.77697855016, 2941.8851809412, 2944.8723195554, 3007.1146744958796, 3011.12499392276, 3011.5370130419597, 3012.60139576656, 3027.36541420456, 3028.16198450168, 3070.6411556912, 3073.4016837898394, 3079.81544807872, 3080.9416336711997]

>  <ZPE_kJmol>  (4) 
499.60810598606855

>  <E_elec_kJmol>  (4) 
-820857.6975915207

>  <E0_minus_Eelec_plus_ZPE_kJmol>  (4) 
0.0

>  <rxn>  (4) 
rxn_570

>  <species_type>  (4) 
p1

>  <species_folder>  (4) 
rxn_570_C1C[C]2CCCC2C1

>  <frequencies_cm1_list>  (4) 
[110.77134019692, 171.11154020376, 233.23028940848, 257.58748633851997, 365.8043079964, 501.11825372699997, 529.7535825114, 570.2001260461999, 607.59772809892, 733.54510585304, 827.3824602508398, 846.9465014275199, 869.77922761652, 898.1261430174801, 911.25581894932, 918.2326760344399, 937.4465009598, 970.46983336368, 989.62872240648, 1011.43140079748, 1048.2865110099199, 1056.8633756745999, 1096.30733935268, 1147.9745369003601, 1154.28529640944, 1200.28723106812, 1211.91303721488, 1214.6529643575598, 1226.3474403575199, 1232.83674148492, 1281.2009190936799, 1291.3846583232398, 1310.70835501372, 1325.28009786276, 1330.9453607517598, 1338.90419673764, 1347.22011596016, 1364.11976683268, 1457.1193490214398, 1464.1923439010397, 1476.69712416876, 1480.9752560231198, 1491.6808861369998, 1495.08691085572, 2931.77697855016, 2941.8851809412, 2944.8723195554, 3007.1146744958796, 3011.12499392276, 3011.5370130419597, 3012.60139576656, 3027.36541420456, 3028.16198450168, 3070.6411556912, 3073.4016837898394, 3079.81544807872, 3080.9416336711997]

>  <E0_kJmol>  (4) 
-820358

>  <H298_kJmol>  (4) 
-820337

$$$$

     RDKit          3D

 17 17  0  0  0  0  0  0  0  0999 V2000
    2.7069    0.2860   -0.1817 C   0  0  0  0  0  0  0  0  0  1  0  0
    1.6304   -0.7245    0.0085 C   0  0  0  0  0  0  0  0  0  2  0  0
    1.4786   -1.8800   -0.7837 C   0  0  0  0  0  0  0  0  0  3  0  0
    0.4231   -2.7891   -0.5312 C   0  0  0  0  0  3  0  0  0  4  0  0
    0.2582   -3.9235   -1.2940 C   0  0  0  0  0  0  0  0  0  5  0  0
    1.1348   -4.2030   -2.3401 C   0  0  0  0  0  0  0  0  0  6  0  0
    2.1804   -3.3260   -2.6093 C   0  0  0  0  0  0  0  0  0  7  0  0
    2.3549   -2.1866   -1.8513 C   0  0  0  0  0  0  0  0  0  8  0  0
    2.6698    0.7343   -1.1808 H   0  0  0  0  0  0  0  0  0  9  0  0
    3.7029   -0.1584   -0.0766 H   0  0  0  0  0  0  0  0  0 10  0  0
    2.6250    1.0917    0.5463 H   0  0  0  0  0  0  0  0  0 11  0  0
    0.9136   -0.5677    0.8059 H   0  0  0  0  0  0  0  0  0 12  0  0
   -0.2629   -2.5783    0.2811 H   0  0  0  0  0  0  0  0  0 13  0  0
   -0.5582   -4.6017   -1.0785 H   0  0  0  0  0  0  0  0  0 14  0  0
    1.0033   -5.0952   -2.9384 H   0  0  0  0  0  0  0  0  0 15  0  0
    2.8650   -3.5382   -3.4214 H   0  0  0  0  0  0  0  0  0 16  0  0
    3.1750   -1.5169   -2.0772 H   0  0  0  0  0  0  0  0  0 17  0  0
  1 10  1  0
  1 11  1  0
  1  9  1  0
  1  2  1  0
  2 12  1  0
  2  3  1  0
  3  4  1  0
  3  8  1  0
  4  5  1  0
  4 13  1  0
  5 14  1  0
  5  6  1  0
  6 15  1  0
  6  7  1  0
  7  8  1  0
  7 16  1  0
  8 17  1  0
M  RAD  1   4   2
M  END
>  <rmg_smiles>  (5) 
C[CH]C1[CH][CH][CH][CH][CH]1

>  <rmg_adjacency_list>  (5) 
multiplicity 2
1  C u0 p0 c0 {3,S} {9,S} {10,S} {11,S}
2  C u0 p0 c0 {3,S} {4,S} {5,S}
3  C u0 p0 c0 {1,S} {2,S} {12,S}
4  C u1 p0 c0 {2,S} {6,S} {13,S}
5  C u0 p0 c0 {2,S} {8,S} {17,S}
6  C u0 p0 c0 {4,S} {7,S} {14,S}
7  C u0 p0 c0 {6,S} {8,S} {15,S}
8  C u0 p0 c0 {5,S} {7,S} {16,S}
9  H u0 p0 c0 {1,S}
10 H u0 p0 c0 {1,S}
11 H u0 p0 c0 {1,S}
12 H u0 p0 c0 {3,S}
13 H u0 p0 c0 {4,S}
14 H u0 p0 c0 {6,S}
15 H u0 p0 c0 {7,S}
16 H u0 p0 c0 {8,S}
17 H u0 p0 c0 {5,S}


>  <multiplicity>  (5) 
2

>  <reaction>  (5) 
rxn_570

>  <type>  (5) 
r2

>  <role_mapnums>  (5) 
{}

>  <role_mapidx>  (5) 
{}

>  <ordered_mapped_smiles>  (5) 
[C:1]([CH:2]([CH:3]1[C:4]([H:13])[CH:5]([H:14])[CH:6]([H:15])[CH:7]([H:16])[CH:8]1[H:17])[H:12])([H:9])([H:10])[H:11]

>  <level_of_theory>  (5) 
wb97xd/def2tzvp

>  <lot_method>  (5) 
wb97xd

>  <lot_basis>  (5) 
def2tzvp

>  <spin_multiplicity>  (5) 
2.0

>  <optical_isomers>  (5) 
1.0

>  <modes>  (5) 
IdealGasTranslation(mass=(105.07, 'amu')),         NonlinearRotor(             inertia = ([100.906, 335.03, 432.828

>  <frequency_value>  (5) 
unknown

>  <frequency_units>  (5) 
unknown

>  <frequency_list>  (5) 
unknown

>  <arkane_path>  (5) 
/home/calvin/Dropbox/PersonalFolders/Calvin/HAb_Converged/rxn_570/output/Species/rxn_570_C[CH]c1ccccc1/arkane/output.py

>  <path_exists>  (5) 
True

>  <E0_value>  (5) 
-814145.4390471868

>  <E0_units>  (5) 
kJ/mol

>  <thermo_class>  (5) 
NASA

>  <Cp0_value>  (5) 
33.257888

>  <Cp0_units>  (5) 
J/(mol*K)

>  <CpInf_value>  (5) 
407.409128

>  <CpInf_units>  (5) 
J/(mol*K)

>  <Tmin_value>  (5) 
10.0

>  <Tmin_units>  (5) 
K

>  <Tmax_value>  (5) 
3000.0

>  <Tmax_units>  (5) 
K

>  <polynomials>  (5) 
[{"name": "polynomial1", "class": "NASAPolynomial", "Tmin_value": 10.0, "Tmin_units": "K", "Tmax_value": 500.0181965945725, "Tmax_units": "K", "coeffs": [3.899986948526094, 0.0061904905300886525, 0.00020706851194563026, -3.977105955988957e-07, 2.4150499526027994e-10, -97919075.07363199, 12.718849532292747]}, {"name": "polynomial2", "class": "NASAPolynomial", "Tmin_value": 500.0181965945725, "Tmin_units": "K", "Tmax_value": 3000.0, "Tmax_units": "K", "coeffs": [-1.970517894513406, 0.07180867834424715, -4.574442536416197e-05, 1.397905514411292e-08, -1.6399820111971568e-12, -97918721.21698426, 34.639664550558976]}]

>  <H298_value>  (5) 
-194580.26959244045

>  <H298_units>  (5) 
kcal/mol

>  <S298_value>  (5) 
85.3392210607043

>  <S298_units>  (5) 
cal/(mol*K)

>  <Cp_T_value_list>  (5) 
[31.02288591619177, 40.21349792515304, 47.9763276039249, 54.55603245481067, 64.9529019753296, 72.39951333986244, 82.85547162555633, 87.95746847782826, 90.85152645234143]

>  <Cp_T_units>  (5) 
cal/(mol*K)

>  <T_list>  (5) 
[300.0, 400.0, 500.0, 600.0, 800.0, 1000.0, 1500.0, 2000.0, 2400.0]

>  <T_units>  (5) 
K

>  <yaml_path>  (5) 
/home/calvin/Dropbox/PersonalFolders/Calvin/HAb_Converged/rxn_570/output/Species/rxn_570_C[CH]c1ccccc1/rxn_570_CCHc1ccccc1.yml

>  <frequencies_cm1>  (5) 
[105.45629355923998, 120.83147369072, 216.25510169744, 238.46979920763997, 411.38735655056, 430.68358529975995, 477.9078433454, 558.86273328288, 625.17721051812, 625.35575213644, 690.24189642512, 769.39763620876, 797.72395065376, 833.5833479948, 901.31929119128, 970.7101778498799, 980.6055036959999, 988.6055415938, 1000.11460899012, 1025.94134077864, 1044.8942202618398, 1074.80680831576, 1128.88431771076, 1167.6621838128, 1182.4262022508, 1237.72603503276, 1316.38048488804, 1342.4681621187199, 1389.5344795019998, 1422.2556645518, 1466.88420214648, 1475.4885347524398, 1484.7520979491198, 1503.6912434616797, 1594.2805138031197, 1610.7269436445201, 2982.0364441072397, 3025.80660853692, 3101.1374374973198, 3147.482721422, 3152.804635045, 3154.61751916948, 3165.4673559750795, 3173.5635316673593, 3183.0811733208798]

>  <ZPE_kJmol>  (5) 
372.6218456560276

>  <E_elec_kJmol>  (5) 
-814518.0608928428

>  <E0_minus_Eelec_plus_ZPE_kJmol>  (5) 
0.0

>  <rxn>  (5) 
rxn_570

>  <species_type>  (5) 
r0

>  <species_folder>  (5) 
rxn_570_C[CH]c1ccccc1

>  <frequencies_cm1_list>  (5) 
[105.45629355923998, 120.83147369072, 216.25510169744, 238.46979920763997, 411.38735655056, 430.68358529975995, 477.9078433454, 558.86273328288, 625.17721051812, 625.35575213644, 690.24189642512, 769.39763620876, 797.72395065376, 833.5833479948, 901.31929119128, 970.7101778498799, 980.6055036959999, 988.6055415938, 1000.11460899012, 1025.94134077864, 1044.8942202618398, 1074.80680831576, 1128.88431771076, 1167.6621838128, 1182.4262022508, 1237.72603503276, 1316.38048488804, 1342.4681621187199, 1389.5344795019998, 1422.2556645518, 1466.88420214648, 1475.4885347524398, 1484.7520979491198, 1503.6912434616797, 1594.2805138031197, 1610.7269436445201, 2982.0364441072397, 3025.80660853692, 3101.1374374973198, 3147.482721422, 3152.804635045, 3154.61751916948, 3165.4673559750795, 3173.5635316673593, 3183.0811733208798]

>  <E0_kJmol>  (5) 
-814145

>  <H298_kJmol>  (5) 
-814124

$$$$
