
     RDKit          3D

  4  3  0  0  0  0  0  0  0  0999 V2000
    0.5586   -0.2296    0.3512 O   0  0  0  0  0  0  0  0  0  1  0  0
   -0.5184    0.2008   -0.4151 O   0  0  0  0  0  0  0  0  0  2  0  0
    0.1412   -0.7959    1.0105 H   0  0  0  0  0  0  0  0  0  3  0  0
   -0.7342    1.0700   -0.0692 H   0  0  0  0  0  0  0  0  0  4  0  0
  1  2  1  0
  1  3  1  0
  2  4  1  0
M  END
>  <rmg_smiles>  (1) 
OO

>  <rmg_adjacency_list>  (1) 
1 O u0 p2 c0 {2,S} {3,S}
2 O u0 p2 c0 {1,S} {4,S}
3 H u0 p0 c0 {1,S}
4 H u0 p0 c0 {2,S}


>  <multiplicity>  (1) 
1

>  <reaction>  (1) 
rxn_399

>  <type>  (1) 
r1h

>  <role_mapnums>  (1) 
{"r1h_a": 2, "r1h_h": 4}

>  <role_mapidx>  (1) 
{"r1h_a": 1, "r1h_h": 3}

>  <ordered_mapped_smiles>  (1) 
[O:1]([O:2][H:4])[H:3]

>  <mol_properties>  (1) 
{"1": {"label": "donator", "atom_type": "O2s"}, "3": {"label": "d_hydrogen", "atom_type": "H0"}}

>  <level_of_theory>  (1) 
wb97xd/def2tzvp

>  <lot_method>  (1) 
wb97xd

>  <lot_basis>  (1) 
def2tzvp

>  <spin_multiplicity>  (1) 
1.0

>  <optical_isomers>  (1) 
2.0

>  <modes>  (1) 
IdealGasTranslation(mass=(34.0055, 'amu')),         NonlinearRotor(             inertia = ([1.6422, 18.4839, 19.1306

>  <frequency_value>  (1) 
unknown

>  <frequency_units>  (1) 
unknown

>  <frequency_list>  (1) 
unknown

>  <arkane_path>  (1) 
/home/calvin/Dropbox/PersonalFolders/Calvin/HAb_Converged/rxn_399/output/Species/rxn_399_OO/arkane/output.py

>  <path_exists>  (1) 
True

>  <E0_value>  (1) 
-397869.6784032715

>  <E0_units>  (1) 
kJ/mol

>  <thermo_class>  (1) 
NASA

>  <Cp0_value>  (1) 
33.257888

>  <Cp0_units>  (1) 
J/(mol*K)

>  <CpInf_value>  (1) 
83.14472

>  <CpInf_units>  (1) 
J/(mol*K)

>  <Tmin_value>  (1) 
10.0

>  <Tmin_units>  (1) 
K

>  <Tmax_value>  (1) 
3000.0

>  <Tmax_units>  (1) 
K

>  <polynomials>  (1) 
[{"name": "polynomial1", "class": "NASAPolynomial", "Tmin_value": 10.0, "Tmin_units": "K", "Tmax_value": 455.78106288096404, "Tmax_units": "K", "coeffs": [3.993411036033662, 0.00039597769380578143, 1.891318343950514e-05, -3.2458663273975925e-08, 1.830389461818306e-11, -47852668.906908266, 4.504010200645888]}, {"name": "polynomial2", "class": "NASAPolynomial", "Tmin_value": 455.78106288096404, "Tmin_units": "K", "Tmax_value": 3000.0, "Tmax_units": "K", "coeffs": [3.1932894099772424, 0.0074090928900088, -4.13817425256861e-06, 1.2156565940750795e-09, -1.433593106081876e-13, -47852595.87875142, 7.736455149271243]}]

>  <H298_value>  (1) 
-95090.51348489316

>  <H298_units>  (1) 
kcal/mol

>  <S298_value>  (1) 
55.5670496873013

>  <S298_units>  (1) 
cal/(mol*K)

>  <Cp_T_value_list>  (1) 
[10.107465812395086, 11.06702468787646, 11.935737360557455, 12.7042208397447, 13.981643941817545, 14.976592388023054, 16.639120825815006, 17.666826111390996, 18.25874653130484]

>  <Cp_T_units>  (1) 
cal/(mol*K)

>  <T_list>  (1) 
[300.0, 400.0, 500.0, 600.0, 800.0, 1000.0, 1500.0, 2000.0, 2400.0]

>  <T_units>  (1) 
K

>  <yaml_path>  (1) 
/home/calvin/Dropbox/PersonalFolders/Calvin/HAb_Converged/rxn_399/output/Species/rxn_399_OO/rxn_399_OO.yml

>  <frequencies_cm1>  (1) 
[384.68165064108, 1007.86056843108, 1337.5514006295998, 1458.46527814416, 3787.7329647175193, 3788.3509933963196]

>  <ZPE_kJmol>  (1) 
70.36821125363778

>  <E_elec_kJmol>  (1) 
-397940.04661452514

>  <E0_minus_Eelec_plus_ZPE_kJmol>  (1) 
0.0

>  <rxn>  (1) 
rxn_399

>  <species_type>  (1) 
r0

>  <species_folder>  (1) 
rxn_399_OO

>  <frequencies_cm1_list>  (1) 
[384.68165064108, 1007.86056843108, 1337.5514006295998, 1458.46527814416, 3787.7329647175193, 3788.3509933963196]

>  <E0_kJmol>  (1) 
-397870

>  <H298_kJmol>  (1) 
-397859

$$$$

     RDKit          3D

 15 14  0  0  0  0  0  0  0  0999 V2000
   -0.4547   -1.8082   -2.2194 H   0  0  0  0  0  0  0  0  0  1  0  0
   -0.6576   -0.8479   -1.7513 C   0  0  0  0  0  0  0  0  0  2  0  0
   -0.2122   -0.9924   -0.3295 C   0  0  0  0  0  0  0  0  0  3  0  0
   -0.1724    0.3456    0.4281 C   0  0  0  0  0  0  0  0  0  4  0  0
    0.1907    0.1451    1.8908 C   0  0  0  0  0  0  0  0  0  5  0  0
    0.7001    1.2668   -0.1989 O   0  0  0  0  0  0  0  0  0  6  0  0
   -0.0599   -0.1759   -2.3614 H   0  0  0  0  0  0  0  0  0  7  0  0
   -1.7283   -0.7355   -1.9103 H   0  0  0  0  0  0  0  0  0  8  0  0
   -0.8737   -1.6768    0.2086 H   0  0  0  0  0  0  0  0  0  9  0  0
    0.7937   -1.4282   -0.2975 H   0  0  0  0  0  0  0  0  0 10  0  0
   -1.1576    0.8143    0.3635 H   0  0  0  0  0  0  0  0  0 11  0  0
    1.1701   -0.3344    1.9809 H   0  0  0  0  0  0  0  0  0 12  0  0
   -0.5407   -0.4893    2.3944 H   0  0  0  0  0  0  0  0  0 13  0  0
    0.2293    1.1062    2.4036 H   0  0  0  0  0  0  0  0  0 14  0  0
    1.5977    0.9345   -0.1230 H   0  0  0  0  0  0  0  0  0 15  0  0
  1  2  1  0
  2  7  1  0
  2  8  1  0
  2  3  1  0
  3  4  1  0
  3  9  1  0
  3 10  1  0
  4  5  1  0
  4  6  1  0
  4 11  1  0
  5 12  1  0
  5 14  1  0
  5 13  1  0
  6 15  1  0
M  END
>  <rmg_smiles>  (2) 
CCC(C)O

>  <rmg_adjacency_list>  (2) 
1  O u0 p2 c0 {2,S} {15,S}
2  C u0 p0 c0 {1,S} {3,S} {4,S} {6,S}
3  C u0 p0 c0 {2,S} {5,S} {7,S} {8,S}
4  C u0 p0 c0 {2,S} {12,S} {13,S} {14,S}
5  C u0 p0 c0 {3,S} {9,S} {10,S} {11,S}
6  H u0 p0 c0 {2,S}
7  H u0 p0 c0 {3,S}
8  H u0 p0 c0 {3,S}
9  H u0 p0 c0 {5,S}
10 H u0 p0 c0 {5,S}
11 H u0 p0 c0 {5,S}
12 H u0 p0 c0 {4,S}
13 H u0 p0 c0 {4,S}
14 H u0 p0 c0 {4,S}
15 H u0 p0 c0 {1,S}


>  <multiplicity>  (2) 
1

>  <reaction>  (2) 
rxn_399

>  <type>  (2) 
r2h

>  <role_mapnums>  (2) 
{"r2h_a": 2, "r2h_h": 1}

>  <role_mapidx>  (2) 
{"r2h_a": 1, "r2h_h": 0}

>  <ordered_mapped_smiles>  (2) 
[H:1][C:2]([C:3]([C:4]([C:5]([H:12])([H:13])[H:14])([O:6][H:15])[H:11])([H:9])[H:10])([H:7])[H:8]

>  <mol_properties>  (2) 
{"0": {"label": "a_hydrogen", "atom_type": "H0"}, "1": {"label": "acceptor", "atom_type": "Cs"}}

>  <level_of_theory>  (2) 
wb97xd/def2tzvp

>  <lot_method>  (2) 
wb97xd

>  <lot_basis>  (2) 
def2tzvp

>  <spin_multiplicity>  (2) 
1.0

>  <optical_isomers>  (2) 
2.0

>  <modes>  (2) 
IdealGasTranslation(mass=(74.0732, 'amu')),         NonlinearRotor(             inertia = ([62.9327, 146.297, 188.285

>  <frequency_value>  (2) 
unknown

>  <frequency_units>  (2) 
unknown

>  <frequency_list>  (2) 
unknown

>  <arkane_path>  (2) 
/home/calvin/Dropbox/PersonalFolders/Calvin/HAb_Converged/rxn_399/output/Species/rxn_399_CCC[C]O/arkane/output.py

>  <path_exists>  (2) 
True

>  <E0_value>  (2) 
-613211.2798611075

>  <E0_units>  (2) 
kJ/mol

>  <thermo_class>  (2) 
NASA

>  <Cp0_value>  (2) 
33.257888

>  <Cp0_units>  (2) 
J/(mol*K)

>  <CpInf_value>  (2) 
357.522296

>  <CpInf_units>  (2) 
J/(mol*K)

>  <Tmin_value>  (2) 
10.0

>  <Tmin_units>  (2) 
K

>  <Tmax_value>  (2) 
3000.0

>  <Tmax_units>  (2) 
K

>  <polynomials>  (2) 
[{"name": "polynomial1", "class": "NASAPolynomial", "Tmin_value": 10.0, "Tmin_units": "K", "Tmax_value": 561.9347539376212, "Tmax_units": "K", "coeffs": [3.725046797438429, 0.023130971855231986, 5.235296931125563e-05, -9.011185301035854e-08, 4.2961351234412256e-11, -73752277.95231724, 10.484689901104355]}, {"name": "polynomial2", "class": "NASAPolynomial", "Tmin_value": 561.9347539376212, "Tmin_units": "K", "Tmax_value": 3000.0, "Tmax_units": "K", "coeffs": [-0.6506332380761963, 0.05427830098563531, -3.079034533440992e-05, 8.527755203132159e-09, -9.22689607781476e-13, -73751786.18428941, 29.072796390057587]}]

>  <H298_value>  (2) 
-146556.1544925952

>  <H298_units>  (2) 
kcal/mol

>  <S298_value>  (2) 
79.91360447184806

>  <S298_units>  (2) 
cal/(mol*K)

>  <Cp_T_value_list>  (2) 
[26.412105688084562, 33.15964573350823, 39.34644603873624, 44.81992755028723, 53.76280582073538, 60.49531135511664, 70.74176717715262, 75.91843293231955, 78.57406794064308]

>  <Cp_T_units>  (2) 
cal/(mol*K)

>  <T_list>  (2) 
[300.0, 400.0, 500.0, 600.0, 800.0, 1000.0, 1500.0, 2000.0, 2400.0]

>  <T_units>  (2) 
K

>  <yaml_path>  (2) 
/home/calvin/Dropbox/PersonalFolders/Calvin/HAb_Converged/rxn_399/output/Species/rxn_399_CCC[C]O/rxn_399_CCCCO.yml

>  <frequencies_cm1>  (2) 
[116.23746051164, 219.59245656295997, 236.85605765744, 257.0312605276, 271.43132874364, 380.34858290415997, 467.95758161672, 500.50709203351994, 774.86375652348, 820.0210519878, 927.72284974668, 978.86128942472, 1004.57814944812, 1047.6135464485599, 1092.28328595516, 1134.76245714468, 1184.2047514486799, 1253.84971656412, 1317.3967987154, 1330.97969567836, 1387.15163559596, 1395.6460964367998, 1401.40749712028, 1413.3560515770798, 1467.7494422968, 1480.52890197732, 1480.7486455075598, 1483.77011904836, 1493.3632975403998, 2986.51371853588, 3003.3034976432796, 3016.93446350348, 3024.4606794142, 3041.9783589655194, 3078.31157829364, 3085.8515281749997, 3101.9889436769995, 3103.3829416969597, 3817.21293269628]

>  <ZPE_kJmol>  (2) 
356.3721842162187

>  <E_elec_kJmol>  (2) 
-613567.6520453236

>  <E0_minus_Eelec_plus_ZPE_kJmol>  (2) 
0.0

>  <rxn>  (2) 
rxn_399

>  <species_type>  (2) 
p0

>  <species_folder>  (2) 
rxn_399_CCC[C]O

>  <frequencies_cm1_list>  (2) 
[116.23746051164, 219.59245656295997, 236.85605765744, 257.0312605276, 271.43132874364, 380.34858290415997, 467.95758161672, 500.50709203351994, 774.86375652348, 820.0210519878, 927.72284974668, 978.86128942472, 1004.57814944812, 1047.6135464485599, 1092.28328595516, 1134.76245714468, 1184.2047514486799, 1253.84971656412, 1317.3967987154, 1330.97969567836, 1387.15163559596, 1395.6460964367998, 1401.40749712028, 1413.3560515770798, 1467.7494422968, 1480.52890197732, 1480.7486455075598, 1483.77011904836, 1493.3632975403998, 2986.51371853588, 3003.3034976432796, 3016.93446350348, 3024.4606794142, 3041.9783589655194, 3078.31157829364, 3085.8515281749997, 3101.9889436769995, 3103.3829416969597, 3817.21293269628]

>  <E0_kJmol>  (2) 
-613211

>  <H298_kJmol>  (2) 
-613191

$$$$

     RDKit          3D

 18 16  0  0  0  0  0  0  0  0999 V2000
    1.0573   -2.4225   -1.2645 O   0  0  0  0  0  0  0  0  0  1  0  0
   -0.0197   -1.9921   -2.0308 O   0  0  0  0  0  0  0  0  0  2  0  0
    0.6399   -2.9888   -0.6052 H   0  0  0  0  0  0  0  0  0  3  0  0
   -0.2808   -0.9405   -1.6123 H   0  0  0  0  0  0  0  0  0  4  0  0
   -0.5349    0.2620   -1.0262 C   0  0  0  0  0  3  0  0  0  5  0  0
   -0.0895    0.1174    0.3956 C   0  0  0  0  0  0  0  0  0  6  0  0
   -0.0497    1.4554    1.1532 C   0  0  0  0  0  0  0  0  0  7  0  0
    0.3134    1.2549    2.6159 C   0  0  0  0  0  0  0  0  0  8  0  0
    0.8229    2.3767    0.5262 O   0  0  0  0  0  0  0  0  0  9  0  0
    0.0628    0.9339   -1.6363 H   0  0  0  0  0  0  0  0  0 10  0  0
   -1.6056    0.3744   -1.1852 H   0  0  0  0  0  0  0  0  0 11  0  0
   -0.7510   -0.5669    0.9337 H   0  0  0  0  0  0  0  0  0 12  0  0
    0.9164   -0.3184    0.4276 H   0  0  0  0  0  0  0  0  0 13  0  0
   -1.0349    1.9242    1.0886 H   0  0  0  0  0  0  0  0  0 14  0  0
    1.2928    0.7754    2.7060 H   0  0  0  0  0  0  0  0  0 15  0  0
   -0.4180    0.6205    3.1195 H   0  0  0  0  0  0  0  0  0 16  0  0
    0.3521    2.2161    3.1287 H   0  0  0  0  0  0  0  0  0 17  0  0
    1.7205    2.0443    0.6021 H   0  0  0  0  0  0  0  0  0 18  0  0
  1  2  1  0
  1  3  1  0
  2  4  1  0
  5 11  1  0
  5  6  1  0
  5 10  1  0
  6 13  1  0
  6  7  1  0
  6 12  1  0
  7 14  1  0
  7  8  1  0
  7  9  1  0
  8 16  1  0
  8 17  1  0
  8 15  1  0
  9 18  1  0
M  RAD  1   5   2
M  END
>  <rmg_smiles>  (3) 
OO.[CH2]CC(C)O

>  <rmg_adjacency_list>  (3) 
multiplicity 2
1  O u0 p2 c0 {4,S} {16,S}
2  O u0 p2 c0 {3,S} {17,S}
3  O u0 p2 c0 {2,S} {18,S}
4  C u0 p0 c0 {1,S} {5,S} {6,S} {8,S}
5  C u0 p0 c0 {4,S} {7,S} {9,S} {10,S}
6  C u0 p0 c0 {4,S} {11,S} {12,S} {13,S}
7  C u1 p0 c0 {5,S} {14,S} {15,S}
8  H u0 p0 c0 {4,S}
9  H u0 p0 c0 {5,S}
10 H u0 p0 c0 {5,S}
11 H u0 p0 c0 {6,S}
12 H u0 p0 c0 {6,S}
13 H u0 p0 c0 {6,S}
14 H u0 p0 c0 {7,S}
15 H u0 p0 c0 {7,S}
16 H u0 p0 c0 {1,S}
17 H u0 p0 c0 {2,S}
18 H u0 p0 c0 {3,S}


>  <multiplicity>  (3) 
2

>  <reaction>  (3) 
rxn_399

>  <type>  (3) 
ts

>  <role_mapnums>  (3) 
{"*2": 4, "*1": 2, "*3": 5, "*0": 1, "*4": 6}

>  <role_mapidx>  (3) 
{"*2": 3, "*1": 1, "*3": 4, "*0": 0, "*4": 5}

>  <ordered_mapped_smiles>  (3) 
[O:1]([O:2][H:4])[H:3].[C:5]([C:6]([C:7]([C:8]([H:15])([H:16])[H:17])([O:9][H:18])[H:14])([H:12])[H:13])([H:10])[H:11]

>  <mol_properties>  (3) 
{"0": {"label": "*0", "atom_type": "O2s"}, "1": {"label": "*1", "atom_type": "O2s"}, "3": {"label": "*2", "atom_type": "H0"}, "4": {"label": "*3", "atom_type": "Cs"}, "5": {"label": "*4", "atom_type": "Cs"}}

>  <level_of_theory>  (3) 
wb97xd/def2tzvp

>  <lot_method>  (3) 
wb97xd

>  <lot_basis>  (3) 
def2tzvp

>  <spin_multiplicity>  (3) 
2.0

>  <optical_isomers>  (3) 
2.0

>  <modes>  (3) 
IdealGasTranslation(mass=(107.071, 'amu')),         NonlinearRotor(             inertia = ([110.176, 525.118, 565.51

>  <frequency_value>  (3) 
-1857.75

>  <frequency_units>  (3) 
cm^-1

>  <frequency_list>  (3) 
unknown

>  <arkane_path>  (3) 
/home/calvin/Dropbox/PersonalFolders/Calvin/HAb_Converged/rxn_399/output/rxns/TS0/arkane/output.py

>  <path_exists>  (3) 
True

>  <E0_value>  (3) 
-1009340.0

>  <E0_units>  (3) 
kJ/mol

>  <thermo_class>  (3) 
unknown

>  <Cp0_value>  (3) 
unknown

>  <Cp0_units>  (3) 
unknown

>  <CpInf_value>  (3) 
unknown

>  <CpInf_units>  (3) 
unknown

>  <Tmin_value>  (3) 
unknown

>  <Tmin_units>  (3) 
unknown

>  <Tmax_value>  (3) 
unknown

>  <Tmax_units>  (3) 
unknown

>  <polynomials>  (3) 
unknown

>  <H298_value>  (3) 
unknown

>  <H298_units>  (3) 
unknown

>  <S298_value>  (3) 
unknown

>  <S298_units>  (3) 
unknown

>  <Cp_T_value_list>  (3) 
unknown

>  <Cp_T_units>  (3) 
unknown

>  <T_list>  (3) 
unknown

>  <T_units>  (3) 
unknown

>  <yaml_path>  (3) 
unknown

>  <frequencies_cm1>  (3) 
unknown

>  <ZPE_kJmol>  (3) 
unknown

>  <E_elec_kJmol>  (3) 
unknown

>  <E0_minus_Eelec_plus_ZPE_kJmol>  (3) 
unknown

>  <rxn>  (3) 
unknown

>  <species_type>  (3) 
unknown

>  <species_folder>  (3) 
unknown

>  <frequencies_cm1_list>  (3) 
[]

>  <ts_imag_freq_cm1>  (3) 
-1880.3151

>  <ts_freq_out_path>  (3) 
/home/calvin/Dropbox/PersonalFolders/Calvin/HAb_Converged/rxn_399/output/rxns/TS0/geometry/freq.out

>  <E0_kJmol>  (3) 
-1.00934e+06

>  <H298_kJmol>  (3) 
unknown

$$$$

     RDKit          3D

  3  2  0  0  0  0  0  0  0  0999 V2000
    0.9943   -0.1797    0.0000 O   0  0  0  0  0  1  0  0  0  1  0  0
   -0.1595    0.4394    0.0000 O   0  0  0  0  0  0  0  0  0  2  0  0
   -0.8348   -0.2597    0.0000 H   0  0  0  0  0  0  0  0  0  3  0  0
  1  2  1  0
  2  3  1  0
M  RAD  1   1   2
M  END
>  <rmg_smiles>  (4) 
[O]O

>  <rmg_adjacency_list>  (4) 
multiplicity 2
1 O u1 p2 c0 {2,S}
2 O u0 p2 c0 {1,S} {3,S}
3 H u0 p0 c0 {2,S}


>  <multiplicity>  (4) 
2

>  <reaction>  (4) 
rxn_399

>  <type>  (4) 
r1

>  <role_mapnums>  (4) 
{}

>  <role_mapidx>  (4) 
{}

>  <ordered_mapped_smiles>  (4) 
[O:1][O:2][H:3]

>  <level_of_theory>  (4) 
wb97xd/def2tzvp

>  <lot_method>  (4) 
wb97xd

>  <lot_basis>  (4) 
def2tzvp

>  <spin_multiplicity>  (4) 
2.0

>  <optical_isomers>  (4) 
1.0

>  <modes>  (4) 
IdealGasTranslation(mass=(32.9977, 'amu')),         NonlinearRotor(             inertia = ([0.803517, 14.5889, 15.3924

>  <frequency_value>  (4) 
unknown

>  <frequency_units>  (4) 
unknown

>  <frequency_list>  (4) 
unknown

>  <arkane_path>  (4) 
/home/calvin/Dropbox/PersonalFolders/Calvin/HAb_Converged/rxn_399/output/Species/rxn_399_[O]O/arkane/output.py

>  <path_exists>  (4) 
True

>  <E0_value>  (4) 
-396214.7927695905

>  <E0_units>  (4) 
kJ/mol

>  <thermo_class>  (4) 
NASA

>  <Cp0_value>  (4) 
33.257888

>  <Cp0_units>  (4) 
J/(mol*K)

>  <CpInf_value>  (4) 
58.201304

>  <CpInf_units>  (4) 
J/(mol*K)

>  <Tmin_value>  (4) 
10.0

>  <Tmin_units>  (4) 
K

>  <Tmax_value>  (4) 
3000.0

>  <Tmax_units>  (4) 
K

>  <polynomials>  (4) 
[{"name": "polynomial1", "class": "NASAPolynomial", "Tmin_value": 10.0, "Tmin_units": "K", "Tmax_value": 938.1901641883775, "Tmax_units": "K", "coeffs": [4.028900763568748, -0.0017001850192041605, 1.0116513729421136e-05, -1.0102502975955476e-08, 3.2943616799556636e-12, -47653633.38795187, 4.661311963627797]}, {"name": "polynomial2", "class": "NASAPolynomial", "Tmin_value": 938.1901641883775, "Tmin_units": "K", "Tmax_value": 3000.0, "Tmax_units": "K", "coeffs": [3.0224709900106443, 0.00428209217697721, -2.152234978217665e-06, 5.370565329041951e-10, -5.2799153043016775e-14, -47653518.97920004, 9.055842364041489]}]

>  <H298_value>  (4) 
-94695.23338060976

>  <H298_units>  (4) 
kcal/mol

>  <S298_value>  (4) 
54.59701487407024

>  <S298_units>  (4) 
cal/(mol*K)

>  <Cp_T_value_list>  (4) 
[8.312978103030632, 8.754130351990018, 9.242540000567846, 9.728455522252242, 10.572357002256187, 11.201059485179156, 12.218042363471625, 12.776508208459937, 13.066159106759592]

>  <Cp_T_units>  (4) 
cal/(mol*K)

>  <T_list>  (4) 
[300.0, 400.0, 500.0, 600.0, 800.0, 1000.0, 1500.0, 2000.0, 2400.0]

>  <T_units>  (4) 
K

>  <yaml_path>  (4) 
/home/calvin/Dropbox/PersonalFolders/Calvin/HAb_Converged/rxn_399/output/Species/rxn_399_[O]O/rxn_399_OO.yml

>  <frequencies_cm1>  (4) 
[1229.25217514788, 1446.77766912952, 3624.6283293968795]

>  <ZPE_kJmol>  (4) 
37.68631575394318

>  <E_elec_kJmol>  (4) 
-396252.4790853445

>  <E0_minus_Eelec_plus_ZPE_kJmol>  (4) 
0.0

>  <rxn>  (4) 
rxn_399

>  <species_type>  (4) 
p1

>  <species_folder>  (4) 
rxn_399_[O]O

>  <frequencies_cm1_list>  (4) 
[1229.25217514788, 1446.77766912952, 3624.6283293968795]

>  <E0_kJmol>  (4) 
-396215

>  <H298_kJmol>  (4) 
-396205

$$$$

     RDKit          3D

 14 13  0  0  0  0  0  0  0  0999 V2000
    2.0213   -0.4754    0.1269 C   0  0  0  0  0  3  0  0  0  1  0  0
    0.7442   -0.1818   -0.5688 C   0  0  0  0  0  0  0  0  0  2  0  0
    0.8895   -0.1481   -2.0943 C   0  0  0  0  0  0  0  0  0  3  0  0
   -0.4084    0.2063   -2.7881 C   0  0  0  0  0  0  0  0  0  4  0  0
    1.2989   -1.4091   -2.5921 O   0  0  0  0  0  0  0  0  0  5  0  0
    2.9199    0.0702   -0.1377 H   0  0  0  0  0  0  0  0  0  6  0  0
    2.0644   -1.1304    0.9857 H   0  0  0  0  0  0  0  0  0  7  0  0
   -0.0190   -0.9186   -0.3045 H   0  0  0  0  0  0  0  0  0  8  0  0
    0.3596    0.7988   -0.2492 H   0  0  0  0  0  0  0  0  0  9  0  0
    1.6473    0.6092   -2.3461 H   0  0  0  0  0  0  0  0  0 10  0  0
   -0.7474    1.1989   -2.4875 H   0  0  0  0  0  0  0  0  0 11  0  0
   -1.1822   -0.5209   -2.5347 H   0  0  0  0  0  0  0  0  0 12  0  0
   -0.2721    0.1980   -3.8695 H   0  0  0  0  0  0  0  0  0 13  0  0
    2.0431   -1.7082   -2.0635 H   0  0  0  0  0  0  0  0  0 14  0  0
  1  7  1  0
  1  6  1  0
  1  2  1  0
  2  9  1  0
  2  8  1  0
  2  3  1  0
  3  5  1  0
  3  4  1  0
  3 10  1  0
  4 13  1  0
  4 12  1  0
  4 11  1  0
  5 14  1  0
M  RAD  1   1   2
M  END
>  <rmg_smiles>  (5) 
[CH2]CC(C)O

>  <rmg_adjacency_list>  (5) 
multiplicity 2
1  O u0 p2 c0 {2,S} {14,S}
2  C u0 p0 c0 {1,S} {3,S} {4,S} {6,S}
3  C u0 p0 c0 {2,S} {5,S} {7,S} {8,S}
4  C u0 p0 c0 {2,S} {9,S} {10,S} {11,S}
5  C u1 p0 c0 {3,S} {12,S} {13,S}
6  H u0 p0 c0 {2,S}
7  H u0 p0 c0 {3,S}
8  H u0 p0 c0 {3,S}
9  H u0 p0 c0 {4,S}
10 H u0 p0 c0 {4,S}
11 H u0 p0 c0 {4,S}
12 H u0 p0 c0 {5,S}
13 H u0 p0 c0 {5,S}
14 H u0 p0 c0 {1,S}


>  <multiplicity>  (5) 
2

>  <reaction>  (5) 
rxn_399

>  <type>  (5) 
r2

>  <role_mapnums>  (5) 
{}

>  <role_mapidx>  (5) 
{}

>  <ordered_mapped_smiles>  (5) 
[C:1]([C:2]([C:3]([C:4]([H:11])([H:12])[H:13])([O:5][H:14])[H:10])([H:8])[H:9])([H:6])[H:7]

>  <level_of_theory>  (5) 
wb97xd/def2tzvp

>  <lot_method>  (5) 
wb97xd

>  <lot_basis>  (5) 
def2tzvp

>  <spin_multiplicity>  (5) 
2.0

>  <optical_isomers>  (5) 
2.0

>  <modes>  (5) 
IdealGasTranslation(mass=(73.0653, 'amu')),         NonlinearRotor(             inertia = ([60.2281, 139.437, 180.091

>  <frequency_value>  (5) 
unknown

>  <frequency_units>  (5) 
unknown

>  <frequency_list>  (5) 
unknown

>  <arkane_path>  (5) 
/home/calvin/Dropbox/PersonalFolders/Calvin/HAb_Converged/rxn_399/output/Species/rxn_399_[CH2]CC[C]O/arkane/output.py

>  <path_exists>  (5) 
True

>  <E0_value>  (5) 
-611483.0969263453

>  <E0_units>  (5) 
kJ/mol

>  <thermo_class>  (5) 
NASA

>  <Cp0_value>  (5) 
33.257888

>  <Cp0_units>  (5) 
J/(mol*K)

>  <CpInf_value>  (5) 
332.57888

>  <CpInf_units>  (5) 
J/(mol*K)

>  <Tmin_value>  (5) 
10.0

>  <Tmin_units>  (5) 
K

>  <Tmax_value>  (5) 
3000.0

>  <Tmax_units>  (5) 
K

>  <polynomials>  (5) 
[{"name": "polynomial1", "class": "NASAPolynomial", "Tmin_value": 10.0, "Tmin_units": "K", "Tmax_value": 415.8339979345728, "Tmax_units": "K", "coeffs": [3.6828549070132564, 0.026692717129917633, 5.015231576831168e-05, -1.1700095553739564e-07, 7.414621970611707e-11, -73544424.57538073, 11.335851399856919]}, {"name": "polynomial2", "class": "NASAPolynomial", "Tmin_value": 415.8339979345728, "Tmin_units": "K", "Tmax_value": 3000.0, "Tmax_units": "K", "coeffs": [1.4406453105931603, 0.04826106638365476, -2.7649346418960743e-05, 7.731170698464971e-09, -8.430360399337142e-13, -73544238.09828635, 20.18574322495684]}]

>  <H298_value>  (5) 
-146142.93241907287

>  <H298_units>  (5) 
kcal/mol

>  <S298_value>  (5) 
82.69323955047827

>  <S298_units>  (5) 
cal/(mol*K)

>  <Cp_T_value_list>  (5) 
[27.11729480795039, 33.3739296359005, 38.894695584686275, 43.72688100179108, 51.60172870282268, 57.51074960940134, 66.46420123195335, 70.99529983472316, 73.35327758460097]

>  <Cp_T_units>  (5) 
cal/(mol*K)

>  <T_list>  (5) 
[300.0, 400.0, 500.0, 600.0, 800.0, 1000.0, 1500.0, 2000.0, 2400.0]

>  <T_units>  (5) 
K

>  <yaml_path>  (5) 
/home/calvin/Dropbox/PersonalFolders/Calvin/HAb_Converged/rxn_399/output/Species/rxn_399_[CH2]CC[C]O/rxn_399_CH2CCCO.yml

>  <frequencies_cm1>  (5) 
[93.83048741247998, 137.8890652256, 229.46031446779998, 240.90757899623998, 344.98360850615995, 378.35715716135996, 447.92658543828, 489.08729544636, 539.1476184291599, 815.9763976343199, 830.51380555676, 940.0010194988398, 971.1290639544, 1052.5989777908799, 1068.5921866011602, 1133.0182428734, 1169.36519617216, 1225.30365858888, 1277.69188959516, 1310.13839523216, 1377.3936494562397, 1391.21002392008, 1430.50978090644, 1441.1810760937199, 1458.1287958634798, 1471.5743531200399, 1486.1666969250398, 2939.8250853452, 2946.18391375152, 3020.02460689748, 3047.0393271463595, 3096.4266855677993, 3105.63531288192, 3116.0868645389596, 3223.2530374428798, 3803.5064299975597]

>  <ZPE_kJmol>  (5) 
317.3099404082942

>  <E_elec_kJmol>  (5) 
-611800.4068667536

>  <E0_minus_Eelec_plus_ZPE_kJmol>  (5) 
0.0

>  <rxn>  (5) 
rxn_399

>  <species_type>  (5) 
r1

>  <species_folder>  (5) 
rxn_399_[CH2]CC[C]O

>  <frequencies_cm1_list>  (5) 
[93.83048741247998, 137.8890652256, 229.46031446779998, 240.90757899623998, 344.98360850615995, 378.35715716135996, 447.92658543828, 489.08729544636, 539.1476184291599, 815.9763976343199, 830.51380555676, 940.0010194988398, 971.1290639544, 1052.5989777908799, 1068.5921866011602, 1133.0182428734, 1169.36519617216, 1225.30365858888, 1277.69188959516, 1310.13839523216, 1377.3936494562397, 1391.21002392008, 1430.50978090644, 1441.1810760937199, 1458.1287958634798, 1471.5743531200399, 1486.1666969250398, 2939.8250853452, 2946.18391375152, 3020.02460689748, 3047.0393271463595, 3096.4266855677993, 3105.63531288192, 3116.0868645389596, 3223.2530374428798, 3803.5064299975597]

>  <E0_kJmol>  (5) 
-611483

>  <H298_kJmol>  (5) 
-611462

$$$$
