
     RDKit          3D

  7  6  0  0  0  0  0  0  0  0999 V2000
    0.6835   -0.7444   -2.0461 N   0  0  0  0  0  0  0  0  0  1  0  0
    0.4084   -0.0777   -1.1531 C   0  0  0  0  0  2  0  0  0  2  0  0
    0.1255    0.8018   -0.0499 C   0  0  0  0  0  0  0  0  0  3  0  0
   -0.4374    0.1875    1.1244 C   0  0  0  0  0  2  0  0  0  4  0  0
   -0.8281   -0.2461    2.1133 N   0  0  0  0  0  0  0  0  0  5  0  0
    1.1001    1.1488    0.2910 H   0  0  0  0  0  0  0  0  0  6  0  0
   -0.4205    1.6951   -0.3504 H   0  0  0  0  0  0  0  0  0  7  0  0
  1  2  1  0
  2  3  1  0
  3  4  1  0
  3  6  1  0
  3  7  1  0
  4  5  1  0
M  RAD  2   2   3   4   3
M  END
>  <rmg_smiles>  (1) 
[N][C]C[C][N]

>  <rmg_adjacency_list>  (1) 
1 N u0 p2 c0 {4,S}
2 N u0 p2 c0 {5,S}
3 C u0 p0 c0 {4,S} {5,S} {6,S} {7,S}
4 C u0 p1 c0 {1,S} {3,S}
5 C u0 p1 c0 {2,S} {3,S}
6 H u0 p0 c0 {3,S}
7 H u0 p0 c0 {3,S}


>  <multiplicity>  (1) 
1

>  <reaction>  (1) 
rxn_3229

>  <type>  (1) 
r1h

>  <role_mapnums>  (1) 
{"r1h_a": 3, "r1h_h": 6}

>  <role_mapidx>  (1) 
{"r1h_a": 2, "r1h_h": 5}

>  <ordered_mapped_smiles>  (1) 
[NH2:1][C:2][C:3]([C:4][NH2:5])([H:6])[H:7]

>  <mol_properties>  (1) 
{"2": {"label": "donator", "atom_type": "Cs"}, "5": {"label": "d_hydrogen", "atom_type": "H0"}}

>  <level_of_theory>  (1) 
wb97xd/def2tzvp

>  <lot_method>  (1) 
wb97xd

>  <lot_basis>  (1) 
def2tzvp

>  <spin_multiplicity>  (1) 
1.0

>  <optical_isomers>  (1) 
1.0

>  <modes>  (1) 
IdealGasTranslation(mass=(66.0218, 'amu')),         NonlinearRotor(             inertia = ([23.7671, 171.208, 191.843

>  <frequency_value>  (1) 
unknown

>  <frequency_units>  (1) 
unknown

>  <frequency_list>  (1) 
unknown

>  <arkane_path>  (1) 
/home/calvin/Dropbox/PersonalFolders/Calvin/ATLAS_Converged/NonRMG/rxn_3229/output/Species/rxn_3229_r2_NtCCCtN/arkane/output.py

>  <path_exists>  (1) 
True

>  <E0_value>  (1) 
-590565.6495263865

>  <E0_units>  (1) 
kJ/mol

>  <thermo_class>  (1) 
NASA

>  <Cp0_value>  (1) 
33.257888

>  <Cp0_units>  (1) 
J/(mol*K)

>  <CpInf_value>  (1) 
157.97496800000002

>  <CpInf_units>  (1) 
J/(mol*K)

>  <Tmin_value>  (1) 
10.0

>  <Tmin_units>  (1) 
K

>  <Tmax_value>  (1) 
3000.0

>  <Tmax_units>  (1) 
K

>  <polynomials>  (1) 
[{"name": "polynomial1", "class": "NASAPolynomial", "Tmin_value": 10.0, "Tmin_units": "K", "Tmax_value": 381.2671360317701, "Tmax_units": "K", "coeffs": [3.923518384888164, 0.005792069225387273, 9.370390502108868e-05, -2.657841227650435e-07, 2.3107989402795785e-10, -71028642.17707072, 8.434891986323661]}, {"name": "polynomial2", "class": "NASAPolynomial", "Tmin_value": 381.2671360317701, "Tmin_units": "K", "Tmax_value": 3000.0, "Tmax_units": "K", "coeffs": [3.6593956469030533, 0.02070177496595334, -1.2711294446273225e-05, 3.793964873991964e-09, -4.397428673268674e-13, -71028710.26373495, 8.29742738403007]}]

>  <H298_value>  (1) 
-141144.9278451886

>  <H298_units>  (1) 
kcal/mol

>  <S298_value>  (1) 
69.1255125881735

>  <S298_units>  (1) 
cal/(mol*K)

>  <Cp_T_value_list>  (1) 
[17.46767715625896, 20.14601107641169, 22.41414169108704, 24.37686414792028, 27.518792922312837, 29.816241430861343, 33.166633044338305, 34.84288571038595, 35.73942606368457]

>  <Cp_T_units>  (1) 
cal/(mol*K)

>  <T_list>  (1) 
[300.0, 400.0, 500.0, 600.0, 800.0, 1000.0, 1500.0, 2000.0, 2400.0]

>  <T_units>  (1) 
K

>  <yaml_path>  (1) 
/home/calvin/Dropbox/PersonalFolders/Calvin/ATLAS_Converged/NonRMG/rxn_3229/output/Species/rxn_3229_r2_NtCCCtN/rxn_3229_r2_NtCCCtN.yml

>  <frequencies_cm1>  (1) 
[146.69940739115998, 340.38959532708, 374.73825589771997, 374.9579994279599, 586.0353941941199, 901.58710361876, 932.7014141036799, 987.9943799003199, 1238.72174790416, 1338.31363600012, 1434.8771835699602, 2384.39584472232, 2388.37869620792, 3042.61698860028, 3086.94337884088]

>  <ZPE_kJmol>  (1) 
116.99093307058868

>  <E_elec_kJmol>  (1) 
-590682.6404594571

>  <E0_minus_Eelec_plus_ZPE_kJmol>  (1) 
0.0

>  <rxn>  (1) 
rxn_3229

>  <species_type>  (1) 
r1

>  <species_folder>  (1) 
rxn_3229_r2_NtCCCtN

>  <frequencies_cm1_list>  (1) 
[146.69940739115998, 340.38959532708, 374.73825589771997, 374.9579994279599, 586.0353941941199, 901.58710361876, 932.7014141036799, 987.9943799003199, 1238.72174790416, 1338.31363600012, 1434.8771835699602, 2384.39584472232, 2388.37869620792, 3042.61698860028, 3086.94337884088]

>  <E0_kJmol>  (1) 
-590566

>  <H298_kJmol>  (1) 
-590550

$$$$

     RDKit          3D

  8  7  0  0  0  0  0  0  0  0999 V2000
    1.0130   -1.1342   -0.6894 N   0  0  0  0  0  0  0  0  0  1  0  0
    0.5260   -0.5009    0.5221 C   0  0  0  0  0  0  0  0  0  2  0  0
   -0.4701    0.5503    0.2841 C   0  0  0  0  0  2  0  0  0  3  0  0
   -1.2537    1.3465    0.0251 N   0  0  0  0  0  0  0  0  0  4  0  0
    1.1854   -0.4125   -1.3920 H   0  0  0  0  0  0  0  0  0  5  0  0
    1.3844   -0.0626    1.0438 H   0  0  0  0  0  0  0  0  0  6  0  0
    0.1008   -1.2571    1.1843 H   0  0  0  0  0  0  0  0  0  7  0  0
    0.2311   -1.6558   -1.0903 H   0  0  0  0  0  0  0  0  0  8  0  0
  1  5  1  0
  1  2  1  0
  1  8  1  0
  2  7  1  0
  2  6  1  0
  2  3  1  0
  3  4  1  0
M  RAD  1   3   3
M  END
>  <rmg_smiles>  (2) 
[N][C]CN

>  <rmg_adjacency_list>  (2) 
1 N u0 p1 c0 {3,S} {7,S} {8,S}
2 N u0 p2 c0 {4,S}
3 C u0 p0 c0 {1,S} {4,S} {5,S} {6,S}
4 C u0 p1 c0 {2,S} {3,S}
5 H u0 p0 c0 {3,S}
6 H u0 p0 c0 {3,S}
7 H u0 p0 c0 {1,S}
8 H u0 p0 c0 {1,S}


>  <multiplicity>  (2) 
1

>  <reaction>  (2) 
rxn_3229

>  <type>  (2) 
r2h

>  <role_mapnums>  (2) 
{"r2h_a": 1, "r2h_h": 8}

>  <role_mapidx>  (2) 
{"r2h_a": 0, "r2h_h": 7}

>  <ordered_mapped_smiles>  (2) 
[N:1]([C:2]([C:3][NH2:4])([H:6])[H:7])([H:5])[H:8]

>  <mol_properties>  (2) 
{"0": {"label": "acceptor", "atom_type": "N3s"}, "7": {"label": "a_hydrogen", "atom_type": "H0"}}

>  <level_of_theory>  (2) 
wb97xd/def2tzvp

>  <lot_method>  (2) 
wb97xd

>  <lot_basis>  (2) 
def2tzvp

>  <spin_multiplicity>  (2) 
1.0

>  <optical_isomers>  (2) 
1.0

>  <modes>  (2) 
IdealGasTranslation(mass=(56.0374, 'amu')),         NonlinearRotor(             inertia = ([16.5185, 105.395, 116.141

>  <frequency_value>  (2) 
unknown

>  <frequency_units>  (2) 
unknown

>  <frequency_list>  (2) 
unknown

>  <arkane_path>  (2) 
/home/calvin/Dropbox/PersonalFolders/Calvin/ATLAS_Converged/NonRMG/rxn_3229/output/Species/rxn_3229_p1_NCCtN/arkane/output.py

>  <path_exists>  (2) 
True

>  <E0_value>  (2) 
-493707.24096395954

>  <E0_units>  (2) 
kJ/mol

>  <thermo_class>  (2) 
NASA

>  <Cp0_value>  (2) 
33.257888

>  <Cp0_units>  (2) 
J/(mol*K)

>  <CpInf_value>  (2) 
182.918384

>  <CpInf_units>  (2) 
J/(mol*K)

>  <Tmin_value>  (2) 
10.0

>  <Tmin_units>  (2) 
K

>  <Tmax_value>  (2) 
3000.0

>  <Tmax_units>  (2) 
K

>  <polynomials>  (2) 
[{"name": "polynomial1", "class": "NASAPolynomial", "Tmin_value": 10.0, "Tmin_units": "K", "Tmax_value": 310.3656944426032, "Tmax_units": "K", "coeffs": [3.9731943208296037, 0.002034998905401934, 9.475709370659397e-05, -2.3009470252826854e-07, 1.8817978896599532e-10, -59379266.29095806, 8.166466583720501]}, {"name": "polynomial2", "class": "NASAPolynomial", "Tmin_value": 310.3656944426032, "Tmin_units": "K", "Tmax_value": 3000.0, "Tmax_units": "K", "coeffs": [2.222751666825024, 0.024594558995586543, -1.4272560220765838e-05, 4.0994905264842876e-09, -4.624224001756621e-13, -59379157.63460226, 14.563329871704575]}]

>  <H298_value>  (2) 
-117995.39622498966

>  <H298_units>  (2) 
kcal/mol

>  <S298_value>  (2) 
67.48007386059012

>  <S298_units>  (2) 
cal/(mol*K)

>  <Cp_T_value_list>  (2) 
[16.739297051439777, 19.926703272151446, 22.72455293853158, 25.171796492782516, 29.159257216543025, 32.15661505552977, 36.755563782360284, 39.185316788338156, 40.47748472918174]

>  <Cp_T_units>  (2) 
cal/(mol*K)

>  <T_list>  (2) 
[300.0, 400.0, 500.0, 600.0, 800.0, 1000.0, 1500.0, 2000.0, 2400.0]

>  <T_units>  (2) 
K

>  <yaml_path>  (2) 
/home/calvin/Dropbox/PersonalFolders/Calvin/ATLAS_Converged/NonRMG/rxn_3229/output/Species/rxn_3229_p1_NCCtN/rxn_3229_p1_NCCtN.yml

>  <frequencies_cm1>  (2) 
[216.01475721123998, 261.31625936728, 391.90571919772, 575.1100205500001, 821.9438078774, 892.22053564228, 915.49274889176, 1117.7804024483198, 1189.6365368368, 1359.3815469618798, 1375.3816227574798, 1458.4996130707598, 1659.1529241211601, 2352.78024430904, 3046.929455381239, 3089.3536906882, 3509.5925913162396, 3590.1972650023995]

>  <ZPE_kJmol>  (2) 
166.41668883231094

>  <E_elec_kJmol>  (2) 
-493873.6576527919

>  <E0_minus_Eelec_plus_ZPE_kJmol>  (2) 
0.0

>  <rxn>  (2) 
rxn_3229

>  <species_type>  (2) 
p0

>  <species_folder>  (2) 
rxn_3229_p1_NCCtN

>  <frequencies_cm1_list>  (2) 
[216.01475721123998, 261.31625936728, 391.90571919772, 575.1100205500001, 821.9438078774, 892.22053564228, 915.49274889176, 1117.7804024483198, 1189.6365368368, 1359.3815469618798, 1375.3816227574798, 1458.4996130707598, 1659.1529241211601, 2352.78024430904, 3046.929455381239, 3089.3536906882, 3509.5925913162396, 3590.1972650023995]

>  <E0_kJmol>  (2) 
-493707

>  <H298_kJmol>  (2) 
-493693

$$$$

     RDKit          3D

 14 12  0  0  0  0  0  0  0  0999 V2000
    1.5338    0.4516    0.3517 N   0  0  0  0  0  2  0  0  0  1  0  0
    1.0468    1.0849    1.5631 C   0  0  0  0  0  0  0  0  0  2  0  0
    0.0508    2.1361    1.3252 C   0  0  0  0  0  0  0  0  0  3  0  0
   -0.7329    2.9324    1.0661 N   0  0  0  0  0  0  0  0  0  4  0  0
    1.7062    1.1733   -0.3510 H   0  0  0  0  0  0  0  0  0  5  0  0
    1.9052    1.5232    2.0849 H   0  0  0  0  0  0  0  0  0  6  0  0
    0.6216    0.3287    2.2253 H   0  0  0  0  0  0  0  0  0  7  0  0
   -0.0693   -2.1770   -2.5645 N   0  0  0  0  0  0  0  0  0  8  0  0
   -0.3444   -1.5103   -1.6715 C   0  0  0  0  0  0  0  0  0  9  0  0
   -0.6273   -0.6308   -0.5683 C   0  0  0  0  0  0  0  0  0 10  0  0
   -1.1901   -1.2451    0.6060 C   0  0  0  0  0  0  0  0  0 11  0  0
   -1.5809   -1.6787    1.5949 N   0  0  0  0  0  0  0  0  0 12  0  0
    0.5277   -0.2196   -0.1643 H   0  0  0  0  0  0  0  0  0 13  0  0
   -1.1733    0.2625   -0.8688 H   0  0  0  0  0  0  0  0  0 14  0  0
  1  5  1  0
  1  2  1  0
  2  7  1  0
  2  6  1  0
  2  3  1  0
  3  4  1  0
  8  9  1  0
  9 10  1  0
 10 13  1  0
 10 14  1  0
 10 11  1  0
 11 12  1  0
M  RAD  1   1   2
M  END
>  <rmg_smiles>  (3) 
[N][C]C[C][N].[N][C]C[NH]

>  <rmg_adjacency_list>  (3) 
multiplicity 2
1  N u1 p1 c0 {5,S} {14,S}
2  N u0 p2 c0 {7,S}
3  N u0 p2 c0 {8,S}
4  N u0 p2 c0 {9,S}
5  C u0 p0 c0 {1,S} {7,S} {10,S} {11,S}
6  C u0 p0 c0 {8,S} {9,S} {12,S} {13,S}
7  C u0 p1 c0 {2,S} {5,S}
8  C u0 p1 c0 {3,S} {6,S}
9  C u0 p1 c0 {4,S} {6,S}
10 H u0 p0 c0 {5,S}
11 H u0 p0 c0 {5,S}
12 H u0 p0 c0 {6,S}
13 H u0 p0 c0 {6,S}
14 H u0 p0 c0 {1,S}


>  <multiplicity>  (3) 
2

>  <reaction>  (3) 
rxn_3229

>  <type>  (3) 
ts

>  <role_mapnums>  (3) 
{"*2": 13, "*1": 10, "*3": 1, "*0": 9, "*4": 2}

>  <role_mapidx>  (3) 
{"*2": 12, "*1": 9, "*3": 0, "*0": 8, "*4": 1}

>  <ordered_mapped_smiles>  (3) 
[N:1]([C:2]([CH2:3][NH2:4])([H:6])[H:7])[H:5].[NH2:8][CH2:9][C:10]([CH2:11][NH2:12])([H:13])[H:14]

>  <mol_properties>  (3) 
{"0": {"label": "*3", "atom_type": "N3s"}, "1": {"label": "*4", "atom_type": "Cs"}, "8": {"label": "*0", "atom_type": "C2s"}, "9": {"label": "*1", "atom_type": "Cs"}, "12": {"label": "*2", "atom_type": "H0"}}

>  <level_of_theory>  (3) 
wb97xd/def2tzvp

>  <lot_method>  (3) 
wb97xd

>  <lot_basis>  (3) 
def2tzvp

>  <spin_multiplicity>  (3) 
2.0

>  <optical_isomers>  (3) 
2.0

>  <modes>  (3) 
IdealGasTranslation(mass=(121.051, 'amu')),         NonlinearRotor(             inertia = ([227.668, 556.842, 639.979

>  <frequency_value>  (3) 
-1748.34

>  <frequency_units>  (3) 
cm^-1

>  <frequency_list>  (3) 
unknown

>  <arkane_path>  (3) 
/home/calvin/Dropbox/PersonalFolders/Calvin/ATLAS_Converged/NonRMG/rxn_3229/output/rxns/TS0/arkane/output.py

>  <path_exists>  (3) 
True

>  <E0_value>  (3) 
-1082510.0

>  <E0_units>  (3) 
kJ/mol

>  <thermo_class>  (3) 
unknown

>  <Cp0_value>  (3) 
unknown

>  <Cp0_units>  (3) 
unknown

>  <CpInf_value>  (3) 
unknown

>  <CpInf_units>  (3) 
unknown

>  <Tmin_value>  (3) 
unknown

>  <Tmin_units>  (3) 
unknown

>  <Tmax_value>  (3) 
unknown

>  <Tmax_units>  (3) 
unknown

>  <polynomials>  (3) 
unknown

>  <H298_value>  (3) 
unknown

>  <H298_units>  (3) 
unknown

>  <S298_value>  (3) 
unknown

>  <S298_units>  (3) 
unknown

>  <Cp_T_value_list>  (3) 
unknown

>  <Cp_T_units>  (3) 
unknown

>  <T_list>  (3) 
unknown

>  <T_units>  (3) 
unknown

>  <yaml_path>  (3) 
unknown

>  <frequencies_cm1>  (3) 
unknown

>  <ZPE_kJmol>  (3) 
unknown

>  <E_elec_kJmol>  (3) 
unknown

>  <E0_minus_Eelec_plus_ZPE_kJmol>  (3) 
unknown

>  <rxn>  (3) 
unknown

>  <species_type>  (3) 
unknown

>  <species_folder>  (3) 
unknown

>  <frequencies_cm1_list>  (3) 
[]

>  <ts_imag_freq_cm1>  (3) 
-1769.5785

>  <ts_freq_out_path>  (3) 
/home/calvin/Dropbox/PersonalFolders/Calvin/ATLAS_Converged/NonRMG/rxn_3229/output/rxns/TS0/geometry/freq.out

>  <E0_kJmol>  (3) 
-1.08251e+06

>  <H298_kJmol>  (3) 
unknown

$$$$

     RDKit          3D

  6  5  0  0  0  0  0  0  0  0999 V2000
    2.2462   -0.4182   -0.5446 N   0  0  0  0  0  2  0  0  0  1  0  0
    1.2137   -0.0678   -0.1600 C   0  0  0  0  0  0  0  0  0  2  0  0
   -0.0159    0.3825    0.3184 C   0  0  0  0  0  0  0  0  0  3  0  0
   -1.1977   -0.3187    0.0838 C   0  0  0  0  0  0  0  0  0  4  0  0
   -2.1924   -0.8799   -0.0960 N   0  0  0  0  0  0  0  0  0  5  0  0
   -0.0540    1.3020    0.8877 H   0  0  0  0  0  0  0  0  0  6  0  0
  1  2  1  0
  2  3  1  0
  3  4  1  0
  3  6  1  0
  4  5  1  0
M  RAD  1   1   2
M  END
>  <rmg_smiles>  (4) 
[N][C][CH][C][N]

>  <rmg_adjacency_list>  (4) 
multiplicity 2
1 N u1 p2 c0 {4,S}
2 N u0 p2 c0 {5,S}
3 C u0 p0 c0 {4,S} {5,S} {6,S}
4 C u0 p1 c0 {1,S} {3,S}
5 C u0 p1 c0 {2,S} {3,S}
6 H u0 p0 c0 {3,S}


>  <multiplicity>  (4) 
2

>  <reaction>  (4) 
rxn_3229

>  <type>  (4) 
r1

>  <role_mapnums>  (4) 
{}

>  <role_mapidx>  (4) 
{}

>  <ordered_mapped_smiles>  (4) 
[NH:1][CH2:2][CH:3]([CH2:4][NH2:5])[H:6]

>  <level_of_theory>  (4) 
wb97xd/def2tzvp

>  <lot_method>  (4) 
wb97xd

>  <lot_basis>  (4) 
def2tzvp

>  <spin_multiplicity>  (4) 
2.0

>  <optical_isomers>  (4) 
1.0

>  <modes>  (4) 
IdealGasTranslation(mass=(65.014, 'amu')),         NonlinearRotor(             inertia = ([16.2864, 176.463, 192.749

>  <frequency_value>  (4) 
unknown

>  <frequency_units>  (4) 
unknown

>  <frequency_list>  (4) 
unknown

>  <arkane_path>  (4) 
/home/calvin/Dropbox/PersonalFolders/Calvin/ATLAS_Converged/NonRMG/rxn_3229/output/Species/rxn_3229_p2_NtCsbr-CH-sbrCtN/arkane/output.py

>  <path_exists>  (4) 
True

>  <E0_value>  (4) 
-588895.7263989138

>  <E0_units>  (4) 
kJ/mol

>  <thermo_class>  (4) 
NASA

>  <Cp0_value>  (4) 
33.257888

>  <Cp0_units>  (4) 
J/(mol*K)

>  <CpInf_value>  (4) 
133.031552

>  <CpInf_units>  (4) 
J/(mol*K)

>  <Tmin_value>  (4) 
10.0

>  <Tmin_units>  (4) 
K

>  <Tmax_value>  (4) 
3000.0

>  <Tmax_units>  (4) 
K

>  <polynomials>  (4) 
[{"name": "polynomial1", "class": "NASAPolynomial", "Tmin_value": 10.0, "Tmin_units": "K", "Tmax_value": 446.78829279719486, "Tmax_units": "K", "coeffs": [3.902114061788269, 0.006806461240620306, 8.01696080685902e-05, -2.2030458010893222e-07, 1.740397164523871e-10, -70827794.84397617, 8.911872080286763]}, {"name": "polynomial2", "class": "NASAPolynomial", "Tmin_value": 446.78829279719486, "Tmin_units": "K", "Tmax_value": 3000.0, "Tmax_units": "K", "coeffs": [4.8070218940619105, 0.016288953242252213, -1.0700376665569692e-05, 3.372496266088477e-09, -4.0768719490369526e-13, -70828051.20951407, 3.3111979082645555]}]

>  <H298_value>  (4) 
-140745.83823301544

>  <H298_units>  (4) 
kcal/mol

>  <S298_value>  (4) 
69.81130509682312

>  <S298_units>  (4) 
cal/(mol*K)

>  <Cp_T_value_list>  (4) 
[17.131340009915768, 19.490043365124276, 21.208433426177645, 22.661866802765335, 24.938791442789526, 26.54988872274361, 28.780438976975784, 29.888374151930545, 30.5267623724279]

>  <Cp_T_units>  (4) 
cal/(mol*K)

>  <T_list>  (4) 
[300.0, 400.0, 500.0, 600.0, 800.0, 1000.0, 1500.0, 2000.0, 2400.0]

>  <T_units>  (4) 
K

>  <yaml_path>  (4) 
/home/calvin/Dropbox/PersonalFolders/Calvin/ATLAS_Converged/NonRMG/rxn_3229/output/Species/rxn_3229_p2_NtCsbr-CH-sbrCtN/rxn_3229_p2_NtCsbr-CH-sbrCtN.yml

>  <frequencies_cm1>  (4) 
[151.55436601239998, 372.3897469182799, 386.11685057295995, 413.2620435429199, 612.0612685569199, 652.9541661375199, 948.54354923692, 1103.9708949698002, 1359.8279010076799, 2169.37680038248, 2244.2818762530396, 3179.7369514700404]

>  <ZPE_kJmol>  (4) 
81.31065708369657

>  <E_elec_kJmol>  (4) 
-588977.0370559974

>  <E0_minus_Eelec_plus_ZPE_kJmol>  (4) 
0.0

>  <rxn>  (4) 
rxn_3229

>  <species_type>  (4) 
p1

>  <species_folder>  (4) 
rxn_3229_p2_NtCsbr-CH-sbrCtN

>  <frequencies_cm1_list>  (4) 
[151.55436601239998, 372.3897469182799, 386.11685057295995, 413.2620435429199, 612.0612685569199, 652.9541661375199, 948.54354923692, 1103.9708949698002, 1359.8279010076799, 2169.37680038248, 2244.2818762530396, 3179.7369514700404]

>  <E0_kJmol>  (4) 
-588896

>  <H298_kJmol>  (4) 
-588881

$$$$

     RDKit          3D

  7  6  0  0  0  0  0  0  0  0999 V2000
   -1.3059    0.5497   -0.1304 N   0  0  0  0  0  2  0  0  0  1  0  0
   -0.2700   -0.4288    0.0448 C   0  0  0  0  0  0  0  0  0  2  0  0
    1.1109    0.0669    0.0401 C   0  0  0  0  0  0  0  0  0  3  0  0
    2.1758    0.4925    0.0308 N   0  0  0  0  0  0  0  0  0  4  0  0
   -0.8815    1.4733   -0.2339 H   0  0  0  0  0  0  0  0  0  5  0  0
   -0.3767   -1.1909   -0.7373 H   0  0  0  0  0  0  0  0  0  6  0  0
   -0.4527   -0.9628    0.9858 H   0  0  0  0  0  0  0  0  0  7  0  0
  1  5  1  0
  1  2  1  0
  2  7  1  0
  2  6  1  0
  2  3  1  0
  3  4  1  0
M  RAD  1   1   2
M  END
>  <rmg_smiles>  (5) 
[N][C]C[NH]

>  <rmg_adjacency_list>  (5) 
multiplicity 2
1 N u1 p1 c0 {3,S} {7,S}
2 N u0 p2 c0 {4,S}
3 C u0 p0 c0 {1,S} {4,S} {5,S} {6,S}
4 C u0 p1 c0 {2,S} {3,S}
5 H u0 p0 c0 {3,S}
6 H u0 p0 c0 {3,S}
7 H u0 p0 c0 {1,S}


>  <multiplicity>  (5) 
2

>  <reaction>  (5) 
rxn_3229

>  <type>  (5) 
r2

>  <role_mapnums>  (5) 
{}

>  <role_mapidx>  (5) 
{}

>  <ordered_mapped_smiles>  (5) 
[N:1]([C:2]([CH2:3][NH2:4])([H:6])[H:7])[H:5]

>  <level_of_theory>  (5) 
wb97xd/def2tzvp

>  <lot_method>  (5) 
wb97xd

>  <lot_basis>  (5) 
def2tzvp

>  <spin_multiplicity>  (5) 
2.0

>  <optical_isomers>  (5) 
1.0

>  <modes>  (5) 
IdealGasTranslation(mass=(55.0296, 'amu')),         NonlinearRotor(             inertia = ([14.3798, 101.116, 112.445

>  <frequency_value>  (5) 
unknown

>  <frequency_units>  (5) 
unknown

>  <frequency_list>  (5) 
unknown

>  <arkane_path>  (5) 
/home/calvin/Dropbox/PersonalFolders/Calvin/ATLAS_Converged/NonRMG/rxn_3229/output/Species/rxn_3229_r1_sbr-NH-sbrCCtN/arkane/output.py

>  <path_exists>  (5) 
True

>  <E0_value>  (5) 
-491973.9107065931

>  <E0_units>  (5) 
kJ/mol

>  <thermo_class>  (5) 
NASA

>  <Cp0_value>  (5) 
33.257888

>  <Cp0_units>  (5) 
J/(mol*K)

>  <CpInf_value>  (5) 
157.97496800000002

>  <CpInf_units>  (5) 
J/(mol*K)

>  <Tmin_value>  (5) 
10.0

>  <Tmin_units>  (5) 
K

>  <Tmax_value>  (5) 
3000.0

>  <Tmax_units>  (5) 
K

>  <polynomials>  (5) 
[{"name": "polynomial1", "class": "NASAPolynomial", "Tmin_value": 10.0, "Tmin_units": "K", "Tmax_value": 441.5888552627719, "Tmax_units": "K", "coeffs": [3.8074387231682363, 0.01890513209384672, -2.384570888732855e-05, 4.838233157000235e-08, -4.1393745668634286e-11, -59170793.396980785, 9.226799164772778]}, {"name": "polynomial2", "class": "NASAPolynomial", "Tmin_value": 441.5888552627719, "Tmin_units": "K", "Tmax_value": 3000.0, "Tmax_units": "K", "coeffs": [2.9869977814233555, 0.020949312305084667, -1.2488909357575524e-05, 3.6086756240984913e-09, -4.0428709073473696e-13, -59170668.40878062, 13.109112838271622]}]

>  <H298_value>  (5) 
-117580.92958719996

>  <H298_units>  (5) 
kcal/mol

>  <S298_value>  (5) 
71.21799638955733

>  <S298_units>  (5) 
cal/(mol*K)

>  <Cp_T_value_list>  (5) 
[16.50156041465201, 19.059232907035433, 21.392761081461902, 23.42450687983812, 26.69929489980552, 29.116130872672766, 32.67662417459433, 34.43987147616164, 35.37681819280643]

>  <Cp_T_units>  (5) 
cal/(mol*K)

>  <T_list>  (5) 
[300.0, 400.0, 500.0, 600.0, 800.0, 1000.0, 1500.0, 2000.0, 2400.0]

>  <T_units>  (5) 
K

>  <yaml_path>  (5) 
/home/calvin/Dropbox/PersonalFolders/Calvin/ATLAS_Converged/NonRMG/rxn_3229/output/Species/rxn_3229_r1_sbr-NH-sbrCCtN/rxn_3229_r1_sbr-NH-sbrCCtN.yml

>  <frequencies_cm1>  (5) 
[63.7942936228, 224.96930606852, 349.44028197883995, 587.4774611113199, 879.8668290515999, 884.95526517372, 1044.48906812796, 1212.8469472184, 1240.74064158824, 1356.4012753329998, 1409.47620487128, 2361.53565059204, 2988.3609375869596, 3014.2975411406, 3431.2265548443993]

>  <ZPE_kJmol>  (5) 
125.90626832277542

>  <E_elec_kJmol>  (5) 
-492099.8169749159

>  <E0_minus_Eelec_plus_ZPE_kJmol>  (5) 
0.0

>  <rxn>  (5) 
rxn_3229

>  <species_type>  (5) 
r0

>  <species_folder>  (5) 
rxn_3229_r1_sbr-NH-sbrCCtN

>  <frequencies_cm1_list>  (5) 
[63.7942936228, 224.96930606852, 349.44028197883995, 587.4774611113199, 879.8668290515999, 884.95526517372, 1044.48906812796, 1212.8469472184, 1240.74064158824, 1356.4012753329998, 1409.47620487128, 2361.53565059204, 2988.3609375869596, 3014.2975411406, 3431.2265548443993]

>  <E0_kJmol>  (5) 
-491974

>  <H298_kJmol>  (5) 
-491959

$$$$
