
     RDKit          3D

  4  3  0  0  0  0  0  0  0  0999 V2000
    0.1363   -0.0834    0.5628 C   0  0  0  0  0  0  0  0  0  1  0  0
   -0.1369    0.0697   -0.5723 O   0  0  0  0  0  0  0  0  0  2  0  0
    0.1615    0.7971    1.2430 H   0  0  0  0  0  0  0  0  0  3  0  0
    0.3837   -1.0691    1.0163 H   0  0  0  0  0  0  0  0  0  4  0  0
  1  3  1  0
  1  2  1  0
  1  4  1  0
M  END
>  <rmg_smiles>  (1) 
[CH2]O

>  <rmg_adjacency_list>  (1) 
1 O u0 p2 c0 {2,S}
2 C u0 p0 c0 {1,S} {3,S} {4,S}
3 H u0 p0 c0 {2,S}
4 H u0 p0 c0 {2,S}


>  <multiplicity>  (1) 
1

>  <reaction>  (1) 
rxn_369

>  <type>  (1) 
r1h

>  <role_mapnums>  (1) 
{"r1h_a": 1, "r1h_h": 3}

>  <role_mapidx>  (1) 
{"r1h_a": 0, "r1h_h": 2}

>  <ordered_mapped_smiles>  (1) 
[CH:1]([OH:2])([H:3])[H:4]

>  <mol_properties>  (1) 
{"0": {"label": "donator", "atom_type": "Cs"}, "2": {"label": "d_hydrogen", "atom_type": "H0"}}

>  <level_of_theory>  (1) 
wb97xd/def2tzvp

>  <lot_method>  (1) 
wb97xd

>  <lot_basis>  (1) 
def2tzvp

>  <spin_multiplicity>  (1) 
1.0

>  <optical_isomers>  (1) 
1.0

>  <modes>  (1) 
IdealGasTranslation(mass=(30.0106, 'amu')),         NonlinearRotor(             inertia = ([1.77806, 12.8193, 14.5973

>  <frequency_value>  (1) 
unknown

>  <frequency_units>  (1) 
unknown

>  <frequency_list>  (1) 
unknown

>  <arkane_path>  (1) 
/home/calvin/Dropbox/PersonalFolders/Calvin/HAb_Converged/rxn_369/output/Species/rxn_369_C=O/arkane/output.py

>  <path_exists>  (1) 
True

>  <E0_value>  (1) 
-300581.8492768013

>  <E0_units>  (1) 
kJ/mol

>  <thermo_class>  (1) 
NASA

>  <Cp0_value>  (1) 
33.257888

>  <Cp0_units>  (1) 
J/(mol*K)

>  <CpInf_value>  (1) 
83.14472

>  <CpInf_units>  (1) 
J/(mol*K)

>  <Tmin_value>  (1) 
10.0

>  <Tmin_units>  (1) 
K

>  <Tmax_value>  (1) 
3000.0

>  <Tmax_units>  (1) 
K

>  <polynomials>  (1) 
[{"name": "polynomial1", "class": "NASAPolynomial", "Tmin_value": 10.0, "Tmin_units": "K", "Tmax_value": 596.0202313099187, "Tmax_units": "K", "coeffs": [4.032085905965299, -0.0019550574143172394, 9.151617581216646e-06, 2.7701203546044124e-09, -7.982780212694088e-12, -36151647.441043995, 3.46612627393656]}, {"name": "polynomial2", "class": "NASAPolynomial", "Tmin_value": 596.0202313099187, "Tmin_units": "K", "Tmax_value": 3000.0, "Tmax_units": "K", "coeffs": [1.4201667765750836, 0.00951800511592072, -4.481463687097219e-06, 9.715072479143586e-10, -7.774645154236121e-14, -36151228.52298982, 15.617883371520154]}]

>  <H298_value>  (1) 
-71838.40974989386

>  <H298_units>  (1) 
kcal/mol

>  <S298_value>  (1) 
52.203392278201385

>  <S298_units>  (1) 
cal/(mol*K)

>  <Cp_T_value_list>  (1) 
[8.503946165987818, 9.314534232957735, 10.313210012164452, 11.361679376485984, 13.179155251059148, 14.606899785394228, 16.88951984115191, 18.000984931991262, 18.48265740351604]

>  <Cp_T_units>  (1) 
cal/(mol*K)

>  <T_list>  (1) 
[300.0, 400.0, 500.0, 600.0, 800.0, 1000.0, 1500.0, 2000.0, 2400.0]

>  <T_units>  (1) 
K

>  <yaml_path>  (1) 
/home/calvin/Dropbox/PersonalFolders/Calvin/HAb_Converged/rxn_369/output/Species/rxn_369_C=O/rxn_369_C=O.yml

>  <frequencies_cm1>  (1) 
[1198.0829287804, 1259.87892967508, 1521.5866072056, 1834.858477504, 2871.3269067782003, 2932.0447909776403]

>  <ZPE_kJmol>  (1) 
69.48976791829953

>  <E_elec_kJmol>  (1) 
-300651.3390447196

>  <E0_minus_Eelec_plus_ZPE_kJmol>  (1) 
0.0

>  <rxn>  (1) 
rxn_369

>  <species_type>  (1) 
r1

>  <species_folder>  (1) 
rxn_369_C=O

>  <frequencies_cm1_list>  (1) 
[1198.0829287804, 1259.87892967508, 1521.5866072056, 1834.858477504, 2871.3269067782003, 2932.0447909776403]

>  <E0_kJmol>  (1) 
-300582

>  <H298_kJmol>  (1) 
-300572

$$$$

     RDKit          3D

  4  3  0  0  0  0  0  0  0  0999 V2000
   -0.0670   -0.4246    0.5371 O   0  0  0  0  0  0  0  0  0  1  0  0
    0.1185    0.4744   -0.4890 O   0  0  0  0  0  0  0  0  0  2  0  0
   -0.7800    0.7154   -0.7463 H   0  0  0  0  0  0  0  0  0  3  0  0
   -0.0434   -1.2787    0.0995 H   0  0  0  0  0  0  0  0  0  4  0  0
  1  2  1  0
  1  4  1  0
  2  3  1  0
M  END
>  <rmg_smiles>  (2) 
OO

>  <rmg_adjacency_list>  (2) 
1 O u0 p2 c0 {2,S} {4,S}
2 O u0 p2 c0 {1,S} {3,S}
3 H u0 p0 c0 {2,S}
4 H u0 p0 c0 {1,S}


>  <multiplicity>  (2) 
1

>  <reaction>  (2) 
rxn_369

>  <type>  (2) 
r2h

>  <role_mapnums>  (2) 
{"r2h_a": 1, "r2h_h": 4}

>  <role_mapidx>  (2) 
{"r2h_a": 0, "r2h_h": 3}

>  <ordered_mapped_smiles>  (2) 
[O:1]([O:2][H:3])[H:4]

>  <mol_properties>  (2) 
{"0": {"label": "acceptor", "atom_type": "O2s"}, "3": {"label": "a_hydrogen", "atom_type": "H0"}}

>  <level_of_theory>  (2) 
wb97xd/def2tzvp

>  <lot_method>  (2) 
wb97xd

>  <lot_basis>  (2) 
def2tzvp

>  <spin_multiplicity>  (2) 
1.0

>  <optical_isomers>  (2) 
2.0

>  <modes>  (2) 
IdealGasTranslation(mass=(34.0055, 'amu')),         NonlinearRotor(             inertia = ([1.6422, 18.4839, 19.1306

>  <frequency_value>  (2) 
unknown

>  <frequency_units>  (2) 
unknown

>  <frequency_list>  (2) 
unknown

>  <arkane_path>  (2) 
/home/calvin/Dropbox/PersonalFolders/Calvin/HAb_Converged/rxn_369/output/Species/rxn_369_OO/arkane/output.py

>  <path_exists>  (2) 
True

>  <E0_value>  (2) 
-397869.6784032715

>  <E0_units>  (2) 
kJ/mol

>  <thermo_class>  (2) 
NASA

>  <Cp0_value>  (2) 
33.257888

>  <Cp0_units>  (2) 
J/(mol*K)

>  <CpInf_value>  (2) 
83.14472

>  <CpInf_units>  (2) 
J/(mol*K)

>  <Tmin_value>  (2) 
10.0

>  <Tmin_units>  (2) 
K

>  <Tmax_value>  (2) 
3000.0

>  <Tmax_units>  (2) 
K

>  <polynomials>  (2) 
[{"name": "polynomial1", "class": "NASAPolynomial", "Tmin_value": 10.0, "Tmin_units": "K", "Tmax_value": 455.78106288096404, "Tmax_units": "K", "coeffs": [3.993411036033662, 0.00039597769380578143, 1.891318343950514e-05, -3.2458663273975925e-08, 1.830389461818306e-11, -47852668.906908266, 4.504010200645888]}, {"name": "polynomial2", "class": "NASAPolynomial", "Tmin_value": 455.78106288096404, "Tmin_units": "K", "Tmax_value": 3000.0, "Tmax_units": "K", "coeffs": [3.1932894099772424, 0.0074090928900088, -4.13817425256861e-06, 1.2156565940750795e-09, -1.433593106081876e-13, -47852595.87875142, 7.736455149271243]}]

>  <H298_value>  (2) 
-95090.51348489316

>  <H298_units>  (2) 
kcal/mol

>  <S298_value>  (2) 
55.5670496873013

>  <S298_units>  (2) 
cal/(mol*K)

>  <Cp_T_value_list>  (2) 
[10.107465812395086, 11.06702468787646, 11.935737360557455, 12.7042208397447, 13.981643941817545, 14.976592388023054, 16.639120825815006, 17.666826111390996, 18.25874653130484]

>  <Cp_T_units>  (2) 
cal/(mol*K)

>  <T_list>  (2) 
[300.0, 400.0, 500.0, 600.0, 800.0, 1000.0, 1500.0, 2000.0, 2400.0]

>  <T_units>  (2) 
K

>  <yaml_path>  (2) 
/home/calvin/Dropbox/PersonalFolders/Calvin/HAb_Converged/rxn_369/output/Species/rxn_369_OO/rxn_369_OO.yml

>  <frequencies_cm1>  (2) 
[384.68165064108, 1007.86056843108, 1337.5514006295998, 1458.46527814416, 3787.7329647175193, 3788.3509933963196]

>  <ZPE_kJmol>  (2) 
70.36821125363778

>  <E_elec_kJmol>  (2) 
-397940.04661452514

>  <E0_minus_Eelec_plus_ZPE_kJmol>  (2) 
0.0

>  <rxn>  (2) 
rxn_369

>  <species_type>  (2) 
p0

>  <species_folder>  (2) 
rxn_369_OO

>  <frequencies_cm1_list>  (2) 
[384.68165064108, 1007.86056843108, 1337.5514006295998, 1458.46527814416, 3787.7329647175193, 3788.3509933963196]

>  <E0_kJmol>  (2) 
-397870

>  <H298_kJmol>  (2) 
-397859

$$$$

     RDKit          3D

  7  5  0  0  0  0  0  0  0  0999 V2000
   -0.0345    0.7821    1.2591 O   0  0  0  0  0  0  0  0  0  1  0  0
    0.1510    1.6810    0.2330 O   0  0  0  0  0  0  0  0  0  2  0  0
   -0.7475    1.9221   -0.0243 H   0  0  0  0  0  0  0  0  0  3  0  0
   -0.0344   -1.3388   -0.0980 C   0  0  0  0  0  3  0  0  0  4  0  0
   -0.3075   -1.1858   -1.2332 O   0  0  0  0  0  0  0  0  0  5  0  0
   -0.0046   -0.2990    0.7052 H   0  0  0  0  0  0  0  0  0  6  0  0
    0.2131   -2.3245    0.3555 H   0  0  0  0  0  0  0  0  0  7  0  0
  1  2  1  0
  1  6  1  0
  2  3  1  0
  4  7  1  0
  4  5  1  0
M  RAD  1   4   2
M  END
>  <rmg_smiles>  (3) 
OO.[CH]O

>  <rmg_adjacency_list>  (3) 
multiplicity 2
1 O u0 p2 c0 {2,S} {6,S}
2 O u0 p2 c0 {1,S} {5,S}
3 O u0 p2 c0 {4,S}
4 C u1 p1 c0 {3,S} {7,S}
5 H u0 p0 c0 {2,S}
6 H u0 p0 c0 {1,S}
7 H u0 p0 c0 {4,S}


>  <multiplicity>  (3) 
2

>  <reaction>  (3) 
rxn_369

>  <type>  (3) 
ts

>  <role_mapnums>  (3) 
{"*2": 6, "*1": 4, "*3": 1, "*0": 2, "*4": 5}

>  <role_mapidx>  (3) 
{"*2": 5, "*1": 3, "*3": 0, "*0": 1, "*4": 4}

>  <ordered_mapped_smiles>  (3) 
[O:1]([O:2][H:3])[H:6].[CH:4]([OH:5])[H:7]

>  <mol_properties>  (3) 
{"0": {"label": "*3", "atom_type": "O2s"}, "1": {"label": "*0", "atom_type": "O2s"}, "3": {"label": "*1", "atom_type": "C2s"}, "4": {"label": "*4", "atom_type": "O2s"}, "5": {"label": "*2", "atom_type": "H0"}}

>  <level_of_theory>  (3) 
wb97xd/def2tzvp

>  <lot_method>  (3) 
wb97xd

>  <lot_basis>  (3) 
def2tzvp

>  <spin_multiplicity>  (3) 
2.0

>  <optical_isomers>  (3) 
2.0

>  <modes>  (3) 
IdealGasTranslation(mass=(63.0082, 'amu')),         NonlinearRotor(             inertia = ([27.1716, 135.518, 159.961

>  <frequency_value>  (3) 
-1815.83

>  <frequency_units>  (3) 
cm^-1

>  <frequency_list>  (3) 
unknown

>  <arkane_path>  (3) 
/home/calvin/Dropbox/PersonalFolders/Calvin/HAb_Converged/rxn_369/output/rxns/TS0/arkane/output.py

>  <path_exists>  (3) 
True

>  <E0_value>  (3) 
-696749.0

>  <E0_units>  (3) 
kJ/mol

>  <thermo_class>  (3) 
unknown

>  <Cp0_value>  (3) 
unknown

>  <Cp0_units>  (3) 
unknown

>  <CpInf_value>  (3) 
unknown

>  <CpInf_units>  (3) 
unknown

>  <Tmin_value>  (3) 
unknown

>  <Tmin_units>  (3) 
unknown

>  <Tmax_value>  (3) 
unknown

>  <Tmax_units>  (3) 
unknown

>  <polynomials>  (3) 
unknown

>  <H298_value>  (3) 
unknown

>  <H298_units>  (3) 
unknown

>  <S298_value>  (3) 
unknown

>  <S298_units>  (3) 
unknown

>  <Cp_T_value_list>  (3) 
unknown

>  <Cp_T_units>  (3) 
unknown

>  <T_list>  (3) 
unknown

>  <T_units>  (3) 
unknown

>  <yaml_path>  (3) 
unknown

>  <frequencies_cm1>  (3) 
unknown

>  <ZPE_kJmol>  (3) 
unknown

>  <E_elec_kJmol>  (3) 
unknown

>  <E0_minus_Eelec_plus_ZPE_kJmol>  (3) 
unknown

>  <rxn>  (3) 
unknown

>  <species_type>  (3) 
unknown

>  <species_folder>  (3) 
unknown

>  <frequencies_cm1_list>  (3) 
[]

>  <ts_imag_freq_cm1>  (3) 
-1837.8888

>  <ts_freq_out_path>  (3) 
/home/calvin/Dropbox/PersonalFolders/Calvin/HAb_Converged/rxn_369/output/rxns/TS0/geometry/freq.out

>  <E0_kJmol>  (3) 
-696749

>  <H298_kJmol>  (3) 
unknown

$$$$

     RDKit          3D

  3  2  0  0  0  0  0  0  0  0999 V2000
   -0.0494   -0.2484    0.2507 C   0  0  0  0  0  3  0  0  0  1  0  0
    1.0305   -0.0025   -0.1225 O   0  0  0  0  0  0  0  0  0  2  0  0
   -0.9811    0.2509   -0.1282 H   0  0  0  0  0  0  0  0  0  3  0  0
  1  3  1  0
  1  2  1  0
M  RAD  1   1   2
M  END
>  <rmg_smiles>  (4) 
[CH]O

>  <rmg_adjacency_list>  (4) 
multiplicity 2
1 O u0 p2 c0 {2,S}
2 C u1 p1 c0 {1,S} {3,S}
3 H u0 p0 c0 {2,S}


>  <multiplicity>  (4) 
2

>  <reaction>  (4) 
rxn_369

>  <type>  (4) 
r1

>  <role_mapnums>  (4) 
{}

>  <role_mapidx>  (4) 
{}

>  <ordered_mapped_smiles>  (4) 
[CH:1]([OH:2])[H:3]

>  <level_of_theory>  (4) 
wb97xd/def2tzvp

>  <lot_method>  (4) 
wb97xd

>  <lot_basis>  (4) 
def2tzvp

>  <spin_multiplicity>  (4) 
2.0

>  <optical_isomers>  (4) 
1.0

>  <modes>  (4) 
IdealGasTranslation(mass=(29.0027, 'amu')),         NonlinearRotor(             inertia = ([0.700876, 11.1486, 11.8495

>  <frequency_value>  (4) 
unknown

>  <frequency_units>  (4) 
unknown

>  <frequency_list>  (4) 
unknown

>  <arkane_path>  (4) 
/home/calvin/Dropbox/PersonalFolders/Calvin/HAb_Converged/rxn_369/output/Species/rxn_369_[CH]=O/arkane/output.py

>  <path_exists>  (4) 
True

>  <E0_value>  (4) 
-298906.1077309104

>  <E0_units>  (4) 
kJ/mol

>  <thermo_class>  (4) 
NASA

>  <Cp0_value>  (4) 
33.257888

>  <Cp0_units>  (4) 
J/(mol*K)

>  <CpInf_value>  (4) 
58.201304

>  <CpInf_units>  (4) 
J/(mol*K)

>  <Tmin_value>  (4) 
10.0

>  <Tmin_units>  (4) 
K

>  <Tmax_value>  (4) 
3000.0

>  <Tmax_units>  (4) 
K

>  <polynomials>  (4) 
[{"name": "polynomial1", "class": "NASAPolynomial", "Tmin_value": 10.0, "Tmin_units": "K", "Tmax_value": 629.0329326323794, "Tmax_units": "K", "coeffs": [4.0141029536568755, -0.0008324808303857282, 4.565607627083826e-06, 1.8746941448744858e-10, -2.6564997303138495e-12, -35950101.587201975, 4.133195440043003]}, {"name": "polynomial2", "class": "NASAPolynomial", "Tmin_value": 629.0329326323794, "Tmin_units": "K", "Tmax_value": 3000.0, "Tmax_units": "K", "coeffs": [2.7179926824852285, 0.004696005037506268, -2.1471933588085846e-06, 4.442695941995901e-10, -3.310227907681839e-14, -35949884.84502023, 10.212048629403155]}]

>  <H298_value>  (4) 
-71437.89365083692

>  <H298_units>  (4) 
kcal/mol

>  <S298_value>  (4) 
53.56112588711653

>  <S298_units>  (4) 
cal/(mol*K)

>  <Cp_T_value_list>  (4) 
[8.264409135990633, 8.655475624606844, 9.134526324353928, 9.646783131701312, 10.561009548618756, 11.28330222739882, 12.44516840811585, 13.007756179876383, 13.242544848639357]

>  <Cp_T_units>  (4) 
cal/(mol*K)

>  <T_list>  (4) 
[300.0, 400.0, 500.0, 600.0, 800.0, 1000.0, 1500.0, 2000.0, 2400.0]

>  <T_units>  (4) 
K

>  <yaml_path>  (4) 
/home/calvin/Dropbox/PersonalFolders/Calvin/HAb_Converged/rxn_369/output/Species/rxn_369_[CH]=O/rxn_369_CH=O.yml

>  <frequencies_cm1>  (4) 
[1103.9502940138398, 1953.2453044207998, 2665.077002692]

>  <ZPE_kJmol>  (4) 
34.2268007772968

>  <E_elec_kJmol>  (4) 
-298940.33453168767

>  <E0_minus_Eelec_plus_ZPE_kJmol>  (4) 
0.0

>  <rxn>  (4) 
rxn_369

>  <species_type>  (4) 
p1

>  <species_folder>  (4) 
rxn_369_[CH]=O

>  <frequencies_cm1_list>  (4) 
[1103.9502940138398, 1953.2453044207998, 2665.077002692]

>  <E0_kJmol>  (4) 
-298906

>  <H298_kJmol>  (4) 
-298896

$$$$

     RDKit          3D

  3  2  0  0  0  0  0  0  0  0999 V2000
    0.9943   -0.1797    0.0000 O   0  0  0  0  0  1  0  0  0  1  0  0
   -0.1595    0.4394    0.0000 O   0  0  0  0  0  0  0  0  0  2  0  0
   -0.8348   -0.2597    0.0000 H   0  0  0  0  0  0  0  0  0  3  0  0
  1  2  1  0
  2  3  1  0
M  RAD  1   1   2
M  END
>  <rmg_smiles>  (5) 
[O]O

>  <rmg_adjacency_list>  (5) 
multiplicity 2
1 O u1 p2 c0 {2,S}
2 O u0 p2 c0 {1,S} {3,S}
3 H u0 p0 c0 {2,S}


>  <multiplicity>  (5) 
2

>  <reaction>  (5) 
rxn_369

>  <type>  (5) 
r2

>  <role_mapnums>  (5) 
{}

>  <role_mapidx>  (5) 
{}

>  <ordered_mapped_smiles>  (5) 
[O:1][O:2][H:3]

>  <level_of_theory>  (5) 
wb97xd/def2tzvp

>  <lot_method>  (5) 
wb97xd

>  <lot_basis>  (5) 
def2tzvp

>  <spin_multiplicity>  (5) 
2.0

>  <optical_isomers>  (5) 
1.0

>  <modes>  (5) 
IdealGasTranslation(mass=(32.9977, 'amu')),         NonlinearRotor(             inertia = ([0.803517, 14.5889, 15.3924

>  <frequency_value>  (5) 
unknown

>  <frequency_units>  (5) 
unknown

>  <frequency_list>  (5) 
unknown

>  <arkane_path>  (5) 
/home/calvin/Dropbox/PersonalFolders/Calvin/HAb_Converged/rxn_369/output/Species/rxn_369_[O]O/arkane/output.py

>  <path_exists>  (5) 
True

>  <E0_value>  (5) 
-396214.7927695905

>  <E0_units>  (5) 
kJ/mol

>  <thermo_class>  (5) 
NASA

>  <Cp0_value>  (5) 
33.257888

>  <Cp0_units>  (5) 
J/(mol*K)

>  <CpInf_value>  (5) 
58.201304

>  <CpInf_units>  (5) 
J/(mol*K)

>  <Tmin_value>  (5) 
10.0

>  <Tmin_units>  (5) 
K

>  <Tmax_value>  (5) 
3000.0

>  <Tmax_units>  (5) 
K

>  <polynomials>  (5) 
[{"name": "polynomial1", "class": "NASAPolynomial", "Tmin_value": 10.0, "Tmin_units": "K", "Tmax_value": 938.1901641883775, "Tmax_units": "K", "coeffs": [4.028900763568748, -0.0017001850192041605, 1.0116513729421136e-05, -1.0102502975955476e-08, 3.2943616799556636e-12, -47653633.38795187, 4.661311963627797]}, {"name": "polynomial2", "class": "NASAPolynomial", "Tmin_value": 938.1901641883775, "Tmin_units": "K", "Tmax_value": 3000.0, "Tmax_units": "K", "coeffs": [3.0224709900106443, 0.00428209217697721, -2.152234978217665e-06, 5.370565329041951e-10, -5.2799153043016775e-14, -47653518.97920004, 9.055842364041489]}]

>  <H298_value>  (5) 
-94695.23338060976

>  <H298_units>  (5) 
kcal/mol

>  <S298_value>  (5) 
54.59701487407024

>  <S298_units>  (5) 
cal/(mol*K)

>  <Cp_T_value_list>  (5) 
[8.312978103030632, 8.754130351990018, 9.242540000567846, 9.728455522252242, 10.572357002256187, 11.201059485179156, 12.218042363471625, 12.776508208459937, 13.066159106759592]

>  <Cp_T_units>  (5) 
cal/(mol*K)

>  <T_list>  (5) 
[300.0, 400.0, 500.0, 600.0, 800.0, 1000.0, 1500.0, 2000.0, 2400.0]

>  <T_units>  (5) 
K

>  <yaml_path>  (5) 
/home/calvin/Dropbox/PersonalFolders/Calvin/HAb_Converged/rxn_369/output/Species/rxn_369_[O]O/rxn_369_OO.yml

>  <frequencies_cm1>  (5) 
[1229.25217514788, 1446.77766912952, 3624.6283293968795]

>  <ZPE_kJmol>  (5) 
37.68631575394318

>  <E_elec_kJmol>  (5) 
-396252.4790853445

>  <E0_minus_Eelec_plus_ZPE_kJmol>  (5) 
0.0

>  <rxn>  (5) 
rxn_369

>  <species_type>  (5) 
r0

>  <species_folder>  (5) 
rxn_369_[O]O

>  <frequencies_cm1_list>  (5) 
[1229.25217514788, 1446.77766912952, 3624.6283293968795]

>  <E0_kJmol>  (5) 
-396215

>  <H298_kJmol>  (5) 
-396205

$$$$
