
     RDKit          3D

  7  6  0  0  0  0  0  0  0  0999 V2000
    0.6465   -0.0113   -1.1875 C   0  0  0  0  0  2  0  0  0  1  0  0
    0.0601   -0.0267   -0.1390 C   0  0  0  0  0  2  0  0  0  2  0  0
   -0.6124    0.0082    1.1221 C   0  0  0  0  0  0  0  0  0  3  0  0
    1.1574   -0.0150   -2.1200 H   0  0  0  0  0  0  0  0  0  4  0  0
   -0.3268    0.9292    1.6271 H   0  0  0  0  0  0  0  0  0  5  0  0
   -0.3040   -0.7814    1.8050 H   0  0  0  0  0  0  0  0  0  6  0  0
   -1.6960    0.0703    1.0390 H   0  0  0  0  0  0  0  0  0  7  0  0
  1  4  1  0
  1  2  1  0
  2  3  1  0
  3  6  1  0
  3  7  1  0
  3  5  1  0
M  RAD  2   1   3   2   3
M  END
>  <rmg_smiles>  (1) 
[CH][C]C

>  <rmg_adjacency_list>  (1) 
1 C u0 p0 c0 {2,S} {4,S} {5,S} {6,S}
2 C u0 p1 c0 {1,S} {3,S}
3 C u0 p1 c0 {2,S} {7,S}
4 H u0 p0 c0 {1,S}
5 H u0 p0 c0 {1,S}
6 H u0 p0 c0 {1,S}
7 H u0 p0 c0 {3,S}


>  <multiplicity>  (1) 
1

>  <reaction>  (1) 
rxn_1232

>  <type>  (1) 
r1h

>  <role_mapnums>  (1) 
{"r1h_a": 3, "r1h_h": 5}

>  <role_mapidx>  (1) 
{"r1h_a": 2, "r1h_h": 4}

>  <ordered_mapped_smiles>  (1) 
[C:1]([C:2][C:3]([H:5])([H:6])[H:7])[H:4]

>  <mol_properties>  (1) 
{"2": {"label": "donator", "atom_type": "Cs"}, "4": {"label": "d_hydrogen", "atom_type": "H0"}}

>  <level_of_theory>  (1) 
wb97xd/def2tzvp

>  <lot_method>  (1) 
wb97xd

>  <lot_basis>  (1) 
def2tzvp

>  <spin_multiplicity>  (1) 
1.0

>  <optical_isomers>  (1) 
1.0

>  <modes>  (1) 
IdealGasTranslation(mass=(40.0313, 'amu')),         NonlinearRotor(             inertia = ([3.14896, 58.5627, 58.5628

>  <frequency_value>  (1) 
unknown

>  <frequency_units>  (1) 
unknown

>  <frequency_list>  (1) 
unknown

>  <arkane_path>  (1) 
/home/calvin/Dropbox/PersonalFolders/Calvin/HAb_Converged/rxn_1232/output/Species/rxn_1232_CtCC/arkane/output.py

>  <path_exists>  (1) 
True

>  <E0_value>  (1) 
-306134.23771519226

>  <E0_units>  (1) 
kJ/mol

>  <thermo_class>  (1) 
NASA

>  <Cp0_value>  (1) 
33.257888

>  <Cp0_units>  (1) 
J/(mol*K)

>  <CpInf_value>  (1) 
157.97496800000002

>  <CpInf_units>  (1) 
J/(mol*K)

>  <Tmin_value>  (1) 
10.0

>  <Tmin_units>  (1) 
K

>  <Tmax_value>  (1) 
3000.0

>  <Tmax_units>  (1) 
K

>  <polynomials>  (1) 
[{"name": "polynomial1", "class": "NASAPolynomial", "Tmin_value": 10.0, "Tmin_units": "K", "Tmax_value": 432.7570457536586, "Tmax_units": "K", "coeffs": [3.9797872721783007, 0.0012495811779551272, 5.6294196303513694e-05, -1.0182025216581548e-07, 6.043505350989284e-11, -36819443.321551986, 4.877022759632036]}, {"name": "polynomial2", "class": "NASAPolynomial", "Tmin_value": 432.7570457536586, "Tmin_units": "K", "Tmax_value": 3000.0, "Tmax_units": "K", "coeffs": [1.8482488679261548, 0.020955787311649748, -1.2025217015703147e-05, 3.449280939574018e-09, -3.914023780269935e-13, -36819258.87384146, 13.374670545299223]}]

>  <H298_value>  (1) 
-73164.72574977479

>  <H298_units>  (1) 
kcal/mol

>  <S298_value>  (1) 
58.90709306772092

>  <S298_units>  (1) 
cal/(mol*K)

>  <Cp_T_value_list>  (1) 
[14.231411982223385, 16.92569828262598, 19.32863505161705, 21.43592113918368, 24.884700514699873, 27.496375671717598, 31.566855118352027, 33.76415845868588, 34.923080757091356]

>  <Cp_T_units>  (1) 
cal/(mol*K)

>  <T_list>  (1) 
[300.0, 400.0, 500.0, 600.0, 800.0, 1000.0, 1500.0, 2000.0, 2400.0]

>  <T_units>  (1) 
K

>  <yaml_path>  (1) 
/home/calvin/Dropbox/PersonalFolders/Calvin/HAb_Converged/rxn_1232/output/Species/rxn_1232_CtCC/rxn_1232_CtCC.yml

>  <frequencies_cm1>  (1) 
[351.89179573808, 352.26261294536, 684.0272747105199, 684.34315603524, 939.24565111364, 1048.18350623012, 1048.35518086312, 1402.57488462468, 1465.46960317056, 1465.7648835393202, 2230.0054137727598, 3022.8812727906, 3095.33483490192, 3095.7125190945194, 3438.9862482559997]

>  <ZPE_kJmol>  (1) 
145.49608455161717

>  <E_elec_kJmol>  (1) 
-306279.7337997439

>  <E0_minus_Eelec_plus_ZPE_kJmol>  (1) 
0.0

>  <rxn>  (1) 
rxn_1232

>  <species_type>  (1) 
r0

>  <species_folder>  (1) 
rxn_1232_CtCC

>  <frequencies_cm1_list>  (1) 
[351.89179573808, 352.26261294536, 684.0272747105199, 684.34315603524, 939.24565111364, 1048.18350623012, 1048.35518086312, 1402.57488462468, 1465.46960317056, 1465.7648835393202, 2230.0054137727598, 3022.8812727906, 3095.33483490192, 3095.7125190945194, 3438.9862482559997]

>  <E0_kJmol>  (1) 
-306134

>  <H298_kJmol>  (1) 
-306121

$$$$

     RDKit          3D

 10  9  0  0  0  0  0  0  0  0999 V2000
   -0.0661   -1.0573   -1.0556 H   0  0  0  0  0  0  0  0  0  1  0  0
    1.1016    0.5352   -1.4069 C   0  0  0  0  0  0  0  0  0  2  0  0
    0.2705   -0.1162   -0.6208 C   0  0  0  0  0  0  0  0  0  3  0  0
   -0.2595    0.1930    0.6862 C   0  0  0  0  0  0  0  0  0  4  0  0
   -1.1040   -0.5786    1.3630 C   0  0  0  0  0  0  0  0  0  5  0  0
    1.3902    0.1372   -2.3739 H   0  0  0  0  0  0  0  0  0  6  0  0
    1.5273    1.4938   -1.1147 H   0  0  0  0  0  0  0  0  0  7  0  0
    0.0751    1.1336    1.1240 H   0  0  0  0  0  0  0  0  0  8  0  0
   -1.4670   -0.2923    2.3410 H   0  0  0  0  0  0  0  0  0  9  0  0
   -1.4572   -1.5197    0.9585 H   0  0  0  0  0  0  0  0  0 10  0  0
  1  3  1  0
  2  7  1  0
  2  6  1  0
  2  3  1  0
  3  4  1  0
  4  8  1  0
  4  5  1  0
  5  9  1  0
  5 10  1  0
M  END
>  <rmg_smiles>  (2) 
[CH2][CH][CH][CH2]

>  <rmg_adjacency_list>  (2) 
1  C u0 p0 c0 {2,S} {3,S} {5,S}
2  C u0 p0 c0 {1,S} {4,S} {6,S}
3  C u0 p0 c0 {1,S} {7,S} {8,S}
4  C u0 p0 c0 {2,S} {9,S} {10,S}
5  H u0 p0 c0 {1,S}
6  H u0 p0 c0 {2,S}
7  H u0 p0 c0 {3,S}
8  H u0 p0 c0 {3,S}
9  H u0 p0 c0 {4,S}
10 H u0 p0 c0 {4,S}


>  <multiplicity>  (2) 
1

>  <reaction>  (2) 
rxn_1232

>  <type>  (2) 
r2h

>  <role_mapnums>  (2) 
{"r2h_a": 3, "r2h_h": 1}

>  <role_mapidx>  (2) 
{"r2h_a": 2, "r2h_h": 0}

>  <ordered_mapped_smiles>  (2) 
[H:1][CH:3]([CH:2]([H:6])[H:7])[CH:4]([CH:5]([H:9])[H:10])[H:8]

>  <mol_properties>  (2) 
{"0": {"label": "a_hydrogen", "atom_type": "H0"}, "2": {"label": "acceptor", "atom_type": "Cs"}}

>  <level_of_theory>  (2) 
wb97xd/def2tzvp

>  <lot_method>  (2) 
wb97xd

>  <lot_basis>  (2) 
def2tzvp

>  <spin_multiplicity>  (2) 
1.0

>  <optical_isomers>  (2) 
1.0

>  <modes>  (2) 
IdealGasTranslation(mass=(54.047, 'amu')),         NonlinearRotor(             inertia = ([11.9182, 113.061, 124.979

>  <frequency_value>  (2) 
unknown

>  <frequency_units>  (2) 
unknown

>  <frequency_list>  (2) 
unknown

>  <arkane_path>  (2) 
/home/calvin/Dropbox/PersonalFolders/Calvin/HAb_Converged/rxn_1232/output/Species/rxn_1232_C=CC=C/arkane/output.py

>  <path_exists>  (2) 
True

>  <E0_value>  (2) 
-409338.1696024378

>  <E0_units>  (2) 
kJ/mol

>  <thermo_class>  (2) 
NASA

>  <Cp0_value>  (2) 
33.257888

>  <Cp0_units>  (2) 
J/(mol*K)

>  <CpInf_value>  (2) 
232.805216

>  <CpInf_units>  (2) 
J/(mol*K)

>  <Tmin_value>  (2) 
10.0

>  <Tmin_units>  (2) 
K

>  <Tmax_value>  (2) 
3000.0

>  <Tmax_units>  (2) 
K

>  <polynomials>  (2) 
[{"name": "polynomial1", "class": "NASAPolynomial", "Tmin_value": 10.0, "Tmin_units": "K", "Tmax_value": 477.25150837589547, "Tmax_units": "K", "coeffs": [3.9644918263777202, 0.0020596769963902215, 8.674853780374631e-05, -1.450839919461119e-07, 7.838009270341474e-11, -49232008.066253, 7.365433669817705]}, {"name": "polynomial2", "class": "NASAPolynomial", "Tmin_value": 477.25150837589547, "Tmin_units": "K", "Tmax_value": 3000.0, "Tmax_units": "K", "coeffs": [-0.2016346126607574, 0.03684948174336166, -2.2193862153022103e-05, 6.534948821102615e-09, -7.488372760157006e-13, -49231608.95215794, 24.398107945208505]}]

>  <H298_value>  (2) 
-97830.61157155824

>  <H298_units>  (2) 
kcal/mol

>  <S298_value>  (2) 
66.15772377359508

>  <S298_units>  (2) 
cal/(mol*K)

>  <Cp_T_value_list>  (2) 
[18.098233407620363, 22.632858336014493, 26.717409141232952, 30.270647037570512, 35.994368828752485, 40.221251390017414, 46.50234453691136, 49.720054530985024, 51.45868146938158]

>  <Cp_T_units>  (2) 
cal/(mol*K)

>  <T_list>  (2) 
[300.0, 400.0, 500.0, 600.0, 800.0, 1000.0, 1500.0, 2000.0, 2400.0]

>  <T_units>  (2) 
K

>  <yaml_path>  (2) 
/home/calvin/Dropbox/PersonalFolders/Calvin/HAb_Converged/rxn_1232/output/Species/rxn_1232_C=CC=C/rxn_1232_C=CC=C.yml

>  <frequencies_cm1>  (2) 
[162.86429083444, 299.37995899604, 518.85567680856, 535.67292385724, 782.5273121405999, 895.6128263903599, 951.29034336492, 952.5882035904, 1000.9317802431998, 1006.4047675432399, 1052.23502756892, 1221.82209703164, 1311.4568564135998, 1314.3066553213998, 1409.56547568044, 1464.2884816955202, 1663.07397273888, 1726.1678338590398, 3116.4851496875194, 3119.6920318319594, 3127.2663166399198, 3132.3341518060793, 3211.3044829860796, 3211.503625560359]

>  <ZPE_kJmol>  (2) 
222.43148839891296

>  <E_elec_kJmol>  (2) 
-409560.6010908368

>  <E0_minus_Eelec_plus_ZPE_kJmol>  (2) 
0.0

>  <rxn>  (2) 
rxn_1232

>  <species_type>  (2) 
p0

>  <species_folder>  (2) 
rxn_1232_C=CC=C

>  <frequencies_cm1_list>  (2) 
[162.86429083444, 299.37995899604, 518.85567680856, 535.67292385724, 782.5273121405999, 895.6128263903599, 951.29034336492, 952.5882035904, 1000.9317802431998, 1006.4047675432399, 1052.23502756892, 1221.82209703164, 1311.4568564135998, 1314.3066553213998, 1409.56547568044, 1464.2884816955202, 1663.07397273888, 1726.1678338590398, 3116.4851496875194, 3119.6920318319594, 3127.2663166399198, 3132.3341518060793, 3211.3044829860796, 3211.503625560359]

>  <E0_kJmol>  (2) 
-409338

>  <H298_kJmol>  (2) 
-409323

$$$$

     RDKit          3D

 16 14  0  0  0  0  0  0  0  0999 V2000
    0.7779   -1.4242   -2.8193 C   0  0  0  0  0  0  0  0  0  1  0  0
    0.1915   -1.4396   -1.7708 C   0  0  0  0  0  0  0  0  0  2  0  0
   -0.4811   -1.4047   -0.5097 C   0  0  0  0  0  0  0  0  0  3  0  0
    1.2887   -1.4279   -3.7518 H   0  0  0  0  0  0  0  0  0  4  0  0
   -0.1485   -0.3323    0.0783 H   0  0  0  0  0  0  0  0  0  5  0  0
   -0.1727   -2.1943    0.1732 H   0  0  0  0  0  0  0  0  0  6  0  0
   -1.5646   -1.3426   -0.5928 H   0  0  0  0  0  0  0  0  0  7  0  0
    1.1239    1.5531   -0.1377 C   0  0  0  0  0  0  0  0  0  8  0  0
    0.2929    0.9017    0.6484 C   0  0  0  0  0  3  0  0  0  9  0  0
   -0.2372    1.2108    1.9554 C   0  0  0  0  0  0  0  0  0 10  0  0
   -1.0817    0.4392    2.6321 C   0  0  0  0  0  0  0  0  0 11  0  0
    1.4125    1.1551   -1.1047 H   0  0  0  0  0  0  0  0  0 12  0  0
    1.5497    2.5116    0.1544 H   0  0  0  0  0  0  0  0  0 13  0  0
    0.0974    2.1514    2.3931 H   0  0  0  0  0  0  0  0  0 14  0  0
   -1.4447    0.7256    3.6102 H   0  0  0  0  0  0  0  0  0 15  0  0
   -1.4349   -0.5019    2.2276 H   0  0  0  0  0  0  0  0  0 16  0  0
  1  4  1  0
  1  2  1  0
  2  3  1  0
  3  6  1  0
  3  7  1  0
  3  5  1  0
  8  9  1  0
  8 13  1  0
  8 12  1  0
  9 10  1  0
 10 14  1  0
 10 11  1  0
 11 16  1  0
 11 15  1  0
M  RAD  1   9   2
M  END
>  <rmg_smiles>  (3) 
[CH2][C][CH][CH2].[CH]CC

>  <rmg_adjacency_list>  (3) 
multiplicity 2
1  C u0 p0 c0 {6,S} {8,S} {9,S} {10,S}
2  C u0 p0 c0 {3,S} {5,S} {11,S}
3  C u0 p0 c0 {2,S} {12,S} {13,S}
4  C u0 p0 c0 {5,S} {14,S} {15,S}
5  C u1 p1 c0 {2,S} {4,S}
6  C u0 p1 c0 {1,S} {7,S}
7  C u0 p1 c0 {6,S} {16,S}
8  H u0 p0 c0 {1,S}
9  H u0 p0 c0 {1,S}
10 H u0 p0 c0 {1,S}
11 H u0 p0 c0 {2,S}
12 H u0 p0 c0 {3,S}
13 H u0 p0 c0 {3,S}
14 H u0 p0 c0 {4,S}
15 H u0 p0 c0 {4,S}
16 H u0 p0 c0 {7,S}


>  <multiplicity>  (3) 
2

>  <reaction>  (3) 
rxn_1232

>  <type>  (3) 
ts

>  <role_mapnums>  (3) 
{"*2": 5, "*1": 3, "*3": 9, "*0": 2, "*4": 10}

>  <role_mapidx>  (3) 
{"*2": 4, "*1": 2, "*3": 8, "*0": 1, "*4": 9}

>  <ordered_mapped_smiles>  (3) 
[CH2:1]([CH2:2][C:3]([H:5])([H:6])[H:7])[H:4].[CH:8]([CH:9][CH:10]([CH:11]([H:15])[H:16])[H:14])([H:12])[H:13]

>  <mol_properties>  (3) 
{"1": {"label": "*0", "atom_type": "C2s"}, "2": {"label": "*1", "atom_type": "Cs"}, "4": {"label": "*2", "atom_type": "H0"}, "8": {"label": "*3", "atom_type": "C2s"}, "9": {"label": "*4", "atom_type": "Cs"}}

>  <level_of_theory>  (3) 
wb97xd/def2tzvp

>  <lot_method>  (3) 
wb97xd

>  <lot_basis>  (3) 
def2tzvp

>  <spin_multiplicity>  (3) 
2.0

>  <optical_isomers>  (3) 
1.0

>  <modes>  (3) 
IdealGasTranslation(mass=(93.0704, 'amu')),         NonlinearRotor(             inertia = ([108.744, 410.13, 515.603

>  <frequency_value>  (3) 
-1555.1

>  <frequency_units>  (3) 
cm^-1

>  <frequency_list>  (3) 
unknown

>  <arkane_path>  (3) 
/home/calvin/Dropbox/PersonalFolders/Calvin/HAb_Converged/rxn_1232/output/rxns/TS0/arkane/output.py

>  <path_exists>  (3) 
True

>  <E0_value>  (3) 
-713690.0

>  <E0_units>  (3) 
kJ/mol

>  <thermo_class>  (3) 
unknown

>  <Cp0_value>  (3) 
unknown

>  <Cp0_units>  (3) 
unknown

>  <CpInf_value>  (3) 
unknown

>  <CpInf_units>  (3) 
unknown

>  <Tmin_value>  (3) 
unknown

>  <Tmin_units>  (3) 
unknown

>  <Tmax_value>  (3) 
unknown

>  <Tmax_units>  (3) 
unknown

>  <polynomials>  (3) 
unknown

>  <H298_value>  (3) 
unknown

>  <H298_units>  (3) 
unknown

>  <S298_value>  (3) 
unknown

>  <S298_units>  (3) 
unknown

>  <Cp_T_value_list>  (3) 
unknown

>  <Cp_T_units>  (3) 
unknown

>  <T_list>  (3) 
unknown

>  <T_units>  (3) 
unknown

>  <yaml_path>  (3) 
unknown

>  <frequencies_cm1>  (3) 
unknown

>  <ZPE_kJmol>  (3) 
unknown

>  <E_elec_kJmol>  (3) 
unknown

>  <E0_minus_Eelec_plus_ZPE_kJmol>  (3) 
unknown

>  <rxn>  (3) 
unknown

>  <species_type>  (3) 
unknown

>  <species_folder>  (3) 
unknown

>  <frequencies_cm1_list>  (3) 
[]

>  <ts_imag_freq_cm1>  (3) 
-1573.9923

>  <ts_freq_out_path>  (3) 
/home/calvin/Dropbox/PersonalFolders/Calvin/HAb_Converged/rxn_1232/output/rxns/TS0/geometry/freq.out

>  <E0_kJmol>  (3) 
-713690

>  <H298_kJmol>  (3) 
unknown

$$$$

     RDKit          3D

  6  5  0  0  0  0  0  0  0  0999 V2000
    1.4968   -0.0097    0.1113 C   0  0  0  0  0  0  0  0  0  1  0  0
    0.2829   -0.0018    0.0210 C   0  0  0  0  0  0  0  0  0  2  0  0
   -1.0795    0.0070   -0.0803 C   0  0  0  0  0  3  0  0  0  3  0  0
    2.5571   -0.0165    0.1902 H   0  0  0  0  0  0  0  0  0  4  0  0
   -1.6181    0.9389   -0.1832 H   0  0  0  0  0  0  0  0  0  5  0  0
   -1.6393   -0.9179   -0.0591 H   0  0  0  0  0  0  0  0  0  6  0  0
  1  4  1  0
  1  2  1  0
  2  3  1  0
  3  6  1  0
  3  5  1  0
M  RAD  1   3   2
M  END
>  <rmg_smiles>  (4) 
[CH]C[CH2]

>  <rmg_adjacency_list>  (4) 
multiplicity 2
1 C u1 p0 c0 {2,S} {4,S} {5,S}
2 C u0 p1 c0 {1,S} {3,S}
3 C u0 p1 c0 {2,S} {6,S}
4 H u0 p0 c0 {1,S}
5 H u0 p0 c0 {1,S}
6 H u0 p0 c0 {3,S}


>  <multiplicity>  (4) 
2

>  <reaction>  (4) 
rxn_1232

>  <type>  (4) 
r1

>  <role_mapnums>  (4) 
{}

>  <role_mapidx>  (4) 
{}

>  <ordered_mapped_smiles>  (4) 
[CH2:1]([CH2:2][C:3]([H:5])[H:6])[H:4]

>  <level_of_theory>  (4) 
wb97xd/def2tzvp

>  <lot_method>  (4) 
wb97xd

>  <lot_basis>  (4) 
def2tzvp

>  <spin_multiplicity>  (4) 
2.0

>  <optical_isomers>  (4) 
1.0

>  <modes>  (4) 
IdealGasTranslation(mass=(39.0235, 'amu')),         NonlinearRotor(             inertia = ([1.74527, 52.5377, 54.2829

>  <frequency_value>  (4) 
unknown

>  <frequency_units>  (4) 
unknown

>  <frequency_list>  (4) 
unknown

>  <arkane_path>  (4) 
/home/calvin/Dropbox/PersonalFolders/Calvin/HAb_Converged/rxn_1232/output/Species/rxn_1232_CtC[CH2]/arkane/output.py

>  <path_exists>  (4) 
True

>  <E0_value>  (4) 
-304448.46556643327

>  <E0_units>  (4) 
kJ/mol

>  <thermo_class>  (4) 
NASA

>  <Cp0_value>  (4) 
33.257888

>  <Cp0_units>  (4) 
J/(mol*K)

>  <CpInf_value>  (4) 
133.031552

>  <CpInf_units>  (4) 
J/(mol*K)

>  <Tmin_value>  (4) 
10.0

>  <Tmin_units>  (4) 
K

>  <Tmax_value>  (4) 
3000.0

>  <Tmax_units>  (4) 
K

>  <polynomials>  (4) 
[{"name": "polynomial1", "class": "NASAPolynomial", "Tmin_value": 10.0, "Tmin_units": "K", "Tmax_value": 545.4322858033976, "Tmax_units": "K", "coeffs": [3.9499603218219184, 0.003017565134064686, 5.5663880593738125e-05, -1.145891938777454e-07, 7.087527216200762e-11, -36616690.41912999, 5.464661756584002]}, {"name": "polynomial2", "class": "NASAPolynomial", "Tmin_value": 545.4322858033976, "Tmin_units": "K", "Tmax_value": 3000.0, "Tmax_units": "K", "coeffs": [3.789373911177466, 0.015460066047789113, -9.533910331026645e-06, 2.9656464623318287e-09, -3.6191150968379614e-13, -36616840.46347278, 4.606005615672744]}]

>  <H298_value>  (4) 
-72761.72685205255

>  <H298_units>  (4) 
kcal/mol

>  <S298_value>  (4) 
60.54560432912815

>  <S298_units>  (4) 
cal/(mol*K)

>  <Cp_T_value_list>  (4) 
[14.596350865656005, 16.978505208172123, 18.840244425047544, 20.322925848209742, 22.70561515204646, 24.480922661541676, 27.23477345925829, 28.831290583038445, 29.744408163505042]

>  <Cp_T_units>  (4) 
cal/(mol*K)

>  <T_list>  (4) 
[300.0, 400.0, 500.0, 600.0, 800.0, 1000.0, 1500.0, 2000.0, 2400.0]

>  <T_units>  (4) 
K

>  <yaml_path>  (4) 
/home/calvin/Dropbox/PersonalFolders/Calvin/HAb_Converged/rxn_1232/output/Species/rxn_1232_CtC[CH2]/rxn_1232_CtCCH2.yml

>  <frequencies_cm1>  (4) 
[355.94331707688, 407.51437683008004, 504.51054447508, 653.44172209524, 683.5053838262, 1024.2589293752399, 1075.37676809732, 1445.76135530216, 1997.3313501752, 3133.58394313432, 3230.4359040876, 3427.03082681388]

>  <ZPE_kJmol>  (4) 
107.29725110288972

>  <E_elec_kJmol>  (4) 
-304555.76281753613

>  <E0_minus_Eelec_plus_ZPE_kJmol>  (4) 
0.0

>  <rxn>  (4) 
rxn_1232

>  <species_type>  (4) 
p1

>  <species_folder>  (4) 
rxn_1232_CtC[CH2]

>  <frequencies_cm1_list>  (4) 
[355.94331707688, 407.51437683008004, 504.51054447508, 653.44172209524, 683.5053838262, 1024.2589293752399, 1075.37676809732, 1445.76135530216, 1997.3313501752, 3133.58394313432, 3230.4359040876, 3427.03082681388]

>  <E0_kJmol>  (4) 
-304448

>  <H298_kJmol>  (4) 
-304435

$$$$

     RDKit          3D

  9  8  0  0  0  0  0  0  0  0999 V2000
    1.8963   -0.1405   -0.2150 C   0  0  0  0  0  0  0  0  0  1  0  0
    0.6340    0.1486   -0.2254 C   0  0  0  0  0  3  0  0  0  2  0  0
   -0.6770    0.4501   -0.2373 C   0  0  0  0  0  0  0  0  0  3  0  0
   -1.6600   -0.2303    0.4662 C   0  0  0  0  0  0  0  0  0  4  0  0
    2.3274   -0.8354   -0.9313 H   0  0  0  0  0  0  0  0  0  5  0  0
    2.5751    0.2988    0.5117 H   0  0  0  0  0  0  0  0  0  6  0  0
   -0.9723    1.2966   -0.8520 H   0  0  0  0  0  0  0  0  0  7  0  0
   -2.6934    0.0777    0.4015 H   0  0  0  0  0  0  0  0  0  8  0  0
   -1.4140   -1.0782    1.0904 H   0  0  0  0  0  0  0  0  0  9  0  0
  1  5  1  0
  1  6  1  0
  1  2  1  0
  2  3  1  0
  3  4  1  0
  3  7  1  0
  4  8  1  0
  4  9  1  0
M  RAD  1   2   2
M  END
>  <rmg_smiles>  (5) 
[CH2][C][CH][CH2]

>  <rmg_adjacency_list>  (5) 
multiplicity 2
1 C u0 p0 c0 {2,S} {4,S} {5,S}
2 C u0 p0 c0 {1,S} {6,S} {7,S}
3 C u0 p0 c0 {4,S} {8,S} {9,S}
4 C u1 p1 c0 {1,S} {3,S}
5 H u0 p0 c0 {1,S}
6 H u0 p0 c0 {2,S}
7 H u0 p0 c0 {2,S}
8 H u0 p0 c0 {3,S}
9 H u0 p0 c0 {3,S}


>  <multiplicity>  (5) 
2

>  <reaction>  (5) 
rxn_1232

>  <type>  (5) 
r2

>  <role_mapnums>  (5) 
{}

>  <role_mapidx>  (5) 
{}

>  <ordered_mapped_smiles>  (5) 
[CH:1]([CH:2][CH:3]([CH:4]([H:8])[H:9])[H:7])([H:5])[H:6]

>  <level_of_theory>  (5) 
wb97xd/def2tzvp

>  <lot_method>  (5) 
wb97xd

>  <lot_basis>  (5) 
def2tzvp

>  <spin_multiplicity>  (5) 
2.0

>  <optical_isomers>  (5) 
1.0

>  <modes>  (5) 
IdealGasTranslation(mass=(53.0391, 'amu')),         NonlinearRotor(             inertia = ([12.0347, 113.266, 121.844

>  <frequency_value>  (5) 
unknown

>  <frequency_units>  (5) 
unknown

>  <frequency_list>  (5) 
unknown

>  <arkane_path>  (5) 
/home/calvin/Dropbox/PersonalFolders/Calvin/HAb_Converged/rxn_1232/output/Species/rxn_1232_C=[C]C=C/arkane/output.py

>  <path_exists>  (5) 
True

>  <E0_value>  (5) 
-407618.73102202936

>  <E0_units>  (5) 
kJ/mol

>  <thermo_class>  (5) 
NASA

>  <Cp0_value>  (5) 
33.257888

>  <Cp0_units>  (5) 
J/(mol*K)

>  <CpInf_value>  (5) 
207.8618

>  <CpInf_units>  (5) 
J/(mol*K)

>  <Tmin_value>  (5) 
10.0

>  <Tmin_units>  (5) 
K

>  <Tmax_value>  (5) 
3000.0

>  <Tmax_units>  (5) 
K

>  <polynomials>  (5) 
[{"name": "polynomial1", "class": "NASAPolynomial", "Tmin_value": 10.0, "Tmin_units": "K", "Tmax_value": 513.96992949071, "Tmax_units": "K", "coeffs": [3.9420802999541826, 0.0035685760014192327, 9.465791812405604e-05, -1.8686526671215408e-07, 1.1507173469765572e-10, -49025207.15718319, 8.65621190884103]}, {"name": "polynomial2", "class": "NASAPolynomial", "Tmin_value": 513.96992949071, "Tmin_units": "K", "Tmax_value": 3000.0, "Tmax_units": "K", "coeffs": [2.0283894812979866, 0.030453216730392172, -1.8799715383868938e-05, 5.69276117666148e-09, -6.699501956082314e-13, -49025168.8245439, 15.074146021629948]}]

>  <H298_value>  (5) 
-97419.52636783152

>  <H298_units>  (5) 
kcal/mol

>  <S298_value>  (5) 
69.47182773714773

>  <S298_units>  (5) 
cal/(mol*K)

>  <Cp_T_value_list>  (5) 
[18.71667250989835, 22.85533281432161, 26.28015598227693, 29.162718122858536, 33.78137212963757, 37.17010503303923, 42.188992301862434, 44.829088783976054, 46.30020231473576]

>  <Cp_T_units>  (5) 
cal/(mol*K)

>  <T_list>  (5) 
[300.0, 400.0, 500.0, 600.0, 800.0, 1000.0, 1500.0, 2000.0, 2400.0]

>  <T_units>  (5) 
K

>  <yaml_path>  (5) 
/home/calvin/Dropbox/PersonalFolders/Calvin/HAb_Converged/rxn_1232/output/Species/rxn_1232_C=[C]C=C/rxn_1232_C=CC=C.yml

>  <frequencies_cm1>  (5) 
[209.82760343791998, 213.04821955299997, 498.83154761543994, 525.2763080827599, 574.87654304912, 748.94088694048, 893.75874035396, 905.4944182658398, 936.5057239709599, 975.15311735192, 1080.3828003955998, 1184.87084902472, 1365.78157728012, 1440.54244645896, 1485.45939743708, 1902.75236136284, 3071.21111547276, 3118.0645563111198, 3138.67237925644, 3141.51531117892, 3241.1690021427603]

>  <ZPE_kJmol>  (5) 
183.34053407098105

>  <E_elec_kJmol>  (5) 
-407802.07155610033

>  <E0_minus_Eelec_plus_ZPE_kJmol>  (5) 
0.0

>  <rxn>  (5) 
rxn_1232

>  <species_type>  (5) 
r1

>  <species_folder>  (5) 
rxn_1232_C=[C]C=C

>  <frequencies_cm1_list>  (5) 
[209.82760343791998, 213.04821955299997, 498.83154761543994, 525.2763080827599, 574.87654304912, 748.94088694048, 893.75874035396, 905.4944182658398, 936.5057239709599, 975.15311735192, 1080.3828003955998, 1184.87084902472, 1365.78157728012, 1440.54244645896, 1485.45939743708, 1902.75236136284, 3071.21111547276, 3118.0645563111198, 3138.67237925644, 3141.51531117892, 3241.1690021427603]

>  <E0_kJmol>  (5) 
-407619

>  <H298_kJmol>  (5) 
-407603

$$$$
