
     RDKit          3D

 14 13  0  0  0  0  0  0  0  0999 V2000
    0.3277   -0.2401   -1.4065 C   0  0  0  0  0  0  0  0  0  1  0  0
    0.2462   -0.1457    0.1020 C   0  0  0  0  0  0  0  0  0  2  0  0
    0.3737    1.2704    0.6211 C   0  0  0  0  0  0  0  0  0  3  0  0
   -0.9290   -0.8959    0.6911 C   0  0  0  0  0  0  0  0  0  4  0  0
    1.2390    0.2290   -1.7828 H   0  0  0  0  0  0  0  0  0  5  0  0
   -0.5255    0.2655   -1.8725 H   0  0  0  0  0  0  0  0  0  6  0  0
    0.3186   -1.2799   -1.7398 H   0  0  0  0  0  0  0  0  0  7  0  0
    1.1313   -0.6647    0.4699 H   0  0  0  0  0  0  0  0  0  8  0  0
   -0.4795    1.8788    0.3002 H   0  0  0  0  0  0  0  0  0  9  0  0
    0.4019    1.2905    1.7127 H   0  0  0  0  0  0  0  0  0 10  0  0
    1.2807    1.7492    0.2458 H   0  0  0  0  0  0  0  0  0 11  0  0
   -0.9403   -1.9369    0.3614 H   0  0  0  0  0  0  0  0  0 12  0  0
   -1.8751   -0.4389    0.3800 H   0  0  0  0  0  0  0  0  0 13  0  0
   -0.8970   -0.8857    1.7824 H   0  0  0  0  0  0  0  0  0 14  0  0
  1  5  1  0
  1  7  1  0
  1  6  1  0
  1  2  1  0
  2  8  1  0
  2  3  1  0
  2  4  1  0
  3 11  1  0
  3  9  1  0
  3 10  1  0
  4 14  1  0
  4 13  1  0
  4 12  1  0
M  END
>  <rmg_smiles>  (1) 
CC(C)C

>  <rmg_adjacency_list>  (1) 
1  C u0 p0 c0 {2,S} {3,S} {4,S} {5,S}
2  C u0 p0 c0 {1,S} {6,S} {7,S} {8,S}
3  C u0 p0 c0 {1,S} {9,S} {10,S} {11,S}
4  C u0 p0 c0 {1,S} {12,S} {13,S} {14,S}
5  H u0 p0 c0 {1,S}
6  H u0 p0 c0 {2,S}
7  H u0 p0 c0 {2,S}
8  H u0 p0 c0 {2,S}
9  H u0 p0 c0 {3,S}
10 H u0 p0 c0 {3,S}
11 H u0 p0 c0 {3,S}
12 H u0 p0 c0 {4,S}
13 H u0 p0 c0 {4,S}
14 H u0 p0 c0 {4,S}


>  <multiplicity>  (1) 
1

>  <reaction>  (1) 
rxn_337

>  <type>  (1) 
r1h

>  <role_mapnums>  (1) 
{"r1h_a": 2, "r1h_h": 8}

>  <role_mapidx>  (1) 
{"r1h_a": 1, "r1h_h": 7}

>  <ordered_mapped_smiles>  (1) 
[C:1]([C:2]([C:3]([H:9])([H:10])[H:11])([C:4]([H:12])([H:13])[H:14])[H:8])([H:5])([H:6])[H:7]

>  <mol_properties>  (1) 
{"1": {"label": "donator", "atom_type": "Cs"}, "7": {"label": "d_hydrogen", "atom_type": "H0"}}

>  <level_of_theory>  (1) 
wb97xd/def2tzvp

>  <lot_method>  (1) 
wb97xd

>  <lot_basis>  (1) 
def2tzvp

>  <spin_multiplicity>  (1) 
1.0

>  <optical_isomers>  (1) 
1.0

>  <modes>  (1) 
IdealGasTranslation(mass=(58.0782, 'amu')),         NonlinearRotor(             inertia = ([64.4721, 64.4729, 111.216

>  <frequency_value>  (1) 
unknown

>  <frequency_units>  (1) 
unknown

>  <frequency_list>  (1) 
unknown

>  <arkane_path>  (1) 
/home/calvin/Dropbox/PersonalFolders/Calvin/HAb_Converged/rxn_337/output/Species/rxn_337_CC[C]C/arkane/output.py

>  <path_exists>  (1) 
True

>  <E0_value>  (1) 
-415716.8399007625

>  <E0_units>  (1) 
kJ/mol

>  <thermo_class>  (1) 
NASA

>  <Cp0_value>  (1) 
33.257888

>  <Cp0_units>  (1) 
J/(mol*K)

>  <CpInf_value>  (1) 
332.57888

>  <CpInf_units>  (1) 
J/(mol*K)

>  <Tmin_value>  (1) 
10.0

>  <Tmin_units>  (1) 
K

>  <Tmax_value>  (1) 
3000.0

>  <Tmax_units>  (1) 
K

>  <polynomials>  (1) 
[{"name": "polynomial1", "class": "NASAPolynomial", "Tmin_value": 10.0, "Tmin_units": "K", "Tmax_value": 538.0165390042026, "Tmax_units": "K", "coeffs": [3.8628595210938514, 0.00955545306725078, 8.506881453218307e-05, -1.3148539407702564e-07, 6.36229780764284e-11, -49999182.49975995, 7.558204582576846]}, {"name": "polynomial2", "class": "NASAPolynomial", "Tmin_value": 538.0165390042026, "Tmin_units": "K", "Tmax_value": 3000.0, "Tmax_units": "K", "coeffs": [-1.5278328531134768, 0.0496337321633869, -2.6670203190733625e-05, 6.972625392893768e-09, -7.142948818020902e-13, -49998602.44363122, 30.223670498269733]}]

>  <H298_value>  (1) 
-99354.53433256458

>  <H298_units>  (1) 
kcal/mol

>  <S298_value>  (1) 
69.8614436265519

>  <S298_units>  (1) 
cal/(mol*K)

>  <Cp_T_value_list>  (1) 
[22.55664036073837, 28.833837912719567, 34.6738750881522, 39.87259847688405, 48.46326056140647, 55.033749758040095, 65.2425749305074, 70.36917556817667, 72.85841755162457]

>  <Cp_T_units>  (1) 
cal/(mol*K)

>  <T_list>  (1) 
[300.0, 400.0, 500.0, 600.0, 800.0, 1000.0, 1500.0, 2000.0, 2400.0]

>  <T_units>  (1) 
K

>  <yaml_path>  (1) 
/home/calvin/Dropbox/PersonalFolders/Calvin/HAb_Converged/rxn_337/output/Species/rxn_337_CC[C]C/rxn_337_CCCC.yml

>  <frequencies_cm1>  (1) 
[211.12546366339998, 262.53171576892, 263.39008893391997, 369.1347958765999, 369.49187911324, 435.27073149352003, 804.0209761921999, 925.2026661342398, 925.3949417231998, 953.3298380049599, 976.11449529672, 976.4029086801601, 1191.09233772464, 1191.1335396365598, 1204.1602107886, 1353.0707874528, 1353.1943931885598, 1393.2083166481998, 1393.482996061, 1417.40070593056, 1467.51596479592, 1474.1014037178, 1474.24561040952, 1492.539259302, 1492.5873281992401, 1500.97878426028, 2997.8923132111195, 2999.96614277776, 3000.0416796162795, 3005.4047951512002, 3068.60852803648, 3068.7183998016, 3077.36393431948, 3079.6025715337996, 3083.1528029442397, 3083.3794134597997]

>  <ZPE_kJmol>  (1) 
342.9350858208115

>  <E_elec_kJmol>  (1) 
-416059.7749865833

>  <E0_minus_Eelec_plus_ZPE_kJmol>  (1) 
0.0

>  <rxn>  (1) 
rxn_337

>  <species_type>  (1) 
r1

>  <species_folder>  (1) 
rxn_337_CC[C]C

>  <frequencies_cm1_list>  (1) 
[211.12546366339998, 262.53171576892, 263.39008893391997, 369.1347958765999, 369.49187911324, 435.27073149352003, 804.0209761921999, 925.2026661342398, 925.3949417231998, 953.3298380049599, 976.11449529672, 976.4029086801601, 1191.09233772464, 1191.1335396365598, 1204.1602107886, 1353.0707874528, 1353.1943931885598, 1393.2083166481998, 1393.482996061, 1417.40070593056, 1467.51596479592, 1474.1014037178, 1474.24561040952, 1492.539259302, 1492.5873281992401, 1500.97878426028, 2997.8923132111195, 2999.96614277776, 3000.0416796162795, 3005.4047951512002, 3068.60852803648, 3068.7183998016, 3077.36393431948, 3079.6025715337996, 3083.1528029442397, 3083.3794134597997]

>  <E0_kJmol>  (1) 
-415717

>  <H298_kJmol>  (1) 
-415699

$$$$

     RDKit          3D

  6  5  0  0  0  0  0  0  0  0999 V2000
   -0.3759   -0.3986   -0.3498 C   0  0  0  0  0  0  0  0  0  1  0  0
    0.4043    0.3807    0.3612 C   0  0  0  0  0  0  0  0  0  2  0  0
   -0.2350   -1.4457   -0.5928 H   0  0  0  0  0  0  0  0  0  3  0  0
    1.3315    0.0227    0.8048 H   0  0  0  0  0  0  0  0  0  4  0  0
    0.1573    1.4234    0.5392 H   0  0  0  0  0  0  0  0  0  5  0  0
   -1.2766    0.0548   -0.7477 H   0  0  0  0  0  0  0  0  0  6  0  0
  1  3  1  0
  1  6  1  0
  1  2  1  0
  2  4  1  0
  2  5  1  0
M  END
>  <rmg_smiles>  (2) 
[CH2][CH2]

>  <rmg_adjacency_list>  (2) 
1 C u0 p0 c0 {2,S} {3,S} {6,S}
2 C u0 p0 c0 {1,S} {4,S} {5,S}
3 H u0 p0 c0 {1,S}
4 H u0 p0 c0 {2,S}
5 H u0 p0 c0 {2,S}
6 H u0 p0 c0 {1,S}


>  <multiplicity>  (2) 
1

>  <reaction>  (2) 
rxn_337

>  <type>  (2) 
r2h

>  <role_mapnums>  (2) 
{"r2h_a": 1, "r2h_h": 6}

>  <role_mapidx>  (2) 
{"r2h_a": 0, "r2h_h": 5}

>  <ordered_mapped_smiles>  (2) 
[CH:1]([CH:2]([H:4])[H:5])([H:3])[H:6]

>  <mol_properties>  (2) 
{"0": {"label": "acceptor", "atom_type": "Cs"}, "5": {"label": "a_hydrogen", "atom_type": "H0"}}

>  <level_of_theory>  (2) 
wb97xd/def2tzvp

>  <lot_method>  (2) 
wb97xd

>  <lot_basis>  (2) 
def2tzvp

>  <spin_multiplicity>  (2) 
1.0

>  <optical_isomers>  (2) 
1.0

>  <modes>  (2) 
IdealGasTranslation(mass=(28.0313, 'amu')),         NonlinearRotor(             inertia = ([3.4313, 16.5733, 20.0046

>  <frequency_value>  (2) 
unknown

>  <frequency_units>  (2) 
unknown

>  <frequency_list>  (2) 
unknown

>  <arkane_path>  (2) 
/home/calvin/Dropbox/PersonalFolders/Calvin/HAb_Converged/rxn_337/output/Species/rxn_337_C=C/arkane/output.py

>  <path_exists>  (2) 
True

>  <E0_value>  (2) 
-206204.08464717612

>  <E0_units>  (2) 
kJ/mol

>  <thermo_class>  (2) 
NASA

>  <Cp0_value>  (2) 
33.257888

>  <Cp0_units>  (2) 
J/(mol*K)

>  <CpInf_value>  (2) 
133.031552

>  <CpInf_units>  (2) 
J/(mol*K)

>  <Tmin_value>  (2) 
10.0

>  <Tmin_units>  (2) 
K

>  <Tmax_value>  (2) 
3000.0

>  <Tmax_units>  (2) 
K

>  <polynomials>  (2) 
[{"name": "polynomial1", "class": "NASAPolynomial", "Tmin_value": 10.0, "Tmin_units": "K", "Tmax_value": 769.5217501758626, "Tmax_units": "K", "coeffs": [4.102594925382579, -0.006879522193259702, 5.062107249177076e-05, -5.972223289849955e-08, 2.3228029141840905e-11, -24800625.606387716, 3.2220821404236424]}, {"name": "polynomial2", "class": "NASAPolynomial", "Tmin_value": 769.5217501758626, "Tmin_units": "K", "Tmax_value": 3000.0, "Tmax_units": "K", "coeffs": [0.4501873055486705, 0.01806199469136872, -9.606651718966085e-06, 2.51372192351987e-09, -2.587294024527882e-13, -24800239.83662215, 18.740105419928828]}]

>  <H298_value>  (2) 
-49281.46687172266

>  <H298_units>  (2) 
kcal/mol

>  <S298_value>  (2) 
52.28638692235232

>  <S298_units>  (2) 
cal/(mol*K)

>  <Cp_T_value_list>  (2) 
[10.27441708697483, 12.365536101969841, 14.515698252557122, 16.511337099494305, 19.738079638388314, 22.178263460277243, 26.036790662755205, 28.054735064109895, 29.07349068569704]

>  <Cp_T_units>  (2) 
cal/(mol*K)

>  <T_list>  (2) 
[300.0, 400.0, 500.0, 600.0, 800.0, 1000.0, 1500.0, 2000.0, 2400.0]

>  <T_units>  (2) 
K

>  <yaml_path>  (2) 
/home/calvin/Dropbox/PersonalFolders/Calvin/HAb_Converged/rxn_337/output/Species/rxn_337_C=C/rxn_337_C=C.yml

>  <frequencies_cm1>  (2) 
[832.94471836004, 977.0690062561998, 990.3016869678398, 1058.52518612204, 1234.34061127, 1375.2030811391598, 1460.7588512410398, 1695.25953293372, 3111.1769700351597, 3128.9967969405598, 3189.2477261382396, 3215.2736005010397]

>  <ZPE_kJmol>  (2) 
133.19882255210345

>  <E_elec_kJmol>  (2) 
-206337.28346972825

>  <E0_minus_Eelec_plus_ZPE_kJmol>  (2) 
0.0

>  <rxn>  (2) 
rxn_337

>  <species_type>  (2) 
p0

>  <species_folder>  (2) 
rxn_337_C=C

>  <frequencies_cm1_list>  (2) 
[832.94471836004, 977.0690062561998, 990.3016869678398, 1058.52518612204, 1234.34061127, 1375.2030811391598, 1460.7588512410398, 1695.25953293372, 3111.1769700351597, 3128.9967969405598, 3189.2477261382396, 3215.2736005010397]

>  <E0_kJmol>  (2) 
-206204

>  <H298_kJmol>  (2) 
-206194

$$$$

     RDKit          3D

 19 17  0  0  0  0  0  0  0  0999 V2000
    1.5238   -1.0464    0.6266 C   0  0  0  0  0  3  0  0  0  1  0  0
    2.3040   -0.2670    1.3377 C   0  0  0  0  0  0  0  0  0  2  0  0
    1.6647   -2.0935    0.3836 H   0  0  0  0  0  0  0  0  0  3  0  0
    3.2312   -0.6250    1.7813 H   0  0  0  0  0  0  0  0  0  4  0  0
    2.0570    0.7756    1.5157 H   0  0  0  0  0  0  0  0  0  5  0  0
   -0.6197    0.0631   -1.8385 C   0  0  0  0  0  0  0  0  0  6  0  0
   -0.7012    0.1575   -0.3301 C   0  0  0  0  0  0  0  0  0  7  0  0
   -0.5738    1.5736    0.1891 C   0  0  0  0  0  0  0  0  0  8  0  0
   -1.8765   -0.5928    0.2590 C   0  0  0  0  0  0  0  0  0  9  0  0
    0.2915    0.5322   -2.2149 H   0  0  0  0  0  0  0  0  0 10  0  0
   -1.4730    0.5686   -2.3046 H   0  0  0  0  0  0  0  0  0 11  0  0
   -0.6289   -0.9767   -2.1718 H   0  0  0  0  0  0  0  0  0 12  0  0
    0.3075   -0.4341    0.0893 H   0  0  0  0  0  0  0  0  0 13  0  0
   -1.4270    2.1819   -0.1319 H   0  0  0  0  0  0  0  0  0 14  0  0
   -0.5456    1.5937    1.2806 H   0  0  0  0  0  0  0  0  0 15  0  0
    0.3332    2.0524   -0.1862 H   0  0  0  0  0  0  0  0  0 16  0  0
   -1.8878   -1.6337   -0.0706 H   0  0  0  0  0  0  0  0  0 17  0  0
   -2.8226   -0.1357   -0.0521 H   0  0  0  0  0  0  0  0  0 18  0  0
   -1.8445   -0.5825    1.3503 H   0  0  0  0  0  0  0  0  0 19  0  0
  1  3  1  0
  1  2  1  0
  2  5  1  0
  2  4  1  0
  6 12  1  0
  6  7  1  0
  6 11  1  0
  6 10  1  0
  7 13  1  0
  7  9  1  0
  7  8  1  0
  8 14  1  0
  8 15  1  0
  8 16  1  0
  9 19  1  0
  9 17  1  0
  9 18  1  0
M  RAD  1   1   2
M  END
>  <rmg_smiles>  (3) 
CC(C)C.[CH][CH2]

>  <rmg_adjacency_list>  (3) 
multiplicity 2
1  C u0 p0 c0 {2,S} {3,S} {4,S} {7,S}
2  C u0 p0 c0 {1,S} {8,S} {9,S} {10,S}
3  C u0 p0 c0 {1,S} {11,S} {12,S} {13,S}
4  C u0 p0 c0 {1,S} {14,S} {15,S} {16,S}
5  C u0 p0 c0 {6,S} {17,S} {18,S}
6  C u1 p1 c0 {5,S} {19,S}
7  H u0 p0 c0 {1,S}
8  H u0 p0 c0 {2,S}
9  H u0 p0 c0 {2,S}
10 H u0 p0 c0 {2,S}
11 H u0 p0 c0 {3,S}
12 H u0 p0 c0 {3,S}
13 H u0 p0 c0 {3,S}
14 H u0 p0 c0 {4,S}
15 H u0 p0 c0 {4,S}
16 H u0 p0 c0 {4,S}
17 H u0 p0 c0 {5,S}
18 H u0 p0 c0 {5,S}
19 H u0 p0 c0 {6,S}


>  <multiplicity>  (3) 
2

>  <reaction>  (3) 
rxn_337

>  <type>  (3) 
ts

>  <role_mapnums>  (3) 
{"*2": 13, "*1": 7, "*3": 1, "*0": 6, "*4": 2}

>  <role_mapidx>  (3) 
{"*2": 12, "*1": 6, "*3": 0, "*0": 5, "*4": 1}

>  <ordered_mapped_smiles>  (3) 
[CH:1]([CH:2]([H:4])[H:5])[H:3].[C:6]([C:7]([C:8]([H:14])([H:15])[H:16])([C:9]([H:17])([H:18])[H:19])[H:13])([H:10])([H:11])[H:12]

>  <mol_properties>  (3) 
{"0": {"label": "*3", "atom_type": "C2s"}, "1": {"label": "*4", "atom_type": "Cs"}, "5": {"label": "*0", "atom_type": "Cs"}, "6": {"label": "*1", "atom_type": "Cs"}, "12": {"label": "*2", "atom_type": "H0"}}

>  <level_of_theory>  (3) 
wb97xd/def2tzvp

>  <lot_method>  (3) 
wb97xd

>  <lot_basis>  (3) 
def2tzvp

>  <spin_multiplicity>  (3) 
2.0

>  <optical_isomers>  (3) 
1.0

>  <modes>  (3) 
IdealGasTranslation(mass=(85.1017, 'amu')),         NonlinearRotor(             inertia = ([120.796, 285.225, 293.361

>  <frequency_value>  (3) 
-1283.8

>  <frequency_units>  (3) 
cm^-1

>  <frequency_list>  (3) 
unknown

>  <arkane_path>  (3) 
/home/calvin/Dropbox/PersonalFolders/Calvin/HAb_Converged/rxn_337/output/rxns/TS0/arkane/output.py

>  <path_exists>  (3) 
True

>  <E0_value>  (3) 
-620135.0

>  <E0_units>  (3) 
kJ/mol

>  <thermo_class>  (3) 
unknown

>  <Cp0_value>  (3) 
unknown

>  <Cp0_units>  (3) 
unknown

>  <CpInf_value>  (3) 
unknown

>  <CpInf_units>  (3) 
unknown

>  <Tmin_value>  (3) 
unknown

>  <Tmin_units>  (3) 
unknown

>  <Tmax_value>  (3) 
unknown

>  <Tmax_units>  (3) 
unknown

>  <polynomials>  (3) 
unknown

>  <H298_value>  (3) 
unknown

>  <H298_units>  (3) 
unknown

>  <S298_value>  (3) 
unknown

>  <S298_units>  (3) 
unknown

>  <Cp_T_value_list>  (3) 
unknown

>  <Cp_T_units>  (3) 
unknown

>  <T_list>  (3) 
unknown

>  <T_units>  (3) 
unknown

>  <yaml_path>  (3) 
unknown

>  <frequencies_cm1>  (3) 
unknown

>  <ZPE_kJmol>  (3) 
unknown

>  <E_elec_kJmol>  (3) 
unknown

>  <E0_minus_Eelec_plus_ZPE_kJmol>  (3) 
unknown

>  <rxn>  (3) 
unknown

>  <species_type>  (3) 
unknown

>  <species_folder>  (3) 
unknown

>  <frequencies_cm1_list>  (3) 
[]

>  <ts_imag_freq_cm1>  (3) 
-1299.3933

>  <ts_freq_out_path>  (3) 
/home/calvin/Dropbox/PersonalFolders/Calvin/HAb_Converged/rxn_337/output/rxns/TS0/geometry/freq.out

>  <E0_kJmol>  (3) 
-620135

>  <H298_kJmol>  (3) 
unknown

$$$$

     RDKit          3D

 13 12  0  0  0  0  0  0  0  0999 V2000
   -1.3649   -0.5967   -0.3477 C   0  0  0  0  0  0  0  0  0  1  0  0
   -0.1601   -0.2776    0.4669 C   0  0  0  0  0  3  0  0  0  2  0  0
    1.1241   -0.9571    0.1414 C   0  0  0  0  0  0  0  0  0  3  0  0
   -0.1188    1.0130    1.2081 C   0  0  0  0  0  0  0  0  0  4  0  0
   -1.4266   -1.6632   -0.5770 H   0  0  0  0  0  0  0  0  0  5  0  0
   -2.2858   -0.3004    0.1602 H   0  0  0  0  0  0  0  0  0  6  0  0
   -1.3532   -0.0668   -1.3138 H   0  0  0  0  0  0  0  0  0  7  0  0
    1.6174   -0.4963   -0.7297 H   0  0  0  0  0  0  0  0  0  8  0  0
    0.9723   -2.0104   -0.1064 H   0  0  0  0  0  0  0  0  0  9  0  0
    1.8338   -0.8977    0.9701 H   0  0  0  0  0  0  0  0  0 10  0  0
   -1.0852    1.2507    1.6593 H   0  0  0  0  0  0  0  0  0 11  0  0
    0.6358    1.0009    1.9983 H   0  0  0  0  0  0  0  0  0 12  0  0
    0.1343    1.8546    0.5434 H   0  0  0  0  0  0  0  0  0 13  0  0
  1  5  1  0
  1  7  1  0
  1  6  1  0
  1  2  1  0
  2  3  1  0
  2  4  1  0
  3  9  1  0
  3 10  1  0
  3  8  1  0
  4 13  1  0
  4 12  1  0
  4 11  1  0
M  RAD  1   2   2
M  END
>  <rmg_smiles>  (4) 
C[C](C)C

>  <rmg_adjacency_list>  (4) 
multiplicity 2
1  C u0 p0 c0 {4,S} {5,S} {6,S} {7,S}
2  C u0 p0 c0 {4,S} {8,S} {9,S} {10,S}
3  C u0 p0 c0 {4,S} {11,S} {12,S} {13,S}
4  C u1 p0 c0 {1,S} {2,S} {3,S}
5  H u0 p0 c0 {1,S}
6  H u0 p0 c0 {1,S}
7  H u0 p0 c0 {1,S}
8  H u0 p0 c0 {2,S}
9  H u0 p0 c0 {2,S}
10 H u0 p0 c0 {2,S}
11 H u0 p0 c0 {3,S}
12 H u0 p0 c0 {3,S}
13 H u0 p0 c0 {3,S}


>  <multiplicity>  (4) 
2

>  <reaction>  (4) 
rxn_337

>  <type>  (4) 
r1

>  <role_mapnums>  (4) 
{}

>  <role_mapidx>  (4) 
{}

>  <ordered_mapped_smiles>  (4) 
[C:1]([C:2]([C:3]([H:8])([H:9])[H:10])[C:4]([H:11])([H:12])[H:13])([H:5])([H:6])[H:7]

>  <level_of_theory>  (4) 
wb97xd/def2tzvp

>  <lot_method>  (4) 
wb97xd

>  <lot_basis>  (4) 
def2tzvp

>  <spin_multiplicity>  (4) 
2.0

>  <optical_isomers>  (4) 
1.0

>  <modes>  (4) 
IdealGasTranslation(mass=(57.0704, 'amu')),         NonlinearRotor(             inertia = ([62.7477, 62.7516, 115.628

>  <frequency_value>  (4) 
unknown

>  <frequency_units>  (4) 
unknown

>  <frequency_list>  (4) 
unknown

>  <arkane_path>  (4) 
/home/calvin/Dropbox/PersonalFolders/Calvin/HAb_Converged/rxn_337/output/Species/rxn_337_C[C][C]C/arkane/output.py

>  <path_exists>  (4) 
True

>  <E0_value>  (4) 
-414011.759910615

>  <E0_units>  (4) 
kJ/mol

>  <thermo_class>  (4) 
NASA

>  <Cp0_value>  (4) 
33.257888

>  <Cp0_units>  (4) 
J/(mol*K)

>  <CpInf_value>  (4) 
307.635464

>  <CpInf_units>  (4) 
J/(mol*K)

>  <Tmin_value>  (4) 
10.0

>  <Tmin_units>  (4) 
K

>  <Tmax_value>  (4) 
3000.0

>  <Tmax_units>  (4) 
K

>  <polynomials>  (4) 
[{"name": "polynomial1", "class": "NASAPolynomial", "Tmin_value": 10.0, "Tmin_units": "K", "Tmax_value": 466.0773531014103, "Tmax_units": "K", "coeffs": [3.635506110320935, 0.03664682579439356, -8.0506459033594e-05, 2.070018999004206e-07, -1.731339890736475e-10, -49794112.65435313, 8.363373249899292]}, {"name": "polynomial2", "class": "NASAPolynomial", "Tmin_value": 466.0773531014103, "Tmin_units": "K", "Tmax_value": 3000.0, "Tmax_units": "K", "coeffs": [-0.504542035975026, 0.045838758176531436, -2.5320990923277113e-05, 6.8151141690509226e-09, -7.175947349476679e-13, -49793440.65858034, 28.245194723043227]}]

>  <H298_value>  (4) 
-98946.55985570916

>  <H298_units>  (4) 
kcal/mol

>  <S298_value>  (4) 
75.32697443190101

>  <S298_units>  (4) 
cal/(mol*K)

>  <Cp_T_value_list>  (4) 
[22.993248089998584, 28.276149005769653, 33.56715480487652, 38.27800984104672, 46.01663201279737, 51.887441516030115, 60.90699023042265, 65.43554687540143, 67.69148102055131]

>  <Cp_T_units>  (4) 
cal/(mol*K)

>  <T_list>  (4) 
[300.0, 400.0, 500.0, 600.0, 800.0, 1000.0, 1500.0, 2000.0, 2400.0]

>  <T_units>  (4) 
K

>  <yaml_path>  (4) 
/home/calvin/Dropbox/PersonalFolders/Calvin/HAb_Converged/rxn_337/output/Species/rxn_337_C[C][C]C/rxn_337_CCCC.yml

>  <frequencies_cm1>  (4) 
[127.6572570988, 132.20320138064, 133.7002041804, 257.46388060276, 382.77949570743993, 383.17091387067995, 764.0894565563999, 931.00526872964, 931.3142830690399, 964.27581260504, 1004.44767672704, 1004.7223561398399, 1088.2111636604, 1293.76063524396, 1293.8430390678, 1387.45378295004, 1387.5773886858, 1410.7877990673999, 1453.7201912880398, 1456.5699901958399, 1457.0026102709999, 1475.8387510037599, 1478.2627968217198, 1478.3520676308801, 2924.1340238889998, 2924.3400334486, 2931.91431825656, 3026.76798648172, 3027.02893192388, 3028.1413835457197, 3072.48837474228, 3076.3544874774398, 3076.70470372876]

>  <ZPE_kJmol>  (4) 
303.64870280304285

>  <E_elec_kJmol>  (4) 
-414315.40861341805

>  <E0_minus_Eelec_plus_ZPE_kJmol>  (4) 
0.0

>  <rxn>  (4) 
rxn_337

>  <species_type>  (4) 
p1

>  <species_folder>  (4) 
rxn_337_C[C][C]C

>  <frequencies_cm1_list>  (4) 
[127.6572570988, 132.20320138064, 133.7002041804, 257.46388060276, 382.77949570743993, 383.17091387067995, 764.0894565563999, 931.00526872964, 931.3142830690399, 964.27581260504, 1004.44767672704, 1004.7223561398399, 1088.2111636604, 1293.76063524396, 1293.8430390678, 1387.45378295004, 1387.5773886858, 1410.7877990673999, 1453.7201912880398, 1456.5699901958399, 1457.0026102709999, 1475.8387510037599, 1478.2627968217198, 1478.3520676308801, 2924.1340238889998, 2924.3400334486, 2931.91431825656, 3026.76798648172, 3027.02893192388, 3028.1413835457197, 3072.48837474228, 3076.3544874774398, 3076.70470372876]

>  <E0_kJmol>  (4) 
-414012

>  <H298_kJmol>  (4) 
-413992

$$$$

     RDKit          3D

  5  4  0  0  0  0  0  0  0  0999 V2000
    0.0397    0.7134    0.0000 C   0  0  0  0  0  3  0  0  0  1  0  0
    0.0458   -0.5870    0.0000 C   0  0  0  0  0  0  0  0  0  2  0  0
   -0.6871    1.5118    0.0000 H   0  0  0  0  0  0  0  0  0  3  0  0
   -0.8806   -1.1637    0.0000 H   0  0  0  0  0  0  0  0  0  4  0  0
    0.9690   -1.1600    0.0000 H   0  0  0  0  0  0  0  0  0  5  0  0
  1  3  1  0
  1  2  1  0
  2  5  1  0
  2  4  1  0
M  RAD  1   1   2
M  END
>  <rmg_smiles>  (5) 
[CH][CH2]

>  <rmg_adjacency_list>  (5) 
multiplicity 2
1 C u0 p0 c0 {2,S} {3,S} {4,S}
2 C u1 p1 c0 {1,S} {5,S}
3 H u0 p0 c0 {1,S}
4 H u0 p0 c0 {1,S}
5 H u0 p0 c0 {2,S}


>  <multiplicity>  (5) 
2

>  <reaction>  (5) 
rxn_337

>  <type>  (5) 
r2

>  <role_mapnums>  (5) 
{}

>  <role_mapidx>  (5) 
{}

>  <ordered_mapped_smiles>  (5) 
[CH:1]([CH:2]([H:4])[H:5])[H:3]

>  <level_of_theory>  (5) 
wb97xd/def2tzvp

>  <lot_method>  (5) 
wb97xd

>  <lot_basis>  (5) 
def2tzvp

>  <spin_multiplicity>  (5) 
2.0

>  <optical_isomers>  (5) 
1.0

>  <modes>  (5) 
IdealGasTranslation(mass=(27.0235, 'amu')),         NonlinearRotor(             inertia = ([2.14183, 15.3481, 17.4899

>  <frequency_value>  (5) 
unknown

>  <frequency_units>  (5) 
unknown

>  <frequency_list>  (5) 
unknown

>  <arkane_path>  (5) 
/home/calvin/Dropbox/PersonalFolders/Calvin/HAb_Converged/rxn_337/output/Species/rxn_337_[CH]=C/arkane/output.py

>  <path_exists>  (5) 
True

>  <E0_value>  (5) 
-204434.59610714423

>  <E0_units>  (5) 
kJ/mol

>  <thermo_class>  (5) 
NASA

>  <Cp0_value>  (5) 
33.257888

>  <Cp0_units>  (5) 
J/(mol*K)

>  <CpInf_value>  (5) 
108.088136

>  <CpInf_units>  (5) 
J/(mol*K)

>  <Tmin_value>  (5) 
10.0

>  <Tmin_units>  (5) 
K

>  <Tmax_value>  (5) 
3000.0

>  <Tmax_units>  (5) 
K

>  <polynomials>  (5) 
[{"name": "polynomial1", "class": "NASAPolynomial", "Tmin_value": 10.0, "Tmin_units": "K", "Tmax_value": 605.1562073532106, "Tmax_units": "K", "coeffs": [4.0732302477000095, -0.005855893423713469, 5.173301484019039e-05, -7.605753070838568e-08, 3.74067872861101e-11, -24587803.17884632, 4.922911546686311]}, {"name": "polynomial2", "class": "NASAPolynomial", "Tmin_value": 605.1562073532106, "Tmin_units": "K", "Tmax_value": 3000.0, "Tmax_units": "K", "coeffs": [1.907334803595395, 0.013219860447203871, -7.347353045060493e-06, 2.024442812279225e-09, -2.192078156816895e-13, -24587628.1872574, 13.564186384006128]}]

>  <H298_value>  (5) 
-48858.50309296871

>  <H298_units>  (5) 
kcal/mol

>  <S298_value>  (5) 
55.807333309528325

>  <S298_units>  (5) 
cal/(mol*K)

>  <Cp_T_value_list>  (5) 
[10.376944352757018, 12.118158212925861, 13.730146484867369, 15.108875169207579, 17.343631711777416, 19.047527728648078, 21.716860438361014, 23.14273061905272, 23.900837148526193]

>  <Cp_T_units>  (5) 
cal/(mol*K)

>  <T_list>  (5) 
[300.0, 400.0, 500.0, 600.0, 800.0, 1000.0, 1500.0, 2000.0, 2400.0]

>  <T_units>  (5) 
K

>  <yaml_path>  (5) 
/home/calvin/Dropbox/PersonalFolders/Calvin/HAb_Converged/rxn_337/output/Species/rxn_337_[CH]=C/rxn_337_CH=C.yml

>  <frequencies_cm1>  (5) 
[709.40765245324, 831.6056562226399, 928.3889473227199, 1044.4341322454, 1381.5275746188797, 1653.3915234376798, 3045.07536934484, 3137.58739557588, 3217.88305492264]

>  <ZPE_kJmol>  (5) 
95.3980343814778

>  <E_elec_kJmol>  (5) 
-204529.9941415257

>  <E0_minus_Eelec_plus_ZPE_kJmol>  (5) 
0.0

>  <rxn>  (5) 
rxn_337

>  <species_type>  (5) 
r0

>  <species_folder>  (5) 
rxn_337_[CH]=C

>  <frequencies_cm1_list>  (5) 
[709.40765245324, 831.6056562226399, 928.3889473227199, 1044.4341322454, 1381.5275746188797, 1653.3915234376798, 3045.07536934484, 3137.58739557588, 3217.88305492264]

>  <E0_kJmol>  (5) 
-204435

>  <H298_kJmol>  (5) 
-204424

$$$$
