
     RDKit          3D

  9  8  0  0  0  0  0  0  0  0999 V2000
   -0.3513   -0.0161   -1.2177 C   0  0  0  0  0  0  0  0  0  1  0  0
    0.0110   -0.4528   -0.0065 C   0  0  0  0  0  0  0  0  0  2  0  0
    0.3512    0.4003    1.1216 C   0  0  0  0  0  0  0  0  0  3  0  0
   -0.6320   -0.7030   -2.0055 H   0  0  0  0  0  0  0  0  0  4  0  0
   -0.3566    1.0422   -1.4551 H   0  0  0  0  0  0  0  0  0  5  0  0
    0.0028   -1.5239    0.1785 H   0  0  0  0  0  0  0  0  0  6  0  0
   -0.5812    0.5937    1.6472 H   0  0  0  0  0  0  0  0  0  7  0  0
    0.6476    1.4156    0.8650 H   0  0  0  0  0  0  0  0  0  8  0  0
    0.9876   -0.0489    1.8798 H   0  0  0  0  0  0  0  0  0  9  0  0
  1  5  1  0
  1  4  1  0
  1  2  1  0
  2  6  1  0
  2  3  1  0
  3  8  1  0
  3  7  1  0
  3  9  1  0
M  END
>  <rmg_smiles>  (1) 
[CH2][CH]C

>  <rmg_adjacency_list>  (1) 
1 C u0 p0 c0 {2,S} {4,S} {5,S} {6,S}
2 C u0 p0 c0 {1,S} {3,S} {7,S}
3 C u0 p0 c0 {2,S} {8,S} {9,S}
4 H u0 p0 c0 {1,S}
5 H u0 p0 c0 {1,S}
6 H u0 p0 c0 {1,S}
7 H u0 p0 c0 {2,S}
8 H u0 p0 c0 {3,S}
9 H u0 p0 c0 {3,S}


>  <multiplicity>  (1) 
1

>  <reaction>  (1) 
rxn_1018

>  <type>  (1) 
r1h

>  <role_mapnums>  (1) 
{"r1h_a": 3, "r1h_h": 7}

>  <role_mapidx>  (1) 
{"r1h_a": 2, "r1h_h": 6}

>  <ordered_mapped_smiles>  (1) 
[CH:1]([CH:2]([C:3]([H:7])([H:8])[H:9])[H:6])([H:4])[H:5]

>  <mol_properties>  (1) 
{"2": {"label": "donator", "atom_type": "Cs"}, "6": {"label": "d_hydrogen", "atom_type": "H0"}}

>  <level_of_theory>  (1) 
wb97xd/def2tzvp

>  <lot_method>  (1) 
wb97xd

>  <lot_basis>  (1) 
def2tzvp

>  <spin_multiplicity>  (1) 
1.0

>  <optical_isomers>  (1) 
1.0

>  <modes>  (1) 
IdealGasTranslation(mass=(42.047, 'amu')),         NonlinearRotor(             inertia = ([10.7194, 53.9495, 61.5633

>  <frequency_value>  (1) 
unknown

>  <frequency_units>  (1) 
unknown

>  <frequency_list>  (1) 
unknown

>  <arkane_path>  (1) 
/home/calvin/Dropbox/PersonalFolders/Calvin/HAb_Converged/rxn_1018/output/Species/rxn_1018_C=CC/arkane/output.py

>  <path_exists>  (1) 
True

>  <E0_value>  (1) 
-309367.8832800635

>  <E0_units>  (1) 
kJ/mol

>  <thermo_class>  (1) 
NASA

>  <Cp0_value>  (1) 
33.257888

>  <Cp0_units>  (1) 
J/(mol*K)

>  <CpInf_value>  (1) 
207.8618

>  <CpInf_units>  (1) 
J/(mol*K)

>  <Tmin_value>  (1) 
10.0

>  <Tmin_units>  (1) 
K

>  <Tmax_value>  (1) 
3000.0

>  <Tmax_units>  (1) 
K

>  <polynomials>  (1) 
[{"name": "polynomial1", "class": "NASAPolynomial", "Tmin_value": 10.0, "Tmin_units": "K", "Tmax_value": 531.9066404514887, "Tmax_units": "K", "coeffs": [4.0204367106395305, -0.0017312814973888466, 7.469369070858841e-05, -1.103989586823944e-07, 5.357411953540602e-11, -37208361.619619094, 6.984063163619424]}, {"name": "polynomial2", "class": "NASAPolynomial", "Tmin_value": 531.9066404514887, "Tmin_units": "K", "Tmax_value": 3000.0, "Tmax_units": "K", "coeffs": [-0.30746978474152303, 0.03081497539241948, -1.7087881859194207e-05, 4.635359552359225e-09, -4.926745989402899e-13, -37207901.209693715, 25.131571818199003]}]

>  <H298_value>  (1) 
-73937.54315081466

>  <H298_units>  (1) 
kcal/mol

>  <S298_value>  (1) 
63.235428095961645

>  <S298_units>  (1) 
cal/(mol*K)

>  <Cp_T_value_list>  (1) 
[15.255114438428619, 19.0471333221202, 22.6079143488244, 25.768633340780376, 30.96022164704354, 34.89993402421754, 40.97109580318192, 44.05842766532305, 45.61775865339882]

>  <Cp_T_units>  (1) 
cal/(mol*K)

>  <T_list>  (1) 
[300.0, 400.0, 500.0, 600.0, 800.0, 1000.0, 1500.0, 2000.0, 2400.0]

>  <T_units>  (1) 
K

>  <yaml_path>  (1) 
/home/calvin/Dropbox/PersonalFolders/Calvin/HAb_Converged/rxn_1018/output/Species/rxn_1018_C=CC/rxn_1018_C=CC.yml

>  <frequencies_cm1>  (1) 
[200.92112347787997, 429.72220735495995, 590.1693193567598, 925.5460154002399, 944.49202789812, 949.7315376972799, 1024.05291981564, 1068.7501272635197, 1186.76613697304, 1322.2792252779197, 1396.37399688072, 1440.26090006084, 1466.0326959668, 1481.02332492036, 1720.5094379553598, 3007.2932161142003, 3065.80679802592, 3091.5648599612396, 3111.3280437122, 3123.2628641983597, 3201.2855514042]

>  <ZPE_kJmol>  (1) 
207.8343042708976

>  <E_elec_kJmol>  (1) 
-309575.71758433443

>  <E0_minus_Eelec_plus_ZPE_kJmol>  (1) 
0.0

>  <rxn>  (1) 
rxn_1018

>  <species_type>  (1) 
r1

>  <species_folder>  (1) 
rxn_1018_C=CC

>  <frequencies_cm1_list>  (1) 
[200.92112347787997, 429.72220735495995, 590.1693193567598, 925.5460154002399, 944.49202789812, 949.7315376972799, 1024.05291981564, 1068.7501272635197, 1186.76613697304, 1322.2792252779197, 1396.37399688072, 1440.26090006084, 1466.0326959668, 1481.02332492036, 1720.5094379553598, 3007.2932161142003, 3065.80679802592, 3091.5648599612396, 3111.3280437122, 3123.2628641983597, 3201.2855514042]

>  <E0_kJmol>  (1) 
-309368

>  <H298_kJmol>  (1) 
-309355

$$$$

     RDKit          3D

  9  8  0  0  0  0  0  0  0  0999 V2000
    0.0101   -1.6206    0.6965 C   0  0  0  0  0  0  0  0  0  1  0  0
    0.5482   -0.2220    0.5727 C   0  0  0  0  0  0  0  0  0  2  0  0
   -0.2686    0.8813   -0.5446 S   0  0  0  0  0  0  0  0  0  3  0  0
    0.6185   -2.2006    1.3936 H   0  0  0  0  0  0  0  0  0  4  0  0
    0.0317   -2.1263   -0.2721 H   0  0  0  0  0  0  0  0  0  5  0  0
   -1.0228   -1.6256    1.0541 H   0  0  0  0  0  0  0  0  0  6  0  0
    0.7115    0.2955    1.5162 H   0  0  0  0  0  0  0  0  0  7  0  0
   -0.2831    0.0485   -1.5964 H   0  0  0  0  0  0  0  0  0  8  0  0
    1.5508   -0.3715    0.1765 H   0  0  0  0  0  0  0  0  0  9  0  0
  1  5  1  0
  1  4  1  0
  1  6  1  0
  1  2  1  0
  2  9  1  0
  2  7  1  0
  2  3  1  0
  3  8  1  0
M  END
>  <rmg_smiles>  (2) 
CCS

>  <rmg_adjacency_list>  (2) 
1 S u0 p2 c0 {2,S} {9,S}
2 C u0 p0 c0 {1,S} {3,S} {4,S} {5,S}
3 C u0 p0 c0 {2,S} {6,S} {7,S} {8,S}
4 H u0 p0 c0 {2,S}
5 H u0 p0 c0 {2,S}
6 H u0 p0 c0 {3,S}
7 H u0 p0 c0 {3,S}
8 H u0 p0 c0 {3,S}
9 H u0 p0 c0 {1,S}


>  <multiplicity>  (2) 
1

>  <reaction>  (2) 
rxn_1018

>  <type>  (2) 
r2h

>  <role_mapnums>  (2) 
{"r2h_a": 2, "r2h_h": 9}

>  <role_mapidx>  (2) 
{"r2h_a": 1, "r2h_h": 8}

>  <ordered_mapped_smiles>  (2) 
[C:1]([C:2]([S:3][H:8])([H:7])[H:9])([H:4])([H:5])[H:6]

>  <mol_properties>  (2) 
{"1": {"label": "acceptor", "atom_type": "Cs"}, "8": {"label": "a_hydrogen", "atom_type": "H0"}}

>  <level_of_theory>  (2) 
wb97xd/def2tzvp

>  <lot_method>  (2) 
wb97xd

>  <lot_basis>  (2) 
def2tzvp

>  <spin_multiplicity>  (2) 
1.0

>  <optical_isomers>  (2) 
2.0

>  <modes>  (2) 
IdealGasTranslation(mass=(62.019, 'amu')),         NonlinearRotor(             inertia = ([17.3187, 95.472, 104.033

>  <frequency_value>  (2) 
unknown

>  <frequency_units>  (2) 
unknown

>  <frequency_list>  (2) 
unknown

>  <arkane_path>  (2) 
/home/calvin/Dropbox/PersonalFolders/Calvin/HAb_Converged/rxn_1018/output/Species/rxn_1018_CCS/arkane/output.py

>  <path_exists>  (2) 
True

>  <E0_value>  (2) 
-1254880.5529024522

>  <E0_units>  (2) 
kJ/mol

>  <thermo_class>  (2) 
NASA

>  <Cp0_value>  (2) 
33.257888

>  <Cp0_units>  (2) 
J/(mol*K)

>  <CpInf_value>  (2) 
207.8618

>  <CpInf_units>  (2) 
J/(mol*K)

>  <Tmin_value>  (2) 
10.0

>  <Tmin_units>  (2) 
K

>  <Tmax_value>  (2) 
3000.0

>  <Tmax_units>  (2) 
K

>  <polynomials>  (2) 
[{"name": "polynomial1", "class": "NASAPolynomial", "Tmin_value": 10.0, "Tmin_units": "K", "Tmax_value": 456.94948299224984, "Tmax_units": "K", "coeffs": [3.912577314484764, 0.006155835235539537, 5.7903825438107485e-05, -1.0305013689181765e-07, 5.821300208274409e-11, -150927266.1091598, 9.021117963799174]}, {"name": "polynomial2", "class": "NASAPolynomial", "Tmin_value": 456.94948299224984, "Tmin_units": "K", "Tmax_value": 3000.0, "Tmax_units": "K", "coeffs": [1.355855578836548, 0.028536757084491292, -1.5565109771775804e-05, 4.138069148493327e-09, -4.3071999280991065e-13, -150927032.45208073, 19.35342692911781]}]

>  <H298_value>  (2) 
-299920.11857407144

>  <H298_units>  (2) 
kcal/mol

>  <S298_value>  (2) 
69.39854649104441

>  <S298_units>  (2) 
cal/(mol*K)

>  <Cp_T_value_list>  (2) 
[17.20889788741788, 20.934361161930582, 24.290211927280414, 27.249513376784144, 32.124901067035445, 35.83897523204632, 41.58221183782978, 44.477584292835935, 45.911331144631184]

>  <Cp_T_units>  (2) 
cal/(mol*K)

>  <T_list>  (2) 
[300.0, 400.0, 500.0, 600.0, 800.0, 1000.0, 1500.0, 2000.0, 2400.0]

>  <T_units>  (2) 
K

>  <yaml_path>  (2) 
/home/calvin/Dropbox/PersonalFolders/Calvin/HAb_Converged/rxn_1018/output/Species/rxn_1018_CCS/rxn_1018_CCS.yml

>  <frequencies_cm1>  (2) 
[202.32885546847996, 256.50936964327997, 331.52431727896, 667.1482247939599, 735.969151671, 875.5955641825599, 988.159187548, 1063.6273562148, 1117.6087278153198, 1273.38628979952, 1303.10660226448, 1402.5542836687198, 1466.616389719, 1477.4456255686398, 1483.85938985752, 2700.25656848636, 3013.3430301811195, 3044.51914353392, 3080.6051513905195, 3088.40604671404, 3107.9357529641197]

>  <ZPE_kJmol>  (2) 
195.4728851436989

>  <E_elec_kJmol>  (2) 
-1255076.025787596

>  <E0_minus_Eelec_plus_ZPE_kJmol>  (2) 
0.0

>  <rxn>  (2) 
rxn_1018

>  <species_type>  (2) 
p0

>  <species_folder>  (2) 
rxn_1018_CCS

>  <frequencies_cm1_list>  (2) 
[202.32885546847996, 256.50936964327997, 331.52431727896, 667.1482247939599, 735.969151671, 875.5955641825599, 988.159187548, 1063.6273562148, 1117.6087278153198, 1273.38628979952, 1303.10660226448, 1402.5542836687198, 1466.616389719, 1477.4456255686398, 1483.85938985752, 2700.25656848636, 3013.3430301811195, 3044.51914353392, 3080.6051513905195, 3088.40604671404, 3107.9357529641197]

>  <E0_kJmol>  (2) 
-1.25488e+06

>  <H298_kJmol>  (2) 
-1.25487e+06

$$$$

     RDKit          3D

 17 15  0  0  0  0  0  0  0  0999 V2000
   -1.0657   -1.2507    1.1009 C   0  0  0  0  0  0  0  0  0  1  0  0
   -0.5275    0.1479    0.9771 C   0  0  0  0  0  3  0  0  0  2  0  0
   -1.3444    1.2512   -0.1403 S   0  0  0  0  0  0  0  0  0  3  0  0
   -0.4572   -1.8307    1.7980 H   0  0  0  0  0  0  0  0  0  4  0  0
   -1.0440   -1.7565    0.1322 H   0  0  0  0  0  0  0  0  0  5  0  0
   -2.0986   -1.2557    1.4584 H   0  0  0  0  0  0  0  0  0  6  0  0
   -0.3642    0.6654    1.9205 H   0  0  0  0  0  0  0  0  0  7  0  0
   -1.3589    0.4184   -1.1921 H   0  0  0  0  0  0  0  0  0  8  0  0
    1.1713   -0.6926   -2.5017 C   0  0  0  0  0  0  0  0  0  9  0  0
    1.5337   -1.1293   -1.2905 C   0  0  0  0  0  0  0  0  0 10  0  0
    1.8738   -0.2761   -0.1623 C   0  0  0  0  0  0  0  0  0 11  0  0
    0.8907   -1.3795   -3.2895 H   0  0  0  0  0  0  0  0  0 12  0  0
    1.1660    0.3657   -2.7391 H   0  0  0  0  0  0  0  0  0 13  0  0
    1.5254   -2.2004   -1.1055 H   0  0  0  0  0  0  0  0  0 14  0  0
    0.7432   -0.0416    0.4749 H   0  0  0  0  0  0  0  0  0 15  0  0
    2.1702    0.7391   -0.4190 H   0  0  0  0  0  0  0  0  0 16  0  0
    2.5103   -0.7254    0.5958 H   0  0  0  0  0  0  0  0  0 17  0  0
  1  5  1  0
  1  4  1  0
  1  6  1  0
  1  2  1  0
  2  7  1  0
  2  3  1  0
  3  8  1  0
  9 12  1  0
  9 10  1  0
  9 13  1  0
 10 14  1  0
 10 11  1  0
 11 16  1  0
 11 15  1  0
 11 17  1  0
M  RAD  1   2   2
M  END
>  <rmg_smiles>  (3) 
[CH2][CH]C.C[CH]S

>  <rmg_adjacency_list>  (3) 
multiplicity 2
1  S u0 p2 c0 {5,S} {17,S}
2  C u0 p0 c0 {4,S} {10,S} {11,S} {12,S}
3  C u0 p0 c0 {5,S} {7,S} {8,S} {9,S}
4  C u0 p0 c0 {2,S} {6,S} {13,S}
5  C u1 p0 c0 {1,S} {3,S} {14,S}
6  C u0 p0 c0 {4,S} {15,S} {16,S}
7  H u0 p0 c0 {3,S}
8  H u0 p0 c0 {3,S}
9  H u0 p0 c0 {3,S}
10 H u0 p0 c0 {2,S}
11 H u0 p0 c0 {2,S}
12 H u0 p0 c0 {2,S}
13 H u0 p0 c0 {4,S}
14 H u0 p0 c0 {5,S}
15 H u0 p0 c0 {6,S}
16 H u0 p0 c0 {6,S}
17 H u0 p0 c0 {1,S}


>  <multiplicity>  (3) 
2

>  <reaction>  (3) 
rxn_1018

>  <type>  (3) 
ts

>  <role_mapnums>  (3) 
{"*2": 15, "*1": 11, "*3": 2, "*0": 10, "*4": 3}

>  <role_mapidx>  (3) 
{"*2": 14, "*1": 10, "*3": 1, "*0": 9, "*4": 2}

>  <ordered_mapped_smiles>  (3) 
[C:1]([C:2]([S:3][H:8])[H:7])([H:4])([H:5])[H:6].[CH:9]([CH:10]([C:11]([H:15])([H:16])[H:17])[H:14])([H:12])[H:13]

>  <mol_properties>  (3) 
{"1": {"label": "*3", "atom_type": "Cs"}, "2": {"label": "*4", "atom_type": "S2s"}, "9": {"label": "*0", "atom_type": "Cs"}, "10": {"label": "*1", "atom_type": "Cs"}, "14": {"label": "*2", "atom_type": "H0"}}

>  <level_of_theory>  (3) 
wb97xd/def2tzvp

>  <lot_method>  (3) 
wb97xd

>  <lot_basis>  (3) 
def2tzvp

>  <spin_multiplicity>  (3) 
2.0

>  <optical_isomers>  (3) 
2.0

>  <modes>  (3) 
IdealGasTranslation(mass=(103.058, 'amu')),         NonlinearRotor(             inertia = ([153.689, 329.692, 391.694

>  <frequency_value>  (3) 
-1763.77

>  <frequency_units>  (3) 
cm^-1

>  <frequency_list>  (3) 
unknown

>  <arkane_path>  (3) 
/home/calvin/Dropbox/PersonalFolders/Calvin/HAb_Converged/rxn_1018/output/rxns/TS0/arkane/output.py

>  <path_exists>  (3) 
True

>  <E0_value>  (3) 
-1562500.0

>  <E0_units>  (3) 
kJ/mol

>  <thermo_class>  (3) 
unknown

>  <Cp0_value>  (3) 
unknown

>  <Cp0_units>  (3) 
unknown

>  <CpInf_value>  (3) 
unknown

>  <CpInf_units>  (3) 
unknown

>  <Tmin_value>  (3) 
unknown

>  <Tmin_units>  (3) 
unknown

>  <Tmax_value>  (3) 
unknown

>  <Tmax_units>  (3) 
unknown

>  <polynomials>  (3) 
unknown

>  <H298_value>  (3) 
unknown

>  <H298_units>  (3) 
unknown

>  <S298_value>  (3) 
unknown

>  <S298_units>  (3) 
unknown

>  <Cp_T_value_list>  (3) 
unknown

>  <Cp_T_units>  (3) 
unknown

>  <T_list>  (3) 
unknown

>  <T_units>  (3) 
unknown

>  <yaml_path>  (3) 
unknown

>  <frequencies_cm1>  (3) 
unknown

>  <ZPE_kJmol>  (3) 
unknown

>  <E_elec_kJmol>  (3) 
unknown

>  <E0_minus_Eelec_plus_ZPE_kJmol>  (3) 
unknown

>  <rxn>  (3) 
unknown

>  <species_type>  (3) 
unknown

>  <species_folder>  (3) 
unknown

>  <frequencies_cm1_list>  (3) 
[]

>  <ts_imag_freq_cm1>  (3) 
-1785.1924

>  <ts_freq_out_path>  (3) 
/home/calvin/Dropbox/PersonalFolders/Calvin/HAb_Converged/rxn_1018/output/rxns/TS0/geometry/freq.out

>  <E0_kJmol>  (3) 
-1.5625e+06

>  <H298_kJmol>  (3) 
unknown

$$$$

     RDKit          3D

  8  7  0  0  0  0  0  0  0  0999 V2000
   -1.2262   -0.1032    0.0429 C   0  0  0  0  0  0  0  0  0  1  0  0
    0.0344    0.4295    0.2005 C   0  0  0  0  0  0  0  0  0  2  0  0
    1.2024   -0.1933   -0.1813 C   0  0  0  0  0  3  0  0  0  3  0  0
   -2.1090    0.4329    0.3624 H   0  0  0  0  0  0  0  0  0  4  0  0
   -1.3659   -1.0784   -0.4078 H   0  0  0  0  0  0  0  0  0  5  0  0
    0.1132    1.4113    0.6589 H   0  0  0  0  0  0  0  0  0  6  0  0
    2.1658    0.2743   -0.0323 H   0  0  0  0  0  0  0  0  0  7  0  0
    1.1853   -1.1731   -0.6434 H   0  0  0  0  0  0  0  0  0  8  0  0
  1  5  1  0
  1  4  1  0
  1  2  1  0
  2  6  1  0
  2  3  1  0
  3  8  1  0
  3  7  1  0
M  RAD  1   3   2
M  END
>  <rmg_smiles>  (4) 
[CH2][CH][CH2]

>  <rmg_adjacency_list>  (4) 
multiplicity 2
1 C u0 p0 c0 {2,S} {3,S} {4,S}
2 C u1 p0 c0 {1,S} {7,S} {8,S}
3 C u0 p0 c0 {1,S} {5,S} {6,S}
4 H u0 p0 c0 {1,S}
5 H u0 p0 c0 {3,S}
6 H u0 p0 c0 {3,S}
7 H u0 p0 c0 {2,S}
8 H u0 p0 c0 {2,S}


>  <multiplicity>  (4) 
2

>  <reaction>  (4) 
rxn_1018

>  <type>  (4) 
r1

>  <role_mapnums>  (4) 
{}

>  <role_mapidx>  (4) 
{}

>  <ordered_mapped_smiles>  (4) 
[CH:1]([CH:2]([C:3]([H:7])[H:8])[H:6])([H:4])[H:5]

>  <level_of_theory>  (4) 
wb97xd/def2tzvp

>  <lot_method>  (4) 
wb97xd

>  <lot_basis>  (4) 
def2tzvp

>  <spin_multiplicity>  (4) 
2.0

>  <optical_isomers>  (4) 
1.0

>  <modes>  (4) 
IdealGasTranslation(mass=(41.0391, 'amu')),         NonlinearRotor(             inertia = ([9.18678, 48.3525, 57.5393

>  <frequency_value>  (4) 
unknown

>  <frequency_units>  (4) 
unknown

>  <frequency_list>  (4) 
unknown

>  <arkane_path>  (4) 
/home/calvin/Dropbox/PersonalFolders/Calvin/HAb_Converged/rxn_1018/output/Species/rxn_1018_[CH2]C=C/arkane/output.py

>  <path_exists>  (4) 
True

>  <E0_value>  (4) 
-307695.8239419476

>  <E0_units>  (4) 
kJ/mol

>  <thermo_class>  (4) 
NASA

>  <Cp0_value>  (4) 
33.257888

>  <Cp0_units>  (4) 
J/(mol*K)

>  <CpInf_value>  (4) 
182.918384

>  <CpInf_units>  (4) 
J/(mol*K)

>  <Tmin_value>  (4) 
10.0

>  <Tmin_units>  (4) 
K

>  <Tmax_value>  (4) 
3000.0

>  <Tmax_units>  (4) 
K

>  <polynomials>  (4) 
[{"name": "polynomial1", "class": "NASAPolynomial", "Tmin_value": 10.0, "Tmin_units": "K", "Tmax_value": 532.7267436952769, "Tmax_units": "K", "coeffs": [4.120476242700736, -0.01110500746607337, 0.00013118962632593044, -2.295122998736072e-07, 1.327617546042694e-10, -37007258.9235638, 6.732627685136077]}, {"name": "polynomial2", "class": "NASAPolynomial", "Tmin_value": 532.7267436952769, "Tmin_units": "K", "Tmax_value": 3000.0, "Tmax_units": "K", "coeffs": [0.911699466954835, 0.027118425571894478, -1.6222639840263127e-05, 4.752540164453407e-09, -5.404199600895895e-13, -37007117.54936121, 18.310519838179516]}]

>  <H298_value>  (4) 
-73538.08078140329

>  <H298_units>  (4) 
kcal/mol

>  <S298_value>  (4) 
61.52456331648896

>  <S298_units>  (4) 
cal/(mol*K)

>  <Cp_T_value_list>  (4) 
[14.853530963099974, 18.637467651362382, 21.80750730434748, 24.44088072021761, 28.68710434193412, 31.834263999492475, 36.54938793194129, 39.012029638884556, 40.38558701326713]

>  <Cp_T_units>  (4) 
cal/(mol*K)

>  <T_list>  (4) 
[300.0, 400.0, 500.0, 600.0, 800.0, 1000.0, 1500.0, 2000.0, 2400.0]

>  <T_units>  (4) 
K

>  <yaml_path>  (4) 
/home/calvin/Dropbox/PersonalFolders/Calvin/HAb_Converged/rxn_1018/output/Species/rxn_1018_[CH2]C=C/rxn_1018_CH2C=C.yml

>  <frequencies_cm1>  (4) 
[432.19432207015996, 530.70122648556, 552.78545127468, 794.8604177753199, 818.87426543936, 934.1091460942799, 1008.91808417036, 1035.1568350780801, 1186.33351689788, 1269.2386306662397, 1410.5886564931197, 1500.8483115392, 1510.5101598844399, 3121.9787379435197, 3123.6542823616, 3129.68349547256, 3223.1843675896794, 3225.69081723148]

>  <ZPE_kJmol>  (4) 
172.31799451557927

>  <E_elec_kJmol>  (4) 
-307868.1419364632

>  <E0_minus_Eelec_plus_ZPE_kJmol>  (4) 
0.0

>  <rxn>  (4) 
rxn_1018

>  <species_type>  (4) 
p1

>  <species_folder>  (4) 
rxn_1018_[CH2]C=C

>  <frequencies_cm1_list>  (4) 
[432.19432207015996, 530.70122648556, 552.78545127468, 794.8604177753199, 818.87426543936, 934.1091460942799, 1008.91808417036, 1035.1568350780801, 1186.33351689788, 1269.2386306662397, 1410.5886564931197, 1500.8483115392, 1510.5101598844399, 3121.9787379435197, 3123.6542823616, 3129.68349547256, 3223.1843675896794, 3225.69081723148]

>  <E0_kJmol>  (4) 
-307696

>  <H298_kJmol>  (4) 
-307683

$$$$

     RDKit          3D

  8  7  0  0  0  0  0  0  0  0999 V2000
   -1.0607    0.1793   -0.1423 C   0  0  0  0  0  0  0  0  0  1  0  0
    0.2796    0.0327    0.4820 C   0  0  0  0  0  3  0  0  0  2  0  0
    0.8817   -1.4663    1.0791 S   0  0  0  0  0  0  0  0  0  3  0  0
   -1.3043    1.2328   -0.2850 H   0  0  0  0  0  0  0  0  0  4  0  0
   -1.8444   -0.2641    0.4799 H   0  0  0  0  0  0  0  0  0  5  0  0
   -1.1164   -0.3100   -1.1237 H   0  0  0  0  0  0  0  0  0  6  0  0
    1.0449    0.7826    0.3391 H   0  0  0  0  0  0  0  0  0  7  0  0
   -0.2993   -2.0726    1.2718 H   0  0  0  0  0  0  0  0  0  8  0  0
  1  5  1  0
  1  4  1  0
  1  6  1  0
  1  2  1  0
  2  7  1  0
  2  3  1  0
  3  8  1  0
M  RAD  1   2   2
M  END
>  <rmg_smiles>  (5) 
C[CH]S

>  <rmg_adjacency_list>  (5) 
multiplicity 2
1 S u0 p2 c0 {3,S} {8,S}
2 C u0 p0 c0 {3,S} {4,S} {5,S} {6,S}
3 C u1 p0 c0 {1,S} {2,S} {7,S}
4 H u0 p0 c0 {2,S}
5 H u0 p0 c0 {2,S}
6 H u0 p0 c0 {2,S}
7 H u0 p0 c0 {3,S}
8 H u0 p0 c0 {1,S}


>  <multiplicity>  (5) 
2

>  <reaction>  (5) 
rxn_1018

>  <type>  (5) 
r2

>  <role_mapnums>  (5) 
{}

>  <role_mapidx>  (5) 
{}

>  <ordered_mapped_smiles>  (5) 
[C:1]([C:2]([S:3][H:8])[H:7])([H:4])([H:5])[H:6]

>  <level_of_theory>  (5) 
wb97xd/def2tzvp

>  <lot_method>  (5) 
wb97xd

>  <lot_basis>  (5) 
def2tzvp

>  <spin_multiplicity>  (5) 
2.0

>  <optical_isomers>  (5) 
2.0

>  <modes>  (5) 
IdealGasTranslation(mass=(61.0112, 'amu')),         NonlinearRotor(             inertia = ([13.046, 92.7553, 102.244

>  <frequency_value>  (5) 
unknown

>  <frequency_units>  (5) 
unknown

>  <frequency_list>  (5) 
unknown

>  <arkane_path>  (5) 
/home/calvin/Dropbox/PersonalFolders/Calvin/HAb_Converged/rxn_1018/output/Species/rxn_1018_C[CH]S/arkane/output.py

>  <path_exists>  (5) 
True

>  <E0_value>  (5) 
-1253184.5981829516

>  <E0_units>  (5) 
kJ/mol

>  <thermo_class>  (5) 
NASA

>  <Cp0_value>  (5) 
33.257888

>  <Cp0_units>  (5) 
J/(mol*K)

>  <CpInf_value>  (5) 
182.918384

>  <CpInf_units>  (5) 
J/(mol*K)

>  <Tmin_value>  (5) 
10.0

>  <Tmin_units>  (5) 
K

>  <Tmax_value>  (5) 
3000.0

>  <Tmax_units>  (5) 
K

>  <polynomials>  (5) 
[{"name": "polynomial1", "class": "NASAPolynomial", "Tmin_value": 10.0, "Tmin_units": "K", "Tmax_value": 413.8010480726284, "Tmax_units": "K", "coeffs": [3.7950295729261647, 0.016457708367529925, 9.731711480509379e-06, -3.2015572359360355e-08, 2.0934508459004603e-11, -150723288.9505719, 9.662663267236853]}, {"name": "polynomial2", "class": "NASAPolynomial", "Tmin_value": 413.8010480726284, "Tmin_units": "K", "Tmax_value": 3000.0, "Tmax_units": "K", "coeffs": [3.171701388229353, 0.02248310275825266, -1.2109939387600553e-05, 3.1731034874071525e-09, -3.249234972610705e-13, -150723237.3638374, 12.119854918634292]}]

>  <H298_value>  (5) 
-299514.53540410154

>  <H298_units>  (5) 
kcal/mol

>  <S298_value>  (5) 
72.29191673058813

>  <S298_units>  (5) 
cal/(mol*K)

>  <Cp_T_value_list>  (5) 
[17.712657489437476, 20.710891785101634, 23.373717884324098, 25.72491502627314, 29.60811043312427, 32.57636509573052, 37.18717346712741, 39.514014084536406, 40.66360633897774]

>  <Cp_T_units>  (5) 
cal/(mol*K)

>  <T_list>  (5) 
[300.0, 400.0, 500.0, 600.0, 800.0, 1000.0, 1500.0, 2000.0, 2400.0]

>  <T_units>  (5) 
K

>  <yaml_path>  (5) 
/home/calvin/Dropbox/PersonalFolders/Calvin/HAb_Converged/rxn_1018/output/Species/rxn_1018_C[CH]S/rxn_1018_CCHS.yml

>  <frequencies_cm1>  (5) 
[128.26155180696, 206.51084952836, 328.47537579688, 383.06104210556, 719.5433227855599, 910.4180467402799, 999.9292003864799, 1062.5698404755199, 1120.95294966616, 1318.91440247112, 1398.79117571336, 1459.19317858808, 1469.92627664324, 2677.2315667084, 2962.1771225617995, 3023.7808478675192, 3086.80603913448, 3183.9601474418396]

>  <ZPE_kJmol>  (5) 
158.14937342870658

>  <E_elec_kJmol>  (5) 
-1253342.7475563802

>  <E0_minus_Eelec_plus_ZPE_kJmol>  (5) 
0.0

>  <rxn>  (5) 
rxn_1018

>  <species_type>  (5) 
r0

>  <species_folder>  (5) 
rxn_1018_C[CH]S

>  <frequencies_cm1_list>  (5) 
[128.26155180696, 206.51084952836, 328.47537579688, 383.06104210556, 719.5433227855599, 910.4180467402799, 999.9292003864799, 1062.5698404755199, 1120.95294966616, 1318.91440247112, 1398.79117571336, 1459.19317858808, 1469.92627664324, 2677.2315667084, 2962.1771225617995, 3023.7808478675192, 3086.80603913448, 3183.9601474418396]

>  <E0_kJmol>  (5) 
-1.25318e+06

>  <H298_kJmol>  (5) 
-1.25317e+06

$$$$
