
     RDKit          3D

  4  3  0  0  0  0  0  0  0  0999 V2000
    0.0103   -0.0769   -1.2550 N   0  0  0  0  0  2  0  0  0  1  0  0
    0.0007   -0.0151   -0.0644 C   0  0  0  0  0  0  0  0  0  2  0  0
   -0.0106    0.1488    1.1767 N   0  0  0  0  0  0  0  0  0  3  0  0
   -0.0048   -0.7032    1.7731 H   0  0  0  0  0  0  0  0  0  4  0  0
  1  2  1  0
  2  3  1  0
  3  4  1  0
M  RAD  1   1   2
M  END
>  <rmg_smiles>  (1) 
[N][C][NH]

>  <rmg_adjacency_list>  (1) 
multiplicity 2
1 N u0 p1 c0 {3,S} {4,S}
2 N u1 p2 c0 {3,S}
3 C u0 p1 c0 {1,S} {2,S}
4 H u0 p0 c0 {1,S}


>  <multiplicity>  (1) 
2

>  <reaction>  (1) 
rxn_61

>  <type>  (1) 
r1h

>  <role_mapnums>  (1) 
{"r1h_a": 3, "r1h_h": 4}

>  <role_mapidx>  (1) 
{"r1h_a": 2, "r1h_h": 3}

>  <ordered_mapped_smiles>  (1) 
[NH:1][CH2:2][NH:3][H:4]

>  <mol_properties>  (1) 
{"2": {"label": "donator", "atom_type": "N3s"}, "3": {"label": "d_hydrogen", "atom_type": "H0"}}

>  <level_of_theory>  (1) 
wb97xd/def2tzvp

>  <lot_method>  (1) 
wb97xd

>  <lot_basis>  (1) 
def2tzvp

>  <spin_multiplicity>  (1) 
2.0

>  <optical_isomers>  (1) 
1.0

>  <modes>  (1) 
IdealGasTranslation(mass=(41.014, 'amu')),         NonlinearRotor(             inertia = ([0.780855, 44.8571, 45.6379

>  <frequency_value>  (1) 
unknown

>  <frequency_units>  (1) 
unknown

>  <frequency_list>  (1) 
unknown

>  <arkane_path>  (1) 
/home/calvin/Dropbox/PersonalFolders/Calvin/HAb_Converged/rxn_61/output/Species/rxn_61_[N]=C=N/arkane/output.py

>  <path_exists>  (1) 
True

>  <E0_value>  (1) 
-388864.02141832345

>  <E0_units>  (1) 
kJ/mol

>  <thermo_class>  (1) 
NASA

>  <Cp0_value>  (1) 
33.257888

>  <Cp0_units>  (1) 
J/(mol*K)

>  <CpInf_value>  (1) 
83.14472

>  <CpInf_units>  (1) 
J/(mol*K)

>  <Tmin_value>  (1) 
10.0

>  <Tmin_units>  (1) 
K

>  <Tmax_value>  (1) 
3000.0

>  <Tmax_units>  (1) 
K

>  <polynomials>  (1) 
[{"name": "polynomial1", "class": "NASAPolynomial", "Tmin_value": 10.0, "Tmin_units": "K", "Tmax_value": 566.9956520654554, "Tmax_units": "K", "coeffs": [3.9835884496447065, 0.0009500586397966843, 2.6064750369586223e-05, -4.737329620744589e-08, 2.6532491872392603e-11, -46769538.02836168, 5.85906439367546]}, {"name": "polynomial2", "class": "NASAPolynomial", "Tmin_value": 566.9956520654554, "Tmin_units": "K", "Tmax_value": 3000.0, "Tmax_units": "K", "coeffs": [3.2892621152837185, 0.00950378879270305, -6.2349073651085e-06, 1.9747908441193077e-09, -2.3959398338057135e-13, -46769518.05075553, 8.296668689596778]}]

>  <H298_value>  (1) 
-92937.99107262224

>  <H298_units>  (1) 
kcal/mol

>  <S298_value>  (1) 
58.87855457709797

>  <S298_units>  (1) 
cal/(mol*K)

>  <Cp_T_value_list>  (1) 
[11.029528177524188, 12.283544979318723, 13.336985558540766, 14.19356715207398, 15.529835291166838, 16.48057996470896, 17.822019642674945, 18.524805094653786, 18.949293908256294]

>  <Cp_T_units>  (1) 
cal/(mol*K)

>  <T_list>  (1) 
[300.0, 400.0, 500.0, 600.0, 800.0, 1000.0, 1500.0, 2000.0, 2400.0]

>  <T_units>  (1) 
K

>  <yaml_path>  (1) 
/home/calvin/Dropbox/PersonalFolders/Calvin/HAb_Converged/rxn_61/output/Species/rxn_61_[N]=C=N/rxn_61_N=C=N.yml

>  <frequencies_cm1>  (1) 
[472.8331411939199, 495.67273436824, 1052.3998352166, 1196.95674318792, 1876.7264870000397, 3481.8843055500397]

>  <ZPE_kJmol>  (1) 
51.29871672358809

>  <E_elec_kJmol>  (1) 
-388915.320135047

>  <E0_minus_Eelec_plus_ZPE_kJmol>  (1) 
0.0

>  <rxn>  (1) 
rxn_61

>  <species_type>  (1) 
r1

>  <species_folder>  (1) 
rxn_61_[N]=C=N

>  <frequencies_cm1_list>  (1) 
[472.8331411939199, 495.67273436824, 1052.3998352166, 1196.95674318792, 1876.7264870000397, 3481.8843055500397]

>  <E0_kJmol>  (1) 
-388864

>  <H298_kJmol>  (1) 
-388853

$$$$

     RDKit          3D

  2  1  0  0  0  0  0  0  0  0999 V2000
    0.0008   -0.0714    0.0142 O   0  0  0  0  0  1  0  0  0  1  0  0
   -0.0092    0.8700   -0.1731 H   0  0  0  0  0  0  0  0  0  2  0  0
  1  2  1  0
M  RAD  1   1   2
M  END
>  <rmg_smiles>  (2) 
[OH]

>  <rmg_adjacency_list>  (2) 
multiplicity 2
1 O u1 p2 c0 {2,S}
2 H u0 p0 c0 {1,S}


>  <multiplicity>  (2) 
2

>  <reaction>  (2) 
rxn_61

>  <type>  (2) 
r2h

>  <role_mapnums>  (2) 
{"r2h_a": 1, "r2h_h": 2}

>  <role_mapidx>  (2) 
{"r2h_a": 0, "r2h_h": 1}

>  <ordered_mapped_smiles>  (2) 
[O:1][H:2]

>  <mol_properties>  (2) 
{"0": {"label": "acceptor", "atom_type": "O2s"}, "1": {"label": "a_hydrogen", "atom_type": "H0"}}

>  <level_of_theory>  (2) 
wb97xd/def2tzvp

>  <lot_method>  (2) 
wb97xd

>  <lot_basis>  (2) 
def2tzvp

>  <spin_multiplicity>  (2) 
2.0

>  <optical_isomers>  (2) 
1.0

>  <modes>  (2) 
IdealGasTranslation(mass=(17.0027, 'amu')),         LinearRotor(inertia=(0.893825, 'amu*angstrom^2'), symmetry=1),         HarmonicOscillator(frequencies=([3725.56

>  <frequency_value>  (2) 
unknown

>  <frequency_units>  (2) 
unknown

>  <frequency_list>  (2) 
unknown

>  <arkane_path>  (2) 
/home/calvin/Dropbox/PersonalFolders/Calvin/HAb_Converged/rxn_61/output/Species/rxn_61_[OH]/arkane/output.py

>  <path_exists>  (2) 
True

>  <E0_value>  (2) 
-198836.11065632655

>  <E0_units>  (2) 
kJ/mol

>  <thermo_class>  (2) 
NASA

>  <Cp0_value>  (2) 
29.100652

>  <Cp0_units>  (2) 
J/(mol*K)

>  <CpInf_value>  (2) 
37.415124

>  <CpInf_units>  (2) 
J/(mol*K)

>  <Tmin_value>  (2) 
10.0

>  <Tmin_units>  (2) 
K

>  <Tmax_value>  (2) 
3000.0

>  <Tmax_units>  (2) 
K

>  <polynomials>  (2) 
[{"name": "polynomial1", "class": "NASAPolynomial", "Tmin_value": 10.0, "Tmin_units": "K", "Tmax_value": 985.6459359324402, "Tmax_units": "K", "coeffs": [3.49686777077684, 0.00018334165413566602, -9.927422114975035e-07, 1.559335065614597e-09, -6.051175734082516e-13, -23914460.190127544, 1.4722271748407303]}, {"name": "polynomial2", "class": "NASAPolynomial", "Tmin_value": 985.6459359324402, "Tmin_units": "K", "Tmax_value": 3000.0, "Tmax_units": "K", "coeffs": [3.4538997471416084, -0.0002990851320361188, 7.409868333423891e-07, -2.8938793165350344e-10, 3.527321549332907e-14, -23914419.815793645, 1.8407453398243376]}]

>  <H298_value>  (2) 
-47520.895636098256

>  <H298_units>  (2) 
kcal/mol

>  <S298_value>  (2) 
42.56065351108258

>  <S298_units>  (2) 
cal/(mol*K)

>  <Cp_T_value_list>  (2) 
[6.95467440837288, 6.946622347988586, 6.950155535415497, 6.9708793647131895, 7.071890602250594, 7.236783548847422, 7.699190754845551, 8.085833580657471, 8.29452334304518]

>  <Cp_T_units>  (2) 
cal/(mol*K)

>  <T_list>  (2) 
[300.0, 400.0, 500.0, 600.0, 800.0, 1000.0, 1500.0, 2000.0, 2400.0]

>  <T_units>  (2) 
K

>  <yaml_path>  (2) 
/home/calvin/Dropbox/PersonalFolders/Calvin/HAb_Converged/rxn_61/output/Species/rxn_61_[OH]/rxn_61_OH.yml

>  <frequencies_cm1>  (2) 
[3725.55927963024]

>  <ZPE_kJmol>  (2) 
22.28379948603074

>  <E_elec_kJmol>  (2) 
-198858.3944558126

>  <E0_minus_Eelec_plus_ZPE_kJmol>  (2) 
0.0

>  <rxn>  (2) 
rxn_61

>  <species_type>  (2) 
p0

>  <species_folder>  (2) 
rxn_61_[OH]

>  <frequencies_cm1_list>  (2) 
[3725.55927963024]

>  <E0_kJmol>  (2) 
-198836

>  <H298_kJmol>  (2) 
-198827

$$$$

     RDKit          3D

  5  3  0  0  0  0  0  0  0  0999 V2000
    0.0076   -1.4872    1.4720 O   0  0  0  0  0 15  0  0  0  1  0  0
    0.0093    0.4597   -1.8766 N   0  0  0  0  0  2  0  0  0  2  0  0
   -0.0003    0.5216   -0.6861 C   0  0  0  0  0  0  0  0  0  3  0  0
   -0.0116    0.6854    0.5550 N   0  0  0  0  0  0  0  0  0  4  0  0
   -0.0050   -0.2818    1.2321 H   0  0  0  0  0  0  0  0  0  5  0  0
  2  3  1  0
  3  4  1  0
  4  5  1  0
M  RAD  1   2   2
M  END
>  <rmg_smiles>  (3) 
[N][C][NH].[O]

>  <rmg_adjacency_list>  (3) 
multiplicity 4
1 O u2 p3 c0
2 N u0 p1 c0 {4,S} {5,S}
3 N u1 p2 c0 {4,S}
4 C u0 p1 c0 {2,S} {3,S}
5 H u0 p0 c0 {2,S}


>  <multiplicity>  (3) 
4

>  <reaction>  (3) 
rxn_61

>  <type>  (3) 
ts

>  <role_mapnums>  (3) 
{"*2": 5, "*1": 4, "*3": 1, "*0": 3, "*4": null}

>  <role_mapidx>  (3) 
{"*2": 4, "*1": 3, "*3": 0, "*0": 2}

>  <ordered_mapped_smiles>  (3) 
[O:1].[NH:2][CH2:3][NH:4][H:5]

>  <mol_properties>  (3) 
{"0": {"label": "*3", "atom_type": "Oa"}, "2": {"label": "*0", "atom_type": "C2s"}, "3": {"label": "*1", "atom_type": "N3s"}, "4": {"label": "*2", "atom_type": "H0"}}

>  <level_of_theory>  (3) 
wb97xd/def2tzvp

>  <lot_method>  (3) 
wb97xd

>  <lot_basis>  (3) 
def2tzvp

>  <spin_multiplicity>  (3) 
2.0

>  <optical_isomers>  (3) 
1.0

>  <modes>  (3) 
IdealGasTranslation(mass=(57.0089, 'amu')),         NonlinearRotor(             inertia = ([19.6845, 123.922, 143.606

>  <frequency_value>  (3) 
-1857.4

>  <frequency_units>  (3) 
cm^-1

>  <frequency_list>  (3) 
unknown

>  <arkane_path>  (3) 
/home/calvin/Dropbox/PersonalFolders/Calvin/HAb_Converged/rxn_61/output/rxns/TS0/arkane/output.py

>  <path_exists>  (3) 
True

>  <E0_value>  (3) 
-585937.0

>  <E0_units>  (3) 
kJ/mol

>  <thermo_class>  (3) 
unknown

>  <Cp0_value>  (3) 
unknown

>  <Cp0_units>  (3) 
unknown

>  <CpInf_value>  (3) 
unknown

>  <CpInf_units>  (3) 
unknown

>  <Tmin_value>  (3) 
unknown

>  <Tmin_units>  (3) 
unknown

>  <Tmax_value>  (3) 
unknown

>  <Tmax_units>  (3) 
unknown

>  <polynomials>  (3) 
unknown

>  <H298_value>  (3) 
unknown

>  <H298_units>  (3) 
unknown

>  <S298_value>  (3) 
unknown

>  <S298_units>  (3) 
unknown

>  <Cp_T_value_list>  (3) 
unknown

>  <Cp_T_units>  (3) 
unknown

>  <T_list>  (3) 
unknown

>  <T_units>  (3) 
unknown

>  <yaml_path>  (3) 
unknown

>  <frequencies_cm1>  (3) 
unknown

>  <ZPE_kJmol>  (3) 
unknown

>  <E_elec_kJmol>  (3) 
unknown

>  <E0_minus_Eelec_plus_ZPE_kJmol>  (3) 
unknown

>  <rxn>  (3) 
unknown

>  <species_type>  (3) 
unknown

>  <species_folder>  (3) 
unknown

>  <frequencies_cm1_list>  (3) 
[]

>  <ts_imag_freq_cm1>  (3) 
-1879.9601

>  <ts_freq_out_path>  (3) 
/home/calvin/Dropbox/PersonalFolders/Calvin/HAb_Converged/rxn_61/output/rxns/TS0/geometry/freq.out

>  <E0_kJmol>  (3) 
-585937

>  <H298_kJmol>  (3) 
unknown

$$$$

     RDKit          3D

  3  2  0  0  0  0  0  0  0  0999 V2000
   -1.1710   -0.3992    0.0000 N   0  0  0  0  0  0  0  0  0  1  0  0
    0.0000   -0.0508    0.0000 C   0  0  0  0  0  0  0  0  0  2  0  0
    1.1710    0.2976    0.0000 N   0  0  0  0  0  1  0  0  0  3  0  0
  1  2  1  0
  2  3  1  0
M  RAD  1   3   3
M  END
>  <rmg_smiles>  (4) 
[N][C][N]

>  <rmg_adjacency_list>  (4) 
multiplicity 3
1 N u2 p2 c0 {3,S}
2 N u0 p2 c0 {3,S}
3 C u0 p1 c0 {1,S} {2,S}


>  <multiplicity>  (4) 
3

>  <reaction>  (4) 
rxn_61

>  <type>  (4) 
r1

>  <role_mapnums>  (4) 
{}

>  <role_mapidx>  (4) 
{}

>  <ordered_mapped_smiles>  (4) 
[NH2:1][CH2:2][N:3]

>  <level_of_theory>  (4) 
wb97xd/def2tzvp

>  <lot_method>  (4) 
wb97xd

>  <lot_basis>  (4) 
def2tzvp

>  <spin_multiplicity>  (4) 
3.0

>  <optical_isomers>  (4) 
1.0

>  <modes>  (4) 
IdealGasTranslation(mass=(40.0061, 'amu')),         LinearRotor(inertia=(41.8023, 'amu*angstrom^2'), symmetry=2),         HarmonicOscillator(frequencies=([449.554, 449.554, 1275.16, 1485.6

>  <frequency_value>  (4) 
unknown

>  <frequency_units>  (4) 
unknown

>  <frequency_list>  (4) 
unknown

>  <arkane_path>  (4) 
/home/calvin/Dropbox/PersonalFolders/Calvin/HAb_Converged/rxn_61/output/Species/rxn_61_[N]=C=[N]/arkane/output.py

>  <path_exists>  (4) 
True

>  <E0_value>  (4) 
-387204.8735504053

>  <E0_units>  (4) 
kJ/mol

>  <thermo_class>  (4) 
NASA

>  <Cp0_value>  (4) 
29.100652

>  <Cp0_units>  (4) 
J/(mol*K)

>  <CpInf_value>  (4) 
62.358540000000005

>  <CpInf_units>  (4) 
J/(mol*K)

>  <Tmin_value>  (4) 
10.0

>  <Tmin_units>  (4) 
K

>  <Tmax_value>  (4) 
3000.0

>  <Tmax_units>  (4) 
K

>  <polynomials>  (4) 
[{"name": "polynomial1", "class": "NASAPolynomial", "Tmin_value": 10.0, "Tmin_units": "K", "Tmax_value": 488.6017606953712, "Tmax_units": "K", "coeffs": [3.5075719254411526, -0.0016328539110311794, 4.598375972593302e-05, -1.0087860360580896e-07, 6.901308283710532e-11, -46569988.71251437, 6.297033104837899]}, {"name": "polynomial2", "class": "NASAPolynomial", "Tmin_value": 488.6017606953712, "Tmin_units": "K", "Tmax_value": 3000.0, "Tmax_units": "K", "coeffs": [3.373401802517649, 0.007266018202344169, -5.282971955509473e-06, 1.7462972141148447e-09, -2.1483989717915183e-13, -46570068.712345794, 5.895401717001685]}]

>  <H298_value>  (4) 
-92541.7759489445

>  <H298_units>  (4) 
kcal/mol

>  <S298_value>  (4) 
53.81627556693727

>  <S298_units>  (4) 
cal/(mol*K)

>  <Cp_T_value_list>  (4) 
[9.91921636809275, 10.974022411086937, 11.705694687132313, 12.28192931716325, 13.137859491642185, 13.687690321857465, 14.291727488080053, 14.51950391689613, 14.6951288485641]

>  <Cp_T_units>  (4) 
cal/(mol*K)

>  <T_list>  (4) 
[300.0, 400.0, 500.0, 600.0, 800.0, 1000.0, 1500.0, 2000.0, 2400.0]

>  <T_units>  (4) 
K

>  <yaml_path>  (4) 
/home/calvin/Dropbox/PersonalFolders/Calvin/HAb_Converged/rxn_61/output/Species/rxn_61_[N]=C=[N]/rxn_61_N=C=N.yml

>  <frequencies_cm1>  (4) 
[449.55406095911997, 449.55406095911997, 1275.1648389974, 1485.5967371434797]

>  <ZPE_kJmol>  (4) 
21.89088842109195

>  <E_elec_kJmol>  (4) 
-387226.7644388264

>  <E0_minus_Eelec_plus_ZPE_kJmol>  (4) 
0.0

>  <rxn>  (4) 
rxn_61

>  <species_type>  (4) 
p1

>  <species_folder>  (4) 
rxn_61_[N]=C=[N]

>  <frequencies_cm1_list>  (4) 
[449.55406095911997, 449.55406095911997, 1275.1648389974, 1485.5967371434797]

>  <E0_kJmol>  (4) 
-387205

>  <H298_kJmol>  (4) 
-387195

$$$$

     RDKit          3D

  1  0  0  0  0  0  0  0  0  0999 V2000
    0.0000    0.0000    0.0000 O   0  0  0  0  0 15  0  0  0  1  0  0
M  END
>  <rmg_smiles>  (5) 
[O]

>  <rmg_adjacency_list>  (5) 
multiplicity 3
1 O u2 p3 c0


>  <multiplicity>  (5) 
3

>  <reaction>  (5) 
rxn_61

>  <type>  (5) 
r2

>  <role_mapnums>  (5) 
{}

>  <role_mapidx>  (5) 
{}

>  <ordered_mapped_smiles>  (5) 
[O:1]

>  <level_of_theory>  (5) 
wb97xd/def2tzvp

>  <lot_method>  (5) 
wb97xd

>  <lot_basis>  (5) 
def2tzvp

>  <spin_multiplicity>  (5) 
3.0

>  <optical_isomers>  (5) 
1.0

>  <modes>  (5) 
IdealGasTranslation(mass=(15.9994, 'amu')),

>  <frequency_value>  (5) 
unknown

>  <frequency_units>  (5) 
unknown

>  <frequency_list>  (5) 
unknown

>  <arkane_path>  (5) 
/home/calvin/Dropbox/PersonalFolders/Calvin/HAb_Converged/rxn_61/output/Species/rxn_61_[O]/arkane/output.py

>  <path_exists>  (5) 
True

>  <E0_value>  (5) 
-197098.59938458708

>  <E0_units>  (5) 
kJ/mol

>  <thermo_class>  (5) 
NASA

>  <Cp0_value>  (5) 
20.78618

>  <Cp0_units>  (5) 
J/(mol*K)

>  <CpInf_value>  (5) 
20.78618

>  <CpInf_units>  (5) 
J/(mol*K)

>  <Tmin_value>  (5) 
10.0

>  <Tmin_units>  (5) 
K

>  <Tmax_value>  (5) 
3000.0

>  <Tmax_units>  (5) 
K

>  <polynomials>  (5) 
[{"name": "polynomial1", "class": "NASAPolynomial", "Tmin_value": 10.0, "Tmin_units": "K", "Tmax_value": 1853.5663026740365, "Tmax_units": "K", "coeffs": [2.500000000000126, -2.814048095438137e-15, 9.047587538332909e-18, -8.591944598242694e-21, 2.4182720553650057e-24, -23705485.977386568, 4.091313385047355]}, {"name": "polynomial2", "class": "NASAPolynomial", "Tmin_value": 1853.5663026740365, "Tmin_units": "K", "Tmax_value": 3000.0, "Tmax_units": "K", "coeffs": [2.500000000696122, -1.3129776766613561e-12, 9.140875080033424e-16, -2.782806647322001e-19, 3.1263265306749967e-23, -23705485.97738686, 4.091313381171202]}]

>  <H298_value>  (5) 
-47106.215373741215

>  <H298_units>  (5) 
kcal/mol

>  <S298_value>  (5) 
36.4335375885593

>  <S298_units>  (5) 
cal/(mol*K)

>  <Cp_T_value_list>  (5) 
[4.968016252389826, 4.968016252389978, 4.968016252390173, 4.96801625239036, 4.968016252390567, 4.968016252390427, 4.968016252389077, 4.968016252391019, 4.968016252390868]

>  <Cp_T_units>  (5) 
cal/(mol*K)

>  <T_list>  (5) 
[300.0, 400.0, 500.0, 600.0, 800.0, 1000.0, 1500.0, 2000.0, 2400.0]

>  <T_units>  (5) 
K

>  <yaml_path>  (5) 
/home/calvin/Dropbox/PersonalFolders/Calvin/HAb_Converged/rxn_61/output/Species/rxn_61_[O]/rxn_61_O.yml

>  <frequencies_cm1>  (5) 
[]

>  <ZPE_kJmol>  (5) 
unknown

>  <E_elec_kJmol>  (5) 
unknown

>  <E0_minus_Eelec_plus_ZPE_kJmol>  (5) 
unknown

>  <rxn>  (5) 
rxn_61

>  <species_type>  (5) 
r0

>  <species_folder>  (5) 
rxn_61_[O]

>  <frequencies_cm1_list>  (5) 
[]

>  <E0_kJmol>  (5) 
-197099

>  <H298_kJmol>  (5) 
-197092

$$$$
