
     RDKit          3D

  7  7  0  0  0  0  0  0  0  0999 V2000
   -1.3107   -1.3758    0.3359 O   0  0  0  0  0  0  0  0  0  1  0  0
   -0.5005   -0.5495    0.1260 C   0  0  0  0  0  0  0  0  0  2  0  0
    0.7370   -0.7117   -0.3655 O   0  0  0  0  0  0  0  0  0  3  0  0
    1.3713    0.5636   -0.4650 N   0  0  0  0  0  0  0  0  0  4  0  0
    0.4934    1.3505   -0.0231 C   0  0  0  0  0  0  0  0  0  5  0  0
   -0.6649    0.8160    0.3542 O   0  0  0  0  0  0  0  0  0  6  0  0
    0.6379    2.4281    0.0549 H   0  0  0  0  0  0  0  0  0  7  0  0
  1  2  1  0
  2  3  1  0
  2  6  1  0
  3  4  1  0
  4  5  1  0
  5  7  1  0
  5  6  1  0
M  END
>  <rmg_smiles>  (1) 
[O][C]1O[N][CH]O1

>  <rmg_adjacency_list>  (1) 
1 O u0 p2 c0 {5,S} {6,S}
2 O u0 p2 c0 {4,S} {5,S}
3 O u0 p2 c0 {5,S}
4 N u0 p1 c0 {2,S} {6,S}
5 C u0 p0 c0 {1,S} {2,S} {3,S}
6 C u0 p0 c0 {1,S} {4,S} {7,S}
7 H u0 p0 c0 {6,S}


>  <multiplicity>  (1) 
1

>  <reaction>  (1) 
rxn_3193

>  <type>  (1) 
r1h

>  <role_mapnums>  (1) 
{"r1h_a": 5, "r1h_h": 7}

>  <role_mapidx>  (1) 
{"r1h_a": 4, "r1h_h": 6}

>  <ordered_mapped_smiles>  (1) 
[OH:1][CH:2]1[O:3][NH:4][CH:5]([H:7])[O:6]1

>  <mol_properties>  (1) 
{"4": {"label": "donator", "atom_type": "Cs"}, "6": {"label": "d_hydrogen", "atom_type": "H0"}}

>  <level_of_theory>  (1) 
wb97xd/def2tzvp

>  <lot_method>  (1) 
wb97xd

>  <lot_basis>  (1) 
def2tzvp

>  <spin_multiplicity>  (1) 
1.0

>  <optical_isomers>  (1) 
1.0

>  <modes>  (1) 
IdealGasTranslation(mass=(86.9956, 'amu')),         NonlinearRotor(             inertia = ([50.2839, 119.232, 169.516

>  <frequency_value>  (1) 
unknown

>  <frequency_units>  (1) 
unknown

>  <frequency_list>  (1) 
unknown

>  <arkane_path>  (1) 
/home/calvin/Dropbox/PersonalFolders/Calvin/ATLAS_Converged/NonRMG/rxn_3193/output/Species/rxn_3193_r2_O=c1onco1/arkane/output.py

>  <path_exists>  (1) 
True

>  <E0_value>  (1) 
-937769.1113699628

>  <E0_units>  (1) 
kJ/mol

>  <thermo_class>  (1) 
NASA

>  <Cp0_value>  (1) 
33.257888

>  <Cp0_units>  (1) 
J/(mol*K)

>  <CpInf_value>  (1) 
157.97496800000002

>  <CpInf_units>  (1) 
J/(mol*K)

>  <Tmin_value>  (1) 
10.0

>  <Tmin_units>  (1) 
K

>  <Tmax_value>  (1) 
3000.0

>  <Tmax_units>  (1) 
K

>  <polynomials>  (1) 
[{"name": "polynomial1", "class": "NASAPolynomial", "Tmin_value": 10.0, "Tmin_units": "K", "Tmax_value": 608.8018941966254, "Tmax_units": "K", "coeffs": [4.080802135404915, -0.007412389887208476, 0.00012052516986114182, -2.0531936199451507e-07, 1.1013926592743611e-10, -112787570.81236778, 9.709904309303361]}, {"name": "polynomial2", "class": "NASAPolynomial", "Tmin_value": 608.8018941966254, "Tmin_units": "K", "Tmax_value": 3000.0, "Tmax_units": "K", "coeffs": [2.084310016130821, 0.02743881751334981, -1.8891854435107166e-05, 5.9871460941038876e-09, -7.115828434789657e-13, -112787730.4872278, 15.043162660008011]}]

>  <H298_value>  (1) 
-224129.02017265852

>  <H298_units>  (1) 
kcal/mol

>  <S298_value>  (1) 
68.57305751555727

>  <S298_units>  (1) 
cal/(mol*K)

>  <Cp_T_value_list>  (1) 
[16.002687271639545, 20.029053127627588, 23.29936732896358, 25.729348274906148, 29.248761791000916, 31.610168594424337, 34.45834698675275, 35.58365598450389, 36.32233362748013]

>  <Cp_T_units>  (1) 
cal/(mol*K)

>  <T_list>  (1) 
[300.0, 400.0, 500.0, 600.0, 800.0, 1000.0, 1500.0, 2000.0, 2400.0]

>  <T_units>  (1) 
K

>  <yaml_path>  (1) 
/home/calvin/Dropbox/PersonalFolders/Calvin/ATLAS_Converged/NonRMG/rxn_3193/output/Species/rxn_3193_r2_O=c1onco1/rxn_3193_r2_O=c1onco1.yml

>  <frequencies_cm1>  (1) 
[243.02261047479996, 520.5518221826, 611.07242267084, 751.5503413620801, 775.625991894, 893.18191358708, 894.34243410616, 944.34095422108, 979.918805164, 1107.3082498353199, 1207.5937034485999, 1306.54009492448, 1681.80024170652, 1945.8014923339197, 3258.90642522432]

>  <ZPE_kJmol>  (1) 
102.40968554023124

>  <E_elec_kJmol>  (1) 
-937871.5210555032

>  <E0_minus_Eelec_plus_ZPE_kJmol>  (1) 
0.0

>  <rxn>  (1) 
rxn_3193

>  <species_type>  (1) 
r1

>  <species_folder>  (1) 
rxn_3193_r2_O=c1onco1

>  <frequencies_cm1_list>  (1) 
[243.02261047479996, 520.5518221826, 611.07242267084, 751.5503413620801, 775.625991894, 893.18191358708, 894.34243410616, 944.34095422108, 979.918805164, 1107.3082498353199, 1207.5937034485999, 1306.54009492448, 1681.80024170652, 1945.8014923339197, 3258.90642522432]

>  <E0_kJmol>  (1) 
-937769

>  <H298_kJmol>  (1) 
-937756

$$$$

     RDKit          3D

  7  7  0  0  0  0  0  0  0  0999 V2000
    0.9091   -0.5036    1.7184 N   0  0  0  0  0  0  0  0  0  1  0  0
    0.3378   -0.2140    0.6413 C   0  0  0  0  0  0  0  0  0  2  0  0
    0.2003    1.0502    0.1813 O   0  0  0  0  0  0  0  0  0  3  0  0
   -0.4768    0.9660   -1.0188 N   0  0  0  0  0  0  0  0  0  4  0  0
   -0.7319   -0.1968   -1.2795 N   0  0  0  0  0  0  0  0  0  5  0  0
   -0.2491   -1.0205   -0.2749 O   0  0  0  0  0  0  0  0  0  6  0  0
    0.9160   -1.5286    1.8938 H   0  0  0  0  0  0  0  0  0  7  0  0
  1  2  1  0
  1  7  1  0
  2  3  1  0
  2  6  1  0
  3  4  1  0
  4  5  1  0
  5  6  1  0
M  END
>  <rmg_smiles>  (2) 
[NH][C]1O[N][N]O1

>  <rmg_adjacency_list>  (2) 
1 O u0 p2 c0 {3,S} {6,S}
2 O u0 p2 c0 {4,S} {6,S}
3 N u0 p1 c0 {1,S} {4,S}
4 N u0 p1 c0 {2,S} {3,S}
5 N u0 p1 c0 {6,S} {7,S}
6 C u0 p0 c0 {1,S} {2,S} {5,S}
7 H u0 p0 c0 {5,S}


>  <multiplicity>  (2) 
1

>  <reaction>  (2) 
rxn_3193

>  <type>  (2) 
r2h

>  <role_mapnums>  (2) 
{"r2h_a": 1, "r2h_h": 7}

>  <role_mapidx>  (2) 
{"r2h_a": 0, "r2h_h": 6}

>  <ordered_mapped_smiles>  (2) 
[NH:1]([CH:2]1[O:3][NH:4][NH:5][O:6]1)[H:7]

>  <mol_properties>  (2) 
{"0": {"label": "acceptor", "atom_type": "N3s"}, "6": {"label": "a_hydrogen", "atom_type": "H0"}}

>  <level_of_theory>  (2) 
wb97xd/def2tzvp

>  <lot_method>  (2) 
wb97xd

>  <lot_basis>  (2) 
def2tzvp

>  <spin_multiplicity>  (2) 
1.0

>  <optical_isomers>  (2) 
1.0

>  <modes>  (2) 
IdealGasTranslation(mass=(87.0069, 'amu')),         NonlinearRotor(             inertia = ([48.8575, 120.721, 169.578

>  <frequency_value>  (2) 
unknown

>  <frequency_units>  (2) 
unknown

>  <frequency_list>  (2) 
unknown

>  <arkane_path>  (2) 
/home/calvin/Dropbox/PersonalFolders/Calvin/ATLAS_Converged/NonRMG/rxn_3193/output/Species/rxn_3193_p1_N=c1onno1/arkane/output.py

>  <path_exists>  (2) 
True

>  <E0_value>  (2) 
-927513.3956974436

>  <E0_units>  (2) 
kJ/mol

>  <thermo_class>  (2) 
NASA

>  <Cp0_value>  (2) 
33.257888

>  <Cp0_units>  (2) 
J/(mol*K)

>  <CpInf_value>  (2) 
157.97496800000002

>  <CpInf_units>  (2) 
J/(mol*K)

>  <Tmin_value>  (2) 
10.0

>  <Tmin_units>  (2) 
K

>  <Tmax_value>  (2) 
3000.0

>  <Tmax_units>  (2) 
K

>  <polynomials>  (2) 
[{"name": "polynomial1", "class": "NASAPolynomial", "Tmin_value": 10.0, "Tmin_units": "K", "Tmax_value": 594.5510705426203, "Tmax_units": "K", "coeffs": [4.064128165333628, -0.006464132682369532, 0.00012609118943386684, -2.2452471871589397e-07, 1.2482881080850414e-10, -111554092.36102824, 9.73736041625877]}, {"name": "polynomial2", "class": "NASAPolynomial", "Tmin_value": 594.5510705426203, "Tmin_units": "K", "Tmax_value": 3000.0, "Tmax_units": "K", "coeffs": [2.6619435988700717, 0.02700063330274151, -1.8966063744434276e-05, 6.109629991067157e-09, -7.351884988814937e-13, -111554350.36753283, 12.201082878024012]}]

>  <H298_value>  (2) 
-221677.73393283132

>  <H298_units>  (2) 
kcal/mol

>  <S298_value>  (2) 
69.21240690289005

>  <S298_units>  (2) 
cal/(mol*K)

>  <Cp_T_value_list>  (2) 
[16.736335365541446, 20.824137553247738, 24.027452944596273, 26.348252322457366, 29.711055843773885, 31.936305555783512, 34.552273976473494, 35.596788664173474, 36.33939231381346]

>  <Cp_T_units>  (2) 
cal/(mol*K)

>  <T_list>  (2) 
[300.0, 400.0, 500.0, 600.0, 800.0, 1000.0, 1500.0, 2000.0, 2400.0]

>  <T_units>  (2) 
K

>  <yaml_path>  (2) 
/home/calvin/Dropbox/PersonalFolders/Calvin/ATLAS_Converged/NonRMG/rxn_3193/output/Species/rxn_3193_p1_N=c1onno1/rxn_3193_p1_N=c1onno1.yml

>  <frequencies_cm1>  (2) 
[208.89369343439998, 445.44073675243993, 644.52150816456, 714.2214091625599, 757.75122910604, 783.81143839544, 819.0802749989599, 941.40875148944, 996.4545058145599, 1049.54316932348, 1062.20589025356, 1273.50302854996, 1598.9500638207198, 1829.7357064552798, 3558.0254387782]

>  <ZPE_kJmol>  (2) 
99.78979924741076

>  <E_elec_kJmol>  (2) 
-927613.1854966908

>  <E0_minus_Eelec_plus_ZPE_kJmol>  (2) 
0.0

>  <rxn>  (2) 
rxn_3193

>  <species_type>  (2) 
p0

>  <species_folder>  (2) 
rxn_3193_p1_N=c1onno1

>  <frequencies_cm1_list>  (2) 
[208.89369343439998, 445.44073675243993, 644.52150816456, 714.2214091625599, 757.75122910604, 783.81143839544, 819.0802749989599, 941.40875148944, 996.4545058145599, 1049.54316932348, 1062.20589025356, 1273.50302854996, 1598.9500638207198, 1829.7357064552798, 3558.0254387782]

>  <E0_kJmol>  (2) 
-927513

>  <H298_kJmol>  (2) 
-927500

$$$$

     RDKit          3D

 13 13  0  0  0  0  0  0  0  0999 V2000
    0.7249    1.6921    0.7866 N   0  0  0  0  0  0  0  0  0  1  0  0
    0.1536    1.9817   -0.2905 C   0  0  0  0  0  0  0  0  0  2  0  0
    0.0161    3.2459   -0.7506 O   0  0  0  0  0  0  0  0  0  3  0  0
   -0.6610    3.1616   -1.9506 N   0  0  0  0  0  0  0  0  0  4  0  0
   -0.9161    1.9989   -2.2113 N   0  0  0  0  0  0  0  0  0  5  0  0
   -0.4333    1.1752   -1.2068 O   0  0  0  0  0  0  0  0  0  6  0  0
   -1.2678   -3.6052    1.2297 O   0  0  0  0  0  0  0  0  0  7  0  0
   -0.4575   -2.7789    1.0199 C   0  0  0  0  0  0  0  0  0  8  0  0
    0.7800   -2.9411    0.5283 O   0  0  0  0  0  0  0  0  0  9  0  0
    1.4143   -1.6659    0.4289 N   0  0  0  0  0  0  0  0  0 10  0  0
    0.5363   -0.8789    0.8708 C   0  0  0  0  0  3  0  0  0 11  0  0
   -0.6219   -1.4135    1.2481 O   0  0  0  0  0  0  0  0  0 12  0  0
    0.7323    0.5822    0.9765 H   0  0  0  0  0  0  0  0  0 13  0  0
  1  2  1  0
  1 13  1  0
  2  3  1  0
  2  6  1  0
  3  4  1  0
  4  5  1  0
  5  6  1  0
  7  8  1  0
  8  9  1  0
  8 12  1  0
  9 10  1  0
 10 11  1  0
 11 12  1  0
M  RAD  1  11   2
M  END
>  <rmg_smiles>  (3) 
[O][C]1O[N][C]O1.[NH][C]1O[N][N]O1

>  <rmg_adjacency_list>  (3) 
multiplicity 2
1  O u0 p2 c0 {6,S} {10,S}
2  O u0 p2 c0 {7,S} {10,S}
3  O u0 p2 c0 {8,S} {11,S}
4  O u0 p2 c0 {11,S} {12,S}
5  O u0 p2 c0 {11,S}
6  N u0 p1 c0 {1,S} {7,S}
7  N u0 p1 c0 {2,S} {6,S}
8  N u0 p1 c0 {3,S} {12,S}
9  N u0 p1 c0 {10,S} {13,S}
10 C u0 p0 c0 {1,S} {2,S} {9,S}
11 C u0 p0 c0 {3,S} {4,S} {5,S}
12 C u1 p1 c0 {4,S} {8,S}
13 H u0 p0 c0 {9,S}


>  <multiplicity>  (3) 
2

>  <reaction>  (3) 
rxn_3193

>  <type>  (3) 
ts

>  <role_mapnums>  (3) 
{"*2": 13, "*1": 11, "*3": 1, "*0": 2, "*4": 12}

>  <role_mapidx>  (3) 
{"*2": 12, "*1": 10, "*3": 0, "*0": 1, "*4": 11}

>  <ordered_mapped_smiles>  (3) 
[NH:1]([CH:2]1[O:3][NH:4][NH:5][O:6]1)[H:13].[OH:7][CH:8]1[O:9][NH:10][CH:11][O:12]1

>  <mol_properties>  (3) 
{"0": {"label": "*3", "atom_type": "N3s"}, "1": {"label": "*0", "atom_type": "Cs"}, "10": {"label": "*1", "atom_type": "C2s"}, "11": {"label": "*4", "atom_type": "O2s"}, "12": {"label": "*2", "atom_type": "H0"}}

>  <level_of_theory>  (3) 
wb97xd/def2tzvp

>  <lot_method>  (3) 
wb97xd

>  <lot_basis>  (3) 
def2tzvp

>  <spin_multiplicity>  (3) 
2.0

>  <optical_isomers>  (3) 
2.0

>  <modes>  (3) 
IdealGasTranslation(mass=(172.995, 'amu')),         NonlinearRotor(             inertia = ([190.084, 1211.3, 1276.63

>  <frequency_value>  (3) 
-1082.94

>  <frequency_units>  (3) 
cm^-1

>  <frequency_list>  (3) 
unknown

>  <arkane_path>  (3) 
/home/calvin/Dropbox/PersonalFolders/Calvin/ATLAS_Converged/NonRMG/rxn_3193/output/rxns/TS0/arkane/output.py

>  <path_exists>  (3) 
True

>  <E0_value>  (3) 
-1863460.0

>  <E0_units>  (3) 
kJ/mol

>  <thermo_class>  (3) 
unknown

>  <Cp0_value>  (3) 
unknown

>  <Cp0_units>  (3) 
unknown

>  <CpInf_value>  (3) 
unknown

>  <CpInf_units>  (3) 
unknown

>  <Tmin_value>  (3) 
unknown

>  <Tmin_units>  (3) 
unknown

>  <Tmax_value>  (3) 
unknown

>  <Tmax_units>  (3) 
unknown

>  <polynomials>  (3) 
unknown

>  <H298_value>  (3) 
unknown

>  <H298_units>  (3) 
unknown

>  <S298_value>  (3) 
unknown

>  <S298_units>  (3) 
unknown

>  <Cp_T_value_list>  (3) 
unknown

>  <Cp_T_units>  (3) 
unknown

>  <T_list>  (3) 
unknown

>  <T_units>  (3) 
unknown

>  <yaml_path>  (3) 
unknown

>  <frequencies_cm1>  (3) 
unknown

>  <ZPE_kJmol>  (3) 
unknown

>  <E_elec_kJmol>  (3) 
unknown

>  <E0_minus_Eelec_plus_ZPE_kJmol>  (3) 
unknown

>  <rxn>  (3) 
unknown

>  <species_type>  (3) 
unknown

>  <species_folder>  (3) 
unknown

>  <frequencies_cm1_list>  (3) 
[]

>  <ts_imag_freq_cm1>  (3) 
-1096.0934

>  <ts_freq_out_path>  (3) 
/home/calvin/Dropbox/PersonalFolders/Calvin/ATLAS_Converged/NonRMG/rxn_3193/output/rxns/TS0/geometry/freq.out

>  <E0_kJmol>  (3) 
-1.86346e+06

>  <H298_kJmol>  (3) 
unknown

$$$$

     RDKit          3D

  6  6  0  0  0  0  0  0  0  0999 V2000
    1.9541    0.0501   -0.0228 O   0  0  0  0  0  0  0  0  0  1  0  0
    0.7820   -0.0012   -0.0063 C   0  0  0  0  0  0  0  0  0  2  0  0
   -0.0015   -1.0746    0.1445 O   0  0  0  0  0  0  0  0  0  3  0  0
   -1.3876   -0.6598    0.1002 N   0  0  0  0  0  0  0  0  0  4  0  0
   -1.2725    0.5741   -0.0667 C   0  0  0  0  0  3  0  0  0  5  0  0
   -0.0744    1.1115   -0.1488 O   0  0  0  0  0  0  0  0  0  6  0  0
  1  2  1  0
  2  3  1  0
  2  6  1  0
  3  4  1  0
  4  5  1  0
  5  6  1  0
M  RAD  1   5   2
M  END
>  <rmg_smiles>  (4) 
[O][C]1O[N][C]O1

>  <rmg_adjacency_list>  (4) 
multiplicity 2
1 O u0 p2 c0 {4,S} {5,S}
2 O u0 p2 c0 {5,S} {6,S}
3 O u0 p2 c0 {5,S}
4 N u0 p1 c0 {1,S} {6,S}
5 C u0 p0 c0 {1,S} {2,S} {3,S}
6 C u1 p1 c0 {2,S} {4,S}


>  <multiplicity>  (4) 
2

>  <reaction>  (4) 
rxn_3193

>  <type>  (4) 
r1

>  <role_mapnums>  (4) 
{}

>  <role_mapidx>  (4) 
{}

>  <ordered_mapped_smiles>  (4) 
[OH:1][CH:2]1[O:3][NH:4][CH:5][O:6]1

>  <level_of_theory>  (4) 
wb97xd/def2tzvp

>  <lot_method>  (4) 
wb97xd

>  <lot_basis>  (4) 
def2tzvp

>  <spin_multiplicity>  (4) 
2.0

>  <optical_isomers>  (4) 
1.0

>  <modes>  (4) 
IdealGasTranslation(mass=(85.9878, 'amu')),         NonlinearRotor(             inertia = ([48.8815, 114.954, 163.836

>  <frequency_value>  (4) 
unknown

>  <frequency_units>  (4) 
unknown

>  <frequency_list>  (4) 
unknown

>  <arkane_path>  (4) 
/home/calvin/Dropbox/PersonalFolders/Calvin/ATLAS_Converged/NonRMG/rxn_3193/output/Species/rxn_3193_p2_O=C1ON=sbr-C-sbrO1/arkane/output.py

>  <path_exists>  (4) 
True

>  <E0_value>  (4) 
-935956.3495942038

>  <E0_units>  (4) 
kJ/mol

>  <thermo_class>  (4) 
NASA

>  <Cp0_value>  (4) 
33.257888

>  <Cp0_units>  (4) 
J/(mol*K)

>  <CpInf_value>  (4) 
133.031552

>  <CpInf_units>  (4) 
J/(mol*K)

>  <Tmin_value>  (4) 
10.0

>  <Tmin_units>  (4) 
K

>  <Tmax_value>  (4) 
3000.0

>  <Tmax_units>  (4) 
K

>  <polynomials>  (4) 
[{"name": "polynomial1", "class": "NASAPolynomial", "Tmin_value": 10.0, "Tmin_units": "K", "Tmax_value": 619.0875269073089, "Tmax_units": "K", "coeffs": [3.9491773374549837, 0.0028023806294373995, 6.507851909826175e-05, -1.1632401110270754e-07, 6.180341735282493e-11, -112569544.49499454, 9.909508025840756]}, {"name": "polynomial2", "class": "NASAPolynomial", "Tmin_value": 619.0875269073089, "Tmin_units": "K", "Tmax_value": 3000.0, "Tmax_units": "K", "coeffs": [2.4211511562466943, 0.02506111002969211, -1.886283123807416e-05, 6.385147055783526e-09, -7.991063570739138e-13, -112569592.65666991, 14.631650096017541]}]

>  <H298_value>  (4) 
-223695.60192418256

>  <H298_units>  (4) 
kcal/mol

>  <S298_value>  (4) 
70.00689451764389

>  <S298_units>  (4) 
cal/(mol*K)

>  <Cp_T_value_list>  (4) 
[15.91120003818664, 19.117171797462778, 21.74443009854784, 23.73243040460253, 26.508755484522535, 28.229203618012324, 29.95880983019772, 30.578181757682827, 31.14697615137384]

>  <Cp_T_units>  (4) 
cal/(mol*K)

>  <T_list>  (4) 
[300.0, 400.0, 500.0, 600.0, 800.0, 1000.0, 1500.0, 2000.0, 2400.0]

>  <T_units>  (4) 
K

>  <yaml_path>  (4) 
/home/calvin/Dropbox/PersonalFolders/Calvin/ATLAS_Converged/NonRMG/rxn_3193/output/Species/rxn_3193_p2_O=C1ON=sbr-C-sbrO1/rxn_3193_p2_O=C1ON=sbr-C-sbrO1.yml

>  <frequencies_cm1>  (4) 
[243.64750613892, 512.44191251968, 550.60861692824, 696.3329124039599, 758.6645381536, 772.20623320464, 860.3989256694, 938.2774061835198, 1064.4170595265998, 1261.4995382106, 1645.00006737664, 1961.8496370267599]

>  <ZPE_kJmol>  (4) 
67.38174214097845

>  <E_elec_kJmol>  (4) 
-936023.7313363448

>  <E0_minus_Eelec_plus_ZPE_kJmol>  (4) 
0.0

>  <rxn>  (4) 
rxn_3193

>  <species_type>  (4) 
p1

>  <species_folder>  (4) 
rxn_3193_p2_O=C1ON=sbr-C-sbrO1

>  <frequencies_cm1_list>  (4) 
[243.64750613892, 512.44191251968, 550.60861692824, 696.3329124039599, 758.6645381536, 772.20623320464, 860.3989256694, 938.2774061835198, 1064.4170595265998, 1261.4995382106, 1645.00006737664, 1961.8496370267599]

>  <E0_kJmol>  (4) 
-935956

>  <H298_kJmol>  (4) 
-935942

$$$$

     RDKit          3D

  6  6  0  0  0  0  0  0  0  0999 V2000
    1.9594    0.0134   -0.3734 N   0  0  0  0  0  2  0  0  0  1  0  0
    0.7437    0.0051   -0.0788 C   0  0  0  0  0  0  0  0  0  2  0  0
   -0.0745    1.0868    0.0233 O   0  0  0  0  0  0  0  0  0  3  0  0
   -1.3223    0.5972    0.3682 N   0  0  0  0  0  0  0  0  0  4  0  0
   -1.2899   -0.6150    0.4676 N   0  0  0  0  0  0  0  0  0  5  0  0
   -0.0165   -1.0874    0.2015 O   0  0  0  0  0  0  0  0  0  6  0  0
  1  2  1  0
  2  3  1  0
  2  6  1  0
  3  4  1  0
  4  5  1  0
  5  6  1  0
M  RAD  1   1   2
M  END
>  <rmg_smiles>  (5) 
[N][C]1O[N][N]O1

>  <rmg_adjacency_list>  (5) 
multiplicity 2
1 O u0 p2 c0 {3,S} {6,S}
2 O u0 p2 c0 {4,S} {6,S}
3 N u0 p1 c0 {1,S} {4,S}
4 N u0 p1 c0 {2,S} {3,S}
5 N u1 p2 c0 {6,S}
6 C u0 p0 c0 {1,S} {2,S} {5,S}


>  <multiplicity>  (5) 
2

>  <reaction>  (5) 
rxn_3193

>  <type>  (5) 
r2

>  <role_mapnums>  (5) 
{}

>  <role_mapidx>  (5) 
{}

>  <ordered_mapped_smiles>  (5) 
[NH:1][CH:2]1[O:3][NH:4][NH:5][O:6]1

>  <level_of_theory>  (5) 
wb97xd/def2tzvp

>  <lot_method>  (5) 
wb97xd

>  <lot_basis>  (5) 
def2tzvp

>  <spin_multiplicity>  (5) 
2.0

>  <optical_isomers>  (5) 
1.0

>  <modes>  (5) 
IdealGasTranslation(mass=(85.999, 'amu')),         NonlinearRotor(             inertia = ([48.4503, 114.569, 163.019

>  <frequency_value>  (5) 
unknown

>  <frequency_units>  (5) 
unknown

>  <frequency_list>  (5) 
unknown

>  <arkane_path>  (5) 
/home/calvin/Dropbox/PersonalFolders/Calvin/ATLAS_Converged/NonRMG/rxn_3193/output/Species/rxn_3193_r1_sbr-N-sbr=c1onno1/arkane/output.py

>  <path_exists>  (5) 
True

>  <E0_value>  (5) 
-925766.1233507326

>  <E0_units>  (5) 
kJ/mol

>  <thermo_class>  (5) 
NASA

>  <Cp0_value>  (5) 
33.257888

>  <Cp0_units>  (5) 
J/(mol*K)

>  <CpInf_value>  (5) 
133.031552

>  <CpInf_units>  (5) 
J/(mol*K)

>  <Tmin_value>  (5) 
10.0

>  <Tmin_units>  (5) 
K

>  <Tmax_value>  (5) 
3000.0

>  <Tmax_units>  (5) 
K

>  <polynomials>  (5) 
[{"name": "polynomial1", "class": "NASAPolynomial", "Tmin_value": 10.0, "Tmin_units": "K", "Tmax_value": 616.0864984642515, "Tmax_units": "K", "coeffs": [3.94812055354869, 0.002870632430470056, 6.601813711413239e-05, -1.1874693803665765e-07, 6.345849341330536e-11, -111343943.32258263, 9.377120967783604]}, {"name": "polynomial2", "class": "NASAPolynomial", "Tmin_value": 616.0864984642515, "Tmin_units": "K", "Tmax_value": 3000.0, "Tmax_units": "K", "coeffs": [2.4544566455499175, 0.02517036301302165, -1.8957852591200607e-05, 6.406820502487897e-09, -7.999640326918053e-13, -111343998.43927236, 13.91872622116066]}]

>  <H298_value>  (5) 
-221260.06538606877

>  <H298_units>  (5) 
kcal/mol

>  <S298_value>  (5) 
69.02430482099071

>  <S298_units>  (5) 
cal/(mol*K)

>  <Cp_T_value_list>  (5) 
[16.01447807468723, 19.24412536395936, 21.88065311931888, 23.870148628394773, 26.6491311769416, 28.365034926557463, 30.06252774055981, 30.64056177383133, 31.185424153668]

>  <Cp_T_units>  (5) 
cal/(mol*K)

>  <T_list>  (5) 
[300.0, 400.0, 500.0, 600.0, 800.0, 1000.0, 1500.0, 2000.0, 2400.0]

>  <T_units>  (5) 
K

>  <yaml_path>  (5) 
/home/calvin/Dropbox/PersonalFolders/Calvin/ATLAS_Converged/NonRMG/rxn_3193/output/Species/rxn_3193_r1_sbr-N-sbr=c1onno1/rxn_3193_r1_sbr-N-sbr=c1onno1.yml

>  <frequencies_cm1>  (5) 
[203.66105062056, 421.06293886643994, 625.6235645639199, 691.3131461350399, 746.0704870767199, 784.21659052932, 934.89884940608, 1008.3206564475199, 1041.0761764239198, 1163.2398452667198, 1617.8480074213599, 1768.29678879724]

>  <ZPE_kJmol>  (5) 
65.82829353267302

>  <E_elec_kJmol>  (5) 
-925831.9516442652

>  <E0_minus_Eelec_plus_ZPE_kJmol>  (5) 
0.0

>  <rxn>  (5) 
rxn_3193

>  <species_type>  (5) 
r0

>  <species_folder>  (5) 
rxn_3193_r1_sbr-N-sbr=c1onno1

>  <frequencies_cm1_list>  (5) 
[203.66105062056, 421.06293886643994, 625.6235645639199, 691.3131461350399, 746.0704870767199, 784.21659052932, 934.89884940608, 1008.3206564475199, 1041.0761764239198, 1163.2398452667198, 1617.8480074213599, 1768.29678879724]

>  <E0_kJmol>  (5) 
-925766

>  <H298_kJmol>  (5) 
-925752

$$$$
