
     RDKit          3D

 18 17  0  0  0  0  0  0  0  0999 V2000
    0.5117    0.6591   -1.5271 C   0  0  0  0  0  0  0  0  0  1  0  0
    0.4171    0.8211   -0.0274 C   0  0  0  0  0  0  0  0  0  2  0  0
    0.4926    2.2606    0.4319 C   0  0  0  0  0  0  0  0  0  3  0  0
   -0.7239    0.0692    0.6356 C   0  0  0  0  0  0  0  0  0  4  0  0
   -0.9513   -1.3613    0.1707 C   0  0  0  0  0  0  0  0  0  5  0  0
    0.1931   -2.1854    0.2679 O   0  0  0  0  0  0  0  0  0  6  0  0
    1.3524    1.2322   -1.9230 H   0  0  0  0  0  0  0  0  0  7  0  0
   -0.3973    1.0227   -2.0210 H   0  0  0  0  0  0  0  0  0  8  0  0
    0.6553   -0.3849   -1.8082 H   0  0  0  0  0  0  0  0  0  9  0  0
    1.3337    0.3789    0.3630 H   0  0  0  0  0  0  0  0  0 10  0  0
   -0.3668    2.8339    0.0661 H   0  0  0  0  0  0  0  0  0 11  0  0
    1.3971    2.7459    0.0594 H   0  0  0  0  0  0  0  0  0 12  0  0
    0.4968    2.3296    1.5223 H   0  0  0  0  0  0  0  0  0 13  0  0
   -0.5648    0.0738    1.7215 H   0  0  0  0  0  0  0  0  0 14  0  0
   -1.6614    0.6190    0.4728 H   0  0  0  0  0  0  0  0  0 15  0  0
   -1.2372   -1.3786   -0.8823 H   0  0  0  0  0  0  0  0  0 16  0  0
   -1.7863   -1.7919    0.7378 H   0  0  0  0  0  0  0  0  0 17  0  0
    0.5777   -2.0754    1.1392 H   0  0  0  0  0  0  0  0  0 18  0  0
  1  8  1  0
  1  7  1  0
  1  9  1  0
  1  2  1  0
  2 10  1  0
  2  3  1  0
  2  4  1  0
  3 11  1  0
  3 13  1  0
  3 12  1  0
  4  5  1  0
  4 14  1  0
  4 15  1  0
  5  6  1  0
  5 16  1  0
  5 17  1  0
  6 18  1  0
M  END
>  <rmg_smiles>  (1) 
CC(C)CCO

>  <rmg_adjacency_list>  (1) 
1  O u0 p2 c0 {4,S} {18,S}
2  C u0 p0 c0 {3,S} {5,S} {6,S} {7,S}
3  C u0 p0 c0 {2,S} {4,S} {8,S} {9,S}
4  C u0 p0 c0 {1,S} {3,S} {10,S} {11,S}
5  C u0 p0 c0 {2,S} {12,S} {13,S} {14,S}
6  C u0 p0 c0 {2,S} {15,S} {16,S} {17,S}
7  H u0 p0 c0 {2,S}
8  H u0 p0 c0 {3,S}
9  H u0 p0 c0 {3,S}
10 H u0 p0 c0 {4,S}
11 H u0 p0 c0 {4,S}
12 H u0 p0 c0 {5,S}
13 H u0 p0 c0 {5,S}
14 H u0 p0 c0 {5,S}
15 H u0 p0 c0 {6,S}
16 H u0 p0 c0 {6,S}
17 H u0 p0 c0 {6,S}
18 H u0 p0 c0 {1,S}


>  <multiplicity>  (1) 
1

>  <reaction>  (1) 
rxn_772

>  <type>  (1) 
r1h

>  <role_mapnums>  (1) 
{"r1h_a": 2, "r1h_h": 10}

>  <role_mapidx>  (1) 
{"r1h_a": 1, "r1h_h": 9}

>  <ordered_mapped_smiles>  (1) 
[C:1]([C:2]([C:3]([H:11])([H:12])[H:13])([C:4]([C:5]([O:6][H:18])([H:16])[H:17])([H:14])[H:15])[H:10])([H:7])([H:8])[H:9]

>  <mol_properties>  (1) 
{"1": {"label": "donator", "atom_type": "Cs"}, "9": {"label": "d_hydrogen", "atom_type": "H0"}}

>  <level_of_theory>  (1) 
wb97xd/def2tzvp

>  <lot_method>  (1) 
wb97xd

>  <lot_basis>  (1) 
def2tzvp

>  <spin_multiplicity>  (1) 
1.0

>  <optical_isomers>  (1) 
2.0

>  <modes>  (1) 
IdealGasTranslation(mass=(88.0888, 'amu')),         NonlinearRotor(             inertia = ([88.3327, 249.558, 277.876

>  <frequency_value>  (1) 
unknown

>  <frequency_units>  (1) 
unknown

>  <frequency_list>  (1) 
unknown

>  <arkane_path>  (1) 
/home/calvin/Dropbox/PersonalFolders/Calvin/HAb_Converged/rxn_772/output/Species/rxn_772_CC[C]CCO/arkane/output.py

>  <path_exists>  (1) 
True

>  <E0_value>  (1) 
-716351.1869669155

>  <E0_units>  (1) 
kJ/mol

>  <thermo_class>  (1) 
NASA

>  <Cp0_value>  (1) 
33.257888

>  <Cp0_units>  (1) 
J/(mol*K)

>  <CpInf_value>  (1) 
432.352544

>  <CpInf_units>  (1) 
J/(mol*K)

>  <Tmin_value>  (1) 
10.0

>  <Tmin_units>  (1) 
K

>  <Tmax_value>  (1) 
3000.0

>  <Tmax_units>  (1) 
K

>  <polynomials>  (1) 
[{"name": "polynomial1", "class": "NASAPolynomial", "Tmin_value": 10.0, "Tmin_units": "K", "Tmax_value": 996.9190910956405, "Tmax_units": "K", "coeffs": [3.6941214021948974, 0.03461381565786902, 3.1607118460585956e-05, -5.191352504177945e-08, 1.8796925592368068e-11, -86157149.32217164, 11.571827598565942]}, {"name": "polynomial2", "class": "NASAPolynomial", "Tmin_value": 996.9190910956405, "Tmin_units": "K", "Tmax_value": 3000.0, "Tmax_units": "K", "coeffs": [2.799177849973695, 0.05665837604267363, -2.9328042496790234e-05, 7.403418774294453e-09, -7.34474643673949e-13, -86157887.89439993, 11.287434192929426]}]

>  <H298_value>  (1) 
-171206.43721616286

>  <H298_units>  (1) 
kcal/mol

>  <S298_value>  (1) 
87.26824962788011

>  <S298_units>  (1) 
cal/(mol*K)

>  <Cp_T_value_list>  (1) 
[31.146474499537725, 39.25830236724821, 46.875073624834066, 53.78122733113141, 65.04767879802672, 73.12613004735736, 85.58283712103716, 91.96695474576244, 95.04115311773975]

>  <Cp_T_units>  (1) 
cal/(mol*K)

>  <T_list>  (1) 
[300.0, 400.0, 500.0, 600.0, 800.0, 1000.0, 1500.0, 2000.0, 2400.0]

>  <T_units>  (1) 
K

>  <yaml_path>  (1) 
/home/calvin/Dropbox/PersonalFolders/Calvin/HAb_Converged/rxn_772/output/Species/rxn_772_CC[C]CCO/rxn_772_CCCCCO.yml

>  <frequencies_cm1>  (1) 
[52.20282240263999, 141.57663634243997, 213.50144058412002, 245.26124768912, 260.65016179124, 301.41945363607994, 342.06513974515997, 388.843043745, 429.05610977891996, 543.7897005054799, 770.1873395205599, 848.7113166547599, 916.35112205676, 929.618137695, 961.892968699, 982.7686040717999, 1005.4502565837599, 1104.91853894396, 1106.3056699785998, 1157.258701053, 1188.80563161308, 1214.07613759068, 1274.88329259928, 1328.3633742714399, 1358.35149916388, 1371.5773128902, 1392.8031645143199, 1394.9456639341602, 1410.6161244343998, 1412.01698943968, 1463.354571692, 1473.5863798188, 1480.89285219928, 1489.18817046584, 1494.34527644116, 1510.4758249578397, 2973.8166626792, 2987.8733816292397, 3000.0966154988396, 3003.5232411735196, 3013.28122731324, 3028.5602696502397, 3068.7664686988396, 3073.77936798244, 3075.6540549747997, 3082.66524698652, 3094.1056445296404, 3836.7426389463594]

>  <ZPE_kJmol>  (1) 
431.8458981128584

>  <E_elec_kJmol>  (1) 
-716783.0328650284

>  <E0_minus_Eelec_plus_ZPE_kJmol>  (1) 
0.0

>  <rxn>  (1) 
rxn_772

>  <species_type>  (1) 
r0

>  <species_folder>  (1) 
rxn_772_CC[C]CCO

>  <frequencies_cm1_list>  (1) 
[52.20282240263999, 141.57663634243997, 213.50144058412002, 245.26124768912, 260.65016179124, 301.41945363607994, 342.06513974515997, 388.843043745, 429.05610977891996, 543.7897005054799, 770.1873395205599, 848.7113166547599, 916.35112205676, 929.618137695, 961.892968699, 982.7686040717999, 1005.4502565837599, 1104.91853894396, 1106.3056699785998, 1157.258701053, 1188.80563161308, 1214.07613759068, 1274.88329259928, 1328.3633742714399, 1358.35149916388, 1371.5773128902, 1392.8031645143199, 1394.9456639341602, 1410.6161244343998, 1412.01698943968, 1463.354571692, 1473.5863798188, 1480.89285219928, 1489.18817046584, 1494.34527644116, 1510.4758249578397, 2973.8166626792, 2987.8733816292397, 3000.0966154988396, 3003.5232411735196, 3013.28122731324, 3028.5602696502397, 3068.7664686988396, 3073.77936798244, 3075.6540549747997, 3082.66524698652, 3094.1056445296404, 3836.7426389463594]

>  <E0_kJmol>  (1) 
-716351

>  <H298_kJmol>  (1) 
-716328

$$$$

     RDKit          3D

  5  4  0  0  0  0  0  0  0  0999 V2000
   -0.9047    0.3609   -0.3841 H   0  0  0  0  0  0  0  0  0  1  0  0
    0.0333   -0.0135    0.0144 C   0  0  0  0  0  0  0  0  0  2  0  0
    0.7381    0.7956   -0.1504 H   0  0  0  0  0  0  0  0  0  3  0  0
    0.2224   -0.9014   -0.5796 H   0  0  0  0  0  0  0  0  0  4  0  0
   -0.1639   -0.2096    1.0650 H   0  0  0  0  0  0  0  0  0  5  0  0
  1  2  1  0
  2  5  1  0
  2  3  1  0
  2  4  1  0
M  END
>  <rmg_smiles>  (2) 
C

>  <rmg_adjacency_list>  (2) 
1 H u0 p0 c0 {2,S}
2 C u0 p0 c0 {1,S} {3,S} {4,S} {5,S}
3 H u0 p0 c0 {2,S}
4 H u0 p0 c0 {2,S}
5 H u0 p0 c0 {2,S}


>  <multiplicity>  (2) 
1

>  <reaction>  (2) 
rxn_772

>  <type>  (2) 
r2h

>  <role_mapnums>  (2) 
{"r2h_a": 2, "r2h_h": 1}

>  <role_mapidx>  (2) 
{"r2h_a": 1, "r2h_h": 0}

>  <ordered_mapped_smiles>  (2) 
[H:1][C:2]([H:3])([H:4])[H:5]

>  <mol_properties>  (2) 
{"0": {"label": "a_hydrogen", "atom_type": "H0"}, "1": {"label": "acceptor", "atom_type": "Cs"}}

>  <level_of_theory>  (2) 
wb97xd/def2tzvp

>  <lot_method>  (2) 
wb97xd

>  <lot_basis>  (2) 
def2tzvp

>  <spin_multiplicity>  (2) 
1.0

>  <optical_isomers>  (2) 
1.0

>  <modes>  (2) 
IdealGasTranslation(mass=(16.0313, 'amu')),         NonlinearRotor(             inertia = ([3.18679, 3.18679, 3.18679

>  <frequency_value>  (2) 
unknown

>  <frequency_units>  (2) 
unknown

>  <frequency_list>  (2) 
unknown

>  <arkane_path>  (2) 
/home/calvin/Dropbox/PersonalFolders/Calvin/HAb_Converged/rxn_772/output/Species/rxn_772_C/arkane/output.py

>  <path_exists>  (2) 
True

>  <E0_value>  (2) 
-106268.5262916272

>  <E0_units>  (2) 
kJ/mol

>  <thermo_class>  (2) 
NASA

>  <Cp0_value>  (2) 
33.257888

>  <Cp0_units>  (2) 
J/(mol*K)

>  <CpInf_value>  (2) 
108.088136

>  <CpInf_units>  (2) 
J/(mol*K)

>  <Tmin_value>  (2) 
10.0

>  <Tmin_units>  (2) 
K

>  <Tmax_value>  (2) 
3000.0

>  <Tmax_units>  (2) 
K

>  <polynomials>  (2) 
[{"name": "polynomial1", "class": "NASAPolynomial", "Tmin_value": 10.0, "Tmin_units": "K", "Tmax_value": 616.7595780986624, "Tmax_units": "K", "coeffs": [4.041420799946622, -0.002477807655966685, 1.1290457802459216e-05, 3.700688819348292e-09, -9.366412561864162e-12, -12781153.318458663, -0.42637433538586406]}, {"name": "polynomial2", "class": "NASAPolynomial", "Tmin_value": 616.7595780986624, "Tmin_units": "K", "Tmax_value": 3000.0, "Tmax_units": "K", "coeffs": [0.6800320423470843, 0.011684066325645743, -4.5749540261290126e-06, 7.694671628924811e-10, -3.8768177461555664e-14, -12780593.404419335, 15.343675764562182]}]

>  <H298_value>  (2) 
-25396.41264990868

>  <H298_units>  (2) 
kcal/mol

>  <S298_value>  (2) 
44.46392088520575

>  <S298_units>  (2) 
cal/(mol*K)

>  <Cp_T_value_list>  (2) 
[8.621039065772948, 9.645572285350525, 10.934239595808906, 12.330144838344452, 14.859142397339834, 16.9306880471269, 20.49440393107996, 22.423230884533538, 23.291918246513866]

>  <Cp_T_units>  (2) 
cal/(mol*K)

>  <T_list>  (2) 
[300.0, 400.0, 500.0, 600.0, 800.0, 1000.0, 1500.0, 2000.0, 2400.0]

>  <T_units>  (2) 
K

>  <yaml_path>  (2) 
/home/calvin/Dropbox/PersonalFolders/Calvin/HAb_Converged/rxn_772/output/Species/rxn_772_C/rxn_772_C.yml

>  <frequencies_cm1>  (2) 
[1326.5504901469599, 1326.5504901469599, 1326.5504901469599, 1542.24249904816, 1542.24249904816, 3008.8382878112, 3127.32125252248, 3127.32125252248, 3127.32125252248]

>  <ZPE_kJmol>  (2) 
116.36640738144024

>  <E_elec_kJmol>  (2) 
-106384.89269900863

>  <E0_minus_Eelec_plus_ZPE_kJmol>  (2) 
0.0

>  <rxn>  (2) 
rxn_772

>  <species_type>  (2) 
p0

>  <species_folder>  (2) 
rxn_772_C

>  <frequencies_cm1_list>  (2) 
[1326.5504901469599, 1326.5504901469599, 1326.5504901469599, 1542.24249904816, 1542.24249904816, 3008.8382878112, 3127.32125252248, 3127.32125252248, 3127.32125252248]

>  <E0_kJmol>  (2) 
-106269

>  <H298_kJmol>  (2) 
-106259

$$$$

     RDKit          3D

 22 20  0  0  0  0  0  0  0  0999 V2000
    0.0651    0.6782   -1.6912 C   0  0  0  0  0  0  0  0  0  1  0  0
   -0.0295    0.8401   -0.1916 C   0  0  0  0  0  0  0  0  0  2  0  0
    0.0460    2.2797    0.2677 C   0  0  0  0  0  0  0  0  0  3  0  0
   -1.1705    0.0882    0.4714 C   0  0  0  0  0  0  0  0  0  4  0  0
   -1.3979   -1.3423    0.0065 C   0  0  0  0  0  0  0  0  0  5  0  0
   -0.2535   -2.1664    0.1037 O   0  0  0  0  0  0  0  0  0  6  0  0
    0.9058    1.2512   -2.0871 H   0  0  0  0  0  0  0  0  0  7  0  0
   -0.8439    1.0417   -2.1851 H   0  0  0  0  0  0  0  0  0  8  0  0
    0.2087   -0.3659   -1.9723 H   0  0  0  0  0  0  0  0  0  9  0  0
    1.0453    0.3216    0.2662 H   0  0  0  0  0  0  0  0  0 10  0  0
   -0.8134    2.8530   -0.0980 H   0  0  0  0  0  0  0  0  0 11  0  0
    0.9505    2.7649   -0.1047 H   0  0  0  0  0  0  0  0  0 12  0  0
    0.0502    2.3487    1.3581 H   0  0  0  0  0  0  0  0  0 13  0  0
   -1.0114    0.0929    1.5573 H   0  0  0  0  0  0  0  0  0 14  0  0
   -2.1080    0.6381    0.3086 H   0  0  0  0  0  0  0  0  0 15  0  0
   -1.6837   -1.3596   -1.0465 H   0  0  0  0  0  0  0  0  0 16  0  0
   -2.2329   -1.7729    0.5736 H   0  0  0  0  0  0  0  0  0 17  0  0
    0.1311   -2.0563    0.9751 H   0  0  0  0  0  0  0  0  0 18  0  0
    2.2718   -0.1679    0.7873 C   0  0  0  0  0  3  0  0  0 19  0  0
    2.9766    0.6412    0.6224 H   0  0  0  0  0  0  0  0  0 20  0  0
    2.4608   -1.0558    0.1933 H   0  0  0  0  0  0  0  0  0 21  0  0
    2.0745   -0.3640    1.8379 H   0  0  0  0  0  0  0  0  0 22  0  0
  1  7  1  0
  1  8  1  0
  1  9  1  0
  1  2  1  0
  2  3  1  0
  2  4  1  0
  2 10  1  0
  3 13  1  0
  3 12  1  0
  3 11  1  0
  4 14  1  0
  4  5  1  0
  4 15  1  0
  5 16  1  0
  5 17  1  0
  5  6  1  0
  6 18  1  0
 19 20  1  0
 19 21  1  0
 19 22  1  0
M  RAD  1  19   2
M  END
>  <rmg_smiles>  (3) 
CC(C)CCO.[CH3]

>  <rmg_adjacency_list>  (3) 
multiplicity 2
1  O u0 p2 c0 {4,S} {22,S}
2  C u0 p0 c0 {3,S} {5,S} {6,S} {8,S}
3  C u0 p0 c0 {2,S} {4,S} {9,S} {10,S}
4  C u0 p0 c0 {1,S} {3,S} {11,S} {12,S}
5  C u0 p0 c0 {2,S} {13,S} {14,S} {15,S}
6  C u0 p0 c0 {2,S} {16,S} {17,S} {18,S}
7  C u1 p0 c0 {19,S} {20,S} {21,S}
8  H u0 p0 c0 {2,S}
9  H u0 p0 c0 {3,S}
10 H u0 p0 c0 {3,S}
11 H u0 p0 c0 {4,S}
12 H u0 p0 c0 {4,S}
13 H u0 p0 c0 {5,S}
14 H u0 p0 c0 {5,S}
15 H u0 p0 c0 {5,S}
16 H u0 p0 c0 {6,S}
17 H u0 p0 c0 {6,S}
18 H u0 p0 c0 {6,S}
19 H u0 p0 c0 {7,S}
20 H u0 p0 c0 {7,S}
21 H u0 p0 c0 {7,S}
22 H u0 p0 c0 {1,S}


>  <multiplicity>  (3) 
2

>  <reaction>  (3) 
rxn_772

>  <type>  (3) 
ts

>  <role_mapnums>  (3) 
{"*2": 10, "*1": 2, "*3": 19, "*0": 4, "*4": 20}

>  <role_mapidx>  (3) 
{"*2": 9, "*1": 1, "*3": 18, "*0": 3, "*4": 19}

>  <ordered_mapped_smiles>  (3) 
[C:1]([C:2]([C:3]([H:11])([H:12])[H:13])([C:4]([C:5]([O:6][H:18])([H:16])[H:17])([H:14])[H:15])[H:10])([H:7])([H:8])[H:9].[C:19]([H:20])([H:21])[H:22]

>  <mol_properties>  (3) 
{"1": {"label": "*1", "atom_type": "Cs"}, "3": {"label": "*0", "atom_type": "Cs"}, "9": {"label": "*2", "atom_type": "H0"}, "18": {"label": "*3", "atom_type": "Cs"}, "19": {"label": "*4", "atom_type": "H0"}}

>  <level_of_theory>  (3) 
wb97xd/def2tzvp

>  <lot_method>  (3) 
wb97xd

>  <lot_basis>  (3) 
def2tzvp

>  <spin_multiplicity>  (3) 
2.0

>  <optical_isomers>  (3) 
2.0

>  <modes>  (3) 
IdealGasTranslation(mass=(103.112, 'amu')),         NonlinearRotor(             inertia = ([197.092, 283.318, 356.977

>  <frequency_value>  (3) 
-1565.84

>  <frequency_units>  (3) 
cm^-1

>  <frequency_list>  (3) 
unknown

>  <arkane_path>  (3) 
/home/calvin/Dropbox/PersonalFolders/Calvin/HAb_Converged/rxn_772/output/rxns/TS0/arkane/output.py

>  <path_exists>  (3) 
True

>  <E0_value>  (3) 
-820834.0

>  <E0_units>  (3) 
kJ/mol

>  <thermo_class>  (3) 
unknown

>  <Cp0_value>  (3) 
unknown

>  <Cp0_units>  (3) 
unknown

>  <CpInf_value>  (3) 
unknown

>  <CpInf_units>  (3) 
unknown

>  <Tmin_value>  (3) 
unknown

>  <Tmin_units>  (3) 
unknown

>  <Tmax_value>  (3) 
unknown

>  <Tmax_units>  (3) 
unknown

>  <polynomials>  (3) 
unknown

>  <H298_value>  (3) 
unknown

>  <H298_units>  (3) 
unknown

>  <S298_value>  (3) 
unknown

>  <S298_units>  (3) 
unknown

>  <Cp_T_value_list>  (3) 
unknown

>  <Cp_T_units>  (3) 
unknown

>  <T_list>  (3) 
unknown

>  <T_units>  (3) 
unknown

>  <yaml_path>  (3) 
unknown

>  <frequencies_cm1>  (3) 
unknown

>  <ZPE_kJmol>  (3) 
unknown

>  <E_elec_kJmol>  (3) 
unknown

>  <E0_minus_Eelec_plus_ZPE_kJmol>  (3) 
unknown

>  <rxn>  (3) 
unknown

>  <species_type>  (3) 
unknown

>  <species_folder>  (3) 
unknown

>  <frequencies_cm1_list>  (3) 
[]

>  <ts_imag_freq_cm1>  (3) 
-1584.8577

>  <ts_freq_out_path>  (3) 
/home/calvin/Dropbox/PersonalFolders/Calvin/HAb_Converged/rxn_772/output/rxns/TS0/geometry/freq.out

>  <E0_kJmol>  (3) 
-820834

>  <H298_kJmol>  (3) 
unknown

$$$$

     RDKit          3D

 17 16  0  0  0  0  0  0  0  0999 V2000
    1.4293    0.1383   -1.3475 C   0  0  0  0  0  0  0  0  0  1  0  0
    0.7305    0.1520   -0.0333 C   0  0  0  0  0  3  0  0  0  2  0  0
   -0.0016   -1.0693    0.4052 C   0  0  0  0  0  0  0  0  0  3  0  0
    0.4189    1.4564    0.6314 C   0  0  0  0  0  0  0  0  0  4  0  0
    1.0197    1.5670    2.0342 C   0  0  0  0  0  0  0  0  0  5  0  0
    2.4274    1.4782    2.0204 O   0  0  0  0  0  0  0  0  0  6  0  0
    0.7300    0.3225   -2.1784 H   0  0  0  0  0  0  0  0  0  7  0  0
    1.9011   -0.8273   -1.5459 H   0  0  0  0  0  0  0  0  0  8  0  0
    2.1943    0.9159   -1.4046 H   0  0  0  0  0  0  0  0  0  9  0  0
    0.5734   -1.9790    0.2155 H   0  0  0  0  0  0  0  0  0 10  0  0
   -0.9523   -1.1788   -0.1394 H   0  0  0  0  0  0  0  0  0 11  0  0
   -0.2509   -1.0392    1.4681 H   0  0  0  0  0  0  0  0  0 12  0  0
    0.7981    2.2868    0.0309 H   0  0  0  0  0  0  0  0  0 13  0  0
   -0.6690    1.5904    0.7212 H   0  0  0  0  0  0  0  0  0 14  0  0
    0.5881    0.7966    2.6872 H   0  0  0  0  0  0  0  0  0 15  0  0
    0.7782    2.5379    2.4689 H   0  0  0  0  0  0  0  0  0 16  0  0
    2.6582    0.6750    1.5461 H   0  0  0  0  0  0  0  0  0 17  0  0
  1  8  1  0
  1  7  1  0
  1  9  1  0
  1  2  1  0
  2  3  1  0
  2  4  1  0
  3 11  1  0
  3 12  1  0
  3 10  1  0
  4  5  1  0
  4 14  1  0
  4 13  1  0
  5  6  1  0
  5 16  1  0
  5 15  1  0
  6 17  1  0
M  RAD  1   2   2
M  END
>  <rmg_smiles>  (4) 
C[C](C)CCO

>  <rmg_adjacency_list>  (4) 
multiplicity 2
1  O u0 p2 c0 {3,S} {17,S}
2  C u0 p0 c0 {3,S} {6,S} {7,S} {8,S}
3  C u0 p0 c0 {1,S} {2,S} {9,S} {10,S}
4  C u0 p0 c0 {6,S} {11,S} {12,S} {13,S}
5  C u0 p0 c0 {6,S} {14,S} {15,S} {16,S}
6  C u1 p0 c0 {2,S} {4,S} {5,S}
7  H u0 p0 c0 {2,S}
8  H u0 p0 c0 {2,S}
9  H u0 p0 c0 {3,S}
10 H u0 p0 c0 {3,S}
11 H u0 p0 c0 {4,S}
12 H u0 p0 c0 {4,S}
13 H u0 p0 c0 {4,S}
14 H u0 p0 c0 {5,S}
15 H u0 p0 c0 {5,S}
16 H u0 p0 c0 {5,S}
17 H u0 p0 c0 {1,S}


>  <multiplicity>  (4) 
2

>  <reaction>  (4) 
rxn_772

>  <type>  (4) 
r1

>  <role_mapnums>  (4) 
{}

>  <role_mapidx>  (4) 
{}

>  <ordered_mapped_smiles>  (4) 
[C:1]([C:2]([C:3]([H:10])([H:11])[H:12])[C:4]([C:5]([O:6][H:17])([H:15])[H:16])([H:13])[H:14])([H:7])([H:8])[H:9]

>  <level_of_theory>  (4) 
wb97xd/def2tzvp

>  <lot_method>  (4) 
wb97xd

>  <lot_basis>  (4) 
def2tzvp

>  <spin_multiplicity>  (4) 
2.0

>  <optical_isomers>  (4) 
2.0

>  <modes>  (4) 
IdealGasTranslation(mass=(87.081, 'amu')),         NonlinearRotor(             inertia = ([100.385, 227.818, 258.292

>  <frequency_value>  (4) 
unknown

>  <frequency_units>  (4) 
unknown

>  <frequency_list>  (4) 
unknown

>  <arkane_path>  (4) 
/home/calvin/Dropbox/PersonalFolders/Calvin/HAb_Converged/rxn_772/output/Species/rxn_772_C[C][C]CCO/arkane/output.py

>  <path_exists>  (4) 
True

>  <E0_value>  (4) 
-714648.6534042147

>  <E0_units>  (4) 
kJ/mol

>  <thermo_class>  (4) 
NASA

>  <Cp0_value>  (4) 
33.257888

>  <Cp0_units>  (4) 
J/(mol*K)

>  <CpInf_value>  (4) 
407.409128

>  <CpInf_units>  (4) 
J/(mol*K)

>  <Tmin_value>  (4) 
10.0

>  <Tmin_units>  (4) 
K

>  <Tmax_value>  (4) 
3000.0

>  <Tmax_units>  (4) 
K

>  <polynomials>  (4) 
[{"name": "polynomial1", "class": "NASAPolynomial", "Tmin_value": 10.0, "Tmin_units": "K", "Tmax_value": 427.2369957462133, "Tmax_units": "K", "coeffs": [3.4091301952897815, 0.06169559292778965, -0.00015603282527428385, 3.907520860888103e-07, -3.372189180471732e-10, -85952377.69480592, 12.893326944062329]}, {"name": "polynomial2", "class": "NASAPolynomial", "Tmin_value": 427.2369957462133, "Tmin_units": "K", "Tmax_value": 3000.0, "Tmax_units": "K", "coeffs": [-0.5081928962917933, 0.06299143764266357, -3.6365556555670536e-05, 1.0191784397129933e-08, -1.111496386346224e-12, -85951720.0712871, 32.2397055462781]}]

>  <H298_value>  (4) 
-170799.18035715426

>  <H298_units>  (4) 
kcal/mol

>  <S298_value>  (4) 
92.51368135201588

>  <S298_units>  (4) 
cal/(mol*K)

>  <Cp_T_value_list>  (4) 
[31.186596606126493, 38.745448522435844, 45.90574459069849, 52.169029026948024, 62.34646913876214, 69.94564712808626, 81.32996964199494, 86.96569912240227, 89.86167010375266]

>  <Cp_T_units>  (4) 
cal/(mol*K)

>  <T_list>  (4) 
[300.0, 400.0, 500.0, 600.0, 800.0, 1000.0, 1500.0, 2000.0, 2400.0]

>  <T_units>  (4) 
K

>  <yaml_path>  (4) 
/home/calvin/Dropbox/PersonalFolders/Calvin/HAb_Converged/rxn_772/output/Species/rxn_772_C[C][C]CCO/rxn_772_CCCCCO.yml

>  <frequencies_cm1>  (4) 
[39.01821058824, 105.72410598672, 121.36023156035999, 123.92161708472, 224.68089268507998, 289.75931256271997, 355.88151420899993, 382.10653114608, 395.92977259523997, 509.71571934764, 737.3082138084, 847.6606679008, 918.0197994895199, 932.3305968964, 976.9179325791599, 995.63733456148, 1035.3697116229998, 1046.356888135, 1090.44980087472, 1183.0510979149199, 1200.26663011216, 1272.05409464744, 1308.2980431664, 1355.39869547628, 1368.3841647164, 1389.69928714968, 1401.2838913845198, 1411.58436936452, 1453.40430996332, 1458.9940360138, 1464.81723956516, 1472.2198497401198, 1479.1623718986398, 1503.0045449296797, 2931.3786934016, 2938.13580695648, 2955.39254106564, 2971.3514149493203, 3028.3405261199996, 3030.5036264957994, 3051.5028676043594, 3070.75102745632, 3076.3476204921194, 3078.4420510147197, 3797.39481306276]

>  <ZPE_kJmol>  (4) 
393.44777504599546

>  <E_elec_kJmol>  (4) 
-715042.1011792606

>  <E0_minus_Eelec_plus_ZPE_kJmol>  (4) 
0.0

>  <rxn>  (4) 
rxn_772

>  <species_type>  (4) 
p1

>  <species_folder>  (4) 
rxn_772_C[C][C]CCO

>  <frequencies_cm1_list>  (4) 
[39.01821058824, 105.72410598672, 121.36023156035999, 123.92161708472, 224.68089268507998, 289.75931256271997, 355.88151420899993, 382.10653114608, 395.92977259523997, 509.71571934764, 737.3082138084, 847.6606679008, 918.0197994895199, 932.3305968964, 976.9179325791599, 995.63733456148, 1035.3697116229998, 1046.356888135, 1090.44980087472, 1183.0510979149199, 1200.26663011216, 1272.05409464744, 1308.2980431664, 1355.39869547628, 1368.3841647164, 1389.69928714968, 1401.2838913845198, 1411.58436936452, 1453.40430996332, 1458.9940360138, 1464.81723956516, 1472.2198497401198, 1479.1623718986398, 1503.0045449296797, 2931.3786934016, 2938.13580695648, 2955.39254106564, 2971.3514149493203, 3028.3405261199996, 3030.5036264957994, 3051.5028676043594, 3070.75102745632, 3076.3476204921194, 3078.4420510147197, 3797.39481306276]

>  <E0_kJmol>  (4) 
-714649

>  <H298_kJmol>  (4) 
-714624

$$$$

     RDKit          3D

  4  3  0  0  0  0  0  0  0  0999 V2000
    0.0000    0.0000    0.0000 C   0  0  0  0  0  3  0  0  0  1  0  0
    1.0638   -0.1747    0.0540 H   0  0  0  0  0  0  0  0  0  2  0  0
   -0.6833   -0.8351   -0.0280 H   0  0  0  0  0  0  0  0  0  3  0  0
   -0.3805    1.0098   -0.0260 H   0  0  0  0  0  0  0  0  0  4  0  0
  1  3  1  0
  1  4  1  0
  1  2  1  0
M  RAD  1   1   2
M  END
>  <rmg_smiles>  (5) 
[CH3]

>  <rmg_adjacency_list>  (5) 
multiplicity 2
1 C u1 p0 c0 {2,S} {3,S} {4,S}
2 H u0 p0 c0 {1,S}
3 H u0 p0 c0 {1,S}
4 H u0 p0 c0 {1,S}


>  <multiplicity>  (5) 
2

>  <reaction>  (5) 
rxn_772

>  <type>  (5) 
r2

>  <role_mapnums>  (5) 
{}

>  <role_mapidx>  (5) 
{}

>  <ordered_mapped_smiles>  (5) 
[C:1]([H:2])([H:3])[H:4]

>  <level_of_theory>  (5) 
wb97xd/def2tzvp

>  <lot_method>  (5) 
wb97xd

>  <lot_basis>  (5) 
def2tzvp

>  <spin_multiplicity>  (5) 
2.0

>  <optical_isomers>  (5) 
1.0

>  <modes>  (5) 
IdealGasTranslation(mass=(15.0235, 'amu')),         NonlinearRotor(             inertia = ([1.76141, 1.76141, 3.52282

>  <frequency_value>  (5) 
unknown

>  <frequency_units>  (5) 
unknown

>  <frequency_list>  (5) 
unknown

>  <arkane_path>  (5) 
/home/calvin/Dropbox/PersonalFolders/Calvin/HAb_Converged/rxn_772/output/Species/rxn_772_[CH3]/arkane/output.py

>  <path_exists>  (5) 
True

>  <E0_value>  (5) 
-104520.13119505512

>  <E0_units>  (5) 
kJ/mol

>  <thermo_class>  (5) 
NASA

>  <Cp0_value>  (5) 
33.257888

>  <Cp0_units>  (5) 
J/(mol*K)

>  <CpInf_value>  (5) 
83.14472

>  <CpInf_units>  (5) 
J/(mol*K)

>  <Tmin_value>  (5) 
10.0

>  <Tmin_units>  (5) 
K

>  <Tmax_value>  (5) 
3000.0

>  <Tmax_units>  (5) 
K

>  <polynomials>  (5) 
[{"name": "polynomial1", "class": "NASAPolynomial", "Tmin_value": 10.0, "Tmin_units": "K", "Tmax_value": 646.6680568167106, "Tmax_units": "K", "coeffs": [3.9912271000461548, 0.0004274218009639198, 9.38132315134313e-06, -1.0944874554220949e-08, 4.263406085556096e-12, -12570867.748368958, 0.20527673099681187]}, {"name": "polynomial2", "class": "NASAPolynomial", "Tmin_value": 646.6680568167106, "Tmin_units": "K", "Tmax_value": 3000.0, "Tmax_units": "K", "coeffs": [3.2488827598675174, 0.0050187516265713635, -1.2675301815554908e-06, 3.215102013021586e-11, 2.0164394281080815e-14, -12570771.728238096, 3.4631324604304954]}]

>  <H298_value>  (5) 
-24978.383291331436

>  <H298_units>  (5) 
kcal/mol

>  <S298_value>  (5) 
46.49953999396709

>  <S298_units>  (5) 
cal/(mol*K)

>  <Cp_T_value_list>  (5) 
[9.345424201068383, 10.07887042200736, 10.827537754048599, 11.552428339520182, 12.871902382304132, 14.014614114932202, 16.167234911840477, 17.479674567657305, 18.096247059343543]

>  <Cp_T_units>  (5) 
cal/(mol*K)

>  <T_list>  (5) 
[300.0, 400.0, 500.0, 600.0, 800.0, 1000.0, 1500.0, 2000.0, 2400.0]

>  <T_units>  (5) 
K

>  <yaml_path>  (5) 
/home/calvin/Dropbox/PersonalFolders/Calvin/HAb_Converged/rxn_772/output/Species/rxn_772_[CH3]/rxn_772_CH3.yml

>  <frequencies_cm1>  (5) 
[520.22220688724, 1393.4280601784399, 1393.43492716376, 3088.8592677451597, 3268.6163424668, 3268.6232094521197]

>  <ZPE_kJmol>  (5) 
77.35764153782172

>  <E_elec_kJmol>  (5) 
-104597.48883659294

>  <E0_minus_Eelec_plus_ZPE_kJmol>  (5) 
0.0

>  <rxn>  (5) 
rxn_772

>  <species_type>  (5) 
r1

>  <species_folder>  (5) 
rxn_772_[CH3]

>  <frequencies_cm1_list>  (5) 
[520.22220688724, 1393.4280601784399, 1393.43492716376, 3088.8592677451597, 3268.6163424668, 3268.6232094521197]

>  <E0_kJmol>  (5) 
-104520

>  <H298_kJmol>  (5) 
-104510

$$$$
