
     RDKit          3D

 14 13  0  0  0  0  0  0  0  0999 V2000
    0.1633   -0.5515   -1.3495 C   0  0  0  0  0  0  0  0  0  1  0  0
    0.1760   -0.1549    0.1031 C   0  0  0  0  0  0  0  0  0  2  0  0
    0.7232    1.2215    0.3740 C   0  0  0  0  0  0  0  0  0  3  0  0
   -1.0648   -0.5161    0.8756 C   0  0  0  0  0  0  0  0  0  4  0  0
    1.1365   -0.3774   -1.8138 H   0  0  0  0  0  0  0  0  0  5  0  0
   -0.5775    0.0363   -1.9054 H   0  0  0  0  0  0  0  0  0  6  0  0
   -0.0906   -1.6065   -1.4715 H   0  0  0  0  0  0  0  0  0  7  0  0
    0.9523   -0.8064    0.5045 H   0  0  0  0  0  0  0  0  0  8  0  0
    0.0843    1.9891   -0.0807 H   0  0  0  0  0  0  0  0  0  9  0  0
    0.7730    1.4287    1.4447 H   0  0  0  0  0  0  0  0  0 10  0  0
    1.7251    1.3364   -0.0461 H   0  0  0  0  0  0  0  0  0 11  0  0
   -1.3344   -1.5642    0.7322 H   0  0  0  0  0  0  0  0  0 12  0  0
   -1.9163    0.0921    0.5447 H   0  0  0  0  0  0  0  0  0 13  0  0
   -0.9339   -0.3406    1.9454 H   0  0  0  0  0  0  0  0  0 14  0  0
  1  5  1  0
  1  7  1  0
  1  6  1  0
  1  2  1  0
  2  8  1  0
  2  3  1  0
  2  4  1  0
  3 11  1  0
  3  9  1  0
  3 10  1  0
  4 14  1  0
  4 13  1  0
  4 12  1  0
M  END
>  <rmg_smiles>  (1) 
CC(C)C

>  <rmg_adjacency_list>  (1) 
1  C u0 p0 c0 {2,S} {3,S} {4,S} {5,S}
2  C u0 p0 c0 {1,S} {6,S} {7,S} {8,S}
3  C u0 p0 c0 {1,S} {9,S} {10,S} {11,S}
4  C u0 p0 c0 {1,S} {12,S} {13,S} {14,S}
5  H u0 p0 c0 {1,S}
6  H u0 p0 c0 {2,S}
7  H u0 p0 c0 {2,S}
8  H u0 p0 c0 {2,S}
9  H u0 p0 c0 {3,S}
10 H u0 p0 c0 {3,S}
11 H u0 p0 c0 {3,S}
12 H u0 p0 c0 {4,S}
13 H u0 p0 c0 {4,S}
14 H u0 p0 c0 {4,S}


>  <multiplicity>  (1) 
1

>  <reaction>  (1) 
rxn_983

>  <type>  (1) 
r1h

>  <role_mapnums>  (1) 
{"r1h_a": 2, "r1h_h": 8}

>  <role_mapidx>  (1) 
{"r1h_a": 1, "r1h_h": 7}

>  <ordered_mapped_smiles>  (1) 
[C:1]([C:2]([C:3]([H:9])([H:10])[H:11])([C:4]([H:12])([H:13])[H:14])[H:8])([H:5])([H:6])[H:7]

>  <mol_properties>  (1) 
{"1": {"label": "donator", "atom_type": "Cs"}, "7": {"label": "d_hydrogen", "atom_type": "H0"}}

>  <level_of_theory>  (1) 
wb97xd/def2tzvp

>  <lot_method>  (1) 
wb97xd

>  <lot_basis>  (1) 
def2tzvp

>  <spin_multiplicity>  (1) 
1.0

>  <optical_isomers>  (1) 
1.0

>  <modes>  (1) 
IdealGasTranslation(mass=(58.0782, 'amu')),         NonlinearRotor(             inertia = ([64.4719, 64.4727, 111.215

>  <frequency_value>  (1) 
unknown

>  <frequency_units>  (1) 
unknown

>  <frequency_list>  (1) 
unknown

>  <arkane_path>  (1) 
/home/calvin/Dropbox/PersonalFolders/Calvin/HAb_Converged/rxn_983/output/Species/rxn_983_CC[C]C/arkane/output.py

>  <path_exists>  (1) 
True

>  <E0_value>  (1) 
-415716.85467975214

>  <E0_units>  (1) 
kJ/mol

>  <thermo_class>  (1) 
NASA

>  <Cp0_value>  (1) 
33.257888

>  <Cp0_units>  (1) 
J/(mol*K)

>  <CpInf_value>  (1) 
332.57888

>  <CpInf_units>  (1) 
J/(mol*K)

>  <Tmin_value>  (1) 
10.0

>  <Tmin_units>  (1) 
K

>  <Tmax_value>  (1) 
3000.0

>  <Tmax_units>  (1) 
K

>  <polynomials>  (1) 
[{"name": "polynomial1", "class": "NASAPolynomial", "Tmin_value": 10.0, "Tmin_units": "K", "Tmax_value": 537.4476362110388, "Tmax_units": "K", "coeffs": [3.863167317597681, 0.009524597583416883, 8.526119009991386e-05, -1.3186479114208309e-07, 6.386662089708781e-11, -49999184.26767416, 7.557937047353605]}, {"name": "polynomial2", "class": "NASAPolynomial", "Tmin_value": 537.4476362110388, "Tmin_units": "K", "Tmax_value": 3000.0, "Tmax_units": "K", "coeffs": [-1.5250528723828818, 0.04962690324065706, -2.6663169590572026e-05, 6.969701032271099e-09, -7.138788393321548e-13, -49998605.09066497, 30.20730768891034]}]

>  <H298_value>  (1) 
-99354.53827266472

>  <H298_units>  (1) 
kcal/mol

>  <S298_value>  (1) 
69.85740274271286

>  <S298_units>  (1) 
cal/(mol*K)

>  <Cp_T_value_list>  (1) 
[22.556828625781385, 28.83523201330053, 34.675419127092724, 39.87386428839736, 48.464237243607535, 55.03469634400387, 65.24376466090868, 70.37020559782633, 72.85897602126045]

>  <Cp_T_units>  (1) 
cal/(mol*K)

>  <T_list>  (1) 
[300.0, 400.0, 500.0, 600.0, 800.0, 1000.0, 1500.0, 2000.0, 2400.0]

>  <T_units>  (1) 
K

>  <yaml_path>  (1) 
/home/calvin/Dropbox/PersonalFolders/Calvin/HAb_Converged/rxn_983/output/Species/rxn_983_CC[C]C/rxn_983_CCCC.yml

>  <frequencies_cm1>  (1) 
[211.4001430762, 262.70339040192, 263.77464011184, 368.90131837572, 369.28586955363994, 435.3325343614, 803.9866412655999, 924.9142527508001, 925.1202623104, 953.15816337196, 976.2243670618399, 976.3479727975999, 1191.078603754, 1191.09233772464, 1204.1396098326397, 1353.0707874528, 1353.18065921792, 1393.20144966288, 1393.48986304632, 1417.37323798928, 1467.48849685464, 1474.08766974716, 1474.25934438016, 1492.55986025796, 1492.60106216988, 1500.91011440708, 2997.87857924048, 2999.7807341741195, 2999.8700049832796, 3005.2262535328796, 3068.4780553153996, 3068.51925722732, 3077.2265946130797, 3079.23175432652, 3082.8300546341998, 3083.02919720848]

>  <ZPE_kJmol>  (1) 
342.9201349920809

>  <E_elec_kJmol>  (1) 
-416059.77481474425

>  <E0_minus_Eelec_plus_ZPE_kJmol>  (1) 
0.0

>  <rxn>  (1) 
rxn_983

>  <species_type>  (1) 
r1

>  <species_folder>  (1) 
rxn_983_CC[C]C

>  <frequencies_cm1_list>  (1) 
[211.4001430762, 262.70339040192, 263.77464011184, 368.90131837572, 369.28586955363994, 435.3325343614, 803.9866412655999, 924.9142527508001, 925.1202623104, 953.15816337196, 976.2243670618399, 976.3479727975999, 1191.078603754, 1191.09233772464, 1204.1396098326397, 1353.0707874528, 1353.18065921792, 1393.20144966288, 1393.48986304632, 1417.37323798928, 1467.48849685464, 1474.08766974716, 1474.25934438016, 1492.55986025796, 1492.60106216988, 1500.91011440708, 2997.87857924048, 2999.7807341741195, 2999.8700049832796, 3005.2262535328796, 3068.4780553153996, 3068.51925722732, 3077.2265946130797, 3079.23175432652, 3082.8300546341998, 3083.02919720848]

>  <E0_kJmol>  (1) 
-415717

>  <H298_kJmol>  (1) 
-415699

$$$$

     RDKit          3D

 13 12  0  0  0  0  0  0  0  0999 V2000
   -0.0457    0.9255    1.4234 C   0  0  0  0  0  0  0  0  0  1  0  0
   -0.2660    0.3464    0.0465 C   0  0  0  0  0  0  0  0  0  2  0  0
    0.8188    0.4865   -0.9337 C   0  0  0  0  0  0  0  0  0  3  0  0
    1.9305    1.2054   -0.7763 C   0  0  0  0  0  0  0  0  0  4  0  0
   -1.0499   -1.2783    0.0285 S   0  0  0  0  0  0  0  0  0  5  0  0
    0.7584    0.4019    1.9491 H   0  0  0  0  0  0  0  0  0  6  0  0
    0.2251    1.9819    1.3601 H   0  0  0  0  0  0  0  0  0  7  0  0
   -0.9520    0.8393    2.0219 H   0  0  0  0  0  0  0  0  0  8  0  0
    0.6598   -0.0361   -1.8721 H   0  0  0  0  0  0  0  0  0  9  0  0
    2.6626    1.2724   -1.5704 H   0  0  0  0  0  0  0  0  0 10  0  0
    2.1522    1.7381    0.1402 H   0  0  0  0  0  0  0  0  0 11  0  0
    0.0271   -2.0044    0.3696 H   0  0  0  0  0  0  0  0  0 12  0  0
   -1.0816    0.9451   -0.3588 H   0  0  0  0  0  0  0  0  0 13  0  0
  1  8  1  0
  1  7  1  0
  1  6  1  0
  1  2  1  0
  2 13  1  0
  2  5  1  0
  2  3  1  0
  3  4  1  0
  3  9  1  0
  4 10  1  0
  4 11  1  0
  5 12  1  0
M  END
>  <rmg_smiles>  (2) 
[CH2][CH]C(S)C

>  <rmg_adjacency_list>  (2) 
1  S u0 p2 c0 {2,S} {13,S}
2  C u0 p0 c0 {1,S} {3,S} {4,S} {6,S}
3  C u0 p0 c0 {2,S} {7,S} {8,S} {9,S}
4  C u0 p0 c0 {2,S} {5,S} {10,S}
5  C u0 p0 c0 {4,S} {11,S} {12,S}
6  H u0 p0 c0 {2,S}
7  H u0 p0 c0 {3,S}
8  H u0 p0 c0 {3,S}
9  H u0 p0 c0 {3,S}
10 H u0 p0 c0 {4,S}
11 H u0 p0 c0 {5,S}
12 H u0 p0 c0 {5,S}
13 H u0 p0 c0 {1,S}


>  <multiplicity>  (2) 
1

>  <reaction>  (2) 
rxn_983

>  <type>  (2) 
r2h

>  <role_mapnums>  (2) 
{"r2h_a": 2, "r2h_h": 13}

>  <role_mapidx>  (2) 
{"r2h_a": 1, "r2h_h": 12}

>  <ordered_mapped_smiles>  (2) 
[C:1]([C:2]([CH:3]([CH:4]([H:10])[H:11])[H:9])([S:5][H:12])[H:13])([H:6])([H:7])[H:8]

>  <mol_properties>  (2) 
{"1": {"label": "acceptor", "atom_type": "Cs"}, "12": {"label": "a_hydrogen", "atom_type": "H0"}}

>  <level_of_theory>  (2) 
wb97xd/def2tzvp

>  <lot_method>  (2) 
wb97xd

>  <lot_basis>  (2) 
def2tzvp

>  <spin_multiplicity>  (2) 
1.0

>  <optical_isomers>  (2) 
2.0

>  <modes>  (2) 
IdealGasTranslation(mass=(88.0347, 'amu')),         NonlinearRotor(             inertia = ([80.9896, 186.939, 240.36

>  <frequency_value>  (2) 
unknown

>  <frequency_units>  (2) 
unknown

>  <frequency_list>  (2) 
unknown

>  <arkane_path>  (2) 
/home/calvin/Dropbox/PersonalFolders/Calvin/HAb_Converged/rxn_983/output/Species/rxn_983_CC[C=C]S/arkane/output.py

>  <path_exists>  (2) 
True

>  <E0_value>  (2) 
-1457993.219803836

>  <E0_units>  (2) 
kJ/mol

>  <thermo_class>  (2) 
NASA

>  <Cp0_value>  (2) 
33.257888

>  <Cp0_units>  (2) 
J/(mol*K)

>  <CpInf_value>  (2) 
307.635464

>  <CpInf_units>  (2) 
J/(mol*K)

>  <Tmin_value>  (2) 
10.0

>  <Tmin_units>  (2) 
K

>  <Tmax_value>  (2) 
3000.0

>  <Tmax_units>  (2) 
K

>  <polynomials>  (2) 
[{"name": "polynomial1", "class": "NASAPolynomial", "Tmin_value": 10.0, "Tmin_units": "K", "Tmax_value": 295.7227912497842, "Tmax_units": "K", "coeffs": [3.859964156764265, 0.01144860889918731, 0.0001493029899500801, -3.9039348716992893e-07, 3.358044146618703e-10, -175356080.14565533, 11.069034930037732]}, {"name": "polynomial2", "class": "NASAPolynomial", "Tmin_value": 295.7227912497842, "Tmin_units": "K", "Tmax_value": 3000.0, "Tmax_units": "K", "coeffs": [1.2850875538289555, 0.046276930240981576, -2.7357704114677986e-05, 7.864783684789184e-09, -8.783951656354052e-13, -175355927.85604125, 20.354264054524194]}]

>  <H298_value>  (2) 
-348464.0450906466

>  <H298_units>  (2) 
kcal/mol

>  <S298_value>  (2) 
80.12210228638097

>  <S298_units>  (2) 
cal/(mol*K)

>  <Cp_T_value_list>  (2) 
[25.657235309186788, 31.595562401016796, 36.787812405776, 41.308907051164105, 48.616370543623205, 54.03354017598102, 62.08513628914328, 66.11849050718591, 68.25869648313012]

>  <Cp_T_units>  (2) 
cal/(mol*K)

>  <T_list>  (2) 
[300.0, 400.0, 500.0, 600.0, 800.0, 1000.0, 1500.0, 2000.0, 2400.0]

>  <T_units>  (2) 
K

>  <yaml_path>  (2) 
/home/calvin/Dropbox/PersonalFolders/Calvin/HAb_Converged/rxn_983/output/Species/rxn_983_CC[C=C]S/rxn_983_CCC=CS.yml

>  <frequencies_cm1>  (2) 
[112.52242145352, 239.03975898919998, 283.2974793766, 286.77904093384, 324.26591379572, 340.0531130464, 516.9535218749198, 611.3059001717199, 707.99305347732, 859.67102522548, 891.12181799108, 956.0216962503999, 997.40214978872, 1034.16112220668, 1059.6582386998398, 1092.5304974266799, 1167.99179910816, 1255.42912318772, 1324.7582069784398, 1338.95226563488, 1400.5765918965599, 1439.5192656462798, 1479.7323316801999, 1488.1993245797596, 1707.24242231712, 2690.2788388163995, 3016.12415923572, 3026.0744209644, 3087.1562553858, 3110.68941407744, 3126.04399325296, 3140.3273227185596, 3212.2246590189598]

>  <ZPE_kJmol>  (2) 
283.0610419775438

>  <E_elec_kJmol>  (2) 
-1458276.2808458137

>  <E0_minus_Eelec_plus_ZPE_kJmol>  (2) 
0.0

>  <rxn>  (2) 
rxn_983

>  <species_type>  (2) 
p0

>  <species_folder>  (2) 
rxn_983_CC[C=C]S

>  <frequencies_cm1_list>  (2) 
[112.52242145352, 239.03975898919998, 283.2974793766, 286.77904093384, 324.26591379572, 340.0531130464, 516.9535218749198, 611.3059001717199, 707.99305347732, 859.67102522548, 891.12181799108, 956.0216962503999, 997.40214978872, 1034.16112220668, 1059.6582386998398, 1092.5304974266799, 1167.99179910816, 1255.42912318772, 1324.7582069784398, 1338.95226563488, 1400.5765918965599, 1439.5192656462798, 1479.7323316801999, 1488.1993245797596, 1707.24242231712, 2690.2788388163995, 3016.12415923572, 3026.0744209644, 3087.1562553858, 3110.68941407744, 3126.04399325296, 3140.3273227185596, 3212.2246590189598]

>  <E0_kJmol>  (2) 
-1.45799e+06

>  <H298_kJmol>  (2) 
-1.45797e+06

$$$$

     RDKit          3D

 26 24  0  0  0  0  0  0  0  0999 V2000
    0.9258   -0.0123    1.8437 C   0  0  0  0  0  0  0  0  0  1  0  0
    0.7056   -0.5914    0.4668 C   0  0  0  0  0  0  0  0  0  2  0  0
    1.7903   -0.4513   -0.5134 C   0  0  0  0  0  0  0  0  0  3  0  0
    2.9020    0.2676   -0.3559 C   0  0  0  0  0  0  0  0  0  4  0  0
   -0.0783   -2.2160    0.4488 S   0  0  0  0  0  0  0  0  0  5  0  0
    1.7300   -0.5359    2.3694 H   0  0  0  0  0  0  0  0  0  6  0  0
    1.1966    1.0441    1.7804 H   0  0  0  0  0  0  0  0  0  7  0  0
    0.0195   -0.0985    2.4423 H   0  0  0  0  0  0  0  0  0  8  0  0
    1.6313   -0.9738   -1.4518 H   0  0  0  0  0  0  0  0  0  9  0  0
    3.6341    0.3346   -1.1501 H   0  0  0  0  0  0  0  0  0 10  0  0
    3.1238    0.8004    0.5605 H   0  0  0  0  0  0  0  0  0 11  0  0
    0.9987   -2.9422    0.7899 H   0  0  0  0  0  0  0  0  0 12  0  0
   -1.2781    0.5624   -1.9850 C   0  0  0  0  0  0  0  0  0 13  0  0
   -1.2654    0.9590   -0.5324 C   0  0  0  0  0  3  0  0  0 14  0  0
   -0.7182    2.3354   -0.2615 C   0  0  0  0  0  0  0  0  0 15  0  0
   -2.5062    0.5978    0.2402 C   0  0  0  0  0  0  0  0  0 16  0  0
   -0.3049    0.7365   -2.4493 H   0  0  0  0  0  0  0  0  0 17  0  0
   -2.0189    1.1503   -2.5409 H   0  0  0  0  0  0  0  0  0 18  0  0
   -1.5320   -0.4925   -2.1069 H   0  0  0  0  0  0  0  0  0 19  0  0
   -0.2804    0.1323   -0.0231 H   0  0  0  0  0  0  0  0  0 20  0  0
   -1.3570    3.1031   -0.7162 H   0  0  0  0  0  0  0  0  0 21  0  0
   -0.6684    2.5426    0.8092 H   0  0  0  0  0  0  0  0  0 22  0  0
    0.2837    2.4504   -0.6816 H   0  0  0  0  0  0  0  0  0 23  0  0
   -2.7758   -0.4502    0.0967 H   0  0  0  0  0  0  0  0  0 24  0  0
   -3.3577    1.2061   -0.0907 H   0  0  0  0  0  0  0  0  0 25  0  0
   -2.3752    0.7733    1.3099 H   0  0  0  0  0  0  0  0  0 26  0  0
  1  7  1  0
  1  8  1  0
  1  6  1  0
  1  2  1  0
  2 20  1  0
  2  3  1  0
  2  5  1  0
  3  4  1  0
  3  9  1  0
  4 10  1  0
  4 11  1  0
  5 12  1  0
 13 19  1  0
 13 17  1  0
 13 18  1  0
 13 14  1  0
 14 15  1  0
 14 16  1  0
 15 23  1  0
 15 22  1  0
 15 21  1  0
 16 26  1  0
 16 24  1  0
 16 25  1  0
M  RAD  1  14   2
M  END
>  <rmg_smiles>  (3) 
C[C](C)C.[CH2][CH]C(S)C

>  <rmg_adjacency_list>  (3) 
multiplicity 2
1  S u0 p2 c0 {2,S} {26,S}
2  C u0 p0 c0 {1,S} {3,S} {8,S} {10,S}
3  C u0 p0 c0 {2,S} {11,S} {12,S} {13,S}
4  C u0 p0 c0 {7,S} {14,S} {15,S} {16,S}
5  C u0 p0 c0 {7,S} {17,S} {18,S} {19,S}
6  C u0 p0 c0 {7,S} {20,S} {21,S} {22,S}
7  C u1 p0 c0 {4,S} {5,S} {6,S}
8  C u0 p0 c0 {2,S} {9,S} {23,S}
9  C u0 p0 c0 {8,S} {24,S} {25,S}
10 H u0 p0 c0 {2,S}
11 H u0 p0 c0 {3,S}
12 H u0 p0 c0 {3,S}
13 H u0 p0 c0 {3,S}
14 H u0 p0 c0 {4,S}
15 H u0 p0 c0 {4,S}
16 H u0 p0 c0 {4,S}
17 H u0 p0 c0 {5,S}
18 H u0 p0 c0 {5,S}
19 H u0 p0 c0 {5,S}
20 H u0 p0 c0 {6,S}
21 H u0 p0 c0 {6,S}
22 H u0 p0 c0 {6,S}
23 H u0 p0 c0 {8,S}
24 H u0 p0 c0 {9,S}
25 H u0 p0 c0 {9,S}
26 H u0 p0 c0 {1,S}


>  <multiplicity>  (3) 
2

>  <reaction>  (3) 
rxn_983

>  <type>  (3) 
ts

>  <role_mapnums>  (3) 
{"*2": 20, "*1": 14, "*3": 2, "*0": 5, "*4": 13}

>  <role_mapidx>  (3) 
{"*2": 19, "*1": 13, "*3": 1, "*0": 4, "*4": 12}

>  <ordered_mapped_smiles>  (3) 
[C:1]([C:2]([CH:3]([CH:4]([H:10])[H:11])[H:9])([S:5][H:12])[H:20])([H:6])([H:7])[H:8].[C:13]([C:14]([C:15]([H:21])([H:22])[H:23])[C:16]([H:24])([H:25])[H:26])([H:17])([H:18])[H:19]

>  <mol_properties>  (3) 
{"1": {"label": "*3", "atom_type": "Cs"}, "4": {"label": "*0", "atom_type": "S2s"}, "12": {"label": "*4", "atom_type": "Cs"}, "13": {"label": "*1", "atom_type": "Cs"}, "19": {"label": "*2", "atom_type": "H0"}}

>  <level_of_theory>  (3) 
wb97xd/def2tzvp

>  <lot_method>  (3) 
wb97xd

>  <lot_basis>  (3) 
def2tzvp

>  <spin_multiplicity>  (3) 
2.0

>  <optical_isomers>  (3) 
2.0

>  <modes>  (3) 
IdealGasTranslation(mass=(145.105, 'amu')),         NonlinearRotor(             inertia = ([362.012, 531.765, 652.708

>  <frequency_value>  (3) 
-1644.73

>  <frequency_units>  (3) 
cm^-1

>  <frequency_list>  (3) 
unknown

>  <arkane_path>  (3) 
/home/calvin/Dropbox/PersonalFolders/Calvin/HAb_Converged/rxn_983/output/rxns/TS0/arkane/output.py

>  <path_exists>  (3) 
True

>  <E0_value>  (3) 
-1871980.0

>  <E0_units>  (3) 
kJ/mol

>  <thermo_class>  (3) 
unknown

>  <Cp0_value>  (3) 
unknown

>  <Cp0_units>  (3) 
unknown

>  <CpInf_value>  (3) 
unknown

>  <CpInf_units>  (3) 
unknown

>  <Tmin_value>  (3) 
unknown

>  <Tmin_units>  (3) 
unknown

>  <Tmax_value>  (3) 
unknown

>  <Tmax_units>  (3) 
unknown

>  <polynomials>  (3) 
unknown

>  <H298_value>  (3) 
unknown

>  <H298_units>  (3) 
unknown

>  <S298_value>  (3) 
unknown

>  <S298_units>  (3) 
unknown

>  <Cp_T_value_list>  (3) 
unknown

>  <Cp_T_units>  (3) 
unknown

>  <T_list>  (3) 
unknown

>  <T_units>  (3) 
unknown

>  <yaml_path>  (3) 
unknown

>  <frequencies_cm1>  (3) 
unknown

>  <ZPE_kJmol>  (3) 
unknown

>  <E_elec_kJmol>  (3) 
unknown

>  <E0_minus_Eelec_plus_ZPE_kJmol>  (3) 
unknown

>  <rxn>  (3) 
unknown

>  <species_type>  (3) 
unknown

>  <species_folder>  (3) 
unknown

>  <frequencies_cm1_list>  (3) 
[]

>  <ts_imag_freq_cm1>  (3) 
-1664.7113

>  <ts_freq_out_path>  (3) 
/home/calvin/Dropbox/PersonalFolders/Calvin/HAb_Converged/rxn_983/output/rxns/TS0/geometry/freq.out

>  <E0_kJmol>  (3) 
-1.87198e+06

>  <H298_kJmol>  (3) 
unknown

$$$$

     RDKit          3D

 13 12  0  0  0  0  0  0  0  0999 V2000
   -1.3649   -0.5967   -0.3477 C   0  0  0  0  0  0  0  0  0  1  0  0
   -0.1601   -0.2776    0.4669 C   0  0  0  0  0  3  0  0  0  2  0  0
    1.1241   -0.9571    0.1414 C   0  0  0  0  0  0  0  0  0  3  0  0
   -0.1188    1.0130    1.2081 C   0  0  0  0  0  0  0  0  0  4  0  0
   -1.4266   -1.6632   -0.5770 H   0  0  0  0  0  0  0  0  0  5  0  0
   -2.2858   -0.3004    0.1602 H   0  0  0  0  0  0  0  0  0  6  0  0
   -1.3532   -0.0668   -1.3138 H   0  0  0  0  0  0  0  0  0  7  0  0
    1.6174   -0.4963   -0.7297 H   0  0  0  0  0  0  0  0  0  8  0  0
    0.9723   -2.0104   -0.1064 H   0  0  0  0  0  0  0  0  0  9  0  0
    1.8338   -0.8977    0.9701 H   0  0  0  0  0  0  0  0  0 10  0  0
   -1.0852    1.2507    1.6593 H   0  0  0  0  0  0  0  0  0 11  0  0
    0.6358    1.0009    1.9983 H   0  0  0  0  0  0  0  0  0 12  0  0
    0.1343    1.8546    0.5434 H   0  0  0  0  0  0  0  0  0 13  0  0
  1  5  1  0
  1  7  1  0
  1  6  1  0
  1  2  1  0
  2  3  1  0
  2  4  1  0
  3  9  1  0
  3 10  1  0
  3  8  1  0
  4 13  1  0
  4 12  1  0
  4 11  1  0
M  RAD  1   2   2
M  END
>  <rmg_smiles>  (4) 
C[C](C)C

>  <rmg_adjacency_list>  (4) 
multiplicity 2
1  C u0 p0 c0 {4,S} {5,S} {6,S} {7,S}
2  C u0 p0 c0 {4,S} {8,S} {9,S} {10,S}
3  C u0 p0 c0 {4,S} {11,S} {12,S} {13,S}
4  C u1 p0 c0 {1,S} {2,S} {3,S}
5  H u0 p0 c0 {1,S}
6  H u0 p0 c0 {1,S}
7  H u0 p0 c0 {1,S}
8  H u0 p0 c0 {2,S}
9  H u0 p0 c0 {2,S}
10 H u0 p0 c0 {2,S}
11 H u0 p0 c0 {3,S}
12 H u0 p0 c0 {3,S}
13 H u0 p0 c0 {3,S}


>  <multiplicity>  (4) 
2

>  <reaction>  (4) 
rxn_983

>  <type>  (4) 
r1

>  <role_mapnums>  (4) 
{}

>  <role_mapidx>  (4) 
{}

>  <ordered_mapped_smiles>  (4) 
[C:1]([C:2]([C:3]([H:8])([H:9])[H:10])[C:4]([H:11])([H:12])[H:13])([H:5])([H:6])[H:7]

>  <level_of_theory>  (4) 
wb97xd/def2tzvp

>  <lot_method>  (4) 
wb97xd

>  <lot_basis>  (4) 
def2tzvp

>  <spin_multiplicity>  (4) 
2.0

>  <optical_isomers>  (4) 
1.0

>  <modes>  (4) 
IdealGasTranslation(mass=(57.0704, 'amu')),         NonlinearRotor(             inertia = ([62.7477, 62.7515, 115.628

>  <frequency_value>  (4) 
unknown

>  <frequency_units>  (4) 
unknown

>  <frequency_list>  (4) 
unknown

>  <arkane_path>  (4) 
/home/calvin/Dropbox/PersonalFolders/Calvin/HAb_Converged/rxn_983/output/Species/rxn_983_C[C][C]C/arkane/output.py

>  <path_exists>  (4) 
True

>  <E0_value>  (4) 
-414011.7593682421

>  <E0_units>  (4) 
kJ/mol

>  <thermo_class>  (4) 
NASA

>  <Cp0_value>  (4) 
33.257888

>  <Cp0_units>  (4) 
J/(mol*K)

>  <CpInf_value>  (4) 
307.635464

>  <CpInf_units>  (4) 
J/(mol*K)

>  <Tmin_value>  (4) 
10.0

>  <Tmin_units>  (4) 
K

>  <Tmax_value>  (4) 
3000.0

>  <Tmax_units>  (4) 
K

>  <polynomials>  (4) 
[{"name": "polynomial1", "class": "NASAPolynomial", "Tmin_value": 10.0, "Tmin_units": "K", "Tmax_value": 466.1157034691072, "Tmax_units": "K", "coeffs": [3.6355533959461552, 0.03663934997834053, -8.044935515365279e-05, 2.068543814386236e-07, -1.7300903402717969e-10, -49794112.5892486, 8.363307822536209]}, {"name": "polynomial2", "class": "NASAPolynomial", "Tmin_value": 466.1157034691072, "Tmin_units": "K", "Tmax_value": 3000.0, "Tmax_units": "K", "coeffs": [-0.504782409741683, 0.04583928804814032, -2.532141706227698e-05, 6.8152655981896445e-09, -7.176146883692608e-13, -49793440.57973172, 28.24590478878515]}]

>  <H298_value>  (4) 
-98946.55981820748

>  <H298_units>  (4) 
kcal/mol

>  <S298_value>  (4) 
75.3258949031705

>  <S298_units>  (4) 
cal/(mol*K)

>  <Cp_T_value_list>  (4) 
[22.993194489896144, 28.2760521247414, 33.567027045068016, 38.277918949975685, 46.01659257342151, 51.88743125123314, 60.9070015178417, 65.43556076958349, 67.69149713128925]

>  <Cp_T_units>  (4) 
cal/(mol*K)

>  <T_list>  (4) 
[300.0, 400.0, 500.0, 600.0, 800.0, 1000.0, 1500.0, 2000.0, 2400.0]

>  <T_units>  (4) 
K

>  <yaml_path>  (4) 
/home/calvin/Dropbox/PersonalFolders/Calvin/HAb_Converged/rxn_983/output/Species/rxn_983_C[C][C]C/rxn_983_CCCC.yml

>  <frequencies_cm1>  (4) 
[127.69845901072, 132.20320138064, 133.72080513635998, 257.48448155871995, 382.7726287221199, 383.17778085599997, 764.0894565563999, 931.0258696855999, 931.334884025, 964.27581260504, 1004.44767672704, 1004.7154891545199, 1088.22489763104, 1293.76063524396, 1293.83617208248, 1387.45378295004, 1387.58425567112, 1410.79466605272, 1453.7201912880398, 1456.5699901958399, 1456.9957432856797, 1475.83188401844, 1478.2627968217198, 1478.3589346161998, 2924.14775785964, 2924.35376741924, 2931.9280522272, 3026.77485346704, 3027.0014639826, 3028.1139156044396, 3072.47464077164, 3076.36135446276, 3076.6566348315196]

>  <ZPE_kJmol>  (4) 
303.6491135400957

>  <E_elec_kJmol>  (4) 
-414315.4084817822

>  <E0_minus_Eelec_plus_ZPE_kJmol>  (4) 
0.0

>  <rxn>  (4) 
rxn_983

>  <species_type>  (4) 
p1

>  <species_folder>  (4) 
rxn_983_C[C][C]C

>  <frequencies_cm1_list>  (4) 
[127.69845901072, 132.20320138064, 133.72080513635998, 257.48448155871995, 382.7726287221199, 383.17778085599997, 764.0894565563999, 931.0258696855999, 931.334884025, 964.27581260504, 1004.44767672704, 1004.7154891545199, 1088.22489763104, 1293.76063524396, 1293.83617208248, 1387.45378295004, 1387.58425567112, 1410.79466605272, 1453.7201912880398, 1456.5699901958399, 1456.9957432856797, 1475.83188401844, 1478.2627968217198, 1478.3589346161998, 2924.14775785964, 2924.35376741924, 2931.9280522272, 3026.77485346704, 3027.0014639826, 3028.1139156044396, 3072.47464077164, 3076.36135446276, 3076.6566348315196]

>  <E0_kJmol>  (4) 
-414012

>  <H298_kJmol>  (4) 
-413992

$$$$

     RDKit          3D

 12 11  0  0  0  0  0  0  0  0999 V2000
   -0.9951    0.1196   -0.8321 C   0  0  0  0  0  0  0  0  0  1  0  0
   -0.3760    0.2571    0.5231 C   0  0  0  0  0  3  0  0  0  2  0  0
    0.9330   -0.1537    0.7810 C   0  0  0  0  0  0  0  0  0  3  0  0
    1.5987   -0.1880    1.9734 C   0  0  0  0  0  0  0  0  0  4  0  0
   -1.4483    0.9449    1.7152 S   0  0  0  0  0  0  0  0  0  5  0  0
   -1.9164   -0.4696   -0.7936 H   0  0  0  0  0  0  0  0  0  6  0  0
   -1.2565    1.0958   -1.2506 H   0  0  0  0  0  0  0  0  0  7  0  0
   -0.3088   -0.3780   -1.5170 H   0  0  0  0  0  0  0  0  0  8  0  0
    1.4783   -0.4898   -0.0971 H   0  0  0  0  0  0  0  0  0  9  0  0
    2.6278   -0.5153    2.0142 H   0  0  0  0  0  0  0  0  0 10  0  0
    1.1316    0.0690    2.9151 H   0  0  0  0  0  0  0  0  0 11  0  0
   -0.5306    1.3052    2.6211 H   0  0  0  0  0  0  0  0  0 12  0  0
  1  8  1  0
  1  7  1  0
  1  6  1  0
  1  2  1  0
  2  5  1  0
  2  3  1  0
  3  4  1  0
  3  9  1  0
  4 10  1  0
  4 11  1  0
  5 12  1  0
M  RAD  1   2   2
M  END
>  <rmg_smiles>  (5) 
[CH2][CH][C](S)C

>  <rmg_adjacency_list>  (5) 
multiplicity 2
1  S u0 p2 c0 {3,S} {12,S}
2  C u0 p0 c0 {3,S} {6,S} {7,S} {8,S}
3  C u1 p0 c0 {1,S} {2,S} {4,S}
4  C u0 p0 c0 {3,S} {5,S} {9,S}
5  C u0 p0 c0 {4,S} {10,S} {11,S}
6  H u0 p0 c0 {2,S}
7  H u0 p0 c0 {2,S}
8  H u0 p0 c0 {2,S}
9  H u0 p0 c0 {4,S}
10 H u0 p0 c0 {5,S}
11 H u0 p0 c0 {5,S}
12 H u0 p0 c0 {1,S}


>  <multiplicity>  (5) 
2

>  <reaction>  (5) 
rxn_983

>  <type>  (5) 
r2

>  <role_mapnums>  (5) 
{}

>  <role_mapidx>  (5) 
{}

>  <ordered_mapped_smiles>  (5) 
[C:1]([C:2]([CH:3]([CH:4]([H:10])[H:11])[H:9])[S:5][H:12])([H:6])([H:7])[H:8]

>  <level_of_theory>  (5) 
wb97xd/def2tzvp

>  <lot_method>  (5) 
wb97xd

>  <lot_basis>  (5) 
def2tzvp

>  <spin_multiplicity>  (5) 
2.0

>  <optical_isomers>  (5) 
2.0

>  <modes>  (5) 
IdealGasTranslation(mass=(87.0269, 'amu')),         NonlinearRotor(             inertia = ([99.3628, 146.633, 242.323

>  <frequency_value>  (5) 
unknown

>  <frequency_units>  (5) 
unknown

>  <frequency_list>  (5) 
unknown

>  <arkane_path>  (5) 
/home/calvin/Dropbox/PersonalFolders/Calvin/HAb_Converged/rxn_983/output/Species/rxn_983_C[C][C=C]S/arkane/output.py

>  <path_exists>  (5) 
True

>  <E0_value>  (5) 
-1456353.608765125

>  <E0_units>  (5) 
kJ/mol

>  <thermo_class>  (5) 
NASA

>  <Cp0_value>  (5) 
33.257888

>  <Cp0_units>  (5) 
J/(mol*K)

>  <CpInf_value>  (5) 
282.692048

>  <CpInf_units>  (5) 
J/(mol*K)

>  <Tmin_value>  (5) 
10.0

>  <Tmin_units>  (5) 
K

>  <Tmax_value>  (5) 
3000.0

>  <Tmax_units>  (5) 
K

>  <polynomials>  (5) 
[{"name": "polynomial1", "class": "NASAPolynomial", "Tmin_value": 10.0, "Tmin_units": "K", "Tmax_value": 205.80991427712218, "Tmax_units": "K", "coeffs": [3.8440716151485463, 0.015174752734817191, 0.00016959478629680551, -6.246323659510997e-07, 7.670877214797748e-10, -175158884.09466982, 11.74554198751139]}, {"name": "polynomial2", "class": "NASAPolynomial", "Tmin_value": 205.80991427712218, "Tmin_units": "K", "Tmax_value": 3000.0, "Tmax_units": "K", "coeffs": [2.4663335557323998, 0.041952173821737604, -2.5570291046252858e-05, 7.56538962079546e-09, -8.66016918218639e-13, -175158827.38533536, 16.214373622623416]}]

>  <H298_value>  (5) 
-348072.01766260894

>  <H298_units>  (5) 
kcal/mol

>  <S298_value>  (5) 
82.85997438116188

>  <S298_units>  (5) 
cal/(mol*K)

>  <Cp_T_value_list>  (5) 
[25.730171503702618, 31.036134336876824, 35.65325747623649, 39.653158562343805, 46.06711368365225, 50.768335011708174, 57.649692747325474, 61.11924507378844, 63.030727529768605]

>  <Cp_T_units>  (5) 
cal/(mol*K)

>  <T_list>  (5) 
[300.0, 400.0, 500.0, 600.0, 800.0, 1000.0, 1500.0, 2000.0, 2400.0]

>  <T_units>  (5) 
K

>  <yaml_path>  (5) 
/home/calvin/Dropbox/PersonalFolders/Calvin/HAb_Converged/rxn_983/output/Species/rxn_983_C[C][C=C]S/rxn_983_CCC=CS.yml

>  <frequencies_cm1>  (5) 
[98.94639147588, 151.417026306, 232.0010990362, 298.89927002364, 330.48053551031995, 349.21367146328, 522.0762929236399, 588.7821883221199, 625.9600468445999, 795.4921804247599, 896.58107132048, 946.2019072428, 949.3950554165998, 1028.4615243910798, 1048.7259980703998, 1178.03819863132, 1246.9003274202798, 1314.9315509855198, 1402.4787468301997, 1441.74416888996, 1459.15884366148, 1479.79413454808, 1527.8149628908398, 2701.01880385688, 2997.3017524735997, 3049.97839686332, 3100.25159639104, 3118.39417160648, 3137.12730755944, 3226.2539100277195]

>  <ZPE_kJmol>  (5) 
246.69290464792437

>  <E_elec_kJmol>  (5) 
-1456600.301669773

>  <E0_minus_Eelec_plus_ZPE_kJmol>  (5) 
0.0

>  <rxn>  (5) 
rxn_983

>  <species_type>  (5) 
r0

>  <species_folder>  (5) 
rxn_983_C[C][C=C]S

>  <frequencies_cm1_list>  (5) 
[98.94639147588, 151.417026306, 232.0010990362, 298.89927002364, 330.48053551031995, 349.21367146328, 522.0762929236399, 588.7821883221199, 625.9600468445999, 795.4921804247599, 896.58107132048, 946.2019072428, 949.3950554165998, 1028.4615243910798, 1048.7259980703998, 1178.03819863132, 1246.9003274202798, 1314.9315509855198, 1402.4787468301997, 1441.74416888996, 1459.15884366148, 1479.79413454808, 1527.8149628908398, 2701.01880385688, 2997.3017524735997, 3049.97839686332, 3100.25159639104, 3118.39417160648, 3137.12730755944, 3226.2539100277195]

>  <E0_kJmol>  (5) 
-1.45635e+06

>  <H298_kJmol>  (5) 
-1.45633e+06

$$$$
