
     RDKit          3D

 14 13  0  0  0  0  0  0  0  0999 V2000
    0.4389   -0.3795   -1.3544 C   0  0  0  0  0  0  0  0  0  1  0  0
    0.1928   -0.0916    0.1004 C   0  0  0  0  0  0  0  0  0  2  0  0
    0.2621    1.3579    0.4932 C   0  0  0  0  0  0  0  0  0  3  0  0
   -0.9016   -0.8872    0.7556 C   0  0  0  0  0  0  0  0  0  4  0  0
    1.3744    0.0713   -1.6922 H   0  0  0  0  0  0  0  0  0  5  0  0
   -0.3688    0.0329   -1.9729 H   0  0  0  0  0  0  0  0  0  6  0  0
    0.4833   -1.4530   -1.5488 H   0  0  0  0  0  0  0  0  0  7  0  0
    1.0938   -0.4724    0.5812 H   0  0  0  0  0  0  0  0  0  8  0  0
   -0.5928    1.9107    0.0832 H   0  0  0  0  0  0  0  0  0  9  0  0
    0.2434    1.4739    1.5786 H   0  0  0  0  0  0  0  0  0 10  0  0
    1.1730    1.8260    0.1153 H   0  0  0  0  0  0  0  0  0 11  0  0
   -0.8261   -1.9489    0.5124 H   0  0  0  0  0  0  0  0  0 12  0  0
   -1.8871   -0.5422    0.4171 H   0  0  0  0  0  0  0  0  0 13  0  0
   -0.8708   -0.7791    1.8419 H   0  0  0  0  0  0  0  0  0 14  0  0
  1  5  1  0
  1  7  1  0
  1  6  1  0
  1  2  1  0
  2  8  1  0
  2  3  1  0
  2  4  1  0
  3 11  1  0
  3  9  1  0
  3 10  1  0
  4 14  1  0
  4 13  1  0
  4 12  1  0
M  END
>  <rmg_smiles>  (1) 
CC(C)C

>  <rmg_adjacency_list>  (1) 
1  C u0 p0 c0 {2,S} {3,S} {4,S} {5,S}
2  C u0 p0 c0 {1,S} {6,S} {7,S} {8,S}
3  C u0 p0 c0 {1,S} {9,S} {10,S} {11,S}
4  C u0 p0 c0 {1,S} {12,S} {13,S} {14,S}
5  H u0 p0 c0 {1,S}
6  H u0 p0 c0 {2,S}
7  H u0 p0 c0 {2,S}
8  H u0 p0 c0 {2,S}
9  H u0 p0 c0 {3,S}
10 H u0 p0 c0 {3,S}
11 H u0 p0 c0 {3,S}
12 H u0 p0 c0 {4,S}
13 H u0 p0 c0 {4,S}
14 H u0 p0 c0 {4,S}


>  <multiplicity>  (1) 
1

>  <reaction>  (1) 
rxn_965

>  <type>  (1) 
r1h

>  <role_mapnums>  (1) 
{"r1h_a": 2, "r1h_h": 8}

>  <role_mapidx>  (1) 
{"r1h_a": 1, "r1h_h": 7}

>  <ordered_mapped_smiles>  (1) 
[C:1]([C:2]([C:3]([H:9])([H:10])[H:11])([C:4]([H:12])([H:13])[H:14])[H:8])([H:5])([H:6])[H:7]

>  <mol_properties>  (1) 
{"1": {"label": "donator", "atom_type": "Cs"}, "7": {"label": "d_hydrogen", "atom_type": "H0"}}

>  <level_of_theory>  (1) 
wb97xd/def2tzvp

>  <lot_method>  (1) 
wb97xd

>  <lot_basis>  (1) 
def2tzvp

>  <spin_multiplicity>  (1) 
1.0

>  <optical_isomers>  (1) 
1.0

>  <modes>  (1) 
IdealGasTranslation(mass=(58.0782, 'amu')),         NonlinearRotor(             inertia = ([64.472, 64.4729, 111.216

>  <frequency_value>  (1) 
unknown

>  <frequency_units>  (1) 
unknown

>  <frequency_list>  (1) 
unknown

>  <arkane_path>  (1) 
/home/calvin/Dropbox/PersonalFolders/Calvin/HAb_Converged/rxn_965/output/Species/rxn_965_CC[C]C/arkane/output.py

>  <path_exists>  (1) 
True

>  <E0_value>  (1) 
-415716.8431918185

>  <E0_units>  (1) 
kJ/mol

>  <thermo_class>  (1) 
NASA

>  <Cp0_value>  (1) 
33.257888

>  <Cp0_units>  (1) 
J/(mol*K)

>  <CpInf_value>  (1) 
332.57888

>  <CpInf_units>  (1) 
J/(mol*K)

>  <Tmin_value>  (1) 
10.0

>  <Tmin_units>  (1) 
K

>  <Tmax_value>  (1) 
3000.0

>  <Tmax_units>  (1) 
K

>  <polynomials>  (1) 
[{"name": "polynomial1", "class": "NASAPolynomial", "Tmin_value": 10.0, "Tmin_units": "K", "Tmax_value": 537.7725671989996, "Tmax_units": "K", "coeffs": [3.8630353222892304, 0.00953896380042365, 8.516198126195166e-05, -1.3166177175479042e-07, 6.373384412339677e-11, -49999182.89238252, 7.558082464801929]}, {"name": "polynomial2", "class": "NASAPolynomial", "Tmin_value": 537.7725671989996, "Tmin_units": "K", "Tmax_value": 3000.0, "Tmax_units": "K", "coeffs": [-1.5271370402816393, 0.04963157257259212, -2.6667741196402184e-05, 6.971559736664761e-09, -7.141404259485613e-13, -49998603.155438714, 30.21891510646073]}]

>  <H298_value>  (1) 
-99354.53541792648

>  <H298_units>  (1) 
kcal/mol

>  <S298_value>  (1) 
69.85898970467397

>  <S298_units>  (1) 
cal/(mol*K)

>  <Cp_T_value_list>  (1) 
[22.556143250116843, 28.833910983600145, 34.674083284675056, 39.872749925960164, 48.463382706438104, 55.03392267678711, 65.24293512533976, 70.36951468972036, 72.85858989228666]

>  <Cp_T_units>  (1) 
cal/(mol*K)

>  <T_list>  (1) 
[300.0, 400.0, 500.0, 600.0, 800.0, 1000.0, 1500.0, 2000.0, 2400.0]

>  <T_units>  (1) 
K

>  <yaml_path>  (1) 
/home/calvin/Dropbox/PersonalFolders/Calvin/HAb_Converged/rxn_965/output/Species/rxn_965_CC[C]C/rxn_965_CCCC.yml

>  <frequencies_cm1>  (1) 
[211.24220241384, 262.63472054871994, 263.53429562563997, 369.10046095, 369.47814514259994, 435.2981994347999, 804.0141092068799, 925.14773025168, 925.3331388553199, 953.2817691077199, 976.1419632379999, 976.3960416948399, 1191.09920470996, 1191.1129386805999, 1204.1602107886, 1353.06392046748, 1353.20126017388, 1393.2083166481998, 1393.4967300316398, 1417.4144399011998, 1467.51596479592, 1474.0945367324798, 1474.25934438016, 1492.55299327264, 1492.5941951845598, 1500.97878426028, 2997.8923132111195, 2999.9180738805194, 2999.95927579244, 3005.336125298, 3068.56732612456, 3068.63599597776, 3077.3089984369203, 3079.47209881272, 3083.063532135079, 3083.2077388267994]

>  <ZPE_kJmol>  (1) 
342.9318820717978

>  <E_elec_kJmol>  (1) 
-416059.7750738903

>  <E0_minus_Eelec_plus_ZPE_kJmol>  (1) 
0.0

>  <rxn>  (1) 
rxn_965

>  <species_type>  (1) 
r1

>  <species_folder>  (1) 
rxn_965_CC[C]C

>  <frequencies_cm1_list>  (1) 
[211.24220241384, 262.63472054871994, 263.53429562563997, 369.10046095, 369.47814514259994, 435.2981994347999, 804.0141092068799, 925.14773025168, 925.3331388553199, 953.2817691077199, 976.1419632379999, 976.3960416948399, 1191.09920470996, 1191.1129386805999, 1204.1602107886, 1353.06392046748, 1353.20126017388, 1393.2083166481998, 1393.4967300316398, 1417.4144399011998, 1467.51596479592, 1474.0945367324798, 1474.25934438016, 1492.55299327264, 1492.5941951845598, 1500.97878426028, 2997.8923132111195, 2999.9180738805194, 2999.95927579244, 3005.336125298, 3068.56732612456, 3068.63599597776, 3077.3089984369203, 3079.47209881272, 3083.063532135079, 3083.2077388267994]

>  <E0_kJmol>  (1) 
-415717

>  <H298_kJmol>  (1) 
-415699

$$$$

     RDKit          3D

 12 11  0  0  0  0  0  0  0  0999 V2000
    1.5339    1.2135   -1.4529 C   0  0  0  0  0  2  0  0  0  1  0  0
    0.6923    0.5698   -0.8894 C   0  0  0  0  0  2  0  0  0  2  0  0
   -0.3633   -0.1996   -0.2789 C   0  0  0  0  0  0  0  0  0  3  0  0
   -0.3488   -1.6847   -0.6271 C   0  0  0  0  0  0  0  0  0  4  0  0
   -0.5825    0.0869    1.1172 C   0  0  0  0  0  2  0  0  0  5  0  0
   -0.8303    0.3178    2.2684 C   0  0  0  0  0  2  0  0  0  6  0  0
    2.2939    1.7811   -1.9331 H   0  0  0  0  0  0  0  0  0  7  0  0
   -0.3154   -1.8111   -1.7093 H   0  0  0  0  0  0  0  0  0  8  0  0
    0.5214   -2.1797   -0.1933 H   0  0  0  0  0  0  0  0  0  9  0  0
   -1.2483   -2.1645   -0.2410 H   0  0  0  0  0  0  0  0  0 10  0  0
   -1.0263    0.5233    3.2931 H   0  0  0  0  0  0  0  0  0 11  0  0
   -1.2673    0.1676   -0.7648 H   0  0  0  0  0  0  0  0  0 12  0  0
  1  7  1  0
  1  2  1  0
  2  3  1  0
  3  4  1  0
  3  5  1  0
  3 12  1  0
  4  8  1  0
  4  9  1  0
  4 10  1  0
  5  6  1  0
  6 11  1  0
M  RAD  4   1   3   2   3   5   3   6   3
M  END
>  <rmg_smiles>  (2) 
[CH][C]C(C)[C][CH]

>  <rmg_adjacency_list>  (2) 
1  C u0 p0 c0 {2,S} {3,S} {4,S} {7,S}
2  C u0 p0 c0 {1,S} {8,S} {9,S} {10,S}
3  C u0 p1 c0 {1,S} {5,S}
4  C u0 p1 c0 {1,S} {6,S}
5  C u0 p1 c0 {3,S} {11,S}
6  C u0 p1 c0 {4,S} {12,S}
7  H u0 p0 c0 {1,S}
8  H u0 p0 c0 {2,S}
9  H u0 p0 c0 {2,S}
10 H u0 p0 c0 {2,S}
11 H u0 p0 c0 {5,S}
12 H u0 p0 c0 {6,S}


>  <multiplicity>  (2) 
1

>  <reaction>  (2) 
rxn_965

>  <type>  (2) 
r2h

>  <role_mapnums>  (2) 
{"r2h_a": 3, "r2h_h": 12}

>  <role_mapidx>  (2) 
{"r2h_a": 2, "r2h_h": 11}

>  <ordered_mapped_smiles>  (2) 
[C:1]([C:2][C:3]([C:4]([H:8])([H:9])[H:10])([C:5][C:6][H:11])[H:12])[H:7]

>  <mol_properties>  (2) 
{"2": {"label": "acceptor", "atom_type": "Cs"}, "11": {"label": "a_hydrogen", "atom_type": "H0"}}

>  <level_of_theory>  (2) 
wb97xd/def2tzvp

>  <lot_method>  (2) 
wb97xd

>  <lot_basis>  (2) 
def2tzvp

>  <spin_multiplicity>  (2) 
1.0

>  <optical_isomers>  (2) 
1.0

>  <modes>  (2) 
IdealGasTranslation(mass=(78.0469, 'amu')),         NonlinearRotor(             inertia = ([91.5038, 182.303, 256.884

>  <frequency_value>  (2) 
unknown

>  <frequency_units>  (2) 
unknown

>  <frequency_list>  (2) 
unknown

>  <arkane_path>  (2) 
/home/calvin/Dropbox/PersonalFolders/Calvin/HAb_Converged/rxn_965/output/Species/rxn_965_CtCC[C]CtC/arkane/output.py

>  <path_exists>  (2) 
True

>  <E0_value>  (2) 
-609140.5146388354

>  <E0_units>  (2) 
kJ/mol

>  <thermo_class>  (2) 
NASA

>  <Cp0_value>  (2) 
33.257888

>  <Cp0_units>  (2) 
J/(mol*K)

>  <CpInf_value>  (2) 
282.692048

>  <CpInf_units>  (2) 
J/(mol*K)

>  <Tmin_value>  (2) 
10.0

>  <Tmin_units>  (2) 
K

>  <Tmax_value>  (2) 
3000.0

>  <Tmax_units>  (2) 
K

>  <polynomials>  (2) 
[{"name": "polynomial1", "class": "NASAPolynomial", "Tmin_value": 10.0, "Tmin_units": "K", "Tmax_value": 428.30381772817856, "Tmax_units": "K", "coeffs": [3.843414737485958, 0.011059899510253308, 0.00017313206294384585, -4.5066861494576427e-07, 3.5431673194866504e-10, -73262680.70719364, 10.351537126465276]}, {"name": "polynomial2", "class": "NASAPolynomial", "Tmin_value": 428.30381772817856, "Tmin_units": "K", "Tmax_value": 3000.0, "Tmax_units": "K", "coeffs": [3.71225639608142, 0.03988512935119699, -2.4480757543004908e-05, 7.3774227474566334e-09, -8.647202101499329e-13, -73262922.62795044, 7.917757545343436]}]

>  <H298_value>  (2) 
-145583.22326588043

>  <H298_units>  (2) 
kcal/mol

>  <S298_value>  (2) 
79.39725011907349

>  <S298_units>  (2) 
cal/(mol*K)

>  <Cp_T_value_list>  (2) 
[26.71835542334415, 32.185236842440695, 36.57009328220792, 40.36357580076537, 46.452394866783735, 50.93077266482023, 57.588055372365, 61.09337215118473, 63.041253155202796]

>  <Cp_T_units>  (2) 
cal/(mol*K)

>  <T_list>  (2) 
[300.0, 400.0, 500.0, 600.0, 800.0, 1000.0, 1500.0, 2000.0, 2400.0]

>  <T_units>  (2) 
K

>  <yaml_path>  (2) 
/home/calvin/Dropbox/PersonalFolders/Calvin/HAb_Converged/rxn_965/output/Species/rxn_965_CtCC[C]CtC/rxn_965_CtCCCCtC.yml

>  <frequencies_cm1>  (2) 
[133.58346542996, 199.16317523595998, 209.69026373152, 240.0698067872, 354.65919082204, 475.7310089989599, 567.46019890352, 568.12629647956, 689.5414639224799, 690.09082274808, 696.1063018883999, 699.3337849888, 789.86125246236, 930.3735060801998, 1032.6572524215999, 1082.42916202096, 1134.52211265848, 1298.31344651112, 1322.5745056466799, 1399.4092043921598, 1478.5306092491999, 1484.3400788299198, 2226.8946694228, 2231.41314576336, 3015.0597765111197, 3031.95942738364, 3117.4327936616796, 3119.7813026411195, 3437.7021220011598, 3438.6085640633996]

>  <ZPE_kJmol>  (2) 
245.805260802598

>  <E_elec_kJmol>  (2) 
-609386.3198996381

>  <E0_minus_Eelec_plus_ZPE_kJmol>  (2) 
0.0

>  <rxn>  (2) 
rxn_965

>  <species_type>  (2) 
p0

>  <species_folder>  (2) 
rxn_965_CtCC[C]CtC

>  <frequencies_cm1_list>  (2) 
[133.58346542996, 199.16317523595998, 209.69026373152, 240.0698067872, 354.65919082204, 475.7310089989599, 567.46019890352, 568.12629647956, 689.5414639224799, 690.09082274808, 696.1063018883999, 699.3337849888, 789.86125246236, 930.3735060801998, 1032.6572524215999, 1082.42916202096, 1134.52211265848, 1298.31344651112, 1322.5745056466799, 1399.4092043921598, 1478.5306092491999, 1484.3400788299198, 2226.8946694228, 2231.41314576336, 3015.0597765111197, 3031.95942738364, 3117.4327936616796, 3119.7813026411195, 3437.7021220011598, 3438.6085640633996]

>  <E0_kJmol>  (2) 
-609141

>  <H298_kJmol>  (2) 
-609120

$$$$

     RDKit          3D

 25 23  0  0  0  0  0  0  0  0999 V2000
    2.7335    0.8954   -0.6998 C   0  0  0  0  0  0  0  0  0  1  0  0
    1.8919    0.2518   -0.1362 C   0  0  0  0  0  0  0  0  0  2  0  0
    0.8363   -0.5176    0.4743 C   0  0  0  0  0  0  0  0  0  3  0  0
    0.8508   -2.0028    0.1260 C   0  0  0  0  0  0  0  0  0  4  0  0
    0.6171   -0.2312    1.8703 C   0  0  0  0  0  0  0  0  0  5  0  0
    0.3693   -0.0002    3.0216 C   0  0  0  0  0  0  0  0  0  6  0  0
    3.4936    1.4631   -1.1799 H   0  0  0  0  0  0  0  0  0  7  0  0
    0.8843   -2.1292   -0.9562 H   0  0  0  0  0  0  0  0  0  8  0  0
    1.7211   -2.4978    0.5598 H   0  0  0  0  0  0  0  0  0  9  0  0
   -0.0486   -2.4826    0.5122 H   0  0  0  0  0  0  0  0  0 10  0  0
    0.1733    0.2052    4.0462 H   0  0  0  0  0  0  0  0  0 11  0  0
   -1.1569    0.1232   -2.1797 C   0  0  0  0  0  0  0  0  0 12  0  0
   -1.4030    0.4111   -0.7248 C   0  0  0  0  0  3  0  0  0 13  0  0
   -1.3337    1.8606   -0.3321 C   0  0  0  0  0  0  0  0  0 14  0  0
   -2.4974   -0.3845   -0.0696 C   0  0  0  0  0  0  0  0  0 15  0  0
   -0.2214    0.5740   -2.5175 H   0  0  0  0  0  0  0  0  0 16  0  0
   -1.9645    0.5356   -2.7982 H   0  0  0  0  0  0  0  0  0 17  0  0
   -1.1124   -0.9502   -2.3740 H   0  0  0  0  0  0  0  0  0 18  0  0
   -0.2306   -0.0843   -0.0993 H   0  0  0  0  0  0  0  0  0 19  0  0
   -2.1885    2.4134   -0.7421 H   0  0  0  0  0  0  0  0  0 20  0  0
   -1.3523    1.9766    0.7533 H   0  0  0  0  0  0  0  0  0 21  0  0
   -0.4227    2.3287   -0.7100 H   0  0  0  0  0  0  0  0  0 22  0  0
   -2.4219   -1.4462   -0.3129 H   0  0  0  0  0  0  0  0  0 23  0  0
   -3.4829   -0.0395   -0.4081 H   0  0  0  0  0  0  0  0  0 24  0  0
   -2.4665   -0.2763    1.0166 H   0  0  0  0  0  0  0  0  0 25  0  0
  1  7  1  0
  1  2  1  0
  2  3  1  0
  3  4  1  0
  3  5  1  0
  3 19  1  0
  4 10  1  0
  4  9  1  0
  4  8  1  0
  5  6  1  0
  6 11  1  0
 12 17  1  0
 12 18  1  0
 12 16  1  0
 12 13  1  0
 13 15  1  0
 13 14  1  0
 14 20  1  0
 14 22  1  0
 14 21  1  0
 15 25  1  0
 15 23  1  0
 15 24  1  0
M  RAD  1  13   2
M  END
>  <rmg_smiles>  (3) 
C[C](C)C.[CH]CC(C)C[CH]

>  <rmg_adjacency_list>  (3) 
multiplicity 2
1  C u0 p0 c0 {2,S} {7,S} {8,S} {11,S}
2  C u0 p0 c0 {1,S} {12,S} {13,S} {14,S}
3  C u0 p0 c0 {6,S} {15,S} {16,S} {17,S}
4  C u0 p0 c0 {6,S} {18,S} {19,S} {20,S}
5  C u0 p0 c0 {6,S} {21,S} {22,S} {23,S}
6  C u1 p0 c0 {3,S} {4,S} {5,S}
7  C u0 p1 c0 {1,S} {9,S}
8  C u0 p1 c0 {1,S} {10,S}
9  C u0 p1 c0 {7,S} {24,S}
10 C u0 p1 c0 {8,S} {25,S}
11 H u0 p0 c0 {1,S}
12 H u0 p0 c0 {2,S}
13 H u0 p0 c0 {2,S}
14 H u0 p0 c0 {2,S}
15 H u0 p0 c0 {3,S}
16 H u0 p0 c0 {3,S}
17 H u0 p0 c0 {3,S}
18 H u0 p0 c0 {4,S}
19 H u0 p0 c0 {4,S}
20 H u0 p0 c0 {4,S}
21 H u0 p0 c0 {5,S}
22 H u0 p0 c0 {5,S}
23 H u0 p0 c0 {5,S}
24 H u0 p0 c0 {9,S}
25 H u0 p0 c0 {10,S}


>  <multiplicity>  (3) 
2

>  <reaction>  (3) 
rxn_965

>  <type>  (3) 
ts

>  <role_mapnums>  (3) 
{"*2": 19, "*1": 13, "*3": 3, "*0": 2, "*4": 12}

>  <role_mapidx>  (3) 
{"*2": 18, "*1": 12, "*3": 2, "*0": 1, "*4": 11}

>  <ordered_mapped_smiles>  (3) 
[CH2:1]([CH2:2][C:3]([C:4]([H:8])([H:9])[H:10])([CH2:5][CH2:6][H:11])[H:19])[H:7].[C:12]([C:13]([C:14]([H:20])([H:21])[H:22])[C:15]([H:23])([H:24])[H:25])([H:16])([H:17])[H:18]

>  <mol_properties>  (3) 
{"1": {"label": "*0", "atom_type": "C2s"}, "2": {"label": "*3", "atom_type": "Cs"}, "11": {"label": "*4", "atom_type": "Cs"}, "12": {"label": "*1", "atom_type": "Cs"}, "18": {"label": "*2", "atom_type": "H0"}}

>  <level_of_theory>  (3) 
wb97xd/def2tzvp

>  <lot_method>  (3) 
wb97xd

>  <lot_basis>  (3) 
def2tzvp

>  <spin_multiplicity>  (3) 
2.0

>  <optical_isomers>  (3) 
1.0

>  <modes>  (3) 
IdealGasTranslation(mass=(135.117, 'amu')),         NonlinearRotor(             inertia = ([370.733, 521.289, 621.768

>  <frequency_value>  (3) 
-1495.54

>  <frequency_units>  (3) 
cm^-1

>  <frequency_list>  (3) 
unknown

>  <arkane_path>  (3) 
/home/calvin/Dropbox/PersonalFolders/Calvin/HAb_Converged/rxn_965/output/rxns/TS0/arkane/output.py

>  <path_exists>  (3) 
True

>  <E0_value>  (3) 
-1023140.0

>  <E0_units>  (3) 
kJ/mol

>  <thermo_class>  (3) 
unknown

>  <Cp0_value>  (3) 
unknown

>  <Cp0_units>  (3) 
unknown

>  <CpInf_value>  (3) 
unknown

>  <CpInf_units>  (3) 
unknown

>  <Tmin_value>  (3) 
unknown

>  <Tmin_units>  (3) 
unknown

>  <Tmax_value>  (3) 
unknown

>  <Tmax_units>  (3) 
unknown

>  <polynomials>  (3) 
unknown

>  <H298_value>  (3) 
unknown

>  <H298_units>  (3) 
unknown

>  <S298_value>  (3) 
unknown

>  <S298_units>  (3) 
unknown

>  <Cp_T_value_list>  (3) 
unknown

>  <Cp_T_units>  (3) 
unknown

>  <T_list>  (3) 
unknown

>  <T_units>  (3) 
unknown

>  <yaml_path>  (3) 
unknown

>  <frequencies_cm1>  (3) 
unknown

>  <ZPE_kJmol>  (3) 
unknown

>  <E_elec_kJmol>  (3) 
unknown

>  <E0_minus_Eelec_plus_ZPE_kJmol>  (3) 
unknown

>  <rxn>  (3) 
unknown

>  <species_type>  (3) 
unknown

>  <species_folder>  (3) 
unknown

>  <frequencies_cm1_list>  (3) 
[]

>  <ts_imag_freq_cm1>  (3) 
-1513.7019

>  <ts_freq_out_path>  (3) 
/home/calvin/Dropbox/PersonalFolders/Calvin/HAb_Converged/rxn_965/output/rxns/TS0/geometry/freq.out

>  <E0_kJmol>  (3) 
-1.02314e+06

>  <H298_kJmol>  (3) 
unknown

$$$$

     RDKit          3D

 13 12  0  0  0  0  0  0  0  0999 V2000
   -1.3649   -0.5967   -0.3477 C   0  0  0  0  0  0  0  0  0  1  0  0
   -0.1601   -0.2776    0.4669 C   0  0  0  0  0  3  0  0  0  2  0  0
    1.1241   -0.9571    0.1414 C   0  0  0  0  0  0  0  0  0  3  0  0
   -0.1188    1.0130    1.2082 C   0  0  0  0  0  0  0  0  0  4  0  0
   -1.4265   -1.6632   -0.5770 H   0  0  0  0  0  0  0  0  0  5  0  0
   -2.2859   -0.3004    0.1602 H   0  0  0  0  0  0  0  0  0  6  0  0
   -1.3532   -0.0668   -1.3139 H   0  0  0  0  0  0  0  0  0  7  0  0
    1.6174   -0.4963   -0.7297 H   0  0  0  0  0  0  0  0  0  8  0  0
    0.9723   -2.0104   -0.1064 H   0  0  0  0  0  0  0  0  0  9  0  0
    1.8338   -0.8977    0.9701 H   0  0  0  0  0  0  0  0  0 10  0  0
   -1.0851    1.2507    1.6593 H   0  0  0  0  0  0  0  0  0 11  0  0
    0.6358    1.0009    1.9983 H   0  0  0  0  0  0  0  0  0 12  0  0
    0.1343    1.8546    0.5434 H   0  0  0  0  0  0  0  0  0 13  0  0
  1  5  1  0
  1  7  1  0
  1  6  1  0
  1  2  1  0
  2  3  1  0
  2  4  1  0
  3  9  1  0
  3 10  1  0
  3  8  1  0
  4 13  1  0
  4 12  1  0
  4 11  1  0
M  RAD  1   2   2
M  END
>  <rmg_smiles>  (4) 
C[C](C)C

>  <rmg_adjacency_list>  (4) 
multiplicity 2
1  C u0 p0 c0 {4,S} {5,S} {6,S} {7,S}
2  C u0 p0 c0 {4,S} {8,S} {9,S} {10,S}
3  C u0 p0 c0 {4,S} {11,S} {12,S} {13,S}
4  C u1 p0 c0 {1,S} {2,S} {3,S}
5  H u0 p0 c0 {1,S}
6  H u0 p0 c0 {1,S}
7  H u0 p0 c0 {1,S}
8  H u0 p0 c0 {2,S}
9  H u0 p0 c0 {2,S}
10 H u0 p0 c0 {2,S}
11 H u0 p0 c0 {3,S}
12 H u0 p0 c0 {3,S}
13 H u0 p0 c0 {3,S}


>  <multiplicity>  (4) 
2

>  <reaction>  (4) 
rxn_965

>  <type>  (4) 
r1

>  <role_mapnums>  (4) 
{}

>  <role_mapidx>  (4) 
{}

>  <ordered_mapped_smiles>  (4) 
[C:1]([C:2]([C:3]([H:8])([H:9])[H:10])[C:4]([H:11])([H:12])[H:13])([H:5])([H:6])[H:7]

>  <level_of_theory>  (4) 
wb97xd/def2tzvp

>  <lot_method>  (4) 
wb97xd

>  <lot_basis>  (4) 
def2tzvp

>  <spin_multiplicity>  (4) 
2.0

>  <optical_isomers>  (4) 
1.0

>  <modes>  (4) 
IdealGasTranslation(mass=(57.0704, 'amu')),         NonlinearRotor(             inertia = ([62.748, 62.7522, 115.629

>  <frequency_value>  (4) 
unknown

>  <frequency_units>  (4) 
unknown

>  <frequency_list>  (4) 
unknown

>  <arkane_path>  (4) 
/home/calvin/Dropbox/PersonalFolders/Calvin/HAb_Converged/rxn_965/output/Species/rxn_965_C[C][C]C/arkane/output.py

>  <path_exists>  (4) 
True

>  <E0_value>  (4) 
-414011.8686497368

>  <E0_units>  (4) 
kJ/mol

>  <thermo_class>  (4) 
NASA

>  <Cp0_value>  (4) 
33.257888

>  <Cp0_units>  (4) 
J/(mol*K)

>  <CpInf_value>  (4) 
307.635464

>  <CpInf_units>  (4) 
J/(mol*K)

>  <Tmin_value>  (4) 
10.0

>  <Tmin_units>  (4) 
K

>  <Tmax_value>  (4) 
3000.0

>  <Tmax_units>  (4) 
K

>  <polynomials>  (4) 
[{"name": "polynomial1", "class": "NASAPolynomial", "Tmin_value": 10.0, "Tmin_units": "K", "Tmax_value": 460.22835228293457, "Tmax_units": "K", "coeffs": [3.62858513509367, 0.03777822706674012, -8.94372055782627e-05, 2.304769130311853e-07, -1.9323567567380294e-10, -49794125.704232454, 8.374570105283007]}, {"name": "polynomial2", "class": "NASAPolynomial", "Tmin_value": 460.22835228293457, "Tmin_units": "K", "Tmax_value": 3000.0, "Tmax_units": "K", "coeffs": [-0.4782907180353417, 0.045781798183238596, -2.5271985170334413e-05, 6.796513030725364e-09, -7.150140724230623e-13, -49793454.42582412, 28.186811251878947]}]

>  <H298_value>  (4) 
-98946.57341231784

>  <H298_units>  (4) 
kcal/mol

>  <S298_value>  (4) 
75.48561009791682

>  <S298_units>  (4) 
cal/(mol*K)

>  <Cp_T_value_list>  (4) 
[22.992719315265838, 28.285126707878398, 33.58277207922833, 38.29000064707702, 46.023746732194546, 51.891965593904494, 60.90969289943218, 65.43720785595073, 67.69207424888934]

>  <Cp_T_units>  (4) 
cal/(mol*K)

>  <T_list>  (4) 
[300.0, 400.0, 500.0, 600.0, 800.0, 1000.0, 1500.0, 2000.0, 2400.0]

>  <T_units>  (4) 
K

>  <yaml_path>  (4) 
/home/calvin/Dropbox/PersonalFolders/Calvin/HAb_Converged/rxn_965/output/Species/rxn_965_C[C][C]C/rxn_965_CCCC.yml

>  <frequencies_cm1>  (4) 
[125.22634429552, 128.70790585276, 129.3053335756, 257.14799927803995, 382.49794930931995, 382.87563350191994, 764.0551216298, 930.32543718296, 930.3529051242399, 963.93933032436, 1004.1729973142399, 1004.5506815068399, 1087.72360770268, 1293.6095615669199, 1293.76063524396, 1387.17223655192, 1387.55678772984, 1410.6573263463201, 1453.51418172844, 1456.5493892398802, 1456.74166482884, 1475.68767732672, 1477.9949843942402, 1478.2421958657599, 2923.26191675336, 2923.63960094596, 2931.1246149447597, 3026.4177702303996, 3027.06326685048, 3028.0795806778397, 3072.35103503588, 3076.18967982976, 3076.7115707140792]

>  <ZPE_kJmol>  (4) 
303.53579118716186

>  <E_elec_kJmol>  (4) 
-414315.404440924

>  <E0_minus_Eelec_plus_ZPE_kJmol>  (4) 
0.0

>  <rxn>  (4) 
rxn_965

>  <species_type>  (4) 
p1

>  <species_folder>  (4) 
rxn_965_C[C][C]C

>  <frequencies_cm1_list>  (4) 
[125.22634429552, 128.70790585276, 129.3053335756, 257.14799927803995, 382.49794930931995, 382.87563350191994, 764.0551216298, 930.32543718296, 930.3529051242399, 963.93933032436, 1004.1729973142399, 1004.5506815068399, 1087.72360770268, 1293.6095615669199, 1293.76063524396, 1387.17223655192, 1387.55678772984, 1410.6573263463201, 1453.51418172844, 1456.5493892398802, 1456.74166482884, 1475.68767732672, 1477.9949843942402, 1478.2421958657599, 2923.26191675336, 2923.63960094596, 2931.1246149447597, 3026.4177702303996, 3027.06326685048, 3028.0795806778397, 3072.35103503588, 3076.18967982976, 3076.7115707140792]

>  <E0_kJmol>  (4) 
-414012

>  <H298_kJmol>  (4) 
-413992

$$$$

     RDKit          3D

 11 10  0  0  0  0  0  0  0  0999 V2000
   -0.9580    1.1013   -2.2955 C   0  0  0  0  0  0  0  0  0  1  0  0
   -0.5129    0.5941   -1.2929 C   0  0  0  0  0  0  0  0  0  2  0  0
   -0.0301   -0.0160   -0.1357 C   0  0  0  0  0  3  0  0  0  3  0  0
   -0.6593   -1.2845    0.3661 C   0  0  0  0  0  0  0  0  0  4  0  0
    1.0691    0.5292    0.5269 C   0  0  0  0  0  0  0  0  0  5  0  0
    2.0168    0.9794    1.1266 C   0  0  0  0  0  0  0  0  0  6  0  0
   -1.3415    1.5561   -3.1769 H   0  0  0  0  0  0  0  0  0  7  0  0
   -1.7166   -1.3186    0.1054 H   0  0  0  0  0  0  0  0  0  8  0  0
   -0.1742   -2.1550   -0.0865 H   0  0  0  0  0  0  0  0  0  9  0  0
   -0.5505   -1.3663    1.4470 H   0  0  0  0  0  0  0  0  0 10  0  0
    2.8514    1.3842    1.6465 H   0  0  0  0  0  0  0  0  0 11  0  0
  1  7  1  0
  1  2  1  0
  2  3  1  0
  3  4  1  0
  3  5  1  0
  4  8  1  0
  4  9  1  0
  4 10  1  0
  5  6  1  0
  6 11  1  0
M  RAD  1   3   2
M  END
>  <rmg_smiles>  (5) 
[CH]C[C](C)C[CH]

>  <rmg_adjacency_list>  (5) 
multiplicity 2
1  C u0 p0 c0 {2,S} {7,S} {8,S} {9,S}
2  C u1 p0 c0 {1,S} {3,S} {4,S}
3  C u0 p1 c0 {2,S} {5,S}
4  C u0 p1 c0 {2,S} {6,S}
5  C u0 p1 c0 {3,S} {10,S}
6  C u0 p1 c0 {4,S} {11,S}
7  H u0 p0 c0 {1,S}
8  H u0 p0 c0 {1,S}
9  H u0 p0 c0 {1,S}
10 H u0 p0 c0 {5,S}
11 H u0 p0 c0 {6,S}


>  <multiplicity>  (5) 
2

>  <reaction>  (5) 
rxn_965

>  <type>  (5) 
r2

>  <role_mapnums>  (5) 
{}

>  <role_mapidx>  (5) 
{}

>  <ordered_mapped_smiles>  (5) 
[CH2:1]([CH2:2][C:3]([C:4]([H:8])([H:9])[H:10])[CH2:5][CH2:6][H:11])[H:7]

>  <level_of_theory>  (5) 
wb97xd/def2tzvp

>  <lot_method>  (5) 
wb97xd

>  <lot_basis>  (5) 
def2tzvp

>  <spin_multiplicity>  (5) 
2.0

>  <optical_isomers>  (5) 
1.0

>  <modes>  (5) 
IdealGasTranslation(mass=(77.0391, 'amu')),         NonlinearRotor(             inertia = ([87.0558, 182.116, 266.037

>  <frequency_value>  (5) 
unknown

>  <frequency_units>  (5) 
unknown

>  <frequency_list>  (5) 
unknown

>  <arkane_path>  (5) 
/home/calvin/Dropbox/PersonalFolders/Calvin/HAb_Converged/rxn_965/output/Species/rxn_965_CtC[C][C]CtC/arkane/output.py

>  <path_exists>  (5) 
True

>  <E0_value>  (5) 
-607514.9395077111

>  <E0_units>  (5) 
kJ/mol

>  <thermo_class>  (5) 
NASA

>  <Cp0_value>  (5) 
33.257888

>  <Cp0_units>  (5) 
J/(mol*K)

>  <CpInf_value>  (5) 
257.748632

>  <CpInf_units>  (5) 
J/(mol*K)

>  <Tmin_value>  (5) 
10.0

>  <Tmin_units>  (5) 
K

>  <Tmax_value>  (5) 
3000.0

>  <Tmax_units>  (5) 
K

>  <polynomials>  (5) 
[{"name": "polynomial1", "class": "NASAPolynomial", "Tmin_value": 10.0, "Tmin_units": "K", "Tmax_value": 349.46173600351864, "Tmax_units": "K", "coeffs": [3.766270434672447, 0.01962559465306403, 0.00015807938455067891, -5.467775010691105e-07, 5.441205279863145e-10, -73067173.52596356, 12.15378396539221]}, {"name": "polynomial2", "class": "NASAPolynomial", "Tmin_value": 349.46173600351864, "Tmin_units": "K", "Tmax_value": 3000.0, "Tmax_units": "K", "coeffs": [4.503025724813377, 0.03655999643186892, -2.3493426390627616e-05, 7.3276612126098215e-09, -8.780851036309253e-13, -73067379.9175016, 7.157724853906072]}]

>  <H298_value>  (5) 
-145194.46313324326

>  <H298_units>  (5) 
kcal/mol

>  <S298_value>  (5) 
84.90850212036293

>  <S298_units>  (5) 
cal/(mol*K)

>  <Cp_T_value_list>  (5) 
[26.877916196478143, 31.4268111749371, 35.31413934636125, 38.6518919246016, 43.93182763476164, 47.731054497646795, 53.19426248781607, 56.08143371701518, 57.80726761952239]

>  <Cp_T_units>  (5) 
cal/(mol*K)

>  <T_list>  (5) 
[300.0, 400.0, 500.0, 600.0, 800.0, 1000.0, 1500.0, 2000.0, 2400.0]

>  <T_units>  (5) 
K

>  <yaml_path>  (5) 
/home/calvin/Dropbox/PersonalFolders/Calvin/HAb_Converged/rxn_965/output/Species/rxn_965_CtC[C][C]CtC/rxn_965_CtCCCCtC.yml

>  <frequencies_cm1>  (5) 
[29.02674694764, 135.43068448103998, 196.03869691536002, 226.34270313252, 381.02154746552, 485.94221616979996, 534.67721098584, 574.6774004748399, 575.94779275904, 598.55390843248, 680.22296484324, 681.74056859896, 705.74754927768, 980.1110807529599, 1012.7155270523198, 1219.2332435659998, 1286.1314145534398, 1393.02290804456, 1464.30221566616, 1471.2447378246798, 2036.0405464240396, 2119.5911568124798, 3006.0502917712797, 3079.4034289595193, 3119.3280816099996, 3427.5321167422394, 3431.14415102056]

>  <ZPE_kJmol>  (5) 
208.4566530536649

>  <E_elec_kJmol>  (5) 
-607723.3961607647

>  <E0_minus_Eelec_plus_ZPE_kJmol>  (5) 
0.0

>  <rxn>  (5) 
rxn_965

>  <species_type>  (5) 
r0

>  <species_folder>  (5) 
rxn_965_CtC[C][C]CtC

>  <frequencies_cm1_list>  (5) 
[29.02674694764, 135.43068448103998, 196.03869691536002, 226.34270313252, 381.02154746552, 485.94221616979996, 534.67721098584, 574.6774004748399, 575.94779275904, 598.55390843248, 680.22296484324, 681.74056859896, 705.74754927768, 980.1110807529599, 1012.7155270523198, 1219.2332435659998, 1286.1314145534398, 1393.02290804456, 1464.30221566616, 1471.2447378246798, 2036.0405464240396, 2119.5911568124798, 3006.0502917712797, 3079.4034289595193, 3119.3280816099996, 3427.5321167422394, 3431.14415102056]

>  <E0_kJmol>  (5) 
-607515

>  <H298_kJmol>  (5) 
-607494

$$$$
