
     RDKit          3D

 25 26  0  0  0  0  0  0  0  0999 V2000
   -1.1674   -1.6530   -1.1967 C   0  0  0  0  0  0  0  0  0  1  0  0
   -1.7750   -1.5226    0.2024 C   0  0  0  0  0  0  0  0  0  2  0  0
   -0.7597   -1.0265    1.2363 C   0  0  0  0  0  0  0  0  0  3  0  0
   -0.1283    0.2650    0.7501 C   0  0  0  0  0  0  0  0  0  4  0  0
    0.9923    0.9027    1.5625 C   0  0  0  0  0  0  0  0  0  5  0  0
    1.5928    1.9002    0.5769 C   0  0  0  0  0  0  0  0  0  6  0  0
    1.2616    1.4120   -0.8385 C   0  0  0  0  0  0  0  0  0  7  0  0
    0.5225    0.0878   -0.6218 C   0  0  0  0  0  0  0  0  0  8  0  0
   -0.4886   -0.3613   -1.6618 C   0  0  0  0  0  0  0  0  0  9  0  0
   -0.4236   -2.4575   -1.1879 H   0  0  0  0  0  0  0  0  0 10  0  0
   -1.9398   -1.9517   -1.9090 H   0  0  0  0  0  0  0  0  0 11  0  0
   -2.6102   -0.8144    0.1629 H   0  0  0  0  0  0  0  0  0 12  0  0
   -2.1948   -2.4815    0.5146 H   0  0  0  0  0  0  0  0  0 13  0  0
   -1.2446   -0.8879    2.2063 H   0  0  0  0  0  0  0  0  0 14  0  0
    0.0241   -1.7802    1.3770 H   0  0  0  0  0  0  0  0  0 15  0  0
   -0.9263    1.0140    0.6359 H   0  0  0  0  0  0  0  0  0 16  0  0
    0.6480    1.3750    2.4857 H   0  0  0  0  0  0  0  0  0 17  0  0
    1.7269    0.1392    1.8452 H   0  0  0  0  0  0  0  0  0 18  0  0
    1.0350    2.8223    0.7283 H   0  0  0  0  0  0  0  0  0 19  0  0
    2.6271    2.1853    0.7591 H   0  0  0  0  0  0  0  0  0 20  0  0
    2.1492    1.2986   -1.4630 H   0  0  0  0  0  0  0  0  0 21  0  0
    0.6044    2.1277   -1.3448 H   0  0  0  0  0  0  0  0  0 22  0  0
    1.2730   -0.7082   -0.5154 H   0  0  0  0  0  0  0  0  0 23  0  0
   -0.0125   -0.5135   -2.6340 H   0  0  0  0  0  0  0  0  0 24  0  0
   -1.2397    0.4260   -1.7953 H   0  0  0  0  0  0  0  0  0 25  0  0
  1 11  1  0
  1 10  1  0
  1  9  1  0
  1  2  1  0
  2 12  1  0
  2 13  1  0
  2  3  1  0
  3 15  1  0
  3  4  1  0
  3 14  1  0
  4  5  1  0
  4  8  1  0
  4 16  1  0
  5 18  1  0
  5 17  1  0
  5  6  1  0
  6  7  1  0
  6 19  1  0
  6 20  1  0
  7 21  1  0
  7  8  1  0
  7 22  1  0
  8 23  1  0
  8  9  1  0
  9 24  1  0
  9 25  1  0
M  END
>  <rmg_smiles>  (1) 
C1CCC2CCCC2C1

>  <rmg_adjacency_list>  (1) 
1  C u0 p0 c0 {2,S} {3,S} {4,S} {10,S}
2  C u0 p0 c0 {1,S} {5,S} {6,S} {11,S}
3  C u0 p0 c0 {1,S} {8,S} {16,S} {17,S}
4  C u0 p0 c0 {1,S} {9,S} {18,S} {19,S}
5  C u0 p0 c0 {2,S} {9,S} {22,S} {23,S}
6  C u0 p0 c0 {2,S} {7,S} {24,S} {25,S}
7  C u0 p0 c0 {6,S} {8,S} {12,S} {13,S}
8  C u0 p0 c0 {3,S} {7,S} {14,S} {15,S}
9  C u0 p0 c0 {4,S} {5,S} {20,S} {21,S}
10 H u0 p0 c0 {1,S}
11 H u0 p0 c0 {2,S}
12 H u0 p0 c0 {7,S}
13 H u0 p0 c0 {7,S}
14 H u0 p0 c0 {8,S}
15 H u0 p0 c0 {8,S}
16 H u0 p0 c0 {3,S}
17 H u0 p0 c0 {3,S}
18 H u0 p0 c0 {4,S}
19 H u0 p0 c0 {4,S}
20 H u0 p0 c0 {9,S}
21 H u0 p0 c0 {9,S}
22 H u0 p0 c0 {5,S}
23 H u0 p0 c0 {5,S}
24 H u0 p0 c0 {6,S}
25 H u0 p0 c0 {6,S}


>  <multiplicity>  (1) 
1

>  <reaction>  (1) 
rxn_617

>  <type>  (1) 
r1h

>  <role_mapnums>  (1) 
{"r1h_a": 6, "r1h_h": 19}

>  <role_mapidx>  (1) 
{"r1h_a": 5, "r1h_h": 18}

>  <ordered_mapped_smiles>  (1) 
[C:1]1([H:10])([H:11])[C:2]([H:12])([H:13])[C:3]([H:14])([H:15])[C:4]2([H:16])[C:5]([H:17])([H:18])[C:6]([H:19])([H:20])[C:7]([H:21])([H:22])[C:8]2([H:23])[C:9]1([H:24])[H:25]

>  <mol_properties>  (1) 
{"5": {"label": "donator", "atom_type": "Cs"}, "18": {"label": "d_hydrogen", "atom_type": "H0"}}

>  <level_of_theory>  (1) 
wb97xd/def2tzvp

>  <lot_method>  (1) 
wb97xd

>  <lot_basis>  (1) 
def2tzvp

>  <spin_multiplicity>  (1) 
1.0

>  <optical_isomers>  (1) 
2.0

>  <modes>  (1) 
IdealGasTranslation(mass=(124.125, 'amu')),         NonlinearRotor(             inertia = ([170.024, 375.242, 505.424

>  <frequency_value>  (1) 
unknown

>  <frequency_units>  (1) 
unknown

>  <frequency_list>  (1) 
unknown

>  <arkane_path>  (1) 
/home/calvin/Dropbox/PersonalFolders/Calvin/HAb_Converged/rxn_617/output/Species/rxn_617_C1CCC2CCCC2C1/arkane/output.py

>  <path_exists>  (1) 
True

>  <E0_value>  (1) 
-925233.0049241188

>  <E0_units>  (1) 
kJ/mol

>  <thermo_class>  (1) 
NASA

>  <Cp0_value>  (1) 
33.257888

>  <Cp0_units>  (1) 
J/(mol*K)

>  <CpInf_value>  (1) 
606.956456

>  <CpInf_units>  (1) 
J/(mol*K)

>  <Tmin_value>  (1) 
10.0

>  <Tmin_units>  (1) 
K

>  <Tmax_value>  (1) 
3000.0

>  <Tmax_units>  (1) 
K

>  <polynomials>  (1) 
[{"name": "polynomial1", "class": "NASAPolynomial", "Tmin_value": 10.0, "Tmin_units": "K", "Tmax_value": 492.86414085374884, "Tmax_units": "K", "coeffs": [4.007994789865864, -0.0014434969438387518, 0.0002774235318770471, -4.47143959124011e-07, 2.345687014006794e-10, -111279824.80461533, 12.742603075803766]}, {"name": "polynomial2", "class": "NASAPolynomial", "Tmin_value": 492.86414085374884, "Tmin_units": "K", "Tmax_value": 3000.0, "Tmax_units": "K", "coeffs": [-9.95853370242537, 0.11191389639895702, -6.759505783925652e-05, 1.9571966588871765e-08, -2.183492026273649e-12, -111278448.17509678, 70.24048730977755]}]

>  <H298_value>  (1) 
-221130.41480672767

>  <H298_units>  (1) 
kcal/mol

>  <S298_value>  (1) 
87.40258332007863

>  <S298_units>  (1) 
cal/(mol*K)

>  <Cp_T_value_list>  (1) 
[36.50534740058796, 50.089738669944325, 62.417515537946755, 73.12949241055418, 90.29515590280347, 102.83551087971135, 120.87161605712708, 129.42454969138163, 133.951878152645]

>  <Cp_T_units>  (1) 
cal/(mol*K)

>  <T_list>  (1) 
[300.0, 400.0, 500.0, 600.0, 800.0, 1000.0, 1500.0, 2000.0, 2400.0]

>  <T_units>  (1) 
K

>  <yaml_path>  (1) 
/home/calvin/Dropbox/PersonalFolders/Calvin/HAb_Converged/rxn_617/output/Species/rxn_617_C1CCC2CCCC2C1/rxn_617_C1CCC2CCCC2C1.yml

>  <frequencies_cm1>  (1) 
[79.74630052116, 161.44969185852, 192.46099756363998, 319.95344701476, 325.08995203411996, 337.32691987436, 425.16252910247994, 470.50523317043996, 497.06673238819997, 579.3538174777599, 623.59780389452, 769.3495673115199, 782.1839628746, 837.42199278868, 848.74565158136, 873.0204446875598, 907.5545138618398, 921.7142375916799, 922.5451428153999, 945.43967187228, 987.1978096031999, 1015.3867843418, 1044.03584709684, 1066.28487953364, 1072.4857672776, 1096.98030391404, 1116.2696656779199, 1122.75209982, 1142.3985448205199, 1202.0657802659998, 1207.82031396416, 1217.5508321625998, 1256.61711164808, 1262.63945777372, 1284.5314069738797, 1286.2687542598399, 1313.97704002604, 1316.9847795961998, 1320.6311488011202, 1339.9411115209598, 1339.9754464475598, 1365.2322184545199, 1368.74811493836, 1376.8580246012798, 1398.55083122716, 1401.5036349147601, 1472.50826312356, 1476.82072990452, 1478.06365424744, 1478.81215564732, 1486.92206531024, 1491.0628574582, 1506.3831017071197, 2950.4551786205598, 2962.34193020948, 2991.31374127456, 2991.7532283350397, 2996.8759993837602, 3001.07172741428, 3015.06664349644, 3015.65720423396, 3043.90798184044, 3044.3474689009204, 3044.821290888, 3053.3088847435192, 3057.07199269888, 3062.7784574998, 3072.117557535, 3090.8781614292393]

>  <ZPE_kJmol>  (1) 
613.2521071062491

>  <E_elec_kJmol>  (1) 
-925846.257031225

>  <E0_minus_Eelec_plus_ZPE_kJmol>  (1) 
0.0

>  <rxn>  (1) 
rxn_617

>  <species_type>  (1) 
r1

>  <species_folder>  (1) 
rxn_617_C1CCC2CCCC2C1

>  <frequencies_cm1_list>  (1) 
[79.74630052116, 161.44969185852, 192.46099756363998, 319.95344701476, 325.08995203411996, 337.32691987436, 425.16252910247994, 470.50523317043996, 497.06673238819997, 579.3538174777599, 623.59780389452, 769.3495673115199, 782.1839628746, 837.42199278868, 848.74565158136, 873.0204446875598, 907.5545138618398, 921.7142375916799, 922.5451428153999, 945.43967187228, 987.1978096031999, 1015.3867843418, 1044.03584709684, 1066.28487953364, 1072.4857672776, 1096.98030391404, 1116.2696656779199, 1122.75209982, 1142.3985448205199, 1202.0657802659998, 1207.82031396416, 1217.5508321625998, 1256.61711164808, 1262.63945777372, 1284.5314069738797, 1286.2687542598399, 1313.97704002604, 1316.9847795961998, 1320.6311488011202, 1339.9411115209598, 1339.9754464475598, 1365.2322184545199, 1368.74811493836, 1376.8580246012798, 1398.55083122716, 1401.5036349147601, 1472.50826312356, 1476.82072990452, 1478.06365424744, 1478.81215564732, 1486.92206531024, 1491.0628574582, 1506.3831017071197, 2950.4551786205598, 2962.34193020948, 2991.31374127456, 2991.7532283350397, 2996.8759993837602, 3001.07172741428, 3015.06664349644, 3015.65720423396, 3043.90798184044, 3044.3474689009204, 3044.821290888, 3053.3088847435192, 3057.07199269888, 3062.7784574998, 3072.117557535, 3090.8781614292393]

>  <E0_kJmol>  (1) 
-925233

>  <H298_kJmol>  (1) 
-925210

$$$$

     RDKit          3D

  9  8  0  0  0  0  0  0  0  0999 V2000
    0.3757    0.6430   -1.0532 C   0  0  0  0  0  0  0  0  0  1  0  0
    0.2811   -0.2621   -0.1050 C   0  0  0  0  0  0  0  0  0  2  0  0
   -0.6099   -0.3455    1.0753 C   0  0  0  0  0  0  0  0  0  3  0  0
   -0.2598    1.5279   -1.0654 H   0  0  0  0  0  0  0  0  0  4  0  0
    1.0926    0.5473   -1.8620 H   0  0  0  0  0  0  0  0  0  5  0  0
   -0.0295   -0.3697    2.0007 H   0  0  0  0  0  0  0  0  0  6  0  0
   -1.2941    0.5081    1.1211 H   0  0  0  0  0  0  0  0  0  7  0  0
   -1.2058   -1.2615    1.0469 H   0  0  0  0  0  0  0  0  0  8  0  0
    0.9431   -1.1205   -0.2198 H   0  0  0  0  0  0  0  0  0  9  0  0
  1  5  1  0
  1  4  1  0
  1  2  1  0
  2  9  1  0
  2  3  1  0
  3  6  1  0
  3  7  1  0
  3  8  1  0
M  END
>  <rmg_smiles>  (2) 
[CH2][CH]C

>  <rmg_adjacency_list>  (2) 
1 C u0 p0 c0 {2,S} {4,S} {5,S} {6,S}
2 C u0 p0 c0 {1,S} {3,S} {7,S}
3 C u0 p0 c0 {2,S} {8,S} {9,S}
4 H u0 p0 c0 {1,S}
5 H u0 p0 c0 {1,S}
6 H u0 p0 c0 {1,S}
7 H u0 p0 c0 {2,S}
8 H u0 p0 c0 {3,S}
9 H u0 p0 c0 {3,S}


>  <multiplicity>  (2) 
1

>  <reaction>  (2) 
rxn_617

>  <type>  (2) 
r2h

>  <role_mapnums>  (2) 
{"r2h_a": 2, "r2h_h": 9}

>  <role_mapidx>  (2) 
{"r2h_a": 1, "r2h_h": 8}

>  <ordered_mapped_smiles>  (2) 
[CH:1]([CH:2]([C:3]([H:6])([H:7])[H:8])[H:9])([H:4])[H:5]

>  <mol_properties>  (2) 
{"1": {"label": "acceptor", "atom_type": "Cs"}, "8": {"label": "a_hydrogen", "atom_type": "H0"}}

>  <level_of_theory>  (2) 
wb97xd/def2tzvp

>  <lot_method>  (2) 
wb97xd

>  <lot_basis>  (2) 
def2tzvp

>  <spin_multiplicity>  (2) 
1.0

>  <optical_isomers>  (2) 
1.0

>  <modes>  (2) 
IdealGasTranslation(mass=(42.047, 'amu')),         NonlinearRotor(             inertia = ([10.7194, 53.9495, 61.5633

>  <frequency_value>  (2) 
unknown

>  <frequency_units>  (2) 
unknown

>  <frequency_list>  (2) 
unknown

>  <arkane_path>  (2) 
/home/calvin/Dropbox/PersonalFolders/Calvin/HAb_Converged/rxn_617/output/Species/rxn_617_C=CC/arkane/output.py

>  <path_exists>  (2) 
True

>  <E0_value>  (2) 
-309367.8832800635

>  <E0_units>  (2) 
kJ/mol

>  <thermo_class>  (2) 
NASA

>  <Cp0_value>  (2) 
33.257888

>  <Cp0_units>  (2) 
J/(mol*K)

>  <CpInf_value>  (2) 
207.8618

>  <CpInf_units>  (2) 
J/(mol*K)

>  <Tmin_value>  (2) 
10.0

>  <Tmin_units>  (2) 
K

>  <Tmax_value>  (2) 
3000.0

>  <Tmax_units>  (2) 
K

>  <polynomials>  (2) 
[{"name": "polynomial1", "class": "NASAPolynomial", "Tmin_value": 10.0, "Tmin_units": "K", "Tmax_value": 531.9066404514887, "Tmax_units": "K", "coeffs": [4.0204367106395305, -0.0017312814973888466, 7.469369070858841e-05, -1.103989586823944e-07, 5.357411953540602e-11, -37208361.619619094, 6.984063163619424]}, {"name": "polynomial2", "class": "NASAPolynomial", "Tmin_value": 531.9066404514887, "Tmin_units": "K", "Tmax_value": 3000.0, "Tmax_units": "K", "coeffs": [-0.30746978474152303, 0.03081497539241948, -1.7087881859194207e-05, 4.635359552359225e-09, -4.926745989402899e-13, -37207901.209693715, 25.131571818199003]}]

>  <H298_value>  (2) 
-73937.54315081466

>  <H298_units>  (2) 
kcal/mol

>  <S298_value>  (2) 
63.235428095961645

>  <S298_units>  (2) 
cal/(mol*K)

>  <Cp_T_value_list>  (2) 
[15.255114438428619, 19.0471333221202, 22.6079143488244, 25.768633340780376, 30.96022164704354, 34.89993402421754, 40.97109580318192, 44.05842766532305, 45.61775865339882]

>  <Cp_T_units>  (2) 
cal/(mol*K)

>  <T_list>  (2) 
[300.0, 400.0, 500.0, 600.0, 800.0, 1000.0, 1500.0, 2000.0, 2400.0]

>  <T_units>  (2) 
K

>  <yaml_path>  (2) 
/home/calvin/Dropbox/PersonalFolders/Calvin/HAb_Converged/rxn_617/output/Species/rxn_617_C=CC/rxn_617_C=CC.yml

>  <frequencies_cm1>  (2) 
[200.92112347787997, 429.72220735495995, 590.1693193567598, 925.5460154002399, 944.49202789812, 949.7315376972799, 1024.05291981564, 1068.7501272635197, 1186.76613697304, 1322.2792252779197, 1396.37399688072, 1440.26090006084, 1466.0326959668, 1481.02332492036, 1720.5094379553598, 3007.2932161142003, 3065.80679802592, 3091.5648599612396, 3111.3280437122, 3123.2628641983597, 3201.2855514042]

>  <ZPE_kJmol>  (2) 
207.8343042708976

>  <E_elec_kJmol>  (2) 
-309575.71758433443

>  <E0_minus_Eelec_plus_ZPE_kJmol>  (2) 
0.0

>  <rxn>  (2) 
rxn_617

>  <species_type>  (2) 
p0

>  <species_folder>  (2) 
rxn_617_C=CC

>  <frequencies_cm1_list>  (2) 
[200.92112347787997, 429.72220735495995, 590.1693193567598, 925.5460154002399, 944.49202789812, 949.7315376972799, 1024.05291981564, 1068.7501272635197, 1186.76613697304, 1322.2792252779197, 1396.37399688072, 1440.26090006084, 1466.0326959668, 1481.02332492036, 1720.5094379553598, 3007.2932161142003, 3065.80679802592, 3091.5648599612396, 3111.3280437122, 3123.2628641983597, 3201.2855514042]

>  <E0_kJmol>  (2) 
-309368

>  <H298_kJmol>  (2) 
-309355

$$$$

     RDKit          3D

 33 33  0  0  0  0  0  0  0  0999 V2000
    0.2687    3.9317   -0.3452 C   0  0  0  0  0  0  0  0  0  1  0  0
    0.1741    3.0265    0.6031 C   0  0  0  0  0  3  0  0  0  2  0  0
   -0.7169    2.9431    1.7833 C   0  0  0  0  0  0  0  0  0  3  0  0
   -0.3668    4.8166   -0.3574 H   0  0  0  0  0  0  0  0  0  4  0  0
    0.9856    3.8359   -1.1539 H   0  0  0  0  0  0  0  0  0  5  0  0
   -0.1365    2.9190    2.7088 H   0  0  0  0  0  0  0  0  0  6  0  0
   -1.4011    3.7968    1.8291 H   0  0  0  0  0  0  0  0  0  7  0  0
   -1.3128    2.0271    1.7550 H   0  0  0  0  0  0  0  0  0  8  0  0
   -1.0765   -2.7168   -1.4963 C   0  0  0  0  0  0  0  0  0  9  0  0
   -1.6841   -2.5864   -0.0973 C   0  0  0  0  0  0  0  0  0 10  0  0
   -0.6688   -2.0903    0.9367 C   0  0  0  0  0  0  0  0  0 11  0  0
   -0.0374   -0.7988    0.4505 C   0  0  0  0  0  0  0  0  0 12  0  0
    1.0833   -0.1611    1.2629 C   0  0  0  0  0  0  0  0  0 13  0  0
    1.6837    0.8364    0.2773 C   0  0  0  0  0  0  0  0  0 14  0  0
    1.3525    0.3482   -1.1381 C   0  0  0  0  0  0  0  0  0 15  0  0
    0.6135   -0.9759   -0.9215 C   0  0  0  0  0  0  0  0  0 16  0  0
   -0.3976   -1.4251   -1.9614 C   0  0  0  0  0  0  0  0  0 17  0  0
   -0.3327   -3.5213   -1.4875 H   0  0  0  0  0  0  0  0  0 18  0  0
   -1.8489   -3.0155   -2.2086 H   0  0  0  0  0  0  0  0  0 19  0  0
   -2.5193   -1.8782   -0.1367 H   0  0  0  0  0  0  0  0  0 20  0  0
   -2.1039   -3.5453    0.2150 H   0  0  0  0  0  0  0  0  0 21  0  0
   -1.1536   -1.9517    1.9067 H   0  0  0  0  0  0  0  0  0 22  0  0
    0.1150   -2.8439    1.0774 H   0  0  0  0  0  0  0  0  0 23  0  0
   -0.8354   -0.0498    0.3363 H   0  0  0  0  0  0  0  0  0 24  0  0
    0.7389    0.3112    2.1861 H   0  0  0  0  0  0  0  0  0 25  0  0
    1.8178   -0.9245    1.5456 H   0  0  0  0  0  0  0  0  0 26  0  0
    1.0310    1.9154    0.4544 H   0  0  0  0  0  0  0  0  0 27  0  0
    2.7181    1.1216    0.4594 H   0  0  0  0  0  0  0  0  0 28  0  0
    2.2402    0.2349   -1.7626 H   0  0  0  0  0  0  0  0  0 29  0  0
    0.6953    1.0640   -1.6444 H   0  0  0  0  0  0  0  0  0 30  0  0
    1.3639   -1.7719   -0.8150 H   0  0  0  0  0  0  0  0  0 31  0  0
    0.0784   -1.5773   -2.9336 H   0  0  0  0  0  0  0  0  0 32  0  0
   -1.1488   -0.6378   -2.0949 H   0  0  0  0  0  0  0  0  0 33  0  0
  1  4  1  0
  1  5  1  0
  1  2  1  0
  2  3  1  0
  3  6  1  0
  3  8  1  0
  3  7  1  0
  9 18  1  0
  9 10  1  0
  9 19  1  0
  9 17  1  0
 10 21  1  0
 10 11  1  0
 10 20  1  0
 11 12  1  0
 11 22  1  0
 11 23  1  0
 12 24  1  0
 12 16  1  0
 12 13  1  0
 13 26  1  0
 13 25  1  0
 13 14  1  0
 14 28  1  0
 14 15  1  0
 14 27  1  0
 15 29  1  0
 15 30  1  0
 15 16  1  0
 16 31  1  0
 16 17  1  0
 17 32  1  0
 17 33  1  0
M  RAD  1   2   2
M  END
>  <rmg_smiles>  (3) 
C1CCC2CCCC2C1.[CH2][C]C

>  <rmg_adjacency_list>  (3) 
multiplicity 2
1  C u0 p0 c0 {2,S} {3,S} {4,S} {13,S}
2  C u0 p0 c0 {1,S} {5,S} {6,S} {14,S}
3  C u0 p0 c0 {1,S} {8,S} {19,S} {20,S}
4  C u0 p0 c0 {1,S} {9,S} {21,S} {22,S}
5  C u0 p0 c0 {2,S} {9,S} {25,S} {26,S}
6  C u0 p0 c0 {2,S} {7,S} {27,S} {28,S}
7  C u0 p0 c0 {6,S} {8,S} {15,S} {16,S}
8  C u0 p0 c0 {3,S} {7,S} {17,S} {18,S}
9  C u0 p0 c0 {4,S} {5,S} {23,S} {24,S}
10 C u0 p0 c0 {12,S} {29,S} {30,S} {31,S}
11 C u0 p0 c0 {12,S} {32,S} {33,S}
12 C u1 p1 c0 {10,S} {11,S}
13 H u0 p0 c0 {1,S}
14 H u0 p0 c0 {2,S}
15 H u0 p0 c0 {7,S}
16 H u0 p0 c0 {7,S}
17 H u0 p0 c0 {8,S}
18 H u0 p0 c0 {8,S}
19 H u0 p0 c0 {3,S}
20 H u0 p0 c0 {3,S}
21 H u0 p0 c0 {4,S}
22 H u0 p0 c0 {4,S}
23 H u0 p0 c0 {9,S}
24 H u0 p0 c0 {9,S}
25 H u0 p0 c0 {5,S}
26 H u0 p0 c0 {5,S}
27 H u0 p0 c0 {6,S}
28 H u0 p0 c0 {6,S}
29 H u0 p0 c0 {10,S}
30 H u0 p0 c0 {10,S}
31 H u0 p0 c0 {10,S}
32 H u0 p0 c0 {11,S}
33 H u0 p0 c0 {11,S}


>  <multiplicity>  (3) 
2

>  <reaction>  (3) 
rxn_617

>  <type>  (3) 
ts

>  <role_mapnums>  (3) 
{"*2": 27, "*1": 14, "*3": 2, "*0": 13, "*4": 1}

>  <role_mapidx>  (3) 
{"*2": 26, "*1": 13, "*3": 1, "*0": 12, "*4": 0}

>  <ordered_mapped_smiles>  (3) 
[CH:1]([CH:2][C:3]([H:6])([H:7])[H:8])([H:4])[H:5].[C:9]1([H:18])([H:19])[C:10]([H:20])([H:21])[C:11]([H:22])([H:23])[C:12]2([H:24])[C:13]([H:25])([H:26])[C:14]([H:27])([H:28])[C:15]([H:29])([H:30])[C:16]2([H:31])[C:17]1([H:32])[H:33]

>  <mol_properties>  (3) 
{"0": {"label": "*4", "atom_type": "Cs"}, "1": {"label": "*3", "atom_type": "C2s"}, "12": {"label": "*0", "atom_type": "Cs"}, "13": {"label": "*1", "atom_type": "Cs"}, "26": {"label": "*2", "atom_type": "H0"}}

>  <level_of_theory>  (3) 
wb97xd/def2tzvp

>  <lot_method>  (3) 
wb97xd

>  <lot_basis>  (3) 
def2tzvp

>  <spin_multiplicity>  (3) 
2.0

>  <optical_isomers>  (3) 
2.0

>  <modes>  (3) 
IdealGasTranslation(mass=(165.164, 'amu')),         NonlinearRotor(             inertia = ([344.66, 1004.71, 1075.41

>  <frequency_value>  (3) 
-1553.12

>  <frequency_units>  (3) 
cm^-1

>  <frequency_list>  (3) 
unknown

>  <arkane_path>  (3) 
/home/calvin/Dropbox/PersonalFolders/Calvin/HAb_Converged/rxn_617/output/rxns/TS0/arkane/output.py

>  <path_exists>  (3) 
True

>  <E0_value>  (3) 
-1232820.0

>  <E0_units>  (3) 
kJ/mol

>  <thermo_class>  (3) 
unknown

>  <Cp0_value>  (3) 
unknown

>  <Cp0_units>  (3) 
unknown

>  <CpInf_value>  (3) 
unknown

>  <CpInf_units>  (3) 
unknown

>  <Tmin_value>  (3) 
unknown

>  <Tmin_units>  (3) 
unknown

>  <Tmax_value>  (3) 
unknown

>  <Tmax_units>  (3) 
unknown

>  <polynomials>  (3) 
unknown

>  <H298_value>  (3) 
unknown

>  <H298_units>  (3) 
unknown

>  <S298_value>  (3) 
unknown

>  <S298_units>  (3) 
unknown

>  <Cp_T_value_list>  (3) 
unknown

>  <Cp_T_units>  (3) 
unknown

>  <T_list>  (3) 
unknown

>  <T_units>  (3) 
unknown

>  <yaml_path>  (3) 
unknown

>  <frequencies_cm1>  (3) 
unknown

>  <ZPE_kJmol>  (3) 
unknown

>  <E_elec_kJmol>  (3) 
unknown

>  <E0_minus_Eelec_plus_ZPE_kJmol>  (3) 
unknown

>  <rxn>  (3) 
unknown

>  <species_type>  (3) 
unknown

>  <species_folder>  (3) 
unknown

>  <frequencies_cm1_list>  (3) 
[]

>  <ts_imag_freq_cm1>  (3) 
-1571.9801

>  <ts_freq_out_path>  (3) 
/home/calvin/Dropbox/PersonalFolders/Calvin/HAb_Converged/rxn_617/output/rxns/TS0/geometry/freq.out

>  <E0_kJmol>  (3) 
-1.23282e+06

>  <H298_kJmol>  (3) 
unknown

$$$$

     RDKit          3D

 24 25  0  0  0  0  0  0  0  0999 V2000
   -2.3462    0.0587    0.4026 C   0  0  0  0  0  3  0  0  0  1  0  0
   -1.9216   -0.8977   -0.6619 C   0  0  0  0  0  0  0  0  0  2  0  0
   -0.4224   -0.6048   -0.8347 C   0  0  0  0  0  0  0  0  0  3  0  0
    0.4246   -1.4411    0.1277 C   0  0  0  0  0  0  0  0  0  4  0  0
    1.8615   -0.9403    0.2199 C   0  0  0  0  0  0  0  0  0  5  0  0
    1.8962    0.5175    0.6671 C   0  0  0  0  0  0  0  0  0  6  0  0
    1.1011    1.4007   -0.2911 C   0  0  0  0  0  0  0  0  0  7  0  0
   -0.3231    0.9028   -0.5260 C   0  0  0  0  0  0  0  0  0  8  0  0
   -1.3110    1.1041    0.6384 C   0  0  0  0  0  0  0  0  0  9  0  0
   -3.2900    0.0057    0.9268 H   0  0  0  0  0  0  0  0  0 10  0  0
   -2.1170   -1.9442   -0.4050 H   0  0  0  0  0  0  0  0  0 11  0  0
   -2.4616   -0.7093   -1.6016 H   0  0  0  0  0  0  0  0  0 12  0  0
   -0.0868   -0.8050   -1.8562 H   0  0  0  0  0  0  0  0  0 13  0  0
   -0.0273   -1.4106    1.1258 H   0  0  0  0  0  0  0  0  0 14  0  0
    0.4005   -2.4873   -0.1884 H   0  0  0  0  0  0  0  0  0 15  0  0
    2.4341   -1.5641    0.9101 H   0  0  0  0  0  0  0  0  0 16  0  0
    2.3441   -1.0297   -0.7603 H   0  0  0  0  0  0  0  0  0 17  0  0
    1.4821    0.5910    1.6781 H   0  0  0  0  0  0  0  0  0 18  0  0
    2.9265    0.8752    0.7283 H   0  0  0  0  0  0  0  0  0 19  0  0
    1.0758    2.4318    0.0723 H   0  0  0  0  0  0  0  0  0 20  0  0
    1.6246    1.4246   -1.2529 H   0  0  0  0  0  0  0  0  0 21  0  0
   -0.7335    1.4393   -1.3877 H   0  0  0  0  0  0  0  0  0 22  0  0
   -0.8124    0.9625    1.6085 H   0  0  0  0  0  0  0  0  0 23  0  0
   -1.7184    2.1202    0.6602 H   0  0  0  0  0  0  0  0  0 24  0  0
  1 10  1  0
  1  9  1  0
  1  2  1  0
  2 12  1  0
  2 11  1  0
  2  3  1  0
  3  4  1  0
  3 13  1  0
  3  8  1  0
  4 14  1  0
  4  5  1  0
  4 15  1  0
  5 16  1  0
  5 17  1  0
  5  6  1  0
  6  7  1  0
  6 19  1  0
  6 18  1  0
  7 20  1  0
  7 21  1  0
  7  8  1  0
  8  9  1  0
  8 22  1  0
  9 24  1  0
  9 23  1  0
M  RAD  1   1   2
M  END
>  <rmg_smiles>  (4) 
[CH]1CC2CCCCC2C1

>  <rmg_adjacency_list>  (4) 
multiplicity 2
1  C u0 p0 c0 {2,S} {3,S} {7,S} {10,S}
2  C u0 p0 c0 {1,S} {4,S} {8,S} {11,S}
3  C u0 p0 c0 {1,S} {5,S} {12,S} {13,S}
4  C u0 p0 c0 {2,S} {6,S} {18,S} {19,S}
5  C u0 p0 c0 {3,S} {6,S} {14,S} {15,S}
6  C u0 p0 c0 {4,S} {5,S} {16,S} {17,S}
7  C u0 p0 c0 {1,S} {9,S} {20,S} {21,S}
8  C u0 p0 c0 {2,S} {9,S} {22,S} {23,S}
9  C u1 p0 c0 {7,S} {8,S} {24,S}
10 H u0 p0 c0 {1,S}
11 H u0 p0 c0 {2,S}
12 H u0 p0 c0 {3,S}
13 H u0 p0 c0 {3,S}
14 H u0 p0 c0 {5,S}
15 H u0 p0 c0 {5,S}
16 H u0 p0 c0 {6,S}
17 H u0 p0 c0 {6,S}
18 H u0 p0 c0 {4,S}
19 H u0 p0 c0 {4,S}
20 H u0 p0 c0 {7,S}
21 H u0 p0 c0 {7,S}
22 H u0 p0 c0 {8,S}
23 H u0 p0 c0 {8,S}
24 H u0 p0 c0 {9,S}


>  <multiplicity>  (4) 
2

>  <reaction>  (4) 
rxn_617

>  <type>  (4) 
r1

>  <role_mapnums>  (4) 
{}

>  <role_mapidx>  (4) 
{}

>  <ordered_mapped_smiles>  (4) 
[C:1]1([H:10])[C:2]([H:11])([H:12])[C:3]2([H:13])[C:4]([H:14])([H:15])[C:5]([H:16])([H:17])[C:6]([H:18])([H:19])[C:7]([H:20])([H:21])[C:8]2([H:22])[C:9]1([H:23])[H:24]

>  <level_of_theory>  (4) 
wb97xd/def2tzvp

>  <lot_method>  (4) 
wb97xd

>  <lot_basis>  (4) 
def2tzvp

>  <spin_multiplicity>  (4) 
2.0

>  <optical_isomers>  (4) 
2.0

>  <modes>  (4) 
IdealGasTranslation(mass=(123.117, 'amu')),         NonlinearRotor(             inertia = ([182.859, 335.738, 424.72

>  <frequency_value>  (4) 
unknown

>  <frequency_units>  (4) 
unknown

>  <frequency_list>  (4) 
unknown

>  <arkane_path>  (4) 
/home/calvin/Dropbox/PersonalFolders/Calvin/HAb_Converged/rxn_617/output/Species/rxn_617_[CH]1CC2CCCCC2C1/arkane/output.py

>  <path_exists>  (4) 
True

>  <E0_value>  (4) 
-923523.381550898

>  <E0_units>  (4) 
kJ/mol

>  <thermo_class>  (4) 
NASA

>  <Cp0_value>  (4) 
33.257888

>  <Cp0_units>  (4) 
J/(mol*K)

>  <CpInf_value>  (4) 
582.01304

>  <CpInf_units>  (4) 
J/(mol*K)

>  <Tmin_value>  (4) 
10.0

>  <Tmin_units>  (4) 
K

>  <Tmax_value>  (4) 
3000.0

>  <Tmax_units>  (4) 
K

>  <polynomials>  (4) 
[{"name": "polynomial1", "class": "NASAPolynomial", "Tmin_value": 10.0, "Tmin_units": "K", "Tmax_value": 526.4834343259283, "Tmax_units": "K", "coeffs": [3.98643894828874, -0.00023182140811730054, 0.00028231001506313013, -4.759214837969805e-07, 2.590692260082836e-10, -111074203.63386503, 13.49617432795343]}, {"name": "polynomial2", "class": "NASAPolynomial", "Tmin_value": 526.4834343259283, "Tmin_units": "K", "Tmax_value": 3000.0, "Tmax_units": "K", "coeffs": [-8.038530107035681, 0.1064091818695619, -6.505516623617582e-05, 1.906120741359288e-08, -2.1496250536372206e-12, -111073149.21835624, 61.78404410488912]}]

>  <H298_value>  (4) 
-220721.71313565032

>  <H298_units>  (4) 
kcal/mol

>  <S298_value>  (4) 
89.39628008765251

>  <S298_units>  (4) 
cal/(mol*K)

>  <Cp_T_value_list>  (4) 
[36.90913064982296, 50.15015676910796, 61.90083300801128, 71.988043048504, 88.09755552735788, 99.81155582762689, 116.55009221226358, 124.50807980477506, 128.7878327045076]

>  <Cp_T_units>  (4) 
cal/(mol*K)

>  <T_list>  (4) 
[300.0, 400.0, 500.0, 600.0, 800.0, 1000.0, 1500.0, 2000.0, 2400.0]

>  <T_units>  (4) 
K

>  <yaml_path>  (4) 
/home/calvin/Dropbox/PersonalFolders/Calvin/HAb_Converged/rxn_617/output/Species/rxn_617_[CH]1CC2CCCCC2C1/rxn_617_CH1CC2CCCCC2C1.yml

>  <frequencies_cm1>  (4) 
[146.42472797835998, 158.91577427544, 205.58380651015997, 300.86322782516, 319.93971304412, 341.24796849208, 360.57166518256, 413.82513633915994, 476.2185649566799, 587.1615797866, 608.54537207308, 718.4995410169199, 772.020824601, 810.8742275415599, 835.6159756495199, 860.57746728772, 899.1355898595199, 910.8163318888398, 920.0592941295598, 932.81815285412, 958.1367277289598, 1008.73267556672, 1015.1807747821998, 1048.8564707914802, 1053.3474791907602, 1058.02389619368, 1092.04294146896, 1112.6850993408798, 1130.1890449215598, 1155.4664178844798, 1170.0381607335198, 1233.24876060412, 1247.16813984776, 1271.69014442548, 1273.9081806838399, 1295.6902581188797, 1312.967593184, 1330.9247597958001, 1338.83552688444, 1355.8175815808, 1365.2802873517599, 1368.27429295128, 1378.8425833587598, 1392.36367745384, 1394.5061768736798, 1457.40089541956, 1463.74598985524, 1472.3503224611998, 1478.6336140289998, 1482.5340616907597, 1495.07317688508, 2942.0225206476, 2948.31267920072, 2993.1403593696796, 2993.82705790168, 2997.4802940919203, 3004.5876238981195, 3006.34557214004, 3011.77049054284, 3016.1790951182797, 3025.6898697864804, 3042.96033786628, 3048.17924670948, 3052.8556637123997, 3057.50461277404, 3183.91894552992]

>  <ZPE_kJmol>  (4) 
574.904176107268

>  <E_elec_kJmol>  (4) 
-924098.2857270052

>  <E0_minus_Eelec_plus_ZPE_kJmol>  (4) 
0.0

>  <rxn>  (4) 
rxn_617

>  <species_type>  (4) 
p1

>  <species_folder>  (4) 
rxn_617_[CH]1CC2CCCCC2C1

>  <frequencies_cm1_list>  (4) 
[146.42472797835998, 158.91577427544, 205.58380651015997, 300.86322782516, 319.93971304412, 341.24796849208, 360.57166518256, 413.82513633915994, 476.2185649566799, 587.1615797866, 608.54537207308, 718.4995410169199, 772.020824601, 810.8742275415599, 835.6159756495199, 860.57746728772, 899.1355898595199, 910.8163318888398, 920.0592941295598, 932.81815285412, 958.1367277289598, 1008.73267556672, 1015.1807747821998, 1048.8564707914802, 1053.3474791907602, 1058.02389619368, 1092.04294146896, 1112.6850993408798, 1130.1890449215598, 1155.4664178844798, 1170.0381607335198, 1233.24876060412, 1247.16813984776, 1271.69014442548, 1273.9081806838399, 1295.6902581188797, 1312.967593184, 1330.9247597958001, 1338.83552688444, 1355.8175815808, 1365.2802873517599, 1368.27429295128, 1378.8425833587598, 1392.36367745384, 1394.5061768736798, 1457.40089541956, 1463.74598985524, 1472.3503224611998, 1478.6336140289998, 1482.5340616907597, 1495.07317688508, 2942.0225206476, 2948.31267920072, 2993.1403593696796, 2993.82705790168, 2997.4802940919203, 3004.5876238981195, 3006.34557214004, 3011.77049054284, 3016.1790951182797, 3025.6898697864804, 3042.96033786628, 3048.17924670948, 3052.8556637123997, 3057.50461277404, 3183.91894552992]

>  <E0_kJmol>  (4) 
-923523

>  <H298_kJmol>  (4) 
-923500

$$$$

     RDKit          3D

  8  7  0  0  0  0  0  0  0  0999 V2000
    1.4038   -0.4003    0.0140 C   0  0  0  0  0  0  0  0  0  1  0  0
    0.2804    0.0563    0.4920 C   0  0  0  0  0  3  0  0  0  2  0  0
   -1.0935    0.3323    0.0625 C   0  0  0  0  0  0  0  0  0  3  0  0
    1.4898   -0.7154   -1.0285 H   0  0  0  0  0  0  0  0  0  4  0  0
    2.2990   -0.4891    0.6210 H   0  0  0  0  0  0  0  0  0  5  0  0
   -1.3399    1.3883    0.1900 H   0  0  0  0  0  0  0  0  0  6  0  0
   -1.2285    0.0762   -0.9967 H   0  0  0  0  0  0  0  0  0  7  0  0
   -1.8111   -0.2482    0.6457 H   0  0  0  0  0  0  0  0  0  8  0  0
  1  5  1  0
  1  4  1  0
  1  2  1  0
  2  3  1  0
  3  6  1  0
  3  7  1  0
  3  8  1  0
M  RAD  1   2   2
M  END
>  <rmg_smiles>  (5) 
[CH2][C]C

>  <rmg_adjacency_list>  (5) 
multiplicity 2
1 C u0 p0 c0 {3,S} {4,S} {5,S} {6,S}
2 C u0 p0 c0 {3,S} {7,S} {8,S}
3 C u1 p1 c0 {1,S} {2,S}
4 H u0 p0 c0 {1,S}
5 H u0 p0 c0 {1,S}
6 H u0 p0 c0 {1,S}
7 H u0 p0 c0 {2,S}
8 H u0 p0 c0 {2,S}


>  <multiplicity>  (5) 
2

>  <reaction>  (5) 
rxn_617

>  <type>  (5) 
r2

>  <role_mapnums>  (5) 
{}

>  <role_mapidx>  (5) 
{}

>  <ordered_mapped_smiles>  (5) 
[CH:1]([CH:2][C:3]([H:6])([H:7])[H:8])([H:4])[H:5]

>  <level_of_theory>  (5) 
wb97xd/def2tzvp

>  <lot_method>  (5) 
wb97xd

>  <lot_basis>  (5) 
def2tzvp

>  <spin_multiplicity>  (5) 
2.0

>  <optical_isomers>  (5) 
1.0

>  <modes>  (5) 
IdealGasTranslation(mass=(41.0391, 'amu')),         NonlinearRotor(             inertia = ([6.71616, 57.9316, 61.5152

>  <frequency_value>  (5) 
unknown

>  <frequency_units>  (5) 
unknown

>  <frequency_list>  (5) 
unknown

>  <arkane_path>  (5) 
/home/calvin/Dropbox/PersonalFolders/Calvin/HAb_Converged/rxn_617/output/Species/rxn_617_C=[C]C/arkane/output.py

>  <path_exists>  (5) 
True

>  <E0_value>  (5) 
-307613.2562792769

>  <E0_units>  (5) 
kJ/mol

>  <thermo_class>  (5) 
NASA

>  <Cp0_value>  (5) 
33.257888

>  <Cp0_units>  (5) 
J/(mol*K)

>  <CpInf_value>  (5) 
182.918384

>  <CpInf_units>  (5) 
J/(mol*K)

>  <Tmin_value>  (5) 
10.0

>  <Tmin_units>  (5) 
K

>  <Tmax_value>  (5) 
3000.0

>  <Tmax_units>  (5) 
K

>  <polynomials>  (5) 
[{"name": "polynomial1", "class": "NASAPolynomial", "Tmin_value": 10.0, "Tmin_units": "K", "Tmax_value": 538.1687435193878, "Tmax_units": "K", "coeffs": [3.93039251722744, 0.005417928594915489, 4.115135925960942e-05, -6.444195040259997e-08, 3.1282900924672696e-11, -36997327.46995285, 7.425360626691283]}, {"name": "polynomial2", "class": "NASAPolynomial", "Tmin_value": 538.1687435193878, "Tmin_units": "K", "Tmax_value": 3000.0, "Tmax_units": "K", "coeffs": [1.2730235235922125, 0.02516927369883844, -1.3900597345713134e-05, 3.755214790819376e-09, -3.97535341384456e-13, -36997041.44953528, 18.599148798917813]}]

>  <H298_value>  (5) 
-73518.02597167484

>  <H298_units>  (5) 
kcal/mol

>  <S298_value>  (5) 
65.08526526117362

>  <S298_units>  (5) 
cal/(mol*K)

>  <Cp_T_value_list>  (5) 
[15.44626255334313, 18.59695184982686, 21.515751343877753, 24.10477215751453, 28.361211822057705, 31.595349958095916, 36.588281748163645, 39.128760531282474, 40.409169372349]

>  <Cp_T_units>  (5) 
cal/(mol*K)

>  <T_list>  (5) 
[300.0, 400.0, 500.0, 600.0, 800.0, 1000.0, 1500.0, 2000.0, 2400.0]

>  <T_units>  (5) 
K

>  <yaml_path>  (5) 
/home/calvin/Dropbox/PersonalFolders/Calvin/HAb_Converged/rxn_617/output/Species/rxn_617_C=[C]C/rxn_617_C=CC.yml

>  <frequencies_cm1>  (5) 
[176.04890264884, 312.72251147279997, 484.02632726551997, 893.4634599852, 895.1939402858399, 932.7632169715598, 1043.3422815795197, 1098.3399670074, 1378.28635754784, 1408.11654177792, 1443.1999697778, 1458.9940360138, 1748.70527967928, 2967.7256467003594, 3032.41264841476, 3055.0530990147995, 3082.9330594139997, 3144.5505186903597]

>  <ZPE_kJmol>  (5) 
170.80212834762708

>  <E_elec_kJmol>  (5) 
-307784.05840762454

>  <E0_minus_Eelec_plus_ZPE_kJmol>  (5) 
0.0

>  <rxn>  (5) 
rxn_617

>  <species_type>  (5) 
r0

>  <species_folder>  (5) 
rxn_617_C=[C]C

>  <frequencies_cm1_list>  (5) 
[176.04890264884, 312.72251147279997, 484.02632726551997, 893.4634599852, 895.1939402858399, 932.7632169715598, 1043.3422815795197, 1098.3399670074, 1378.28635754784, 1408.11654177792, 1443.1999697778, 1458.9940360138, 1748.70527967928, 2967.7256467003594, 3032.41264841476, 3055.0530990147995, 3082.9330594139997, 3144.5505186903597]

>  <E0_kJmol>  (5) 
-307613

>  <H298_kJmol>  (5) 
-307599

$$$$
