
     RDKit          3D

 10  9  0  0  0  0  0  0  0  0999 V2000
    0.1527   -0.9293   -1.6635 C   0  0  0  0  0  2  0  0  0  1  0  0
   -0.0131   -0.5491   -0.5331 C   0  0  0  0  0  2  0  0  0  2  0  0
   -0.1299   -0.1165    0.8152 C   0  0  0  0  0  0  0  0  0  3  0  0
   -0.0359    1.3672    1.0827 C   0  0  0  0  0  0  0  0  0  4  0  0
    0.2688   -1.2612   -2.6670 H   0  0  0  0  0  0  0  0  0  5  0  0
    0.7642   -0.5248    1.2840 H   0  0  0  0  0  0  0  0  0  6  0  0
   -0.9069   -0.6391    1.3710 H   0  0  0  0  0  0  0  0  0  7  0  0
   -0.8868    1.8998    0.6505 H   0  0  0  0  0  0  0  0  0  8  0  0
   -0.0250    1.5610    2.1560 H   0  0  0  0  0  0  0  0  0  9  0  0
    0.8759    1.7771    0.6461 H   0  0  0  0  0  0  0  0  0 10  0  0
  1  5  1  0
  1  2  1  0
  2  3  1  0
  3  4  1  0
  3  6  1  0
  3  7  1  0
  4  8  1  0
  4  9  1  0
  4 10  1  0
M  RAD  2   1   3   2   3
M  END
>  <rmg_smiles>  (1) 
[CH][C]CC

>  <rmg_adjacency_list>  (1) 
1  C u0 p0 c0 {2,S} {3,S} {5,S} {6,S}
2  C u0 p0 c0 {1,S} {7,S} {8,S} {9,S}
3  C u0 p1 c0 {1,S} {4,S}
4  C u0 p1 c0 {3,S} {10,S}
5  H u0 p0 c0 {1,S}
6  H u0 p0 c0 {1,S}
7  H u0 p0 c0 {2,S}
8  H u0 p0 c0 {2,S}
9  H u0 p0 c0 {2,S}
10 H u0 p0 c0 {4,S}


>  <multiplicity>  (1) 
1

>  <reaction>  (1) 
rxn_1292

>  <type>  (1) 
r1h

>  <role_mapnums>  (1) 
{"r1h_a": 3, "r1h_h": 6}

>  <role_mapidx>  (1) 
{"r1h_a": 2, "r1h_h": 5}

>  <ordered_mapped_smiles>  (1) 
[C:1]([C:2][C:3]([C:4]([H:8])([H:9])[H:10])([H:6])[H:7])[H:5]

>  <mol_properties>  (1) 
{"2": {"label": "donator", "atom_type": "Cs"}, "5": {"label": "d_hydrogen", "atom_type": "H0"}}

>  <level_of_theory>  (1) 
wb97xd/def2tzvp

>  <lot_method>  (1) 
wb97xd

>  <lot_basis>  (1) 
def2tzvp

>  <spin_multiplicity>  (1) 
1.0

>  <optical_isomers>  (1) 
1.0

>  <modes>  (1) 
IdealGasTranslation(mass=(54.047, 'amu')),         NonlinearRotor(             inertia = ([18.311, 110.882, 122.965

>  <frequency_value>  (1) 
unknown

>  <frequency_units>  (1) 
unknown

>  <frequency_list>  (1) 
unknown

>  <arkane_path>  (1) 
/home/calvin/Dropbox/PersonalFolders/Calvin/HAb_Converged/rxn_1292/output/Species/rxn_1292_CtCCC/arkane/output.py

>  <path_exists>  (1) 
True

>  <E0_value>  (1) 
-409281.9068125439

>  <E0_units>  (1) 
kJ/mol

>  <thermo_class>  (1) 
NASA

>  <Cp0_value>  (1) 
33.257888

>  <Cp0_units>  (1) 
J/(mol*K)

>  <CpInf_value>  (1) 
232.805216

>  <CpInf_units>  (1) 
J/(mol*K)

>  <Tmin_value>  (1) 
10.0

>  <Tmin_units>  (1) 
K

>  <Tmax_value>  (1) 
3000.0

>  <Tmax_units>  (1) 
K

>  <polynomials>  (1) 
[{"name": "polynomial1", "class": "NASAPolynomial", "Tmin_value": 10.0, "Tmin_units": "K", "Tmax_value": 360.48121370424, "Tmax_units": "K", "coeffs": [3.964907651517416, 0.0024252181225602747, 0.00010970866124517926, -2.330425775882924e-07, 1.6483387684637681e-10, -49225243.05086936, 8.23900007534587]}, {"name": "polynomial2", "class": "NASAPolynomial", "Tmin_value": 360.48121370424, "Tmin_units": "K", "Tmax_value": 3000.0, "Tmax_units": "K", "coeffs": [1.173366775306642, 0.03340704549885685, -1.9235392341731885e-05, 5.470981511725664e-09, -6.120493514194064e-13, -49225041.83097189, 18.857768088551204]}]

>  <H298_value>  (1) 
-97816.99696801163

>  <H298_units>  (1) 
kcal/mol

>  <S298_value>  (1) 
68.93760489416931

>  <S298_units>  (1) 
cal/(mol*K)

>  <Cp_T_value_list>  (1) 
[19.095578790385176, 23.435119416919605, 27.251876378154844, 30.59356719880144, 36.04553968052718, 40.149424943692715, 46.44174128793762, 49.72179624324852, 51.42678973904542]

>  <Cp_T_units>  (1) 
cal/(mol*K)

>  <T_list>  (1) 
[300.0, 400.0, 500.0, 600.0, 800.0, 1000.0, 1500.0, 2000.0, 2400.0]

>  <T_units>  (1) 
K

>  <yaml_path>  (1) 
/home/calvin/Dropbox/PersonalFolders/Calvin/HAb_Converged/rxn_1292/output/Species/rxn_1292_CtCCC/rxn_1292_CtCCC.yml

>  <frequencies_cm1>  (1) 
[204.17607451956, 218.97442788415998, 366.0789874092, 525.48918462768, 681.08133800824, 687.0144133247201, 787.3273348792799, 847.3241856201199, 1026.4769656336, 1086.98884027344, 1103.26359548184, 1280.9125057102399, 1344.0544357276399, 1402.80149514024, 1466.62325670432, 1482.32805213116, 1490.70577422156, 2222.88434999592, 3023.4855674987602, 3025.88901236076, 3057.6625534364, 3103.54088235932, 3108.5949835548395, 3438.35448560656]

>  <ZPE_kJmol>  (1) 
221.20174166210896

>  <E_elec_kJmol>  (1) 
-409503.108554206

>  <E0_minus_Eelec_plus_ZPE_kJmol>  (1) 
0.0

>  <rxn>  (1) 
rxn_1292

>  <species_type>  (1) 
r0

>  <species_folder>  (1) 
rxn_1292_CtCCC

>  <frequencies_cm1_list>  (1) 
[204.17607451956, 218.97442788415998, 366.0789874092, 525.48918462768, 681.08133800824, 687.0144133247201, 787.3273348792799, 847.3241856201199, 1026.4769656336, 1086.98884027344, 1103.26359548184, 1280.9125057102399, 1344.0544357276399, 1402.80149514024, 1466.62325670432, 1482.32805213116, 1490.70577422156, 2222.88434999592, 3023.4855674987602, 3025.88901236076, 3057.6625534364, 3103.54088235932, 3108.5949835548395, 3438.35448560656]

>  <E0_kJmol>  (1) 
-409282

>  <H298_kJmol>  (1) 
-409266

$$$$

     RDKit          3D

  8  7  0  0  0  0  0  0  0  0999 V2000
   -1.4162    0.7661    0.1015 H   0  0  0  0  0  0  0  0  0  1  0  0
    0.7824    1.0957   -0.5702 S   0  0  0  0  0  0  0  0  0  2  0  0
   -0.4694    0.3973    0.4905 C   0  0  0  0  0  0  0  0  0  3  0  0
   -0.6071   -1.0198    0.5158 C   0  0  0  0  0  2  0  0  0  4  0  0
   -0.7899   -2.2068    0.4900 C   0  0  0  0  0  2  0  0  0  5  0  0
    0.3777    0.4777   -1.6892 H   0  0  0  0  0  0  0  0  0  6  0  0
   -0.4075    0.8615    1.4725 H   0  0  0  0  0  0  0  0  0  7  0  0
   -0.9340   -3.2603    0.4776 H   0  0  0  0  0  0  0  0  0  8  0  0
  1  3  1  0
  2  3  1  0
  2  6  1  0
  3  4  1  0
  3  7  1  0
  4  5  1  0
  5  8  1  0
M  RAD  2   4   3   5   3
M  END
>  <rmg_smiles>  (2) 
[CH][C]CS

>  <rmg_adjacency_list>  (2) 
1 S u0 p2 c0 {2,S} {7,S}
2 C u0 p0 c0 {1,S} {3,S} {5,S} {6,S}
3 C u0 p1 c0 {2,S} {4,S}
4 C u0 p1 c0 {3,S} {8,S}
5 H u0 p0 c0 {2,S}
6 H u0 p0 c0 {2,S}
7 H u0 p0 c0 {1,S}
8 H u0 p0 c0 {4,S}


>  <multiplicity>  (2) 
1

>  <reaction>  (2) 
rxn_1292

>  <type>  (2) 
r2h

>  <role_mapnums>  (2) 
{"r2h_a": 3, "r2h_h": 1}

>  <role_mapidx>  (2) 
{"r2h_a": 2, "r2h_h": 0}

>  <ordered_mapped_smiles>  (2) 
[H:1][C:3]([S:2][H:6])([C:4][C:5][H:8])[H:7]

>  <mol_properties>  (2) 
{"0": {"label": "a_hydrogen", "atom_type": "H0"}, "2": {"label": "acceptor", "atom_type": "Cs"}}

>  <level_of_theory>  (2) 
wb97xd/def2tzvp

>  <lot_method>  (2) 
wb97xd

>  <lot_basis>  (2) 
def2tzvp

>  <spin_multiplicity>  (2) 
1.0

>  <optical_isomers>  (2) 
2.0

>  <modes>  (2) 
IdealGasTranslation(mass=(72.0034, 'amu')),         NonlinearRotor(             inertia = ([22.2085, 166.22, 182.902

>  <frequency_value>  (2) 
unknown

>  <frequency_units>  (2) 
unknown

>  <frequency_list>  (2) 
unknown

>  <arkane_path>  (2) 
/home/calvin/Dropbox/PersonalFolders/Calvin/HAb_Converged/rxn_1292/output/Species/rxn_1292_SCCtC/arkane/output.py

>  <path_exists>  (2) 
True

>  <E0_value>  (2) 
-1351591.9619272442

>  <E0_units>  (2) 
kJ/mol

>  <thermo_class>  (2) 
NASA

>  <Cp0_value>  (2) 
33.257888

>  <Cp0_units>  (2) 
J/(mol*K)

>  <CpInf_value>  (2) 
182.918384

>  <CpInf_units>  (2) 
J/(mol*K)

>  <Tmin_value>  (2) 
10.0

>  <Tmin_units>  (2) 
K

>  <Tmax_value>  (2) 
3000.0

>  <Tmax_units>  (2) 
K

>  <polynomials>  (2) 
[{"name": "polynomial1", "class": "NASAPolynomial", "Tmin_value": 10.0, "Tmin_units": "K", "Tmax_value": 475.2199189026072, "Tmax_units": "K", "coeffs": [3.9081729464366273, 0.006066515480213879, 9.858801916657192e-05, -2.3454588538714718e-07, 1.6729093969770136e-10, -162558962.7892696, 9.8761209629424]}, {"name": "polynomial2", "class": "NASAPolynomial", "Tmin_value": 475.2199189026072, "Tmin_units": "K", "Tmax_value": 3000.0, "Tmax_units": "K", "coeffs": [3.9292799211709246, 0.023944631257607943, -1.4834916665788379e-05, 4.522082984509358e-09, -5.363690563089036e-13, -162559168.67574582, 7.6448789699266015]}]

>  <H298_value>  (2) 
-323034.4124485172

>  <H298_units>  (2) 
kcal/mol

>  <S298_value>  (2) 
72.70695616719325

>  <S298_units>  (2) 
cal/(mol*K)

>  <Cp_T_value_list>  (2) 
[19.12361750639078, 22.6155498358861, 25.286415175994005, 27.548137324924326, 31.171813968930973, 33.831611291215516, 37.7853923074815, 39.89045746976903, 41.06584514735627]

>  <Cp_T_units>  (2) 
cal/(mol*K)

>  <T_list>  (2) 
[300.0, 400.0, 500.0, 600.0, 800.0, 1000.0, 1500.0, 2000.0, 2400.0]

>  <T_units>  (2) 
K

>  <yaml_path>  (2) 
/home/calvin/Dropbox/PersonalFolders/Calvin/HAb_Converged/rxn_1292/output/Species/rxn_1292_SCCtC/rxn_1292_SCCtC.yml

>  <frequencies_cm1>  (2) 
[173.19223675572, 229.15816711371997, 344.57158938696, 467.96444860203997, 686.8633396476799, 691.89683988724, 698.0771266752399, 793.7067642415599, 956.7495966943198, 1009.0760248327199, 1208.56881536404, 1272.7064582528399, 1449.8609455381998, 2225.7547498596796, 2705.54414718276, 3049.3603681845198, 3095.3691698285193, 3437.0291574397993]

>  <ZPE_kJmol>  (2) 
146.51536962244307

>  <E_elec_kJmol>  (2) 
-1351738.4772968667

>  <E0_minus_Eelec_plus_ZPE_kJmol>  (2) 
0.0

>  <rxn>  (2) 
rxn_1292

>  <species_type>  (2) 
p0

>  <species_folder>  (2) 
rxn_1292_SCCtC

>  <frequencies_cm1_list>  (2) 
[173.19223675572, 229.15816711371997, 344.57158938696, 467.96444860203997, 686.8633396476799, 691.89683988724, 698.0771266752399, 793.7067642415599, 956.7495966943198, 1009.0760248327199, 1208.56881536404, 1272.7064582528399, 1449.8609455381998, 2225.7547498596796, 2705.54414718276, 3049.3603681845198, 3095.3691698285193, 3437.0291574397993]

>  <E0_kJmol>  (2) 
-1.35159e+06

>  <H298_kJmol>  (2) 
-1.35158e+06

$$$$

     RDKit          3D

 17 15  0  0  0  0  0  0  0  0999 V2000
   -1.2645    0.0632   -2.2581 C   0  0  0  0  0  0  0  0  0  1  0  0
   -1.4303    0.4434   -1.1277 C   0  0  0  0  0  0  0  0  0  2  0  0
   -1.5471    0.8760    0.2207 C   0  0  0  0  0  3  0  0  0  3  0  0
   -1.4532    2.3597    0.4881 C   0  0  0  0  0  0  0  0  0  4  0  0
   -1.1485   -0.2686   -3.2616 H   0  0  0  0  0  0  0  0  0  5  0  0
   -0.4321    0.3669    0.8053 H   0  0  0  0  0  0  0  0  0  6  0  0
   -2.3242    0.3534    0.7764 H   0  0  0  0  0  0  0  0  0  7  0  0
   -2.3040    2.8923    0.0559 H   0  0  0  0  0  0  0  0  0  8  0  0
   -1.4422    2.5536    1.5614 H   0  0  0  0  0  0  0  0  0  9  0  0
   -0.5413    2.7697    0.0515 H   0  0  0  0  0  0  0  0  0 10  0  0
    1.9840    0.6118    0.2229 S   0  0  0  0  0  0  0  0  0 11  0  0
    0.7322   -0.0866    1.2836 C   0  0  0  0  0  0  0  0  0 12  0  0
    0.5945   -1.5037    1.3089 C   0  0  0  0  0  0  0  0  0 13  0  0
    0.4117   -2.6907    1.2831 C   0  0  0  0  0  0  0  0  0 14  0  0
    1.5793   -0.0062   -0.8960 H   0  0  0  0  0  0  0  0  0 15  0  0
    0.7941    0.3776    2.2656 H   0  0  0  0  0  0  0  0  0 16  0  0
    0.2676   -3.7442    1.2708 H   0  0  0  0  0  0  0  0  0 17  0  0
  1  5  1  0
  1  2  1  0
  2  3  1  0
  3  4  1  0
  3  7  1  0
  4  8  1  0
  4  9  1  0
  4 10  1  0
  6 12  1  0
 11 12  1  0
 11 15  1  0
 12 16  1  0
 12 13  1  0
 13 14  1  0
 14 17  1  0
M  RAD  1   3   2
M  END
>  <rmg_smiles>  (3) 
[CH][C][CH]C.[CH][C]CS

>  <rmg_adjacency_list>  (3) 
multiplicity 2
1  S u0 p2 c0 {3,S} {15,S}
2  C u0 p0 c0 {4,S} {10,S} {11,S} {12,S}
3  C u0 p0 c0 {1,S} {5,S} {9,S} {13,S}
4  C u1 p0 c0 {2,S} {6,S} {14,S}
5  C u0 p1 c0 {3,S} {7,S}
6  C u0 p1 c0 {4,S} {8,S}
7  C u0 p1 c0 {5,S} {17,S}
8  C u0 p1 c0 {6,S} {16,S}
9  H u0 p0 c0 {3,S}
10 H u0 p0 c0 {2,S}
11 H u0 p0 c0 {2,S}
12 H u0 p0 c0 {2,S}
13 H u0 p0 c0 {3,S}
14 H u0 p0 c0 {4,S}
15 H u0 p0 c0 {1,S}
16 H u0 p0 c0 {8,S}
17 H u0 p0 c0 {7,S}


>  <multiplicity>  (3) 
2

>  <reaction>  (3) 
rxn_1292

>  <type>  (3) 
ts

>  <role_mapnums>  (3) 
{"*2": 6, "*1": 3, "*3": 12, "*0": 11, "*4": 2}

>  <role_mapidx>  (3) 
{"*2": 5, "*1": 2, "*3": 11, "*0": 10, "*4": 1}

>  <ordered_mapped_smiles>  (3) 
[CH2:1]([CH2:2][C:3]([C:4]([H:8])([H:9])[H:10])[H:7])[H:5].[H:6][C:12]([S:11][H:15])([CH2:13][CH2:14][H:17])[H:16]

>  <mol_properties>  (3) 
{"1": {"label": "*4", "atom_type": "C2s"}, "2": {"label": "*1", "atom_type": "Cs"}, "5": {"label": "*2", "atom_type": "H0"}, "10": {"label": "*0", "atom_type": "S2s"}, "11": {"label": "*3", "atom_type": "Cs"}}

>  <level_of_theory>  (3) 
wb97xd/def2tzvp

>  <lot_method>  (3) 
wb97xd

>  <lot_basis>  (3) 
def2tzvp

>  <spin_multiplicity>  (3) 
2.0

>  <optical_isomers>  (3) 
2.0

>  <modes>  (3) 
IdealGasTranslation(mass=(125.043, 'amu')),         NonlinearRotor(             inertia = ([291.533, 470.773, 540.72

>  <frequency_value>  (3) 
-1790.69

>  <frequency_units>  (3) 
cm^-1

>  <frequency_list>  (3) 
unknown

>  <arkane_path>  (3) 
/home/calvin/Dropbox/PersonalFolders/Calvin/HAb_Converged/rxn_1292/output/rxns/TS0/arkane/output.py

>  <path_exists>  (3) 
True

>  <E0_value>  (3) 
-1759150.0

>  <E0_units>  (3) 
kJ/mol

>  <thermo_class>  (3) 
unknown

>  <Cp0_value>  (3) 
unknown

>  <Cp0_units>  (3) 
unknown

>  <CpInf_value>  (3) 
unknown

>  <CpInf_units>  (3) 
unknown

>  <Tmin_value>  (3) 
unknown

>  <Tmin_units>  (3) 
unknown

>  <Tmax_value>  (3) 
unknown

>  <Tmax_units>  (3) 
unknown

>  <polynomials>  (3) 
unknown

>  <H298_value>  (3) 
unknown

>  <H298_units>  (3) 
unknown

>  <S298_value>  (3) 
unknown

>  <S298_units>  (3) 
unknown

>  <Cp_T_value_list>  (3) 
unknown

>  <Cp_T_units>  (3) 
unknown

>  <T_list>  (3) 
unknown

>  <T_units>  (3) 
unknown

>  <yaml_path>  (3) 
unknown

>  <frequencies_cm1>  (3) 
unknown

>  <ZPE_kJmol>  (3) 
unknown

>  <E_elec_kJmol>  (3) 
unknown

>  <E0_minus_Eelec_plus_ZPE_kJmol>  (3) 
unknown

>  <rxn>  (3) 
unknown

>  <species_type>  (3) 
unknown

>  <species_folder>  (3) 
unknown

>  <frequencies_cm1_list>  (3) 
[]

>  <ts_imag_freq_cm1>  (3) 
-1812.442

>  <ts_freq_out_path>  (3) 
/home/calvin/Dropbox/PersonalFolders/Calvin/HAb_Converged/rxn_1292/output/rxns/TS0/geometry/freq.out

>  <E0_kJmol>  (3) 
-1.75915e+06

>  <H298_kJmol>  (3) 
unknown

$$$$

     RDKit          3D

  9  8  0  0  0  0  0  0  0  0999 V2000
    2.3038   -0.0269    0.1590 C   0  0  0  0  0  0  0  0  0  1  0  0
    1.1426    0.1377   -0.1648 C   0  0  0  0  0  0  0  0  0  2  0  0
   -0.1694    0.3175   -0.5203 C   0  0  0  0  0  3  0  0  0  3  0  0
   -1.3163   -0.1910    0.2856 C   0  0  0  0  0  0  0  0  0  4  0  0
    3.3199   -0.1683    0.4378 H   0  0  0  0  0  0  0  0  0  5  0  0
   -0.3786    0.8584   -1.4360 H   0  0  0  0  0  0  0  0  0  6  0  0
   -1.9694    0.6309    0.5951 H   0  0  0  0  0  0  0  0  0  7  0  0
   -1.9325   -0.8770   -0.3039 H   0  0  0  0  0  0  0  0  0  8  0  0
   -0.9753   -0.7144    1.1774 H   0  0  0  0  0  0  0  0  0  9  0  0
  1  5  1  0
  1  2  1  0
  2  3  1  0
  3  4  1  0
  3  6  1  0
  4  8  1  0
  4  9  1  0
  4  7  1  0
M  RAD  1   3   2
M  END
>  <rmg_smiles>  (4) 
[CH]C[CH]C

>  <rmg_adjacency_list>  (4) 
multiplicity 2
1 C u0 p0 c0 {2,S} {5,S} {6,S} {7,S}
2 C u1 p0 c0 {1,S} {3,S} {8,S}
3 C u0 p1 c0 {2,S} {4,S}
4 C u0 p1 c0 {3,S} {9,S}
5 H u0 p0 c0 {1,S}
6 H u0 p0 c0 {1,S}
7 H u0 p0 c0 {1,S}
8 H u0 p0 c0 {2,S}
9 H u0 p0 c0 {4,S}


>  <multiplicity>  (4) 
2

>  <reaction>  (4) 
rxn_1292

>  <type>  (4) 
r1

>  <role_mapnums>  (4) 
{}

>  <role_mapidx>  (4) 
{}

>  <ordered_mapped_smiles>  (4) 
[CH2:1]([CH2:2][C:3]([C:4]([H:7])([H:8])[H:9])[H:6])[H:5]

>  <level_of_theory>  (4) 
wb97xd/def2tzvp

>  <lot_method>  (4) 
wb97xd

>  <lot_basis>  (4) 
def2tzvp

>  <spin_multiplicity>  (4) 
2.0

>  <optical_isomers>  (4) 
1.0

>  <modes>  (4) 
IdealGasTranslation(mass=(53.0391, 'amu')),         NonlinearRotor(             inertia = ([13.0163, 113.224, 123.133

>  <frequency_value>  (4) 
unknown

>  <frequency_units>  (4) 
unknown

>  <frequency_list>  (4) 
unknown

>  <arkane_path>  (4) 
/home/calvin/Dropbox/PersonalFolders/Calvin/HAb_Converged/rxn_1292/output/Species/rxn_1292_CtC[CH]C/arkane/output.py

>  <path_exists>  (4) 
True

>  <E0_value>  (4) 
-407611.0180987149

>  <E0_units>  (4) 
kJ/mol

>  <thermo_class>  (4) 
NASA

>  <Cp0_value>  (4) 
33.257888

>  <Cp0_units>  (4) 
J/(mol*K)

>  <CpInf_value>  (4) 
207.8618

>  <CpInf_units>  (4) 
J/(mol*K)

>  <Tmin_value>  (4) 
10.0

>  <Tmin_units>  (4) 
K

>  <Tmax_value>  (4) 
3000.0

>  <Tmax_units>  (4) 
K

>  <polynomials>  (4) 
[{"name": "polynomial1", "class": "NASAPolynomial", "Tmin_value": 10.0, "Tmin_units": "K", "Tmax_value": 225.12244092476377, "Tmax_units": "K", "coeffs": [3.9266130103725434, 0.006751552972290672, 0.0001283541194316844, -4.2549688859148007e-07, 4.774737524189803e-10, -49024283.39050682, 9.03931398875942]}, {"name": "polynomial2", "class": "NASAPolynomial", "Tmin_value": 225.12244092476377, "Tmin_units": "K", "Tmax_value": 3000.0, "Tmax_units": "K", "coeffs": [2.698793800089887, 0.02856763785346583, -1.700774111948388e-05, 4.9718456847290095e-09, -5.66009400316375e-13, -49024228.10872656, 13.132014034873661]}]

>  <H298_value>  (4) 
-97417.42510508596

>  <H298_units>  (4) 
kcal/mol

>  <S298_value>  (4) 
72.15152284270778

>  <S298_units>  (4) 
cal/(mol*K)

>  <Cp_T_value_list>  (4) 
[19.609840418917145, 23.266846927668503, 26.46319689496793, 29.246023227567047, 33.746139284951916, 37.090269030960386, 42.123590532288944, 44.75530859912038, 46.19956450688901]

>  <Cp_T_units>  (4) 
cal/(mol*K)

>  <T_list>  (4) 
[300.0, 400.0, 500.0, 600.0, 800.0, 1000.0, 1500.0, 2000.0, 2400.0]

>  <T_units>  (4) 
K

>  <yaml_path>  (4) 
/home/calvin/Dropbox/PersonalFolders/Calvin/HAb_Converged/rxn_1292/output/Species/rxn_1292_CtC[CH]C/rxn_1292_CtCCHC.yml

>  <frequencies_cm1>  (4) 
[83.4682065646, 211.55121675324, 392.1460636839199, 478.7318815838, 554.46786267808, 595.8689171723599, 660.0408949877599, 865.1234115695598, 998.98842339764, 1092.3794237496397, 1143.49726247172, 1380.42198998236, 1394.47184194708, 1461.2464071987597, 1480.32289241772, 2005.2970531463998, 2994.3558157713196, 3043.5921005157197, 3109.55636149964, 3150.5453968747197, 3427.4497129183997]

>  <ZPE_kJmol>  (4) 
182.57126464434097

>  <E_elec_kJmol>  (4) 
-407793.5893633592

>  <E0_minus_Eelec_plus_ZPE_kJmol>  (4) 
0.0

>  <rxn>  (4) 
rxn_1292

>  <species_type>  (4) 
p1

>  <species_folder>  (4) 
rxn_1292_CtC[CH]C

>  <frequencies_cm1_list>  (4) 
[83.4682065646, 211.55121675324, 392.1460636839199, 478.7318815838, 554.46786267808, 595.8689171723599, 660.0408949877599, 865.1234115695598, 998.98842339764, 1092.3794237496397, 1143.49726247172, 1380.42198998236, 1394.47184194708, 1461.2464071987597, 1480.32289241772, 2005.2970531463998, 2994.3558157713196, 3043.5921005157197, 3109.55636149964, 3150.5453968747197, 3427.4497129183997]

>  <E0_kJmol>  (4) 
-407611

>  <H298_kJmol>  (4) 
-407595

$$$$

     RDKit          3D

  7  6  0  0  0  0  0  0  0  0999 V2000
   -2.0652    0.3855   -0.2963 S   0  0  0  0  0  0  0  0  0  1  0  0
   -0.7169   -0.5853    0.1792 C   0  0  0  0  0  3  0  0  0  2  0  0
    0.5987   -0.2168    0.0254 C   0  0  0  0  0  0  0  0  0  3  0  0
    1.7547    0.1211   -0.1163 C   0  0  0  0  0  0  0  0  0  4  0  0
   -1.3643    1.4227   -0.7731 H   0  0  0  0  0  0  0  0  0  5  0  0
   -0.9781   -1.5363    0.6220 H   0  0  0  0  0  0  0  0  0  6  0  0
    2.7711    0.4089   -0.2366 H   0  0  0  0  0  0  0  0  0  7  0  0
  1  2  1  0
  1  5  1  0
  2  6  1  0
  2  3  1  0
  3  4  1  0
  4  7  1  0
M  RAD  1   2   2
M  END
>  <rmg_smiles>  (5) 
[CH][C][CH]S

>  <rmg_adjacency_list>  (5) 
multiplicity 2
1 S u0 p2 c0 {2,S} {6,S}
2 C u1 p0 c0 {1,S} {3,S} {5,S}
3 C u0 p1 c0 {2,S} {4,S}
4 C u0 p1 c0 {3,S} {7,S}
5 H u0 p0 c0 {2,S}
6 H u0 p0 c0 {1,S}
7 H u0 p0 c0 {4,S}


>  <multiplicity>  (5) 
2

>  <reaction>  (5) 
rxn_1292

>  <type>  (5) 
r2

>  <role_mapnums>  (5) 
{}

>  <role_mapidx>  (5) 
{}

>  <ordered_mapped_smiles>  (5) 
[S:1]([C:2]([CH2:3][CH2:4][H:7])[H:6])[H:5]

>  <level_of_theory>  (5) 
wb97xd/def2tzvp

>  <lot_method>  (5) 
wb97xd

>  <lot_basis>  (5) 
def2tzvp

>  <spin_multiplicity>  (5) 
2.0

>  <optical_isomers>  (5) 
1.0

>  <modes>  (5) 
IdealGasTranslation(mass=(70.9955, 'amu')),         NonlinearRotor(             inertia = ([14.9079, 166.925, 181.833

>  <frequency_value>  (5) 
unknown

>  <frequency_units>  (5) 
unknown

>  <frequency_list>  (5) 
unknown

>  <arkane_path>  (5) 
/home/calvin/Dropbox/PersonalFolders/Calvin/HAb_Converged/rxn_1292/output/Species/rxn_1292_S[CH]CtC/arkane/output.py

>  <path_exists>  (5) 
True

>  <E0_value>  (5) 
-1349941.413308029

>  <E0_units>  (5) 
kJ/mol

>  <thermo_class>  (5) 
NASA

>  <Cp0_value>  (5) 
33.257888

>  <Cp0_units>  (5) 
J/(mol*K)

>  <CpInf_value>  (5) 
157.97496800000002

>  <CpInf_units>  (5) 
J/(mol*K)

>  <Tmin_value>  (5) 
10.0

>  <Tmin_units>  (5) 
K

>  <Tmax_value>  (5) 
3000.0

>  <Tmax_units>  (5) 
K

>  <polynomials>  (5) 
[{"name": "polynomial1", "class": "NASAPolynomial", "Tmin_value": 10.0, "Tmin_units": "K", "Tmax_value": 486.65208178728574, "Tmax_units": "K", "coeffs": [3.8802951459672888, 0.007873604506352367, 9.419382974185595e-05, -2.421838422094103e-07, 1.77542717864309e-10, -162360446.73209924, 9.503452393902604]}, {"name": "polynomial2", "class": "NASAPolynomial", "Tmin_value": 486.65208178728574, "Tmin_units": "K", "Tmax_value": 3000.0, "Tmax_units": "K", "coeffs": [5.47913018219522, 0.01853455272341036, -1.203216244282249e-05, 3.83984951192902e-09, -4.735578092033837e-13, -162360884.20440963, 0.04560966254204442]}]

>  <H298_value>  (5) 
-322639.87448503025

>  <H298_units>  (5) 
kcal/mol

>  <S298_value>  (5) 
72.23945901825131

>  <S298_units>  (5) 
cal/(mol*K)

>  <Cp_T_value_list>  (5) 
[19.114846827611093, 22.14955743591332, 24.221562759830928, 25.905855360123407, 28.572496367656612, 30.499272110750873, 33.326843001689376, 34.89824152839212, 35.824105130276145]

>  <Cp_T_units>  (5) 
cal/(mol*K)

>  <T_list>  (5) 
[300.0, 400.0, 500.0, 600.0, 800.0, 1000.0, 1500.0, 2000.0, 2400.0]

>  <T_units>  (5) 
K

>  <yaml_path>  (5) 
/home/calvin/Dropbox/PersonalFolders/Calvin/HAb_Converged/rxn_1292/output/Species/rxn_1292_S[CH]CtC/rxn_1292_SCHCtC.yml

>  <frequencies_cm1>  (5) 
[185.14079121252, 248.73594226104, 394.82418795872, 492.5619900182799, 498.371459599, 555.60091525588, 690.8187231919999, 740.57689882072, 984.5334192990399, 1090.8961549205198, 1319.94445026912, 2052.8165915608, 2702.0831865814794, 3183.2253800126, 3431.48750028656]

>  <ZPE_kJmol>  (5) 
111.08297344706106

>  <E_elec_kJmol>  (5) 
-1350052.4962814762

>  <E0_minus_Eelec_plus_ZPE_kJmol>  (5) 
0.0

>  <rxn>  (5) 
rxn_1292

>  <species_type>  (5) 
r1

>  <species_folder>  (5) 
rxn_1292_S[CH]CtC

>  <frequencies_cm1_list>  (5) 
[185.14079121252, 248.73594226104, 394.82418795872, 492.5619900182799, 498.371459599, 555.60091525588, 690.8187231919999, 740.57689882072, 984.5334192990399, 1090.8961549205198, 1319.94445026912, 2052.8165915608, 2702.0831865814794, 3183.2253800126, 3431.48750028656]

>  <E0_kJmol>  (5) 
-1.34994e+06

>  <H298_kJmol>  (5) 
-1.34993e+06

$$$$
