
     RDKit          3D

  7  6  0  0  0  0  0  0  0  0999 V2000
   -0.3501   -0.6207    0.1787 C   0  0  0  0  0  0  0  0  0  1  0  0
    0.4004    0.5645   -0.2019 N   0  0  0  0  0  0  0  0  0  2  0  0
   -1.3853   -0.4294    0.4872 H   0  0  0  0  0  0  0  0  0  3  0  0
    0.1640   -1.1286    0.9957 H   0  0  0  0  0  0  0  0  0  4  0  0
   -0.3808   -1.3084   -0.6716 H   0  0  0  0  0  0  0  0  0  5  0  0
    0.3606    1.2010    0.5933 H   0  0  0  0  0  0  0  0  0  6  0  0
   -0.1448    1.0810   -0.8912 H   0  0  0  0  0  0  0  0  0  7  0  0
  1  5  1  0
  1  2  1  0
  1  4  1  0
  1  3  1  0
  2  6  1  0
  2  7  1  0
M  END
>  <rmg_smiles>  (1) 
CN

>  <rmg_adjacency_list>  (1) 
1 N u0 p1 c0 {2,S} {6,S} {7,S}
2 C u0 p0 c0 {1,S} {3,S} {4,S} {5,S}
3 H u0 p0 c0 {2,S}
4 H u0 p0 c0 {2,S}
5 H u0 p0 c0 {2,S}
6 H u0 p0 c0 {1,S}
7 H u0 p0 c0 {1,S}


>  <multiplicity>  (1) 
1

>  <reaction>  (1) 
rxn_685

>  <type>  (1) 
r1h

>  <role_mapnums>  (1) 
{"r1h_a": 2, "r1h_h": 6}

>  <role_mapidx>  (1) 
{"r1h_a": 1, "r1h_h": 5}

>  <ordered_mapped_smiles>  (1) 
[C:1]([N:2]([H:6])[H:7])([H:3])([H:4])[H:5]

>  <mol_properties>  (1) 
{"1": {"label": "donator", "atom_type": "N3s"}, "5": {"label": "d_hydrogen", "atom_type": "H0"}}

>  <level_of_theory>  (1) 
wb97xd/def2tzvp

>  <lot_method>  (1) 
wb97xd

>  <lot_basis>  (1) 
def2tzvp

>  <spin_multiplicity>  (1) 
1.0

>  <optical_isomers>  (1) 
1.0

>  <modes>  (1) 
IdealGasTranslation(mass=(31.0422, 'amu')),         NonlinearRotor(             inertia = ([4.85067, 22.0117, 22.9283

>  <frequency_value>  (1) 
unknown

>  <frequency_units>  (1) 
unknown

>  <frequency_list>  (1) 
unknown

>  <arkane_path>  (1) 
/home/calvin/Dropbox/PersonalFolders/Calvin/HAb_Converged/rxn_685/output/Species/rxn_685_CN/arkane/output.py

>  <path_exists>  (1) 
True

>  <E0_value>  (1) 
-251531.1758476112

>  <E0_units>  (1) 
kJ/mol

>  <thermo_class>  (1) 
NASA

>  <Cp0_value>  (1) 
33.257888

>  <Cp0_units>  (1) 
J/(mol*K)

>  <CpInf_value>  (1) 
157.97496800000002

>  <CpInf_units>  (1) 
J/(mol*K)

>  <Tmin_value>  (1) 
10.0

>  <Tmin_units>  (1) 
K

>  <Tmax_value>  (1) 
3000.0

>  <Tmax_units>  (1) 
K

>  <polynomials>  (1) 
[{"name": "polynomial1", "class": "NASAPolynomial", "Tmin_value": 10.0, "Tmin_units": "K", "Tmax_value": 844.457330959074, "Tmax_units": "K", "coeffs": [4.045321348954174, -0.0018534872955763757, 3.86717427561662e-05, -4.351987434804008e-08, 1.559009976195819e-11, -30252215.0253288, 5.050279959776207]}, {"name": "polynomial2", "class": "NASAPolynomial", "Tmin_value": 844.457330959074, "Tmin_units": "K", "Tmax_value": 3000.0, "Tmax_units": "K", "coeffs": [0.46356721214888474, 0.020411818745903653, -1.0291063603620473e-05, 2.565739407474925e-09, -2.534983395149771e-13, -30251799.04851106, 20.605866943730152]}]

>  <H298_value>  (1) 
-60114.6443671162

>  <H298_units>  (1) 
kcal/mol

>  <S298_value>  (1) 
57.44707257789568

>  <S298_units>  (1) 
cal/(mol*K)

>  <Cp_T_value_list>  (1) 
[11.766200427346103, 14.119578855233495, 16.535367105274606, 18.829259388171323, 22.685901866509315, 25.62813467296906, 30.40910304060071, 32.97350308463202, 34.246962218683784]

>  <Cp_T_units>  (1) 
cal/(mol*K)

>  <T_list>  (1) 
[300.0, 400.0, 500.0, 600.0, 800.0, 1000.0, 1500.0, 2000.0, 2400.0]

>  <T_units>  (1) 
K

>  <yaml_path>  (1) 
/home/calvin/Dropbox/PersonalFolders/Calvin/HAb_Converged/rxn_685/output/Species/rxn_685_CN/rxn_685_CN.yml

>  <frequencies_cm1>  (1) 
[303.90530232192, 825.76871870064, 973.5531097723599, 1077.4162627373598, 1162.408940043, 1336.34281121328, 1448.3021398705598, 1485.5280672902798, 1504.7418922156398, 1653.6456018945198, 2959.0389102705594, 3050.43161789444, 3088.82493281856, 3504.50415519412, 3583.0968021815197]

>  <ZPE_kJmol>  (1) 
167.22308888854585

>  <E_elec_kJmol>  (1) 
-251698.3989364997

>  <E0_minus_Eelec_plus_ZPE_kJmol>  (1) 
0.0

>  <rxn>  (1) 
rxn_685

>  <species_type>  (1) 
r1

>  <species_folder>  (1) 
rxn_685_CN

>  <frequencies_cm1_list>  (1) 
[303.90530232192, 825.76871870064, 973.5531097723599, 1077.4162627373598, 1162.408940043, 1336.34281121328, 1448.3021398705598, 1485.5280672902798, 1504.7418922156398, 1653.6456018945198, 2959.0389102705594, 3050.43161789444, 3088.82493281856, 3504.50415519412, 3583.0968021815197]

>  <E0_kJmol>  (1) 
-251531

>  <H298_kJmol>  (1) 
-251520

$$$$

     RDKit          3D

  5  4  0  0  0  0  0  0  0  0999 V2000
   -0.0102    0.0191    0.0236 C   0  0  0  0  0  0  0  0  0  1  0  0
   -1.0912   -0.0171    0.1224 H   0  0  0  0  0  0  0  0  0  2  0  0
    0.3695    0.9965   -0.2602 H   0  0  0  0  0  0  0  0  0  3  0  0
    0.5168   -0.4232    0.8647 H   0  0  0  0  0  0  0  0  0  4  0  0
    0.2602   -0.6272   -0.8066 H   0  0  0  0  0  0  0  0  0  5  0  0
  1  3  1  0
  1  5  1  0
  1  4  1  0
  1  2  1  0
M  END
>  <rmg_smiles>  (2) 
C

>  <rmg_adjacency_list>  (2) 
1 C u0 p0 c0 {2,S} {3,S} {4,S} {5,S}
2 H u0 p0 c0 {1,S}
3 H u0 p0 c0 {1,S}
4 H u0 p0 c0 {1,S}
5 H u0 p0 c0 {1,S}


>  <multiplicity>  (2) 
1

>  <reaction>  (2) 
rxn_685

>  <type>  (2) 
r2h

>  <role_mapnums>  (2) 
{"r2h_a": 1, "r2h_h": 5}

>  <role_mapidx>  (2) 
{"r2h_a": 0, "r2h_h": 4}

>  <ordered_mapped_smiles>  (2) 
[C:1]([H:2])([H:3])([H:4])[H:5]

>  <mol_properties>  (2) 
{"0": {"label": "acceptor", "atom_type": "Cs"}, "4": {"label": "a_hydrogen", "atom_type": "H0"}}

>  <level_of_theory>  (2) 
wb97xd/def2tzvp

>  <lot_method>  (2) 
wb97xd

>  <lot_basis>  (2) 
def2tzvp

>  <spin_multiplicity>  (2) 
1.0

>  <optical_isomers>  (2) 
1.0

>  <modes>  (2) 
IdealGasTranslation(mass=(16.0313, 'amu')),         NonlinearRotor(             inertia = ([3.18679, 3.18679, 3.18679

>  <frequency_value>  (2) 
unknown

>  <frequency_units>  (2) 
unknown

>  <frequency_list>  (2) 
unknown

>  <arkane_path>  (2) 
/home/calvin/Dropbox/PersonalFolders/Calvin/HAb_Converged/rxn_685/output/Species/rxn_685_C/arkane/output.py

>  <path_exists>  (2) 
True

>  <E0_value>  (2) 
-106268.5262916272

>  <E0_units>  (2) 
kJ/mol

>  <thermo_class>  (2) 
NASA

>  <Cp0_value>  (2) 
33.257888

>  <Cp0_units>  (2) 
J/(mol*K)

>  <CpInf_value>  (2) 
108.088136

>  <CpInf_units>  (2) 
J/(mol*K)

>  <Tmin_value>  (2) 
10.0

>  <Tmin_units>  (2) 
K

>  <Tmax_value>  (2) 
3000.0

>  <Tmax_units>  (2) 
K

>  <polynomials>  (2) 
[{"name": "polynomial1", "class": "NASAPolynomial", "Tmin_value": 10.0, "Tmin_units": "K", "Tmax_value": 616.7595780986624, "Tmax_units": "K", "coeffs": [4.041420799946622, -0.002477807655966685, 1.1290457802459216e-05, 3.700688819348292e-09, -9.366412561864162e-12, -12781153.318458663, -0.42637433538586406]}, {"name": "polynomial2", "class": "NASAPolynomial", "Tmin_value": 616.7595780986624, "Tmin_units": "K", "Tmax_value": 3000.0, "Tmax_units": "K", "coeffs": [0.6800320423470843, 0.011684066325645743, -4.5749540261290126e-06, 7.694671628924811e-10, -3.8768177461555664e-14, -12780593.404419335, 15.343675764562182]}]

>  <H298_value>  (2) 
-25396.41264990868

>  <H298_units>  (2) 
kcal/mol

>  <S298_value>  (2) 
44.46392088520575

>  <S298_units>  (2) 
cal/(mol*K)

>  <Cp_T_value_list>  (2) 
[8.621039065772948, 9.645572285350525, 10.934239595808906, 12.330144838344452, 14.859142397339834, 16.9306880471269, 20.49440393107996, 22.423230884533538, 23.291918246513866]

>  <Cp_T_units>  (2) 
cal/(mol*K)

>  <T_list>  (2) 
[300.0, 400.0, 500.0, 600.0, 800.0, 1000.0, 1500.0, 2000.0, 2400.0]

>  <T_units>  (2) 
K

>  <yaml_path>  (2) 
/home/calvin/Dropbox/PersonalFolders/Calvin/HAb_Converged/rxn_685/output/Species/rxn_685_C/rxn_685_C.yml

>  <frequencies_cm1>  (2) 
[1326.5504901469599, 1326.5504901469599, 1326.5504901469599, 1542.24249904816, 1542.24249904816, 3008.8382878112, 3127.32125252248, 3127.32125252248, 3127.32125252248]

>  <ZPE_kJmol>  (2) 
116.36640738144024

>  <E_elec_kJmol>  (2) 
-106384.89269900863

>  <E0_minus_Eelec_plus_ZPE_kJmol>  (2) 
0.0

>  <rxn>  (2) 
rxn_685

>  <species_type>  (2) 
p0

>  <species_folder>  (2) 
rxn_685_C

>  <frequencies_cm1_list>  (2) 
[1326.5504901469599, 1326.5504901469599, 1326.5504901469599, 1542.24249904816, 1542.24249904816, 3008.8382878112, 3127.32125252248, 3127.32125252248, 3127.32125252248]

>  <E0_kJmol>  (2) 
-106269

>  <H298_kJmol>  (2) 
-106259

$$$$

     RDKit          3D

 11  9  0  0  0  0  0  0  0  0999 V2000
    0.1990    1.5321    1.0322 C   0  0  0  0  0  3  0  0  0  1  0  0
   -0.8820    1.4959    1.1309 H   0  0  0  0  0  0  0  0  0  2  0  0
    0.5787    2.5095    0.7483 H   0  0  0  0  0  0  0  0  0  3  0  0
    0.7260    1.0898    1.8732 H   0  0  0  0  0  0  0  0  0  4  0  0
   -0.1675   -1.2247   -0.5790 C   0  0  0  0  0  0  0  0  0  5  0  0
    0.5831   -0.0395   -0.9597 N   0  0  0  0  0  0  0  0  0  6  0  0
   -1.2026   -1.0334   -0.2706 H   0  0  0  0  0  0  0  0  0  7  0  0
    0.3467   -1.7326    0.2380 H   0  0  0  0  0  0  0  0  0  8  0  0
   -0.1981   -1.9124   -1.4293 H   0  0  0  0  0  0  0  0  0  9  0  0
    0.5350    0.7287    0.0002 H   0  0  0  0  0  0  0  0  0 10  0  0
    0.0379    0.4770   -1.6489 H   0  0  0  0  0  0  0  0  0 11  0  0
  1  4  1  0
  1  3  1  0
  1  2  1  0
  5  6  1  0
  5  8  1  0
  5  7  1  0
  5  9  1  0
  6 10  1  0
  6 11  1  0
M  RAD  1   1   2
M  END
>  <rmg_smiles>  (3) 
CN.[CH3]

>  <rmg_adjacency_list>  (3) 
multiplicity 2
1  N u0 p1 c0 {2,S} {7,S} {8,S}
2  C u0 p0 c0 {1,S} {4,S} {5,S} {6,S}
3  C u1 p0 c0 {9,S} {10,S} {11,S}
4  H u0 p0 c0 {2,S}
5  H u0 p0 c0 {2,S}
6  H u0 p0 c0 {2,S}
7  H u0 p0 c0 {1,S}
8  H u0 p0 c0 {1,S}
9  H u0 p0 c0 {3,S}
10 H u0 p0 c0 {3,S}
11 H u0 p0 c0 {3,S}


>  <multiplicity>  (3) 
2

>  <reaction>  (3) 
rxn_685

>  <type>  (3) 
ts

>  <role_mapnums>  (3) 
{"*2": 10, "*1": 6, "*3": 1, "*0": 5, "*4": 2}

>  <role_mapidx>  (3) 
{"*2": 9, "*1": 5, "*3": 0, "*0": 4, "*4": 1}

>  <ordered_mapped_smiles>  (3) 
[C:1]([H:2])([H:3])[H:4].[C:5]([N:6]([H:10])[H:11])([H:7])([H:8])[H:9]

>  <mol_properties>  (3) 
{"0": {"label": "*3", "atom_type": "Cs"}, "1": {"label": "*4", "atom_type": "H0"}, "4": {"label": "*0", "atom_type": "Cs"}, "5": {"label": "*1", "atom_type": "N3s"}, "9": {"label": "*2", "atom_type": "H0"}}

>  <level_of_theory>  (3) 
wb97xd/def2tzvp

>  <lot_method>  (3) 
wb97xd

>  <lot_basis>  (3) 
def2tzvp

>  <spin_multiplicity>  (3) 
2.0

>  <optical_isomers>  (3) 
2.0

>  <modes>  (3) 
IdealGasTranslation(mass=(46.0657, 'amu')),         NonlinearRotor(             inertia = ([20.3116, 94.205, 106.413

>  <frequency_value>  (3) 
-1824.53

>  <frequency_units>  (3) 
cm^-1

>  <frequency_list>  (3) 
unknown

>  <arkane_path>  (3) 
/home/calvin/Dropbox/PersonalFolders/Calvin/HAb_Converged/rxn_685/output/rxns/TS0/arkane/output.py

>  <path_exists>  (3) 
True

>  <E0_value>  (3) 
-356010.0

>  <E0_units>  (3) 
kJ/mol

>  <thermo_class>  (3) 
unknown

>  <Cp0_value>  (3) 
unknown

>  <Cp0_units>  (3) 
unknown

>  <CpInf_value>  (3) 
unknown

>  <CpInf_units>  (3) 
unknown

>  <Tmin_value>  (3) 
unknown

>  <Tmin_units>  (3) 
unknown

>  <Tmax_value>  (3) 
unknown

>  <Tmax_units>  (3) 
unknown

>  <polynomials>  (3) 
unknown

>  <H298_value>  (3) 
unknown

>  <H298_units>  (3) 
unknown

>  <S298_value>  (3) 
unknown

>  <S298_units>  (3) 
unknown

>  <Cp_T_value_list>  (3) 
unknown

>  <Cp_T_units>  (3) 
unknown

>  <T_list>  (3) 
unknown

>  <T_units>  (3) 
unknown

>  <yaml_path>  (3) 
unknown

>  <frequencies_cm1>  (3) 
unknown

>  <ZPE_kJmol>  (3) 
unknown

>  <E_elec_kJmol>  (3) 
unknown

>  <E0_minus_Eelec_plus_ZPE_kJmol>  (3) 
unknown

>  <rxn>  (3) 
unknown

>  <species_type>  (3) 
unknown

>  <species_folder>  (3) 
unknown

>  <frequencies_cm1_list>  (3) 
[]

>  <ts_imag_freq_cm1>  (3) 
-1846.6927

>  <ts_freq_out_path>  (3) 
/home/calvin/Dropbox/PersonalFolders/Calvin/HAb_Converged/rxn_685/output/rxns/TS0/geometry/freq.out

>  <E0_kJmol>  (3) 
-356010

>  <H298_kJmol>  (3) 
unknown

$$$$

     RDKit          3D

  6  5  0  0  0  0  0  0  0  0999 V2000
   -0.3666    0.0231   -0.0032 C   0  0  0  0  0  0  0  0  0  1  0  0
    0.9606    0.5585   -0.0556 N   0  0  0  0  0  2  0  0  0  2  0  0
   -0.5367   -0.7050   -0.8097 H   0  0  0  0  0  0  0  0  0  3  0  0
   -1.1217    0.8102   -0.1439 H   0  0  0  0  0  0  0  0  0  4  0  0
   -0.5467   -0.4669    0.9537 H   0  0  0  0  0  0  0  0  0  5  0  0
    1.0694    1.0027   -0.9708 H   0  0  0  0  0  0  0  0  0  6  0  0
  1  5  1  0
  1  2  1  0
  1  4  1  0
  1  3  1  0
  2  6  1  0
M  RAD  1   2   2
M  END
>  <rmg_smiles>  (4) 
C[NH]

>  <rmg_adjacency_list>  (4) 
multiplicity 2
1 N u1 p1 c0 {2,S} {6,S}
2 C u0 p0 c0 {1,S} {3,S} {4,S} {5,S}
3 H u0 p0 c0 {2,S}
4 H u0 p0 c0 {2,S}
5 H u0 p0 c0 {2,S}
6 H u0 p0 c0 {1,S}


>  <multiplicity>  (4) 
2

>  <reaction>  (4) 
rxn_685

>  <type>  (4) 
r1

>  <role_mapnums>  (4) 
{}

>  <role_mapidx>  (4) 
{}

>  <ordered_mapped_smiles>  (4) 
[C:1]([N:2][H:6])([H:3])([H:4])[H:5]

>  <level_of_theory>  (4) 
wb97xd/def2tzvp

>  <lot_method>  (4) 
wb97xd

>  <lot_basis>  (4) 
def2tzvp

>  <spin_multiplicity>  (4) 
2.0

>  <optical_isomers>  (4) 
1.0

>  <modes>  (4) 
IdealGasTranslation(mass=(30.0344, 'amu')),         NonlinearRotor(             inertia = ([4.03104, 19.6958, 20.6214

>  <frequency_value>  (4) 
unknown

>  <frequency_units>  (4) 
unknown

>  <frequency_list>  (4) 
unknown

>  <arkane_path>  (4) 
/home/calvin/Dropbox/PersonalFolders/Calvin/HAb_Converged/rxn_685/output/Species/rxn_685_C[NH]/arkane/output.py

>  <path_exists>  (4) 
True

>  <E0_value>  (4) 
-249811.5606516403

>  <E0_units>  (4) 
kJ/mol

>  <thermo_class>  (4) 
NASA

>  <Cp0_value>  (4) 
33.257888

>  <Cp0_units>  (4) 
J/(mol*K)

>  <CpInf_value>  (4) 
133.031552

>  <CpInf_units>  (4) 
J/(mol*K)

>  <Tmin_value>  (4) 
10.0

>  <Tmin_units>  (4) 
K

>  <Tmax_value>  (4) 
3000.0

>  <Tmax_units>  (4) 
K

>  <polynomials>  (4) 
[{"name": "polynomial1", "class": "NASAPolynomial", "Tmin_value": 10.0, "Tmin_units": "K", "Tmax_value": 643.0930062557669, "Tmax_units": "K", "coeffs": [4.008207357149749, -0.000661325507016732, 3.213656628417888e-05, -4.009774721118843e-08, 1.621681697645045e-11, -30045390.88826305, 5.665877920467148]}, {"name": "polynomial2", "class": "NASAPolynomial", "Tmin_value": 643.0930062557669, "Tmin_units": "K", "Tmax_value": 3000.0, "Tmax_units": "K", "coeffs": [1.1982503044525954, 0.016817031965378707, -8.632692887616999e-06, 2.167411454134875e-09, -2.1416255848684153e-13, -30045029.487776015, 17.981700803594833]}]

>  <H298_value>  (4) 
-59703.65945019737

>  <H298_units>  (4) 
kcal/mol

>  <S298_value>  (4) 
58.44200376388543

>  <S298_units>  (4) 
cal/(mol*K)

>  <Cp_T_value_list>  (4) 
[11.428062345937153, 13.382688078572677, 15.32736116954841, 17.13202916777426, 20.168051686137098, 22.52665151955416, 26.292838432504812, 28.246616982879214, 29.195466054018723]

>  <Cp_T_units>  (4) 
cal/(mol*K)

>  <T_list>  (4) 
[300.0, 400.0, 500.0, 600.0, 800.0, 1000.0, 1500.0, 2000.0, 2400.0]

>  <T_units>  (4) 
K

>  <yaml_path>  (4) 
/home/calvin/Dropbox/PersonalFolders/Calvin/HAb_Converged/rxn_685/output/Species/rxn_685_C[NH]/rxn_685_CNH.yml

>  <frequencies_cm1>  (4) 
[263.520561655, 947.6645751159599, 1007.53782012104, 1065.1174920292399, 1324.5384634482, 1384.39797448264, 1465.9228242016798, 1472.52886407952, 2940.7383943927603, 2985.43560184064, 3082.54164125076, 3398.34056214692]

>  <ZPE_kJmol>  (4) 
127.63132287184132

>  <E_elec_kJmol>  (4) 
-249939.19197451213

>  <E0_minus_Eelec_plus_ZPE_kJmol>  (4) 
0.0

>  <rxn>  (4) 
rxn_685

>  <species_type>  (4) 
p1

>  <species_folder>  (4) 
rxn_685_C[NH]

>  <frequencies_cm1_list>  (4) 
[263.520561655, 947.6645751159599, 1007.53782012104, 1065.1174920292399, 1324.5384634482, 1384.39797448264, 1465.9228242016798, 1472.52886407952, 2940.7383943927603, 2985.43560184064, 3082.54164125076, 3398.34056214692]

>  <E0_kJmol>  (4) 
-249812

>  <H298_kJmol>  (4) 
-249800

$$$$

     RDKit          3D

  4  3  0  0  0  0  0  0  0  0999 V2000
    0.0000    0.0000    0.0000 C   0  0  0  0  0  3  0  0  0  1  0  0
    1.0638   -0.1747    0.0540 H   0  0  0  0  0  0  0  0  0  2  0  0
   -0.6833   -0.8351   -0.0280 H   0  0  0  0  0  0  0  0  0  3  0  0
   -0.3805    1.0098   -0.0260 H   0  0  0  0  0  0  0  0  0  4  0  0
  1  3  1  0
  1  4  1  0
  1  2  1  0
M  RAD  1   1   2
M  END
>  <rmg_smiles>  (5) 
[CH3]

>  <rmg_adjacency_list>  (5) 
multiplicity 2
1 C u1 p0 c0 {2,S} {3,S} {4,S}
2 H u0 p0 c0 {1,S}
3 H u0 p0 c0 {1,S}
4 H u0 p0 c0 {1,S}


>  <multiplicity>  (5) 
2

>  <reaction>  (5) 
rxn_685

>  <type>  (5) 
r2

>  <role_mapnums>  (5) 
{}

>  <role_mapidx>  (5) 
{}

>  <ordered_mapped_smiles>  (5) 
[C:1]([H:2])([H:3])[H:4]

>  <level_of_theory>  (5) 
wb97xd/def2tzvp

>  <lot_method>  (5) 
wb97xd

>  <lot_basis>  (5) 
def2tzvp

>  <spin_multiplicity>  (5) 
2.0

>  <optical_isomers>  (5) 
1.0

>  <modes>  (5) 
IdealGasTranslation(mass=(15.0235, 'amu')),         NonlinearRotor(             inertia = ([1.76141, 1.76141, 3.52282

>  <frequency_value>  (5) 
unknown

>  <frequency_units>  (5) 
unknown

>  <frequency_list>  (5) 
unknown

>  <arkane_path>  (5) 
/home/calvin/Dropbox/PersonalFolders/Calvin/HAb_Converged/rxn_685/output/Species/rxn_685_[CH3]/arkane/output.py

>  <path_exists>  (5) 
True

>  <E0_value>  (5) 
-104520.13119505512

>  <E0_units>  (5) 
kJ/mol

>  <thermo_class>  (5) 
NASA

>  <Cp0_value>  (5) 
33.257888

>  <Cp0_units>  (5) 
J/(mol*K)

>  <CpInf_value>  (5) 
83.14472

>  <CpInf_units>  (5) 
J/(mol*K)

>  <Tmin_value>  (5) 
10.0

>  <Tmin_units>  (5) 
K

>  <Tmax_value>  (5) 
3000.0

>  <Tmax_units>  (5) 
K

>  <polynomials>  (5) 
[{"name": "polynomial1", "class": "NASAPolynomial", "Tmin_value": 10.0, "Tmin_units": "K", "Tmax_value": 646.6680568167106, "Tmax_units": "K", "coeffs": [3.9912271000461548, 0.0004274218009639198, 9.38132315134313e-06, -1.0944874554220949e-08, 4.263406085556096e-12, -12570867.748368958, 0.20527673099681187]}, {"name": "polynomial2", "class": "NASAPolynomial", "Tmin_value": 646.6680568167106, "Tmin_units": "K", "Tmax_value": 3000.0, "Tmax_units": "K", "coeffs": [3.2488827598675174, 0.0050187516265713635, -1.2675301815554908e-06, 3.215102013021586e-11, 2.0164394281080815e-14, -12570771.728238096, 3.4631324604304954]}]

>  <H298_value>  (5) 
-24978.383291331436

>  <H298_units>  (5) 
kcal/mol

>  <S298_value>  (5) 
46.49953999396709

>  <S298_units>  (5) 
cal/(mol*K)

>  <Cp_T_value_list>  (5) 
[9.345424201068383, 10.07887042200736, 10.827537754048599, 11.552428339520182, 12.871902382304132, 14.014614114932202, 16.167234911840477, 17.479674567657305, 18.096247059343543]

>  <Cp_T_units>  (5) 
cal/(mol*K)

>  <T_list>  (5) 
[300.0, 400.0, 500.0, 600.0, 800.0, 1000.0, 1500.0, 2000.0, 2400.0]

>  <T_units>  (5) 
K

>  <yaml_path>  (5) 
/home/calvin/Dropbox/PersonalFolders/Calvin/HAb_Converged/rxn_685/output/Species/rxn_685_[CH3]/rxn_685_CH3.yml

>  <frequencies_cm1>  (5) 
[520.22220688724, 1393.4280601784399, 1393.43492716376, 3088.8592677451597, 3268.6163424668, 3268.6232094521197]

>  <ZPE_kJmol>  (5) 
77.35764153782172

>  <E_elec_kJmol>  (5) 
-104597.48883659294

>  <E0_minus_Eelec_plus_ZPE_kJmol>  (5) 
0.0

>  <rxn>  (5) 
rxn_685

>  <species_type>  (5) 
r0

>  <species_folder>  (5) 
rxn_685_[CH3]

>  <frequencies_cm1_list>  (5) 
[520.22220688724, 1393.4280601784399, 1393.43492716376, 3088.8592677451597, 3268.6163424668, 3268.6232094521197]

>  <E0_kJmol>  (5) 
-104520

>  <H298_kJmol>  (5) 
-104510

$$$$
