
     RDKit          3D

  8  7  0  0  0  0  0  0  0  0999 V2000
    0.7120   -0.2061   -0.1222 C   0  0  0  0  0  0  0  0  0  1  0  0
   -0.7194    0.1608    0.0921 C   0  0  0  0  0  0  0  0  0  2  0  0
    1.2664    0.6117   -0.5871 H   0  0  0  0  0  0  0  0  0  3  0  0
    1.2020   -0.4643    0.8182 H   0  0  0  0  0  0  0  0  0  4  0  0
    0.7976   -1.0740   -0.7854 H   0  0  0  0  0  0  0  0  0  5  0  0
   -0.6323    1.0516    0.7071 H   0  0  0  0  0  0  0  0  0  6  0  0
   -1.3142   -0.4820    0.7342 H   0  0  0  0  0  0  0  0  0  7  0  0
   -1.2628    0.5710   -0.7540 H   0  0  0  0  0  0  0  0  0  8  0  0
  1  5  1  0
  1  4  1  0
  1  3  1  0
  1  2  1  0
  2  8  1  0
  2  7  1  0
  2  6  1  0
M  END
>  <rmg_smiles>  (1) 
CC

>  <rmg_adjacency_list>  (1) 
1 C u0 p0 c0 {2,S} {3,S} {4,S} {5,S}
2 C u0 p0 c0 {1,S} {6,S} {7,S} {8,S}
3 H u0 p0 c0 {1,S}
4 H u0 p0 c0 {1,S}
5 H u0 p0 c0 {1,S}
6 H u0 p0 c0 {2,S}
7 H u0 p0 c0 {2,S}
8 H u0 p0 c0 {2,S}


>  <multiplicity>  (1) 
1

>  <reaction>  (1) 
rxn_899

>  <type>  (1) 
r1h

>  <role_mapnums>  (1) 
{"r1h_a": 2, "r1h_h": 6}

>  <role_mapidx>  (1) 
{"r1h_a": 1, "r1h_h": 5}

>  <ordered_mapped_smiles>  (1) 
[C:1]([C:2]([H:6])([H:7])[H:8])([H:3])([H:4])[H:5]

>  <mol_properties>  (1) 
{"1": {"label": "donator", "atom_type": "Cs"}, "5": {"label": "d_hydrogen", "atom_type": "H0"}}

>  <level_of_theory>  (1) 
wb97xd/def2tzvp

>  <lot_method>  (1) 
wb97xd

>  <lot_basis>  (1) 
def2tzvp

>  <spin_multiplicity>  (1) 
1.0

>  <optical_isomers>  (1) 
1.0

>  <modes>  (1) 
IdealGasTranslation(mass=(30.0469, 'amu')),         NonlinearRotor(             inertia = ([6.25566, 25.1393, 25.1393

>  <frequency_value>  (1) 
unknown

>  <frequency_units>  (1) 
unknown

>  <frequency_list>  (1) 
unknown

>  <arkane_path>  (1) 
/home/calvin/Dropbox/PersonalFolders/Calvin/HAb_Converged/rxn_899/output/Species/rxn_899_CC/arkane/output.py

>  <path_exists>  (1) 
True

>  <E0_value>  (1) 
-209409.0952137841

>  <E0_units>  (1) 
kJ/mol

>  <thermo_class>  (1) 
NASA

>  <Cp0_value>  (1) 
33.257888

>  <Cp0_units>  (1) 
J/(mol*K)

>  <CpInf_value>  (1) 
182.918384

>  <CpInf_units>  (1) 
J/(mol*K)

>  <Tmin_value>  (1) 
10.0

>  <Tmin_units>  (1) 
K

>  <Tmax_value>  (1) 
3000.0

>  <Tmax_units>  (1) 
K

>  <polynomials>  (1) 
[{"name": "polynomial1", "class": "NASAPolynomial", "Tmin_value": 10.0, "Tmin_units": "K", "Tmax_value": 746.6686841225998, "Tmax_units": "K", "coeffs": [4.05949155328205, -0.003835565665241399, 5.3186040380635144e-05, -6.162047637406245e-08, 2.3242210517060023e-11, -25186098.42214424, 3.537324504259843]}, {"name": "polynomial2", "class": "NASAPolynomial", "Tmin_value": 746.6686841225998, "Tmin_units": "K", "Tmax_value": 3000.0, "Tmax_units": "K", "coeffs": [-1.046496014036793, 0.026500176421266477, -1.3747367898389822e-05, 3.490635384402257e-09, -3.493819827122593e-13, -25185419.059970565, 26.122432242478077]}]

>  <H298_value>  (1) 
-50047.2003571238

>  <H298_units>  (1) 
kcal/mol

>  <S298_value>  (1) 
54.420548043106656

>  <S298_units>  (1) 
cal/(mol*K)

>  <Cp_T_value_list>  (1) 
[12.360572544544063, 15.274308747535915, 18.259044378417013, 21.07888414556187, 25.832548078118208, 29.50517950077797, 35.34115403896942, 38.351806873475496, 39.80767330504735]

>  <Cp_T_units>  (1) 
cal/(mol*K)

>  <T_list>  (1) 
[300.0, 400.0, 500.0, 600.0, 800.0, 1000.0, 1500.0, 2000.0, 2400.0]

>  <T_units>  (1) 
K

>  <yaml_path>  (1) 
/home/calvin/Dropbox/PersonalFolders/Calvin/HAb_Converged/rxn_899/output/Species/rxn_899_CC/rxn_899_CC.yml

>  <frequencies_cm1>  (1) 
[304.49586305944, 822.3970289085198, 822.4107628791601, 1005.43652261312, 1210.79371860772, 1210.8005855930398, 1393.77140944444, 1414.4616362136, 1489.39418002544, 1489.4010470107598, 1490.3006220876798, 1490.3006220876798, 3015.21771717348, 3016.07609033848, 3072.8111230523195, 3072.8179900376404, 3096.4266855677993, 3096.4335525531196]

>  <ZPE_kJmol>  (1) 
194.47545128409476

>  <E_elec_kJmol>  (1) 
-209603.57066506823

>  <E0_minus_Eelec_plus_ZPE_kJmol>  (1) 
0.0

>  <rxn>  (1) 
rxn_899

>  <species_type>  (1) 
r1

>  <species_folder>  (1) 
rxn_899_CC

>  <frequencies_cm1_list>  (1) 
[304.49586305944, 822.3970289085198, 822.4107628791601, 1005.43652261312, 1210.79371860772, 1210.8005855930398, 1393.77140944444, 1414.4616362136, 1489.39418002544, 1489.4010470107598, 1490.3006220876798, 1490.3006220876798, 3015.21771717348, 3016.07609033848, 3072.8111230523195, 3072.8179900376404, 3096.4266855677993, 3096.4335525531196]

>  <E0_kJmol>  (1) 
-209409

>  <H298_kJmol>  (1) 
-209397

$$$$

     RDKit          3D

 11 10  0  0  0  0  0  0  0  0999 V2000
   -1.6795    0.3282   -0.4104 C   0  0  0  0  0  0  0  0  0  1  0  0
   -0.4644   -0.4790   -0.0159 C   0  0  0  0  0  0  0  0  0  2  0  0
    0.8596    0.0509   -0.3414 C   0  0  0  0  0  0  0  0  0  3  0  0
    1.1875    1.2739   -1.3555 S   0  0  0  0  0  0  0  0  0  4  0  0
   -0.5410   -1.2215    1.6360 S   0  0  0  0  0  0  0  0  0  5  0  0
   -1.7389    1.2464    0.1781 H   0  0  0  0  0  0  0  0  0  6  0  0
   -1.6216    0.6133   -1.4611 H   0  0  0  0  0  0  0  0  0  7  0  0
   -2.5859   -0.2515   -0.2400 H   0  0  0  0  0  0  0  0  0  8  0  0
    1.6798   -0.4834    0.1375 H   0  0  0  0  0  0  0  0  0  9  0  0
   -0.4104   -0.0817    2.3307 H   0  0  0  0  0  0  0  0  0 10  0  0
   -0.5287   -1.3849   -0.6187 H   0  0  0  0  0  0  0  0  0 11  0  0
  1  8  1  0
  1  7  1  0
  1  6  1  0
  1  2  1  0
  2 11  1  0
  2  5  1  0
  2  3  1  0
  3  9  1  0
  3  4  1  0
  5 10  1  0
M  END
>  <rmg_smiles>  (2) 
[S][CH]C(S)C

>  <rmg_adjacency_list>  (2) 
1  S u0 p2 c0 {3,S} {11,S}
2  S u0 p2 c0 {5,S}
3  C u0 p0 c0 {1,S} {4,S} {5,S} {6,S}
4  C u0 p0 c0 {3,S} {7,S} {8,S} {9,S}
5  C u0 p0 c0 {2,S} {3,S} {10,S}
6  H u0 p0 c0 {3,S}
7  H u0 p0 c0 {4,S}
8  H u0 p0 c0 {4,S}
9  H u0 p0 c0 {4,S}
10 H u0 p0 c0 {5,S}
11 H u0 p0 c0 {1,S}


>  <multiplicity>  (2) 
1

>  <reaction>  (2) 
rxn_899

>  <type>  (2) 
r2h

>  <role_mapnums>  (2) 
{"r2h_a": 2, "r2h_h": 11}

>  <role_mapidx>  (2) 
{"r2h_a": 1, "r2h_h": 10}

>  <ordered_mapped_smiles>  (2) 
[C:1]([C:2]([CH:3]([SH:4])[H:9])([S:5][H:10])[H:11])([H:6])([H:7])[H:8]

>  <mol_properties>  (2) 
{"1": {"label": "acceptor", "atom_type": "Cs"}, "10": {"label": "a_hydrogen", "atom_type": "H0"}}

>  <level_of_theory>  (2) 
wb97xd/def2tzvp

>  <lot_method>  (2) 
wb97xd

>  <lot_basis>  (2) 
def2tzvp

>  <spin_multiplicity>  (2) 
1.0

>  <optical_isomers>  (2) 
2.0

>  <modes>  (2) 
IdealGasTranslation(mass=(105.991, 'amu')),         NonlinearRotor(             inertia = ([89.5708, 281.116, 334.996

>  <frequency_value>  (2) 
unknown

>  <frequency_units>  (2) 
unknown

>  <frequency_list>  (2) 
unknown

>  <arkane_path>  (2) 
/home/calvin/Dropbox/PersonalFolders/Calvin/HAb_Converged/rxn_899/output/Species/rxn_899_CC[C=S]S/arkane/output.py

>  <path_exists>  (2) 
True

>  <E0_value>  (2) 
-2400319.162228284

>  <E0_units>  (2) 
kJ/mol

>  <thermo_class>  (2) 
NASA

>  <Cp0_value>  (2) 
33.257888

>  <Cp0_units>  (2) 
J/(mol*K)

>  <CpInf_value>  (2) 
257.748632

>  <CpInf_units>  (2) 
J/(mol*K)

>  <Tmin_value>  (2) 
10.0

>  <Tmin_units>  (2) 
K

>  <Tmax_value>  (2) 
3000.0

>  <Tmax_units>  (2) 
K

>  <polynomials>  (2) 
[{"name": "polynomial1", "class": "NASAPolynomial", "Tmin_value": 10.0, "Tmin_units": "K", "Tmax_value": 213.3428365177288, "Tmax_units": "K", "coeffs": [3.8247536777855875, 0.017151661039531946, 0.0001271021828908449, -4.6488747379545374e-07, 5.523324360529866e-10, -288691715.4758794, 11.853392235392128]}, {"name": "polynomial2", "class": "NASAPolynomial", "Tmin_value": 213.3428365177288, "Tmin_units": "K", "Tmax_value": 3000.0, "Tmax_units": "K", "coeffs": [2.678743717831134, 0.03863806708059261, -2.3965105109095725e-05, 7.169663786122436e-09, -8.265503532835025e-13, -288691666.57653993, 15.611826052912015]}]

>  <H298_value>  (2) 
-573685.353787409

>  <H298_units>  (2) 
kcal/mol

>  <S298_value>  (2) 
82.23962747696542

>  <S298_units>  (2) 
cal/(mol*K)

>  <Cp_T_value_list>  (2) 
[24.443018020947996, 29.285964025660572, 33.4865152276792, 37.11241795857413, 42.89155301844894, 47.086498598547244, 53.11318487748382, 56.092802545780735, 57.751349697154865]

>  <Cp_T_units>  (2) 
cal/(mol*K)

>  <T_list>  (2) 
[300.0, 400.0, 500.0, 600.0, 800.0, 1000.0, 1500.0, 2000.0, 2400.0]

>  <T_units>  (2) 
K

>  <yaml_path>  (2) 
/home/calvin/Dropbox/PersonalFolders/Calvin/HAb_Converged/rxn_899/output/Species/rxn_899_CC[C=S]S/rxn_899_CCC=SS.yml

>  <frequencies_cm1>  (2) 
[78.0776230884, 237.83116957288, 246.27756151647998, 261.803815325, 307.07098255444, 347.94327917908, 536.8403113616399, 647.2133664099999, 834.3799182919199, 854.93280535468, 904.74591686596, 1011.0331156489199, 1061.16897547024, 1102.98891606904, 1189.20391676164, 1225.11138299992, 1326.20714088096, 1372.0717358332397, 1412.7036879716798, 1470.8601866467598, 1475.4954017377597, 2690.43677947876, 3024.5224822820796, 3028.22378736956, 3082.0197503664394, 3103.4310105942004, 3117.84481278088]

>  <ZPE_kJmol>  (2) 
215.03144428280424

>  <E_elec_kJmol>  (2) 
-2400534.1936725667

>  <E0_minus_Eelec_plus_ZPE_kJmol>  (2) 
0.0

>  <rxn>  (2) 
rxn_899

>  <species_type>  (2) 
p0

>  <species_folder>  (2) 
rxn_899_CC[C=S]S

>  <frequencies_cm1_list>  (2) 
[78.0776230884, 237.83116957288, 246.27756151647998, 261.803815325, 307.07098255444, 347.94327917908, 536.8403113616399, 647.2133664099999, 834.3799182919199, 854.93280535468, 904.74591686596, 1011.0331156489199, 1061.16897547024, 1102.98891606904, 1189.20391676164, 1225.11138299992, 1326.20714088096, 1372.0717358332397, 1412.7036879716798, 1470.8601866467598, 1475.4954017377597, 2690.43677947876, 3024.5224822820796, 3028.22378736956, 3082.0197503664394, 3103.4310105942004, 3117.84481278088]

>  <E0_kJmol>  (2) 
-2.40032e+06

>  <H298_kJmol>  (2) 
-2.4003e+06

$$$$

     RDKit          3D

 18 16  0  0  0  0  0  0  0  0999 V2000
   -1.6569    0.8743   -0.4812 C   0  0  0  0  0  0  0  0  0  1  0  0
   -0.4418    0.0670   -0.0867 C   0  0  0  0  0  0  0  0  0  2  0  0
    0.8823    0.5969   -0.4121 C   0  0  0  0  0  0  0  0  0  3  0  0
    1.2101    1.8199   -1.4263 S   0  0  0  0  0  0  0  0  0  4  0  0
   -0.5184   -0.6755    1.5652 S   0  0  0  0  0  0  0  0  0  5  0  0
   -1.7162    1.7925    0.1073 H   0  0  0  0  0  0  0  0  0  6  0  0
   -1.5990    1.1594   -1.5318 H   0  0  0  0  0  0  0  0  0  7  0  0
   -2.5633    0.2946   -0.3108 H   0  0  0  0  0  0  0  0  0  8  0  0
    1.7025    0.0626    0.0667 H   0  0  0  0  0  0  0  0  0  9  0  0
   -0.3878    0.4643    2.2599 H   0  0  0  0  0  0  0  0  0 10  0  0
    0.7971   -2.5517   -1.8297 C   0  0  0  0  0  0  0  0  0 11  0  0
   -0.6343   -2.1848   -1.6155 C   0  0  0  0  0  3  0  0  0 12  0  0
    1.3515   -1.7339   -2.2947 H   0  0  0  0  0  0  0  0  0 13  0  0
    1.2871   -2.8099   -0.8894 H   0  0  0  0  0  0  0  0  0 14  0  0
    0.8827   -3.4196   -2.4930 H   0  0  0  0  0  0  0  0  0 15  0  0
   -0.5153   -0.9680   -0.7754 H   0  0  0  0  0  0  0  0  0 16  0  0
   -1.2291   -2.8276   -0.9734 H   0  0  0  0  0  0  0  0  0 17  0  0
   -1.1777   -1.7746   -2.4616 H   0  0  0  0  0  0  0  0  0 18  0  0
  1  8  1  0
  1  7  1  0
  1  6  1  0
  1  2  1  0
  2 16  1  0
  2  5  1  0
  2  3  1  0
  3  9  1  0
  3  4  1  0
  5 10  1  0
 11 14  1  0
 11 12  1  0
 11 15  1  0
 11 13  1  0
 12 17  1  0
 12 18  1  0
M  RAD  1  12   2
M  END
>  <rmg_smiles>  (3) 
[S][CH]C(S)C.[CH2]C

>  <rmg_adjacency_list>  (3) 
multiplicity 2
1  S u0 p2 c0 {3,S} {18,S}
2  S u0 p2 c0 {6,S}
3  C u0 p0 c0 {1,S} {4,S} {6,S} {8,S}
4  C u0 p0 c0 {3,S} {9,S} {10,S} {11,S}
5  C u0 p0 c0 {7,S} {12,S} {13,S} {14,S}
6  C u0 p0 c0 {2,S} {3,S} {15,S}
7  C u1 p0 c0 {5,S} {16,S} {17,S}
8  H u0 p0 c0 {3,S}
9  H u0 p0 c0 {4,S}
10 H u0 p0 c0 {4,S}
11 H u0 p0 c0 {4,S}
12 H u0 p0 c0 {5,S}
13 H u0 p0 c0 {5,S}
14 H u0 p0 c0 {5,S}
15 H u0 p0 c0 {6,S}
16 H u0 p0 c0 {7,S}
17 H u0 p0 c0 {7,S}
18 H u0 p0 c0 {1,S}


>  <multiplicity>  (3) 
2

>  <reaction>  (3) 
rxn_899

>  <type>  (3) 
ts

>  <role_mapnums>  (3) 
{"*2": 16, "*1": 2, "*3": 12, "*0": 3, "*4": 11}

>  <role_mapidx>  (3) 
{"*2": 15, "*1": 1, "*3": 11, "*0": 2, "*4": 10}

>  <ordered_mapped_smiles>  (3) 
[C:1]([C:2]([CH:3]([SH:4])[H:9])([S:5][H:10])[H:16])([H:6])([H:7])[H:8].[C:11]([C:12]([H:17])[H:18])([H:13])([H:14])[H:15]

>  <mol_properties>  (3) 
{"1": {"label": "*1", "atom_type": "Cs"}, "2": {"label": "*0", "atom_type": "Cs"}, "10": {"label": "*4", "atom_type": "Cs"}, "11": {"label": "*3", "atom_type": "Cs"}, "15": {"label": "*2", "atom_type": "H0"}}

>  <level_of_theory>  (3) 
wb97xd/def2tzvp

>  <lot_method>  (3) 
wb97xd

>  <lot_basis>  (3) 
def2tzvp

>  <spin_multiplicity>  (3) 
2.0

>  <optical_isomers>  (3) 
2.0

>  <modes>  (3) 
IdealGasTranslation(mass=(135.03, 'amu')),         NonlinearRotor(             inertia = ([331.513, 415.505, 584.463

>  <frequency_value>  (3) 
-1268.48

>  <frequency_units>  (3) 
cm^-1

>  <frequency_list>  (3) 
unknown

>  <arkane_path>  (3) 
/home/calvin/Dropbox/PersonalFolders/Calvin/HAb_Converged/rxn_899/output/rxns/TS0/arkane/output.py

>  <path_exists>  (3) 
True

>  <E0_value>  (3) 
-2607980.0

>  <E0_units>  (3) 
kJ/mol

>  <thermo_class>  (3) 
unknown

>  <Cp0_value>  (3) 
unknown

>  <Cp0_units>  (3) 
unknown

>  <CpInf_value>  (3) 
unknown

>  <CpInf_units>  (3) 
unknown

>  <Tmin_value>  (3) 
unknown

>  <Tmin_units>  (3) 
unknown

>  <Tmax_value>  (3) 
unknown

>  <Tmax_units>  (3) 
unknown

>  <polynomials>  (3) 
unknown

>  <H298_value>  (3) 
unknown

>  <H298_units>  (3) 
unknown

>  <S298_value>  (3) 
unknown

>  <S298_units>  (3) 
unknown

>  <Cp_T_value_list>  (3) 
unknown

>  <Cp_T_units>  (3) 
unknown

>  <T_list>  (3) 
unknown

>  <T_units>  (3) 
unknown

>  <yaml_path>  (3) 
unknown

>  <frequencies_cm1>  (3) 
unknown

>  <ZPE_kJmol>  (3) 
unknown

>  <E_elec_kJmol>  (3) 
unknown

>  <E0_minus_Eelec_plus_ZPE_kJmol>  (3) 
unknown

>  <rxn>  (3) 
unknown

>  <species_type>  (3) 
unknown

>  <species_folder>  (3) 
unknown

>  <frequencies_cm1_list>  (3) 
[]

>  <ts_imag_freq_cm1>  (3) 
-1283.8908

>  <ts_freq_out_path>  (3) 
/home/calvin/Dropbox/PersonalFolders/Calvin/HAb_Converged/rxn_899/output/rxns/TS0/geometry/freq.out

>  <E0_kJmol>  (3) 
-2.60798e+06

>  <H298_kJmol>  (3) 
unknown

$$$$

     RDKit          3D

  7  6  0  0  0  0  0  0  0  0999 V2000
   -0.6201    0.0189   -0.0017 C   0  0  0  0  0  0  0  0  0  1  0  0
    0.8589   -0.0553    0.0500 C   0  0  0  0  0  3  0  0  0  2  0  0
   -1.0738   -0.9730   -0.0559 H   0  0  0  0  0  0  0  0  0  3  0  0
   -0.9680    0.5706   -0.8872 H   0  0  0  0  0  0  0  0  0  4  0  0
   -1.0303    0.5369    0.8678 H   0  0  0  0  0  0  0  0  0  5  0  0
    1.3939   -0.8386   -0.4695 H   0  0  0  0  0  0  0  0  0  6  0  0
    1.4394    0.7404    0.4965 H   0  0  0  0  0  0  0  0  0  7  0  0
  1  5  1  0
  1  4  1  0
  1  3  1  0
  1  2  1  0
  2  7  1  0
  2  6  1  0
M  RAD  1   2   2
M  END
>  <rmg_smiles>  (4) 
C[CH2]

>  <rmg_adjacency_list>  (4) 
multiplicity 2
1 C u0 p0 c0 {2,S} {3,S} {4,S} {5,S}
2 C u1 p0 c0 {1,S} {6,S} {7,S}
3 H u0 p0 c0 {1,S}
4 H u0 p0 c0 {1,S}
5 H u0 p0 c0 {1,S}
6 H u0 p0 c0 {2,S}
7 H u0 p0 c0 {2,S}


>  <multiplicity>  (4) 
2

>  <reaction>  (4) 
rxn_899

>  <type>  (4) 
r1

>  <role_mapnums>  (4) 
{}

>  <role_mapidx>  (4) 
{}

>  <ordered_mapped_smiles>  (4) 
[C:1]([C:2]([H:6])[H:7])([H:3])([H:4])[H:5]

>  <level_of_theory>  (4) 
wb97xd/def2tzvp

>  <lot_method>  (4) 
wb97xd

>  <lot_basis>  (4) 
def2tzvp

>  <spin_multiplicity>  (4) 
2.0

>  <optical_isomers>  (4) 
1.0

>  <modes>  (4) 
IdealGasTranslation(mass=(29.0391, 'amu')),         NonlinearRotor(             inertia = ([4.86051, 22.0602, 23.8144

>  <frequency_value>  (4) 
unknown

>  <frequency_units>  (4) 
unknown

>  <frequency_list>  (4) 
unknown

>  <arkane_path>  (4) 
/home/calvin/Dropbox/PersonalFolders/Calvin/HAb_Converged/rxn_899/output/Species/rxn_899_C[CH2]/arkane/output.py

>  <path_exists>  (4) 
True

>  <E0_value>  (4) 
-207679.78865121285

>  <E0_units>  (4) 
kJ/mol

>  <thermo_class>  (4) 
NASA

>  <Cp0_value>  (4) 
33.257888

>  <Cp0_units>  (4) 
J/(mol*K)

>  <CpInf_value>  (4) 
157.97496800000002

>  <CpInf_units>  (4) 
J/(mol*K)

>  <Tmin_value>  (4) 
10.0

>  <Tmin_units>  (4) 
K

>  <Tmax_value>  (4) 
3000.0

>  <Tmax_units>  (4) 
K

>  <polynomials>  (4) 
[{"name": "polynomial1", "class": "NASAPolynomial", "Tmin_value": 10.0, "Tmin_units": "K", "Tmax_value": 487.87976470861213, "Tmax_units": "K", "coeffs": [3.9121871353579607, 0.009303342355112522, -1.0632548237956822e-05, 4.8831908404358495e-08, -4.7450160133634566e-11, -24978109.370781355, 5.932423398139755]}, {"name": "polynomial2", "class": "NASAPolynomial", "Tmin_value": 487.87976470861213, "Tmin_units": "K", "Tmax_value": 3000.0, "Tmax_units": "K", "coeffs": [1.255601804674027, 0.02015925973571526, -1.042095542288469e-05, 2.645655029251924e-09, -2.6467461504495006e-13, -24977720.132981308, 18.174806831505954]}]

>  <H298_value>  (4) 
-49633.563072244775

>  <H298_units>  (4) 
kcal/mol

>  <S298_value>  (4) 
61.32124798502571

>  <S298_units>  (4) 
cal/(mol*K)

>  <Cp_T_value_list>  (4) 
[13.275286080102546, 15.585331501205383, 17.97260864331377, 20.143861899983392, 23.766518336877798, 26.578661465366384, 31.07297867985595, 33.426295758137194, 34.588101279891]

>  <Cp_T_units>  (4) 
cal/(mol*K)

>  <T_list>  (4) 
[300.0, 400.0, 500.0, 600.0, 800.0, 1000.0, 1500.0, 2000.0, 2400.0]

>  <T_units>  (4) 
K

>  <yaml_path>  (4) 
/home/calvin/Dropbox/PersonalFolders/Calvin/HAb_Converged/rxn_899/output/Species/rxn_899_C[CH2]/rxn_899_CCH2.yml

>  <frequencies_cm1>  (4) 
[107.07690209476, 475.05117745227994, 809.2398850354, 971.27327064612, 1064.95268438156, 1183.6279246817999, 1386.8220203006, 1452.9442219468801, 1466.90480310244, 1470.74344789632, 2948.7315653052397, 3035.3173832051198, 3081.4978594821196, 3128.7358514984, 3230.1062887922394]

>  <ZPE_kJmol>  (4) 
154.3962225328414

>  <E_elec_kJmol>  (4) 
-207834.1848737457

>  <E0_minus_Eelec_plus_ZPE_kJmol>  (4) 
0.0

>  <rxn>  (4) 
rxn_899

>  <species_type>  (4) 
p1

>  <species_folder>  (4) 
rxn_899_C[CH2]

>  <frequencies_cm1_list>  (4) 
[107.07690209476, 475.05117745227994, 809.2398850354, 971.27327064612, 1064.95268438156, 1183.6279246817999, 1386.8220203006, 1452.9442219468801, 1466.90480310244, 1470.74344789632, 2948.7315653052397, 3035.3173832051198, 3081.4978594821196, 3128.7358514984, 3230.1062887922394]

>  <E0_kJmol>  (4) 
-207680

>  <H298_kJmol>  (4) 
-207667

$$$$

     RDKit          3D

 10  9  0  0  0  0  0  0  0  0999 V2000
   -1.3354   -0.2069    0.0525 C   0  0  0  0  0  0  0  0  0  1  0  0
    0.0851    0.2624    0.0266 C   0  0  0  0  0  0  0  0  0  2  0  0
    0.4841    1.3876    0.7359 C   0  0  0  0  0  0  0  0  0  3  0  0
    2.0191    2.0303    0.8057 S   0  0  0  0  0  1  0  0  0  4  0  0
    1.1566   -0.6823   -0.9297 S   0  0  0  0  0  0  0  0  0  5  0  0
   -1.7589   -0.2174   -0.9545 H   0  0  0  0  0  0  0  0  0  6  0  0
   -1.4004   -1.2253    0.4427 H   0  0  0  0  0  0  0  0  0  7  0  0
   -1.9442    0.4442    0.6783 H   0  0  0  0  0  0  0  0  0  8  0  0
   -0.3073    1.8814    1.2951 H   0  0  0  0  0  0  0  0  0  9  0  0
    2.2383    0.0827   -0.6554 H   0  0  0  0  0  0  0  0  0 10  0  0
  1  8  1  0
  1  7  1  0
  1  6  1  0
  1  2  1  0
  2  5  1  0
  2  3  1  0
  3  9  1  0
  3  4  1  0
  5 10  1  0
M  RAD  1   4   2
M  END
>  <rmg_smiles>  (5) 
[S][CH][C](S)C

>  <rmg_adjacency_list>  (5) 
multiplicity 2
1  S u0 p2 c0 {4,S} {10,S}
2  S u1 p2 c0 {5,S}
3  C u0 p0 c0 {4,S} {6,S} {7,S} {8,S}
4  C u0 p0 c0 {1,S} {3,S} {5,S}
5  C u0 p0 c0 {2,S} {4,S} {9,S}
6  H u0 p0 c0 {3,S}
7  H u0 p0 c0 {3,S}
8  H u0 p0 c0 {3,S}
9  H u0 p0 c0 {5,S}
10 H u0 p0 c0 {1,S}


>  <multiplicity>  (5) 
2

>  <reaction>  (5) 
rxn_899

>  <type>  (5) 
r2

>  <role_mapnums>  (5) 
{}

>  <role_mapidx>  (5) 
{}

>  <ordered_mapped_smiles>  (5) 
[C:1]([CH:2]([CH:3]([S:4])[H:9])[S:5][H:10])([H:6])([H:7])[H:8]

>  <level_of_theory>  (5) 
wb97xd/def2tzvp

>  <lot_method>  (5) 
wb97xd

>  <lot_basis>  (5) 
def2tzvp

>  <spin_multiplicity>  (5) 
2.0

>  <optical_isomers>  (5) 
1.0

>  <modes>  (5) 
IdealGasTranslation(mass=(104.983, 'amu')),         NonlinearRotor(             inertia = ([100.49, 235.605, 332.975

>  <frequency_value>  (5) 
unknown

>  <frequency_units>  (5) 
unknown

>  <frequency_list>  (5) 
unknown

>  <arkane_path>  (5) 
/home/calvin/Dropbox/PersonalFolders/Calvin/HAb_Converged/rxn_899/output/Species/rxn_899_C[C][C=S]S/arkane/output.py

>  <path_exists>  (5) 
True

>  <E0_value>  (5) 
-2398728.4301470886

>  <E0_units>  (5) 
kJ/mol

>  <thermo_class>  (5) 
NASA

>  <Cp0_value>  (5) 
33.257888

>  <Cp0_units>  (5) 
J/(mol*K)

>  <CpInf_value>  (5) 
232.805216

>  <CpInf_units>  (5) 
J/(mol*K)

>  <Tmin_value>  (5) 
10.0

>  <Tmin_units>  (5) 
K

>  <Tmax_value>  (5) 
3000.0

>  <Tmax_units>  (5) 
K

>  <polynomials>  (5) 
[{"name": "polynomial1", "class": "NASAPolynomial", "Tmin_value": 10.0, "Tmin_units": "K", "Tmax_value": 174.01726113942388, "Tmax_units": "K", "coeffs": [3.9082014614847895, 0.009872915439602193, 0.0002057584614251195, -8.728618456878904e-07, 1.263986644581055e-09, -288500402.10474426, 11.702702284946598]}, {"name": "polynomial2", "class": "NASAPolynomial", "Tmin_value": 174.01726113942388, "Tmin_units": "K", "Tmax_value": 3000.0, "Tmax_units": "K", "coeffs": [2.7483218276330854, 0.03653436950450788, -2.4060579297723113e-05, 7.590116446699495e-09, -9.145171304727525e-13, -288500361.7372306, 15.270275939437306]}]

>  <H298_value>  (5) 
-573305.3360940289

>  <H298_units>  (5) 
kcal/mol

>  <S298_value>  (5) 
81.10142956929253

>  <S298_units>  (5) 
cal/(mol*K)

>  <Cp_T_value_list>  (5) 
[23.331207482754937, 27.77067978154661, 31.580624091189616, 34.831911972780674, 39.92019668355091, 43.51527435205942, 48.488777974072114, 50.99847756573189, 52.51423316121439]

>  <Cp_T_units>  (5) 
cal/(mol*K)

>  <T_list>  (5) 
[300.0, 400.0, 500.0, 600.0, 800.0, 1000.0, 1500.0, 2000.0, 2400.0]

>  <T_units>  (5) 
K

>  <yaml_path>  (5) 
/home/calvin/Dropbox/PersonalFolders/Calvin/HAb_Converged/rxn_899/output/Species/rxn_899_C[C][C=S]S/rxn_899_CCC=SS.yml

>  <frequencies_cm1>  (5) 
[87.10770878419999, 202.9537511326, 210.78211439739997, 327.18438255672, 442.76261247763995, 467.34641992324003, 480.1258796037599, 647.00048986508, 830.9944945291601, 879.7157553745599, 933.5735212393199, 1024.4992738614399, 1031.5035988878399, 1155.4389499432, 1323.3985438850798, 1397.47958151724, 1408.19207861644, 1459.59833072196, 1480.63877374244, 2543.7099041463202, 3014.00912775716, 3075.6540549747997, 3103.56148331528, 3112.8731154092]

>  <ZPE_kJmol>  (5) 
183.26857293928828

>  <E_elec_kJmol>  (5) 
-2398911.698720028

>  <E0_minus_Eelec_plus_ZPE_kJmol>  (5) 
0.0

>  <rxn>  (5) 
rxn_899

>  <species_type>  (5) 
r0

>  <species_folder>  (5) 
rxn_899_C[C][C=S]S

>  <frequencies_cm1_list>  (5) 
[87.10770878419999, 202.9537511326, 210.78211439739997, 327.18438255672, 442.76261247763995, 467.34641992324003, 480.1258796037599, 647.00048986508, 830.9944945291601, 879.7157553745599, 933.5735212393199, 1024.4992738614399, 1031.5035988878399, 1155.4389499432, 1323.3985438850798, 1397.47958151724, 1408.19207861644, 1459.59833072196, 1480.63877374244, 2543.7099041463202, 3014.00912775716, 3075.6540549747997, 3103.56148331528, 3112.8731154092]

>  <E0_kJmol>  (5) 
-2.39873e+06

>  <H298_kJmol>  (5) 
-2.39871e+06

$$$$
