
     RDKit          3D

  6  5  0  0  0  0  0  0  0  0999 V2000
   -0.0008    0.5821    1.0147 N   0  0  0  0  0  0  0  0  0  1  0  0
   -0.1259   -0.3868    0.0564 C   0  0  0  0  0  0  0  0  0  2  0  0
    0.1579   -0.2817   -1.1069 O   0  0  0  0  0  0  0  0  0  3  0  0
    0.1161    1.5267    0.6594 H   0  0  0  0  0  0  0  0  0  4  0  0
   -0.6894    0.5145    1.7586 H   0  0  0  0  0  0  0  0  0  5  0  0
   -0.4613   -1.3520    0.4923 H   0  0  0  0  0  0  0  0  0  6  0  0
  1  5  1  0
  1  2  1  0
  1  4  1  0
  2  3  1  0
  2  6  1  0
M  END
>  <rmg_smiles>  (1) 
N[CH][O]

>  <rmg_adjacency_list>  (1) 
1 O u0 p2 c0 {3,S}
2 N u0 p1 c0 {3,S} {4,S} {5,S}
3 C u0 p0 c0 {1,S} {2,S} {6,S}
4 H u0 p0 c0 {2,S}
5 H u0 p0 c0 {2,S}
6 H u0 p0 c0 {3,S}


>  <multiplicity>  (1) 
1

>  <reaction>  (1) 
rxn_3142

>  <type>  (1) 
r1h

>  <role_mapnums>  (1) 
{"r1h_a": 1, "r1h_h": 4}

>  <role_mapidx>  (1) 
{"r1h_a": 0, "r1h_h": 3}

>  <ordered_mapped_smiles>  (1) 
[N:1]([CH:2]([OH:3])[H:6])([H:4])[H:5]

>  <mol_properties>  (1) 
{"0": {"label": "donator", "atom_type": "N3s"}, "3": {"label": "d_hydrogen", "atom_type": "H0"}}

>  <level_of_theory>  (1) 
wb97xd/def2tzvp

>  <lot_method>  (1) 
wb97xd

>  <lot_basis>  (1) 
def2tzvp

>  <spin_multiplicity>  (1) 
1.0

>  <optical_isomers>  (1) 
1.0

>  <modes>  (1) 
IdealGasTranslation(mass=(45.0215, 'amu')),         NonlinearRotor(             inertia = ([6.82405, 44.0983, 50.9223

>  <frequency_value>  (1) 
unknown

>  <frequency_units>  (1) 
unknown

>  <frequency_list>  (1) 
unknown

>  <arkane_path>  (1) 
/home/calvin/Dropbox/PersonalFolders/Calvin/ATLAS_Converged/NonRMG/rxn_3142/output/Species/rxn_3142_r2_NC=O/arkane/output.py

>  <path_exists>  (1) 
True

>  <E0_value>  (1) 
-445986.38920314406

>  <E0_units>  (1) 
kJ/mol

>  <thermo_class>  (1) 
NASA

>  <Cp0_value>  (1) 
33.257888

>  <Cp0_units>  (1) 
J/(mol*K)

>  <CpInf_value>  (1) 
133.031552

>  <CpInf_units>  (1) 
J/(mol*K)

>  <Tmin_value>  (1) 
10.0

>  <Tmin_units>  (1) 
K

>  <Tmax_value>  (1) 
3000.0

>  <Tmax_units>  (1) 
K

>  <polynomials>  (1) 
[{"name": "polynomial1", "class": "NASAPolynomial", "Tmin_value": 10.0, "Tmin_units": "K", "Tmax_value": 458.5881326815035, "Tmax_units": "K", "coeffs": [3.983011125034214, 0.001010332188525612, 4.245038306499661e-05, -7.317917585741717e-08, 4.1128069601377645e-11, -53639771.918529965, 6.55149401776956]}, {"name": "polynomial2", "class": "NASAPolynomial", "Tmin_value": 458.5881326815035, "Tmin_units": "K", "Tmax_value": 3000.0, "Tmax_units": "K", "coeffs": [2.153426258819574, 0.01697621980594249, -9.79702485872494e-06, 2.8103644715227825e-09, -3.1711308405884415e-13, -53639604.19193041, 13.95097715747581]}]

>  <H298_value>  (1) 
-106590.359784352

>  <H298_units>  (1) 
kcal/mol

>  <S298_value>  (1) 
61.33433226068674

>  <S298_units>  (1) 
cal/(mol*K)

>  <Cp_T_value_list>  (1) 
[12.84519327357113, 15.00066001604625, 16.93846321314482, 18.636360517057618, 21.40881806722093, 23.500450897282974, 26.735965964264672, 28.470454891814544, 29.400557237638964]

>  <Cp_T_units>  (1) 
cal/(mol*K)

>  <T_list>  (1) 
[300.0, 400.0, 500.0, 600.0, 800.0, 1000.0, 1500.0, 2000.0, 2400.0]

>  <T_units>  (1) 
K

>  <yaml_path>  (1) 
/home/calvin/Dropbox/PersonalFolders/Calvin/ATLAS_Converged/NonRMG/rxn_3142/output/Species/rxn_3142_r2_NC=O/rxn_3142_r2_NC=O.yml

>  <frequencies_cm1>  (1) 
[251.20805697623996, 569.84304280956, 636.48026835484, 1043.96031025832, 1056.10114030408, 1270.24807750828, 1413.10884010556, 1609.8205015822798, 1811.90214557924, 2930.3967145008396, 3581.977483574359, 3719.94208563848]

>  <ZPE_kJmol>  (1) 
118.998492564736

>  <E_elec_kJmol>  (1) 
-446105.3876957088

>  <E0_minus_Eelec_plus_ZPE_kJmol>  (1) 
0.0

>  <rxn>  (1) 
rxn_3142

>  <species_type>  (1) 
r1

>  <species_folder>  (1) 
rxn_3142_r2_NC=O

>  <frequencies_cm1_list>  (1) 
[251.20805697623996, 569.84304280956, 636.48026835484, 1043.96031025832, 1056.10114030408, 1270.24807750828, 1413.10884010556, 1609.8205015822798, 1811.90214557924, 2930.3967145008396, 3581.977483574359, 3719.94208563848]

>  <E0_kJmol>  (1) 
-445986

>  <H298_kJmol>  (1) 
-445974

$$$$

     RDKit          3D

  7  7  0  0  0  0  0  0  0  0999 V2000
    1.6648   -0.1229    1.1135 N   0  0  0  0  0  0  0  0  0  1  0  0
    0.6267   -0.0703    0.4268 C   0  0  0  0  0  0  0  0  0  2  0  0
    0.2634    1.0023   -0.3258 O   0  0  0  0  0  0  0  0  0  3  0  0
   -0.9343    0.6854   -0.9261 N   0  0  0  0  0  0  0  0  0  4  0  0
   -1.2890   -0.4351   -0.5987 N   0  0  0  0  0  0  0  0  0  5  0  0
   -0.3626   -0.9900    0.2623 O   0  0  0  0  0  0  0  0  0  6  0  0
    1.8529   -1.0292    1.5875 H   0  0  0  0  0  0  0  0  0  7  0  0
  1  2  1  0
  1  7  1  0
  2  3  1  0
  2  6  1  0
  3  4  1  0
  4  5  1  0
  5  6  1  0
M  END
>  <rmg_smiles>  (2) 
[NH][C]1O[N][N]O1

>  <rmg_adjacency_list>  (2) 
1 O u0 p2 c0 {3,S} {6,S}
2 O u0 p2 c0 {4,S} {6,S}
3 N u0 p1 c0 {1,S} {4,S}
4 N u0 p1 c0 {2,S} {3,S}
5 N u0 p1 c0 {6,S} {7,S}
6 C u0 p0 c0 {1,S} {2,S} {5,S}
7 H u0 p0 c0 {5,S}


>  <multiplicity>  (2) 
1

>  <reaction>  (2) 
rxn_3142

>  <type>  (2) 
r2h

>  <role_mapnums>  (2) 
{"r2h_a": 1, "r2h_h": 7}

>  <role_mapidx>  (2) 
{"r2h_a": 0, "r2h_h": 6}

>  <ordered_mapped_smiles>  (2) 
[NH:1]([CH:2]1[O:3][NH:4][NH:5][O:6]1)[H:7]

>  <mol_properties>  (2) 
{"0": {"label": "acceptor", "atom_type": "N3s"}, "6": {"label": "a_hydrogen", "atom_type": "H0"}}

>  <level_of_theory>  (2) 
wb97xd/def2tzvp

>  <lot_method>  (2) 
wb97xd

>  <lot_basis>  (2) 
def2tzvp

>  <spin_multiplicity>  (2) 
1.0

>  <optical_isomers>  (2) 
1.0

>  <modes>  (2) 
IdealGasTranslation(mass=(87.0069, 'amu')),         NonlinearRotor(             inertia = ([48.8575, 120.721, 169.578

>  <frequency_value>  (2) 
unknown

>  <frequency_units>  (2) 
unknown

>  <frequency_list>  (2) 
unknown

>  <arkane_path>  (2) 
/home/calvin/Dropbox/PersonalFolders/Calvin/ATLAS_Converged/NonRMG/rxn_3142/output/Species/rxn_3142_p1_N=c1onno1/arkane/output.py

>  <path_exists>  (2) 
True

>  <E0_value>  (2) 
-927513.3956974436

>  <E0_units>  (2) 
kJ/mol

>  <thermo_class>  (2) 
NASA

>  <Cp0_value>  (2) 
33.257888

>  <Cp0_units>  (2) 
J/(mol*K)

>  <CpInf_value>  (2) 
157.97496800000002

>  <CpInf_units>  (2) 
J/(mol*K)

>  <Tmin_value>  (2) 
10.0

>  <Tmin_units>  (2) 
K

>  <Tmax_value>  (2) 
3000.0

>  <Tmax_units>  (2) 
K

>  <polynomials>  (2) 
[{"name": "polynomial1", "class": "NASAPolynomial", "Tmin_value": 10.0, "Tmin_units": "K", "Tmax_value": 594.5510705426203, "Tmax_units": "K", "coeffs": [4.064128165333628, -0.006464132682369532, 0.00012609118943386684, -2.2452471871589397e-07, 1.2482881080850414e-10, -111554092.36102824, 9.73736041625877]}, {"name": "polynomial2", "class": "NASAPolynomial", "Tmin_value": 594.5510705426203, "Tmin_units": "K", "Tmax_value": 3000.0, "Tmax_units": "K", "coeffs": [2.6619435988700717, 0.02700063330274151, -1.8966063744434276e-05, 6.109629991067157e-09, -7.351884988814937e-13, -111554350.36753283, 12.201082878024012]}]

>  <H298_value>  (2) 
-221677.73393283132

>  <H298_units>  (2) 
kcal/mol

>  <S298_value>  (2) 
69.21240690289005

>  <S298_units>  (2) 
cal/(mol*K)

>  <Cp_T_value_list>  (2) 
[16.736335365541446, 20.824137553247738, 24.027452944596273, 26.348252322457366, 29.711055843773885, 31.936305555783512, 34.552273976473494, 35.596788664173474, 36.33939231381346]

>  <Cp_T_units>  (2) 
cal/(mol*K)

>  <T_list>  (2) 
[300.0, 400.0, 500.0, 600.0, 800.0, 1000.0, 1500.0, 2000.0, 2400.0]

>  <T_units>  (2) 
K

>  <yaml_path>  (2) 
/home/calvin/Dropbox/PersonalFolders/Calvin/ATLAS_Converged/NonRMG/rxn_3142/output/Species/rxn_3142_p1_N=c1onno1/rxn_3142_p1_N=c1onno1.yml

>  <frequencies_cm1>  (2) 
[208.89369343439998, 445.44073675243993, 644.52150816456, 714.2214091625599, 757.75122910604, 783.81143839544, 819.0802749989599, 941.40875148944, 996.4545058145599, 1049.54316932348, 1062.20589025356, 1273.50302854996, 1598.9500638207198, 1829.7357064552798, 3558.0254387782]

>  <ZPE_kJmol>  (2) 
99.78979924741076

>  <E_elec_kJmol>  (2) 
-927613.1854966908

>  <E0_minus_Eelec_plus_ZPE_kJmol>  (2) 
0.0

>  <rxn>  (2) 
rxn_3142

>  <species_type>  (2) 
p0

>  <species_folder>  (2) 
rxn_3142_p1_N=c1onno1

>  <frequencies_cm1_list>  (2) 
[208.89369343439998, 445.44073675243993, 644.52150816456, 714.2214091625599, 757.75122910604, 783.81143839544, 819.0802749989599, 941.40875148944, 996.4545058145599, 1049.54316932348, 1062.20589025356, 1273.50302854996, 1598.9500638207198, 1829.7357064552798, 3558.0254387782]

>  <E0_kJmol>  (2) 
-927513

>  <H298_kJmol>  (2) 
-927500

$$$$

     RDKit          3D

 12 11  0  0  0  0  0  0  0  0999 V2000
    1.1508    0.8537    0.8007 N   0  0  0  0  0  0  0  0  0  1  0  0
    0.1127    0.9063    0.1140 C   0  0  0  0  0  0  0  0  0  2  0  0
   -0.2506    1.9789   -0.6386 O   0  0  0  0  0  0  0  0  0  3  0  0
   -1.4482    1.6619   -1.2389 N   0  0  0  0  0  0  0  0  0  4  0  0
   -1.8030    0.5414   -0.9115 N   0  0  0  0  0  0  0  0  0  5  0  0
   -0.8766   -0.0135   -0.0505 O   0  0  0  0  0  0  0  0  0  6  0  0
    1.2054   -1.3970    1.7947 N   0  0  0  0  0  0  0  0  0  7  0  0
    1.0803   -2.3659    0.8365 C   0  0  0  0  0  0  0  0  0  8  0  0
    1.3641   -2.2608   -0.3268 O   0  0  0  0  0  1  0  0  0  9  0  0
    1.3595   -0.1515    1.3264 H   0  0  0  0  0  0  0  0  0 10  0  0
    0.5167   -1.4646    2.5387 H   0  0  0  0  0  0  0  0  0 11  0  0
    0.7449   -3.3311    1.2724 H   0  0  0  0  0  0  0  0  0 12  0  0
  1 10  1  0
  1  2  1  0
  2  3  1  0
  2  6  1  0
  3  4  1  0
  4  5  1  0
  5  6  1  0
  7  8  1  0
  7 11  1  0
  8  9  1  0
  8 12  1  0
M  RAD  1   9   2
M  END
>  <rmg_smiles>  (3) 
[NH][C]1O[N][N]O1.[NH][CH][O]

>  <rmg_adjacency_list>  (3) 
multiplicity 2
1  O u0 p2 c0 {4,S} {8,S}
2  O u0 p2 c0 {5,S} {8,S}
3  O u1 p2 c0 {9,S}
4  N u0 p1 c0 {1,S} {5,S}
5  N u0 p1 c0 {2,S} {4,S}
6  N u0 p1 c0 {8,S} {11,S}
7  N u0 p1 c0 {9,S} {12,S}
8  C u0 p0 c0 {1,S} {2,S} {6,S}
9  C u0 p0 c0 {3,S} {7,S} {10,S}
10 H u0 p0 c0 {9,S}
11 H u0 p0 c0 {6,S}
12 H u0 p0 c0 {7,S}


>  <multiplicity>  (3) 
2

>  <reaction>  (3) 
rxn_3142

>  <type>  (3) 
ts

>  <role_mapnums>  (3) 
{"*2": 10, "*1": 7, "*3": 1, "*0": 2, "*4": 8}

>  <role_mapidx>  (3) 
{"*2": 9, "*1": 6, "*3": 0, "*0": 1, "*4": 7}

>  <ordered_mapped_smiles>  (3) 
[NH:1]([CH:2]1[O:3][NH:4][NH:5][O:6]1)[H:10].[NH:7]([CH:8]([O:9])[H:12])[H:11]

>  <mol_properties>  (3) 
{"0": {"label": "*3", "atom_type": "N3s"}, "1": {"label": "*0", "atom_type": "Cs"}, "6": {"label": "*1", "atom_type": "N3s"}, "7": {"label": "*4", "atom_type": "Cs"}, "9": {"label": "*2", "atom_type": "H0"}}

>  <level_of_theory>  (3) 
wb97xd/def2tzvp

>  <lot_method>  (3) 
wb97xd

>  <lot_basis>  (3) 
def2tzvp

>  <spin_multiplicity>  (3) 
2.0

>  <optical_isomers>  (3) 
2.0

>  <modes>  (3) 
IdealGasTranslation(mass=(131.021, 'amu')),         NonlinearRotor(             inertia = ([138.655, 499.589, 565.263

>  <frequency_value>  (3) 
-1503.38

>  <frequency_units>  (3) 
cm^-1

>  <frequency_list>  (3) 
unknown

>  <arkane_path>  (3) 
/home/calvin/Dropbox/PersonalFolders/Calvin/ATLAS_Converged/NonRMG/rxn_3142/output/rxns/TS0/arkane/output.py

>  <path_exists>  (3) 
True

>  <E0_value>  (3) 
-1371700.0

>  <E0_units>  (3) 
kJ/mol

>  <thermo_class>  (3) 
unknown

>  <Cp0_value>  (3) 
unknown

>  <Cp0_units>  (3) 
unknown

>  <CpInf_value>  (3) 
unknown

>  <CpInf_units>  (3) 
unknown

>  <Tmin_value>  (3) 
unknown

>  <Tmin_units>  (3) 
unknown

>  <Tmax_value>  (3) 
unknown

>  <Tmax_units>  (3) 
unknown

>  <polynomials>  (3) 
unknown

>  <H298_value>  (3) 
unknown

>  <H298_units>  (3) 
unknown

>  <S298_value>  (3) 
unknown

>  <S298_units>  (3) 
unknown

>  <Cp_T_value_list>  (3) 
unknown

>  <Cp_T_units>  (3) 
unknown

>  <T_list>  (3) 
unknown

>  <T_units>  (3) 
unknown

>  <yaml_path>  (3) 
unknown

>  <frequencies_cm1>  (3) 
unknown

>  <ZPE_kJmol>  (3) 
unknown

>  <E_elec_kJmol>  (3) 
unknown

>  <E0_minus_Eelec_plus_ZPE_kJmol>  (3) 
unknown

>  <rxn>  (3) 
unknown

>  <species_type>  (3) 
unknown

>  <species_folder>  (3) 
unknown

>  <frequencies_cm1_list>  (3) 
[]

>  <ts_imag_freq_cm1>  (3) 
-1521.6358

>  <ts_freq_out_path>  (3) 
/home/calvin/Dropbox/PersonalFolders/Calvin/ATLAS_Converged/NonRMG/rxn_3142/output/rxns/TS0/geometry/freq.out

>  <E0_kJmol>  (3) 
-1.3717e+06

>  <H298_kJmol>  (3) 
unknown

$$$$

     RDKit          3D

  5  4  0  0  0  0  0  0  0  0999 V2000
    0.9475    0.2908    0.1330 N   0  0  0  0  0  0  0  0  0  1  0  0
   -0.3882    0.1495   -0.1200 C   0  0  0  0  0  0  0  0  0  2  0  0
   -1.0274   -0.8082    0.2801 O   0  0  0  0  0  1  0  0  0  3  0  0
    1.3352   -0.6394    0.3175 H   0  0  0  0  0  0  0  0  0  4  0  0
   -0.8671    1.0073   -0.6105 H   0  0  0  0  0  0  0  0  0  5  0  0
  1  2  1  0
  1  4  1  0
  2  5  1  0
  2  3  1  0
M  RAD  1   3   2
M  END
>  <rmg_smiles>  (4) 
[NH][CH][O]

>  <rmg_adjacency_list>  (4) 
multiplicity 2
1 O u1 p2 c0 {3,S}
2 N u0 p1 c0 {3,S} {5,S}
3 C u0 p0 c0 {1,S} {2,S} {4,S}
4 H u0 p0 c0 {3,S}
5 H u0 p0 c0 {2,S}


>  <multiplicity>  (4) 
2

>  <reaction>  (4) 
rxn_3142

>  <type>  (4) 
r1

>  <role_mapnums>  (4) 
{}

>  <role_mapidx>  (4) 
{}

>  <ordered_mapped_smiles>  (4) 
[NH:1]([CH:2]([O:3])[H:5])[H:4]

>  <level_of_theory>  (4) 
wb97xd/def2tzvp

>  <lot_method>  (4) 
wb97xd

>  <lot_basis>  (4) 
def2tzvp

>  <spin_multiplicity>  (4) 
2.0

>  <optical_isomers>  (4) 
2.0

>  <modes>  (4) 
IdealGasTranslation(mass=(44.0136, 'amu')),         NonlinearRotor(             inertia = ([7.06568, 39.6158, 46.473

>  <frequency_value>  (4) 
unknown

>  <frequency_units>  (4) 
unknown

>  <frequency_list>  (4) 
unknown

>  <arkane_path>  (4) 
/home/calvin/Dropbox/PersonalFolders/Calvin/ATLAS_Converged/NonRMG/rxn_3142/output/Species/rxn_3142_p2_sbr-NH-sbrC=O/arkane/output.py

>  <path_exists>  (4) 
True

>  <E0_value>  (4) 
-444201.202024213

>  <E0_units>  (4) 
kJ/mol

>  <thermo_class>  (4) 
NASA

>  <Cp0_value>  (4) 
33.257888

>  <Cp0_units>  (4) 
J/(mol*K)

>  <CpInf_value>  (4) 
108.088136

>  <CpInf_units>  (4) 
J/(mol*K)

>  <Tmin_value>  (4) 
10.0

>  <Tmin_units>  (4) 
K

>  <Tmax_value>  (4) 
3000.0

>  <Tmax_units>  (4) 
K

>  <polynomials>  (4) 
[{"name": "polynomial1", "class": "NASAPolynomial", "Tmin_value": 10.0, "Tmin_units": "K", "Tmax_value": 507.95857191790617, "Tmax_units": "K", "coeffs": [4.024291014901587, -0.002545931260235778, 5.467379374734025e-05, -9.931182856000079e-08, 5.911779429723869e-11, -53425063.925793424, 7.885667882895988]}, {"name": "polynomial2", "class": "NASAPolynomial", "Tmin_value": 507.95857191790617, "Tmin_units": "K", "Tmax_value": 3000.0, "Tmax_units": "K", "coeffs": [2.542675370849858, 0.013990314689766309, -8.535914757711321e-06, 2.517915232576493e-09, -2.8682817721666866e-13, -53424976.221735604, 13.411710249129134]}]

>  <H298_value>  (4) 
-106163.85132061064

>  <H298_units>  (4) 
kcal/mol

>  <S298_value>  (4) 
63.03791026759926

>  <S298_units>  (4) 
cal/(mol*K)

>  <Cp_T_value_list>  (4) 
[11.88068861578401, 13.733949806993458, 15.302796437368725, 16.63417359304458, 18.766441846428176, 20.325470731177237, 22.59103141733709, 23.714759495600685, 24.331259550372987]

>  <Cp_T_units>  (4) 
cal/(mol*K)

>  <T_list>  (4) 
[300.0, 400.0, 500.0, 600.0, 800.0, 1000.0, 1500.0, 2000.0, 2400.0]

>  <T_units>  (4) 
K

>  <yaml_path>  (4) 
/home/calvin/Dropbox/PersonalFolders/Calvin/ATLAS_Converged/NonRMG/rxn_3142/output/Species/rxn_3142_p2_sbr-NH-sbrC=O/rxn_3142_p2_sbr-NH-sbrC=O.yml

>  <frequencies_cm1>  (4) 
[344.13210232648, 538.9484758548799, 951.8534361611601, 1075.32183221476, 1229.25217514788, 1387.83146714264, 1566.5035581837199, 3016.8589266649597, 3414.00415566184]

>  <ZPE_kJmol>  (4) 
80.89573051271479

>  <E_elec_kJmol>  (4) 
-444282.0977547257

>  <E0_minus_Eelec_plus_ZPE_kJmol>  (4) 
0.0

>  <rxn>  (4) 
rxn_3142

>  <species_type>  (4) 
p1

>  <species_folder>  (4) 
rxn_3142_p2_sbr-NH-sbrC=O

>  <frequencies_cm1_list>  (4) 
[344.13210232648, 538.9484758548799, 951.8534361611601, 1075.32183221476, 1229.25217514788, 1387.83146714264, 1566.5035581837199, 3016.8589266649597, 3414.00415566184]

>  <E0_kJmol>  (4) 
-444201

>  <H298_kJmol>  (4) 
-444190

$$$$

     RDKit          3D

  6  6  0  0  0  0  0  0  0  0999 V2000
    1.9594    0.0134   -0.3734 N   0  0  0  0  0  2  0  0  0  1  0  0
    0.7437    0.0051   -0.0788 C   0  0  0  0  0  0  0  0  0  2  0  0
   -0.0745    1.0868    0.0233 O   0  0  0  0  0  0  0  0  0  3  0  0
   -1.3223    0.5972    0.3682 N   0  0  0  0  0  0  0  0  0  4  0  0
   -1.2899   -0.6150    0.4676 N   0  0  0  0  0  0  0  0  0  5  0  0
   -0.0165   -1.0874    0.2015 O   0  0  0  0  0  0  0  0  0  6  0  0
  1  2  1  0
  2  3  1  0
  2  6  1  0
  3  4  1  0
  4  5  1  0
  5  6  1  0
M  RAD  1   1   2
M  END
>  <rmg_smiles>  (5) 
[N][C]1O[N][N]O1

>  <rmg_adjacency_list>  (5) 
multiplicity 2
1 O u0 p2 c0 {3,S} {6,S}
2 O u0 p2 c0 {4,S} {6,S}
3 N u0 p1 c0 {1,S} {4,S}
4 N u0 p1 c0 {2,S} {3,S}
5 N u1 p2 c0 {6,S}
6 C u0 p0 c0 {1,S} {2,S} {5,S}


>  <multiplicity>  (5) 
2

>  <reaction>  (5) 
rxn_3142

>  <type>  (5) 
r2

>  <role_mapnums>  (5) 
{}

>  <role_mapidx>  (5) 
{}

>  <ordered_mapped_smiles>  (5) 
[NH:1][CH:2]1[O:3][NH:4][NH:5][O:6]1

>  <level_of_theory>  (5) 
wb97xd/def2tzvp

>  <lot_method>  (5) 
wb97xd

>  <lot_basis>  (5) 
def2tzvp

>  <spin_multiplicity>  (5) 
2.0

>  <optical_isomers>  (5) 
1.0

>  <modes>  (5) 
IdealGasTranslation(mass=(85.999, 'amu')),         NonlinearRotor(             inertia = ([48.4503, 114.569, 163.019

>  <frequency_value>  (5) 
unknown

>  <frequency_units>  (5) 
unknown

>  <frequency_list>  (5) 
unknown

>  <arkane_path>  (5) 
/home/calvin/Dropbox/PersonalFolders/Calvin/ATLAS_Converged/NonRMG/rxn_3142/output/Species/rxn_3142_r1_sbr-N-sbr=c1onno1/arkane/output.py

>  <path_exists>  (5) 
True

>  <E0_value>  (5) 
-925766.1233507326

>  <E0_units>  (5) 
kJ/mol

>  <thermo_class>  (5) 
NASA

>  <Cp0_value>  (5) 
33.257888

>  <Cp0_units>  (5) 
J/(mol*K)

>  <CpInf_value>  (5) 
133.031552

>  <CpInf_units>  (5) 
J/(mol*K)

>  <Tmin_value>  (5) 
10.0

>  <Tmin_units>  (5) 
K

>  <Tmax_value>  (5) 
3000.0

>  <Tmax_units>  (5) 
K

>  <polynomials>  (5) 
[{"name": "polynomial1", "class": "NASAPolynomial", "Tmin_value": 10.0, "Tmin_units": "K", "Tmax_value": 616.0864984642515, "Tmax_units": "K", "coeffs": [3.94812055354869, 0.002870632430470056, 6.601813711413239e-05, -1.1874693803665765e-07, 6.345849341330536e-11, -111343943.32258263, 9.377120967783604]}, {"name": "polynomial2", "class": "NASAPolynomial", "Tmin_value": 616.0864984642515, "Tmin_units": "K", "Tmax_value": 3000.0, "Tmax_units": "K", "coeffs": [2.4544566455499175, 0.02517036301302165, -1.8957852591200607e-05, 6.406820502487897e-09, -7.999640326918053e-13, -111343998.43927236, 13.91872622116066]}]

>  <H298_value>  (5) 
-221260.06538606877

>  <H298_units>  (5) 
kcal/mol

>  <S298_value>  (5) 
69.02430482099071

>  <S298_units>  (5) 
cal/(mol*K)

>  <Cp_T_value_list>  (5) 
[16.01447807468723, 19.24412536395936, 21.88065311931888, 23.870148628394773, 26.6491311769416, 28.365034926557463, 30.06252774055981, 30.64056177383133, 31.185424153668]

>  <Cp_T_units>  (5) 
cal/(mol*K)

>  <T_list>  (5) 
[300.0, 400.0, 500.0, 600.0, 800.0, 1000.0, 1500.0, 2000.0, 2400.0]

>  <T_units>  (5) 
K

>  <yaml_path>  (5) 
/home/calvin/Dropbox/PersonalFolders/Calvin/ATLAS_Converged/NonRMG/rxn_3142/output/Species/rxn_3142_r1_sbr-N-sbr=c1onno1/rxn_3142_r1_sbr-N-sbr=c1onno1.yml

>  <frequencies_cm1>  (5) 
[203.66105062056, 421.06293886643994, 625.6235645639199, 691.3131461350399, 746.0704870767199, 784.21659052932, 934.89884940608, 1008.3206564475199, 1041.0761764239198, 1163.2398452667198, 1617.8480074213599, 1768.29678879724]

>  <ZPE_kJmol>  (5) 
65.82829353267302

>  <E_elec_kJmol>  (5) 
-925831.9516442652

>  <E0_minus_Eelec_plus_ZPE_kJmol>  (5) 
0.0

>  <rxn>  (5) 
rxn_3142

>  <species_type>  (5) 
r0

>  <species_folder>  (5) 
rxn_3142_r1_sbr-N-sbr=c1onno1

>  <frequencies_cm1_list>  (5) 
[203.66105062056, 421.06293886643994, 625.6235645639199, 691.3131461350399, 746.0704870767199, 784.21659052932, 934.89884940608, 1008.3206564475199, 1041.0761764239198, 1163.2398452667198, 1617.8480074213599, 1768.29678879724]

>  <E0_kJmol>  (5) 
-925766

>  <H298_kJmol>  (5) 
-925752

$$$$
