
     RDKit          3D

  9  8  0  0  0  0  0  0  0  0999 V2000
    0.3834   -0.4468   -1.6651 C   0  0  0  0  0  0  0  0  0  1  0  0
    0.0473   -0.8059   -0.2370 C   0  0  0  0  0  0  0  0  0  2  0  0
   -0.2410    0.5588    0.8836 S   0  0  0  0  0  0  0  0  0  3  0  0
    1.3035    0.1392   -1.7108 H   0  0  0  0  0  0  0  0  0  4  0  0
   -0.4146    0.1386   -2.1264 H   0  0  0  0  0  0  0  0  0  5  0  0
    0.5321   -1.3528   -2.2566 H   0  0  0  0  0  0  0  0  0  6  0  0
    0.8821   -1.3867    0.1550 H   0  0  0  0  0  0  0  0  0  7  0  0
   -0.8143   -1.4680   -0.1520 H   0  0  0  0  0  0  0  0  0  8  0  0
    0.9162    1.1964    0.6553 H   0  0  0  0  0  0  0  0  0  9  0  0
  1  5  1  0
  1  4  1  0
  1  6  1  0
  1  2  1  0
  2  8  1  0
  2  7  1  0
  2  3  1  0
  3  9  1  0
M  END
>  <rmg_smiles>  (1) 
CCS

>  <rmg_adjacency_list>  (1) 
1 S u0 p2 c0 {2,S} {9,S}
2 C u0 p0 c0 {1,S} {3,S} {4,S} {5,S}
3 C u0 p0 c0 {2,S} {6,S} {7,S} {8,S}
4 H u0 p0 c0 {2,S}
5 H u0 p0 c0 {2,S}
6 H u0 p0 c0 {3,S}
7 H u0 p0 c0 {3,S}
8 H u0 p0 c0 {3,S}
9 H u0 p0 c0 {1,S}


>  <multiplicity>  (1) 
1

>  <reaction>  (1) 
rxn_1884

>  <type>  (1) 
r1h

>  <role_mapnums>  (1) 
{"r1h_a": 2, "r1h_h": 7}

>  <role_mapidx>  (1) 
{"r1h_a": 1, "r1h_h": 6}

>  <ordered_mapped_smiles>  (1) 
[C:1]([C:2]([S:3][H:9])([H:7])[H:8])([H:4])([H:5])[H:6]

>  <mol_properties>  (1) 
{"1": {"label": "donator", "atom_type": "Cs"}, "6": {"label": "d_hydrogen", "atom_type": "H0"}}

>  <level_of_theory>  (1) 
wb97xd/def2tzvp

>  <lot_method>  (1) 
wb97xd

>  <lot_basis>  (1) 
def2tzvp

>  <spin_multiplicity>  (1) 
1.0

>  <optical_isomers>  (1) 
2.0

>  <modes>  (1) 
IdealGasTranslation(mass=(62.019, 'amu')),         NonlinearRotor(             inertia = ([17.3187, 95.472, 104.033

>  <frequency_value>  (1) 
unknown

>  <frequency_units>  (1) 
unknown

>  <frequency_list>  (1) 
unknown

>  <arkane_path>  (1) 
/home/calvin/Dropbox/PersonalFolders/Calvin/HAb_Converged/rxn_1884/output/Species/rxn_1884_CCS/arkane/output.py

>  <path_exists>  (1) 
True

>  <E0_value>  (1) 
-1254880.5529024522

>  <E0_units>  (1) 
kJ/mol

>  <thermo_class>  (1) 
NASA

>  <Cp0_value>  (1) 
33.257888

>  <Cp0_units>  (1) 
J/(mol*K)

>  <CpInf_value>  (1) 
207.8618

>  <CpInf_units>  (1) 
J/(mol*K)

>  <Tmin_value>  (1) 
10.0

>  <Tmin_units>  (1) 
K

>  <Tmax_value>  (1) 
3000.0

>  <Tmax_units>  (1) 
K

>  <polynomials>  (1) 
[{"name": "polynomial1", "class": "NASAPolynomial", "Tmin_value": 10.0, "Tmin_units": "K", "Tmax_value": 456.94948299224984, "Tmax_units": "K", "coeffs": [3.912577314484764, 0.006155835235539537, 5.7903825438107485e-05, -1.0305013689181765e-07, 5.821300208274409e-11, -150927266.1091598, 9.021117963799174]}, {"name": "polynomial2", "class": "NASAPolynomial", "Tmin_value": 456.94948299224984, "Tmin_units": "K", "Tmax_value": 3000.0, "Tmax_units": "K", "coeffs": [1.355855578836548, 0.028536757084491292, -1.5565109771775804e-05, 4.138069148493327e-09, -4.3071999280991065e-13, -150927032.45208073, 19.35342692911781]}]

>  <H298_value>  (1) 
-299920.11857407144

>  <H298_units>  (1) 
kcal/mol

>  <S298_value>  (1) 
69.39854649104441

>  <S298_units>  (1) 
cal/(mol*K)

>  <Cp_T_value_list>  (1) 
[17.20889788741788, 20.934361161930582, 24.290211927280414, 27.249513376784144, 32.124901067035445, 35.83897523204632, 41.58221183782978, 44.477584292835935, 45.911331144631184]

>  <Cp_T_units>  (1) 
cal/(mol*K)

>  <T_list>  (1) 
[300.0, 400.0, 500.0, 600.0, 800.0, 1000.0, 1500.0, 2000.0, 2400.0]

>  <T_units>  (1) 
K

>  <yaml_path>  (1) 
/home/calvin/Dropbox/PersonalFolders/Calvin/HAb_Converged/rxn_1884/output/Species/rxn_1884_CCS/rxn_1884_CCS.yml

>  <frequencies_cm1>  (1) 
[202.32885546847996, 256.50936964327997, 331.52431727896, 667.1482247939599, 735.969151671, 875.5955641825599, 988.159187548, 1063.6273562148, 1117.6087278153198, 1273.38628979952, 1303.10660226448, 1402.5542836687198, 1466.616389719, 1477.4456255686398, 1483.85938985752, 2700.25656848636, 3013.3430301811195, 3044.51914353392, 3080.6051513905195, 3088.40604671404, 3107.9357529641197]

>  <ZPE_kJmol>  (1) 
195.4728851436989

>  <E_elec_kJmol>  (1) 
-1255076.025787596

>  <E0_minus_Eelec_plus_ZPE_kJmol>  (1) 
0.0

>  <rxn>  (1) 
rxn_1884

>  <species_type>  (1) 
r0

>  <species_folder>  (1) 
rxn_1884_CCS

>  <frequencies_cm1_list>  (1) 
[202.32885546847996, 256.50936964327997, 331.52431727896, 667.1482247939599, 735.969151671, 875.5955641825599, 988.159187548, 1063.6273562148, 1117.6087278153198, 1273.38628979952, 1303.10660226448, 1402.5542836687198, 1466.616389719, 1477.4456255686398, 1483.85938985752, 2700.25656848636, 3013.3430301811195, 3044.51914353392, 3080.6051513905195, 3088.40604671404, 3107.9357529641197]

>  <E0_kJmol>  (1) 
-1.25488e+06

>  <H298_kJmol>  (1) 
-1.25487e+06

$$$$

     RDKit          3D

 12 12  0  0  0  0  0  0  0  0999 V2000
   -1.9800    1.1143   -0.8906 H   0  0  0  0  0  0  0  0  0  1  0  0
   -1.0994    0.5958   -0.5112 C   0  0  0  0  0  0  0  0  0  2  0  0
   -0.3514   -0.2139   -1.3355 C   0  0  0  0  0  0  0  0  0  3  0  0
    0.7797   -0.8260   -0.8039 C   0  0  0  0  0  0  0  0  0  4  0  0
    1.1262   -0.6123    0.5231 C   0  0  0  0  0  0  0  0  0  5  0  0
    0.3510    0.2108    1.3286 C   0  0  0  0  0  0  0  0  0  6  0  0
   -0.7819    0.8282    0.8075 C   0  0  0  0  0  0  0  0  0  7  0  0
   -0.6286   -0.3751   -2.3707 H   0  0  0  0  0  0  0  0  0  8  0  0
    1.3894   -1.4693   -1.4270 H   0  0  0  0  0  0  0  0  0  9  0  0
    2.0070   -1.0906    0.9325 H   0  0  0  0  0  0  0  0  0 10  0  0
    0.6271    0.3731    2.3635 H   0  0  0  0  0  0  0  0  0 11  0  0
   -1.3978    1.4750    1.4219 H   0  0  0  0  0  0  0  0  0 12  0  0
  1  2  1  0
  2  7  1  0
  2  3  1  0
  3  4  1  0
  3  8  1  0
  4  5  1  0
  4  9  1  0
  5  6  1  0
  5 10  1  0
  6  7  1  0
  6 11  1  0
  7 12  1  0
M  END
>  <rmg_smiles>  (2) 
[CH]1[CH][CH][CH][CH][CH]1

>  <rmg_adjacency_list>  (2) 
1  C u0 p0 c0 {2,S} {6,S} {7,S}
2  C u0 p0 c0 {1,S} {3,S} {8,S}
3  C u0 p0 c0 {2,S} {4,S} {9,S}
4  C u0 p0 c0 {3,S} {5,S} {10,S}
5  C u0 p0 c0 {4,S} {6,S} {11,S}
6  C u0 p0 c0 {1,S} {5,S} {12,S}
7  H u0 p0 c0 {1,S}
8  H u0 p0 c0 {2,S}
9  H u0 p0 c0 {3,S}
10 H u0 p0 c0 {4,S}
11 H u0 p0 c0 {5,S}
12 H u0 p0 c0 {6,S}


>  <multiplicity>  (2) 
1

>  <reaction>  (2) 
rxn_1884

>  <type>  (2) 
r2h

>  <role_mapnums>  (2) 
{"r2h_a": 2, "r2h_h": 1}

>  <role_mapidx>  (2) 
{"r2h_a": 1, "r2h_h": 0}

>  <ordered_mapped_smiles>  (2) 
[H:1][CH:2]1[CH:3]([H:8])[CH:4]([H:9])[CH:5]([H:10])[CH:6]([H:11])[CH:7]1[H:12]

>  <mol_properties>  (2) 
{"0": {"label": "a_hydrogen", "atom_type": "H0"}, "1": {"label": "acceptor", "atom_type": "Cs"}}

>  <level_of_theory>  (2) 
wb97xd/def2tzvp

>  <lot_method>  (2) 
wb97xd

>  <lot_basis>  (2) 
def2tzvp

>  <spin_multiplicity>  (2) 
1.0

>  <optical_isomers>  (2) 
1.0

>  <modes>  (2) 
IdealGasTranslation(mass=(78.0469, 'amu')),         NonlinearRotor(             inertia = ([87.7329, 87.7329, 175.465

>  <frequency_value>  (2) 
unknown

>  <frequency_units>  (2) 
unknown

>  <frequency_list>  (2) 
unknown

>  <arkane_path>  (2) 
/home/calvin/Dropbox/PersonalFolders/Calvin/HAb_Converged/rxn_1884/output/Species/rxn_1884_c1ccccc1/arkane/output.py

>  <path_exists>  (2) 
True

>  <E0_value>  (2) 
-609504.360370392

>  <E0_units>  (2) 
kJ/mol

>  <thermo_class>  (2) 
NASA

>  <Cp0_value>  (2) 
33.257888

>  <Cp0_units>  (2) 
J/(mol*K)

>  <CpInf_value>  (2) 
282.692048

>  <CpInf_units>  (2) 
J/(mol*K)

>  <Tmin_value>  (2) 
10.0

>  <Tmin_units>  (2) 
K

>  <Tmax_value>  (2) 
3000.0

>  <Tmax_units>  (2) 
K

>  <polynomials>  (2) 
[{"name": "polynomial1", "class": "NASAPolynomial", "Tmin_value": 10.0, "Tmin_units": "K", "Tmax_value": 624.592263586622, "Tmax_units": "K", "coeffs": [4.233168258053532, -0.019045525749694137, 0.00020733289574214212, -3.229069809315715e-07, 1.6291912332876307e-10, -73306442.69933616, 7.126695957154937]}, {"name": "polynomial2", "class": "NASAPolynomial", "Tmin_value": 624.592263586622, "Tmin_units": "K", "Tmax_value": 3000.0, "Tmax_units": "K", "coeffs": [-1.8698187272419042, 0.050228720875929805, -3.153624591495123e-05, 9.439495887577878e-09, -1.0810156458482927e-12, -73306269.19580704, 28.983618873639625]}]

>  <H298_value>  (2) 
-145671.69164689348

>  <H298_units>  (2) 
kcal/mol

>  <S298_value>  (2) 
64.08076207186494

>  <S298_units>  (2) 
cal/(mol*K)

>  <Cp_T_value_list>  (2) 
[19.436126678110945, 26.41574535371564, 32.51606760943964, 37.38353889791204, 44.752284810021976, 50.04011810550739, 57.434969988722415, 60.93243343986719, 62.90784632965772]

>  <Cp_T_units>  (2) 
cal/(mol*K)

>  <T_list>  (2) 
[300.0, 400.0, 500.0, 600.0, 800.0, 1000.0, 1500.0, 2000.0, 2400.0]

>  <T_units>  (2) 
K

>  <yaml_path>  (2) 
/home/calvin/Dropbox/PersonalFolders/Calvin/HAb_Converged/rxn_1884/output/Species/rxn_1884_c1ccccc1/rxn_1884_c1ccccc1.yml

>  <frequencies_cm1>  (2) 
[411.08520919648, 411.08520919648, 619.4913466731599, 619.4913466731599, 688.7723615666399, 717.7579066023599, 868.2066879782399, 868.2066879782399, 984.4304145192399, 984.4304145192399, 1003.7129092978, 1017.3782100845998, 1018.6966712660399, 1060.29000134928, 1060.29000134928, 1165.64329012872, 1194.6494361204, 1194.6494361204, 1323.1101305016398, 1373.28719223488, 1510.9015780476798, 1510.9015780476798, 1649.40867195208, 1649.40867195208, 3149.73509260696, 3159.4312758787996, 3159.4312758787996, 3175.33521387992, 3175.33521387992, 3185.60135693332]

>  <ZPE_kJmol>  (2) 
262.6411261645067

>  <E_elec_kJmol>  (2) 
-609767.0014965564

>  <E0_minus_Eelec_plus_ZPE_kJmol>  (2) 
0.0

>  <rxn>  (2) 
rxn_1884

>  <species_type>  (2) 
p0

>  <species_folder>  (2) 
rxn_1884_c1ccccc1

>  <frequencies_cm1_list>  (2) 
[411.08520919648, 411.08520919648, 619.4913466731599, 619.4913466731599, 688.7723615666399, 717.7579066023599, 868.2066879782399, 868.2066879782399, 984.4304145192399, 984.4304145192399, 1003.7129092978, 1017.3782100845998, 1018.6966712660399, 1060.29000134928, 1060.29000134928, 1165.64329012872, 1194.6494361204, 1194.6494361204, 1323.1101305016398, 1373.28719223488, 1510.9015780476798, 1510.9015780476798, 1649.40867195208, 1649.40867195208, 3149.73509260696, 3159.4312758787996, 3159.4312758787996, 3175.33521387992, 3175.33521387992, 3185.60135693332]

>  <E0_kJmol>  (2) 
-609504

>  <H298_kJmol>  (2) 
-609490

$$$$

     RDKit          3D

 20 19  0  0  0  0  0  0  0  0999 V2000
   -1.5318    0.9946   -2.3113 C   0  0  0  0  0  0  0  0  0  1  0  0
   -1.8679    0.6355   -0.8832 C   0  0  0  0  0  0  0  0  0  2  0  0
   -2.1561    2.0002    0.2373 S   0  0  0  0  0  0  0  0  0  3  0  0
   -0.6117    1.5807   -2.3571 H   0  0  0  0  0  0  0  0  0  4  0  0
   -2.3297    1.5800   -2.7727 H   0  0  0  0  0  0  0  0  0  5  0  0
   -1.3831    0.0886   -2.9028 H   0  0  0  0  0  0  0  0  0  6  0  0
   -0.9215   -0.0230   -0.4389 H   0  0  0  0  0  0  0  0  0  7  0  0
   -2.7295   -0.0266   -0.7982 H   0  0  0  0  0  0  0  0  0  8  0  0
   -0.9989    2.6378    0.0090 H   0  0  0  0  0  0  0  0  0  9  0  0
    0.2638   -0.7209    0.0718 C   0  0  0  0  0  3  0  0  0 10  0  0
    1.0119   -1.5306   -0.7525 C   0  0  0  0  0  0  0  0  0 11  0  0
    2.1429   -2.1427   -0.2209 C   0  0  0  0  0  0  0  0  0 12  0  0
    2.4895   -1.9290    1.1061 C   0  0  0  0  0  0  0  0  0 13  0  0
    1.7142   -1.1059    1.9116 C   0  0  0  0  0  0  0  0  0 14  0  0
    0.5813   -0.4885    1.3905 C   0  0  0  0  0  0  0  0  0 15  0  0
    0.7347   -1.6918   -1.7877 H   0  0  0  0  0  0  0  0  0 16  0  0
    2.7526   -2.7860   -0.8440 H   0  0  0  0  0  0  0  0  0 17  0  0
    3.3703   -2.4073    1.5155 H   0  0  0  0  0  0  0  0  0 18  0  0
    1.9904   -0.9436    2.9465 H   0  0  0  0  0  0  0  0  0 19  0  0
   -0.0346    0.1583    2.0049 H   0  0  0  0  0  0  0  0  0 20  0  0
  1  4  1  0
  1  5  1  0
  1  6  1  0
  1  2  1  0
  2  8  1  0
  2  3  1  0
  2  7  1  0
  3  9  1  0
 10 11  1  0
 10 15  1  0
 11 12  1  0
 11 16  1  0
 12 17  1  0
 12 13  1  0
 13 18  1  0
 13 14  1  0
 14 15  1  0
 14 19  1  0
 15 20  1  0
M  RAD  1  10   2
M  END
>  <rmg_smiles>  (3) 
[C]1[CH][CH][CH][CH][CH]1.CCS

>  <rmg_adjacency_list>  (3) 
multiplicity 2
1  S u0 p2 c0 {2,S} {20,S}
2  C u0 p0 c0 {1,S} {3,S} {10,S} {11,S}
3  C u0 p0 c0 {2,S} {12,S} {13,S} {14,S}
4  C u0 p0 c0 {5,S} {6,S} {16,S}
5  C u0 p0 c0 {4,S} {7,S} {15,S}
6  C u0 p0 c0 {4,S} {8,S} {17,S}
7  C u0 p0 c0 {5,S} {9,S} {18,S}
8  C u0 p0 c0 {6,S} {9,S} {19,S}
9  C u1 p1 c0 {7,S} {8,S}
10 H u0 p0 c0 {2,S}
11 H u0 p0 c0 {2,S}
12 H u0 p0 c0 {3,S}
13 H u0 p0 c0 {3,S}
14 H u0 p0 c0 {3,S}
15 H u0 p0 c0 {5,S}
16 H u0 p0 c0 {4,S}
17 H u0 p0 c0 {6,S}
18 H u0 p0 c0 {7,S}
19 H u0 p0 c0 {8,S}
20 H u0 p0 c0 {1,S}


>  <multiplicity>  (3) 
2

>  <reaction>  (3) 
rxn_1884

>  <type>  (3) 
ts

>  <role_mapnums>  (3) 
{"*2": 7, "*1": 2, "*3": 10, "*0": 3, "*4": 11}

>  <role_mapidx>  (3) 
{"*2": 6, "*1": 1, "*3": 9, "*0": 2, "*4": 10}

>  <ordered_mapped_smiles>  (3) 
[C:1]([C:2]([S:3][H:9])([H:7])[H:8])([H:4])([H:5])[H:6].[CH:10]1[CH:11]([H:16])[CH:12]([H:17])[CH:13]([H:18])[CH:14]([H:19])[CH:15]1[H:20]

>  <mol_properties>  (3) 
{"1": {"label": "*1", "atom_type": "Cs"}, "2": {"label": "*0", "atom_type": "S2s"}, "6": {"label": "*2", "atom_type": "H0"}, "9": {"label": "*3", "atom_type": "C2s"}, "10": {"label": "*4", "atom_type": "Cs"}}

>  <level_of_theory>  (3) 
wb97xd/def2tzvp

>  <lot_method>  (3) 
wb97xd

>  <lot_basis>  (3) 
def2tzvp

>  <spin_multiplicity>  (3) 
2.0

>  <optical_isomers>  (3) 
2.0

>  <modes>  (3) 
IdealGasTranslation(mass=(139.058, 'amu')),         NonlinearRotor(             inertia = ([188.216, 794.709, 958.737

>  <frequency_value>  (3) 
-1317.72

>  <frequency_units>  (3) 
cm^-1

>  <frequency_list>  (3) 
unknown

>  <arkane_path>  (3) 
/home/calvin/Dropbox/PersonalFolders/Calvin/HAb_Converged/rxn_1884/output/rxns/TS0/arkane/output.py

>  <path_exists>  (3) 
True

>  <E0_value>  (3) 
-1862600.0

>  <E0_units>  (3) 
kJ/mol

>  <thermo_class>  (3) 
unknown

>  <Cp0_value>  (3) 
unknown

>  <Cp0_units>  (3) 
unknown

>  <CpInf_value>  (3) 
unknown

>  <CpInf_units>  (3) 
unknown

>  <Tmin_value>  (3) 
unknown

>  <Tmin_units>  (3) 
unknown

>  <Tmax_value>  (3) 
unknown

>  <Tmax_units>  (3) 
unknown

>  <polynomials>  (3) 
unknown

>  <H298_value>  (3) 
unknown

>  <H298_units>  (3) 
unknown

>  <S298_value>  (3) 
unknown

>  <S298_units>  (3) 
unknown

>  <Cp_T_value_list>  (3) 
unknown

>  <Cp_T_units>  (3) 
unknown

>  <T_list>  (3) 
unknown

>  <T_units>  (3) 
unknown

>  <yaml_path>  (3) 
unknown

>  <frequencies_cm1>  (3) 
unknown

>  <ZPE_kJmol>  (3) 
unknown

>  <E_elec_kJmol>  (3) 
unknown

>  <E0_minus_Eelec_plus_ZPE_kJmol>  (3) 
unknown

>  <rxn>  (3) 
unknown

>  <species_type>  (3) 
unknown

>  <species_folder>  (3) 
unknown

>  <frequencies_cm1_list>  (3) 
[]

>  <ts_imag_freq_cm1>  (3) 
-1333.7219

>  <ts_freq_out_path>  (3) 
/home/calvin/Dropbox/PersonalFolders/Calvin/HAb_Converged/rxn_1884/output/rxns/TS0/geometry/freq.out

>  <E0_kJmol>  (3) 
-1.8626e+06

>  <H298_kJmol>  (3) 
unknown

$$$$

     RDKit          3D

  8  7  0  0  0  0  0  0  0  0999 V2000
   -1.0607    0.1793   -0.1423 C   0  0  0  0  0  0  0  0  0  1  0  0
    0.2796    0.0327    0.4820 C   0  0  0  0  0  3  0  0  0  2  0  0
    0.8817   -1.4663    1.0791 S   0  0  0  0  0  0  0  0  0  3  0  0
   -1.3043    1.2328   -0.2850 H   0  0  0  0  0  0  0  0  0  4  0  0
   -1.8444   -0.2641    0.4799 H   0  0  0  0  0  0  0  0  0  5  0  0
   -1.1164   -0.3100   -1.1237 H   0  0  0  0  0  0  0  0  0  6  0  0
    1.0449    0.7826    0.3391 H   0  0  0  0  0  0  0  0  0  7  0  0
   -0.2993   -2.0726    1.2718 H   0  0  0  0  0  0  0  0  0  8  0  0
  1  5  1  0
  1  4  1  0
  1  6  1  0
  1  2  1  0
  2  7  1  0
  2  3  1  0
  3  8  1  0
M  RAD  1   2   2
M  END
>  <rmg_smiles>  (4) 
C[CH]S

>  <rmg_adjacency_list>  (4) 
multiplicity 2
1 S u0 p2 c0 {3,S} {8,S}
2 C u0 p0 c0 {3,S} {4,S} {5,S} {6,S}
3 C u1 p0 c0 {1,S} {2,S} {7,S}
4 H u0 p0 c0 {2,S}
5 H u0 p0 c0 {2,S}
6 H u0 p0 c0 {2,S}
7 H u0 p0 c0 {3,S}
8 H u0 p0 c0 {1,S}


>  <multiplicity>  (4) 
2

>  <reaction>  (4) 
rxn_1884

>  <type>  (4) 
r1

>  <role_mapnums>  (4) 
{}

>  <role_mapidx>  (4) 
{}

>  <ordered_mapped_smiles>  (4) 
[C:1]([C:2]([S:3][H:8])[H:7])([H:4])([H:5])[H:6]

>  <level_of_theory>  (4) 
wb97xd/def2tzvp

>  <lot_method>  (4) 
wb97xd

>  <lot_basis>  (4) 
def2tzvp

>  <spin_multiplicity>  (4) 
2.0

>  <optical_isomers>  (4) 
2.0

>  <modes>  (4) 
IdealGasTranslation(mass=(61.0112, 'amu')),         NonlinearRotor(             inertia = ([13.046, 92.7553, 102.244

>  <frequency_value>  (4) 
unknown

>  <frequency_units>  (4) 
unknown

>  <frequency_list>  (4) 
unknown

>  <arkane_path>  (4) 
/home/calvin/Dropbox/PersonalFolders/Calvin/HAb_Converged/rxn_1884/output/Species/rxn_1884_C[CH]S/arkane/output.py

>  <path_exists>  (4) 
True

>  <E0_value>  (4) 
-1253184.5981829516

>  <E0_units>  (4) 
kJ/mol

>  <thermo_class>  (4) 
NASA

>  <Cp0_value>  (4) 
33.257888

>  <Cp0_units>  (4) 
J/(mol*K)

>  <CpInf_value>  (4) 
182.918384

>  <CpInf_units>  (4) 
J/(mol*K)

>  <Tmin_value>  (4) 
10.0

>  <Tmin_units>  (4) 
K

>  <Tmax_value>  (4) 
3000.0

>  <Tmax_units>  (4) 
K

>  <polynomials>  (4) 
[{"name": "polynomial1", "class": "NASAPolynomial", "Tmin_value": 10.0, "Tmin_units": "K", "Tmax_value": 413.8010480726284, "Tmax_units": "K", "coeffs": [3.7950295729261647, 0.016457708367529925, 9.731711480509379e-06, -3.2015572359360355e-08, 2.0934508459004603e-11, -150723288.9505719, 9.662663267236853]}, {"name": "polynomial2", "class": "NASAPolynomial", "Tmin_value": 413.8010480726284, "Tmin_units": "K", "Tmax_value": 3000.0, "Tmax_units": "K", "coeffs": [3.171701388229353, 0.02248310275825266, -1.2109939387600553e-05, 3.1731034874071525e-09, -3.249234972610705e-13, -150723237.3638374, 12.119854918634292]}]

>  <H298_value>  (4) 
-299514.53540410154

>  <H298_units>  (4) 
kcal/mol

>  <S298_value>  (4) 
72.29191673058813

>  <S298_units>  (4) 
cal/(mol*K)

>  <Cp_T_value_list>  (4) 
[17.712657489437476, 20.710891785101634, 23.373717884324098, 25.72491502627314, 29.60811043312427, 32.57636509573052, 37.18717346712741, 39.514014084536406, 40.66360633897774]

>  <Cp_T_units>  (4) 
cal/(mol*K)

>  <T_list>  (4) 
[300.0, 400.0, 500.0, 600.0, 800.0, 1000.0, 1500.0, 2000.0, 2400.0]

>  <T_units>  (4) 
K

>  <yaml_path>  (4) 
/home/calvin/Dropbox/PersonalFolders/Calvin/HAb_Converged/rxn_1884/output/Species/rxn_1884_C[CH]S/rxn_1884_CCHS.yml

>  <frequencies_cm1>  (4) 
[128.26155180696, 206.51084952836, 328.47537579688, 383.06104210556, 719.5433227855599, 910.4180467402799, 999.9292003864799, 1062.5698404755199, 1120.95294966616, 1318.91440247112, 1398.79117571336, 1459.19317858808, 1469.92627664324, 2677.2315667084, 2962.1771225617995, 3023.7808478675192, 3086.80603913448, 3183.9601474418396]

>  <ZPE_kJmol>  (4) 
158.14937342870658

>  <E_elec_kJmol>  (4) 
-1253342.7475563802

>  <E0_minus_Eelec_plus_ZPE_kJmol>  (4) 
0.0

>  <rxn>  (4) 
rxn_1884

>  <species_type>  (4) 
p1

>  <species_folder>  (4) 
rxn_1884_C[CH]S

>  <frequencies_cm1_list>  (4) 
[128.26155180696, 206.51084952836, 328.47537579688, 383.06104210556, 719.5433227855599, 910.4180467402799, 999.9292003864799, 1062.5698404755199, 1120.95294966616, 1318.91440247112, 1398.79117571336, 1459.19317858808, 1469.92627664324, 2677.2315667084, 2962.1771225617995, 3023.7808478675192, 3086.80603913448, 3183.9601474418396]

>  <E0_kJmol>  (4) 
-1.25318e+06

>  <H298_kJmol>  (4) 
-1.25317e+06

$$$$

     RDKit          3D

 11 11  0  0  0  0  0  0  0  0999 V2000
    0.1524   -1.5397    0.0698 C   0  0  0  0  0  3  0  0  0  1  0  0
   -1.1218   -1.0406    0.0516 C   0  0  0  0  0  0  0  0  0  2  0  0
   -1.2464    0.3470   -0.0114 C   0  0  0  0  0  0  0  0  0  3  0  0
   -0.1137    1.1487   -0.0521 C   0  0  0  0  0  0  0  0  0  4  0  0
    1.1542    0.5837   -0.0308 C   0  0  0  0  0  0  0  0  0  5  0  0
    1.3041   -0.8014    0.0319 C   0  0  0  0  0  0  0  0  0  6  0  0
   -1.9955   -1.6793    0.0840 H   0  0  0  0  0  0  0  0  0  7  0  0
   -2.2319    0.7966   -0.0284 H   0  0  0  0  0  0  0  0  0  8  0  0
   -0.2203    2.2248   -0.1009 H   0  0  0  0  0  0  0  0  0  9  0  0
    2.0325    1.2173   -0.0630 H   0  0  0  0  0  0  0  0  0 10  0  0
    2.2862   -1.2570    0.0492 H   0  0  0  0  0  0  0  0  0 11  0  0
  1  6  1  0
  1  2  1  0
  2  7  1  0
  2  3  1  0
  3  4  1  0
  3  8  1  0
  4  5  1  0
  4  9  1  0
  5  6  1  0
  5 10  1  0
  6 11  1  0
M  RAD  1   1   2
M  END
>  <rmg_smiles>  (5) 
[C]1[CH][CH][CH][CH][CH]1

>  <rmg_adjacency_list>  (5) 
multiplicity 2
1  C u0 p0 c0 {2,S} {3,S} {8,S}
2  C u0 p0 c0 {1,S} {4,S} {7,S}
3  C u0 p0 c0 {1,S} {5,S} {9,S}
4  C u0 p0 c0 {2,S} {6,S} {10,S}
5  C u0 p0 c0 {3,S} {6,S} {11,S}
6  C u1 p1 c0 {4,S} {5,S}
7  H u0 p0 c0 {2,S}
8  H u0 p0 c0 {1,S}
9  H u0 p0 c0 {3,S}
10 H u0 p0 c0 {4,S}
11 H u0 p0 c0 {5,S}


>  <multiplicity>  (5) 
2

>  <reaction>  (5) 
rxn_1884

>  <type>  (5) 
r2

>  <role_mapnums>  (5) 
{}

>  <role_mapidx>  (5) 
{}

>  <ordered_mapped_smiles>  (5) 
[CH:1]1[CH:2]([H:7])[CH:3]([H:8])[CH:4]([H:9])[CH:5]([H:10])[CH:6]1[H:11]

>  <level_of_theory>  (5) 
wb97xd/def2tzvp

>  <lot_method>  (5) 
wb97xd

>  <lot_basis>  (5) 
def2tzvp

>  <spin_multiplicity>  (5) 
2.0

>  <optical_isomers>  (5) 
1.0

>  <modes>  (5) 
IdealGasTranslation(mass=(77.0391, 'amu')),         NonlinearRotor(             inertia = ([79.4834, 89.154, 168.637

>  <frequency_value>  (5) 
unknown

>  <frequency_units>  (5) 
unknown

>  <frequency_list>  (5) 
unknown

>  <arkane_path>  (5) 
/home/calvin/Dropbox/PersonalFolders/Calvin/HAb_Converged/rxn_1884/output/Species/rxn_1884_[c]1ccccc1/arkane/output.py

>  <path_exists>  (5) 
True

>  <E0_value>  (5) 
-607724.3998530591

>  <E0_units>  (5) 
kJ/mol

>  <thermo_class>  (5) 
NASA

>  <Cp0_value>  (5) 
33.257888

>  <Cp0_units>  (5) 
J/(mol*K)

>  <CpInf_value>  (5) 
257.748632

>  <CpInf_units>  (5) 
J/(mol*K)

>  <Tmin_value>  (5) 
10.0

>  <Tmin_units>  (5) 
K

>  <Tmax_value>  (5) 
3000.0

>  <Tmax_units>  (5) 
K

>  <polynomials>  (5) 
[{"name": "polynomial1", "class": "NASAPolynomial", "Tmin_value": 10.0, "Tmin_units": "K", "Tmax_value": 611.9514440069146, "Tmax_units": "K", "coeffs": [4.21092824796689, -0.0177158055371586, 0.00019979619343695558, -3.2072542312861555e-07, 1.663400132916073e-10, -73092362.08808899, 9.541913883825746]}, {"name": "polynomial2", "class": "NASAPolynomial", "Tmin_value": 611.9514440069146, "Tmin_units": "K", "Tmax_value": 3000.0, "Tmax_units": "K", "coeffs": [-0.9065651052715874, 0.045726326043511574, -2.922673270471325e-05, 8.862920022768984e-09, -1.0248092407500463e-12, -73092297.33007778, 27.12926551119779]}]

>  <H298_value>  (5) 
-145246.28547837675

>  <H298_units>  (5) 
kcal/mol

>  <S298_value>  (5) 
68.80259293434003

>  <S298_units>  (5) 
cal/(mol*K)

>  <Cp_T_value_list>  (5) 
[19.0088457147948, 25.48368626323164, 31.015617142413397, 35.350513599609414, 41.905097827045225, 46.56251177649668, 52.95315854009716, 55.93105668249137, 57.650713362445174]

>  <Cp_T_units>  (5) 
cal/(mol*K)

>  <T_list>  (5) 
[300.0, 400.0, 500.0, 600.0, 800.0, 1000.0, 1500.0, 2000.0, 2400.0]

>  <T_units>  (5) 
K

>  <yaml_path>  (5) 
/home/calvin/Dropbox/PersonalFolders/Calvin/HAb_Converged/rxn_1884/output/Species/rxn_1884_[c]1ccccc1/rxn_1884_c1ccccc1.yml

>  <frequencies_cm1>  (5) 
[400.5512537155999, 426.67326587288, 597.8672099004799, 615.68016982056, 676.79633916856, 724.72789670216, 824.4571245045198, 899.6574807438399, 971.9119002808799, 984.9523054035599, 991.6407491052399, 1020.6812300235198, 1047.53114262472, 1072.8977863968, 1169.36519617216, 1172.49654147808, 1297.26966474248, 1311.9787472979199, 1460.7382502850799, 1471.6292890026, 1588.58778297284, 1641.45670295152, 3150.80634231688, 3156.9248262369997, 3168.1111453232797, 3171.7231796016, 3181.6597073596404]

>  <ZPE_kJmol>  (5) 
228.47946828382223

>  <E_elec_kJmol>  (5) 
-607952.8793213429

>  <E0_minus_Eelec_plus_ZPE_kJmol>  (5) 
0.0

>  <rxn>  (5) 
rxn_1884

>  <species_type>  (5) 
r1

>  <species_folder>  (5) 
rxn_1884_[c]1ccccc1

>  <frequencies_cm1_list>  (5) 
[400.5512537155999, 426.67326587288, 597.8672099004799, 615.68016982056, 676.79633916856, 724.72789670216, 824.4571245045198, 899.6574807438399, 971.9119002808799, 984.9523054035599, 991.6407491052399, 1020.6812300235198, 1047.53114262472, 1072.8977863968, 1169.36519617216, 1172.49654147808, 1297.26966474248, 1311.9787472979199, 1460.7382502850799, 1471.6292890026, 1588.58778297284, 1641.45670295152, 3150.80634231688, 3156.9248262369997, 3168.1111453232797, 3171.7231796016, 3181.6597073596404]

>  <E0_kJmol>  (5) 
-607724

>  <H298_kJmol>  (5) 
-607710

$$$$
