
     RDKit          3D

 10  9  0  0  0  0  0  0  0  0999 V2000
    0.3687    0.0119   -1.8111 C   0  0  0  0  0  0  0  0  0  1  0  0
    0.1007   -0.4542   -0.5949 C   0  0  0  0  0  0  0  0  0  2  0  0
   -0.1429    0.3635    0.5709 C   0  0  0  0  0  0  0  0  0  3  0  0
   -0.3233    0.0377    1.8346 C   0  0  0  0  0  0  0  0  0  4  0  0
    0.4358    1.0748   -2.0104 H   0  0  0  0  0  0  0  0  0  5  0  0
    0.5414   -0.6606   -2.6410 H   0  0  0  0  0  0  0  0  0  6  0  0
    0.0522   -1.5320   -0.4355 H   0  0  0  0  0  0  0  0  0  7  0  0
   -0.2322    1.4360    0.3977 H   0  0  0  0  0  0  0  0  0  8  0  0
   -0.2882   -1.0000    2.1653 H   0  0  0  0  0  0  0  0  0  9  0  0
   -0.5153    0.7916    2.5909 H   0  0  0  0  0  0  0  0  0 10  0  0
  1  5  1  0
  1  6  1  0
  1  2  1  0
  2  7  1  0
  2  3  1  0
  3  4  1  0
  3  8  1  0
  4  9  1  0
  4 10  1  0
M  END
>  <rmg_smiles>  (1) 
[CH2][CH][CH][CH2]

>  <rmg_adjacency_list>  (1) 
1  C u0 p0 c0 {2,S} {3,S} {5,S}
2  C u0 p0 c0 {1,S} {4,S} {6,S}
3  C u0 p0 c0 {1,S} {7,S} {8,S}
4  C u0 p0 c0 {2,S} {9,S} {10,S}
5  H u0 p0 c0 {1,S}
6  H u0 p0 c0 {2,S}
7  H u0 p0 c0 {3,S}
8  H u0 p0 c0 {3,S}
9  H u0 p0 c0 {4,S}
10 H u0 p0 c0 {4,S}


>  <multiplicity>  (1) 
1

>  <reaction>  (1) 
rxn_1683

>  <type>  (1) 
r1h

>  <role_mapnums>  (1) 
{"r1h_a": 3, "r1h_h": 8}

>  <role_mapidx>  (1) 
{"r1h_a": 2, "r1h_h": 7}

>  <ordered_mapped_smiles>  (1) 
[CH:1]([CH:2]([CH:3]([CH:4]([H:9])[H:10])[H:8])[H:7])([H:5])[H:6]

>  <mol_properties>  (1) 
{"2": {"label": "donator", "atom_type": "Cs"}, "7": {"label": "d_hydrogen", "atom_type": "H0"}}

>  <level_of_theory>  (1) 
wb97xd/def2tzvp

>  <lot_method>  (1) 
wb97xd

>  <lot_basis>  (1) 
def2tzvp

>  <spin_multiplicity>  (1) 
1.0

>  <optical_isomers>  (1) 
1.0

>  <modes>  (1) 
IdealGasTranslation(mass=(54.047, 'amu')),         NonlinearRotor(             inertia = ([11.9182, 113.061, 124.979

>  <frequency_value>  (1) 
unknown

>  <frequency_units>  (1) 
unknown

>  <frequency_list>  (1) 
unknown

>  <arkane_path>  (1) 
/home/calvin/Dropbox/PersonalFolders/Calvin/HAb_Converged/rxn_1683/output/Species/rxn_1683_C=CC=C/arkane/output.py

>  <path_exists>  (1) 
True

>  <E0_value>  (1) 
-409338.1696024378

>  <E0_units>  (1) 
kJ/mol

>  <thermo_class>  (1) 
NASA

>  <Cp0_value>  (1) 
33.257888

>  <Cp0_units>  (1) 
J/(mol*K)

>  <CpInf_value>  (1) 
232.805216

>  <CpInf_units>  (1) 
J/(mol*K)

>  <Tmin_value>  (1) 
10.0

>  <Tmin_units>  (1) 
K

>  <Tmax_value>  (1) 
3000.0

>  <Tmax_units>  (1) 
K

>  <polynomials>  (1) 
[{"name": "polynomial1", "class": "NASAPolynomial", "Tmin_value": 10.0, "Tmin_units": "K", "Tmax_value": 477.25150837589547, "Tmax_units": "K", "coeffs": [3.9644918263777202, 0.0020596769963902215, 8.674853780374631e-05, -1.450839919461119e-07, 7.838009270341474e-11, -49232008.066253, 7.365433669817705]}, {"name": "polynomial2", "class": "NASAPolynomial", "Tmin_value": 477.25150837589547, "Tmin_units": "K", "Tmax_value": 3000.0, "Tmax_units": "K", "coeffs": [-0.2016346126607574, 0.03684948174336166, -2.2193862153022103e-05, 6.534948821102615e-09, -7.488372760157006e-13, -49231608.95215794, 24.398107945208505]}]

>  <H298_value>  (1) 
-97830.61157155824

>  <H298_units>  (1) 
kcal/mol

>  <S298_value>  (1) 
66.15772377359508

>  <S298_units>  (1) 
cal/(mol*K)

>  <Cp_T_value_list>  (1) 
[18.098233407620363, 22.632858336014493, 26.717409141232952, 30.270647037570512, 35.994368828752485, 40.221251390017414, 46.50234453691136, 49.720054530985024, 51.45868146938158]

>  <Cp_T_units>  (1) 
cal/(mol*K)

>  <T_list>  (1) 
[300.0, 400.0, 500.0, 600.0, 800.0, 1000.0, 1500.0, 2000.0, 2400.0]

>  <T_units>  (1) 
K

>  <yaml_path>  (1) 
/home/calvin/Dropbox/PersonalFolders/Calvin/HAb_Converged/rxn_1683/output/Species/rxn_1683_C=CC=C/rxn_1683_C=CC=C.yml

>  <frequencies_cm1>  (1) 
[162.86429083444, 299.37995899604, 518.85567680856, 535.67292385724, 782.5273121405999, 895.6128263903599, 951.29034336492, 952.5882035904, 1000.9317802431998, 1006.4047675432399, 1052.23502756892, 1221.82209703164, 1311.4568564135998, 1314.3066553213998, 1409.56547568044, 1464.2884816955202, 1663.07397273888, 1726.1678338590398, 3116.4851496875194, 3119.6920318319594, 3127.2663166399198, 3132.3341518060793, 3211.3044829860796, 3211.503625560359]

>  <ZPE_kJmol>  (1) 
222.43148839891296

>  <E_elec_kJmol>  (1) 
-409560.6010908368

>  <E0_minus_Eelec_plus_ZPE_kJmol>  (1) 
0.0

>  <rxn>  (1) 
rxn_1683

>  <species_type>  (1) 
r1

>  <species_folder>  (1) 
rxn_1683_C=CC=C

>  <frequencies_cm1_list>  (1) 
[162.86429083444, 299.37995899604, 518.85567680856, 535.67292385724, 782.5273121405999, 895.6128263903599, 951.29034336492, 952.5882035904, 1000.9317802431998, 1006.4047675432399, 1052.23502756892, 1221.82209703164, 1311.4568564135998, 1314.3066553213998, 1409.56547568044, 1464.2884816955202, 1663.07397273888, 1726.1678338590398, 3116.4851496875194, 3119.6920318319594, 3127.2663166399198, 3132.3341518060793, 3211.3044829860796, 3211.503625560359]

>  <E0_kJmol>  (1) 
-409338

>  <H298_kJmol>  (1) 
-409323

$$$$

     RDKit          3D

 19 19  0  0  0  0  0  0  0  0999 V2000
   -2.4859   -0.5856   -0.0892 C   0  0  0  0  0  0  0  0  0  1  0  0
   -1.1227   -0.6568    0.5667 C   0  0  0  0  0  0  0  0  0  2  0  0
    0.0478   -0.1977   -0.2489 C   0  0  0  0  0  0  0  0  0  3  0  0
   -0.0928    0.6649   -1.3313 C   0  0  0  0  0  0  0  0  0  4  0  0
    1.0123    1.0523   -2.0756 C   0  0  0  0  0  0  0  0  0  5  0  0
    2.2737    0.5800   -1.7528 C   0  0  0  0  0  0  0  0  0  6  0  0
    2.4248   -0.2877   -0.6802 C   0  0  0  0  0  0  0  0  0  7  0  0
    1.3220   -0.6726    0.0610 C   0  0  0  0  0  0  0  0  0  8  0  0
   -1.2194    0.0991    2.2068 S   0  0  0  0  0  0  0  0  0  9  0  0
   -3.2312   -1.0736    0.5402 H   0  0  0  0  0  0  0  0  0 10  0  0
   -2.8090    0.4443   -0.2572 H   0  0  0  0  0  0  0  0  0 11  0  0
   -2.4630   -1.1043   -1.0488 H   0  0  0  0  0  0  0  0  0 12  0  0
   -1.0703    1.0445   -1.5986 H   0  0  0  0  0  0  0  0  0 13  0  0
    0.8835    1.7272   -2.9125 H   0  0  0  0  0  0  0  0  0 14  0  0
    3.1345    0.8807   -2.3364 H   0  0  0  0  0  0  0  0  0 15  0  0
    3.4042   -0.6737   -0.4270 H   0  0  0  0  0  0  0  0  0 16  0  0
    1.4412   -1.3719    0.8814 H   0  0  0  0  0  0  0  0  0 17  0  0
    0.0910    0.0793    2.4794 H   0  0  0  0  0  0  0  0  0 18  0  0
   -0.9563   -1.7210    0.7337 H   0  0  0  0  0  0  0  0  0 19  0  0
  1 11  1  0
  1 10  1  0
  1 12  1  0
  1  2  1  0
  2  9  1  0
  2  3  1  0
  2 19  1  0
  3  4  1  0
  3  8  1  0
  4  5  1  0
  4 13  1  0
  5 14  1  0
  5  6  1  0
  6  7  1  0
  6 15  1  0
  7  8  1  0
  7 16  1  0
  8 17  1  0
  9 18  1  0
M  END
>  <rmg_smiles>  (2) 
CC([C]1[CH][CH][CH][CH][CH]1)S

>  <rmg_adjacency_list>  (2) 
1  S u0 p2 c0 {2,S} {19,S}
2  C u0 p0 c0 {1,S} {3,S} {4,S} {10,S}
3  C u0 p0 c0 {2,S} {11,S} {12,S} {13,S}
4  C u0 p0 c0 {2,S} {5,S} {6,S}
5  C u0 p0 c0 {4,S} {7,S} {14,S}
6  C u0 p0 c0 {4,S} {9,S} {18,S}
7  C u0 p0 c0 {5,S} {8,S} {15,S}
8  C u0 p0 c0 {7,S} {9,S} {16,S}
9  C u0 p0 c0 {6,S} {8,S} {17,S}
10 H u0 p0 c0 {2,S}
11 H u0 p0 c0 {3,S}
12 H u0 p0 c0 {3,S}
13 H u0 p0 c0 {3,S}
14 H u0 p0 c0 {5,S}
15 H u0 p0 c0 {7,S}
16 H u0 p0 c0 {8,S}
17 H u0 p0 c0 {9,S}
18 H u0 p0 c0 {6,S}
19 H u0 p0 c0 {1,S}


>  <multiplicity>  (2) 
1

>  <reaction>  (2) 
rxn_1683

>  <type>  (2) 
r2h

>  <role_mapnums>  (2) 
{"r2h_a": 2, "r2h_h": 19}

>  <role_mapidx>  (2) 
{"r2h_a": 1, "r2h_h": 18}

>  <ordered_mapped_smiles>  (2) 
[C:1]([C:2]([CH:3]1[CH:4]([H:13])[CH:5]([H:14])[CH:6]([H:15])[CH:7]([H:16])[CH:8]1[H:17])([S:9][H:18])[H:19])([H:10])([H:11])[H:12]

>  <mol_properties>  (2) 
{"1": {"label": "acceptor", "atom_type": "Cs"}, "18": {"label": "a_hydrogen", "atom_type": "H0"}}

>  <level_of_theory>  (2) 
wb97xd/def2tzvp

>  <lot_method>  (2) 
wb97xd

>  <lot_basis>  (2) 
def2tzvp

>  <spin_multiplicity>  (2) 
1.0

>  <optical_isomers>  (2) 
2.0

>  <modes>  (2) 
IdealGasTranslation(mass=(138.05, 'amu')),         NonlinearRotor(             inertia = ([178.651, 604.969, 626.407

>  <frequency_value>  (2) 
unknown

>  <frequency_units>  (2) 
unknown

>  <frequency_list>  (2) 
unknown

>  <arkane_path>  (2) 
/home/calvin/Dropbox/PersonalFolders/Calvin/HAb_Converged/rxn_1683/output/Species/rxn_1683_CC[c1ccccc1]S/arkane/output.py

>  <path_exists>  (2) 
True

>  <E0_value>  (2) 
-1861292.4343676984

>  <E0_units>  (2) 
kJ/mol

>  <thermo_class>  (2) 
NASA

>  <Cp0_value>  (2) 
33.257888

>  <Cp0_units>  (2) 
J/(mol*K)

>  <CpInf_value>  (2) 
457.29596

>  <CpInf_units>  (2) 
J/(mol*K)

>  <Tmin_value>  (2) 
10.0

>  <Tmin_units>  (2) 
K

>  <Tmax_value>  (2) 
3000.0

>  <Tmax_units>  (2) 
K

>  <polynomials>  (2) 
[{"name": "polynomial1", "class": "NASAPolynomial", "Tmin_value": 10.0, "Tmin_units": "K", "Tmax_value": 722.758394872234, "Tmax_units": "K", "coeffs": [3.660854698446483, 0.03429926797736181, 8.821931306902672e-05, -1.5845535362879026e-07, 7.5004381355476e-11, -223861769.3872363, 13.927801476085207]}, {"name": "polynomial2", "class": "NASAPolynomial", "Tmin_value": 722.758394872234, "Tmin_units": "K", "Tmax_value": 3000.0, "Tmax_units": "K", "coeffs": [1.7719291190065967, 0.07095940147953034, -4.225226652243977e-05, 1.2057473606982652e-08, -1.3280748931699859e-12, -223862180.81798056, 17.69229937156957]}]

>  <H298_value>  (2) 
-444853.3734063983

>  <H298_units>  (2) 
kcal/mol

>  <S298_value>  (2) 
94.73497621650904

>  <S298_units>  (2) 
cal/(mol*K)

>  <Cp_T_value_list>  (2) 
[36.2061358007761, 46.25147917373764, 55.137372551351916, 62.584246178246104, 73.77990352324603, 81.88972515051314, 93.62529863359448, 99.14621657038083, 101.98664710252923]

>  <Cp_T_units>  (2) 
cal/(mol*K)

>  <T_list>  (2) 
[300.0, 400.0, 500.0, 600.0, 800.0, 1000.0, 1500.0, 2000.0, 2400.0]

>  <T_units>  (2) 
K

>  <yaml_path>  (2) 
/home/calvin/Dropbox/PersonalFolders/Calvin/HAb_Converged/rxn_1683/output/Species/rxn_1683_CC[c1ccccc1]S/rxn_1683_CCc1ccccc1S.yml

>  <frequencies_cm1>  (2) 
[38.619925439679996, 113.133583147, 200.19322303395995, 216.24136772679998, 249.58744844071998, 264.58494437959996, 299.67523936479995, 404.45856836267996, 414.23028847304, 539.0240126934, 577.57526827988, 629.64075097612, 697.3217582900401, 715.539870344, 784.2097235439999, 800.5325476496399, 862.09507104344, 870.4384582072399, 934.92631734736, 982.8922098075599, 986.64158379228, 999.0158913389199, 1015.9910790499598, 1051.4521912424398, 1079.23601384716, 1092.59230029456, 1120.4928616497198, 1175.6004188427198, 1201.4614855578398, 1220.57917268872, 1250.5123616985998, 1304.7272107999997, 1341.2664396877199, 1372.07860281856, 1401.9293880046, 1478.2421958657599, 1482.9872827218799, 1485.9538203801196, 1528.5771982613599, 1640.6257977278, 1660.5537891264398, 2704.47289747284, 3020.3404882222, 3056.7767123301196, 3100.1005227139995, 3101.6112594843994, 3145.2166162663993, 3154.1093622557996, 3163.29052162864, 3171.9360561465196, 3182.54554846592]

>  <ZPE_kJmol>  (2) 
408.4401292927415

>  <E_elec_kJmol>  (2) 
-1861700.8744969915

>  <E0_minus_Eelec_plus_ZPE_kJmol>  (2) 
0.0

>  <rxn>  (2) 
rxn_1683

>  <species_type>  (2) 
p0

>  <species_folder>  (2) 
rxn_1683_CC[c1ccccc1]S

>  <frequencies_cm1_list>  (2) 
[38.619925439679996, 113.133583147, 200.19322303395995, 216.24136772679998, 249.58744844071998, 264.58494437959996, 299.67523936479995, 404.45856836267996, 414.23028847304, 539.0240126934, 577.57526827988, 629.64075097612, 697.3217582900401, 715.539870344, 784.2097235439999, 800.5325476496399, 862.09507104344, 870.4384582072399, 934.92631734736, 982.8922098075599, 986.64158379228, 999.0158913389199, 1015.9910790499598, 1051.4521912424398, 1079.23601384716, 1092.59230029456, 1120.4928616497198, 1175.6004188427198, 1201.4614855578398, 1220.57917268872, 1250.5123616985998, 1304.7272107999997, 1341.2664396877199, 1372.07860281856, 1401.9293880046, 1478.2421958657599, 1482.9872827218799, 1485.9538203801196, 1528.5771982613599, 1640.6257977278, 1660.5537891264398, 2704.47289747284, 3020.3404882222, 3056.7767123301196, 3100.1005227139995, 3101.6112594843994, 3145.2166162663993, 3154.1093622557996, 3163.29052162864, 3171.9360561465196, 3182.54554846592]

>  <E0_kJmol>  (2) 
-1.86129e+06

>  <H298_kJmol>  (2) 
-1.86127e+06

$$$$

     RDKit          3D

 28 27  0  0  0  0  0  0  0  0999 V2000
   -2.2893    0.4800   -0.1391 C   0  0  0  0  0  0  0  0  0  1  0  0
   -0.9261    0.4087    0.5168 C   0  0  0  0  0  0  0  0  0  2  0  0
    0.2444    0.8679   -0.2988 C   0  0  0  0  0  0  0  0  0  3  0  0
    0.1038    1.7304   -1.3812 C   0  0  0  0  0  0  0  0  0  4  0  0
    1.2088    2.1178   -2.1254 C   0  0  0  0  0  0  0  0  0  5  0  0
    2.4703    1.6455   -1.8027 C   0  0  0  0  0  0  0  0  0  6  0  0
    2.6214    0.7778   -0.7301 C   0  0  0  0  0  0  0  0  0  7  0  0
    1.5185    0.3930    0.0112 C   0  0  0  0  0  0  0  0  0  8  0  0
   -1.0229    1.1646    2.1570 S   0  0  0  0  0  0  0  0  0  9  0  0
   -3.0346   -0.0081    0.4903 H   0  0  0  0  0  0  0  0  0 10  0  0
   -2.6125    1.5098   -0.3071 H   0  0  0  0  0  0  0  0  0 11  0  0
   -2.2665   -0.0388   -1.0987 H   0  0  0  0  0  0  0  0  0 12  0  0
   -0.8737    2.1100   -1.6484 H   0  0  0  0  0  0  0  0  0 13  0  0
    1.0801    2.7927   -2.9624 H   0  0  0  0  0  0  0  0  0 14  0  0
    3.3310    1.9462   -2.3862 H   0  0  0  0  0  0  0  0  0 15  0  0
    3.6007    0.3918   -0.4769 H   0  0  0  0  0  0  0  0  0 16  0  0
    1.6377   -0.3064    0.8315 H   0  0  0  0  0  0  0  0  0 17  0  0
    0.2875    1.1448    2.4295 H   0  0  0  0  0  0  0  0  0 18  0  0
   -0.1044   -2.6042   -1.4408 C   0  0  0  0  0  0  0  0  0 19  0  0
   -0.3725   -3.0703   -0.2247 C   0  0  0  0  0  0  0  0  0 20  0  0
   -0.6161   -2.2526    0.9411 C   0  0  0  0  0  3  0  0  0 21  0  0
   -0.7965   -2.5784    2.2049 C   0  0  0  0  0  0  0  0  0 22  0  0
   -0.0373   -1.5413   -1.6402 H   0  0  0  0  0  0  0  0  0 23  0  0
    0.0682   -3.2767   -2.2708 H   0  0  0  0  0  0  0  0  0 24  0  0
   -0.4209   -4.1481   -0.0653 H   0  0  0  0  0  0  0  0  0 25  0  0
   -0.7369   -0.8013    0.7068 H   0  0  0  0  0  0  0  0  0 26  0  0
   -0.7613   -3.6161    2.5355 H   0  0  0  0  0  0  0  0  0 27  0  0
   -0.9885   -1.8245    2.9611 H   0  0  0  0  0  0  0  0  0 28  0  0
  1 11  1  0
  1 10  1  0
  1 12  1  0
  1  2  1  0
  2  9  1  0
  2  3  1  0
  2 26  1  0
  3  4  1  0
  3  8  1  0
  4  5  1  0
  4 13  1  0
  5 14  1  0
  5  6  1  0
  6  7  1  0
  6 15  1  0
  7  8  1  0
  7 16  1  0
  8 17  1  0
  9 18  1  0
 19 20  1  0
 19 23  1  0
 19 24  1  0
 20 21  1  0
 20 25  1  0
 21 22  1  0
 22 27  1  0
 22 28  1  0
M  RAD  1  21   2
M  END
>  <rmg_smiles>  (3) 
CC([C]1[CH][CH][CH][CH][CH]1)S.[CH2][CH][C][CH2]

>  <rmg_adjacency_list>  (3) 
multiplicity 2
1  S u0 p2 c0 {2,S} {28,S}
2  C u0 p0 c0 {1,S} {3,S} {4,S} {14,S}
3  C u0 p0 c0 {2,S} {15,S} {16,S} {17,S}
4  C u0 p0 c0 {2,S} {5,S} {6,S}
5  C u0 p0 c0 {4,S} {7,S} {18,S}
6  C u0 p0 c0 {4,S} {9,S} {22,S}
7  C u0 p0 c0 {5,S} {8,S} {19,S}
8  C u0 p0 c0 {7,S} {9,S} {20,S}
9  C u0 p0 c0 {6,S} {8,S} {21,S}
10 C u0 p0 c0 {11,S} {13,S} {23,S}
11 C u0 p0 c0 {10,S} {24,S} {25,S}
12 C u0 p0 c0 {13,S} {26,S} {27,S}
13 C u1 p1 c0 {10,S} {12,S}
14 H u0 p0 c0 {2,S}
15 H u0 p0 c0 {3,S}
16 H u0 p0 c0 {3,S}
17 H u0 p0 c0 {3,S}
18 H u0 p0 c0 {5,S}
19 H u0 p0 c0 {7,S}
20 H u0 p0 c0 {8,S}
21 H u0 p0 c0 {9,S}
22 H u0 p0 c0 {6,S}
23 H u0 p0 c0 {10,S}
24 H u0 p0 c0 {11,S}
25 H u0 p0 c0 {11,S}
26 H u0 p0 c0 {12,S}
27 H u0 p0 c0 {12,S}
28 H u0 p0 c0 {1,S}


>  <multiplicity>  (3) 
2

>  <reaction>  (3) 
rxn_1683

>  <type>  (3) 
ts

>  <role_mapnums>  (3) 
{"*2": 26, "*1": 2, "*3": 21, "*0": 3, "*4": 20}

>  <role_mapidx>  (3) 
{"*2": 25, "*1": 1, "*3": 20, "*0": 2, "*4": 19}

>  <ordered_mapped_smiles>  (3) 
[C:1]([C:2]([CH:3]1[CH:4]([H:13])[CH:5]([H:14])[CH:6]([H:15])[CH:7]([H:16])[CH:8]1[H:17])([S:9][H:18])[H:26])([H:10])([H:11])[H:12].[CH:19]([CH:20]([CH:21][CH:22]([H:27])[H:28])[H:25])([H:23])[H:24]

>  <mol_properties>  (3) 
{"1": {"label": "*1", "atom_type": "Cs"}, "2": {"label": "*0", "atom_type": "Cs"}, "19": {"label": "*4", "atom_type": "Cs"}, "20": {"label": "*3", "atom_type": "C2s"}, "25": {"label": "*2", "atom_type": "H0"}}

>  <level_of_theory>  (3) 
wb97xd/def2tzvp

>  <lot_method>  (3) 
wb97xd

>  <lot_basis>  (3) 
def2tzvp

>  <spin_multiplicity>  (3) 
2.0

>  <optical_isomers>  (3) 
2.0

>  <modes>  (3) 
IdealGasTranslation(mass=(191.089, 'amu')),         NonlinearRotor(             inertia = ([612.915, 945.659, 1211.59

>  <frequency_value>  (3) 
-1339.57

>  <frequency_units>  (3) 
cm^-1

>  <frequency_list>  (3) 
unknown

>  <arkane_path>  (3) 
/home/calvin/Dropbox/PersonalFolders/Calvin/HAb_Converged/rxn_1683/output/rxns/TS0/arkane/output.py

>  <path_exists>  (3) 
True

>  <E0_value>  (3) 
-2268860.0

>  <E0_units>  (3) 
kJ/mol

>  <thermo_class>  (3) 
unknown

>  <Cp0_value>  (3) 
unknown

>  <Cp0_units>  (3) 
unknown

>  <CpInf_value>  (3) 
unknown

>  <CpInf_units>  (3) 
unknown

>  <Tmin_value>  (3) 
unknown

>  <Tmin_units>  (3) 
unknown

>  <Tmax_value>  (3) 
unknown

>  <Tmax_units>  (3) 
unknown

>  <polynomials>  (3) 
unknown

>  <H298_value>  (3) 
unknown

>  <H298_units>  (3) 
unknown

>  <S298_value>  (3) 
unknown

>  <S298_units>  (3) 
unknown

>  <Cp_T_value_list>  (3) 
unknown

>  <Cp_T_units>  (3) 
unknown

>  <T_list>  (3) 
unknown

>  <T_units>  (3) 
unknown

>  <yaml_path>  (3) 
unknown

>  <frequencies_cm1>  (3) 
unknown

>  <ZPE_kJmol>  (3) 
unknown

>  <E_elec_kJmol>  (3) 
unknown

>  <E0_minus_Eelec_plus_ZPE_kJmol>  (3) 
unknown

>  <rxn>  (3) 
unknown

>  <species_type>  (3) 
unknown

>  <species_folder>  (3) 
unknown

>  <frequencies_cm1_list>  (3) 
[]

>  <ts_imag_freq_cm1>  (3) 
-1355.844

>  <ts_freq_out_path>  (3) 
/home/calvin/Dropbox/PersonalFolders/Calvin/HAb_Converged/rxn_1683/output/rxns/TS0/geometry/freq.out

>  <E0_kJmol>  (3) 
-2.26886e+06

>  <H298_kJmol>  (3) 
unknown

$$$$

     RDKit          3D

  9  8  0  0  0  0  0  0  0  0999 V2000
    1.8963   -0.1405   -0.2150 C   0  0  0  0  0  0  0  0  0  1  0  0
    0.6340    0.1486   -0.2254 C   0  0  0  0  0  3  0  0  0  2  0  0
   -0.6770    0.4501   -0.2373 C   0  0  0  0  0  0  0  0  0  3  0  0
   -1.6600   -0.2303    0.4662 C   0  0  0  0  0  0  0  0  0  4  0  0
    2.3274   -0.8354   -0.9313 H   0  0  0  0  0  0  0  0  0  5  0  0
    2.5751    0.2988    0.5117 H   0  0  0  0  0  0  0  0  0  6  0  0
   -0.9723    1.2966   -0.8520 H   0  0  0  0  0  0  0  0  0  7  0  0
   -2.6934    0.0777    0.4015 H   0  0  0  0  0  0  0  0  0  8  0  0
   -1.4140   -1.0782    1.0904 H   0  0  0  0  0  0  0  0  0  9  0  0
  1  5  1  0
  1  6  1  0
  1  2  1  0
  2  3  1  0
  3  4  1  0
  3  7  1  0
  4  8  1  0
  4  9  1  0
M  RAD  1   2   2
M  END
>  <rmg_smiles>  (4) 
[CH2][C][CH][CH2]

>  <rmg_adjacency_list>  (4) 
multiplicity 2
1 C u0 p0 c0 {2,S} {4,S} {5,S}
2 C u0 p0 c0 {1,S} {6,S} {7,S}
3 C u0 p0 c0 {4,S} {8,S} {9,S}
4 C u1 p1 c0 {1,S} {3,S}
5 H u0 p0 c0 {1,S}
6 H u0 p0 c0 {2,S}
7 H u0 p0 c0 {2,S}
8 H u0 p0 c0 {3,S}
9 H u0 p0 c0 {3,S}


>  <multiplicity>  (4) 
2

>  <reaction>  (4) 
rxn_1683

>  <type>  (4) 
r1

>  <role_mapnums>  (4) 
{}

>  <role_mapidx>  (4) 
{}

>  <ordered_mapped_smiles>  (4) 
[CH:1]([CH:2][CH:3]([CH:4]([H:8])[H:9])[H:7])([H:5])[H:6]

>  <level_of_theory>  (4) 
wb97xd/def2tzvp

>  <lot_method>  (4) 
wb97xd

>  <lot_basis>  (4) 
def2tzvp

>  <spin_multiplicity>  (4) 
2.0

>  <optical_isomers>  (4) 
1.0

>  <modes>  (4) 
IdealGasTranslation(mass=(53.0391, 'amu')),         NonlinearRotor(             inertia = ([12.0347, 113.266, 121.844

>  <frequency_value>  (4) 
unknown

>  <frequency_units>  (4) 
unknown

>  <frequency_list>  (4) 
unknown

>  <arkane_path>  (4) 
/home/calvin/Dropbox/PersonalFolders/Calvin/HAb_Converged/rxn_1683/output/Species/rxn_1683_C=[C]C=C/arkane/output.py

>  <path_exists>  (4) 
True

>  <E0_value>  (4) 
-407618.73102202936

>  <E0_units>  (4) 
kJ/mol

>  <thermo_class>  (4) 
NASA

>  <Cp0_value>  (4) 
33.257888

>  <Cp0_units>  (4) 
J/(mol*K)

>  <CpInf_value>  (4) 
207.8618

>  <CpInf_units>  (4) 
J/(mol*K)

>  <Tmin_value>  (4) 
10.0

>  <Tmin_units>  (4) 
K

>  <Tmax_value>  (4) 
3000.0

>  <Tmax_units>  (4) 
K

>  <polynomials>  (4) 
[{"name": "polynomial1", "class": "NASAPolynomial", "Tmin_value": 10.0, "Tmin_units": "K", "Tmax_value": 513.96992949071, "Tmax_units": "K", "coeffs": [3.9420802999541826, 0.0035685760014192327, 9.465791812405604e-05, -1.8686526671215408e-07, 1.1507173469765572e-10, -49025207.15718319, 8.65621190884103]}, {"name": "polynomial2", "class": "NASAPolynomial", "Tmin_value": 513.96992949071, "Tmin_units": "K", "Tmax_value": 3000.0, "Tmax_units": "K", "coeffs": [2.0283894812979866, 0.030453216730392172, -1.8799715383868938e-05, 5.69276117666148e-09, -6.699501956082314e-13, -49025168.8245439, 15.074146021629948]}]

>  <H298_value>  (4) 
-97419.52636783152

>  <H298_units>  (4) 
kcal/mol

>  <S298_value>  (4) 
69.47182773714773

>  <S298_units>  (4) 
cal/(mol*K)

>  <Cp_T_value_list>  (4) 
[18.71667250989835, 22.85533281432161, 26.28015598227693, 29.162718122858536, 33.78137212963757, 37.17010503303923, 42.188992301862434, 44.829088783976054, 46.30020231473576]

>  <Cp_T_units>  (4) 
cal/(mol*K)

>  <T_list>  (4) 
[300.0, 400.0, 500.0, 600.0, 800.0, 1000.0, 1500.0, 2000.0, 2400.0]

>  <T_units>  (4) 
K

>  <yaml_path>  (4) 
/home/calvin/Dropbox/PersonalFolders/Calvin/HAb_Converged/rxn_1683/output/Species/rxn_1683_C=[C]C=C/rxn_1683_C=CC=C.yml

>  <frequencies_cm1>  (4) 
[209.82760343791998, 213.04821955299997, 498.83154761543994, 525.2763080827599, 574.87654304912, 748.94088694048, 893.75874035396, 905.4944182658398, 936.5057239709599, 975.15311735192, 1080.3828003955998, 1184.87084902472, 1365.78157728012, 1440.54244645896, 1485.45939743708, 1902.75236136284, 3071.21111547276, 3118.0645563111198, 3138.67237925644, 3141.51531117892, 3241.1690021427603]

>  <ZPE_kJmol>  (4) 
183.34053407098105

>  <E_elec_kJmol>  (4) 
-407802.07155610033

>  <E0_minus_Eelec_plus_ZPE_kJmol>  (4) 
0.0

>  <rxn>  (4) 
rxn_1683

>  <species_type>  (4) 
p1

>  <species_folder>  (4) 
rxn_1683_C=[C]C=C

>  <frequencies_cm1_list>  (4) 
[209.82760343791998, 213.04821955299997, 498.83154761543994, 525.2763080827599, 574.87654304912, 748.94088694048, 893.75874035396, 905.4944182658398, 936.5057239709599, 975.15311735192, 1080.3828003955998, 1184.87084902472, 1365.78157728012, 1440.54244645896, 1485.45939743708, 1902.75236136284, 3071.21111547276, 3118.0645563111198, 3138.67237925644, 3141.51531117892, 3241.1690021427603]

>  <E0_kJmol>  (4) 
-407619

>  <H298_kJmol>  (4) 
-407603

$$$$

     RDKit          3D

 18 18  0  0  0  0  0  0  0  0999 V2000
    2.7512    0.0489   -0.5734 C   0  0  0  0  0  0  0  0  0  1  0  0
    1.4277   -0.4568   -0.0957 C   0  0  0  0  0  3  0  0  0  2  0  0
    0.5787   -1.2468   -0.9255 C   0  0  0  0  0  0  0  0  0  3  0  0
    0.9949   -1.6342   -2.2194 C   0  0  0  0  0  0  0  0  0  4  0  0
    0.1850   -2.4001   -3.0330 C   0  0  0  0  0  0  0  0  0  5  0  0
   -1.0677   -2.8151   -2.5986 C   0  0  0  0  0  0  0  0  0  6  0  0
   -1.4988   -2.4481   -1.3288 C   0  0  0  0  0  0  0  0  0  7  0  0
   -0.6986   -1.6827   -0.5072 C   0  0  0  0  0  0  0  0  0  8  0  0
    0.9655   -0.2084    1.5666 S   0  0  0  0  0  0  0  0  0  9  0  0
    3.1739    0.7873    0.1063 H   0  0  0  0  0  0  0  0  0 10  0  0
    3.4796   -0.7649   -0.6651 H   0  0  0  0  0  0  0  0  0 11  0  0
    2.6603    0.5178   -1.5558 H   0  0  0  0  0  0  0  0  0 12  0  0
    1.9693   -1.3375   -2.5829 H   0  0  0  0  0  0  0  0  0 13  0  0
    0.5357   -2.6808   -4.0185 H   0  0  0  0  0  0  0  0  0 14  0  0
   -1.6995   -3.4158   -3.2398 H   0  0  0  0  0  0  0  0  0 15  0  0
   -2.4742   -2.7614   -0.9778 H   0  0  0  0  0  0  0  0  0 16  0  0
   -1.0689   -1.4003    0.4702 H   0  0  0  0  0  0  0  0  0 17  0  0
    1.8478    0.7580    1.8433 H   0  0  0  0  0  0  0  0  0 18  0  0
  1 10  1  0
  1 11  1  0
  1 12  1  0
  1  2  1  0
  2  9  1  0
  2  3  1  0
  3  4  1  0
  3  8  1  0
  4  5  1  0
  4 13  1  0
  5 14  1  0
  5  6  1  0
  6 15  1  0
  6  7  1  0
  7  8  1  0
  7 16  1  0
  8 17  1  0
  9 18  1  0
M  RAD  1   2   2
M  END
>  <rmg_smiles>  (5) 
C[C]([C]1[CH][CH][CH][CH][CH]1)S

>  <rmg_adjacency_list>  (5) 
multiplicity 2
1  S u0 p2 c0 {4,S} {18,S}
2  C u0 p0 c0 {4,S} {10,S} {11,S} {12,S}
3  C u0 p0 c0 {4,S} {5,S} {6,S}
4  C u1 p0 c0 {1,S} {2,S} {3,S}
5  C u0 p0 c0 {3,S} {7,S} {13,S}
6  C u0 p0 c0 {3,S} {9,S} {17,S}
7  C u0 p0 c0 {5,S} {8,S} {14,S}
8  C u0 p0 c0 {7,S} {9,S} {15,S}
9  C u0 p0 c0 {6,S} {8,S} {16,S}
10 H u0 p0 c0 {2,S}
11 H u0 p0 c0 {2,S}
12 H u0 p0 c0 {2,S}
13 H u0 p0 c0 {5,S}
14 H u0 p0 c0 {7,S}
15 H u0 p0 c0 {8,S}
16 H u0 p0 c0 {9,S}
17 H u0 p0 c0 {6,S}
18 H u0 p0 c0 {1,S}


>  <multiplicity>  (5) 
2

>  <reaction>  (5) 
rxn_1683

>  <type>  (5) 
r2

>  <role_mapnums>  (5) 
{}

>  <role_mapidx>  (5) 
{}

>  <ordered_mapped_smiles>  (5) 
[C:1]([C:2]([CH:3]1[CH:4]([H:13])[CH:5]([H:14])[CH:6]([H:15])[CH:7]([H:16])[CH:8]1[H:17])[S:9][H:18])([H:10])([H:11])[H:12]

>  <level_of_theory>  (5) 
wb97xd/def2tzvp

>  <lot_method>  (5) 
wb97xd

>  <lot_basis>  (5) 
def2tzvp

>  <spin_multiplicity>  (5) 
2.0

>  <optical_isomers>  (5) 
2.0

>  <modes>  (5) 
IdealGasTranslation(mass=(137.042, 'amu')),         NonlinearRotor(             inertia = ([173.921, 537.489, 706.933

>  <frequency_value>  (5) 
unknown

>  <frequency_units>  (5) 
unknown

>  <frequency_list>  (5) 
unknown

>  <arkane_path>  (5) 
/home/calvin/Dropbox/PersonalFolders/Calvin/HAb_Converged/rxn_1683/output/Species/rxn_1683_C[C][c1ccccc1]S/arkane/output.py

>  <path_exists>  (5) 
True

>  <E0_value>  (5) 
-1859635.999590636

>  <E0_units>  (5) 
kJ/mol

>  <thermo_class>  (5) 
NASA

>  <Cp0_value>  (5) 
33.257888

>  <Cp0_units>  (5) 
J/(mol*K)

>  <CpInf_value>  (5) 
432.352544

>  <CpInf_units>  (5) 
J/(mol*K)

>  <Tmin_value>  (5) 
10.0

>  <Tmin_units>  (5) 
K

>  <Tmax_value>  (5) 
3000.0

>  <Tmax_units>  (5) 
K

>  <polynomials>  (5) 
[{"name": "polynomial1", "class": "NASAPolynomial", "Tmin_value": 10.0, "Tmin_units": "K", "Tmax_value": 772.0295036970148, "Tmax_units": "K", "coeffs": [3.5929422818437096, 0.04140702300232924, 5.219148012962769e-05, -1.0698478782351069e-07, 4.9895198024629436e-11, -223662546.9277343, 14.551201455978017]}, {"name": "polynomial2", "class": "NASAPolynomial", "Tmin_value": 772.0295036970148, "Tmin_units": "K", "Tmax_value": 3000.0, "Tmax_units": "K", "coeffs": [3.877316089975616, 0.06379654613973394, -3.7673795416994426e-05, 1.0652559346798017e-08, -1.1630174914439727e-12, -223663301.9865974, 8.647122048037788]}]

>  <H298_value>  (5) 
-444457.343646824

>  <H298_units>  (5) 
kcal/mol

>  <S298_value>  (5) 
97.03899921770716

>  <S298_units>  (5) 
cal/(mol*K)

>  <Cp_T_value_list>  (5) 
[36.22249054625582, 45.57991752423582, 53.83277869407935, 60.77631112890387, 71.10435972485959, 78.47400706539639, 89.16736136102854, 94.16859229239351, 96.70306532241592]

>  <Cp_T_units>  (5) 
cal/(mol*K)

>  <T_list>  (5) 
[300.0, 400.0, 500.0, 600.0, 800.0, 1000.0, 1500.0, 2000.0, 2400.0]

>  <T_units>  (5) 
K

>  <yaml_path>  (5) 
/home/calvin/Dropbox/PersonalFolders/Calvin/HAb_Converged/rxn_1683/output/Species/rxn_1683_C[C][c1ccccc1]S/rxn_1683_CCc1ccccc1S.yml

>  <frequencies_cm1>  (5) 
[47.334129810760004, 109.61768666315999, 132.75256020623996, 175.60941558835998, 206.74432702924, 311.73366558671995, 334.74493339404, 395.42161568156, 413.13843780715996, 485.55766499188, 517.1183295225999, 627.03129655452, 669.59287156788, 690.35176819024, 766.4173645798799, 829.1610094487199, 857.4461219818, 896.8763516892399, 944.6225006191999, 969.9273415234001, 981.2029314188399, 993.137751905, 1007.50348519444, 1043.7062318014798, 1085.7115810039197, 1096.829230237, 1165.47161549572, 1172.00211853504, 1199.9988176846798, 1307.7143494142, 1334.1797108374801, 1349.9119742055998, 1400.8993402065998, 1464.6867668440798, 1468.6490173737197, 1482.5477956614, 1507.35821362256, 1596.8625002834399, 1620.78707713832, 2710.3647708773997, 2988.74548876488, 3053.7346378333596, 3101.6387274256795, 3153.40206276784, 3159.3900739668798, 3171.11888489344, 3180.01849786816, 3186.80994634964]

>  <ZPE_kJmol>  (5) 
373.0291325178228

>  <E_elec_kJmol>  (5) 
-1860009.0287231535

>  <E0_minus_Eelec_plus_ZPE_kJmol>  (5) 
0.0

>  <rxn>  (5) 
rxn_1683

>  <species_type>  (5) 
r0

>  <species_folder>  (5) 
rxn_1683_C[C][c1ccccc1]S

>  <frequencies_cm1_list>  (5) 
[47.334129810760004, 109.61768666315999, 132.75256020623996, 175.60941558835998, 206.74432702924, 311.73366558671995, 334.74493339404, 395.42161568156, 413.13843780715996, 485.55766499188, 517.1183295225999, 627.03129655452, 669.59287156788, 690.35176819024, 766.4173645798799, 829.1610094487199, 857.4461219818, 896.8763516892399, 944.6225006191999, 969.9273415234001, 981.2029314188399, 993.137751905, 1007.50348519444, 1043.7062318014798, 1085.7115810039197, 1096.829230237, 1165.47161549572, 1172.00211853504, 1199.9988176846798, 1307.7143494142, 1334.1797108374801, 1349.9119742055998, 1400.8993402065998, 1464.6867668440798, 1468.6490173737197, 1482.5477956614, 1507.35821362256, 1596.8625002834399, 1620.78707713832, 2710.3647708773997, 2988.74548876488, 3053.7346378333596, 3101.6387274256795, 3153.40206276784, 3159.3900739668798, 3171.11888489344, 3180.01849786816, 3186.80994634964]

>  <E0_kJmol>  (5) 
-1.85964e+06

>  <H298_kJmol>  (5) 
-1.85961e+06

$$$$
