
     RDKit          3D

  9  8  0  0  0  0  0  0  0  0999 V2000
   -0.3362   -0.6719   -1.0230 C   0  0  0  0  0  0  0  0  0  1  0  0
    0.2157   -0.3643    0.1547 C   0  0  0  0  0  0  0  0  0  2  0  0
    0.1558    0.9418    0.7952 C   0  0  0  0  0  0  0  0  0  3  0  0
   -0.2911   -1.6759   -1.4241 H   0  0  0  0  0  0  0  0  0  4  0  0
   -0.8386    0.0792   -1.6231 H   0  0  0  0  0  0  0  0  0  5  0  0
    0.7070   -1.1555    0.7151 H   0  0  0  0  0  0  0  0  0  6  0  0
   -0.7106    0.9355    1.4535 H   0  0  0  0  0  0  0  0  0  7  0  0
   -0.0739    1.7731    0.1308 H   0  0  0  0  0  0  0  0  0  8  0  0
    0.9701    1.1689    1.4792 H   0  0  0  0  0  0  0  0  0  9  0  0
  1  5  1  0
  1  4  1  0
  1  2  1  0
  2  6  1  0
  2  3  1  0
  3  8  1  0
  3  7  1  0
  3  9  1  0
M  END
>  <rmg_smiles>  (1) 
[CH2][CH]C

>  <rmg_adjacency_list>  (1) 
1 C u0 p0 c0 {2,S} {4,S} {5,S} {6,S}
2 C u0 p0 c0 {1,S} {3,S} {7,S}
3 C u0 p0 c0 {2,S} {8,S} {9,S}
4 H u0 p0 c0 {1,S}
5 H u0 p0 c0 {1,S}
6 H u0 p0 c0 {1,S}
7 H u0 p0 c0 {2,S}
8 H u0 p0 c0 {3,S}
9 H u0 p0 c0 {3,S}


>  <multiplicity>  (1) 
1

>  <reaction>  (1) 
rxn_999

>  <type>  (1) 
r1h

>  <role_mapnums>  (1) 
{"r1h_a": 3, "r1h_h": 7}

>  <role_mapidx>  (1) 
{"r1h_a": 2, "r1h_h": 6}

>  <ordered_mapped_smiles>  (1) 
[CH:1]([CH:2]([C:3]([H:7])([H:8])[H:9])[H:6])([H:4])[H:5]

>  <mol_properties>  (1) 
{"2": {"label": "donator", "atom_type": "Cs"}, "6": {"label": "d_hydrogen", "atom_type": "H0"}}

>  <level_of_theory>  (1) 
wb97xd/def2tzvp

>  <lot_method>  (1) 
wb97xd

>  <lot_basis>  (1) 
def2tzvp

>  <spin_multiplicity>  (1) 
1.0

>  <optical_isomers>  (1) 
1.0

>  <modes>  (1) 
IdealGasTranslation(mass=(42.047, 'amu')),         NonlinearRotor(             inertia = ([10.7194, 53.9495, 61.5632

>  <frequency_value>  (1) 
unknown

>  <frequency_units>  (1) 
unknown

>  <frequency_list>  (1) 
unknown

>  <arkane_path>  (1) 
/home/calvin/Dropbox/PersonalFolders/Calvin/HAb_Converged/rxn_999/output/Species/rxn_999_C=CC/arkane/output.py

>  <path_exists>  (1) 
True

>  <E0_value>  (1) 
-309367.88070268225

>  <E0_units>  (1) 
kJ/mol

>  <thermo_class>  (1) 
NASA

>  <Cp0_value>  (1) 
33.257888

>  <Cp0_units>  (1) 
J/(mol*K)

>  <CpInf_value>  (1) 
207.8618

>  <CpInf_units>  (1) 
J/(mol*K)

>  <Tmin_value>  (1) 
10.0

>  <Tmin_units>  (1) 
K

>  <Tmax_value>  (1) 
3000.0

>  <Tmax_units>  (1) 
K

>  <polynomials>  (1) 
[{"name": "polynomial1", "class": "NASAPolynomial", "Tmin_value": 10.0, "Tmin_units": "K", "Tmax_value": 532.0577202057873, "Tmax_units": "K", "coeffs": [4.020103835302654, -0.0017074980479917085, 7.459046034705118e-05, -1.1023396025676474e-07, 5.3481197627967796e-11, -37208361.301710494, 6.986181334463051]}, {"name": "polynomial2", "class": "NASAPolynomial", "Tmin_value": 532.0577202057873, "Tmin_units": "K", "Tmax_value": 3000.0, "Tmax_units": "K", "coeffs": [-0.30507671788284774, 0.030809359218709958, -1.7083112014376123e-05, 4.633555316648191e-09, -4.924250044802513e-13, -37207901.05583462, 25.12344343354427]}]

>  <H298_value>  (1) 
-73937.54186756606

>  <H298_units>  (1) 
kcal/mol

>  <S298_value>  (1) 
63.24337268320408

>  <S298_units>  (1) 
cal/(mol*K)

>  <Cp_T_value_list>  (1) 
[15.257526344712856, 19.04881200484783, 22.609043962382263, 25.769394717679983, 30.960482554899503, 34.89991831876069, 40.970847866509764, 44.05802967631756, 45.61721763006197]

>  <Cp_T_units>  (1) 
cal/(mol*K)

>  <T_list>  (1) 
[300.0, 400.0, 500.0, 600.0, 800.0, 1000.0, 1500.0, 2000.0, 2400.0]

>  <T_units>  (1) 
K

>  <yaml_path>  (1) 
/home/calvin/Dropbox/PersonalFolders/Calvin/HAb_Converged/rxn_999/output/Species/rxn_999_C=CC/rxn_999_C=CC.yml

>  <frequencies_cm1>  (1) 
[200.09708523947998, 429.33078919172, 590.7049442117201, 925.49107951768, 943.8671322339999, 950.17102475776, 1024.49240687612, 1068.78446219012, 1186.6081963106801, 1322.3410281457998, 1395.89330790832, 1440.30896895808, 1465.7442825833598, 1480.7692464635202, 1719.664798761, 3008.0348505287598, 3066.795643912, 3091.69533268232, 3111.44478246264, 3123.9495627303595, 3201.2649504482397]

>  <ZPE_kJmol>  (1) 
207.83598829281505

>  <E_elec_kJmol>  (1) 
-309575.71669097507

>  <E0_minus_Eelec_plus_ZPE_kJmol>  (1) 
0.0

>  <rxn>  (1) 
rxn_999

>  <species_type>  (1) 
r0

>  <species_folder>  (1) 
rxn_999_C=CC

>  <frequencies_cm1_list>  (1) 
[200.09708523947998, 429.33078919172, 590.7049442117201, 925.49107951768, 943.8671322339999, 950.17102475776, 1024.49240687612, 1068.78446219012, 1186.6081963106801, 1322.3410281457998, 1395.89330790832, 1440.30896895808, 1465.7442825833598, 1480.7692464635202, 1719.664798761, 3008.0348505287598, 3066.795643912, 3091.69533268232, 3111.44478246264, 3123.9495627303595, 3201.2649504482397]

>  <E0_kJmol>  (1) 
-309368

>  <H298_kJmol>  (1) 
-309355

$$$$

     RDKit          3D

 14 13  0  0  0  0  0  0  0  0999 V2000
    1.1353    0.0680   -0.7235 H   0  0  0  0  0  0  0  0  0  1  0  0
    0.3200    1.1731    0.8295 C   0  0  0  0  0  0  0  0  0  2  0  0
    0.2196    0.0206   -0.1343 C   0  0  0  0  0  0  0  0  0  3  0  0
    0.3146   -1.3462    0.4894 C   0  0  0  0  0  0  0  0  0  4  0  0
   -0.8528    0.1559   -1.1829 C   0  0  0  0  0  0  0  0  0  5  0  0
    1.1952    1.0766    1.4757 H   0  0  0  0  0  0  0  0  0  6  0  0
    0.3880    2.1273    0.3025 H   0  0  0  0  0  0  0  0  0  7  0  0
   -0.5638    1.2188    1.4782 H   0  0  0  0  0  0  0  0  0  8  0  0
   -0.5829   -1.5724    1.0783 H   0  0  0  0  0  0  0  0  0  9  0  0
    1.1748   -1.4201    1.1585 H   0  0  0  0  0  0  0  0  0 10  0  0
    0.4093   -2.1196   -0.2764 H   0  0  0  0  0  0  0  0  0 11  0  0
   -0.8010    1.1261   -1.6819 H   0  0  0  0  0  0  0  0  0 12  0  0
   -0.7582   -0.6242   -1.9415 H   0  0  0  0  0  0  0  0  0 13  0  0
   -1.8513    0.0669   -0.7367 H   0  0  0  0  0  0  0  0  0 14  0  0
  1  3  1  0
  2  7  1  0
  2  8  1  0
  2  6  1  0
  2  3  1  0
  3  4  1  0
  3  5  1  0
  4  9  1  0
  4 10  1  0
  4 11  1  0
  5 12  1  0
  5 14  1  0
  5 13  1  0
M  END
>  <rmg_smiles>  (2) 
CC(C)C

>  <rmg_adjacency_list>  (2) 
1  C u0 p0 c0 {2,S} {3,S} {4,S} {5,S}
2  C u0 p0 c0 {1,S} {6,S} {7,S} {8,S}
3  C u0 p0 c0 {1,S} {9,S} {10,S} {11,S}
4  C u0 p0 c0 {1,S} {12,S} {13,S} {14,S}
5  H u0 p0 c0 {1,S}
6  H u0 p0 c0 {2,S}
7  H u0 p0 c0 {2,S}
8  H u0 p0 c0 {2,S}
9  H u0 p0 c0 {3,S}
10 H u0 p0 c0 {3,S}
11 H u0 p0 c0 {3,S}
12 H u0 p0 c0 {4,S}
13 H u0 p0 c0 {4,S}
14 H u0 p0 c0 {4,S}


>  <multiplicity>  (2) 
1

>  <reaction>  (2) 
rxn_999

>  <type>  (2) 
r2h

>  <role_mapnums>  (2) 
{"r2h_a": 3, "r2h_h": 1}

>  <role_mapidx>  (2) 
{"r2h_a": 2, "r2h_h": 0}

>  <ordered_mapped_smiles>  (2) 
[H:1][C:3]([C:2]([H:6])([H:7])[H:8])([C:4]([H:9])([H:10])[H:11])[C:5]([H:12])([H:13])[H:14]

>  <mol_properties>  (2) 
{"0": {"label": "a_hydrogen", "atom_type": "H0"}, "2": {"label": "acceptor", "atom_type": "Cs"}}

>  <level_of_theory>  (2) 
wb97xd/def2tzvp

>  <lot_method>  (2) 
wb97xd

>  <lot_basis>  (2) 
def2tzvp

>  <spin_multiplicity>  (2) 
1.0

>  <optical_isomers>  (2) 
1.0

>  <modes>  (2) 
IdealGasTranslation(mass=(58.0782, 'amu')),         NonlinearRotor(             inertia = ([64.472, 64.4728, 111.216

>  <frequency_value>  (2) 
unknown

>  <frequency_units>  (2) 
unknown

>  <frequency_list>  (2) 
unknown

>  <arkane_path>  (2) 
/home/calvin/Dropbox/PersonalFolders/Calvin/HAb_Converged/rxn_999/output/Species/rxn_999_CC[C]C/arkane/output.py

>  <path_exists>  (2) 
True

>  <E0_value>  (2) 
-415716.8430434856

>  <E0_units>  (2) 
kJ/mol

>  <thermo_class>  (2) 
NASA

>  <Cp0_value>  (2) 
33.257888

>  <Cp0_units>  (2) 
J/(mol*K)

>  <CpInf_value>  (2) 
332.57888

>  <CpInf_units>  (2) 
J/(mol*K)

>  <Tmin_value>  (2) 
10.0

>  <Tmin_units>  (2) 
K

>  <Tmax_value>  (2) 
3000.0

>  <Tmax_units>  (2) 
K

>  <polynomials>  (2) 
[{"name": "polynomial1", "class": "NASAPolynomial", "Tmin_value": 10.0, "Tmin_units": "K", "Tmax_value": 537.75009907304, "Tmax_units": "K", "coeffs": [3.863057711747367, 0.009537020212842548, 8.517141921823508e-05, -1.3167836931910602e-07, 6.37438591322717e-11, -49999182.87442699, 7.558066068249252]}, {"name": "polynomial2", "class": "NASAPolynomial", "Tmin_value": 537.75009907304, "Tmin_units": "K", "Tmax_value": 3000.0, "Tmax_units": "K", "coeffs": [-1.5271751767244788, 0.049631522452608406, -2.66676104959282e-05, 6.9714911451423e-09, -7.141296912501539e-13, -49998603.15184223, 30.21895913272808]}]

>  <H298_value>  (2) 
-99354.53543071028

>  <H298_units>  (2) 
kcal/mol

>  <S298_value>  (2) 
69.85864068741454

>  <S298_units>  (2) 
cal/(mol*K)

>  <Cp_T_value_list>  (2) 
[22.555987684804997, 28.833809969009234, 34.67400643394215, 39.87268120674104, 48.46333241808411, 55.0338920484172, 65.24294229452593, 70.36952949138922, 72.85859456748757]

>  <Cp_T_units>  (2) 
cal/(mol*K)

>  <T_list>  (2) 
[300.0, 400.0, 500.0, 600.0, 800.0, 1000.0, 1500.0, 2000.0, 2400.0]

>  <T_units>  (2) 
K

>  <yaml_path>  (2) 
/home/calvin/Dropbox/PersonalFolders/Calvin/HAb_Converged/rxn_999/output/Species/rxn_999_CC[C]C/rxn_999_CCCC.yml

>  <frequencies_cm1>  (2) 
[211.25593638447998, 262.64845451936, 263.54116261095993, 369.10732793532, 369.48501212791996, 435.30506642011994, 804.0141092068799, 925.154597237, 925.3468728259598, 953.2886360930399, 976.13509625268, 976.3960416948399, 1191.09233772464, 1191.12667265124, 1204.1602107886, 1353.0707874528, 1353.1943931885598, 1393.2220506188398, 1393.4967300316398, 1417.42130688652, 1467.51596479592, 1474.1014037178, 1474.25934438016, 1492.55299327264, 1492.5941951845598, 1500.97878426028, 2997.87857924048, 2999.9112068952, 2999.9455418218, 3005.3292583126795, 3068.56732612456, 3068.62226200712, 3077.3021314515995, 3079.47209881272, 3083.063532135079, 3083.2077388267994]

>  <ZPE_kJmol>  (2) 
342.932169587735

>  <E_elec_kJmol>  (2) 
-416059.77521307336

>  <E0_minus_Eelec_plus_ZPE_kJmol>  (2) 
0.0

>  <rxn>  (2) 
rxn_999

>  <species_type>  (2) 
p0

>  <species_folder>  (2) 
rxn_999_CC[C]C

>  <frequencies_cm1_list>  (2) 
[211.25593638447998, 262.64845451936, 263.54116261095993, 369.10732793532, 369.48501212791996, 435.30506642011994, 804.0141092068799, 925.154597237, 925.3468728259598, 953.2886360930399, 976.13509625268, 976.3960416948399, 1191.09233772464, 1191.12667265124, 1204.1602107886, 1353.0707874528, 1353.1943931885598, 1393.2220506188398, 1393.4967300316398, 1417.42130688652, 1467.51596479592, 1474.1014037178, 1474.25934438016, 1492.55299327264, 1492.5941951845598, 1500.97878426028, 2997.87857924048, 2999.9112068952, 2999.9455418218, 3005.3292583126795, 3068.56732612456, 3068.62226200712, 3077.3021314515995, 3079.47209881272, 3083.063532135079, 3083.2077388267994]

>  <E0_kJmol>  (2) 
-415717

>  <H298_kJmol>  (2) 
-415699

$$$$

     RDKit          3D

 22 20  0  0  0  0  0  0  0  0999 V2000
    0.9799   -1.1606   -2.4311 C   0  0  0  0  0  0  0  0  0  1  0  0
    1.5318   -0.8529   -1.2534 C   0  0  0  0  0  0  0  0  0  2  0  0
    1.4718    0.4531   -0.6129 C   0  0  0  0  0  0  0  0  0  3  0  0
    1.0250   -2.1646   -2.8322 H   0  0  0  0  0  0  0  0  0  4  0  0
    0.4774   -0.4095   -3.0313 H   0  0  0  0  0  0  0  0  0  5  0  0
    2.0231   -1.6441   -0.6930 H   0  0  0  0  0  0  0  0  0  6  0  0
    0.4228    0.4455    0.1843 H   0  0  0  0  0  0  0  0  0  7  0  0
    1.2422    1.2844   -1.2774 H   0  0  0  0  0  0  0  0  0  8  0  0
    2.2862    0.6803    0.0710 H   0  0  0  0  0  0  0  0  0  9  0  0
   -0.6314    1.5382    1.8910 C   0  0  0  0  0  0  0  0  0 10  0  0
   -0.7318    0.3857    0.9272 C   0  0  0  0  0  3  0  0  0 11  0  0
   -0.6368   -0.9811    1.5509 C   0  0  0  0  0  0  0  0  0 12  0  0
   -1.8042    0.5210   -0.1214 C   0  0  0  0  0  0  0  0  0 13  0  0
    0.2438    1.4417    2.5371 H   0  0  0  0  0  0  0  0  0 14  0  0
   -0.5634    2.4925    1.3640 H   0  0  0  0  0  0  0  0  0 15  0  0
   -1.5152    1.5839    2.5397 H   0  0  0  0  0  0  0  0  0 16  0  0
   -1.5343   -1.2073    2.1398 H   0  0  0  0  0  0  0  0  0 17  0  0
    0.2234   -1.0550    2.2199 H   0  0  0  0  0  0  0  0  0 18  0  0
   -0.5421   -1.7545    0.7850 H   0  0  0  0  0  0  0  0  0 19  0  0
   -1.7524    1.4912   -0.6204 H   0  0  0  0  0  0  0  0  0 20  0  0
   -1.7096   -0.2591   -0.8800 H   0  0  0  0  0  0  0  0  0 21  0  0
   -2.8027    0.4320    0.3248 H   0  0  0  0  0  0  0  0  0 22  0  0
  1  4  1  0
  1  5  1  0
  1  2  1  0
  2  6  1  0
  2  3  1  0
  3  8  1  0
  3  7  1  0
  3  9  1  0
 10 16  1  0
 10 15  1  0
 10 11  1  0
 10 14  1  0
 11 13  1  0
 11 12  1  0
 12 19  1  0
 12 17  1  0
 12 18  1  0
 13 21  1  0
 13 20  1  0
 13 22  1  0
M  RAD  1  11   2
M  END
>  <rmg_smiles>  (3) 
C[C](C)C.[CH2][CH]C

>  <rmg_adjacency_list>  (3) 
multiplicity 2
1  C u0 p0 c0 {5,S} {11,S} {12,S} {13,S}
2  C u0 p0 c0 {5,S} {14,S} {15,S} {16,S}
3  C u0 p0 c0 {5,S} {17,S} {18,S} {19,S}
4  C u0 p0 c0 {6,S} {8,S} {9,S} {10,S}
5  C u1 p0 c0 {1,S} {2,S} {3,S}
6  C u0 p0 c0 {4,S} {7,S} {20,S}
7  C u0 p0 c0 {6,S} {21,S} {22,S}
8  H u0 p0 c0 {4,S}
9  H u0 p0 c0 {4,S}
10 H u0 p0 c0 {4,S}
11 H u0 p0 c0 {1,S}
12 H u0 p0 c0 {1,S}
13 H u0 p0 c0 {1,S}
14 H u0 p0 c0 {2,S}
15 H u0 p0 c0 {2,S}
16 H u0 p0 c0 {2,S}
17 H u0 p0 c0 {3,S}
18 H u0 p0 c0 {3,S}
19 H u0 p0 c0 {3,S}
20 H u0 p0 c0 {6,S}
21 H u0 p0 c0 {7,S}
22 H u0 p0 c0 {7,S}


>  <multiplicity>  (3) 
2

>  <reaction>  (3) 
rxn_999

>  <type>  (3) 
ts

>  <role_mapnums>  (3) 
{"*2": 7, "*1": 3, "*3": 11, "*0": 2, "*4": 10}

>  <role_mapidx>  (3) 
{"*2": 6, "*1": 2, "*3": 10, "*0": 1, "*4": 9}

>  <ordered_mapped_smiles>  (3) 
[CH:1]([CH:2]([C:3]([H:7])([H:8])[H:9])[H:6])([H:4])[H:5].[C:10]([C:11]([C:12]([H:17])([H:18])[H:19])[C:13]([H:20])([H:21])[H:22])([H:14])([H:15])[H:16]

>  <mol_properties>  (3) 
{"1": {"label": "*0", "atom_type": "Cs"}, "2": {"label": "*1", "atom_type": "Cs"}, "6": {"label": "*2", "atom_type": "H0"}, "9": {"label": "*4", "atom_type": "Cs"}, "10": {"label": "*3", "atom_type": "Cs"}}

>  <level_of_theory>  (3) 
wb97xd/def2tzvp

>  <lot_method>  (3) 
wb97xd

>  <lot_basis>  (3) 
def2tzvp

>  <spin_multiplicity>  (3) 
2.0

>  <optical_isomers>  (3) 
2.0

>  <modes>  (3) 
IdealGasTranslation(mass=(99.1174, 'amu')),         NonlinearRotor(             inertia = ([142.954, 398.171, 411.489

>  <frequency_value>  (3) 
-1692.91

>  <frequency_units>  (3) 
cm^-1

>  <frequency_list>  (3) 
unknown

>  <arkane_path>  (3) 
/home/calvin/Dropbox/PersonalFolders/Calvin/HAb_Converged/rxn_999/output/rxns/TS0/arkane/output.py

>  <path_exists>  (3) 
True

>  <E0_value>  (3) 
-723334.0

>  <E0_units>  (3) 
kJ/mol

>  <thermo_class>  (3) 
unknown

>  <Cp0_value>  (3) 
unknown

>  <Cp0_units>  (3) 
unknown

>  <CpInf_value>  (3) 
unknown

>  <CpInf_units>  (3) 
unknown

>  <Tmin_value>  (3) 
unknown

>  <Tmin_units>  (3) 
unknown

>  <Tmax_value>  (3) 
unknown

>  <Tmax_units>  (3) 
unknown

>  <polynomials>  (3) 
unknown

>  <H298_value>  (3) 
unknown

>  <H298_units>  (3) 
unknown

>  <S298_value>  (3) 
unknown

>  <S298_units>  (3) 
unknown

>  <Cp_T_value_list>  (3) 
unknown

>  <Cp_T_units>  (3) 
unknown

>  <T_list>  (3) 
unknown

>  <T_units>  (3) 
unknown

>  <yaml_path>  (3) 
unknown

>  <frequencies_cm1>  (3) 
unknown

>  <ZPE_kJmol>  (3) 
unknown

>  <E_elec_kJmol>  (3) 
unknown

>  <E0_minus_Eelec_plus_ZPE_kJmol>  (3) 
unknown

>  <rxn>  (3) 
unknown

>  <species_type>  (3) 
unknown

>  <species_folder>  (3) 
unknown

>  <frequencies_cm1_list>  (3) 
[]

>  <ts_imag_freq_cm1>  (3) 
-1713.4693

>  <ts_freq_out_path>  (3) 
/home/calvin/Dropbox/PersonalFolders/Calvin/HAb_Converged/rxn_999/output/rxns/TS0/geometry/freq.out

>  <E0_kJmol>  (3) 
-723334

>  <H298_kJmol>  (3) 
unknown

$$$$

     RDKit          3D

  8  7  0  0  0  0  0  0  0  0999 V2000
   -1.2262   -0.1032    0.0429 C   0  0  0  0  0  0  0  0  0  1  0  0
    0.0344    0.4295    0.2005 C   0  0  0  0  0  0  0  0  0  2  0  0
    1.2024   -0.1933   -0.1813 C   0  0  0  0  0  3  0  0  0  3  0  0
   -2.1090    0.4329    0.3624 H   0  0  0  0  0  0  0  0  0  4  0  0
   -1.3659   -1.0784   -0.4078 H   0  0  0  0  0  0  0  0  0  5  0  0
    0.1132    1.4113    0.6589 H   0  0  0  0  0  0  0  0  0  6  0  0
    2.1658    0.2743   -0.0323 H   0  0  0  0  0  0  0  0  0  7  0  0
    1.1853   -1.1731   -0.6434 H   0  0  0  0  0  0  0  0  0  8  0  0
  1  5  1  0
  1  4  1  0
  1  2  1  0
  2  6  1  0
  2  3  1  0
  3  8  1  0
  3  7  1  0
M  RAD  1   3   2
M  END
>  <rmg_smiles>  (4) 
[CH2][CH][CH2]

>  <rmg_adjacency_list>  (4) 
multiplicity 2
1 C u0 p0 c0 {2,S} {3,S} {4,S}
2 C u1 p0 c0 {1,S} {7,S} {8,S}
3 C u0 p0 c0 {1,S} {5,S} {6,S}
4 H u0 p0 c0 {1,S}
5 H u0 p0 c0 {3,S}
6 H u0 p0 c0 {3,S}
7 H u0 p0 c0 {2,S}
8 H u0 p0 c0 {2,S}


>  <multiplicity>  (4) 
2

>  <reaction>  (4) 
rxn_999

>  <type>  (4) 
r1

>  <role_mapnums>  (4) 
{}

>  <role_mapidx>  (4) 
{}

>  <ordered_mapped_smiles>  (4) 
[CH:1]([CH:2]([C:3]([H:7])[H:8])[H:6])([H:4])[H:5]

>  <level_of_theory>  (4) 
wb97xd/def2tzvp

>  <lot_method>  (4) 
wb97xd

>  <lot_basis>  (4) 
def2tzvp

>  <spin_multiplicity>  (4) 
2.0

>  <optical_isomers>  (4) 
1.0

>  <modes>  (4) 
IdealGasTranslation(mass=(41.0391, 'amu')),         NonlinearRotor(             inertia = ([9.18678, 48.3525, 57.5393

>  <frequency_value>  (4) 
unknown

>  <frequency_units>  (4) 
unknown

>  <frequency_list>  (4) 
unknown

>  <arkane_path>  (4) 
/home/calvin/Dropbox/PersonalFolders/Calvin/HAb_Converged/rxn_999/output/Species/rxn_999_[CH2]C=C/arkane/output.py

>  <path_exists>  (4) 
True

>  <E0_value>  (4) 
-307695.8239419476

>  <E0_units>  (4) 
kJ/mol

>  <thermo_class>  (4) 
NASA

>  <Cp0_value>  (4) 
33.257888

>  <Cp0_units>  (4) 
J/(mol*K)

>  <CpInf_value>  (4) 
182.918384

>  <CpInf_units>  (4) 
J/(mol*K)

>  <Tmin_value>  (4) 
10.0

>  <Tmin_units>  (4) 
K

>  <Tmax_value>  (4) 
3000.0

>  <Tmax_units>  (4) 
K

>  <polynomials>  (4) 
[{"name": "polynomial1", "class": "NASAPolynomial", "Tmin_value": 10.0, "Tmin_units": "K", "Tmax_value": 532.7267436952769, "Tmax_units": "K", "coeffs": [4.120476242700736, -0.01110500746607337, 0.00013118962632593044, -2.295122998736072e-07, 1.327617546042694e-10, -37007258.9235638, 6.732627685136077]}, {"name": "polynomial2", "class": "NASAPolynomial", "Tmin_value": 532.7267436952769, "Tmin_units": "K", "Tmax_value": 3000.0, "Tmax_units": "K", "coeffs": [0.911699466954835, 0.027118425571894478, -1.6222639840263127e-05, 4.752540164453407e-09, -5.404199600895895e-13, -37007117.54936121, 18.310519838179516]}]

>  <H298_value>  (4) 
-73538.08078140329

>  <H298_units>  (4) 
kcal/mol

>  <S298_value>  (4) 
61.52456331648896

>  <S298_units>  (4) 
cal/(mol*K)

>  <Cp_T_value_list>  (4) 
[14.853530963099974, 18.637467651362382, 21.80750730434748, 24.44088072021761, 28.68710434193412, 31.834263999492475, 36.54938793194129, 39.012029638884556, 40.38558701326713]

>  <Cp_T_units>  (4) 
cal/(mol*K)

>  <T_list>  (4) 
[300.0, 400.0, 500.0, 600.0, 800.0, 1000.0, 1500.0, 2000.0, 2400.0]

>  <T_units>  (4) 
K

>  <yaml_path>  (4) 
/home/calvin/Dropbox/PersonalFolders/Calvin/HAb_Converged/rxn_999/output/Species/rxn_999_[CH2]C=C/rxn_999_CH2C=C.yml

>  <frequencies_cm1>  (4) 
[432.19432207015996, 530.70122648556, 552.78545127468, 794.8604177753199, 818.87426543936, 934.1091460942799, 1008.91808417036, 1035.1568350780801, 1186.33351689788, 1269.2386306662397, 1410.5886564931197, 1500.8483115392, 1510.5101598844399, 3121.9787379435197, 3123.6542823616, 3129.68349547256, 3223.1843675896794, 3225.69081723148]

>  <ZPE_kJmol>  (4) 
172.31799451557927

>  <E_elec_kJmol>  (4) 
-307868.1419364632

>  <E0_minus_Eelec_plus_ZPE_kJmol>  (4) 
0.0

>  <rxn>  (4) 
rxn_999

>  <species_type>  (4) 
p1

>  <species_folder>  (4) 
rxn_999_[CH2]C=C

>  <frequencies_cm1_list>  (4) 
[432.19432207015996, 530.70122648556, 552.78545127468, 794.8604177753199, 818.87426543936, 934.1091460942799, 1008.91808417036, 1035.1568350780801, 1186.33351689788, 1269.2386306662397, 1410.5886564931197, 1500.8483115392, 1510.5101598844399, 3121.9787379435197, 3123.6542823616, 3129.68349547256, 3223.1843675896794, 3225.69081723148]

>  <E0_kJmol>  (4) 
-307696

>  <H298_kJmol>  (4) 
-307683

$$$$

     RDKit          3D

 13 12  0  0  0  0  0  0  0  0999 V2000
   -1.3649   -0.5967   -0.3477 C   0  0  0  0  0  0  0  0  0  1  0  0
   -0.1601   -0.2776    0.4669 C   0  0  0  0  0  3  0  0  0  2  0  0
    1.1241   -0.9571    0.1414 C   0  0  0  0  0  0  0  0  0  3  0  0
   -0.1188    1.0130    1.2082 C   0  0  0  0  0  0  0  0  0  4  0  0
   -1.4265   -1.6632   -0.5770 H   0  0  0  0  0  0  0  0  0  5  0  0
   -2.2859   -0.3004    0.1602 H   0  0  0  0  0  0  0  0  0  6  0  0
   -1.3532   -0.0668   -1.3139 H   0  0  0  0  0  0  0  0  0  7  0  0
    1.6174   -0.4963   -0.7297 H   0  0  0  0  0  0  0  0  0  8  0  0
    0.9723   -2.0104   -0.1064 H   0  0  0  0  0  0  0  0  0  9  0  0
    1.8338   -0.8977    0.9701 H   0  0  0  0  0  0  0  0  0 10  0  0
   -1.0851    1.2507    1.6593 H   0  0  0  0  0  0  0  0  0 11  0  0
    0.6358    1.0009    1.9983 H   0  0  0  0  0  0  0  0  0 12  0  0
    0.1343    1.8546    0.5434 H   0  0  0  0  0  0  0  0  0 13  0  0
  1  5  1  0
  1  7  1  0
  1  6  1  0
  1  2  1  0
  2  3  1  0
  2  4  1  0
  3  9  1  0
  3 10  1  0
  3  8  1  0
  4 13  1  0
  4 12  1  0
  4 11  1  0
M  RAD  1   2   2
M  END
>  <rmg_smiles>  (5) 
C[C](C)C

>  <rmg_adjacency_list>  (5) 
multiplicity 2
1  C u0 p0 c0 {4,S} {5,S} {6,S} {7,S}
2  C u0 p0 c0 {4,S} {8,S} {9,S} {10,S}
3  C u0 p0 c0 {4,S} {11,S} {12,S} {13,S}
4  C u1 p0 c0 {1,S} {2,S} {3,S}
5  H u0 p0 c0 {1,S}
6  H u0 p0 c0 {1,S}
7  H u0 p0 c0 {1,S}
8  H u0 p0 c0 {2,S}
9  H u0 p0 c0 {2,S}
10 H u0 p0 c0 {2,S}
11 H u0 p0 c0 {3,S}
12 H u0 p0 c0 {3,S}
13 H u0 p0 c0 {3,S}


>  <multiplicity>  (5) 
2

>  <reaction>  (5) 
rxn_999

>  <type>  (5) 
r2

>  <role_mapnums>  (5) 
{}

>  <role_mapidx>  (5) 
{}

>  <ordered_mapped_smiles>  (5) 
[C:1]([C:2]([C:3]([H:8])([H:9])[H:10])[C:4]([H:11])([H:12])[H:13])([H:5])([H:6])[H:7]

>  <level_of_theory>  (5) 
wb97xd/def2tzvp

>  <lot_method>  (5) 
wb97xd

>  <lot_basis>  (5) 
def2tzvp

>  <spin_multiplicity>  (5) 
2.0

>  <optical_isomers>  (5) 
1.0

>  <modes>  (5) 
IdealGasTranslation(mass=(57.0704, 'amu')),         NonlinearRotor(             inertia = ([62.748, 62.7522, 115.629

>  <frequency_value>  (5) 
unknown

>  <frequency_units>  (5) 
unknown

>  <frequency_list>  (5) 
unknown

>  <arkane_path>  (5) 
/home/calvin/Dropbox/PersonalFolders/Calvin/HAb_Converged/rxn_999/output/Species/rxn_999_C[C][C]C/arkane/output.py

>  <path_exists>  (5) 
True

>  <E0_value>  (5) 
-414011.8811146809

>  <E0_units>  (5) 
kJ/mol

>  <thermo_class>  (5) 
NASA

>  <Cp0_value>  (5) 
33.257888

>  <Cp0_units>  (5) 
J/(mol*K)

>  <CpInf_value>  (5) 
307.635464

>  <CpInf_units>  (5) 
J/(mol*K)

>  <Tmin_value>  (5) 
10.0

>  <Tmin_units>  (5) 
K

>  <Tmax_value>  (5) 
3000.0

>  <Tmax_units>  (5) 
K

>  <polynomials>  (5) 
[{"name": "polynomial1", "class": "NASAPolynomial", "Tmin_value": 10.0, "Tmin_units": "K", "Tmax_value": 459.50327221469234, "Tmax_units": "K", "coeffs": [3.62773905218509, 0.0379204052965817, -9.058477085604092e-05, 2.3352987797801903e-07, -1.9587332307055962e-10, -49794127.19836812, 8.376059366651374]}, {"name": "polynomial2", "class": "NASAPolynomial", "Tmin_value": 459.50327221469234, "Tmin_units": "K", "Tmax_value": 3000.0, "Tmax_units": "K", "coeffs": [-0.4755076654410845, 0.04577514746129413, -2.5265890637213705e-05, 6.794113823010839e-09, -7.146744197931144e-13, -49793455.94004297, 28.182057202444582]}]

>  <H298_value>  (5) 
-98946.57495611472

>  <H298_units>  (5) 
kcal/mol

>  <S298_value>  (5) 
75.50511363983016

>  <S298_units>  (5) 
cal/(mol*K)

>  <Cp_T_value_list>  (5) 
[22.99190778125536, 28.285684611779228, 33.584168394302246, 38.2910189740887, 46.0242906377744, 51.892298070812814, 60.90997475407486, 65.43740761303059, 67.69212997483466]

>  <Cp_T_units>  (5) 
cal/(mol*K)

>  <T_list>  (5) 
[300.0, 400.0, 500.0, 600.0, 800.0, 1000.0, 1500.0, 2000.0, 2400.0]

>  <T_units>  (5) 
K

>  <yaml_path>  (5) 
/home/calvin/Dropbox/PersonalFolders/Calvin/HAb_Converged/rxn_999/output/Species/rxn_999_C[C][C]C/rxn_999_CCCC.yml

>  <frequencies_cm1>  (5) 
[124.807458191, 128.04867526203998, 129.09245703068, 257.16173324868, 382.50481629463997, 382.85503254595994, 764.0551216298, 930.27736828572, 930.3460381389199, 963.9324633390399, 1004.2141992261601, 1004.5232135655599, 1087.7098737320398, 1293.67823142012, 1293.75376825864, 1387.2134384638398, 1387.5293197885599, 1410.6573263463201, 1453.51418172844, 1456.4532514453997, 1456.73479784352, 1475.62587445884, 1478.00871836488, 1478.2215949098, 2923.20011388548, 2923.5915320487197, 2931.0765460475195, 3026.2529625827196, 3027.0495328798397, 3028.0658467072003, 3072.26176422672, 3076.07294107932, 3076.7184376994]

>  <ZPE_kJmol>  (5) 
303.5238387389184

>  <E_elec_kJmol>  (5) 
-414315.4049534198

>  <E0_minus_Eelec_plus_ZPE_kJmol>  (5) 
0.0

>  <rxn>  (5) 
rxn_999

>  <species_type>  (5) 
r1

>  <species_folder>  (5) 
rxn_999_C[C][C]C

>  <frequencies_cm1_list>  (5) 
[124.807458191, 128.04867526203998, 129.09245703068, 257.16173324868, 382.50481629463997, 382.85503254595994, 764.0551216298, 930.27736828572, 930.3460381389199, 963.9324633390399, 1004.2141992261601, 1004.5232135655599, 1087.7098737320398, 1293.67823142012, 1293.75376825864, 1387.2134384638398, 1387.5293197885599, 1410.6573263463201, 1453.51418172844, 1456.4532514453997, 1456.73479784352, 1475.62587445884, 1478.00871836488, 1478.2215949098, 2923.20011388548, 2923.5915320487197, 2931.0765460475195, 3026.2529625827196, 3027.0495328798397, 3028.0658467072003, 3072.26176422672, 3076.07294107932, 3076.7184376994]

>  <E0_kJmol>  (5) 
-414012

>  <H298_kJmol>  (5) 
-413992

$$$$
