
     RDKit          3D

 12 11  0  0  0  0  0  0  0  0999 V2000
   -0.6624   -0.1304   -1.2604 C   0  0  0  0  0  0  0  0  0  1  0  0
   -0.0076   -0.0042   -0.0950 C   0  0  0  0  0  0  0  0  0  2  0  0
    0.4234    1.2937    0.4152 C   0  0  0  0  0  0  0  0  0  3  0  0
    0.2295   -1.1821    0.8076 C   0  0  0  0  0  0  0  0  0  4  0  0
   -0.8245    0.7225   -1.9096 H   0  0  0  0  0  0  0  0  0  5  0  0
   -1.0172   -1.0927   -1.6083 H   0  0  0  0  0  0  0  0  0  6  0  0
   -0.4199    1.6382    1.0092 H   0  0  0  0  0  0  0  0  0  7  0  0
    1.2471    1.2729    1.1254 H   0  0  0  0  0  0  0  0  0  8  0  0
    0.5237    2.0846   -0.3243 H   0  0  0  0  0  0  0  0  0  9  0  0
    1.2999   -1.3255    0.9752 H   0  0  0  0  0  0  0  0  0 10  0  0
   -0.2312   -1.0056    1.7829 H   0  0  0  0  0  0  0  0  0 11  0  0
   -0.1818   -2.1013    0.3917 H   0  0  0  0  0  0  0  0  0 12  0  0
  1  5  1  0
  1  6  1  0
  1  2  1  0
  2  3  1  0
  2  4  1  0
  3  7  1  0
  3  9  1  0
  3  8  1  0
  4 12  1  0
  4 10  1  0
  4 11  1  0
M  END
>  <rmg_smiles>  (1) 
[CH2]C(C)C

>  <rmg_adjacency_list>  (1) 
1  C u0 p0 c0 {3,S} {5,S} {6,S} {7,S}
2  C u0 p0 c0 {3,S} {8,S} {9,S} {10,S}
3  C u0 p0 c0 {1,S} {2,S} {4,S}
4  C u0 p0 c0 {3,S} {11,S} {12,S}
5  H u0 p0 c0 {1,S}
6  H u0 p0 c0 {1,S}
7  H u0 p0 c0 {1,S}
8  H u0 p0 c0 {2,S}
9  H u0 p0 c0 {2,S}
10 H u0 p0 c0 {2,S}
11 H u0 p0 c0 {4,S}
12 H u0 p0 c0 {4,S}


>  <multiplicity>  (1) 
1

>  <reaction>  (1) 
rxn_410

>  <type>  (1) 
r1h

>  <role_mapnums>  (1) 
{"r1h_a": 3, "r1h_h": 7}

>  <role_mapidx>  (1) 
{"r1h_a": 2, "r1h_h": 6}

>  <ordered_mapped_smiles>  (1) 
[CH:1]([CH:2]([C:3]([H:7])([H:8])[H:9])[C:4]([H:10])([H:11])[H:12])([H:5])[H:6]

>  <mol_properties>  (1) 
{"2": {"label": "donator", "atom_type": "Cs"}, "6": {"label": "d_hydrogen", "atom_type": "H0"}}

>  <level_of_theory>  (1) 
wb97xd/def2tzvp

>  <lot_method>  (1) 
wb97xd

>  <lot_basis>  (1) 
def2tzvp

>  <spin_multiplicity>  (1) 
1.0

>  <optical_isomers>  (1) 
1.0

>  <modes>  (1) 
IdealGasTranslation(mass=(56.0626, 'amu')),         NonlinearRotor(             inertia = ([54.8518, 59.7501, 108.39

>  <frequency_value>  (1) 
unknown

>  <frequency_units>  (1) 
unknown

>  <frequency_list>  (1) 
unknown

>  <arkane_path>  (1) 
/home/calvin/Dropbox/PersonalFolders/Calvin/HAb_Converged/rxn_410/output/Species/rxn_410_C=C[C]C/arkane/output.py

>  <path_exists>  (1) 
True

>  <E0_value>  (1) 
-412534.10297182825

>  <E0_units>  (1) 
kJ/mol

>  <thermo_class>  (1) 
NASA

>  <Cp0_value>  (1) 
33.257888

>  <Cp0_units>  (1) 
J/(mol*K)

>  <CpInf_value>  (1) 
282.692048

>  <CpInf_units>  (1) 
J/(mol*K)

>  <Tmin_value>  (1) 
10.0

>  <Tmin_units>  (1) 
K

>  <Tmax_value>  (1) 
3000.0

>  <Tmax_units>  (1) 
K

>  <polynomials>  (1) 
[{"name": "polynomial1", "class": "NASAPolynomial", "Tmin_value": 10.0, "Tmin_units": "K", "Tmax_value": 498.95038699364414, "Tmax_units": "K", "coeffs": [3.901727145998344, 0.007464022643265422, 8.140069101399911e-05, -1.34043578279297e-07, 6.97293044621997e-11, -49616389.46495108, 7.853222616117349]}, {"name": "polynomial2", "class": "NASAPolynomial", "Tmin_value": 498.95038699364414, "Tmin_units": "K", "Tmax_value": 3000.0, "Tmax_units": "K", "coeffs": [-0.46305569031982813, 0.04245581638085562, -2.3795747865523038e-05, 6.513704454155295e-09, -6.973300076201757e-13, -49615953.903874084, 25.876158086063345]}]

>  <H298_value>  (1) 
-98594.07566738632

>  <H298_units>  (1) 
kcal/mol

>  <S298_value>  (1) 
69.30463799070704

>  <S298_units>  (1) 
cal/(mol*K)

>  <Cp_T_value_list>  (1) 
[20.692039833610465, 26.067634259817133, 30.973684475535098, 35.29388260591572, 42.37063891481565, 47.719559295994536, 55.907581930700104, 60.049289040400026, 62.15407678364104]

>  <Cp_T_units>  (1) 
cal/(mol*K)

>  <T_list>  (1) 
[300.0, 400.0, 500.0, 600.0, 800.0, 1000.0, 1500.0, 2000.0, 2400.0]

>  <T_units>  (1) 
K

>  <yaml_path>  (1) 
/home/calvin/Dropbox/PersonalFolders/Calvin/HAb_Converged/rxn_410/output/Species/rxn_410_C=C[C]C/rxn_410_C=CCC.yml

>  <frequencies_cm1>  (1) 
[164.27888981035997, 208.61214703628, 383.62413490179995, 441.5128211494, 443.51798086284, 703.1586958120399, 819.4785601475199, 926.9743483468, 958.5968157454, 983.81238584044, 1013.07947727428, 1078.1853650931998, 1100.5786042217198, 1296.5623652545198, 1400.6040598378397, 1403.53626256948, 1434.8222476873998, 1457.25668872784, 1469.6378632598, 1476.3812428440397, 1489.7855981886796, 1728.3034662935597, 3000.4949006473994, 3004.42281625044, 3056.59130372648, 3058.7475371169594, 3099.70910455076, 3101.8172690439997, 3116.5675535113596, 3199.42459838248]

>  <ZPE_kJmol>  (1) 
281.2425858226165

>  <E_elec_kJmol>  (1) 
-412815.3455576509

>  <E0_minus_Eelec_plus_ZPE_kJmol>  (1) 
0.0

>  <rxn>  (1) 
rxn_410

>  <species_type>  (1) 
r1

>  <species_folder>  (1) 
rxn_410_C=C[C]C

>  <frequencies_cm1_list>  (1) 
[164.27888981035997, 208.61214703628, 383.62413490179995, 441.5128211494, 443.51798086284, 703.1586958120399, 819.4785601475199, 926.9743483468, 958.5968157454, 983.81238584044, 1013.07947727428, 1078.1853650931998, 1100.5786042217198, 1296.5623652545198, 1400.6040598378397, 1403.53626256948, 1434.8222476873998, 1457.25668872784, 1469.6378632598, 1476.3812428440397, 1489.7855981886796, 1728.3034662935597, 3000.4949006473994, 3004.42281625044, 3056.59130372648, 3058.7475371169594, 3099.70910455076, 3101.8172690439997, 3116.5675535113596, 3199.42459838248]

>  <E0_kJmol>  (1) 
-412534

>  <H298_kJmol>  (1) 
-412518

$$$$

     RDKit          3D

 15 14  0  0  0  0  0  0  0  0999 V2000
    0.6511   -0.7438    1.2391 C   0  0  0  0  0  0  0  0  0  1  0  0
   -0.0713    0.3689    0.4836 C   0  0  0  0  0  0  0  0  0  2  0  0
    0.6731    1.6958    0.5934 C   0  0  0  0  0  0  0  0  0  3  0  0
   -0.2732    0.0154   -0.9655 C   0  0  0  0  0  0  0  0  0  4  0  0
   -0.9542   -1.1734   -1.1355 O   0  0  0  0  0  0  0  0  0  5  0  0
    0.7380   -0.4960    2.2984 H   0  0  0  0  0  0  0  0  0  6  0  0
    1.6603   -0.8840    0.8424 H   0  0  0  0  0  0  0  0  0  7  0  0
    0.1163   -1.6889    1.1501 H   0  0  0  0  0  0  0  0  0  8  0  0
   -1.0664    0.4915    0.9328 H   0  0  0  0  0  0  0  0  0  9  0  0
    1.6721    1.6152    0.1570 H   0  0  0  0  0  0  0  0  0 10  0  0
    0.7878    1.9893    1.6379 H   0  0  0  0  0  0  0  0  0 11  0  0
    0.1427    2.4975    0.0754 H   0  0  0  0  0  0  0  0  0 12  0  0
   -0.6621    0.8360   -1.5794 H   0  0  0  0  0  0  0  0  0 13  0  0
   -0.8798   -1.4488   -2.0554 H   0  0  0  0  0  0  0  0  0 14  0  0
    0.7152   -0.1557   -1.4072 H   0  0  0  0  0  0  0  0  0 15  0  0
  1  8  1  0
  1  7  1  0
  1  6  1  0
  1  2  1  0
  2  9  1  0
  2  3  1  0
  2  4  1  0
  3 11  1  0
  3 12  1  0
  3 10  1  0
  4 13  1  0
  4  5  1  0
  4 15  1  0
  5 14  1  0
M  END
>  <rmg_smiles>  (2) 
CC(C)CO

>  <rmg_adjacency_list>  (2) 
1  O u0 p2 c0 {3,S} {15,S}
2  C u0 p0 c0 {3,S} {4,S} {5,S} {6,S}
3  C u0 p0 c0 {1,S} {2,S} {7,S} {8,S}
4  C u0 p0 c0 {2,S} {9,S} {10,S} {11,S}
5  C u0 p0 c0 {2,S} {12,S} {13,S} {14,S}
6  H u0 p0 c0 {2,S}
7  H u0 p0 c0 {3,S}
8  H u0 p0 c0 {3,S}
9  H u0 p0 c0 {4,S}
10 H u0 p0 c0 {4,S}
11 H u0 p0 c0 {4,S}
12 H u0 p0 c0 {5,S}
13 H u0 p0 c0 {5,S}
14 H u0 p0 c0 {5,S}
15 H u0 p0 c0 {1,S}


>  <multiplicity>  (2) 
1

>  <reaction>  (2) 
rxn_410

>  <type>  (2) 
r2h

>  <role_mapnums>  (2) 
{"r2h_a": 4, "r2h_h": 15}

>  <role_mapidx>  (2) 
{"r2h_a": 3, "r2h_h": 14}

>  <ordered_mapped_smiles>  (2) 
[C:1]([C:2]([C:3]([H:10])([H:11])[H:12])([C:4]([O:5][H:14])([H:13])[H:15])[H:9])([H:6])([H:7])[H:8]

>  <mol_properties>  (2) 
{"3": {"label": "acceptor", "atom_type": "Cs"}, "14": {"label": "a_hydrogen", "atom_type": "H0"}}

>  <level_of_theory>  (2) 
wb97xd/def2tzvp

>  <lot_method>  (2) 
wb97xd

>  <lot_basis>  (2) 
def2tzvp

>  <spin_multiplicity>  (2) 
1.0

>  <optical_isomers>  (2) 
2.0

>  <modes>  (2) 
IdealGasTranslation(mass=(74.0732, 'amu')),         NonlinearRotor(             inertia = ([66.603, 143.905, 189.515

>  <frequency_value>  (2) 
unknown

>  <frequency_units>  (2) 
unknown

>  <frequency_list>  (2) 
unknown

>  <arkane_path>  (2) 
/home/calvin/Dropbox/PersonalFolders/Calvin/HAb_Converged/rxn_410/output/Species/rxn_410_CC[C]CO/arkane/output.py

>  <path_exists>  (2) 
True

>  <E0_value>  (2) 
-613201.798563127

>  <E0_units>  (2) 
kJ/mol

>  <thermo_class>  (2) 
NASA

>  <Cp0_value>  (2) 
33.257888

>  <Cp0_units>  (2) 
J/(mol*K)

>  <CpInf_value>  (2) 
357.522296

>  <CpInf_units>  (2) 
J/(mol*K)

>  <Tmin_value>  (2) 
10.0

>  <Tmin_units>  (2) 
K

>  <Tmax_value>  (2) 
3000.0

>  <Tmax_units>  (2) 
K

>  <polynomials>  (2) 
[{"name": "polynomial1", "class": "NASAPolynomial", "Tmin_value": 10.0, "Tmin_units": "K", "Tmax_value": 575.0651176416371, "Tmax_units": "K", "coeffs": [3.712805799436365, 0.02341794423636385, 4.945520881208784e-05, -8.422411516035852e-08, 3.9345456013228885e-11, -73751136.90729754, 10.481383297442903]}, {"name": "polynomial2", "class": "NASAPolynomial", "Tmin_value": 575.0651176416371, "Tmin_units": "K", "Tmax_value": 3000.0, "Tmax_units": "K", "coeffs": [-0.6878246335024606, 0.05402765028160735, -3.0387394291557736e-05, 8.336812494957577e-09, -8.939885093345157e-13, -73750630.77899487, 29.27712262817248]}]

>  <H298_value>  (2) 
-146553.90003462895

>  <H298_units>  (2) 
kcal/mol

>  <S298_value>  (2) 
79.77174717591569

>  <S298_units>  (2) 
cal/(mol*K)

>  <Cp_T_value_list>  (2) 
[26.298303224673802, 33.0069380139673, 39.18106842386457, 44.660864775466386, 53.63198804085297, 60.401649014178936, 70.73051971901154, 75.92834368294982, 78.56390633588433]

>  <Cp_T_units>  (2) 
cal/(mol*K)

>  <T_list>  (2) 
[300.0, 400.0, 500.0, 600.0, 800.0, 1000.0, 1500.0, 2000.0, 2400.0]

>  <T_units>  (2) 
K

>  <yaml_path>  (2) 
/home/calvin/Dropbox/PersonalFolders/Calvin/HAb_Converged/rxn_410/output/Species/rxn_410_CC[C]CO/rxn_410_CCCCO.yml

>  <frequencies_cm1>  (2) 
[130.82980431664, 216.90746530284, 234.24660323583998, 266.73431078476, 284.49233482228, 352.62656316731994, 430.94453074191995, 496.53797451855996, 825.04768524204, 903.1871111983199, 929.7966793133199, 953.3298380049599, 972.0423730019598, 1079.3527525975999, 1116.63361589988, 1149.4372047735199, 1195.51467627072, 1246.91406139092, 1321.76420137892, 1364.46311609868, 1379.29580438988, 1394.3345022406797, 1400.81006939744, 1419.04878240736, 1474.01899989396, 1475.3855299726397, 1489.2293723777598, 1494.17360180816, 1499.15903315048, 2968.2269366287196, 2974.66816885888, 3005.13698272372, 3008.8176868552396, 3047.7397596489996, 3073.490954599, 3077.9132931450795, 3086.88844295832, 3102.6138393411197, 3839.6611077073594]

>  <ZPE_kJmol>  (2) 
356.9742425885658

>  <E_elec_kJmol>  (2) 
-613558.7728057157

>  <E0_minus_Eelec_plus_ZPE_kJmol>  (2) 
0.0

>  <rxn>  (2) 
rxn_410

>  <species_type>  (2) 
p0

>  <species_folder>  (2) 
rxn_410_CC[C]CO

>  <frequencies_cm1_list>  (2) 
[130.82980431664, 216.90746530284, 234.24660323583998, 266.73431078476, 284.49233482228, 352.62656316731994, 430.94453074191995, 496.53797451855996, 825.04768524204, 903.1871111983199, 929.7966793133199, 953.3298380049599, 972.0423730019598, 1079.3527525975999, 1116.63361589988, 1149.4372047735199, 1195.51467627072, 1246.91406139092, 1321.76420137892, 1364.46311609868, 1379.29580438988, 1394.3345022406797, 1400.81006939744, 1419.04878240736, 1474.01899989396, 1475.3855299726397, 1489.2293723777598, 1494.17360180816, 1499.15903315048, 2968.2269366287196, 2974.66816885888, 3005.13698272372, 3008.8176868552396, 3047.7397596489996, 3073.490954599, 3077.9132931450795, 3086.88844295832, 3102.6138393411197, 3839.6611077073594]

>  <E0_kJmol>  (2) 
-613202

>  <H298_kJmol>  (2) 
-613182

$$$$

     RDKit          3D

 26 24  0  0  0  0  0  0  0  0999 V2000
   -0.0363    0.1363    2.3624 C   0  0  0  0  0  0  0  0  0  1  0  0
   -0.7587    1.2490    1.6070 C   0  0  0  0  0  0  0  0  0  2  0  0
   -0.0143    2.5759    1.7168 C   0  0  0  0  0  0  0  0  0  3  0  0
   -0.9607    0.8954    0.1578 C   0  0  0  0  0  3  0  0  0  4  0  0
   -1.6416   -0.2933   -0.0121 O   0  0  0  0  0  0  0  0  0  5  0  0
    0.0506    0.3841    3.4218 H   0  0  0  0  0  0  0  0  0  6  0  0
    0.9729   -0.0039    1.9658 H   0  0  0  0  0  0  0  0  0  7  0  0
   -0.5711   -0.8089    2.2734 H   0  0  0  0  0  0  0  0  0  8  0  0
   -1.7538    1.3716    2.0561 H   0  0  0  0  0  0  0  0  0  9  0  0
    0.9847    2.4953    1.2804 H   0  0  0  0  0  0  0  0  0 10  0  0
    0.1004    2.8694    2.7612 H   0  0  0  0  0  0  0  0  0 11  0  0
   -0.5448    3.3775    1.1988 H   0  0  0  0  0  0  0  0  0 12  0  0
   -1.3495    1.7160   -0.4560 H   0  0  0  0  0  0  0  0  0 13  0  0
   -1.5672   -0.5687   -0.9321 H   0  0  0  0  0  0  0  0  0 14  0  0
    0.2332   -1.1674   -2.8035 C   0  0  0  0  0  0  0  0  0 15  0  0
    0.8880   -1.0412   -1.6381 C   0  0  0  0  0  0  0  0  0 16  0  0
    1.3190    0.2568   -1.1279 C   0  0  0  0  0  0  0  0  0 17  0  0
    1.1251   -2.2190   -0.7355 C   0  0  0  0  0  0  0  0  0 18  0  0
    0.0711   -0.3145   -3.4527 H   0  0  0  0  0  0  0  0  0 19  0  0
   -0.1216   -2.1297   -3.1514 H   0  0  0  0  0  0  0  0  0 20  0  0
    0.2816    0.6805   -0.3972 H   0  0  0  0  0  0  0  0  0 21  0  0
    2.1427    0.2359   -0.4177 H   0  0  0  0  0  0  0  0  0 22  0  0
    1.4192    1.0476   -1.8674 H   0  0  0  0  0  0  0  0  0 23  0  0
    2.1955   -2.3625   -0.5679 H   0  0  0  0  0  0  0  0  0 24  0  0
    0.6644   -2.0426    0.2398 H   0  0  0  0  0  0  0  0  0 25  0  0
    0.7138   -3.1383   -1.1514 H   0  0  0  0  0  0  0  0  0 26  0  0
  1  7  1  0
  1  8  1  0
  1  6  1  0
  1  2  1  0
  2  3  1  0
  2  4  1  0
  2  9  1  0
  3 12  1  0
  3 11  1  0
  3 10  1  0
  4  5  1  0
  4 13  1  0
  5 14  1  0
 15 20  1  0
 15 16  1  0
 15 19  1  0
 16 17  1  0
 16 18  1  0
 17 21  1  0
 17 23  1  0
 17 22  1  0
 18 24  1  0
 18 25  1  0
 18 26  1  0
M  RAD  1   4   2
M  END
>  <rmg_smiles>  (3) 
CC(C)[CH]O.[CH2]C(C)C

>  <rmg_adjacency_list>  (3) 
multiplicity 2
1  O u0 p2 c0 {8,S} {26,S}
2  C u0 p0 c0 {3,S} {4,S} {8,S} {10,S}
3  C u0 p0 c0 {2,S} {11,S} {12,S} {13,S}
4  C u0 p0 c0 {2,S} {14,S} {15,S} {16,S}
5  C u0 p0 c0 {7,S} {17,S} {18,S} {19,S}
6  C u0 p0 c0 {7,S} {20,S} {21,S} {22,S}
7  C u0 p0 c0 {5,S} {6,S} {9,S}
8  C u1 p0 c0 {1,S} {2,S} {23,S}
9  C u0 p0 c0 {7,S} {24,S} {25,S}
10 H u0 p0 c0 {2,S}
11 H u0 p0 c0 {3,S}
12 H u0 p0 c0 {3,S}
13 H u0 p0 c0 {3,S}
14 H u0 p0 c0 {4,S}
15 H u0 p0 c0 {4,S}
16 H u0 p0 c0 {4,S}
17 H u0 p0 c0 {5,S}
18 H u0 p0 c0 {5,S}
19 H u0 p0 c0 {5,S}
20 H u0 p0 c0 {6,S}
21 H u0 p0 c0 {6,S}
22 H u0 p0 c0 {6,S}
23 H u0 p0 c0 {8,S}
24 H u0 p0 c0 {9,S}
25 H u0 p0 c0 {9,S}
26 H u0 p0 c0 {1,S}


>  <multiplicity>  (3) 
2

>  <reaction>  (3) 
rxn_410

>  <type>  (3) 
ts

>  <role_mapnums>  (3) 
{"*2": 21, "*1": 17, "*3": 4, "*0": 16, "*4": 2}

>  <role_mapidx>  (3) 
{"*2": 20, "*1": 16, "*3": 3, "*0": 15, "*4": 1}

>  <ordered_mapped_smiles>  (3) 
[C:1]([C:2]([C:3]([H:10])([H:11])[H:12])([C:4]([O:5][H:14])[H:13])[H:9])([H:6])([H:7])[H:8].[CH:15]([CH:16]([C:17]([H:21])([H:22])[H:23])[C:18]([H:24])([H:25])[H:26])([H:19])[H:20]

>  <mol_properties>  (3) 
{"1": {"label": "*4", "atom_type": "Cs"}, "3": {"label": "*3", "atom_type": "Cs"}, "15": {"label": "*0", "atom_type": "Cs"}, "16": {"label": "*1", "atom_type": "Cs"}, "20": {"label": "*2", "atom_type": "H0"}}

>  <level_of_theory>  (3) 
wb97xd/def2tzvp

>  <lot_method>  (3) 
wb97xd

>  <lot_basis>  (3) 
def2tzvp

>  <spin_multiplicity>  (3) 
2.0

>  <optical_isomers>  (3) 
2.0

>  <modes>  (3) 
IdealGasTranslation(mass=(129.128, 'amu')),         NonlinearRotor(             inertia = ([214.699, 621.569, 629.56

>  <frequency_value>  (3) 
-1710.02

>  <frequency_units>  (3) 
cm^-1

>  <frequency_list>  (3) 
unknown

>  <arkane_path>  (3) 
/home/calvin/Dropbox/PersonalFolders/Calvin/HAb_Converged/rxn_410/output/rxns/TS0/arkane/output.py

>  <path_exists>  (3) 
True

>  <E0_value>  (3) 
-1023990.0

>  <E0_units>  (3) 
kJ/mol

>  <thermo_class>  (3) 
unknown

>  <Cp0_value>  (3) 
unknown

>  <Cp0_units>  (3) 
unknown

>  <CpInf_value>  (3) 
unknown

>  <CpInf_units>  (3) 
unknown

>  <Tmin_value>  (3) 
unknown

>  <Tmin_units>  (3) 
unknown

>  <Tmax_value>  (3) 
unknown

>  <Tmax_units>  (3) 
unknown

>  <polynomials>  (3) 
unknown

>  <H298_value>  (3) 
unknown

>  <H298_units>  (3) 
unknown

>  <S298_value>  (3) 
unknown

>  <S298_units>  (3) 
unknown

>  <Cp_T_value_list>  (3) 
unknown

>  <Cp_T_units>  (3) 
unknown

>  <T_list>  (3) 
unknown

>  <T_units>  (3) 
unknown

>  <yaml_path>  (3) 
unknown

>  <frequencies_cm1>  (3) 
unknown

>  <ZPE_kJmol>  (3) 
unknown

>  <E_elec_kJmol>  (3) 
unknown

>  <E0_minus_Eelec_plus_ZPE_kJmol>  (3) 
unknown

>  <rxn>  (3) 
unknown

>  <species_type>  (3) 
unknown

>  <species_folder>  (3) 
unknown

>  <frequencies_cm1_list>  (3) 
[]

>  <ts_imag_freq_cm1>  (3) 
-1730.7898

>  <ts_freq_out_path>  (3) 
/home/calvin/Dropbox/PersonalFolders/Calvin/HAb_Converged/rxn_410/output/rxns/TS0/geometry/freq.out

>  <E0_kJmol>  (3) 
-1.02399e+06

>  <H298_kJmol>  (3) 
unknown

$$$$

     RDKit          3D

 11 10  0  0  0  0  0  0  0  0999 V2000
    1.4192   -0.3322   -0.2373 C   0  0  0  0  0  0  0  0  0  1  0  0
    0.1353    0.1259    0.0104 C   0  0  0  0  0  0  0  0  0  2  0  0
   -0.0994    1.4387    0.3575 C   0  0  0  0  0  3  0  0  0  3  0  0
   -1.0184   -0.8432   -0.0948 C   0  0  0  0  0  0  0  0  0  4  0  0
    1.6064   -1.3616   -0.5143 H   0  0  0  0  0  0  0  0  0  5  0  0
    2.2713    0.3306   -0.1599 H   0  0  0  0  0  0  0  0  0  6  0  0
    0.7172    2.1438    0.4483 H   0  0  0  0  0  0  0  0  0  7  0  0
   -1.1000    1.8033    0.5485 H   0  0  0  0  0  0  0  0  0  8  0  0
   -0.9674   -1.5884    0.7016 H   0  0  0  0  0  0  0  0  0  9  0  0
   -1.9775   -0.3322   -0.0170 H   0  0  0  0  0  0  0  0  0 10  0  0
   -0.9929   -1.3773   -1.0460 H   0  0  0  0  0  0  0  0  0 11  0  0
  1  5  1  0
  1  6  1  0
  1  2  1  0
  2  3  1  0
  2  4  1  0
  3  7  1  0
  3  8  1  0
  4  9  1  0
  4 10  1  0
  4 11  1  0
M  RAD  1   3   2
M  END
>  <rmg_smiles>  (4) 
[CH2]C([CH2])C

>  <rmg_adjacency_list>  (4) 
multiplicity 2
1  C u0 p0 c0 {2,S} {5,S} {6,S} {7,S}
2  C u0 p0 c0 {1,S} {3,S} {4,S}
3  C u1 p0 c0 {2,S} {10,S} {11,S}
4  C u0 p0 c0 {2,S} {8,S} {9,S}
5  H u0 p0 c0 {1,S}
6  H u0 p0 c0 {1,S}
7  H u0 p0 c0 {1,S}
8  H u0 p0 c0 {4,S}
9  H u0 p0 c0 {4,S}
10 H u0 p0 c0 {3,S}
11 H u0 p0 c0 {3,S}


>  <multiplicity>  (4) 
2

>  <reaction>  (4) 
rxn_410

>  <type>  (4) 
r1

>  <role_mapnums>  (4) 
{}

>  <role_mapidx>  (4) 
{}

>  <ordered_mapped_smiles>  (4) 
[CH:1]([CH:2]([C:3]([H:7])[H:8])[C:4]([H:9])([H:10])[H:11])([H:5])[H:6]

>  <level_of_theory>  (4) 
wb97xd/def2tzvp

>  <lot_method>  (4) 
wb97xd

>  <lot_basis>  (4) 
def2tzvp

>  <spin_multiplicity>  (4) 
2.0

>  <optical_isomers>  (4) 
2.0

>  <modes>  (4) 
IdealGasTranslation(mass=(55.0548, 'amu')),         NonlinearRotor(             inertia = ([50.2749, 56.9544, 104.106

>  <frequency_value>  (4) 
unknown

>  <frequency_units>  (4) 
unknown

>  <frequency_list>  (4) 
unknown

>  <arkane_path>  (4) 
/home/calvin/Dropbox/PersonalFolders/Calvin/HAb_Converged/rxn_410/output/Species/rxn_410_[CH2]C[=C]C/arkane/output.py

>  <path_exists>  (4) 
True

>  <E0_value>  (4) 
-410855.17444158817

>  <E0_units>  (4) 
kJ/mol

>  <thermo_class>  (4) 
NASA

>  <Cp0_value>  (4) 
33.257888

>  <Cp0_units>  (4) 
J/(mol*K)

>  <CpInf_value>  (4) 
257.748632

>  <CpInf_units>  (4) 
J/(mol*K)

>  <Tmin_value>  (4) 
10.0

>  <Tmin_units>  (4) 
K

>  <Tmax_value>  (4) 
3000.0

>  <Tmax_units>  (4) 
K

>  <polynomials>  (4) 
[{"name": "polynomial1", "class": "NASAPolynomial", "Tmin_value": 10.0, "Tmin_units": "K", "Tmax_value": 470.1146438794014, "Tmax_units": "K", "coeffs": [3.954796647402233, 0.002872450157006195, 0.00011674632592322161, -2.2511570634289398e-07, 1.3994868424571672e-10, -49414462.35793003, 11.57794818049774]}, {"name": "polynomial2", "class": "NASAPolynomial", "Tmin_value": 470.1146438794014, "Tmin_units": "K", "Tmax_value": 3000.0, "Tmax_units": "K", "coeffs": [0.4415935725994241, 0.03992026263782331, -2.4293683125638006e-05, 7.26896081991733e-09, -8.474885181164997e-13, -49414211.107381605, 25.0344546585906]}]

>  <H298_value>  (4) 
-98192.85015060692

>  <H298_units>  (4) 
kcal/mol

>  <S298_value>  (4) 
76.385592670644

>  <S298_units>  (4) 
cal/(mol*K)

>  <Cp_T_value_list>  (4) 
[20.62553680729987, 25.751155764175074, 30.17365643154264, 33.99769766658572, 40.15036098251711, 44.691569516418454, 51.475668461733136, 55.0441428173123, 57.00716859293214]

>  <Cp_T_units>  (4) 
cal/(mol*K)

>  <T_list>  (4) 
[300.0, 400.0, 500.0, 600.0, 800.0, 1000.0, 1500.0, 2000.0, 2400.0]

>  <T_units>  (4) 
K

>  <yaml_path>  (4) 
/home/calvin/Dropbox/PersonalFolders/Calvin/HAb_Converged/rxn_410/output/Species/rxn_410_[CH2]C[=C]C/rxn_410_CH2C=CC.yml

>  <frequencies_cm1>  (4) 
[16.961453740399996, 408.55815859872, 440.6201130578, 480.13274658908, 535.1785009142001, 564.7958085993599, 772.28863702848, 809.22615106476, 852.6048973311998, 966.3153072450799, 1010.98504675168, 1044.81868342332, 1051.75433859652, 1312.85085443356, 1369.4485474409998, 1412.2985358377998, 1471.4644813549198, 1475.4061309286, 1486.0499581746, 1528.0072384798, 3020.1688135892, 3085.2128985402396, 3104.9005454526796, 3120.7701485272, 3127.7401386269994, 3218.37061088036, 3220.73285383044]

>  <ZPE_kJmol>  (4) 
244.68222355217392

>  <E_elec_kJmol>  (4) 
-411099.8566651404

>  <E0_minus_Eelec_plus_ZPE_kJmol>  (4) 
0.0

>  <rxn>  (4) 
rxn_410

>  <species_type>  (4) 
p1

>  <species_folder>  (4) 
rxn_410_[CH2]C[=C]C

>  <frequencies_cm1_list>  (4) 
[16.961453740399996, 408.55815859872, 440.6201130578, 480.13274658908, 535.1785009142001, 564.7958085993599, 772.28863702848, 809.22615106476, 852.6048973311998, 966.3153072450799, 1010.98504675168, 1044.81868342332, 1051.75433859652, 1312.85085443356, 1369.4485474409998, 1412.2985358377998, 1471.4644813549198, 1475.4061309286, 1486.0499581746, 1528.0072384798, 3020.1688135892, 3085.2128985402396, 3104.9005454526796, 3120.7701485272, 3127.7401386269994, 3218.37061088036, 3220.73285383044]

>  <E0_kJmol>  (4) 
-410855

>  <H298_kJmol>  (4) 
-410839

$$$$

     RDKit          3D

 14 13  0  0  0  0  0  0  0  0999 V2000
   -1.1038   -1.2820   -0.0831 C   0  0  0  0  0  0  0  0  0  1  0  0
   -0.3738   -0.0303    0.3958 C   0  0  0  0  0  0  0  0  0  2  0  0
    1.0799   -0.0135   -0.1022 C   0  0  0  0  0  0  0  0  0  3  0  0
   -0.4539    0.0783    1.8774 C   0  0  0  0  0  3  0  0  0  4  0  0
   -0.0196    1.2652    2.3945 O   0  0  0  0  0  0  0  0  0  5  0  0
   -0.6387   -2.1819    0.3292 H   0  0  0  0  0  0  0  0  0  6  0  0
   -1.0649   -1.3593   -1.1709 H   0  0  0  0  0  0  0  0  0  7  0  0
   -2.1510   -1.2728    0.2226 H   0  0  0  0  0  0  0  0  0  8  0  0
   -0.8759    0.8495   -0.0235 H   0  0  0  0  0  0  0  0  0  9  0  0
    1.1145   -0.0235   -1.1941 H   0  0  0  0  0  0  0  0  0 10  0  0
    1.6194   -0.8920    0.2618 H   0  0  0  0  0  0  0  0  0 11  0  0
    1.6007    0.8771    0.2500 H   0  0  0  0  0  0  0  0  0 12  0  0
   -0.3212   -0.8061    2.4983 H   0  0  0  0  0  0  0  0  0 13  0  0
   -0.0217    1.2207    3.3511 H   0  0  0  0  0  0  0  0  0 14  0  0
  1  8  1  0
  1  7  1  0
  1  6  1  0
  1  2  1  0
  2  9  1  0
  2  3  1  0
  2  4  1  0
  3 11  1  0
  3 12  1  0
  3 10  1  0
  4 13  1  0
  4  5  1  0
  5 14  1  0
M  RAD  1   4   2
M  END
>  <rmg_smiles>  (5) 
CC(C)[CH]O

>  <rmg_adjacency_list>  (5) 
multiplicity 2
1  O u0 p2 c0 {5,S} {14,S}
2  C u0 p0 c0 {3,S} {4,S} {5,S} {6,S}
3  C u0 p0 c0 {2,S} {7,S} {8,S} {9,S}
4  C u0 p0 c0 {2,S} {10,S} {11,S} {12,S}
5  C u1 p0 c0 {1,S} {2,S} {13,S}
6  H u0 p0 c0 {2,S}
7  H u0 p0 c0 {3,S}
8  H u0 p0 c0 {3,S}
9  H u0 p0 c0 {3,S}
10 H u0 p0 c0 {4,S}
11 H u0 p0 c0 {4,S}
12 H u0 p0 c0 {4,S}
13 H u0 p0 c0 {5,S}
14 H u0 p0 c0 {1,S}


>  <multiplicity>  (5) 
2

>  <reaction>  (5) 
rxn_410

>  <type>  (5) 
r2

>  <role_mapnums>  (5) 
{}

>  <role_mapidx>  (5) 
{}

>  <ordered_mapped_smiles>  (5) 
[C:1]([C:2]([C:3]([H:10])([H:11])[H:12])([C:4]([O:5][H:14])[H:13])[H:9])([H:6])([H:7])[H:8]

>  <level_of_theory>  (5) 
wb97xd/def2tzvp

>  <lot_method>  (5) 
wb97xd

>  <lot_basis>  (5) 
def2tzvp

>  <spin_multiplicity>  (5) 
2.0

>  <optical_isomers>  (5) 
2.0

>  <modes>  (5) 
IdealGasTranslation(mass=(73.0653, 'amu')),         NonlinearRotor(             inertia = ([63.9279, 142.045, 186.855

>  <frequency_value>  (5) 
unknown

>  <frequency_units>  (5) 
unknown

>  <frequency_list>  (5) 
unknown

>  <arkane_path>  (5) 
/home/calvin/Dropbox/PersonalFolders/Calvin/HAb_Converged/rxn_410/output/Species/rxn_410_CC[C][CH]O/arkane/output.py

>  <path_exists>  (5) 
True

>  <E0_value>  (5) 
-611498.9441533478

>  <E0_units>  (5) 
kJ/mol

>  <thermo_class>  (5) 
NASA

>  <Cp0_value>  (5) 
33.257888

>  <Cp0_units>  (5) 
J/(mol*K)

>  <CpInf_value>  (5) 
332.57888

>  <CpInf_units>  (5) 
J/(mol*K)

>  <Tmin_value>  (5) 
10.0

>  <Tmin_units>  (5) 
K

>  <Tmax_value>  (5) 
3000.0

>  <Tmax_units>  (5) 
K

>  <polynomials>  (5) 
[{"name": "polynomial1", "class": "NASAPolynomial", "Tmin_value": 10.0, "Tmin_units": "K", "Tmax_value": 387.8808531937286, "Tmax_units": "K", "coeffs": [3.7222393532962537, 0.022291259950413256, 7.156387334799193e-05, -1.6167576527514427e-07, 1.0813877641480004e-10, -73546329.99847414, 11.232736942825126]}, {"name": "polynomial2", "class": "NASAPolynomial", "Tmin_value": 387.8808531937286, "Tmin_units": "K", "Tmax_value": 3000.0, "Tmax_units": "K", "coeffs": [1.2567420411620753, 0.047716496021830014, -2.6759489158970974e-05, 7.316151739873909e-09, -7.8091706410683e-13, -73546138.73411052, 20.792376379098172]}]

>  <H298_value>  (5) 
-146146.8518769244

>  <H298_units>  (5) 
kcal/mol

>  <S298_value>  (5) 
81.56704282131199

>  <S298_units>  (5) 
cal/(mol*K)

>  <Cp_T_value_list>  (5) 
[26.551154224214557, 32.80890734457895, 38.33486161896707, 43.186578733271226, 51.13056862546382, 57.13016706563306, 66.29570271918729, 70.91608380484615, 73.27069351231306]

>  <Cp_T_units>  (5) 
cal/(mol*K)

>  <T_list>  (5) 
[300.0, 400.0, 500.0, 600.0, 800.0, 1000.0, 1500.0, 2000.0, 2400.0]

>  <T_units>  (5) 
K

>  <yaml_path>  (5) 
/home/calvin/Dropbox/PersonalFolders/Calvin/HAb_Converged/rxn_410/output/Species/rxn_410_CC[C][CH]O/rxn_410_CCCCHO.yml

>  <frequencies_cm1>  (5) 
[104.70092517403998, 219.99074171152, 235.68180316771998, 254.11965875192, 332.02560720732, 349.05573080091995, 413.35131435208, 499.01695621908, 623.43986323216, 830.1635893054399, 927.4893722458, 938.7786961118799, 965.93762305248, 1105.1726174008, 1112.60956250236, 1179.4390636366, 1211.7688305231602, 1254.98963612724, 1322.6912443971198, 1331.4741186213998, 1381.25289520608, 1404.0169515418797, 1448.0274604577596, 1474.00526592332, 1474.7331663672398, 1486.9151983249199, 1499.8182637411999, 2993.20902922288, 3004.1550038229593, 3008.2133921470795, 3072.75618716976, 3078.33904623492, 3090.89189539988, 3093.7210933517194, 3098.6859237380795, 3862.4594989697603]

>  <ZPE_kJmol>  (5) 
321.09631993175043

>  <E_elec_kJmol>  (5) 
-611820.0404732795

>  <E0_minus_Eelec_plus_ZPE_kJmol>  (5) 
0.0

>  <rxn>  (5) 
rxn_410

>  <species_type>  (5) 
r0

>  <species_folder>  (5) 
rxn_410_CC[C][CH]O

>  <frequencies_cm1_list>  (5) 
[104.70092517403998, 219.99074171152, 235.68180316771998, 254.11965875192, 332.02560720732, 349.05573080091995, 413.35131435208, 499.01695621908, 623.43986323216, 830.1635893054399, 927.4893722458, 938.7786961118799, 965.93762305248, 1105.1726174008, 1112.60956250236, 1179.4390636366, 1211.7688305231602, 1254.98963612724, 1322.6912443971198, 1331.4741186213998, 1381.25289520608, 1404.0169515418797, 1448.0274604577596, 1474.00526592332, 1474.7331663672398, 1486.9151983249199, 1499.8182637411999, 2993.20902922288, 3004.1550038229593, 3008.2133921470795, 3072.75618716976, 3078.33904623492, 3090.89189539988, 3093.7210933517194, 3098.6859237380795, 3862.4594989697603]

>  <E0_kJmol>  (5) 
-611499

>  <H298_kJmol>  (5) 
-611478

$$$$
