
     RDKit          3D

  5  4  0  0  0  0  0  0  0  0999 V2000
   -0.0985    0.0859    0.6861 N   0  0  0  0  0  0  0  0  0  1  0  0
    0.0700   -0.1461   -0.6583 O   0  0  0  0  0  0  0  0  0  2  0  0
    0.1567    1.0550    0.8656 H   0  0  0  0  0  0  0  0  0  3  0  0
    0.6032   -0.5153    1.1134 H   0  0  0  0  0  0  0  0  0  4  0  0
   -0.5312    0.4756   -1.0844 H   0  0  0  0  0  0  0  0  0  5  0  0
  1  3  1  0
  1  2  1  0
  1  4  1  0
  2  5  1  0
M  END
>  <rmg_smiles>  (1) 
NO

>  <rmg_adjacency_list>  (1) 
1 O u0 p2 c0 {2,S} {5,S}
2 N u0 p1 c0 {1,S} {3,S} {4,S}
3 H u0 p0 c0 {2,S}
4 H u0 p0 c0 {2,S}
5 H u0 p0 c0 {1,S}


>  <multiplicity>  (1) 
1

>  <reaction>  (1) 
rxn_711

>  <type>  (1) 
r1h

>  <role_mapnums>  (1) 
{"r1h_a": 1, "r1h_h": 3}

>  <role_mapidx>  (1) 
{"r1h_a": 0, "r1h_h": 2}

>  <ordered_mapped_smiles>  (1) 
[N:1]([O:2][H:5])([H:3])[H:4]

>  <mol_properties>  (1) 
{"0": {"label": "donator", "atom_type": "N3s"}, "2": {"label": "d_hydrogen", "atom_type": "H0"}}

>  <level_of_theory>  (1) 
wb97xd/def2tzvp

>  <lot_method>  (1) 
wb97xd

>  <lot_basis>  (1) 
def2tzvp

>  <spin_multiplicity>  (1) 
1.0

>  <optical_isomers>  (1) 
1.0

>  <modes>  (1) 
IdealGasTranslation(mass=(33.0215, 'amu')),         NonlinearRotor(             inertia = ([2.59225, 19.4355, 19.501

>  <frequency_value>  (1) 
unknown

>  <frequency_units>  (1) 
unknown

>  <frequency_list>  (1) 
unknown

>  <arkane_path>  (1) 
/home/calvin/Dropbox/PersonalFolders/Calvin/HAb_Converged/rxn_711/output/Species/rxn_711_NO/arkane/output.py

>  <path_exists>  (1) 
True

>  <E0_value>  (1) 
-345760.1153883433

>  <E0_units>  (1) 
kJ/mol

>  <thermo_class>  (1) 
NASA

>  <Cp0_value>  (1) 
33.257888

>  <Cp0_units>  (1) 
J/(mol*K)

>  <CpInf_value>  (1) 
108.088136

>  <CpInf_units>  (1) 
J/(mol*K)

>  <Tmin_value>  (1) 
10.0

>  <Tmin_units>  (1) 
K

>  <Tmax_value>  (1) 
3000.0

>  <Tmax_units>  (1) 
K

>  <polynomials>  (1) 
[{"name": "polynomial1", "class": "NASAPolynomial", "Tmin_value": 10.0, "Tmin_units": "K", "Tmax_value": 580.9007642271433, "Tmax_units": "K", "coeffs": [4.03351337603891, -0.0026055619767365026, 3.4707932316319536e-05, -4.988748551285535e-08, 2.4056254483528483e-11, -41585336.74899101, 4.785105557505755]}, {"name": "polynomial2", "class": "NASAPolynomial", "Tmin_value": 580.9007642271433, "Tmin_units": "K", "Tmax_value": 3000.0, "Tmax_units": "K", "coeffs": [2.2280862927976393, 0.011464922036763985, -5.855934213985934e-06, 1.5211535228533192e-09, -1.5805460822993758e-13, -41585154.64061692, 12.276622486399495]}]

>  <H298_value>  (1) 
-82636.05740866957

>  <H298_units>  (1) 
kcal/mol

>  <S298_value>  (1) 
55.91286270330937

>  <S298_units>  (1) 
cal/(mol*K)

>  <Cp_T_value_list>  (1) 
[10.380078256623095, 11.858851126306128, 13.265190976791322, 14.520495012908805, 16.625600448411106, 18.282643655531867, 21.031319909969245, 22.603575654587356, 23.445602497288874]

>  <Cp_T_units>  (1) 
cal/(mol*K)

>  <T_list>  (1) 
[300.0, 400.0, 500.0, 600.0, 800.0, 1000.0, 1500.0, 2000.0, 2400.0]

>  <T_units>  (1) 
K

>  <yaml_path>  (1) 
/home/calvin/Dropbox/PersonalFolders/Calvin/HAb_Converged/rxn_711/output/Species/rxn_711_NO/rxn_711_NO.yml

>  <frequencies_cm1>  (1) 
[430.559979564, 978.66214685044, 1138.96505216052, 1332.8475156854, 1398.2486838730802, 1664.27569516988, 3445.1322001173994, 3526.3892374089596, 3839.5718368982]

>  <ZPE_kJmol>  (1) 
106.1964347270352

>  <E_elec_kJmol>  (1) 
-345866.31182307034

>  <E0_minus_Eelec_plus_ZPE_kJmol>  (1) 
0.0

>  <rxn>  (1) 
rxn_711

>  <species_type>  (1) 
r1

>  <species_folder>  (1) 
rxn_711_NO

>  <frequencies_cm1_list>  (1) 
[430.559979564, 978.66214685044, 1138.96505216052, 1332.8475156854, 1398.2486838730802, 1664.27569516988, 3445.1322001173994, 3526.3892374089596, 3839.5718368982]

>  <E0_kJmol>  (1) 
-345760

>  <H298_kJmol>  (1) 
-345749

$$$$

     RDKit          3D

  4  3  0  0  0  0  0  0  0  0999 V2000
    0.4769   -0.1116    0.4854 O   0  0  0  0  0  0  0  0  0  1  0  0
   -0.4113    0.1688   -0.5244 O   0  0  0  0  0  0  0  0  0  2  0  0
   -1.1964    0.4878   -0.0604 H   0  0  0  0  0  0  0  0  0  3  0  0
    0.2465   -1.0331    0.6245 H   0  0  0  0  0  0  0  0  0  4  0  0
  1  2  1  0
  1  4  1  0
  2  3  1  0
M  END
>  <rmg_smiles>  (2) 
OO

>  <rmg_adjacency_list>  (2) 
1 O u0 p2 c0 {2,S} {4,S}
2 O u0 p2 c0 {1,S} {3,S}
3 H u0 p0 c0 {2,S}
4 H u0 p0 c0 {1,S}


>  <multiplicity>  (2) 
1

>  <reaction>  (2) 
rxn_711

>  <type>  (2) 
r2h

>  <role_mapnums>  (2) 
{"r2h_a": 1, "r2h_h": 4}

>  <role_mapidx>  (2) 
{"r2h_a": 0, "r2h_h": 3}

>  <ordered_mapped_smiles>  (2) 
[O:1]([O:2][H:3])[H:4]

>  <mol_properties>  (2) 
{"0": {"label": "acceptor", "atom_type": "O2s"}, "3": {"label": "a_hydrogen", "atom_type": "H0"}}

>  <level_of_theory>  (2) 
wb97xd/def2tzvp

>  <lot_method>  (2) 
wb97xd

>  <lot_basis>  (2) 
def2tzvp

>  <spin_multiplicity>  (2) 
1.0

>  <optical_isomers>  (2) 
2.0

>  <modes>  (2) 
IdealGasTranslation(mass=(34.0055, 'amu')),         NonlinearRotor(             inertia = ([1.6422, 18.4839, 19.1306

>  <frequency_value>  (2) 
unknown

>  <frequency_units>  (2) 
unknown

>  <frequency_list>  (2) 
unknown

>  <arkane_path>  (2) 
/home/calvin/Dropbox/PersonalFolders/Calvin/HAb_Converged/rxn_711/output/Species/rxn_711_OO/arkane/output.py

>  <path_exists>  (2) 
True

>  <E0_value>  (2) 
-397869.6784032715

>  <E0_units>  (2) 
kJ/mol

>  <thermo_class>  (2) 
NASA

>  <Cp0_value>  (2) 
33.257888

>  <Cp0_units>  (2) 
J/(mol*K)

>  <CpInf_value>  (2) 
83.14472

>  <CpInf_units>  (2) 
J/(mol*K)

>  <Tmin_value>  (2) 
10.0

>  <Tmin_units>  (2) 
K

>  <Tmax_value>  (2) 
3000.0

>  <Tmax_units>  (2) 
K

>  <polynomials>  (2) 
[{"name": "polynomial1", "class": "NASAPolynomial", "Tmin_value": 10.0, "Tmin_units": "K", "Tmax_value": 455.78106288096404, "Tmax_units": "K", "coeffs": [3.993411036033662, 0.00039597769380578143, 1.891318343950514e-05, -3.2458663273975925e-08, 1.830389461818306e-11, -47852668.906908266, 4.504010200645888]}, {"name": "polynomial2", "class": "NASAPolynomial", "Tmin_value": 455.78106288096404, "Tmin_units": "K", "Tmax_value": 3000.0, "Tmax_units": "K", "coeffs": [3.1932894099772424, 0.0074090928900088, -4.13817425256861e-06, 1.2156565940750795e-09, -1.433593106081876e-13, -47852595.87875142, 7.736455149271243]}]

>  <H298_value>  (2) 
-95090.51348489316

>  <H298_units>  (2) 
kcal/mol

>  <S298_value>  (2) 
55.5670496873013

>  <S298_units>  (2) 
cal/(mol*K)

>  <Cp_T_value_list>  (2) 
[10.107465812395086, 11.06702468787646, 11.935737360557455, 12.7042208397447, 13.981643941817545, 14.976592388023054, 16.639120825815006, 17.666826111390996, 18.25874653130484]

>  <Cp_T_units>  (2) 
cal/(mol*K)

>  <T_list>  (2) 
[300.0, 400.0, 500.0, 600.0, 800.0, 1000.0, 1500.0, 2000.0, 2400.0]

>  <T_units>  (2) 
K

>  <yaml_path>  (2) 
/home/calvin/Dropbox/PersonalFolders/Calvin/HAb_Converged/rxn_711/output/Species/rxn_711_OO/rxn_711_OO.yml

>  <frequencies_cm1>  (2) 
[384.68165064108, 1007.86056843108, 1337.5514006295998, 1458.46527814416, 3787.7329647175193, 3788.3509933963196]

>  <ZPE_kJmol>  (2) 
70.36821125363778

>  <E_elec_kJmol>  (2) 
-397940.04661452514

>  <E0_minus_Eelec_plus_ZPE_kJmol>  (2) 
0.0

>  <rxn>  (2) 
rxn_711

>  <species_type>  (2) 
p0

>  <species_folder>  (2) 
rxn_711_OO

>  <frequencies_cm1_list>  (2) 
[384.68165064108, 1007.86056843108, 1337.5514006295998, 1458.46527814416, 3787.7329647175193, 3788.3509933963196]

>  <E0_kJmol>  (2) 
-397870

>  <H298_kJmol>  (2) 
-397859

$$$$

     RDKit          3D

  8  6  0  0  0  0  0  0  0  0999 V2000
    0.5293    1.0757    0.4932 O   0  0  0  0  0  1  0  0  0  1  0  0
   -0.3590    1.3561   -0.5167 O   0  0  0  0  0  0  0  0  0  2  0  0
   -1.1441    1.6751   -0.0526 H   0  0  0  0  0  0  0  0  0  3  0  0
   -0.0760   -1.2876    0.4871 N   0  0  0  0  0  0  0  0  0  4  0  0
    0.0924   -1.5197   -0.8573 O   0  0  0  0  0  0  0  0  0  5  0  0
    0.2082   -0.2083    0.6870 H   0  0  0  0  0  0  0  0  0  6  0  0
    0.6257   -1.8888    0.9144 H   0  0  0  0  0  0  0  0  0  7  0  0
   -0.5087   -0.8979   -1.2834 H   0  0  0  0  0  0  0  0  0  8  0  0
  1  2  1  0
  2  3  1  0
  4  6  1  0
  4  7  1  0
  4  5  1  0
  5  8  1  0
M  RAD  1   1   2
M  END
>  <rmg_smiles>  (3) 
[O]O.NO

>  <rmg_adjacency_list>  (3) 
multiplicity 2
1 O u0 p2 c0 {4,S} {7,S}
2 O u0 p2 c0 {3,S} {8,S}
3 O u1 p2 c0 {2,S}
4 N u0 p1 c0 {1,S} {5,S} {6,S}
5 H u0 p0 c0 {4,S}
6 H u0 p0 c0 {4,S}
7 H u0 p0 c0 {1,S}
8 H u0 p0 c0 {2,S}


>  <multiplicity>  (3) 
2

>  <reaction>  (3) 
rxn_711

>  <type>  (3) 
ts

>  <role_mapnums>  (3) 
{"*2": 6, "*1": 4, "*3": 1, "*0": 5, "*4": 2}

>  <role_mapidx>  (3) 
{"*2": 5, "*1": 3, "*3": 0, "*0": 4, "*4": 1}

>  <ordered_mapped_smiles>  (3) 
[O:1][O:2][H:3].[N:4]([O:5][H:8])([H:6])[H:7]

>  <mol_properties>  (3) 
{"0": {"label": "*3", "atom_type": "O2s"}, "1": {"label": "*4", "atom_type": "O2s"}, "3": {"label": "*1", "atom_type": "N3s"}, "4": {"label": "*0", "atom_type": "O2s"}, "5": {"label": "*2", "atom_type": "H0"}}

>  <level_of_theory>  (3) 
wb97xd/def2tzvp

>  <lot_method>  (3) 
wb97xd

>  <lot_basis>  (3) 
def2tzvp

>  <spin_multiplicity>  (3) 
2.0

>  <optical_isomers>  (3) 
2.0

>  <modes>  (3) 
IdealGasTranslation(mass=(66.0191, 'amu')),         NonlinearRotor(             inertia = ([33.441, 121.674, 143.263

>  <frequency_value>  (3) 
-1430.07

>  <frequency_units>  (3) 
cm^-1

>  <frequency_list>  (3) 
unknown

>  <arkane_path>  (3) 
/home/calvin/Dropbox/PersonalFolders/Calvin/HAb_Converged/rxn_711/output/rxns/TS0/arkane/output.py

>  <path_exists>  (3) 
True

>  <E0_value>  (3) 
-741935.0

>  <E0_units>  (3) 
kJ/mol

>  <thermo_class>  (3) 
unknown

>  <Cp0_value>  (3) 
unknown

>  <Cp0_units>  (3) 
unknown

>  <CpInf_value>  (3) 
unknown

>  <CpInf_units>  (3) 
unknown

>  <Tmin_value>  (3) 
unknown

>  <Tmin_units>  (3) 
unknown

>  <Tmax_value>  (3) 
unknown

>  <Tmax_units>  (3) 
unknown

>  <polynomials>  (3) 
unknown

>  <H298_value>  (3) 
unknown

>  <H298_units>  (3) 
unknown

>  <S298_value>  (3) 
unknown

>  <S298_units>  (3) 
unknown

>  <Cp_T_value_list>  (3) 
unknown

>  <Cp_T_units>  (3) 
unknown

>  <T_list>  (3) 
unknown

>  <T_units>  (3) 
unknown

>  <yaml_path>  (3) 
unknown

>  <frequencies_cm1>  (3) 
unknown

>  <ZPE_kJmol>  (3) 
unknown

>  <E_elec_kJmol>  (3) 
unknown

>  <E0_minus_Eelec_plus_ZPE_kJmol>  (3) 
unknown

>  <rxn>  (3) 
unknown

>  <species_type>  (3) 
unknown

>  <species_folder>  (3) 
unknown

>  <frequencies_cm1_list>  (3) 
[]

>  <ts_imag_freq_cm1>  (3) 
-1447.4421

>  <ts_freq_out_path>  (3) 
/home/calvin/Dropbox/PersonalFolders/Calvin/HAb_Converged/rxn_711/output/rxns/TS0/geometry/freq.out

>  <E0_kJmol>  (3) 
-741935

>  <H298_kJmol>  (3) 
unknown

$$$$

     RDKit          3D

  4  3  0  0  0  0  0  0  0  0999 V2000
   -0.4945    0.4517   -0.1525 N   0  0  0  0  0  2  0  0  0  1  0  0
    0.5044   -0.4127    0.1428 O   0  0  0  0  0  0  0  0  0  2  0  0
   -1.3182   -0.1483   -0.0488 H   0  0  0  0  0  0  0  0  0  3  0  0
    1.3083    0.1093    0.0584 H   0  0  0  0  0  0  0  0  0  4  0  0
  1  3  1  0
  1  2  1  0
  2  4  1  0
M  RAD  1   1   2
M  END
>  <rmg_smiles>  (4) 
[NH]O

>  <rmg_adjacency_list>  (4) 
multiplicity 2
1 O u0 p2 c0 {2,S} {4,S}
2 N u1 p1 c0 {1,S} {3,S}
3 H u0 p0 c0 {2,S}
4 H u0 p0 c0 {1,S}


>  <multiplicity>  (4) 
2

>  <reaction>  (4) 
rxn_711

>  <type>  (4) 
r1

>  <role_mapnums>  (4) 
{}

>  <role_mapidx>  (4) 
{}

>  <ordered_mapped_smiles>  (4) 
[N:1]([O:2][H:4])[H:3]

>  <level_of_theory>  (4) 
wb97xd/def2tzvp

>  <lot_method>  (4) 
wb97xd

>  <lot_basis>  (4) 
def2tzvp

>  <spin_multiplicity>  (4) 
2.0

>  <optical_isomers>  (4) 
1.0

>  <modes>  (4) 
IdealGasTranslation(mass=(32.0136, 'amu')),         NonlinearRotor(             inertia = ([1.66475, 15.5349, 17.1996

>  <frequency_value>  (4) 
unknown

>  <frequency_units>  (4) 
unknown

>  <frequency_list>  (4) 
unknown

>  <arkane_path>  (4) 
/home/calvin/Dropbox/PersonalFolders/Calvin/HAb_Converged/rxn_711/output/Species/rxn_711_[NH]O/arkane/output.py

>  <path_exists>  (4) 
True

>  <E0_value>  (4) 
-344104.364716544

>  <E0_units>  (4) 
kJ/mol

>  <thermo_class>  (4) 
NASA

>  <Cp0_value>  (4) 
33.257888

>  <Cp0_units>  (4) 
J/(mol*K)

>  <CpInf_value>  (4) 
83.14472

>  <CpInf_units>  (4) 
J/(mol*K)

>  <Tmin_value>  (4) 
10.0

>  <Tmin_units>  (4) 
K

>  <Tmax_value>  (4) 
3000.0

>  <Tmax_units>  (4) 
K

>  <polynomials>  (4) 
[{"name": "polynomial1", "class": "NASAPolynomial", "Tmin_value": 10.0, "Tmin_units": "K", "Tmax_value": 700.3876021437924, "Tmax_units": "K", "coeffs": [4.047552620815728, -0.003405992405267237, 2.7242610023131013e-05, -3.5292932022578195e-08, 1.5168128012530985e-11, -41386196.56416605, 5.055805682068392]}, {"name": "polynomial2", "class": "NASAPolynomial", "Tmin_value": 700.3876021437924, "Tmin_units": "K", "Tmax_value": 3000.0, "Tmax_units": "K", "coeffs": [2.561921259009547, 0.00821088729137539, -4.345189427137125e-06, 1.159323251627276e-09, -1.225269391277539e-13, -41386065.285881944, 11.145604869642245]}]

>  <H298_value>  (4) 
-82240.46903766933

>  <H298_units>  (4) 
kcal/mol

>  <S298_value>  (4) 
55.69804104467101

>  <S298_units>  (4) 
cal/(mol*K)

>  <Cp_T_value_list>  (4) 
[9.235626617025511, 10.28087183302707, 11.310385359294942, 12.228896920124146, 13.698005837318021, 14.833334879753583, 16.6806100374413, 17.720105418063792, 18.284474831928055]

>  <Cp_T_units>  (4) 
cal/(mol*K)

>  <T_list>  (4) 
[300.0, 400.0, 500.0, 600.0, 800.0, 1000.0, 1500.0, 2000.0, 2400.0]

>  <T_units>  (4) 
K

>  <yaml_path>  (4) 
/home/calvin/Dropbox/PersonalFolders/Calvin/HAb_Converged/rxn_711/output/Species/rxn_711_[NH]O/rxn_711_NHO.yml

>  <frequencies_cm1>  (4) 
[743.7975149358, 1159.9986281956799, 1270.66009662748, 1569.2091503998, 3380.69240987452, 3791.25572818668]

>  <ZPE_kJmol>  (4) 
71.27121666474788

>  <E_elec_kJmol>  (4) 
-344175.63593320874

>  <E0_minus_Eelec_plus_ZPE_kJmol>  (4) 
0.0

>  <rxn>  (4) 
rxn_711

>  <species_type>  (4) 
p1

>  <species_folder>  (4) 
rxn_711_[NH]O

>  <frequencies_cm1_list>  (4) 
[743.7975149358, 1159.9986281956799, 1270.66009662748, 1569.2091503998, 3380.69240987452, 3791.25572818668]

>  <E0_kJmol>  (4) 
-344104

>  <H298_kJmol>  (4) 
-344094

$$$$

     RDKit          3D

  3  2  0  0  0  0  0  0  0  0999 V2000
    0.9943   -0.1797    0.0000 O   0  0  0  0  0  1  0  0  0  1  0  0
   -0.1595    0.4394    0.0000 O   0  0  0  0  0  0  0  0  0  2  0  0
   -0.8348   -0.2597    0.0000 H   0  0  0  0  0  0  0  0  0  3  0  0
  1  2  1  0
  2  3  1  0
M  RAD  1   1   2
M  END
>  <rmg_smiles>  (5) 
[O]O

>  <rmg_adjacency_list>  (5) 
multiplicity 2
1 O u1 p2 c0 {2,S}
2 O u0 p2 c0 {1,S} {3,S}
3 H u0 p0 c0 {2,S}


>  <multiplicity>  (5) 
2

>  <reaction>  (5) 
rxn_711

>  <type>  (5) 
r2

>  <role_mapnums>  (5) 
{}

>  <role_mapidx>  (5) 
{}

>  <ordered_mapped_smiles>  (5) 
[O:1][O:2][H:3]

>  <level_of_theory>  (5) 
wb97xd/def2tzvp

>  <lot_method>  (5) 
wb97xd

>  <lot_basis>  (5) 
def2tzvp

>  <spin_multiplicity>  (5) 
2.0

>  <optical_isomers>  (5) 
1.0

>  <modes>  (5) 
IdealGasTranslation(mass=(32.9977, 'amu')),         NonlinearRotor(             inertia = ([0.803517, 14.5889, 15.3924

>  <frequency_value>  (5) 
unknown

>  <frequency_units>  (5) 
unknown

>  <frequency_list>  (5) 
unknown

>  <arkane_path>  (5) 
/home/calvin/Dropbox/PersonalFolders/Calvin/HAb_Converged/rxn_711/output/Species/rxn_711_[O]O/arkane/output.py

>  <path_exists>  (5) 
True

>  <E0_value>  (5) 
-396214.7927695905

>  <E0_units>  (5) 
kJ/mol

>  <thermo_class>  (5) 
NASA

>  <Cp0_value>  (5) 
33.257888

>  <Cp0_units>  (5) 
J/(mol*K)

>  <CpInf_value>  (5) 
58.201304

>  <CpInf_units>  (5) 
J/(mol*K)

>  <Tmin_value>  (5) 
10.0

>  <Tmin_units>  (5) 
K

>  <Tmax_value>  (5) 
3000.0

>  <Tmax_units>  (5) 
K

>  <polynomials>  (5) 
[{"name": "polynomial1", "class": "NASAPolynomial", "Tmin_value": 10.0, "Tmin_units": "K", "Tmax_value": 938.1901641883775, "Tmax_units": "K", "coeffs": [4.028900763568748, -0.0017001850192041605, 1.0116513729421136e-05, -1.0102502975955476e-08, 3.2943616799556636e-12, -47653633.38795187, 4.661311963627797]}, {"name": "polynomial2", "class": "NASAPolynomial", "Tmin_value": 938.1901641883775, "Tmin_units": "K", "Tmax_value": 3000.0, "Tmax_units": "K", "coeffs": [3.0224709900106443, 0.00428209217697721, -2.152234978217665e-06, 5.370565329041951e-10, -5.2799153043016775e-14, -47653518.97920004, 9.055842364041489]}]

>  <H298_value>  (5) 
-94695.23338060976

>  <H298_units>  (5) 
kcal/mol

>  <S298_value>  (5) 
54.59701487407024

>  <S298_units>  (5) 
cal/(mol*K)

>  <Cp_T_value_list>  (5) 
[8.312978103030632, 8.754130351990018, 9.242540000567846, 9.728455522252242, 10.572357002256187, 11.201059485179156, 12.218042363471625, 12.776508208459937, 13.066159106759592]

>  <Cp_T_units>  (5) 
cal/(mol*K)

>  <T_list>  (5) 
[300.0, 400.0, 500.0, 600.0, 800.0, 1000.0, 1500.0, 2000.0, 2400.0]

>  <T_units>  (5) 
K

>  <yaml_path>  (5) 
/home/calvin/Dropbox/PersonalFolders/Calvin/HAb_Converged/rxn_711/output/Species/rxn_711_[O]O/rxn_711_OO.yml

>  <frequencies_cm1>  (5) 
[1229.25217514788, 1446.77766912952, 3624.6283293968795]

>  <ZPE_kJmol>  (5) 
37.68631575394318

>  <E_elec_kJmol>  (5) 
-396252.4790853445

>  <E0_minus_Eelec_plus_ZPE_kJmol>  (5) 
0.0

>  <rxn>  (5) 
rxn_711

>  <species_type>  (5) 
r0

>  <species_folder>  (5) 
rxn_711_[O]O

>  <frequencies_cm1_list>  (5) 
[1229.25217514788, 1446.77766912952, 3624.6283293968795]

>  <E0_kJmol>  (5) 
-396215

>  <H298_kJmol>  (5) 
-396205

$$$$
