
     RDKit          3D

 14 13  0  0  0  0  0  0  0  0999 V2000
    0.0685   -0.2908   -1.4345 C   0  0  0  0  0  0  0  0  0  1  0  0
    0.2221   -0.1866    0.0672 C   0  0  0  0  0  0  0  0  0  2  0  0
    0.7002    1.1707    0.5343 C   0  0  0  0  0  0  0  0  0  3  0  0
   -0.9721   -0.7077    0.8382 C   0  0  0  0  0  0  0  0  0  4  0  0
    0.9852    0.0039   -1.9494 H   0  0  0  0  0  0  0  0  0  5  0  0
   -0.7327    0.3712   -1.7814 H   0  0  0  0  0  0  0  0  0  6  0  0
   -0.1820   -1.3086   -1.7366 H   0  0  0  0  0  0  0  0  0  7  0  0
    1.0184   -0.8857    0.3224 H   0  0  0  0  0  0  0  0  0  8  0  0
   -0.0649    1.9302    0.3391 H   0  0  0  0  0  0  0  0  0  9  0  0
    0.9058    1.1709    1.6060 H   0  0  0  0  0  0  0  0  0 10  0  0
    1.6079    1.4761    0.0099 H   0  0  0  0  0  0  0  0  0 11  0  0
   -1.2205   -1.7272    0.5397 H   0  0  0  0  0  0  0  0  0 12  0  0
   -1.8487   -0.0783    0.6479 H   0  0  0  0  0  0  0  0  0 13  0  0
   -0.7819   -0.7023    1.9124 H   0  0  0  0  0  0  0  0  0 14  0  0
  1  5  1  0
  1  7  1  0
  1  6  1  0
  1  2  1  0
  2  8  1  0
  2  3  1  0
  2  4  1  0
  3 11  1  0
  3  9  1  0
  3 10  1  0
  4 14  1  0
  4 13  1  0
  4 12  1  0
M  END
>  <rmg_smiles>  (1) 
CC(C)C

>  <rmg_adjacency_list>  (1) 
1  C u0 p0 c0 {2,S} {3,S} {4,S} {5,S}
2  C u0 p0 c0 {1,S} {6,S} {7,S} {8,S}
3  C u0 p0 c0 {1,S} {9,S} {10,S} {11,S}
4  C u0 p0 c0 {1,S} {12,S} {13,S} {14,S}
5  H u0 p0 c0 {1,S}
6  H u0 p0 c0 {2,S}
7  H u0 p0 c0 {2,S}
8  H u0 p0 c0 {2,S}
9  H u0 p0 c0 {3,S}
10 H u0 p0 c0 {3,S}
11 H u0 p0 c0 {3,S}
12 H u0 p0 c0 {4,S}
13 H u0 p0 c0 {4,S}
14 H u0 p0 c0 {4,S}


>  <multiplicity>  (1) 
1

>  <reaction>  (1) 
rxn_301

>  <type>  (1) 
r1h

>  <role_mapnums>  (1) 
{"r1h_a": 2, "r1h_h": 8}

>  <role_mapidx>  (1) 
{"r1h_a": 1, "r1h_h": 7}

>  <ordered_mapped_smiles>  (1) 
[C:1]([C:2]([C:3]([H:9])([H:10])[H:11])([C:4]([H:12])([H:13])[H:14])[H:8])([H:5])([H:6])[H:7]

>  <mol_properties>  (1) 
{"1": {"label": "donator", "atom_type": "Cs"}, "7": {"label": "d_hydrogen", "atom_type": "H0"}}

>  <level_of_theory>  (1) 
wb97xd/def2tzvp

>  <lot_method>  (1) 
wb97xd

>  <lot_basis>  (1) 
def2tzvp

>  <spin_multiplicity>  (1) 
1.0

>  <optical_isomers>  (1) 
1.0

>  <modes>  (1) 
IdealGasTranslation(mass=(58.0782, 'amu')),         NonlinearRotor(             inertia = ([64.4719, 64.4727, 111.215

>  <frequency_value>  (1) 
unknown

>  <frequency_units>  (1) 
unknown

>  <frequency_list>  (1) 
unknown

>  <arkane_path>  (1) 
/home/calvin/Dropbox/PersonalFolders/Calvin/HAb_Converged/rxn_301/output/Species/rxn_301_CC[C]C/arkane/output.py

>  <path_exists>  (1) 
True

>  <E0_value>  (1) 
-415716.85601460224

>  <E0_units>  (1) 
kJ/mol

>  <thermo_class>  (1) 
NASA

>  <Cp0_value>  (1) 
33.257888

>  <Cp0_units>  (1) 
J/(mol*K)

>  <CpInf_value>  (1) 
332.57888

>  <CpInf_units>  (1) 
J/(mol*K)

>  <Tmin_value>  (1) 
10.0

>  <Tmin_units>  (1) 
K

>  <Tmax_value>  (1) 
3000.0

>  <Tmax_units>  (1) 
K

>  <polynomials>  (1) 
[{"name": "polynomial1", "class": "NASAPolynomial", "Tmin_value": 10.0, "Tmin_units": "K", "Tmax_value": 537.4636465477513, "Tmax_units": "K", "coeffs": [3.8631410559241393, 0.009526702443000475, 8.525216683950647e-05, -1.318501275153013e-07, 6.385822116048466e-11, -49999184.428024165, 7.557948238073656]}, {"name": "polynomial2", "class": "NASAPolynomial", "Tmin_value": 537.4636465477513, "Tmin_units": "K", "Tmax_value": 3000.0, "Tmax_units": "K", "coeffs": [-1.5249025120996877, 0.04962671793674608, -2.6663078154503674e-05, 6.969680988461766e-09, -7.138772388149672e-13, -49998605.255908996, 30.206707539820968]}]

>  <H298_value>  (1) 
-99354.53852971

>  <H298_units>  (1) 
kcal/mol

>  <S298_value>  (1) 
69.85780209810419

>  <S298_units>  (1) 
cal/(mol*K)

>  <Cp_T_value_list>  (1) 
[22.557069043630765, 28.83542159151243, 34.67557477072258, 39.873999364557164, 48.46433864952246, 55.034771955518956, 65.24380160373782, 70.37022696930816, 72.85899255153845]

>  <Cp_T_units>  (1) 
cal/(mol*K)

>  <T_list>  (1) 
[300.0, 400.0, 500.0, 600.0, 800.0, 1000.0, 1500.0, 2000.0, 2400.0]

>  <T_units>  (1) 
K

>  <yaml_path>  (1) 
/home/calvin/Dropbox/PersonalFolders/Calvin/HAb_Converged/rxn_301/output/Species/rxn_301_CC[C]C/rxn_301_CCCC.yml

>  <frequencies_cm1>  (1) 
[211.39327609087997, 262.68965643128, 263.77464011184, 368.88071741975995, 369.25840161236, 435.32566737608, 803.9866412655999, 924.90051878016, 925.09279436912, 953.15129638664, 976.23123404716, 976.3411058122799, 1191.0717367686798, 1191.09233772464, 1204.1396098326397, 1353.0707874528, 1353.18065921792, 1393.20144966288, 1393.482996061, 1417.36637100396, 1467.48849685464, 1474.0808027618398, 1474.2524773948398, 1492.55986025796, 1492.60106216988, 1500.9032474217597, 2997.87857924048, 2999.7807341741195, 2999.8700049832796, 3005.2262535328796, 3068.4780553153996, 3068.51925722732, 3077.2334615983996, 3079.2248873412, 3082.8163206635595, 3083.0360641937996]

>  <ZPE_kJmol>  (1) 
342.9191081494482

>  <E_elec_kJmol>  (1) 
-416059.77512275166

>  <E0_minus_Eelec_plus_ZPE_kJmol>  (1) 
0.0

>  <rxn>  (1) 
rxn_301

>  <species_type>  (1) 
r1

>  <species_folder>  (1) 
rxn_301_CC[C]C

>  <frequencies_cm1_list>  (1) 
[211.39327609087997, 262.68965643128, 263.77464011184, 368.88071741975995, 369.25840161236, 435.32566737608, 803.9866412655999, 924.90051878016, 925.09279436912, 953.15129638664, 976.23123404716, 976.3411058122799, 1191.0717367686798, 1191.09233772464, 1204.1396098326397, 1353.0707874528, 1353.18065921792, 1393.20144966288, 1393.482996061, 1417.36637100396, 1467.48849685464, 1474.0808027618398, 1474.2524773948398, 1492.55986025796, 1492.60106216988, 1500.9032474217597, 2997.87857924048, 2999.7807341741195, 2999.8700049832796, 3005.2262535328796, 3068.4780553153996, 3068.51925722732, 3077.2334615983996, 3079.2248873412, 3082.8163206635595, 3083.0360641937996]

>  <E0_kJmol>  (1) 
-415717

>  <H298_kJmol>  (1) 
-415699

$$$$

     RDKit          3D

  6  5  0  0  0  0  0  0  0  0999 V2000
    0.5942    0.3082   -0.2430 C   0  0  0  0  0  0  0  0  0  1  0  0
   -0.5230   -0.3467    0.2530 O   0  0  0  0  0  0  0  0  0  2  0  0
    1.4435   -0.3698   -0.0936 H   0  0  0  0  0  0  0  0  0  3  0  0
    0.8166    1.2416    0.2904 H   0  0  0  0  0  0  0  0  0  4  0  0
    0.5252    0.5123   -1.3199 H   0  0  0  0  0  0  0  0  0  5  0  0
   -1.2708    0.2271    0.0711 H   0  0  0  0  0  0  0  0  0  6  0  0
  1  5  1  0
  1  2  1  0
  1  4  1  0
  1  3  1  0
  2  6  1  0
M  END
>  <rmg_smiles>  (2) 
CO

>  <rmg_adjacency_list>  (2) 
1 C u0 p0 c0 {2,S} {3,S} {4,S} {5,S}
2 O u0 p2 c0 {1,S} {6,S}
3 H u0 p0 c0 {1,S}
4 H u0 p0 c0 {1,S}
5 H u0 p0 c0 {1,S}
6 H u0 p0 c0 {2,S}


>  <multiplicity>  (2) 
1

>  <reaction>  (2) 
rxn_301

>  <type>  (2) 
r2h

>  <role_mapnums>  (2) 
{"r2h_a": 2, "r2h_h": 6}

>  <role_mapidx>  (2) 
{"r2h_a": 1, "r2h_h": 5}

>  <ordered_mapped_smiles>  (2) 
[C:1]([O:2][H:6])([H:3])([H:4])[H:5]

>  <mol_properties>  (2) 
{"1": {"label": "acceptor", "atom_type": "O2s"}, "5": {"label": "a_hydrogen", "atom_type": "H0"}}

>  <level_of_theory>  (2) 
wb97xd/def2tzvp

>  <lot_method>  (2) 
wb97xd

>  <lot_basis>  (2) 
def2tzvp

>  <spin_multiplicity>  (2) 
1.0

>  <optical_isomers>  (2) 
1.0

>  <modes>  (2) 
IdealGasTranslation(mass=(32.0262, 'amu')),         NonlinearRotor(             inertia = ([3.92427, 20.1792, 20.9046

>  <frequency_value>  (2) 
unknown

>  <frequency_units>  (2) 
unknown

>  <frequency_list>  (2) 
unknown

>  <arkane_path>  (2) 
/home/calvin/Dropbox/PersonalFolders/Calvin/HAb_Converged/rxn_301/output/Species/rxn_301_CO/arkane/output.py

>  <path_exists>  (2) 
True

>  <E0_value>  (2) 
-303729.7991258424

>  <E0_units>  (2) 
kJ/mol

>  <thermo_class>  (2) 
NASA

>  <Cp0_value>  (2) 
33.257888

>  <Cp0_units>  (2) 
J/(mol*K)

>  <CpInf_value>  (2) 
133.031552

>  <CpInf_units>  (2) 
J/(mol*K)

>  <Tmin_value>  (2) 
10.0

>  <Tmin_units>  (2) 
K

>  <Tmax_value>  (2) 
3000.0

>  <Tmax_units>  (2) 
K

>  <polynomials>  (2) 
[{"name": "polynomial1", "class": "NASAPolynomial", "Tmin_value": 10.0, "Tmin_units": "K", "Tmax_value": 698.3341813253346, "Tmax_units": "K", "coeffs": [4.0215567421085705, -0.0013918275597151857, 3.088654492877698e-05, -3.5619840730823004e-08, 1.3319640500111606e-11, -36530257.7067979, 5.049565126331713]}, {"name": "polynomial2", "class": "NASAPolynomial", "Tmin_value": 698.3341813253346, "Tmin_units": "K", "Tmax_value": 3000.0, "Tmax_units": "K", "coeffs": [0.8030292187352491, 0.017044670475023747, -8.716711867271086e-06, 2.1896521783613246e-09, -2.167249261470434e-13, -36529808.21061414, 19.421281761974193]}]

>  <H298_value>  (2) 
-72590.49257555492

>  <H298_units>  (2) 
kcal/mol

>  <S298_value>  (2) 
56.892649290373726

>  <S298_units>  (2) 
cal/(mol*K)

>  <Cp_T_value_list>  (2) 
[10.989154390574786, 12.853223622326096, 14.759532412177741, 16.569240748625823, 19.65824435082755, 22.065772230460606, 25.93371928197072, 27.970212309601845, 28.976087551849815]

>  <Cp_T_units>  (2) 
cal/(mol*K)

>  <T_list>  (2) 
[300.0, 400.0, 500.0, 600.0, 800.0, 1000.0, 1500.0, 2000.0, 2400.0]

>  <T_units>  (2) 
K

>  <yaml_path>  (2) 
/home/calvin/Dropbox/PersonalFolders/Calvin/HAb_Converged/rxn_301/output/Species/rxn_301_CO/rxn_301_CO.yml

>  <frequencies_cm1>  (2) 
[308.3894437358799, 1061.07283767576, 1096.6987575159199, 1170.2098353665199, 1363.8038855079599, 1472.6044009180396, 1484.93063956744, 1497.8268379983997, 2973.4595794425595, 3026.27356353868, 3097.9030874116, 3862.39082911656]

>  <ZPE_kJmol>  (2) 
134.07488361253408

>  <E_elec_kJmol>  (2) 
-303863.8740094549

>  <E0_minus_Eelec_plus_ZPE_kJmol>  (2) 
0.0

>  <rxn>  (2) 
rxn_301

>  <species_type>  (2) 
p0

>  <species_folder>  (2) 
rxn_301_CO

>  <frequencies_cm1_list>  (2) 
[308.3894437358799, 1061.07283767576, 1096.6987575159199, 1170.2098353665199, 1363.8038855079599, 1472.6044009180396, 1484.93063956744, 1497.8268379983997, 2973.4595794425595, 3026.27356353868, 3097.9030874116, 3862.39082911656]

>  <E0_kJmol>  (2) 
-303730

>  <H298_kJmol>  (2) 
-303719

$$$$

     RDKit          3D

 19 17  0  0  0  0  0  0  0  0999 V2000
    2.2609   -0.7274   -0.0870 C   0  0  0  0  0  0  0  0  0  1  0  0
    1.1436   -1.3824    0.4090 O   0  0  0  0  0  1  0  0  0  2  0  0
    3.1102   -1.4054    0.0624 H   0  0  0  0  0  0  0  0  0  3  0  0
    2.4832    0.2059    0.4464 H   0  0  0  0  0  0  0  0  0  4  0  0
    2.1919   -0.5233   -1.1639 H   0  0  0  0  0  0  0  0  0  5  0  0
   -0.9343    0.0881   -1.6294 C   0  0  0  0  0  0  0  0  0  6  0  0
   -0.7808    0.1924   -0.1277 C   0  0  0  0  0  0  0  0  0  7  0  0
   -0.3027    1.5496    0.3395 C   0  0  0  0  0  0  0  0  0  8  0  0
   -1.9750   -0.3288    0.6434 C   0  0  0  0  0  0  0  0  0  9  0  0
   -0.0177    0.3828   -2.1442 H   0  0  0  0  0  0  0  0  0 10  0  0
   -1.7356    0.7501   -1.9762 H   0  0  0  0  0  0  0  0  0 11  0  0
   -1.1849   -0.9297   -1.9314 H   0  0  0  0  0  0  0  0  0 12  0  0
    0.1060   -0.5862    0.1566 H   0  0  0  0  0  0  0  0  0 13  0  0
   -1.0678    2.3091    0.1443 H   0  0  0  0  0  0  0  0  0 14  0  0
   -0.0971    1.5498    1.4112 H   0  0  0  0  0  0  0  0  0 15  0  0
    0.6050    1.8550   -0.1850 H   0  0  0  0  0  0  0  0  0 16  0  0
   -2.2233   -1.3483    0.3449 H   0  0  0  0  0  0  0  0  0 17  0  0
   -2.8516    0.3006    0.4531 H   0  0  0  0  0  0  0  0  0 18  0  0
   -1.7848   -0.3234    1.7176 H   0  0  0  0  0  0  0  0  0 19  0  0
  1  5  1  0
  1  4  1  0
  1  3  1  0
  1  2  1  0
  6 12  1  0
  6  7  1  0
  6 11  1  0
  6 10  1  0
  7 13  1  0
  7  9  1  0
  7  8  1  0
  8 14  1  0
  8 16  1  0
  8 15  1  0
  9 19  1  0
  9 17  1  0
  9 18  1  0
M  RAD  1   2   2
M  END
>  <rmg_smiles>  (3) 
CC(C)C.C[O]

>  <rmg_adjacency_list>  (3) 
multiplicity 2
1  O u1 p2 c0 {6,S}
2  C u0 p0 c0 {3,S} {4,S} {5,S} {7,S}
3  C u0 p0 c0 {2,S} {8,S} {9,S} {10,S}
4  C u0 p0 c0 {2,S} {11,S} {12,S} {13,S}
5  C u0 p0 c0 {2,S} {14,S} {15,S} {16,S}
6  C u0 p0 c0 {1,S} {17,S} {18,S} {19,S}
7  H u0 p0 c0 {2,S}
8  H u0 p0 c0 {3,S}
9  H u0 p0 c0 {3,S}
10 H u0 p0 c0 {3,S}
11 H u0 p0 c0 {4,S}
12 H u0 p0 c0 {4,S}
13 H u0 p0 c0 {4,S}
14 H u0 p0 c0 {5,S}
15 H u0 p0 c0 {5,S}
16 H u0 p0 c0 {5,S}
17 H u0 p0 c0 {6,S}
18 H u0 p0 c0 {6,S}
19 H u0 p0 c0 {6,S}


>  <multiplicity>  (3) 
2

>  <reaction>  (3) 
rxn_301

>  <type>  (3) 
ts

>  <role_mapnums>  (3) 
{"*2": 13, "*1": 7, "*3": 2, "*0": 6, "*4": 1}

>  <role_mapidx>  (3) 
{"*2": 12, "*1": 6, "*3": 1, "*0": 5, "*4": 0}

>  <ordered_mapped_smiles>  (3) 
[C:1]([O:2])([H:3])([H:4])[H:5].[C:6]([C:7]([C:8]([H:14])([H:15])[H:16])([C:9]([H:17])([H:18])[H:19])[H:13])([H:10])([H:11])[H:12]

>  <mol_properties>  (3) 
{"0": {"label": "*4", "atom_type": "Cs"}, "1": {"label": "*3", "atom_type": "O2s"}, "5": {"label": "*0", "atom_type": "Cs"}, "6": {"label": "*1", "atom_type": "Cs"}, "12": {"label": "*2", "atom_type": "H0"}}

>  <level_of_theory>  (3) 
wb97xd/def2tzvp

>  <lot_method>  (3) 
wb97xd

>  <lot_basis>  (3) 
def2tzvp

>  <spin_multiplicity>  (3) 
2.0

>  <optical_isomers>  (3) 
2.0

>  <modes>  (3) 
IdealGasTranslation(mass=(89.0966, 'amu')),         NonlinearRotor(             inertia = ([123.411, 269.211, 276.761

>  <frequency_value>  (3) 
-1126.46

>  <frequency_units>  (3) 
cm^-1

>  <frequency_list>  (3) 
unknown

>  <arkane_path>  (3) 
/home/calvin/Dropbox/PersonalFolders/Calvin/HAb_Converged/rxn_301/output/rxns/TS0/arkane/output.py

>  <path_exists>  (3) 
True

>  <E0_value>  (3) 
-717697.0

>  <E0_units>  (3) 
kJ/mol

>  <thermo_class>  (3) 
unknown

>  <Cp0_value>  (3) 
unknown

>  <Cp0_units>  (3) 
unknown

>  <CpInf_value>  (3) 
unknown

>  <CpInf_units>  (3) 
unknown

>  <Tmin_value>  (3) 
unknown

>  <Tmin_units>  (3) 
unknown

>  <Tmax_value>  (3) 
unknown

>  <Tmax_units>  (3) 
unknown

>  <polynomials>  (3) 
unknown

>  <H298_value>  (3) 
unknown

>  <H298_units>  (3) 
unknown

>  <S298_value>  (3) 
unknown

>  <S298_units>  (3) 
unknown

>  <Cp_T_value_list>  (3) 
unknown

>  <Cp_T_units>  (3) 
unknown

>  <T_list>  (3) 
unknown

>  <T_units>  (3) 
unknown

>  <yaml_path>  (3) 
unknown

>  <frequencies_cm1>  (3) 
unknown

>  <ZPE_kJmol>  (3) 
unknown

>  <E_elec_kJmol>  (3) 
unknown

>  <E0_minus_Eelec_plus_ZPE_kJmol>  (3) 
unknown

>  <rxn>  (3) 
unknown

>  <species_type>  (3) 
unknown

>  <species_folder>  (3) 
unknown

>  <frequencies_cm1_list>  (3) 
[]

>  <ts_imag_freq_cm1>  (3) 
-1140.1406

>  <ts_freq_out_path>  (3) 
/home/calvin/Dropbox/PersonalFolders/Calvin/HAb_Converged/rxn_301/output/rxns/TS0/geometry/freq.out

>  <E0_kJmol>  (3) 
-717697

>  <H298_kJmol>  (3) 
unknown

$$$$

     RDKit          3D

 13 12  0  0  0  0  0  0  0  0999 V2000
   -1.3649   -0.5965   -0.3478 C   0  0  0  0  0  0  0  0  0  1  0  0
   -0.1600   -0.2776    0.4668 C   0  0  0  0  0  3  0  0  0  2  0  0
    1.1241   -0.9571    0.1412 C   0  0  0  0  0  0  0  0  0  3  0  0
   -0.1187    1.0129    1.2084 C   0  0  0  0  0  0  0  0  0  4  0  0
   -1.4264   -1.6629   -0.5775 H   0  0  0  0  0  0  0  0  0  5  0  0
   -2.2858   -0.3006    0.1604 H   0  0  0  0  0  0  0  0  0  6  0  0
   -1.3535   -0.0661   -1.3137 H   0  0  0  0  0  0  0  0  0  7  0  0
    1.6170   -0.4968   -0.7303 H   0  0  0  0  0  0  0  0  0  8  0  0
    0.9722   -2.0106   -0.1060 H   0  0  0  0  0  0  0  0  0  9  0  0
    1.8341   -0.8973    0.9696 H   0  0  0  0  0  0  0  0  0 10  0  0
   -1.0849    1.2501    1.6602 H   0  0  0  0  0  0  0  0  0 11  0  0
    0.6364    1.0008    1.9980 H   0  0  0  0  0  0  0  0  0 12  0  0
    0.1336    1.8548    0.5437 H   0  0  0  0  0  0  0  0  0 13  0  0
  1  5  1  0
  1  7  1  0
  1  6  1  0
  1  2  1  0
  2  3  1  0
  2  4  1  0
  3  9  1  0
  3 10  1  0
  3  8  1  0
  4 13  1  0
  4 12  1  0
  4 11  1  0
M  RAD  1   2   2
M  END
>  <rmg_smiles>  (4) 
C[C](C)C

>  <rmg_adjacency_list>  (4) 
multiplicity 2
1  C u0 p0 c0 {4,S} {5,S} {6,S} {7,S}
2  C u0 p0 c0 {4,S} {8,S} {9,S} {10,S}
3  C u0 p0 c0 {4,S} {11,S} {12,S} {13,S}
4  C u1 p0 c0 {1,S} {2,S} {3,S}
5  H u0 p0 c0 {1,S}
6  H u0 p0 c0 {1,S}
7  H u0 p0 c0 {1,S}
8  H u0 p0 c0 {2,S}
9  H u0 p0 c0 {2,S}
10 H u0 p0 c0 {2,S}
11 H u0 p0 c0 {3,S}
12 H u0 p0 c0 {3,S}
13 H u0 p0 c0 {3,S}


>  <multiplicity>  (4) 
2

>  <reaction>  (4) 
rxn_301

>  <type>  (4) 
r1

>  <role_mapnums>  (4) 
{}

>  <role_mapidx>  (4) 
{}

>  <ordered_mapped_smiles>  (4) 
[C:1]([C:2]([C:3]([H:8])([H:9])[H:10])[C:4]([H:11])([H:12])[H:13])([H:5])([H:6])[H:7]

>  <level_of_theory>  (4) 
wb97xd/def2tzvp

>  <lot_method>  (4) 
wb97xd

>  <lot_basis>  (4) 
def2tzvp

>  <spin_multiplicity>  (4) 
2.0

>  <optical_isomers>  (4) 
1.0

>  <modes>  (4) 
IdealGasTranslation(mass=(57.0704, 'amu')),         NonlinearRotor(             inertia = ([62.7495, 62.7515, 115.63

>  <frequency_value>  (4) 
unknown

>  <frequency_units>  (4) 
unknown

>  <frequency_list>  (4) 
unknown

>  <arkane_path>  (4) 
/home/calvin/Dropbox/PersonalFolders/Calvin/HAb_Converged/rxn_301/output/Species/rxn_301_C[C][C]C/arkane/output.py

>  <path_exists>  (4) 
True

>  <E0_value>  (4) 
-414011.775976213

>  <E0_units>  (4) 
kJ/mol

>  <thermo_class>  (4) 
NASA

>  <Cp0_value>  (4) 
33.257888

>  <Cp0_units>  (4) 
J/(mol*K)

>  <CpInf_value>  (4) 
307.635464

>  <CpInf_units>  (4) 
J/(mol*K)

>  <Tmin_value>  (4) 
10.0

>  <Tmin_units>  (4) 
K

>  <Tmax_value>  (4) 
3000.0

>  <Tmax_units>  (4) 
K

>  <polynomials>  (4) 
[{"name": "polynomial1", "class": "NASAPolynomial", "Tmin_value": 10.0, "Tmin_units": "K", "Tmax_value": 464.89894160064034, "Tmax_units": "K", "coeffs": [3.6341281570188264, 0.03687025635783206, -8.226320828711274e-05, 2.1159183134316963e-07, -1.7704090391613334e-10, -49794114.58287564, 8.365480229919557]}, {"name": "polynomial2", "class": "NASAPolynomial", "Tmin_value": 464.89894160064034, "Tmin_units": "K", "Tmax_value": 3000.0, "Tmax_units": "K", "coeffs": [-0.49935003036080094, 0.04582679584246122, -2.5310663447630814e-05, 6.8112217268885035e-09, -7.170588320986092e-13, -49793442.71232524, 28.233653311292688]}]

>  <H298_value>  (4) 
-98946.56125093676

>  <H298_units>  (4) 
kcal/mol

>  <S298_value>  (4) 
75.35801825442938

>  <S298_units>  (4) 
cal/(mol*K)

>  <Cp_T_value_list>  (4) 
[22.992902160355566, 28.277446619578214, 33.56981695841171, 38.279919907980755, 46.017542745942905, 51.88784016530733, 60.90711212683843, 65.43557101667075, 67.69136082134565]

>  <Cp_T_units>  (4) 
cal/(mol*K)

>  <T_list>  (4) 
[300.0, 400.0, 500.0, 600.0, 800.0, 1000.0, 1500.0, 2000.0, 2400.0]

>  <T_units>  (4) 
K

>  <yaml_path>  (4) 
/home/calvin/Dropbox/PersonalFolders/Calvin/HAb_Converged/rxn_301/output/Species/rxn_301_C[C][C]C/rxn_301_CCCC.yml

>  <frequencies_cm1>  (4) 
[127.33450878876, 131.0220799056, 133.1851802814, 257.22353611656, 382.99923923768, 383.06104210556, 764.11692449768, 930.74432328748, 930.9915347589999, 964.3032805463199, 1004.5987504040801, 1004.6468193013199, 1087.99828711548, 1293.85677303844, 1293.8979749503599, 1387.4057140528, 1387.5979896417598, 1410.7740650967598, 1453.65838842016, 1456.7004629169198, 1457.00947725632, 1475.8524849743997, 1478.2147279244798, 1478.30399873364, 2923.8387435202394, 2924.09282197708, 2931.6396388437597, 3026.52764199552, 3027.4134831017996, 3028.4091959732004, 3072.5501776101596, 3076.3476204921194, 3077.10298887732]

>  <ZPE_kJmol>  (4) 
303.6327662053848

>  <E_elec_kJmol>  (4) 
-414315.4087424184

>  <E0_minus_Eelec_plus_ZPE_kJmol>  (4) 
0.0

>  <rxn>  (4) 
rxn_301

>  <species_type>  (4) 
p1

>  <species_folder>  (4) 
rxn_301_C[C][C]C

>  <frequencies_cm1_list>  (4) 
[127.33450878876, 131.0220799056, 133.1851802814, 257.22353611656, 382.99923923768, 383.06104210556, 764.11692449768, 930.74432328748, 930.9915347589999, 964.3032805463199, 1004.5987504040801, 1004.6468193013199, 1087.99828711548, 1293.85677303844, 1293.8979749503599, 1387.4057140528, 1387.5979896417598, 1410.7740650967598, 1453.65838842016, 1456.7004629169198, 1457.00947725632, 1475.8524849743997, 1478.2147279244798, 1478.30399873364, 2923.8387435202394, 2924.09282197708, 2931.6396388437597, 3026.52764199552, 3027.4134831017996, 3028.4091959732004, 3072.5501776101596, 3076.3476204921194, 3077.10298887732]

>  <E0_kJmol>  (4) 
-414012

>  <H298_kJmol>  (4) 
-413992

$$$$

     RDKit          3D

  5  4  0  0  0  0  0  0  0  0999 V2000
   -0.0419    0.0056   -0.0340 C   0  0  0  0  0  0  0  0  0  1  0  0
    1.3118    0.0049   -0.1263 O   0  0  0  0  0  1  0  0  0  2  0  0
   -0.2615   -0.1535    1.0387 H   0  0  0  0  0  0  0  0  0  3  0  0
   -0.4946    0.9694   -0.3042 H   0  0  0  0  0  0  0  0  0  4  0  0
   -0.5138   -0.8264   -0.5743 H   0  0  0  0  0  0  0  0  0  5  0  0
  1  3  1  0
  1  5  1  0
  1  2  1  0
  1  4  1  0
M  RAD  1   2   2
M  END
>  <rmg_smiles>  (5) 
C[O]

>  <rmg_adjacency_list>  (5) 
multiplicity 2
1 O u1 p2 c0 {2,S}
2 C u0 p0 c0 {1,S} {3,S} {4,S} {5,S}
3 H u0 p0 c0 {2,S}
4 H u0 p0 c0 {2,S}
5 H u0 p0 c0 {2,S}


>  <multiplicity>  (5) 
2

>  <reaction>  (5) 
rxn_301

>  <type>  (5) 
r2

>  <role_mapnums>  (5) 
{}

>  <role_mapidx>  (5) 
{}

>  <ordered_mapped_smiles>  (5) 
[C:1]([O:2])([H:3])([H:4])[H:5]

>  <level_of_theory>  (5) 
wb97xd/def2tzvp

>  <lot_method>  (5) 
wb97xd

>  <lot_basis>  (5) 
def2tzvp

>  <spin_multiplicity>  (5) 
2.0

>  <optical_isomers>  (5) 
1.0

>  <modes>  (5) 
IdealGasTranslation(mass=(31.0184, 'amu')),         NonlinearRotor(             inertia = ([3.20006, 17.856, 17.9799

>  <frequency_value>  (5) 
unknown

>  <frequency_units>  (5) 
unknown

>  <frequency_list>  (5) 
unknown

>  <arkane_path>  (5) 
/home/calvin/Dropbox/PersonalFolders/Calvin/HAb_Converged/rxn_301/output/Species/rxn_301_C[O]/arkane/output.py

>  <path_exists>  (5) 
True

>  <E0_value>  (5) 
-301997.4592851554

>  <E0_units>  (5) 
kJ/mol

>  <thermo_class>  (5) 
NASA

>  <Cp0_value>  (5) 
33.257888

>  <Cp0_units>  (5) 
J/(mol*K)

>  <CpInf_value>  (5) 
108.088136

>  <CpInf_units>  (5) 
J/(mol*K)

>  <Tmin_value>  (5) 
10.0

>  <Tmin_units>  (5) 
K

>  <Tmax_value>  (5) 
3000.0

>  <Tmax_units>  (5) 
K

>  <polynomials>  (5) 
[{"name": "polynomial1", "class": "NASAPolynomial", "Tmin_value": 10.0, "Tmin_units": "K", "Tmax_value": 768.059590281463, "Tmax_units": "K", "coeffs": [4.071530595134961, -0.004788435354785924, 3.764586588049544e-05, -4.4570288841214996e-08, 1.7325262676984235e-11, -36321906.564560294, 5.398160150516401]}, {"name": "polynomial2", "class": "NASAPolynomial", "Tmin_value": 768.059590281463, "Tmin_units": "K", "Tmax_value": 3000.0, "Tmax_units": "K", "coeffs": [1.2714120993677158, 0.01409244407723046, -7.621988648338685e-06, 2.0075663098769435e-09, -2.071485756081707e-13, -36321603.20761829, 17.34290408736705]}]

>  <H298_value>  (5) 
-72176.63877764504

>  <H298_units>  (5) 
kcal/mol

>  <S298_value>  (5) 
56.594931076735904

>  <S298_units>  (5) 
cal/(mol*K)

>  <Cp_T_value_list>  (5) 
[9.856672910231365, 11.467221282123814, 13.116203184295033, 14.644028256259237, 17.110484913261594, 18.96249130767302, 21.834332840501297, 23.279128428658893, 23.986630431674044]

>  <Cp_T_units>  (5) 
cal/(mol*K)

>  <T_list>  (5) 
[300.0, 400.0, 500.0, 600.0, 800.0, 1000.0, 1500.0, 2000.0, 2400.0]

>  <T_units>  (5) 
K

>  <yaml_path>  (5) 
/home/calvin/Dropbox/PersonalFolders/Calvin/HAb_Converged/rxn_301/output/Species/rxn_301_C[O]/rxn_301_CO.yml

>  <frequencies_cm1>  (5) 
[717.9227142500399, 959.00196787928, 1127.7649991035998, 1355.17895194604, 1359.9103048315199, 1501.9607631610397, 2892.6488961967993, 2963.9144698477603, 3005.7618783878397]

>  <ZPE_kJmol>  (5) 
95.00783418108908

>  <E_elec_kJmol>  (5) 
-302092.4671193365

>  <E0_minus_Eelec_plus_ZPE_kJmol>  (5) 
0.0

>  <rxn>  (5) 
rxn_301

>  <species_type>  (5) 
r0

>  <species_folder>  (5) 
rxn_301_C[O]

>  <frequencies_cm1_list>  (5) 
[717.9227142500399, 959.00196787928, 1127.7649991035998, 1355.17895194604, 1359.9103048315199, 1501.9607631610397, 2892.6488961967993, 2963.9144698477603, 3005.7618783878397]

>  <E0_kJmol>  (5) 
-301997

>  <H298_kJmol>  (5) 
-301987

$$$$
