
     RDKit          3D

  6  5  0  0  0  0  0  0  0  0999 V2000
    0.0007   -0.0116   -0.7194 C   0  0  0  0  0  0  0  0  0  1  0  0
   -0.0007   -0.0438    0.6724 O   0  0  0  0  0  0  0  0  0  2  0  0
    0.8995    0.4627   -1.1227 H   0  0  0  0  0  0  0  0  0  3  0  0
    0.0004   -1.0621   -1.0319 H   0  0  0  0  0  0  0  0  0  4  0  0
   -0.8970    0.4636   -1.1244 H   0  0  0  0  0  0  0  0  0  5  0  0
   -0.0006    0.8169    1.0976 H   0  0  0  0  0  0  0  0  0  6  0  0
  1  5  1  0
  1  4  1  0
  1  3  1  0
  1  2  1  0
  2  6  1  0
M  END
>  <rmg_smiles>  (1) 
CO

>  <rmg_adjacency_list>  (1) 
1 C u0 p0 c0 {2,S} {3,S} {4,S} {5,S}
2 O u0 p2 c0 {1,S} {6,S}
3 H u0 p0 c0 {1,S}
4 H u0 p0 c0 {1,S}
5 H u0 p0 c0 {1,S}
6 H u0 p0 c0 {2,S}


>  <multiplicity>  (1) 
1

>  <reaction>  (1) 
rxn_194

>  <type>  (1) 
r1h

>  <role_mapnums>  (1) 
{"r1h_a": 2, "r1h_h": 6}

>  <role_mapidx>  (1) 
{"r1h_a": 1, "r1h_h": 5}

>  <ordered_mapped_smiles>  (1) 
[C:1]([O:2][H:6])([H:3])([H:4])[H:5]

>  <mol_properties>  (1) 
{"1": {"label": "donator", "atom_type": "O2s"}, "5": {"label": "d_hydrogen", "atom_type": "H0"}}

>  <level_of_theory>  (1) 
wb97xd/def2tzvp

>  <lot_method>  (1) 
wb97xd

>  <lot_basis>  (1) 
def2tzvp

>  <spin_multiplicity>  (1) 
1.0

>  <optical_isomers>  (1) 
1.0

>  <modes>  (1) 
IdealGasTranslation(mass=(32.0262, 'amu')),         NonlinearRotor(             inertia = ([3.92427, 20.1792, 20.9046

>  <frequency_value>  (1) 
unknown

>  <frequency_units>  (1) 
unknown

>  <frequency_list>  (1) 
unknown

>  <arkane_path>  (1) 
/home/calvin/Dropbox/PersonalFolders/Calvin/HAb_Converged/rxn_194/output/Species/rxn_194_CO/arkane/output.py

>  <path_exists>  (1) 
True

>  <E0_value>  (1) 
-303729.7991258424

>  <E0_units>  (1) 
kJ/mol

>  <thermo_class>  (1) 
NASA

>  <Cp0_value>  (1) 
33.257888

>  <Cp0_units>  (1) 
J/(mol*K)

>  <CpInf_value>  (1) 
133.031552

>  <CpInf_units>  (1) 
J/(mol*K)

>  <Tmin_value>  (1) 
10.0

>  <Tmin_units>  (1) 
K

>  <Tmax_value>  (1) 
3000.0

>  <Tmax_units>  (1) 
K

>  <polynomials>  (1) 
[{"name": "polynomial1", "class": "NASAPolynomial", "Tmin_value": 10.0, "Tmin_units": "K", "Tmax_value": 698.3341813253346, "Tmax_units": "K", "coeffs": [4.0215567421085705, -0.0013918275597151857, 3.088654492877698e-05, -3.5619840730823004e-08, 1.3319640500111606e-11, -36530257.7067979, 5.049565126331713]}, {"name": "polynomial2", "class": "NASAPolynomial", "Tmin_value": 698.3341813253346, "Tmin_units": "K", "Tmax_value": 3000.0, "Tmax_units": "K", "coeffs": [0.8030292187352491, 0.017044670475023747, -8.716711867271086e-06, 2.1896521783613246e-09, -2.167249261470434e-13, -36529808.21061414, 19.421281761974193]}]

>  <H298_value>  (1) 
-72590.49257555492

>  <H298_units>  (1) 
kcal/mol

>  <S298_value>  (1) 
56.892649290373726

>  <S298_units>  (1) 
cal/(mol*K)

>  <Cp_T_value_list>  (1) 
[10.989154390574786, 12.853223622326096, 14.759532412177741, 16.569240748625823, 19.65824435082755, 22.065772230460606, 25.93371928197072, 27.970212309601845, 28.976087551849815]

>  <Cp_T_units>  (1) 
cal/(mol*K)

>  <T_list>  (1) 
[300.0, 400.0, 500.0, 600.0, 800.0, 1000.0, 1500.0, 2000.0, 2400.0]

>  <T_units>  (1) 
K

>  <yaml_path>  (1) 
/home/calvin/Dropbox/PersonalFolders/Calvin/HAb_Converged/rxn_194/output/Species/rxn_194_CO/rxn_194_CO.yml

>  <frequencies_cm1>  (1) 
[308.3894437358799, 1061.07283767576, 1096.6987575159199, 1170.2098353665199, 1363.8038855079599, 1472.6044009180396, 1484.93063956744, 1497.8268379983997, 2973.4595794425595, 3026.27356353868, 3097.9030874116, 3862.39082911656]

>  <ZPE_kJmol>  (1) 
134.07488361253408

>  <E_elec_kJmol>  (1) 
-303863.8740094549

>  <E0_minus_Eelec_plus_ZPE_kJmol>  (1) 
0.0

>  <rxn>  (1) 
rxn_194

>  <species_type>  (1) 
r0

>  <species_folder>  (1) 
rxn_194_CO

>  <frequencies_cm1_list>  (1) 
[308.3894437358799, 1061.07283767576, 1096.6987575159199, 1170.2098353665199, 1363.8038855079599, 1472.6044009180396, 1484.93063956744, 1497.8268379983997, 2973.4595794425595, 3026.27356353868, 3097.9030874116, 3862.39082911656]

>  <E0_kJmol>  (1) 
-303730

>  <H298_kJmol>  (1) 
-303719

$$$$

     RDKit          3D

  2  1  0  0  0  0  0  0  0  0999 V2000
   -0.0004   -0.8853   -0.0907 H   0  0  0  0  0  0  0  0  0  1  0  0
    0.0000    0.0697    0.0071 O   0  0  0  0  0  1  0  0  0  2  0  0
  1  2  1  0
M  RAD  1   2   2
M  END
>  <rmg_smiles>  (2) 
[OH]

>  <rmg_adjacency_list>  (2) 
multiplicity 2
1 H u0 p0 c0 {2,S}
2 O u1 p2 c0 {1,S}


>  <multiplicity>  (2) 
2

>  <reaction>  (2) 
rxn_194

>  <type>  (2) 
r2h

>  <role_mapnums>  (2) 
{"r2h_a": 2, "r2h_h": 1}

>  <role_mapidx>  (2) 
{"r2h_a": 1, "r2h_h": 0}

>  <ordered_mapped_smiles>  (2) 
[H:1][O:2]

>  <mol_properties>  (2) 
{"0": {"label": "a_hydrogen", "atom_type": "H0"}, "1": {"label": "acceptor", "atom_type": "O2s"}}

>  <level_of_theory>  (2) 
wb97xd/def2tzvp

>  <lot_method>  (2) 
wb97xd

>  <lot_basis>  (2) 
def2tzvp

>  <spin_multiplicity>  (2) 
2.0

>  <optical_isomers>  (2) 
1.0

>  <modes>  (2) 
IdealGasTranslation(mass=(17.0027, 'amu')),         LinearRotor(inertia=(0.893825, 'amu*angstrom^2'), symmetry=1),         HarmonicOscillator(frequencies=([3725.56

>  <frequency_value>  (2) 
unknown

>  <frequency_units>  (2) 
unknown

>  <frequency_list>  (2) 
unknown

>  <arkane_path>  (2) 
/home/calvin/Dropbox/PersonalFolders/Calvin/HAb_Converged/rxn_194/output/Species/rxn_194_[OH]/arkane/output.py

>  <path_exists>  (2) 
True

>  <E0_value>  (2) 
-198836.11065632655

>  <E0_units>  (2) 
kJ/mol

>  <thermo_class>  (2) 
NASA

>  <Cp0_value>  (2) 
29.100652

>  <Cp0_units>  (2) 
J/(mol*K)

>  <CpInf_value>  (2) 
37.415124

>  <CpInf_units>  (2) 
J/(mol*K)

>  <Tmin_value>  (2) 
10.0

>  <Tmin_units>  (2) 
K

>  <Tmax_value>  (2) 
3000.0

>  <Tmax_units>  (2) 
K

>  <polynomials>  (2) 
[{"name": "polynomial1", "class": "NASAPolynomial", "Tmin_value": 10.0, "Tmin_units": "K", "Tmax_value": 985.6459359324402, "Tmax_units": "K", "coeffs": [3.49686777077684, 0.00018334165413566602, -9.927422114975035e-07, 1.559335065614597e-09, -6.051175734082516e-13, -23914460.190127544, 1.4722271748407303]}, {"name": "polynomial2", "class": "NASAPolynomial", "Tmin_value": 985.6459359324402, "Tmin_units": "K", "Tmax_value": 3000.0, "Tmax_units": "K", "coeffs": [3.4538997471416084, -0.0002990851320361188, 7.409868333423891e-07, -2.8938793165350344e-10, 3.527321549332907e-14, -23914419.815793645, 1.8407453398243376]}]

>  <H298_value>  (2) 
-47520.895636098256

>  <H298_units>  (2) 
kcal/mol

>  <S298_value>  (2) 
42.56065351108258

>  <S298_units>  (2) 
cal/(mol*K)

>  <Cp_T_value_list>  (2) 
[6.95467440837288, 6.946622347988586, 6.950155535415497, 6.9708793647131895, 7.071890602250594, 7.236783548847422, 7.699190754845551, 8.085833580657471, 8.29452334304518]

>  <Cp_T_units>  (2) 
cal/(mol*K)

>  <T_list>  (2) 
[300.0, 400.0, 500.0, 600.0, 800.0, 1000.0, 1500.0, 2000.0, 2400.0]

>  <T_units>  (2) 
K

>  <yaml_path>  (2) 
/home/calvin/Dropbox/PersonalFolders/Calvin/HAb_Converged/rxn_194/output/Species/rxn_194_[OH]/rxn_194_OH.yml

>  <frequencies_cm1>  (2) 
[3725.55927963024]

>  <ZPE_kJmol>  (2) 
22.28379948603074

>  <E_elec_kJmol>  (2) 
-198858.3944558126

>  <E0_minus_Eelec_plus_ZPE_kJmol>  (2) 
0.0

>  <rxn>  (2) 
rxn_194

>  <species_type>  (2) 
p1

>  <species_folder>  (2) 
rxn_194_[OH]

>  <frequencies_cm1_list>  (2) 
[3725.55927963024]

>  <E0_kJmol>  (2) 
-198836

>  <H298_kJmol>  (2) 
-198827

$$$$

     RDKit          3D

  7  5  0  0  0  0  0  0  0  0999 V2000
    0.0003   -0.7221   -1.1976 C   0  0  0  0  0  0  0  0  0  1  0  0
   -0.0010   -0.7544    0.1942 O   0  0  0  0  0  0  0  0  0  2  0  0
    0.8992   -0.2479   -1.6010 H   0  0  0  0  0  0  0  0  0  3  0  0
    0.0001   -1.7727   -1.5101 H   0  0  0  0  0  0  0  0  0  4  0  0
   -0.8973   -0.2470   -1.6027 H   0  0  0  0  0  0  0  0  0  5  0  0
   -0.0010    0.2587    0.6947 H   0  0  0  0  0  0  0  0  0  6  0  0
   -0.0004    1.4354    0.8152 O   0  0  0  0  0 15  0  0  0  7  0  0
  1  5  1  0
  1  4  1  0
  1  3  1  0
  1  2  1  0
  2  6  1  0
M  END
>  <rmg_smiles>  (3) 
CO.[O]

>  <rmg_adjacency_list>  (3) 
multiplicity 3
1 O u0 p2 c0 {3,S} {7,S}
2 O u2 p3 c0
3 C u0 p0 c0 {1,S} {4,S} {5,S} {6,S}
4 H u0 p0 c0 {3,S}
5 H u0 p0 c0 {3,S}
6 H u0 p0 c0 {3,S}
7 H u0 p0 c0 {1,S}


>  <multiplicity>  (3) 
3

>  <reaction>  (3) 
rxn_194

>  <type>  (3) 
ts

>  <role_mapnums>  (3) 
{"*2": 6, "*1": 2, "*3": 7, "*0": 1, "*4": null}

>  <role_mapidx>  (3) 
{"*2": 5, "*1": 1, "*3": 6, "*0": 0}

>  <ordered_mapped_smiles>  (3) 
[C:1]([O:2][H:6])([H:3])([H:4])[H:5].[O:7]

>  <mol_properties>  (3) 
{"0": {"label": "*0", "atom_type": "Cs"}, "1": {"label": "*1", "atom_type": "O2s"}, "5": {"label": "*2", "atom_type": "H0"}, "6": {"label": "*3", "atom_type": "Oa"}}

>  <level_of_theory>  (3) 
wb97xd/def2tzvp

>  <lot_method>  (3) 
wb97xd

>  <lot_basis>  (3) 
def2tzvp

>  <spin_multiplicity>  (3) 
3.0

>  <optical_isomers>  (3) 
1.0

>  <modes>  (3) 
IdealGasTranslation(mass=(48.0211, 'amu')),         NonlinearRotor(             inertia = ([14.2139, 77.0052, 87.9664

>  <frequency_value>  (3) 
-1739.12

>  <frequency_units>  (3) 
cm^-1

>  <frequency_list>  (3) 
unknown

>  <arkane_path>  (3) 
/home/calvin/Dropbox/PersonalFolders/Calvin/HAb_Converged/rxn_194/output/rxns/TS0/arkane/output.py

>  <path_exists>  (3) 
True

>  <E0_value>  (3) 
-500813.0

>  <E0_units>  (3) 
kJ/mol

>  <thermo_class>  (3) 
unknown

>  <Cp0_value>  (3) 
unknown

>  <Cp0_units>  (3) 
unknown

>  <CpInf_value>  (3) 
unknown

>  <CpInf_units>  (3) 
unknown

>  <Tmin_value>  (3) 
unknown

>  <Tmin_units>  (3) 
unknown

>  <Tmax_value>  (3) 
unknown

>  <Tmax_units>  (3) 
unknown

>  <polynomials>  (3) 
unknown

>  <H298_value>  (3) 
unknown

>  <H298_units>  (3) 
unknown

>  <S298_value>  (3) 
unknown

>  <S298_units>  (3) 
unknown

>  <Cp_T_value_list>  (3) 
unknown

>  <Cp_T_units>  (3) 
unknown

>  <T_list>  (3) 
unknown

>  <T_units>  (3) 
unknown

>  <yaml_path>  (3) 
unknown

>  <frequencies_cm1>  (3) 
unknown

>  <ZPE_kJmol>  (3) 
unknown

>  <E_elec_kJmol>  (3) 
unknown

>  <E0_minus_Eelec_plus_ZPE_kJmol>  (3) 
unknown

>  <rxn>  (3) 
unknown

>  <species_type>  (3) 
unknown

>  <species_folder>  (3) 
unknown

>  <frequencies_cm1_list>  (3) 
[]

>  <ts_imag_freq_cm1>  (3) 
-1760.2386

>  <ts_freq_out_path>  (3) 
/home/calvin/Dropbox/PersonalFolders/Calvin/HAb_Converged/rxn_194/output/rxns/TS0/geometry/freq.out

>  <E0_kJmol>  (3) 
-500813

>  <H298_kJmol>  (3) 
unknown

$$$$

     RDKit          3D

  5  4  0  0  0  0  0  0  0  0999 V2000
   -0.0419    0.0056   -0.0340 C   0  0  0  0  0  0  0  0  0  1  0  0
    1.3118    0.0049   -0.1263 O   0  0  0  0  0  1  0  0  0  2  0  0
   -0.2615   -0.1535    1.0387 H   0  0  0  0  0  0  0  0  0  3  0  0
   -0.4946    0.9694   -0.3042 H   0  0  0  0  0  0  0  0  0  4  0  0
   -0.5138   -0.8264   -0.5743 H   0  0  0  0  0  0  0  0  0  5  0  0
  1  3  1  0
  1  5  1  0
  1  2  1  0
  1  4  1  0
M  RAD  1   2   2
M  END
>  <rmg_smiles>  (4) 
C[O]

>  <rmg_adjacency_list>  (4) 
multiplicity 2
1 O u1 p2 c0 {2,S}
2 C u0 p0 c0 {1,S} {3,S} {4,S} {5,S}
3 H u0 p0 c0 {2,S}
4 H u0 p0 c0 {2,S}
5 H u0 p0 c0 {2,S}


>  <multiplicity>  (4) 
2

>  <reaction>  (4) 
rxn_194

>  <type>  (4) 
r1

>  <role_mapnums>  (4) 
{}

>  <role_mapidx>  (4) 
{}

>  <ordered_mapped_smiles>  (4) 
[C:1]([O:2])([H:3])([H:4])[H:5]

>  <level_of_theory>  (4) 
wb97xd/def2tzvp

>  <lot_method>  (4) 
wb97xd

>  <lot_basis>  (4) 
def2tzvp

>  <spin_multiplicity>  (4) 
2.0

>  <optical_isomers>  (4) 
1.0

>  <modes>  (4) 
IdealGasTranslation(mass=(31.0184, 'amu')),         NonlinearRotor(             inertia = ([3.20006, 17.856, 17.9799

>  <frequency_value>  (4) 
unknown

>  <frequency_units>  (4) 
unknown

>  <frequency_list>  (4) 
unknown

>  <arkane_path>  (4) 
/home/calvin/Dropbox/PersonalFolders/Calvin/HAb_Converged/rxn_194/output/Species/rxn_194_C[O]/arkane/output.py

>  <path_exists>  (4) 
True

>  <E0_value>  (4) 
-301997.4592851554

>  <E0_units>  (4) 
kJ/mol

>  <thermo_class>  (4) 
NASA

>  <Cp0_value>  (4) 
33.257888

>  <Cp0_units>  (4) 
J/(mol*K)

>  <CpInf_value>  (4) 
108.088136

>  <CpInf_units>  (4) 
J/(mol*K)

>  <Tmin_value>  (4) 
10.0

>  <Tmin_units>  (4) 
K

>  <Tmax_value>  (4) 
3000.0

>  <Tmax_units>  (4) 
K

>  <polynomials>  (4) 
[{"name": "polynomial1", "class": "NASAPolynomial", "Tmin_value": 10.0, "Tmin_units": "K", "Tmax_value": 768.059590281463, "Tmax_units": "K", "coeffs": [4.071530595134961, -0.004788435354785924, 3.764586588049544e-05, -4.4570288841214996e-08, 1.7325262676984235e-11, -36321906.564560294, 5.398160150516401]}, {"name": "polynomial2", "class": "NASAPolynomial", "Tmin_value": 768.059590281463, "Tmin_units": "K", "Tmax_value": 3000.0, "Tmax_units": "K", "coeffs": [1.2714120993677158, 0.01409244407723046, -7.621988648338685e-06, 2.0075663098769435e-09, -2.071485756081707e-13, -36321603.20761829, 17.34290408736705]}]

>  <H298_value>  (4) 
-72176.63877764504

>  <H298_units>  (4) 
kcal/mol

>  <S298_value>  (4) 
56.594931076735904

>  <S298_units>  (4) 
cal/(mol*K)

>  <Cp_T_value_list>  (4) 
[9.856672910231365, 11.467221282123814, 13.116203184295033, 14.644028256259237, 17.110484913261594, 18.96249130767302, 21.834332840501297, 23.279128428658893, 23.986630431674044]

>  <Cp_T_units>  (4) 
cal/(mol*K)

>  <T_list>  (4) 
[300.0, 400.0, 500.0, 600.0, 800.0, 1000.0, 1500.0, 2000.0, 2400.0]

>  <T_units>  (4) 
K

>  <yaml_path>  (4) 
/home/calvin/Dropbox/PersonalFolders/Calvin/HAb_Converged/rxn_194/output/Species/rxn_194_C[O]/rxn_194_CO.yml

>  <frequencies_cm1>  (4) 
[717.9227142500399, 959.00196787928, 1127.7649991035998, 1355.17895194604, 1359.9103048315199, 1501.9607631610397, 2892.6488961967993, 2963.9144698477603, 3005.7618783878397]

>  <ZPE_kJmol>  (4) 
95.00783418108908

>  <E_elec_kJmol>  (4) 
-302092.4671193365

>  <E0_minus_Eelec_plus_ZPE_kJmol>  (4) 
0.0

>  <rxn>  (4) 
rxn_194

>  <species_type>  (4) 
p0

>  <species_folder>  (4) 
rxn_194_C[O]

>  <frequencies_cm1_list>  (4) 
[717.9227142500399, 959.00196787928, 1127.7649991035998, 1355.17895194604, 1359.9103048315199, 1501.9607631610397, 2892.6488961967993, 2963.9144698477603, 3005.7618783878397]

>  <E0_kJmol>  (4) 
-301997

>  <H298_kJmol>  (4) 
-301987

$$$$

     RDKit          3D

  1  0  0  0  0  0  0  0  0  0999 V2000
    0.0000    0.0000    0.0000 O   0  0  0  0  0 15  0  0  0  1  0  0
M  END
>  <rmg_smiles>  (5) 
[O]

>  <rmg_adjacency_list>  (5) 
multiplicity 3
1 O u2 p3 c0


>  <multiplicity>  (5) 
3

>  <reaction>  (5) 
rxn_194

>  <type>  (5) 
r2

>  <role_mapnums>  (5) 
{}

>  <role_mapidx>  (5) 
{}

>  <ordered_mapped_smiles>  (5) 
[O:1]

>  <level_of_theory>  (5) 
wb97xd/def2tzvp

>  <lot_method>  (5) 
wb97xd

>  <lot_basis>  (5) 
def2tzvp

>  <spin_multiplicity>  (5) 
3.0

>  <optical_isomers>  (5) 
1.0

>  <modes>  (5) 
IdealGasTranslation(mass=(15.9994, 'amu')),

>  <frequency_value>  (5) 
unknown

>  <frequency_units>  (5) 
unknown

>  <frequency_list>  (5) 
unknown

>  <arkane_path>  (5) 
/home/calvin/Dropbox/PersonalFolders/Calvin/HAb_Converged/rxn_194/output/Species/rxn_194_[O]/arkane/output.py

>  <path_exists>  (5) 
True

>  <E0_value>  (5) 
-197098.59938458708

>  <E0_units>  (5) 
kJ/mol

>  <thermo_class>  (5) 
NASA

>  <Cp0_value>  (5) 
20.78618

>  <Cp0_units>  (5) 
J/(mol*K)

>  <CpInf_value>  (5) 
20.78618

>  <CpInf_units>  (5) 
J/(mol*K)

>  <Tmin_value>  (5) 
10.0

>  <Tmin_units>  (5) 
K

>  <Tmax_value>  (5) 
3000.0

>  <Tmax_units>  (5) 
K

>  <polynomials>  (5) 
[{"name": "polynomial1", "class": "NASAPolynomial", "Tmin_value": 10.0, "Tmin_units": "K", "Tmax_value": 1853.5663026740365, "Tmax_units": "K", "coeffs": [2.500000000000126, -2.814048095438137e-15, 9.047587538332909e-18, -8.591944598242694e-21, 2.4182720553650057e-24, -23705485.977386568, 4.091313385047355]}, {"name": "polynomial2", "class": "NASAPolynomial", "Tmin_value": 1853.5663026740365, "Tmin_units": "K", "Tmax_value": 3000.0, "Tmax_units": "K", "coeffs": [2.500000000696122, -1.3129776766613561e-12, 9.140875080033424e-16, -2.782806647322001e-19, 3.1263265306749967e-23, -23705485.97738686, 4.091313381171202]}]

>  <H298_value>  (5) 
-47106.215373741215

>  <H298_units>  (5) 
kcal/mol

>  <S298_value>  (5) 
36.4335375885593

>  <S298_units>  (5) 
cal/(mol*K)

>  <Cp_T_value_list>  (5) 
[4.968016252389826, 4.968016252389978, 4.968016252390173, 4.96801625239036, 4.968016252390567, 4.968016252390427, 4.968016252389077, 4.968016252391019, 4.968016252390868]

>  <Cp_T_units>  (5) 
cal/(mol*K)

>  <T_list>  (5) 
[300.0, 400.0, 500.0, 600.0, 800.0, 1000.0, 1500.0, 2000.0, 2400.0]

>  <T_units>  (5) 
K

>  <yaml_path>  (5) 
/home/calvin/Dropbox/PersonalFolders/Calvin/HAb_Converged/rxn_194/output/Species/rxn_194_[O]/rxn_194_O.yml

>  <frequencies_cm1>  (5) 
[]

>  <ZPE_kJmol>  (5) 
unknown

>  <E_elec_kJmol>  (5) 
unknown

>  <E0_minus_Eelec_plus_ZPE_kJmol>  (5) 
unknown

>  <rxn>  (5) 
rxn_194

>  <species_type>  (5) 
r1

>  <species_folder>  (5) 
rxn_194_[O]

>  <frequencies_cm1_list>  (5) 
[]

>  <E0_kJmol>  (5) 
-197099

>  <H298_kJmol>  (5) 
-197092

$$$$
