
     RDKit          3D

 14 13  0  0  0  0  0  0  0  0999 V2000
    0.3051   -0.5415   -1.3358 C   0  0  0  0  0  0  0  0  0  1  0  0
    0.1764   -0.1113    0.0970 C   0  0  0  0  0  0  0  0  0  2  0  0
    0.5255    1.3179    0.3969 C   0  0  0  0  0  0  0  0  0  3  0  0
   -1.0143   -0.6559    0.8329 C   0  0  0  0  0  0  0  0  0  4  0  0
    1.2466   -0.2010   -1.7714 H   0  0  0  0  0  0  0  0  0  5  0  0
   -0.5079   -0.1243   -1.9453 H   0  0  0  0  0  0  0  0  0  6  0  0
    0.2597   -1.6289   -1.4267 H   0  0  0  0  0  0  0  0  0  7  0  0
    0.9733   -0.6667    0.5917 H   0  0  0  0  0  0  0  0  0  8  0  0
   -0.2564    1.9977    0.0321 H   0  0  0  0  0  0  0  0  0  9  0  0
    0.6283    1.4816    1.4718 H   0  0  0  0  0  0  0  0  0 10  0  0
    1.4612    1.6094   -0.0844 H   0  0  0  0  0  0  0  0  0 11  0  0
   -1.1018   -1.7366    0.6990 H   0  0  0  0  0  0  0  0  0 12  0  0
   -1.9446   -0.2034    0.4657 H   0  0  0  0  0  0  0  0  0 13  0  0
   -0.9487   -0.4448    1.9028 H   0  0  0  0  0  0  0  0  0 14  0  0
  1  5  1  0
  1  7  1  0
  1  6  1  0
  1  2  1  0
  2  8  1  0
  2  3  1  0
  2  4  1  0
  3 11  1  0
  3  9  1  0
  3 10  1  0
  4 14  1  0
  4 13  1  0
  4 12  1  0
M  END
>  <rmg_smiles>  (1) 
CC(C)C

>  <rmg_adjacency_list>  (1) 
1  C u0 p0 c0 {2,S} {3,S} {4,S} {5,S}
2  C u0 p0 c0 {1,S} {6,S} {7,S} {8,S}
3  C u0 p0 c0 {1,S} {9,S} {10,S} {11,S}
4  C u0 p0 c0 {1,S} {12,S} {13,S} {14,S}
5  H u0 p0 c0 {1,S}
6  H u0 p0 c0 {2,S}
7  H u0 p0 c0 {2,S}
8  H u0 p0 c0 {2,S}
9  H u0 p0 c0 {3,S}
10 H u0 p0 c0 {3,S}
11 H u0 p0 c0 {3,S}
12 H u0 p0 c0 {4,S}
13 H u0 p0 c0 {4,S}
14 H u0 p0 c0 {4,S}


>  <multiplicity>  (1) 
1

>  <reaction>  (1) 
rxn_960

>  <type>  (1) 
r1h

>  <role_mapnums>  (1) 
{"r1h_a": 2, "r1h_h": 8}

>  <role_mapidx>  (1) 
{"r1h_a": 1, "r1h_h": 7}

>  <ordered_mapped_smiles>  (1) 
[C:1]([C:2]([C:3]([H:9])([H:10])[H:11])([C:4]([H:12])([H:13])[H:14])[H:8])([H:5])([H:6])[H:7]

>  <mol_properties>  (1) 
{"1": {"label": "donator", "atom_type": "Cs"}, "7": {"label": "d_hydrogen", "atom_type": "H0"}}

>  <level_of_theory>  (1) 
wb97xd/def2tzvp

>  <lot_method>  (1) 
wb97xd

>  <lot_basis>  (1) 
def2tzvp

>  <spin_multiplicity>  (1) 
1.0

>  <optical_isomers>  (1) 
1.0

>  <modes>  (1) 
IdealGasTranslation(mass=(58.0782, 'amu')),         NonlinearRotor(             inertia = ([64.472, 64.4729, 111.216

>  <frequency_value>  (1) 
unknown

>  <frequency_units>  (1) 
unknown

>  <frequency_list>  (1) 
unknown

>  <arkane_path>  (1) 
/home/calvin/Dropbox/PersonalFolders/Calvin/HAb_Converged/rxn_960/output/Species/rxn_960_CC[C]C/arkane/output.py

>  <path_exists>  (1) 
True

>  <E0_value>  (1) 
-415716.8551785892

>  <E0_units>  (1) 
kJ/mol

>  <thermo_class>  (1) 
NASA

>  <Cp0_value>  (1) 
33.257888

>  <Cp0_units>  (1) 
J/(mol*K)

>  <CpInf_value>  (1) 
332.57888

>  <CpInf_units>  (1) 
J/(mol*K)

>  <Tmin_value>  (1) 
10.0

>  <Tmin_units>  (1) 
K

>  <Tmax_value>  (1) 
3000.0

>  <Tmax_units>  (1) 
K

>  <polynomials>  (1) 
[{"name": "polynomial1", "class": "NASAPolynomial", "Tmin_value": 10.0, "Tmin_units": "K", "Tmax_value": 537.5064745187667, "Tmax_units": "K", "coeffs": [3.8628363821348652, 0.009552945366815233, 8.515959182009764e-05, -1.3172307400383012e-07, 6.379409156460781e-11, -49999184.32640732, 7.5583625467674835]}, {"name": "polynomial2", "class": "NASAPolynomial", "Tmin_value": 537.5064745187667, "Tmin_units": "K", "Tmax_value": 3000.0, "Tmax_units": "K", "coeffs": [-1.5215739791596736, 0.04962274115026227, -2.6662438796804976e-05, 6.9701046951751754e-09, -7.139856142955723e-13, -49998605.498901546, 30.1922768696949]}]

>  <H298_value>  (1) 
-99354.53737755

>  <H298_units>  (1) 
kcal/mol

>  <S298_value>  (1) 
69.86452433898926

>  <S298_units>  (1) 
cal/(mol*K)

>  <Cp_T_value_list>  (1) 
[22.561336463656524, 28.83913806453606, 34.67864822892463, 39.876483581358066, 48.465787004950734, 55.03538090591355, 65.24317219050415, 70.36940831332875, 72.85845328129174]

>  <Cp_T_units>  (1) 
cal/(mol*K)

>  <T_list>  (1) 
[300.0, 400.0, 500.0, 600.0, 800.0, 1000.0, 1500.0, 2000.0, 2400.0]

>  <T_units>  (1) 
K

>  <yaml_path>  (1) 
/home/calvin/Dropbox/PersonalFolders/Calvin/HAb_Converged/rxn_960/output/Species/rxn_960_CC[C]C/rxn_960_CCCC.yml

>  <frequencies_cm1>  (1) 
[211.12546366339998, 262.29137128272, 263.62356643479995, 369.04552506743994, 369.49874609856005, 434.82437744772, 803.952306339, 924.33742598392, 924.6052384113999, 953.0345576361999, 976.01835750224, 976.1900321352399, 1191.0442688274, 1191.1129386805999, 1204.0572060088, 1353.00898458492, 1353.09138840876, 1393.16711473628, 1393.2701195160798, 1417.2496322535198, 1467.4610289133598, 1473.9297290848, 1474.14947261504, 1492.4499884928398, 1492.54612628732, 1500.9032474217597, 2997.83737732856, 3000.0485466016003, 3000.2133542492797, 3005.5421348576, 3068.6497299483995, 3068.8076706107604, 3077.4257371873596, 3079.8841179319197, 3083.4068814010793, 3083.7021617698397]

>  <ZPE_kJmol>  (1) 
342.91865633869

>  <E_elec_kJmol>  (1) 
-416059.773834928

>  <E0_minus_Eelec_plus_ZPE_kJmol>  (1) 
0.0

>  <rxn>  (1) 
rxn_960

>  <species_type>  (1) 
r1

>  <species_folder>  (1) 
rxn_960_CC[C]C

>  <frequencies_cm1_list>  (1) 
[211.12546366339998, 262.29137128272, 263.62356643479995, 369.04552506743994, 369.49874609856005, 434.82437744772, 803.952306339, 924.33742598392, 924.6052384113999, 953.0345576361999, 976.01835750224, 976.1900321352399, 1191.0442688274, 1191.1129386805999, 1204.0572060088, 1353.00898458492, 1353.09138840876, 1393.16711473628, 1393.2701195160798, 1417.2496322535198, 1467.4610289133598, 1473.9297290848, 1474.14947261504, 1492.4499884928398, 1492.54612628732, 1500.9032474217597, 2997.83737732856, 3000.0485466016003, 3000.2133542492797, 3005.5421348576, 3068.6497299483995, 3068.8076706107604, 3077.4257371873596, 3079.8841179319197, 3083.4068814010793, 3083.7021617698397]

>  <E0_kJmol>  (1) 
-415717

>  <H298_kJmol>  (1) 
-415699

$$$$

     RDKit          3D

 16 15  0  0  0  0  0  0  0  0999 V2000
   -0.0920   -1.9950   -1.3825 C   0  0  0  0  0  0  0  0  0  1  0  0
   -0.6127   -1.1958   -0.4553 C   0  0  0  0  0  0  0  0  0  2  0  0
   -0.2719    0.2225   -0.2042 C   0  0  0  0  0  0  0  0  0  3  0  0
    0.9335    0.7648   -0.9395 C   0  0  0  0  0  0  0  0  0  4  0  0
   -0.3996    0.6027    1.2206 C   0  0  0  0  0  0  0  0  0  5  0  0
    0.3228    1.5050    1.8790 C   0  0  0  0  0  0  0  0  0  6  0  0
   -0.4397   -3.0138   -1.4945 H   0  0  0  0  0  0  0  0  0  7  0  0
    0.6991   -1.6737   -2.0486 H   0  0  0  0  0  0  0  0  0  8  0  0
   -1.3962   -1.5968    0.1840 H   0  0  0  0  0  0  0  0  0  9  0  0
    1.0095    1.8456   -0.8150 H   0  0  0  0  0  0  0  0  0 10  0  0
    0.8577    0.5645   -2.0088 H   0  0  0  0  0  0  0  0  0 11  0  0
    1.8593    0.3135   -0.5729 H   0  0  0  0  0  0  0  0  0 12  0  0
   -1.1959    0.0935    1.7590 H   0  0  0  0  0  0  0  0  0 13  0  0
    1.1398    2.0448    1.4165 H   0  0  0  0  0  0  0  0  0 14  0  0
    0.1218    1.7233    2.9198 H   0  0  0  0  0  0  0  0  0 15  0  0
   -1.0989    0.7565   -0.6721 H   0  0  0  0  0  0  0  0  0 16  0  0
  1  8  1  0
  1  7  1  0
  1  2  1  0
  2  9  1  0
  2  3  1  0
  3  4  1  0
  3  5  1  0
  3 16  1  0
  4 12  1  0
  4 10  1  0
  4 11  1  0
  5  6  1  0
  5 13  1  0
  6 14  1  0
  6 15  1  0
M  END
>  <rmg_smiles>  (2) 
[CH2][CH]C(C)[CH][CH2]

>  <rmg_adjacency_list>  (2) 
1  C u0 p0 c0 {2,S} {3,S} {4,S} {7,S}
2  C u0 p0 c0 {1,S} {8,S} {9,S} {10,S}
3  C u0 p0 c0 {1,S} {5,S} {11,S}
4  C u0 p0 c0 {1,S} {6,S} {12,S}
5  C u0 p0 c0 {3,S} {13,S} {14,S}
6  C u0 p0 c0 {4,S} {15,S} {16,S}
7  H u0 p0 c0 {1,S}
8  H u0 p0 c0 {2,S}
9  H u0 p0 c0 {2,S}
10 H u0 p0 c0 {2,S}
11 H u0 p0 c0 {3,S}
12 H u0 p0 c0 {4,S}
13 H u0 p0 c0 {5,S}
14 H u0 p0 c0 {5,S}
15 H u0 p0 c0 {6,S}
16 H u0 p0 c0 {6,S}


>  <multiplicity>  (2) 
1

>  <reaction>  (2) 
rxn_960

>  <type>  (2) 
r2h

>  <role_mapnums>  (2) 
{"r2h_a": 3, "r2h_h": 16}

>  <role_mapidx>  (2) 
{"r2h_a": 2, "r2h_h": 15}

>  <ordered_mapped_smiles>  (2) 
[CH:1]([CH:2]([C:3]([C:4]([H:10])([H:11])[H:12])([CH:5]([CH:6]([H:14])[H:15])[H:13])[H:16])[H:9])([H:7])[H:8]

>  <mol_properties>  (2) 
{"2": {"label": "acceptor", "atom_type": "Cs"}, "15": {"label": "a_hydrogen", "atom_type": "H0"}}

>  <level_of_theory>  (2) 
wb97xd/def2tzvp

>  <lot_method>  (2) 
wb97xd

>  <lot_basis>  (2) 
def2tzvp

>  <spin_multiplicity>  (2) 
1.0

>  <optical_isomers>  (2) 
2.0

>  <modes>  (2) 
IdealGasTranslation(mass=(82.0782, 'amu')),         NonlinearRotor(             inertia = ([81.8176, 215.752, 270.221

>  <frequency_value>  (2) 
unknown

>  <frequency_units>  (2) 
unknown

>  <frequency_list>  (2) 
unknown

>  <arkane_path>  (2) 
/home/calvin/Dropbox/PersonalFolders/Calvin/HAb_Converged/rxn_960/output/Species/rxn_960_C=CC[C]C=C/arkane/output.py

>  <path_exists>  (2) 
True

>  <E0_value>  (2) 
-615627.5937373543

>  <E0_units>  (2) 
kJ/mol

>  <thermo_class>  (2) 
NASA

>  <Cp0_value>  (2) 
33.257888

>  <Cp0_units>  (2) 
J/(mol*K)

>  <CpInf_value>  (2) 
382.465712

>  <CpInf_units>  (2) 
J/(mol*K)

>  <Tmin_value>  (2) 
10.0

>  <Tmin_units>  (2) 
K

>  <Tmax_value>  (2) 
3000.0

>  <Tmax_units>  (2) 
K

>  <polynomials>  (2) 
[{"name": "polynomial1", "class": "NASAPolynomial", "Tmin_value": 10.0, "Tmin_units": "K", "Tmax_value": 757.01421466449, "Tmax_units": "K", "coeffs": [3.7333043859306807, 0.024971619873153182, 5.9953729741974984e-05, -9.768956274227311e-08, 4.2619255015878605e-11, -74042895.04148921, 11.39126299815016]}, {"name": "polynomial2", "class": "NASAPolynomial", "Tmin_value": 757.01421466449, "Tmin_units": "K", "Tmax_value": 3000.0, "Tmax_units": "K", "coeffs": [0.44469393851227684, 0.05690289093011388, -3.2156427053129826e-05, 8.824948176810319e-09, -9.439814340659815e-13, -74042814.17505449, 23.586950166217814]}]

>  <H298_value>  (2) 
-147133.40013016394

>  <H298_units>  (2) 
kcal/mol

>  <S298_value>  (2) 
83.43513409825523

>  <S298_units>  (2) 
cal/(mol*K)

>  <Cp_T_value_list>  (2) 
[28.473139475044146, 36.07469361244095, 43.043001816355165, 49.12797529668614, 58.65957774455763, 65.72114092256321, 76.41278682550626, 81.71522311412052, 84.39200509242544]

>  <Cp_T_units>  (2) 
cal/(mol*K)

>  <T_list>  (2) 
[300.0, 400.0, 500.0, 600.0, 800.0, 1000.0, 1500.0, 2000.0, 2400.0]

>  <T_units>  (2) 
K

>  <yaml_path>  (2) 
/home/calvin/Dropbox/PersonalFolders/Calvin/HAb_Converged/rxn_960/output/Species/rxn_960_C=CC[C]C=C/rxn_960_C=CCCC=C.yml

>  <frequencies_cm1>  (2) 
[88.1720915088, 106.67861694619998, 273.49142433963993, 286.5592974036, 313.75942625612, 326.27794049448, 407.06115579895993, 569.8224418536, 651.92411833952, 700.3775667574399, 828.2270994451999, 911.8395127015199, 955.1839240413599, 957.3264234611999, 986.9918000435998, 1013.1206791861999, 1033.24781315912, 1040.35514296532, 1086.5012843157199, 1158.117074218, 1191.5112238291601, 1286.63957146712, 1315.0757576772398, 1326.50928823504, 1345.4965026448397, 1396.33966195412, 1439.56733454352, 1445.27379934444, 1485.5280672902798, 1492.32638275708, 1705.6973506201198, 1716.9454725742798, 3001.05112645832, 3015.16964827624, 3087.0944525179198, 3099.55803087372, 3107.7297434045195, 3116.0456626270397, 3118.744387857799, 3130.445730843079, 3201.84864420044, 3208.5027529755193]

>  <ZPE_kJmol>  (2) 
370.4126142688373

>  <E_elec_kJmol>  (2) 
-615998.0063516231

>  <E0_minus_Eelec_plus_ZPE_kJmol>  (2) 
0.0

>  <rxn>  (2) 
rxn_960

>  <species_type>  (2) 
p0

>  <species_folder>  (2) 
rxn_960_C=CC[C]C=C

>  <frequencies_cm1_list>  (2) 
[88.1720915088, 106.67861694619998, 273.49142433963993, 286.5592974036, 313.75942625612, 326.27794049448, 407.06115579895993, 569.8224418536, 651.92411833952, 700.3775667574399, 828.2270994451999, 911.8395127015199, 955.1839240413599, 957.3264234611999, 986.9918000435998, 1013.1206791861999, 1033.24781315912, 1040.35514296532, 1086.5012843157199, 1158.117074218, 1191.5112238291601, 1286.63957146712, 1315.0757576772398, 1326.50928823504, 1345.4965026448397, 1396.33966195412, 1439.56733454352, 1445.27379934444, 1485.5280672902798, 1492.32638275708, 1705.6973506201198, 1716.9454725742798, 3001.05112645832, 3015.16964827624, 3087.0944525179198, 3099.55803087372, 3107.7297434045195, 3116.0456626270397, 3118.744387857799, 3130.445730843079, 3201.84864420044, 3208.5027529755193]

>  <E0_kJmol>  (2) 
-615628

>  <H298_kJmol>  (2) 
-615606

$$$$

     RDKit          3D

 29 27  0  0  0  0  0  0  0  0999 V2000
    0.9137   -2.7136   -0.7143 C   0  0  0  0  0  0  0  0  0  1  0  0
    0.3930   -1.9143    0.2129 C   0  0  0  0  0  0  0  0  0  2  0  0
    0.7339   -0.4960    0.4640 C   0  0  0  0  0  0  0  0  0  3  0  0
    1.9392    0.0463   -0.2712 C   0  0  0  0  0  0  0  0  0  4  0  0
    0.6062   -0.1159    1.8888 C   0  0  0  0  0  0  0  0  0  5  0  0
    1.3286    0.7865    2.5473 C   0  0  0  0  0  0  0  0  0  6  0  0
    0.5661   -3.7323   -0.8262 H   0  0  0  0  0  0  0  0  0  7  0  0
    1.7048   -2.3922   -1.3804 H   0  0  0  0  0  0  0  0  0  8  0  0
   -0.3905   -2.3153    0.8522 H   0  0  0  0  0  0  0  0  0  9  0  0
    2.0153    1.1270   -0.1467 H   0  0  0  0  0  0  0  0  0 10  0  0
    1.8634   -0.1541   -1.3405 H   0  0  0  0  0  0  0  0  0 11  0  0
    2.8651   -0.4051    0.0954 H   0  0  0  0  0  0  0  0  0 12  0  0
   -0.1902   -0.6251    2.4272 H   0  0  0  0  0  0  0  0  0 13  0  0
    2.1456    1.3263    2.0847 H   0  0  0  0  0  0  0  0  0 14  0  0
    1.1276    1.0048    3.5880 H   0  0  0  0  0  0  0  0  0 15  0  0
   -1.1667    0.4391   -2.1758 C   0  0  0  0  0  0  0  0  0 16  0  0
   -1.2954    0.8693   -0.7430 C   0  0  0  0  0  3  0  0  0 17  0  0
   -0.9464    2.2985   -0.4431 C   0  0  0  0  0  0  0  0  0 18  0  0
   -2.4861    0.3247   -0.0072 C   0  0  0  0  0  0  0  0  0 19  0  0
   -0.2253    0.7796   -2.6114 H   0  0  0  0  0  0  0  0  0 20  0  0
   -1.9797    0.8563   -2.7853 H   0  0  0  0  0  0  0  0  0 21  0  0
   -1.2122   -0.6483   -2.2667 H   0  0  0  0  0  0  0  0  0 22  0  0
   -0.2222    0.1213   -0.0768 H   0  0  0  0  0  0  0  0  0 23  0  0
   -1.7282    2.9784   -0.8079 H   0  0  0  0  0  0  0  0  0 24  0  0
   -0.8435    2.4622    0.6318 H   0  0  0  0  0  0  0  0  0 25  0  0
   -0.0107    2.5900   -0.9244 H   0  0  0  0  0  0  0  0  0 26  0  0
   -2.5736   -0.7560   -0.1410 H   0  0  0  0  0  0  0  0  0 27  0  0
   -3.4164    0.7772   -0.3744 H   0  0  0  0  0  0  0  0  0 28  0  0
   -2.4205    0.5358    1.0628 H   0  0  0  0  0  0  0  0  0 29  0  0
  1  7  1  0
  1  8  1  0
  1  2  1  0
  2  3  1  0
  2  9  1  0
  3  4  1  0
  3  5  1  0
  3 23  1  0
  4 10  1  0
  4 11  1  0
  4 12  1  0
  5 13  1  0
  5  6  1  0
  6 15  1  0
  6 14  1  0
 16 21  1  0
 16 20  1  0
 16 22  1  0
 16 17  1  0
 17 18  1  0
 17 19  1  0
 18 24  1  0
 18 25  1  0
 18 26  1  0
 19 27  1  0
 19 28  1  0
 19 29  1  0
M  RAD  1  17   2
M  END
>  <rmg_smiles>  (3) 
C[C](C)C.[CH2][CH]C(C)[CH][CH2]

>  <rmg_adjacency_list>  (3) 
multiplicity 2
1  C u0 p0 c0 {2,S} {7,S} {8,S} {11,S}
2  C u0 p0 c0 {1,S} {12,S} {13,S} {14,S}
3  C u0 p0 c0 {6,S} {15,S} {16,S} {17,S}
4  C u0 p0 c0 {6,S} {18,S} {19,S} {20,S}
5  C u0 p0 c0 {6,S} {21,S} {22,S} {23,S}
6  C u1 p0 c0 {3,S} {4,S} {5,S}
7  C u0 p0 c0 {1,S} {9,S} {24,S}
8  C u0 p0 c0 {1,S} {10,S} {25,S}
9  C u0 p0 c0 {7,S} {26,S} {27,S}
10 C u0 p0 c0 {8,S} {28,S} {29,S}
11 H u0 p0 c0 {1,S}
12 H u0 p0 c0 {2,S}
13 H u0 p0 c0 {2,S}
14 H u0 p0 c0 {2,S}
15 H u0 p0 c0 {3,S}
16 H u0 p0 c0 {3,S}
17 H u0 p0 c0 {3,S}
18 H u0 p0 c0 {4,S}
19 H u0 p0 c0 {4,S}
20 H u0 p0 c0 {4,S}
21 H u0 p0 c0 {5,S}
22 H u0 p0 c0 {5,S}
23 H u0 p0 c0 {5,S}
24 H u0 p0 c0 {7,S}
25 H u0 p0 c0 {8,S}
26 H u0 p0 c0 {9,S}
27 H u0 p0 c0 {9,S}
28 H u0 p0 c0 {10,S}
29 H u0 p0 c0 {10,S}


>  <multiplicity>  (3) 
2

>  <reaction>  (3) 
rxn_960

>  <type>  (3) 
ts

>  <role_mapnums>  (3) 
{"*2": 23, "*1": 17, "*3": 3, "*0": 2, "*4": 16}

>  <role_mapidx>  (3) 
{"*2": 22, "*1": 16, "*3": 2, "*0": 1, "*4": 15}

>  <ordered_mapped_smiles>  (3) 
[CH:1]([CH:2]([C:3]([C:4]([H:10])([H:11])[H:12])([CH:5]([CH:6]([H:14])[H:15])[H:13])[H:23])[H:9])([H:7])[H:8].[C:16]([C:17]([C:18]([H:24])([H:25])[H:26])[C:19]([H:27])([H:28])[H:29])([H:20])([H:21])[H:22]

>  <mol_properties>  (3) 
{"1": {"label": "*0", "atom_type": "Cs"}, "2": {"label": "*3", "atom_type": "Cs"}, "15": {"label": "*4", "atom_type": "Cs"}, "16": {"label": "*1", "atom_type": "Cs"}, "22": {"label": "*2", "atom_type": "H0"}}

>  <level_of_theory>  (3) 
wb97xd/def2tzvp

>  <lot_method>  (3) 
wb97xd

>  <lot_basis>  (3) 
def2tzvp

>  <spin_multiplicity>  (3) 
2.0

>  <optical_isomers>  (3) 
1.0

>  <modes>  (3) 
IdealGasTranslation(mass=(139.149, 'amu')),         NonlinearRotor(             inertia = ([388.064, 520.221, 673.65

>  <frequency_value>  (3) 
-1423.62

>  <frequency_units>  (3) 
cm^-1

>  <frequency_list>  (3) 
unknown

>  <arkane_path>  (3) 
/home/calvin/Dropbox/PersonalFolders/Calvin/HAb_Converged/rxn_960/output/rxns/TS0/arkane/output.py

>  <path_exists>  (3) 
True

>  <E0_value>  (3) 
-1029620.0

>  <E0_units>  (3) 
kJ/mol

>  <thermo_class>  (3) 
unknown

>  <Cp0_value>  (3) 
unknown

>  <Cp0_units>  (3) 
unknown

>  <CpInf_value>  (3) 
unknown

>  <CpInf_units>  (3) 
unknown

>  <Tmin_value>  (3) 
unknown

>  <Tmin_units>  (3) 
unknown

>  <Tmax_value>  (3) 
unknown

>  <Tmax_units>  (3) 
unknown

>  <polynomials>  (3) 
unknown

>  <H298_value>  (3) 
unknown

>  <H298_units>  (3) 
unknown

>  <S298_value>  (3) 
unknown

>  <S298_units>  (3) 
unknown

>  <Cp_T_value_list>  (3) 
unknown

>  <Cp_T_units>  (3) 
unknown

>  <T_list>  (3) 
unknown

>  <T_units>  (3) 
unknown

>  <yaml_path>  (3) 
unknown

>  <frequencies_cm1>  (3) 
unknown

>  <ZPE_kJmol>  (3) 
unknown

>  <E_elec_kJmol>  (3) 
unknown

>  <E0_minus_Eelec_plus_ZPE_kJmol>  (3) 
unknown

>  <rxn>  (3) 
unknown

>  <species_type>  (3) 
unknown

>  <species_folder>  (3) 
unknown

>  <frequencies_cm1_list>  (3) 
[]

>  <ts_imag_freq_cm1>  (3) 
-1440.9151

>  <ts_freq_out_path>  (3) 
/home/calvin/Dropbox/PersonalFolders/Calvin/HAb_Converged/rxn_960/output/rxns/TS0/geometry/freq.out

>  <E0_kJmol>  (3) 
-1.02962e+06

>  <H298_kJmol>  (3) 
unknown

$$$$

     RDKit          3D

 13 12  0  0  0  0  0  0  0  0999 V2000
   -1.3649   -0.5967   -0.3477 C   0  0  0  0  0  0  0  0  0  1  0  0
   -0.1601   -0.2776    0.4669 C   0  0  0  0  0  3  0  0  0  2  0  0
    1.1241   -0.9571    0.1414 C   0  0  0  0  0  0  0  0  0  3  0  0
   -0.1188    1.0130    1.2082 C   0  0  0  0  0  0  0  0  0  4  0  0
   -1.4265   -1.6632   -0.5770 H   0  0  0  0  0  0  0  0  0  5  0  0
   -2.2859   -0.3004    0.1602 H   0  0  0  0  0  0  0  0  0  6  0  0
   -1.3532   -0.0668   -1.3139 H   0  0  0  0  0  0  0  0  0  7  0  0
    1.6174   -0.4963   -0.7297 H   0  0  0  0  0  0  0  0  0  8  0  0
    0.9723   -2.0104   -0.1064 H   0  0  0  0  0  0  0  0  0  9  0  0
    1.8338   -0.8977    0.9701 H   0  0  0  0  0  0  0  0  0 10  0  0
   -1.0851    1.2507    1.6593 H   0  0  0  0  0  0  0  0  0 11  0  0
    0.6358    1.0009    1.9983 H   0  0  0  0  0  0  0  0  0 12  0  0
    0.1343    1.8546    0.5434 H   0  0  0  0  0  0  0  0  0 13  0  0
  1  5  1  0
  1  7  1  0
  1  6  1  0
  1  2  1  0
  2  3  1  0
  2  4  1  0
  3  9  1  0
  3 10  1  0
  3  8  1  0
  4 13  1  0
  4 12  1  0
  4 11  1  0
M  RAD  1   2   2
M  END
>  <rmg_smiles>  (4) 
C[C](C)C

>  <rmg_adjacency_list>  (4) 
multiplicity 2
1  C u0 p0 c0 {4,S} {5,S} {6,S} {7,S}
2  C u0 p0 c0 {4,S} {8,S} {9,S} {10,S}
3  C u0 p0 c0 {4,S} {11,S} {12,S} {13,S}
4  C u1 p0 c0 {1,S} {2,S} {3,S}
5  H u0 p0 c0 {1,S}
6  H u0 p0 c0 {1,S}
7  H u0 p0 c0 {1,S}
8  H u0 p0 c0 {2,S}
9  H u0 p0 c0 {2,S}
10 H u0 p0 c0 {2,S}
11 H u0 p0 c0 {3,S}
12 H u0 p0 c0 {3,S}
13 H u0 p0 c0 {3,S}


>  <multiplicity>  (4) 
2

>  <reaction>  (4) 
rxn_960

>  <type>  (4) 
r1

>  <role_mapnums>  (4) 
{}

>  <role_mapidx>  (4) 
{}

>  <ordered_mapped_smiles>  (4) 
[C:1]([C:2]([C:3]([H:8])([H:9])[H:10])[C:4]([H:11])([H:12])[H:13])([H:5])([H:6])[H:7]

>  <level_of_theory>  (4) 
wb97xd/def2tzvp

>  <lot_method>  (4) 
wb97xd

>  <lot_basis>  (4) 
def2tzvp

>  <spin_multiplicity>  (4) 
2.0

>  <optical_isomers>  (4) 
1.0

>  <modes>  (4) 
IdealGasTranslation(mass=(57.0704, 'amu')),         NonlinearRotor(             inertia = ([62.748, 62.7522, 115.629

>  <frequency_value>  (4) 
unknown

>  <frequency_units>  (4) 
unknown

>  <frequency_list>  (4) 
unknown

>  <arkane_path>  (4) 
/home/calvin/Dropbox/PersonalFolders/Calvin/HAb_Converged/rxn_960/output/Species/rxn_960_C[C][C]C/arkane/output.py

>  <path_exists>  (4) 
True

>  <E0_value>  (4) 
-414011.8794410176

>  <E0_units>  (4) 
kJ/mol

>  <thermo_class>  (4) 
NASA

>  <Cp0_value>  (4) 
33.257888

>  <Cp0_units>  (4) 
J/(mol*K)

>  <CpInf_value>  (4) 
307.635464

>  <CpInf_units>  (4) 
J/(mol*K)

>  <Tmin_value>  (4) 
10.0

>  <Tmin_units>  (4) 
K

>  <Tmax_value>  (4) 
3000.0

>  <Tmax_units>  (4) 
K

>  <polynomials>  (4) 
[{"name": "polynomial1", "class": "NASAPolynomial", "Tmin_value": 10.0, "Tmin_units": "K", "Tmax_value": 459.6076222018939, "Tmax_units": "K", "coeffs": [3.627859229516995, 0.03789963152899978, -9.041671035910785e-05, 2.3308271134237848e-07, -1.9548715139665516e-10, -49794126.997490145, 8.375842266083575]}, {"name": "polynomial2", "class": "NASAPolynomial", "Tmin_value": 459.6076222018939, "Tmin_units": "K", "Tmax_value": 3000.0, "Tmax_units": "K", "coeffs": [-0.4758560516394417, 0.045775943490194614, -2.5266611133804744e-05, 6.794397008780457e-09, -7.147146630784538e-13, -49793455.74723977, 28.182453352294953]}]

>  <H298_value>  (4) 
-98946.57476397316

>  <H298_units>  (4) 
kcal/mol

>  <S298_value>  (4) 
75.50224412798102

>  <S298_units>  (4) 
cal/(mol*K)

>  <Cp_T_value_list>  (4) 
[22.992042877867913, 28.285620385224153, 33.58397441735252, 38.29087153323403, 46.02420285604344, 51.892238630675074, 60.909928174278285, 65.4373743846128, 67.69211329671515]

>  <Cp_T_units>  (4) 
cal/(mol*K)

>  <T_list>  (4) 
[300.0, 400.0, 500.0, 600.0, 800.0, 1000.0, 1500.0, 2000.0, 2400.0]

>  <T_units>  (4) 
K

>  <yaml_path>  (4) 
/home/calvin/Dropbox/PersonalFolders/Calvin/HAb_Converged/rxn_960/output/Species/rxn_960_C[C][C]C/rxn_960_CCCC.yml

>  <frequencies_cm1>  (4) 
[124.87612804419999, 128.13794607119996, 129.12679195727998, 257.15486626336, 382.49794930931995, 382.86189953127996, 764.0551216298, 930.28423527104, 930.3460381389199, 963.9324633390399, 1004.2073322408398, 1004.5300805508798, 1087.7098737320398, 1293.6713644348, 1293.75376825864, 1387.20657147852, 1387.5293197885599, 1410.6573263463201, 1453.51418172844, 1456.4669854160397, 1456.74166482884, 1475.63274144416, 1478.0018513795599, 1478.2284618951198, 2923.2138478561196, 2923.605266019359, 2931.08341303284, 3026.27356353868, 3027.0563998651596, 3028.0727136925198, 3072.2754981973594, 3076.09354203528, 3076.7184376994]

>  <ZPE_kJmol>  (4) 
303.52568705565704

>  <E_elec_kJmol>  (4) 
-414315.4051280733

>  <E0_minus_Eelec_plus_ZPE_kJmol>  (4) 
0.0

>  <rxn>  (4) 
rxn_960

>  <species_type>  (4) 
p1

>  <species_folder>  (4) 
rxn_960_C[C][C]C

>  <frequencies_cm1_list>  (4) 
[124.87612804419999, 128.13794607119996, 129.12679195727998, 257.15486626336, 382.49794930931995, 382.86189953127996, 764.0551216298, 930.28423527104, 930.3460381389199, 963.9324633390399, 1004.2073322408398, 1004.5300805508798, 1087.7098737320398, 1293.6713644348, 1293.75376825864, 1387.20657147852, 1387.5293197885599, 1410.6573263463201, 1453.51418172844, 1456.4669854160397, 1456.74166482884, 1475.63274144416, 1478.0018513795599, 1478.2284618951198, 2923.2138478561196, 2923.605266019359, 2931.08341303284, 3026.27356353868, 3027.0563998651596, 3028.0727136925198, 3072.2754981973594, 3076.09354203528, 3076.7184376994]

>  <E0_kJmol>  (4) 
-414012

>  <H298_kJmol>  (4) 
-413992

$$$$

     RDKit          3D

 15 14  0  0  0  0  0  0  0  0999 V2000
    2.4381    0.5770   -0.2356 C   0  0  0  0  0  0  0  0  0  1  0  0
    1.4430   -0.3367   -0.1409 C   0  0  0  0  0  0  0  0  0  2  0  0
    0.0521   -0.0957   -0.0045 C   0  0  0  0  0  3  0  0  0  3  0  0
   -0.5167    1.2867    0.0548 C   0  0  0  0  0  0  0  0  0  4  0  0
   -0.8226   -1.2147    0.0778 C   0  0  0  0  0  0  0  0  0  5  0  0
   -2.1666   -1.1669    0.2092 C   0  0  0  0  0  0  0  0  0  6  0  0
    3.4666    0.2585   -0.3369 H   0  0  0  0  0  0  0  0  0  7  0  0
    2.2594    1.6438   -0.2152 H   0  0  0  0  0  0  0  0  0  8  0  0
    1.7306   -1.3845   -0.1719 H   0  0  0  0  0  0  0  0  0  9  0  0
   -1.2300    1.4469   -0.7583 H   0  0  0  0  0  0  0  0  0 10  0  0
    0.2481    2.0557   -0.0178 H   0  0  0  0  0  0  0  0  0 11  0  0
   -1.0592    1.4421    0.9914 H   0  0  0  0  0  0  0  0  0 12  0  0
   -0.3519   -2.1929    0.0292 H   0  0  0  0  0  0  0  0  0 13  0  0
   -2.7080   -0.2310    0.2646 H   0  0  0  0  0  0  0  0  0 14  0  0
   -2.7513   -2.0751    0.2638 H   0  0  0  0  0  0  0  0  0 15  0  0
  1  8  1  0
  1  7  1  0
  1  2  1  0
  2  9  1  0
  2  3  1  0
  3  4  1  0
  3  5  1  0
  4 12  1  0
  4 10  1  0
  4 11  1  0
  5  6  1  0
  5 13  1  0
  6 15  1  0
  6 14  1  0
M  RAD  1   3   2
M  END
>  <rmg_smiles>  (5) 
[CH2][CH][C](C)[CH][CH2]

>  <rmg_adjacency_list>  (5) 
multiplicity 2
1  C u0 p0 c0 {2,S} {7,S} {8,S} {9,S}
2  C u1 p0 c0 {1,S} {3,S} {4,S}
3  C u0 p0 c0 {2,S} {5,S} {10,S}
4  C u0 p0 c0 {2,S} {6,S} {11,S}
5  C u0 p0 c0 {3,S} {12,S} {13,S}
6  C u0 p0 c0 {4,S} {14,S} {15,S}
7  H u0 p0 c0 {1,S}
8  H u0 p0 c0 {1,S}
9  H u0 p0 c0 {1,S}
10 H u0 p0 c0 {3,S}
11 H u0 p0 c0 {4,S}
12 H u0 p0 c0 {5,S}
13 H u0 p0 c0 {5,S}
14 H u0 p0 c0 {6,S}
15 H u0 p0 c0 {6,S}


>  <multiplicity>  (5) 
2

>  <reaction>  (5) 
rxn_960

>  <type>  (5) 
r2

>  <role_mapnums>  (5) 
{}

>  <role_mapidx>  (5) 
{}

>  <ordered_mapped_smiles>  (5) 
[CH:1]([CH:2]([C:3]([C:4]([H:10])([H:11])[H:12])[CH:5]([CH:6]([H:14])[H:15])[H:13])[H:9])([H:7])[H:8]

>  <level_of_theory>  (5) 
wb97xd/def2tzvp

>  <lot_method>  (5) 
wb97xd

>  <lot_basis>  (5) 
def2tzvp

>  <spin_multiplicity>  (5) 
2.0

>  <optical_isomers>  (5) 
1.0

>  <modes>  (5) 
IdealGasTranslation(mass=(81.0704, 'amu')),         NonlinearRotor(             inertia = ([62.5293, 224.796, 284.21

>  <frequency_value>  (5) 
unknown

>  <frequency_units>  (5) 
unknown

>  <frequency_list>  (5) 
unknown

>  <arkane_path>  (5) 
/home/calvin/Dropbox/PersonalFolders/Calvin/HAb_Converged/rxn_960/output/Species/rxn_960_C=C[C][C]C=C/arkane/output.py

>  <path_exists>  (5) 
True

>  <E0_value>  (5) 
-614016.405434086

>  <E0_units>  (5) 
kJ/mol

>  <thermo_class>  (5) 
NASA

>  <Cp0_value>  (5) 
33.257888

>  <Cp0_units>  (5) 
J/(mol*K)

>  <CpInf_value>  (5) 
357.522296

>  <CpInf_units>  (5) 
J/(mol*K)

>  <Tmin_value>  (5) 
10.0

>  <Tmin_units>  (5) 
K

>  <Tmax_value>  (5) 
3000.0

>  <Tmax_units>  (5) 
K

>  <polynomials>  (5) 
[{"name": "polynomial1", "class": "NASAPolynomial", "Tmin_value": 10.0, "Tmin_units": "K", "Tmax_value": 419.0689826855313, "Tmax_units": "K", "coeffs": [3.7461378399183536, 0.022464955908256024, 8.810794690126274e-05, -1.8449270689510127e-07, 1.148776845632381e-10, -73849113.49735299, 11.570077105248336]}, {"name": "polynomial2", "class": "NASAPolynomial", "Tmin_value": 419.0689826855313, "Tmin_units": "K", "Tmax_value": 3000.0, "Tmax_units": "K", "coeffs": [0.16809288681172943, 0.05661667084847684, -3.41312558204021e-05, 9.965368111618754e-09, -1.1262510033039744e-12, -73848813.6024703, 25.720243230921767]}]

>  <H298_value>  (5) 
-146748.3088248158

>  <H298_units>  (5) 
kcal/mol

>  <S298_value>  (5) 
83.69704340475995

>  <S298_units>  (5) 
cal/(mol*K)

>  <Cp_T_value_list>  (5) 
[28.545319179186908, 35.69564824876572, 41.96760480546441, 47.409581732443996, 56.15524022360577, 62.58234917827583, 71.99499165792618, 76.66511553325982, 79.18424304962427]

>  <Cp_T_units>  (5) 
cal/(mol*K)

>  <T_list>  (5) 
[300.0, 400.0, 500.0, 600.0, 800.0, 1000.0, 1500.0, 2000.0, 2400.0]

>  <T_units>  (5) 
K

>  <yaml_path>  (5) 
/home/calvin/Dropbox/PersonalFolders/Calvin/HAb_Converged/rxn_960/output/Species/rxn_960_C=C[C][C]C=C/rxn_960_C=CCCC=C.yml

>  <frequencies_cm1>  (5) 
[55.7255858718, 142.91569847984, 243.59943724168, 250.04753645715996, 341.08316084439997, 359.56908532584, 490.81090876168, 546.8592429435199, 586.89376735912, 682.6813455877999, 764.7280861911601, 864.3131073018001, 877.42218227768, 957.0998129456399, 982.96774664608, 1004.23480018212, 1020.31727980156, 1028.45465740576, 1074.8823451542798, 1211.9885740533998, 1279.2781632040799, 1315.0139548093598, 1360.63133829012, 1400.4461191754801, 1420.0719632200398, 1441.723567934, 1468.0927915628, 1488.2405264916797, 1525.7960692067597, 1597.66593756588, 3009.75159685876, 3060.48488440292, 3115.2559593152396, 3122.0886097086404, 3125.7967817814397, 3133.8517555617996, 3139.09126536096, 3221.11053802304, 3224.1388785491595]

>  <ZPE_kJmol>  (5) 
334.5664415862221

>  <E_elec_kJmol>  (5) 
-614350.9718756722

>  <E0_minus_Eelec_plus_ZPE_kJmol>  (5) 
0.0

>  <rxn>  (5) 
rxn_960

>  <species_type>  (5) 
r0

>  <species_folder>  (5) 
rxn_960_C=C[C][C]C=C

>  <frequencies_cm1_list>  (5) 
[55.7255858718, 142.91569847984, 243.59943724168, 250.04753645715996, 341.08316084439997, 359.56908532584, 490.81090876168, 546.8592429435199, 586.89376735912, 682.6813455877999, 764.7280861911601, 864.3131073018001, 877.42218227768, 957.0998129456399, 982.96774664608, 1004.23480018212, 1020.31727980156, 1028.45465740576, 1074.8823451542798, 1211.9885740533998, 1279.2781632040799, 1315.0139548093598, 1360.63133829012, 1400.4461191754801, 1420.0719632200398, 1441.723567934, 1468.0927915628, 1488.2405264916797, 1525.7960692067597, 1597.66593756588, 3009.75159685876, 3060.48488440292, 3115.2559593152396, 3122.0886097086404, 3125.7967817814397, 3133.8517555617996, 3139.09126536096, 3221.11053802304, 3224.1388785491595]

>  <E0_kJmol>  (5) 
-614016

>  <H298_kJmol>  (5) 
-613995

$$$$
