
     RDKit          3D

 18 18  0  0  0  0  0  0  0  0999 V2000
    0.5986   -2.3223   -1.7768 C   0  0  0  0  0  0  0  0  0  1  0  0
    0.5409   -1.8907   -0.3372 C   0  0  0  0  0  0  0  0  0  2  0  0
    0.1975   -0.5097    0.0075 C   0  0  0  0  0  0  0  0  0  3  0  0
   -0.3838    0.3727   -0.9099 C   0  0  0  0  0  0  0  0  0  4  0  0
   -0.7732    1.6451   -0.5248 C   0  0  0  0  0  0  0  0  0  5  0  0
   -0.6000    2.0672    0.7852 C   0  0  0  0  0  0  0  0  0  6  0  0
   -0.0252    1.2040    1.7090 C   0  0  0  0  0  0  0  0  0  7  0  0
    0.3680   -0.0649    1.3253 C   0  0  0  0  0  0  0  0  0  8  0  0
    1.3368   -1.7445   -2.3420 H   0  0  0  0  0  0  0  0  0  9  0  0
   -0.3691   -2.1983   -2.2683 H   0  0  0  0  0  0  0  0  0 10  0  0
    0.8723   -3.3751   -1.8495 H   0  0  0  0  0  0  0  0  0 11  0  0
   -0.3111   -2.4333    0.0700 H   0  0  0  0  0  0  0  0  0 12  0  0
    1.3260   -2.3062    0.2929 H   0  0  0  0  0  0  0  0  0 13  0  0
   -0.5322    0.0606   -1.9356 H   0  0  0  0  0  0  0  0  0 14  0  0
   -1.2157    2.3124   -1.2540 H   0  0  0  0  0  0  0  0  0 15  0  0
   -0.9060    3.0617    1.0837 H   0  0  0  0  0  0  0  0  0 16  0  0
    0.1189    1.5243    2.7335 H   0  0  0  0  0  0  0  0  0 17  0  0
    0.8117   -0.7359    2.0519 H   0  0  0  0  0  0  0  0  0 18  0  0
  1 10  1  0
  1 11  1  0
  1  9  1  0
  1  2  1  0
  2 12  1  0
  2 13  1  0
  2  3  1  0
  3  4  1  0
  3  8  1  0
  4  5  1  0
  4 14  1  0
  5  6  1  0
  5 15  1  0
  6  7  1  0
  6 16  1  0
  7 17  1  0
  7  8  1  0
  8 18  1  0
M  END
>  <rmg_smiles>  (1) 
CCC1[CH][CH][CH][CH][CH]1

>  <rmg_adjacency_list>  (1) 
1  C u0 p0 c0 {2,S} {3,S} {9,S} {10,S}
2  C u0 p0 c0 {1,S} {11,S} {12,S} {13,S}
3  C u0 p0 c0 {1,S} {4,S} {5,S}
4  C u0 p0 c0 {3,S} {6,S} {14,S}
5  C u0 p0 c0 {3,S} {8,S} {18,S}
6  C u0 p0 c0 {4,S} {7,S} {15,S}
7  C u0 p0 c0 {6,S} {8,S} {16,S}
8  C u0 p0 c0 {5,S} {7,S} {17,S}
9  H u0 p0 c0 {1,S}
10 H u0 p0 c0 {1,S}
11 H u0 p0 c0 {2,S}
12 H u0 p0 c0 {2,S}
13 H u0 p0 c0 {2,S}
14 H u0 p0 c0 {4,S}
15 H u0 p0 c0 {6,S}
16 H u0 p0 c0 {7,S}
17 H u0 p0 c0 {8,S}
18 H u0 p0 c0 {5,S}


>  <multiplicity>  (1) 
1

>  <reaction>  (1) 
rxn_1507

>  <type>  (1) 
r1h

>  <role_mapnums>  (1) 
{"r1h_a": 2, "r1h_h": 12}

>  <role_mapidx>  (1) 
{"r1h_a": 1, "r1h_h": 11}

>  <ordered_mapped_smiles>  (1) 
[C:1]([C:2]([CH:3]1[CH:4]([H:14])[CH:5]([H:15])[CH:6]([H:16])[CH:7]([H:17])[CH:8]1[H:18])([H:12])[H:13])([H:9])([H:10])[H:11]

>  <mol_properties>  (1) 
{"1": {"label": "donator", "atom_type": "Cs"}, "11": {"label": "d_hydrogen", "atom_type": "H0"}}

>  <level_of_theory>  (1) 
wb97xd/def2tzvp

>  <lot_method>  (1) 
wb97xd

>  <lot_basis>  (1) 
def2tzvp

>  <spin_multiplicity>  (1) 
1.0

>  <optical_isomers>  (1) 
1.0

>  <modes>  (1) 
IdealGasTranslation(mass=(106.078, 'amu')),         NonlinearRotor(             inertia = ([110.416, 341.874, 411.865

>  <frequency_value>  (1) 
unknown

>  <frequency_units>  (1) 
unknown

>  <frequency_list>  (1) 
unknown

>  <arkane_path>  (1) 
/home/calvin/Dropbox/PersonalFolders/Calvin/HAb_Converged/rxn_1507/output/Species/rxn_1507_CCc1ccccc1/arkane/output.py

>  <path_exists>  (1) 
True

>  <E0_value>  (1) 
-815817.9037561571

>  <E0_units>  (1) 
kJ/mol

>  <thermo_class>  (1) 
NASA

>  <Cp0_value>  (1) 
33.257888

>  <Cp0_units>  (1) 
J/(mol*K)

>  <CpInf_value>  (1) 
432.352544

>  <CpInf_units>  (1) 
J/(mol*K)

>  <Tmin_value>  (1) 
10.0

>  <Tmin_units>  (1) 
K

>  <Tmax_value>  (1) 
3000.0

>  <Tmax_units>  (1) 
K

>  <polynomials>  (1) 
[{"name": "polynomial1", "class": "NASAPolynomial", "Tmin_value": 10.0, "Tmin_units": "K", "Tmax_value": 423.64221286564066, "Tmax_units": "K", "coeffs": [3.9313576428136847, 0.00433548241275686, 0.00021072402908531117, -3.936647014575837e-07, 2.39299197946727e-10, -98120227.55481465, 12.959903756557797]}, {"name": "polynomial2", "class": "NASAPolynomial", "Tmin_value": 423.64221286564066, "Tmin_units": "K", "Tmax_value": 3000.0, "Tmax_units": "K", "coeffs": [-3.831744087351853, 0.07763434183173747, -4.880767835098557e-05, 1.474976136685413e-08, -1.7152455638411797e-12, -98119569.80107659, 43.744896821921714]}]

>  <H298_value>  (1) 
-194980.06834128423

>  <H298_units>  (1) 
kcal/mol

>  <S298_value>  (1) 
85.45971865285561

>  <S298_units>  (1) 
cal/(mol*K)

>  <Cp_T_value_list>  (1) 
[30.814700172190967, 40.3659544276965, 48.72635221695798, 55.92346742650604, 67.34270920138786, 75.5723408499977, 87.237384341353, 92.9225471908414, 96.08425401549664]

>  <Cp_T_units>  (1) 
cal/(mol*K)

>  <T_list>  (1) 
[300.0, 400.0, 500.0, 600.0, 800.0, 1000.0, 1500.0, 2000.0, 2400.0]

>  <T_units>  (1) 
K

>  <yaml_path>  (1) 
/home/calvin/Dropbox/PersonalFolders/Calvin/HAb_Converged/rxn_1507/output/Species/rxn_1507_CCc1ccccc1/rxn_1507_CCc1ccccc1.yml

>  <frequencies_cm1>  (1) 
[34.3349266, 135.74656580575999, 222.50405833863996, 311.72679860139993, 360.38625657892, 413.90067317767995, 501.90109005348, 566.8971061072799, 633.36952400488, 715.5124024027199, 770.2697433443999, 787.05265546648, 789.67584385872, 862.2324107498398, 927.82585452648, 978.1333889808, 979.96687406124, 993.1308849196799, 1016.5747728021599, 1052.53030793768, 1054.54920162176, 1082.5459007714, 1116.4276063402797, 1174.3094256025597, 1199.89581290488, 1226.84186330056, 1261.7192817408397, 1329.56509670244, 1349.48622111576, 1353.9360276031198, 1398.4615604179999, 1477.6173002016399, 1482.14951051284, 1484.5254874335599, 1494.4826161475598, 1529.46990635296, 1639.9047642691999, 1662.1469297206797, 3013.28809429856, 3020.8349111652396, 3058.19131130604, 3090.8506934879597, 3092.1760216547195, 3142.7239005952397, 3143.62347567216, 3158.5385677872, 3168.2416180443593, 3180.7601322827195]

>  <ZPE_kJmol>  (1) 
409.36782000073936

>  <E_elec_kJmol>  (1) 
-816227.2715761579

>  <E0_minus_Eelec_plus_ZPE_kJmol>  (1) 
0.0

>  <rxn>  (1) 
rxn_1507

>  <species_type>  (1) 
r1

>  <species_folder>  (1) 
rxn_1507_CCc1ccccc1

>  <frequencies_cm1_list>  (1) 
[34.3349266, 135.74656580575999, 222.50405833863996, 311.72679860139993, 360.38625657892, 413.90067317767995, 501.90109005348, 566.8971061072799, 633.36952400488, 715.5124024027199, 770.2697433443999, 787.05265546648, 789.67584385872, 862.2324107498398, 927.82585452648, 978.1333889808, 979.96687406124, 993.1308849196799, 1016.5747728021599, 1052.53030793768, 1054.54920162176, 1082.5459007714, 1116.4276063402797, 1174.3094256025597, 1199.89581290488, 1226.84186330056, 1261.7192817408397, 1329.56509670244, 1349.48622111576, 1353.9360276031198, 1398.4615604179999, 1477.6173002016399, 1482.14951051284, 1484.5254874335599, 1494.4826161475598, 1529.46990635296, 1639.9047642691999, 1662.1469297206797, 3013.28809429856, 3020.8349111652396, 3058.19131130604, 3090.8506934879597, 3092.1760216547195, 3142.7239005952397, 3143.62347567216, 3158.5385677872, 3168.2416180443593, 3180.7601322827195]

>  <E0_kJmol>  (1) 
-815818

>  <H298_kJmol>  (1) 
-815797

$$$$

     RDKit          3D

 10  9  0  0  0  0  0  0  0  0999 V2000
   -0.8867    0.4677   -1.2160 S   0  0  0  0  0  0  0  0  0  1  0  0
    0.4419   -0.2678   -0.2856 C   0  0  0  0  0  0  0  0  0  2  0  0
    0.5056   -0.0347    1.1561 C   0  0  0  0  0  0  0  0  0  3  0  0
    1.0633   -0.8745    2.0282 C   0  0  0  0  0  0  0  0  0  4  0  0
   -0.6263    1.7395   -0.8753 H   0  0  0  0  0  0  0  0  0  5  0  0
    0.5543   -1.3088   -0.5834 H   0  0  0  0  0  0  0  0  0  6  0  0
    0.1212    0.9188    1.5063 H   0  0  0  0  0  0  0  0  0  7  0  0
    1.4584   -1.8355    1.7176 H   0  0  0  0  0  0  0  0  0  8  0  0
    1.1314   -0.6290    3.0797 H   0  0  0  0  0  0  0  0  0  9  0  0
    1.3442    0.1877   -0.6899 H   0  0  0  0  0  0  0  0  0 10  0  0
  1  2  1  0
  1  5  1  0
  2 10  1  0
  2  6  1  0
  2  3  1  0
  3  4  1  0
  3  7  1  0
  4  8  1  0
  4  9  1  0
M  END
>  <rmg_smiles>  (2) 
[CH2][CH]CS

>  <rmg_adjacency_list>  (2) 
1  S u0 p2 c0 {2,S} {10,S}
2  C u0 p0 c0 {1,S} {3,S} {5,S} {6,S}
3  C u0 p0 c0 {2,S} {4,S} {7,S}
4  C u0 p0 c0 {3,S} {8,S} {9,S}
5  H u0 p0 c0 {2,S}
6  H u0 p0 c0 {2,S}
7  H u0 p0 c0 {3,S}
8  H u0 p0 c0 {4,S}
9  H u0 p0 c0 {4,S}
10 H u0 p0 c0 {1,S}


>  <multiplicity>  (2) 
1

>  <reaction>  (2) 
rxn_1507

>  <type>  (2) 
r2h

>  <role_mapnums>  (2) 
{"r2h_a": 2, "r2h_h": 10}

>  <role_mapidx>  (2) 
{"r2h_a": 1, "r2h_h": 9}

>  <ordered_mapped_smiles>  (2) 
[S:1]([C:2]([CH:3]([CH:4]([H:8])[H:9])[H:7])([H:6])[H:10])[H:5]

>  <mol_properties>  (2) 
{"1": {"label": "acceptor", "atom_type": "Cs"}, "9": {"label": "a_hydrogen", "atom_type": "H0"}}

>  <level_of_theory>  (2) 
wb97xd/def2tzvp

>  <lot_method>  (2) 
wb97xd

>  <lot_basis>  (2) 
def2tzvp

>  <spin_multiplicity>  (2) 
1.0

>  <optical_isomers>  (2) 
2.0

>  <modes>  (2) 
IdealGasTranslation(mass=(74.019, 'amu')),         NonlinearRotor(             inertia = ([24.9739, 180.25, 186.44

>  <frequency_value>  (2) 
unknown

>  <frequency_units>  (2) 
unknown

>  <frequency_list>  (2) 
unknown

>  <arkane_path>  (2) 
/home/calvin/Dropbox/PersonalFolders/Calvin/HAb_Converged/rxn_1507/output/Species/rxn_1507_SCC=C/arkane/output.py

>  <path_exists>  (2) 
True

>  <E0_value>  (2) 
-1354838.6258243525

>  <E0_units>  (2) 
kJ/mol

>  <thermo_class>  (2) 
NASA

>  <Cp0_value>  (2) 
33.257888

>  <Cp0_units>  (2) 
J/(mol*K)

>  <CpInf_value>  (2) 
232.805216

>  <CpInf_units>  (2) 
J/(mol*K)

>  <Tmin_value>  (2) 
10.0

>  <Tmin_units>  (2) 
K

>  <Tmax_value>  (2) 
3000.0

>  <Tmax_units>  (2) 
K

>  <polynomials>  (2) 
[{"name": "polynomial1", "class": "NASAPolynomial", "Tmin_value": 10.0, "Tmin_units": "K", "Tmax_value": 400.65806020409946, "Tmax_units": "K", "coeffs": [3.883268576252178, 0.009872966694517036, 7.267081741219709e-05, -1.4952606927169204e-07, 9.638969446192109e-11, -162949446.9996889, 10.213451719731799]}, {"name": "polynomial2", "class": "NASAPolynomial", "Tmin_value": 400.65806020409946, "Tmin_units": "K", "Tmax_value": 3000.0, "Tmax_units": "K", "coeffs": [1.381946217098182, 0.03484518856752169, -2.0821510203899097e-05, 6.039055448516005e-09, -6.791318499482445e-13, -162949246.56534788, 19.9930512432755]}]

>  <H298_value>  (2) 
-323810.2515366824

>  <H298_units>  (2) 
kcal/mol

>  <S298_value>  (2) 
74.2752341119096

>  <S298_units>  (2) 
cal/(mol*K)

>  <Cp_T_value_list>  (2) 
[20.12858317623335, 24.557289426072625, 28.44010285073442, 31.814651802239496, 37.252480139055294, 41.26543233779768, 47.186294391719805, 50.14241959560657, 51.7278549409484]

>  <Cp_T_units>  (2) 
cal/(mol*K)

>  <T_list>  (2) 
[300.0, 400.0, 500.0, 600.0, 800.0, 1000.0, 1500.0, 2000.0, 2400.0]

>  <T_units>  (2) 
K

>  <yaml_path>  (2) 
/home/calvin/Dropbox/PersonalFolders/Calvin/HAb_Converged/rxn_1507/output/Species/rxn_1507_SCC=C/rxn_1507_SCC=C.yml

>  <frequencies_cm1>  (2) 
[109.00652496968, 245.3917204102, 290.63828668367995, 415.01999178484, 607.7556687612799, 738.8738864613599, 795.00462446704, 935.2971345546399, 957.23715265204, 997.0931354493199, 1031.7164754327598, 1111.56578073372, 1232.59639699872, 1263.93045101388, 1318.41311254276, 1435.2480007772401, 1465.33226346416, 1711.0192642431198, 2696.8986126648797, 3040.5500260189597, 3094.0163737204803, 3115.6885793903994, 3138.1779563133996, 3206.45639135016]

>  <ZPE_kJmol>  (2) 
209.0649957029236

>  <E_elec_kJmol>  (2) 
-1355047.6908200553

>  <E0_minus_Eelec_plus_ZPE_kJmol>  (2) 
0.0

>  <rxn>  (2) 
rxn_1507

>  <species_type>  (2) 
p0

>  <species_folder>  (2) 
rxn_1507_SCC=C

>  <frequencies_cm1_list>  (2) 
[109.00652496968, 245.3917204102, 290.63828668367995, 415.01999178484, 607.7556687612799, 738.8738864613599, 795.00462446704, 935.2971345546399, 957.23715265204, 997.0931354493199, 1031.7164754327598, 1111.56578073372, 1232.59639699872, 1263.93045101388, 1318.41311254276, 1435.2480007772401, 1465.33226346416, 1711.0192642431198, 2696.8986126648797, 3040.5500260189597, 3094.0163737204803, 3115.6885793903994, 3138.1779563133996, 3206.45639135016]

>  <E0_kJmol>  (2) 
-1.35484e+06

>  <H298_kJmol>  (2) 
-1.35482e+06

$$$$

     RDKit          3D

 27 26  0  0  0  0  0  0  0  0999 V2000
   -2.3444   -0.9664   -0.6196 S   0  0  0  0  0  0  0  0  0  1  0  0
   -1.0158   -1.7020    0.3109 C   0  0  0  0  0  0  0  0  0  2  0  0
   -0.9521   -1.4689    1.7526 C   0  0  0  0  0  0  0  0  0  3  0  0
   -0.3944   -2.3087    2.6246 C   0  0  0  0  0  0  0  0  0  4  0  0
   -2.0840    0.3054   -0.2789 H   0  0  0  0  0  0  0  0  0  5  0  0
   -0.9034   -2.7430    0.0130 H   0  0  0  0  0  0  0  0  0  6  0  0
   -1.3365   -0.5154    2.1028 H   0  0  0  0  0  0  0  0  0  7  0  0
    0.0007   -3.2696    2.3141 H   0  0  0  0  0  0  0  0  0  8  0  0
   -0.3263   -2.0631    3.6762 H   0  0  0  0  0  0  0  0  0  9  0  0
    1.2128   -0.8971   -2.1332 C   0  0  0  0  0  0  0  0  0 10  0  0
    1.1550   -0.4655   -0.6936 C   0  0  0  0  0  0  0  0  0 11  0  0
    0.8116    0.9155   -0.3489 C   0  0  0  0  0  0  0  0  0 12  0  0
    0.2303    1.7979   -1.2664 C   0  0  0  0  0  3  0  0  0 13  0  0
   -0.1591    3.0703   -0.8813 C   0  0  0  0  0  0  0  0  0 14  0  0
    0.0141    3.4924    0.4288 C   0  0  0  0  0  0  0  0  0 15  0  0
    0.5890    2.6292    1.3526 C   0  0  0  0  0  0  0  0  0 16  0  0
    0.9821    1.3603    0.9688 C   0  0  0  0  0  0  0  0  0 17  0  0
    1.9509   -0.3193   -2.6984 H   0  0  0  0  0  0  0  0  0 18  0  0
    0.2450   -0.7731   -2.6248 H   0  0  0  0  0  0  0  0  0 19  0  0
    1.4864   -1.9499   -2.2060 H   0  0  0  0  0  0  0  0  0 20  0  0
    0.0910   -1.1432   -0.1851 H   0  0  0  0  0  0  0  0  0 21  0  0
    1.9402   -0.8810   -0.0636 H   0  0  0  0  0  0  0  0  0 22  0  0
    0.0820    1.4858   -2.2920 H   0  0  0  0  0  0  0  0  0 23  0  0
   -0.6015    3.7376   -1.6105 H   0  0  0  0  0  0  0  0  0 24  0  0
   -0.2919    4.4869    0.7272 H   0  0  0  0  0  0  0  0  0 25  0  0
    0.7330    2.9495    2.3770 H   0  0  0  0  0  0  0  0  0 26  0  0
    1.4258    0.6893    1.6955 H   0  0  0  0  0  0  0  0  0 27  0  0
  1  5  1  0
  1  2  1  0
  2  6  1  0
  2  3  1  0
  2 21  1  0
  3  4  1  0
  3  7  1  0
  4  9  1  0
  4  8  1  0
 10 18  1  0
 10 11  1  0
 10 19  1  0
 10 20  1  0
 11 12  1  0
 11 22  1  0
 12 17  1  0
 12 13  1  0
 13 23  1  0
 13 14  1  0
 14 15  1  0
 14 24  1  0
 15 25  1  0
 15 16  1  0
 16 26  1  0
 16 17  1  0
 17 27  1  0
M  RAD  1  13   2
M  END
>  <rmg_smiles>  (3) 
C[CH][C]1[CH][CH][CH][CH][CH]1.[CH2][CH]CS

>  <rmg_adjacency_list>  (3) 
multiplicity 2
1  S u0 p2 c0 {2,S} {27,S}
2  C u0 p0 c0 {1,S} {6,S} {13,S} {14,S}
3  C u0 p0 c0 {5,S} {15,S} {16,S} {17,S}
4  C u0 p0 c0 {5,S} {7,S} {8,S}
5  C u0 p0 c0 {3,S} {4,S} {19,S}
6  C u0 p0 c0 {2,S} {12,S} {18,S}
7  C u1 p0 c0 {4,S} {9,S} {20,S}
8  C u0 p0 c0 {4,S} {11,S} {24,S}
9  C u0 p0 c0 {7,S} {10,S} {21,S}
10 C u0 p0 c0 {9,S} {11,S} {22,S}
11 C u0 p0 c0 {8,S} {10,S} {23,S}
12 C u0 p0 c0 {6,S} {25,S} {26,S}
13 H u0 p0 c0 {2,S}
14 H u0 p0 c0 {2,S}
15 H u0 p0 c0 {3,S}
16 H u0 p0 c0 {3,S}
17 H u0 p0 c0 {3,S}
18 H u0 p0 c0 {6,S}
19 H u0 p0 c0 {5,S}
20 H u0 p0 c0 {7,S}
21 H u0 p0 c0 {9,S}
22 H u0 p0 c0 {10,S}
23 H u0 p0 c0 {11,S}
24 H u0 p0 c0 {8,S}
25 H u0 p0 c0 {12,S}
26 H u0 p0 c0 {12,S}
27 H u0 p0 c0 {1,S}


>  <multiplicity>  (3) 
2

>  <reaction>  (3) 
rxn_1507

>  <type>  (3) 
ts

>  <role_mapnums>  (3) 
{"*2": 21, "*1": 11, "*3": 2, "*0": 1, "*4": 12}

>  <role_mapidx>  (3) 
{"*2": 20, "*1": 10, "*3": 1, "*0": 0, "*4": 11}

>  <ordered_mapped_smiles>  (3) 
[S:1]([C:2]([CH:3]([CH:4]([H:8])[H:9])[H:7])([H:6])[H:21])[H:5].[C:10]([CH:11]([CH:12]1[C:13]([H:23])[CH:14]([H:24])[CH:15]([H:25])[CH:16]([H:26])[CH:17]1[H:27])[H:22])([H:18])([H:19])[H:20]

>  <mol_properties>  (3) 
{"0": {"label": "*0", "atom_type": "S2s"}, "1": {"label": "*3", "atom_type": "Cs"}, "10": {"label": "*1", "atom_type": "Cs"}, "11": {"label": "*4", "atom_type": "Cs"}, "20": {"label": "*2", "atom_type": "H0"}}

>  <level_of_theory>  (3) 
wb97xd/def2tzvp

>  <lot_method>  (3) 
wb97xd

>  <lot_basis>  (3) 
def2tzvp

>  <spin_multiplicity>  (3) 
2.0

>  <optical_isomers>  (3) 
2.0

>  <modes>  (3) 
IdealGasTranslation(mass=(179.089, 'amu')),         NonlinearRotor(             inertia = ([522.447, 923.016, 1016.7

>  <frequency_value>  (3) 
-1761.4

>  <frequency_units>  (3) 
cm^-1

>  <frequency_list>  (3) 
unknown

>  <arkane_path>  (3) 
/home/calvin/Dropbox/PersonalFolders/Calvin/HAb_Converged/rxn_1507/output/rxns/TS0/arkane/output.py

>  <path_exists>  (3) 
True

>  <E0_value>  (3) 
-2168930.0

>  <E0_units>  (3) 
kJ/mol

>  <thermo_class>  (3) 
unknown

>  <Cp0_value>  (3) 
unknown

>  <Cp0_units>  (3) 
unknown

>  <CpInf_value>  (3) 
unknown

>  <CpInf_units>  (3) 
unknown

>  <Tmin_value>  (3) 
unknown

>  <Tmin_units>  (3) 
unknown

>  <Tmax_value>  (3) 
unknown

>  <Tmax_units>  (3) 
unknown

>  <polynomials>  (3) 
unknown

>  <H298_value>  (3) 
unknown

>  <H298_units>  (3) 
unknown

>  <S298_value>  (3) 
unknown

>  <S298_units>  (3) 
unknown

>  <Cp_T_value_list>  (3) 
unknown

>  <Cp_T_units>  (3) 
unknown

>  <T_list>  (3) 
unknown

>  <T_units>  (3) 
unknown

>  <yaml_path>  (3) 
unknown

>  <frequencies_cm1>  (3) 
unknown

>  <ZPE_kJmol>  (3) 
unknown

>  <E_elec_kJmol>  (3) 
unknown

>  <E0_minus_Eelec_plus_ZPE_kJmol>  (3) 
unknown

>  <rxn>  (3) 
unknown

>  <species_type>  (3) 
unknown

>  <species_folder>  (3) 
unknown

>  <frequencies_cm1_list>  (3) 
[]

>  <ts_imag_freq_cm1>  (3) 
-1782.7927

>  <ts_freq_out_path>  (3) 
/home/calvin/Dropbox/PersonalFolders/Calvin/HAb_Converged/rxn_1507/output/rxns/TS0/geometry/freq.out

>  <E0_kJmol>  (3) 
-2.16893e+06

>  <H298_kJmol>  (3) 
unknown

$$$$

     RDKit          3D

 17 17  0  0  0  0  0  0  0  0999 V2000
    2.7069    0.2860   -0.1817 C   0  0  0  0  0  0  0  0  0  1  0  0
    1.6304   -0.7245    0.0085 C   0  0  0  0  0  0  0  0  0  2  0  0
    1.4786   -1.8800   -0.7837 C   0  0  0  0  0  0  0  0  0  3  0  0
    0.4231   -2.7891   -0.5312 C   0  0  0  0  0  3  0  0  0  4  0  0
    0.2582   -3.9235   -1.2940 C   0  0  0  0  0  0  0  0  0  5  0  0
    1.1348   -4.2030   -2.3401 C   0  0  0  0  0  0  0  0  0  6  0  0
    2.1804   -3.3260   -2.6093 C   0  0  0  0  0  0  0  0  0  7  0  0
    2.3549   -2.1866   -1.8513 C   0  0  0  0  0  0  0  0  0  8  0  0
    2.6698    0.7343   -1.1808 H   0  0  0  0  0  0  0  0  0  9  0  0
    3.7029   -0.1584   -0.0766 H   0  0  0  0  0  0  0  0  0 10  0  0
    2.6250    1.0917    0.5463 H   0  0  0  0  0  0  0  0  0 11  0  0
    0.9136   -0.5677    0.8059 H   0  0  0  0  0  0  0  0  0 12  0  0
   -0.2629   -2.5783    0.2811 H   0  0  0  0  0  0  0  0  0 13  0  0
   -0.5582   -4.6017   -1.0785 H   0  0  0  0  0  0  0  0  0 14  0  0
    1.0033   -5.0952   -2.9384 H   0  0  0  0  0  0  0  0  0 15  0  0
    2.8650   -3.5382   -3.4214 H   0  0  0  0  0  0  0  0  0 16  0  0
    3.1750   -1.5169   -2.0772 H   0  0  0  0  0  0  0  0  0 17  0  0
  1 10  1  0
  1 11  1  0
  1  9  1  0
  1  2  1  0
  2 12  1  0
  2  3  1  0
  3  4  1  0
  3  8  1  0
  4  5  1  0
  4 13  1  0
  5 14  1  0
  5  6  1  0
  6 15  1  0
  6  7  1  0
  7  8  1  0
  7 16  1  0
  8 17  1  0
M  RAD  1   4   2
M  END
>  <rmg_smiles>  (4) 
C[CH]C1[CH][CH][CH][CH][CH]1

>  <rmg_adjacency_list>  (4) 
multiplicity 2
1  C u0 p0 c0 {3,S} {9,S} {10,S} {11,S}
2  C u0 p0 c0 {3,S} {4,S} {5,S}
3  C u0 p0 c0 {1,S} {2,S} {12,S}
4  C u1 p0 c0 {2,S} {6,S} {13,S}
5  C u0 p0 c0 {2,S} {8,S} {17,S}
6  C u0 p0 c0 {4,S} {7,S} {14,S}
7  C u0 p0 c0 {6,S} {8,S} {15,S}
8  C u0 p0 c0 {5,S} {7,S} {16,S}
9  H u0 p0 c0 {1,S}
10 H u0 p0 c0 {1,S}
11 H u0 p0 c0 {1,S}
12 H u0 p0 c0 {3,S}
13 H u0 p0 c0 {4,S}
14 H u0 p0 c0 {6,S}
15 H u0 p0 c0 {7,S}
16 H u0 p0 c0 {8,S}
17 H u0 p0 c0 {5,S}


>  <multiplicity>  (4) 
2

>  <reaction>  (4) 
rxn_1507

>  <type>  (4) 
r1

>  <role_mapnums>  (4) 
{}

>  <role_mapidx>  (4) 
{}

>  <ordered_mapped_smiles>  (4) 
[C:1]([CH:2]([CH:3]1[C:4]([H:13])[CH:5]([H:14])[CH:6]([H:15])[CH:7]([H:16])[CH:8]1[H:17])[H:12])([H:9])([H:10])[H:11]

>  <level_of_theory>  (4) 
wb97xd/def2tzvp

>  <lot_method>  (4) 
wb97xd

>  <lot_basis>  (4) 
def2tzvp

>  <spin_multiplicity>  (4) 
2.0

>  <optical_isomers>  (4) 
1.0

>  <modes>  (4) 
IdealGasTranslation(mass=(105.07, 'amu')),         NonlinearRotor(             inertia = ([100.906, 335.03, 432.828

>  <frequency_value>  (4) 
unknown

>  <frequency_units>  (4) 
unknown

>  <frequency_list>  (4) 
unknown

>  <arkane_path>  (4) 
/home/calvin/Dropbox/PersonalFolders/Calvin/HAb_Converged/rxn_1507/output/Species/rxn_1507_C[CH]c1ccccc1/arkane/output.py

>  <path_exists>  (4) 
True

>  <E0_value>  (4) 
-814145.4390471868

>  <E0_units>  (4) 
kJ/mol

>  <thermo_class>  (4) 
NASA

>  <Cp0_value>  (4) 
33.257888

>  <Cp0_units>  (4) 
J/(mol*K)

>  <CpInf_value>  (4) 
407.409128

>  <CpInf_units>  (4) 
J/(mol*K)

>  <Tmin_value>  (4) 
10.0

>  <Tmin_units>  (4) 
K

>  <Tmax_value>  (4) 
3000.0

>  <Tmax_units>  (4) 
K

>  <polynomials>  (4) 
[{"name": "polynomial1", "class": "NASAPolynomial", "Tmin_value": 10.0, "Tmin_units": "K", "Tmax_value": 500.0181965945725, "Tmax_units": "K", "coeffs": [3.899986948526094, 0.0061904905300886525, 0.00020706851194563026, -3.977105955988957e-07, 2.4150499526027994e-10, -97919075.07363199, 12.718849532292747]}, {"name": "polynomial2", "class": "NASAPolynomial", "Tmin_value": 500.0181965945725, "Tmin_units": "K", "Tmax_value": 3000.0, "Tmax_units": "K", "coeffs": [-1.970517894513406, 0.07180867834424715, -4.574442536416197e-05, 1.397905514411292e-08, -1.6399820111971568e-12, -97918721.21698426, 34.639664550558976]}]

>  <H298_value>  (4) 
-194580.26959244045

>  <H298_units>  (4) 
kcal/mol

>  <S298_value>  (4) 
85.3392210607043

>  <S298_units>  (4) 
cal/(mol*K)

>  <Cp_T_value_list>  (4) 
[31.02288591619177, 40.21349792515304, 47.9763276039249, 54.55603245481067, 64.9529019753296, 72.39951333986244, 82.85547162555633, 87.95746847782826, 90.85152645234143]

>  <Cp_T_units>  (4) 
cal/(mol*K)

>  <T_list>  (4) 
[300.0, 400.0, 500.0, 600.0, 800.0, 1000.0, 1500.0, 2000.0, 2400.0]

>  <T_units>  (4) 
K

>  <yaml_path>  (4) 
/home/calvin/Dropbox/PersonalFolders/Calvin/HAb_Converged/rxn_1507/output/Species/rxn_1507_C[CH]c1ccccc1/rxn_1507_CCHc1ccccc1.yml

>  <frequencies_cm1>  (4) 
[105.45629355923998, 120.83147369072, 216.25510169744, 238.46979920763997, 411.38735655056, 430.68358529975995, 477.9078433454, 558.86273328288, 625.17721051812, 625.35575213644, 690.24189642512, 769.39763620876, 797.72395065376, 833.5833479948, 901.31929119128, 970.7101778498799, 980.6055036959999, 988.6055415938, 1000.11460899012, 1025.94134077864, 1044.8942202618398, 1074.80680831576, 1128.88431771076, 1167.6621838128, 1182.4262022508, 1237.72603503276, 1316.38048488804, 1342.4681621187199, 1389.5344795019998, 1422.2556645518, 1466.88420214648, 1475.4885347524398, 1484.7520979491198, 1503.6912434616797, 1594.2805138031197, 1610.7269436445201, 2982.0364441072397, 3025.80660853692, 3101.1374374973198, 3147.482721422, 3152.804635045, 3154.61751916948, 3165.4673559750795, 3173.5635316673593, 3183.0811733208798]

>  <ZPE_kJmol>  (4) 
372.6218456560276

>  <E_elec_kJmol>  (4) 
-814518.0608928428

>  <E0_minus_Eelec_plus_ZPE_kJmol>  (4) 
0.0

>  <rxn>  (4) 
rxn_1507

>  <species_type>  (4) 
p1

>  <species_folder>  (4) 
rxn_1507_C[CH]c1ccccc1

>  <frequencies_cm1_list>  (4) 
[105.45629355923998, 120.83147369072, 216.25510169744, 238.46979920763997, 411.38735655056, 430.68358529975995, 477.9078433454, 558.86273328288, 625.17721051812, 625.35575213644, 690.24189642512, 769.39763620876, 797.72395065376, 833.5833479948, 901.31929119128, 970.7101778498799, 980.6055036959999, 988.6055415938, 1000.11460899012, 1025.94134077864, 1044.8942202618398, 1074.80680831576, 1128.88431771076, 1167.6621838128, 1182.4262022508, 1237.72603503276, 1316.38048488804, 1342.4681621187199, 1389.5344795019998, 1422.2556645518, 1466.88420214648, 1475.4885347524398, 1484.7520979491198, 1503.6912434616797, 1594.2805138031197, 1610.7269436445201, 2982.0364441072397, 3025.80660853692, 3101.1374374973198, 3147.482721422, 3152.804635045, 3154.61751916948, 3165.4673559750795, 3173.5635316673593, 3183.0811733208798]

>  <E0_kJmol>  (4) 
-814145

>  <H298_kJmol>  (4) 
-814124

$$$$

     RDKit          3D

  9  8  0  0  0  0  0  0  0  0999 V2000
    2.3991   -0.1292   -0.2384 S   0  0  0  0  0  0  0  0  0  1  0  0
    0.7460    0.2807    0.0931 C   0  0  0  0  0  3  0  0  0  2  0  0
   -0.3131   -0.5719   -0.2043 C   0  0  0  0  0  0  0  0  0  3  0  0
   -0.2286   -1.8095   -0.7775 C   0  0  0  0  0  0  0  0  0  4  0  0
    2.9373    1.0009    0.2312 H   0  0  0  0  0  0  0  0  0  5  0  0
    0.5618    1.2421    0.5487 H   0  0  0  0  0  0  0  0  0  6  0  0
   -1.2978   -0.1954    0.0537 H   0  0  0  0  0  0  0  0  0  7  0  0
    0.7207   -2.2479   -1.0607 H   0  0  0  0  0  0  0  0  0  8  0  0
   -1.1177   -2.3938   -0.9670 H   0  0  0  0  0  0  0  0  0  9  0  0
  1  2  1  0
  1  5  1  0
  2  6  1  0
  2  3  1  0
  3  4  1  0
  3  7  1  0
  4  8  1  0
  4  9  1  0
M  RAD  1   2   2
M  END
>  <rmg_smiles>  (5) 
[CH2][CH][CH]S

>  <rmg_adjacency_list>  (5) 
multiplicity 2
1 S u0 p2 c0 {3,S} {9,S}
2 C u0 p0 c0 {3,S} {4,S} {5,S}
3 C u1 p0 c0 {1,S} {2,S} {6,S}
4 C u0 p0 c0 {2,S} {7,S} {8,S}
5 H u0 p0 c0 {2,S}
6 H u0 p0 c0 {3,S}
7 H u0 p0 c0 {4,S}
8 H u0 p0 c0 {4,S}
9 H u0 p0 c0 {1,S}


>  <multiplicity>  (5) 
2

>  <reaction>  (5) 
rxn_1507

>  <type>  (5) 
r2

>  <role_mapnums>  (5) 
{}

>  <role_mapidx>  (5) 
{}

>  <ordered_mapped_smiles>  (5) 
[S:1]([C:2]([CH:3]([CH:4]([H:8])[H:9])[H:7])[H:6])[H:5]

>  <level_of_theory>  (5) 
wb97xd/def2tzvp

>  <lot_method>  (5) 
wb97xd

>  <lot_basis>  (5) 
def2tzvp

>  <spin_multiplicity>  (5) 
2.0

>  <optical_isomers>  (5) 
1.0

>  <modes>  (5) 
IdealGasTranslation(mass=(73.0112, 'amu')),         NonlinearRotor(             inertia = ([31.363, 134.913, 166.276

>  <frequency_value>  (5) 
unknown

>  <frequency_units>  (5) 
unknown

>  <frequency_list>  (5) 
unknown

>  <arkane_path>  (5) 
/home/calvin/Dropbox/PersonalFolders/Calvin/HAb_Converged/rxn_1507/output/Species/rxn_1507_S[CH]C=C/arkane/output.py

>  <path_exists>  (5) 
True

>  <E0_value>  (5) 
-1353189.912902829

>  <E0_units>  (5) 
kJ/mol

>  <thermo_class>  (5) 
NASA

>  <Cp0_value>  (5) 
33.257888

>  <Cp0_units>  (5) 
J/(mol*K)

>  <CpInf_value>  (5) 
207.8618

>  <CpInf_units>  (5) 
J/(mol*K)

>  <Tmin_value>  (5) 
10.0

>  <Tmin_units>  (5) 
K

>  <Tmax_value>  (5) 
3000.0

>  <Tmax_units>  (5) 
K

>  <polynomials>  (5) 
[{"name": "polynomial1", "class": "NASAPolynomial", "Tmin_value": 10.0, "Tmin_units": "K", "Tmax_value": 494.182421916781, "Tmax_units": "K", "coeffs": [3.9171373588949456, 0.005296732981537435, 0.00010660061491766757, -2.3200753792228283e-07, 1.5435566423865143e-10, -162751151.45822766, 10.011870120637145]}, {"name": "polynomial2", "class": "NASAPolynomial", "Tmin_value": 494.182421916781, "Tmin_units": "K", "Tmax_value": 3000.0, "Tmax_units": "K", "coeffs": [2.9684844905613335, 0.02976556892789463, -1.8633830366542493e-05, 5.689075317713255e-09, -6.722422089020262e-13, -162751262.7195864, 11.845549052817699]}]

>  <H298_value>  (5) 
-323416.2553145126

>  <H298_units>  (5) 
kcal/mol

>  <S298_value>  (5) 
73.32316749567646

>  <S298_units>  (5) 
cal/(mol*K)

>  <Cp_T_value_list>  (5) 
[20.043540963892376, 24.233886931081226, 27.5465186826771, 30.32748293405113, 34.761695296239196, 37.98953828173351, 42.701336869209946, 45.151374707895805, 46.535171933883085]

>  <Cp_T_units>  (5) 
cal/(mol*K)

>  <T_list>  (5) 
[300.0, 400.0, 500.0, 600.0, 800.0, 1000.0, 1500.0, 2000.0, 2400.0]

>  <T_units>  (5) 
K

>  <yaml_path>  (5) 
/home/calvin/Dropbox/PersonalFolders/Calvin/HAb_Converged/rxn_1507/output/Species/rxn_1507_S[CH]C=C/rxn_1507_SCHC=C.yml

>  <frequencies_cm1>  (5) 
[163.62652620496, 213.33663293644, 322.76891099595997, 534.6497430445601, 548.4317825817999, 640.07856866252, 767.52981620172, 810.9222964388, 939.69200515944, 969.4329185803599, 1056.3483517756, 1131.90579125156, 1228.8126880874, 1369.48974935292, 1427.04882030516, 1524.36086927488, 2717.97339061196, 3127.7744735536003, 3135.08094593408, 3196.4305927829596, 3224.57836560964]

>  <ZPE_kJmol>  (5) 
173.75927083469932

>  <E_elec_kJmol>  (5) 
-1353363.6721736635

>  <E0_minus_Eelec_plus_ZPE_kJmol>  (5) 
0.0

>  <rxn>  (5) 
rxn_1507

>  <species_type>  (5) 
r0

>  <species_folder>  (5) 
rxn_1507_S[CH]C=C

>  <frequencies_cm1_list>  (5) 
[163.62652620496, 213.33663293644, 322.76891099595997, 534.6497430445601, 548.4317825817999, 640.07856866252, 767.52981620172, 810.9222964388, 939.69200515944, 969.4329185803599, 1056.3483517756, 1131.90579125156, 1228.8126880874, 1369.48974935292, 1427.04882030516, 1524.36086927488, 2717.97339061196, 3127.7744735536003, 3135.08094593408, 3196.4305927829596, 3224.57836560964]

>  <E0_kJmol>  (5) 
-1.35319e+06

>  <H298_kJmol>  (5) 
-1.35317e+06

$$$$
