
     RDKit          3D

  5  4  0  0  0  0  0  0  0  0999 V2000
   -0.0038   -0.0433   -0.0317 C   0  0  0  0  0  0  0  0  0  1  0  0
    0.0658    0.8225    0.6163 H   0  0  0  0  0  0  0  0  0  2  0  0
    0.9970   -0.4510    0.0491 H   0  0  0  0  0  0  0  0  0  3  0  0
   -0.7925   -0.6199    0.4369 H   0  0  0  0  0  0  0  0  0  4  0  0
   -0.2520    0.4310   -0.9739 H   0  0  0  0  0  0  0  0  0  5  0  0
  1  3  1  0
  1  5  1  0
  1  4  1  0
  1  2  1  0
M  END
>  <rmg_smiles>  (1) 
C

>  <rmg_adjacency_list>  (1) 
1 C u0 p0 c0 {2,S} {3,S} {4,S} {5,S}
2 H u0 p0 c0 {1,S}
3 H u0 p0 c0 {1,S}
4 H u0 p0 c0 {1,S}
5 H u0 p0 c0 {1,S}


>  <multiplicity>  (1) 
1

>  <reaction>  (1) 
rxn_858

>  <type>  (1) 
r1h

>  <role_mapnums>  (1) 
{"r1h_a": 1, "r1h_h": 2}

>  <role_mapidx>  (1) 
{"r1h_a": 0, "r1h_h": 1}

>  <ordered_mapped_smiles>  (1) 
[C:1]([H:2])([H:3])([H:4])[H:5]

>  <mol_properties>  (1) 
{"0": {"label": "donator", "atom_type": "Cs"}, "1": {"label": "d_hydrogen", "atom_type": "H0"}}

>  <level_of_theory>  (1) 
wb97xd/def2tzvp

>  <lot_method>  (1) 
wb97xd

>  <lot_basis>  (1) 
def2tzvp

>  <spin_multiplicity>  (1) 
1.0

>  <optical_isomers>  (1) 
1.0

>  <modes>  (1) 
IdealGasTranslation(mass=(16.0313, 'amu')),         NonlinearRotor(             inertia = ([3.18679, 3.18679, 3.18679

>  <frequency_value>  (1) 
unknown

>  <frequency_units>  (1) 
unknown

>  <frequency_list>  (1) 
unknown

>  <arkane_path>  (1) 
/home/calvin/Dropbox/PersonalFolders/Calvin/HAb_Converged/rxn_858/output/Species/rxn_858_C/arkane/output.py

>  <path_exists>  (1) 
True

>  <E0_value>  (1) 
-106268.5262916272

>  <E0_units>  (1) 
kJ/mol

>  <thermo_class>  (1) 
NASA

>  <Cp0_value>  (1) 
33.257888

>  <Cp0_units>  (1) 
J/(mol*K)

>  <CpInf_value>  (1) 
108.088136

>  <CpInf_units>  (1) 
J/(mol*K)

>  <Tmin_value>  (1) 
10.0

>  <Tmin_units>  (1) 
K

>  <Tmax_value>  (1) 
3000.0

>  <Tmax_units>  (1) 
K

>  <polynomials>  (1) 
[{"name": "polynomial1", "class": "NASAPolynomial", "Tmin_value": 10.0, "Tmin_units": "K", "Tmax_value": 616.7595780986624, "Tmax_units": "K", "coeffs": [4.041420799946622, -0.002477807655966685, 1.1290457802459216e-05, 3.700688819348292e-09, -9.366412561864162e-12, -12781153.318458663, -0.42637433538586406]}, {"name": "polynomial2", "class": "NASAPolynomial", "Tmin_value": 616.7595780986624, "Tmin_units": "K", "Tmax_value": 3000.0, "Tmax_units": "K", "coeffs": [0.6800320423470843, 0.011684066325645743, -4.5749540261290126e-06, 7.694671628924811e-10, -3.8768177461555664e-14, -12780593.404419335, 15.343675764562182]}]

>  <H298_value>  (1) 
-25396.41264990868

>  <H298_units>  (1) 
kcal/mol

>  <S298_value>  (1) 
44.46392088520575

>  <S298_units>  (1) 
cal/(mol*K)

>  <Cp_T_value_list>  (1) 
[8.621039065772948, 9.645572285350525, 10.934239595808906, 12.330144838344452, 14.859142397339834, 16.9306880471269, 20.49440393107996, 22.423230884533538, 23.291918246513866]

>  <Cp_T_units>  (1) 
cal/(mol*K)

>  <T_list>  (1) 
[300.0, 400.0, 500.0, 600.0, 800.0, 1000.0, 1500.0, 2000.0, 2400.0]

>  <T_units>  (1) 
K

>  <yaml_path>  (1) 
/home/calvin/Dropbox/PersonalFolders/Calvin/HAb_Converged/rxn_858/output/Species/rxn_858_C/rxn_858_C.yml

>  <frequencies_cm1>  (1) 
[1326.5504901469599, 1326.5504901469599, 1326.5504901469599, 1542.24249904816, 1542.24249904816, 3008.8382878112, 3127.32125252248, 3127.32125252248, 3127.32125252248]

>  <ZPE_kJmol>  (1) 
116.36640738144024

>  <E_elec_kJmol>  (1) 
-106384.89269900863

>  <E0_minus_Eelec_plus_ZPE_kJmol>  (1) 
0.0

>  <rxn>  (1) 
rxn_858

>  <species_type>  (1) 
r1

>  <species_folder>  (1) 
rxn_858_C

>  <frequencies_cm1_list>  (1) 
[1326.5504901469599, 1326.5504901469599, 1326.5504901469599, 1542.24249904816, 1542.24249904816, 3008.8382878112, 3127.32125252248, 3127.32125252248, 3127.32125252248]

>  <E0_kJmol>  (1) 
-106269

>  <H298_kJmol>  (1) 
-106259

$$$$

     RDKit          3D

 11 10  0  0  0  0  0  0  0  0999 V2000
   -1.7502   -0.1077   -0.1755 C   0  0  0  0  0  0  0  0  0  1  0  0
   -0.3315   -0.6076   -0.0396 C   0  0  0  0  0  0  0  0  0  2  0  0
    0.7606    0.2731   -0.4765 C   0  0  0  0  0  0  0  0  0  3  0  0
    0.6101    1.6609   -1.2933 S   0  0  0  0  0  0  0  0  0  4  0  0
    0.0390   -1.4335    1.5324 S   0  0  0  0  0  0  0  0  0  5  0  0
   -1.9295    0.7305    0.5012 H   0  0  0  0  0  0  0  0  0  6  0  0
   -1.9354    0.2440   -1.1908 H   0  0  0  0  0  0  0  0  0  7  0  0
   -2.4521   -0.9047    0.0666 H   0  0  0  0  0  0  0  0  0  8  0  0
    1.7532   -0.1010   -0.2262 H   0  0  0  0  0  0  0  0  0  9  0  0
   -0.0452   -0.3399    2.3046 H   0  0  0  0  0  0  0  0  0 10  0  0
   -0.2616   -1.4617   -0.7132 H   0  0  0  0  0  0  0  0  0 11  0  0
  1  8  1  0
  1  7  1  0
  1  6  1  0
  1  2  1  0
  2 11  1  0
  2  5  1  0
  2  3  1  0
  3  9  1  0
  3  4  1  0
  5 10  1  0
M  END
>  <rmg_smiles>  (2) 
[S][CH]C(S)C

>  <rmg_adjacency_list>  (2) 
1  S u0 p2 c0 {3,S} {11,S}
2  S u0 p2 c0 {5,S}
3  C u0 p0 c0 {1,S} {4,S} {5,S} {6,S}
4  C u0 p0 c0 {3,S} {7,S} {8,S} {9,S}
5  C u0 p0 c0 {2,S} {3,S} {10,S}
6  H u0 p0 c0 {3,S}
7  H u0 p0 c0 {4,S}
8  H u0 p0 c0 {4,S}
9  H u0 p0 c0 {4,S}
10 H u0 p0 c0 {5,S}
11 H u0 p0 c0 {1,S}


>  <multiplicity>  (2) 
1

>  <reaction>  (2) 
rxn_858

>  <type>  (2) 
r2h

>  <role_mapnums>  (2) 
{"r2h_a": 2, "r2h_h": 11}

>  <role_mapidx>  (2) 
{"r2h_a": 1, "r2h_h": 10}

>  <ordered_mapped_smiles>  (2) 
[C:1]([C:2]([CH:3]([SH:4])[H:9])([S:5][H:10])[H:11])([H:6])([H:7])[H:8]

>  <mol_properties>  (2) 
{"1": {"label": "acceptor", "atom_type": "Cs"}, "10": {"label": "a_hydrogen", "atom_type": "H0"}}

>  <level_of_theory>  (2) 
wb97xd/def2tzvp

>  <lot_method>  (2) 
wb97xd

>  <lot_basis>  (2) 
def2tzvp

>  <spin_multiplicity>  (2) 
1.0

>  <optical_isomers>  (2) 
2.0

>  <modes>  (2) 
IdealGasTranslation(mass=(105.991, 'amu')),         NonlinearRotor(             inertia = ([89.5708, 281.116, 334.996

>  <frequency_value>  (2) 
unknown

>  <frequency_units>  (2) 
unknown

>  <frequency_list>  (2) 
unknown

>  <arkane_path>  (2) 
/home/calvin/Dropbox/PersonalFolders/Calvin/HAb_Converged/rxn_858/output/Species/rxn_858_CC[C=S]S/arkane/output.py

>  <path_exists>  (2) 
True

>  <E0_value>  (2) 
-2400319.162228284

>  <E0_units>  (2) 
kJ/mol

>  <thermo_class>  (2) 
NASA

>  <Cp0_value>  (2) 
33.257888

>  <Cp0_units>  (2) 
J/(mol*K)

>  <CpInf_value>  (2) 
257.748632

>  <CpInf_units>  (2) 
J/(mol*K)

>  <Tmin_value>  (2) 
10.0

>  <Tmin_units>  (2) 
K

>  <Tmax_value>  (2) 
3000.0

>  <Tmax_units>  (2) 
K

>  <polynomials>  (2) 
[{"name": "polynomial1", "class": "NASAPolynomial", "Tmin_value": 10.0, "Tmin_units": "K", "Tmax_value": 213.3428365177288, "Tmax_units": "K", "coeffs": [3.8247536777855875, 0.017151661039531946, 0.0001271021828908449, -4.6488747379545374e-07, 5.523324360529866e-10, -288691715.4758794, 11.853392235392128]}, {"name": "polynomial2", "class": "NASAPolynomial", "Tmin_value": 213.3428365177288, "Tmin_units": "K", "Tmax_value": 3000.0, "Tmax_units": "K", "coeffs": [2.678743717831134, 0.03863806708059261, -2.3965105109095725e-05, 7.169663786122436e-09, -8.265503532835025e-13, -288691666.57653993, 15.611826052912015]}]

>  <H298_value>  (2) 
-573685.353787409

>  <H298_units>  (2) 
kcal/mol

>  <S298_value>  (2) 
82.23962747696542

>  <S298_units>  (2) 
cal/(mol*K)

>  <Cp_T_value_list>  (2) 
[24.443018020947996, 29.285964025660572, 33.4865152276792, 37.11241795857413, 42.89155301844894, 47.086498598547244, 53.11318487748382, 56.092802545780735, 57.751349697154865]

>  <Cp_T_units>  (2) 
cal/(mol*K)

>  <T_list>  (2) 
[300.0, 400.0, 500.0, 600.0, 800.0, 1000.0, 1500.0, 2000.0, 2400.0]

>  <T_units>  (2) 
K

>  <yaml_path>  (2) 
/home/calvin/Dropbox/PersonalFolders/Calvin/HAb_Converged/rxn_858/output/Species/rxn_858_CC[C=S]S/rxn_858_CCC=SS.yml

>  <frequencies_cm1>  (2) 
[78.0776230884, 237.83116957288, 246.27756151647998, 261.803815325, 307.07098255444, 347.94327917908, 536.8403113616399, 647.2133664099999, 834.3799182919199, 854.93280535468, 904.74591686596, 1011.0331156489199, 1061.16897547024, 1102.98891606904, 1189.20391676164, 1225.11138299992, 1326.20714088096, 1372.0717358332397, 1412.7036879716798, 1470.8601866467598, 1475.4954017377597, 2690.43677947876, 3024.5224822820796, 3028.22378736956, 3082.0197503664394, 3103.4310105942004, 3117.84481278088]

>  <ZPE_kJmol>  (2) 
215.03144428280424

>  <E_elec_kJmol>  (2) 
-2400534.1936725667

>  <E0_minus_Eelec_plus_ZPE_kJmol>  (2) 
0.0

>  <rxn>  (2) 
rxn_858

>  <species_type>  (2) 
p0

>  <species_folder>  (2) 
rxn_858_CC[C=S]S

>  <frequencies_cm1_list>  (2) 
[78.0776230884, 237.83116957288, 246.27756151647998, 261.803815325, 307.07098255444, 347.94327917908, 536.8403113616399, 647.2133664099999, 834.3799182919199, 854.93280535468, 904.74591686596, 1011.0331156489199, 1061.16897547024, 1102.98891606904, 1189.20391676164, 1225.11138299992, 1326.20714088096, 1372.0717358332397, 1412.7036879716798, 1470.8601866467598, 1475.4954017377597, 2690.43677947876, 3024.5224822820796, 3028.22378736956, 3082.0197503664394, 3103.4310105942004, 3117.84481278088]

>  <E0_kJmol>  (2) 
-2.40032e+06

>  <H298_kJmol>  (2) 
-2.4003e+06

$$$$

     RDKit          3D

 15 13  0  0  0  0  0  0  0  0999 V2000
   -1.7236    0.1210   -0.0386 C   0  0  0  0  0  0  0  0  0  1  0  0
   -0.3048   -0.3790    0.0973 C   0  0  0  0  0  0  0  0  0  2  0  0
    0.7872    0.5018   -0.3395 C   0  0  0  0  0  0  0  0  0  3  0  0
    0.6368    1.8895   -1.1564 S   0  0  0  0  0  0  0  0  0  4  0  0
    0.0656   -1.2049    1.6693 S   0  0  0  0  0  0  0  0  0  5  0  0
   -1.9028    0.9592    0.6381 H   0  0  0  0  0  0  0  0  0  6  0  0
   -1.9088    0.4727   -1.0538 H   0  0  0  0  0  0  0  0  0  7  0  0
   -2.4254   -0.6761    0.2036 H   0  0  0  0  0  0  0  0  0  8  0  0
    1.7798    0.1276   -0.0892 H   0  0  0  0  0  0  0  0  0  9  0  0
   -0.0185   -0.1113    2.4415 H   0  0  0  0  0  0  0  0  0 10  0  0
   -0.3218   -2.5471   -1.5643 C   0  0  0  0  0  3  0  0  0 11  0  0
   -0.2255   -1.3487   -0.6675 H   0  0  0  0  0  0  0  0  0 12  0  0
    0.6790   -2.9549   -1.4835 H   0  0  0  0  0  0  0  0  0 13  0  0
   -1.1105   -3.1237   -1.0957 H   0  0  0  0  0  0  0  0  0 14  0  0
   -0.5700   -2.0729   -2.5065 H   0  0  0  0  0  0  0  0  0 15  0  0
  1  8  1  0
  1  7  1  0
  1  6  1  0
  1  2  1  0
  2 12  1  0
  2  5  1  0
  2  3  1  0
  3  9  1  0
  3  4  1  0
  5 10  1  0
 11 14  1  0
 11 15  1  0
 11 13  1  0
M  RAD  1  11   2
M  END
>  <rmg_smiles>  (3) 
[S][CH]C(S)C.[CH3]

>  <rmg_adjacency_list>  (3) 
multiplicity 2
1  S u0 p2 c0 {3,S} {15,S}
2  S u0 p2 c0 {5,S}
3  C u0 p0 c0 {1,S} {4,S} {5,S} {7,S}
4  C u0 p0 c0 {3,S} {8,S} {9,S} {10,S}
5  C u0 p0 c0 {2,S} {3,S} {11,S}
6  C u1 p0 c0 {12,S} {13,S} {14,S}
7  H u0 p0 c0 {3,S}
8  H u0 p0 c0 {4,S}
9  H u0 p0 c0 {4,S}
10 H u0 p0 c0 {4,S}
11 H u0 p0 c0 {5,S}
12 H u0 p0 c0 {6,S}
13 H u0 p0 c0 {6,S}
14 H u0 p0 c0 {6,S}
15 H u0 p0 c0 {1,S}


>  <multiplicity>  (3) 
2

>  <reaction>  (3) 
rxn_858

>  <type>  (3) 
ts

>  <role_mapnums>  (3) 
{"*2": 12, "*1": 11, "*3": 2, "*0": 3, "*4": 13}

>  <role_mapidx>  (3) 
{"*2": 11, "*1": 10, "*3": 1, "*0": 2, "*4": 12}

>  <ordered_mapped_smiles>  (3) 
[C:1]([C:2]([CH:3]([SH:4])[H:9])([S:5][H:10])[H:12])([H:6])([H:7])[H:8].[C:11]([H:13])([H:14])[H:15]

>  <mol_properties>  (3) 
{"1": {"label": "*3", "atom_type": "Cs"}, "2": {"label": "*0", "atom_type": "Cs"}, "10": {"label": "*1", "atom_type": "Cs"}, "11": {"label": "*2", "atom_type": "H0"}, "12": {"label": "*4", "atom_type": "H0"}}

>  <level_of_theory>  (3) 
wb97xd/def2tzvp

>  <lot_method>  (3) 
wb97xd

>  <lot_basis>  (3) 
def2tzvp

>  <spin_multiplicity>  (3) 
2.0

>  <optical_isomers>  (3) 
2.0

>  <modes>  (3) 
IdealGasTranslation(mass=(121.015, 'amu')),         NonlinearRotor(             inertia = ([201.807, 387.014, 460.894

>  <frequency_value>  (3) 
-1309.45

>  <frequency_units>  (3) 
cm^-1

>  <frequency_list>  (3) 
unknown

>  <arkane_path>  (3) 
/home/calvin/Dropbox/PersonalFolders/Calvin/HAb_Converged/rxn_858/output/rxns/TS0/arkane/output.py

>  <path_exists>  (3) 
True

>  <E0_value>  (3) 
-2504820.0

>  <E0_units>  (3) 
kJ/mol

>  <thermo_class>  (3) 
unknown

>  <Cp0_value>  (3) 
unknown

>  <Cp0_units>  (3) 
unknown

>  <CpInf_value>  (3) 
unknown

>  <CpInf_units>  (3) 
unknown

>  <Tmin_value>  (3) 
unknown

>  <Tmin_units>  (3) 
unknown

>  <Tmax_value>  (3) 
unknown

>  <Tmax_units>  (3) 
unknown

>  <polynomials>  (3) 
unknown

>  <H298_value>  (3) 
unknown

>  <H298_units>  (3) 
unknown

>  <S298_value>  (3) 
unknown

>  <S298_units>  (3) 
unknown

>  <Cp_T_value_list>  (3) 
unknown

>  <Cp_T_units>  (3) 
unknown

>  <T_list>  (3) 
unknown

>  <T_units>  (3) 
unknown

>  <yaml_path>  (3) 
unknown

>  <frequencies_cm1>  (3) 
unknown

>  <ZPE_kJmol>  (3) 
unknown

>  <E_elec_kJmol>  (3) 
unknown

>  <E0_minus_Eelec_plus_ZPE_kJmol>  (3) 
unknown

>  <rxn>  (3) 
unknown

>  <species_type>  (3) 
unknown

>  <species_folder>  (3) 
unknown

>  <frequencies_cm1_list>  (3) 
[]

>  <ts_imag_freq_cm1>  (3) 
-1325.3493

>  <ts_freq_out_path>  (3) 
/home/calvin/Dropbox/PersonalFolders/Calvin/HAb_Converged/rxn_858/output/rxns/TS0/geometry/freq.out

>  <E0_kJmol>  (3) 
-2.50482e+06

>  <H298_kJmol>  (3) 
unknown

$$$$

     RDKit          3D

  4  3  0  0  0  0  0  0  0  0999 V2000
    0.0000    0.0000    0.0000 C   0  0  0  0  0  3  0  0  0  1  0  0
    1.0638   -0.1747    0.0540 H   0  0  0  0  0  0  0  0  0  2  0  0
   -0.6833   -0.8351   -0.0280 H   0  0  0  0  0  0  0  0  0  3  0  0
   -0.3805    1.0098   -0.0260 H   0  0  0  0  0  0  0  0  0  4  0  0
  1  3  1  0
  1  4  1  0
  1  2  1  0
M  RAD  1   1   2
M  END
>  <rmg_smiles>  (4) 
[CH3]

>  <rmg_adjacency_list>  (4) 
multiplicity 2
1 C u1 p0 c0 {2,S} {3,S} {4,S}
2 H u0 p0 c0 {1,S}
3 H u0 p0 c0 {1,S}
4 H u0 p0 c0 {1,S}


>  <multiplicity>  (4) 
2

>  <reaction>  (4) 
rxn_858

>  <type>  (4) 
r1

>  <role_mapnums>  (4) 
{}

>  <role_mapidx>  (4) 
{}

>  <ordered_mapped_smiles>  (4) 
[C:1]([H:2])([H:3])[H:4]

>  <level_of_theory>  (4) 
wb97xd/def2tzvp

>  <lot_method>  (4) 
wb97xd

>  <lot_basis>  (4) 
def2tzvp

>  <spin_multiplicity>  (4) 
2.0

>  <optical_isomers>  (4) 
1.0

>  <modes>  (4) 
IdealGasTranslation(mass=(15.0235, 'amu')),         NonlinearRotor(             inertia = ([1.76141, 1.76141, 3.52282

>  <frequency_value>  (4) 
unknown

>  <frequency_units>  (4) 
unknown

>  <frequency_list>  (4) 
unknown

>  <arkane_path>  (4) 
/home/calvin/Dropbox/PersonalFolders/Calvin/HAb_Converged/rxn_858/output/Species/rxn_858_[CH3]/arkane/output.py

>  <path_exists>  (4) 
True

>  <E0_value>  (4) 
-104520.13119505512

>  <E0_units>  (4) 
kJ/mol

>  <thermo_class>  (4) 
NASA

>  <Cp0_value>  (4) 
33.257888

>  <Cp0_units>  (4) 
J/(mol*K)

>  <CpInf_value>  (4) 
83.14472

>  <CpInf_units>  (4) 
J/(mol*K)

>  <Tmin_value>  (4) 
10.0

>  <Tmin_units>  (4) 
K

>  <Tmax_value>  (4) 
3000.0

>  <Tmax_units>  (4) 
K

>  <polynomials>  (4) 
[{"name": "polynomial1", "class": "NASAPolynomial", "Tmin_value": 10.0, "Tmin_units": "K", "Tmax_value": 646.6680568167106, "Tmax_units": "K", "coeffs": [3.9912271000461548, 0.0004274218009639198, 9.38132315134313e-06, -1.0944874554220949e-08, 4.263406085556096e-12, -12570867.748368958, 0.20527673099681187]}, {"name": "polynomial2", "class": "NASAPolynomial", "Tmin_value": 646.6680568167106, "Tmin_units": "K", "Tmax_value": 3000.0, "Tmax_units": "K", "coeffs": [3.2488827598675174, 0.0050187516265713635, -1.2675301815554908e-06, 3.215102013021586e-11, 2.0164394281080815e-14, -12570771.728238096, 3.4631324604304954]}]

>  <H298_value>  (4) 
-24978.383291331436

>  <H298_units>  (4) 
kcal/mol

>  <S298_value>  (4) 
46.49953999396709

>  <S298_units>  (4) 
cal/(mol*K)

>  <Cp_T_value_list>  (4) 
[9.345424201068383, 10.07887042200736, 10.827537754048599, 11.552428339520182, 12.871902382304132, 14.014614114932202, 16.167234911840477, 17.479674567657305, 18.096247059343543]

>  <Cp_T_units>  (4) 
cal/(mol*K)

>  <T_list>  (4) 
[300.0, 400.0, 500.0, 600.0, 800.0, 1000.0, 1500.0, 2000.0, 2400.0]

>  <T_units>  (4) 
K

>  <yaml_path>  (4) 
/home/calvin/Dropbox/PersonalFolders/Calvin/HAb_Converged/rxn_858/output/Species/rxn_858_[CH3]/rxn_858_CH3.yml

>  <frequencies_cm1>  (4) 
[520.22220688724, 1393.4280601784399, 1393.43492716376, 3088.8592677451597, 3268.6163424668, 3268.6232094521197]

>  <ZPE_kJmol>  (4) 
77.35764153782172

>  <E_elec_kJmol>  (4) 
-104597.48883659294

>  <E0_minus_Eelec_plus_ZPE_kJmol>  (4) 
0.0

>  <rxn>  (4) 
rxn_858

>  <species_type>  (4) 
p1

>  <species_folder>  (4) 
rxn_858_[CH3]

>  <frequencies_cm1_list>  (4) 
[520.22220688724, 1393.4280601784399, 1393.43492716376, 3088.8592677451597, 3268.6163424668, 3268.6232094521197]

>  <E0_kJmol>  (4) 
-104520

>  <H298_kJmol>  (4) 
-104510

$$$$

     RDKit          3D

 10  9  0  0  0  0  0  0  0  0999 V2000
   -1.3354   -0.2069    0.0525 C   0  0  0  0  0  0  0  0  0  1  0  0
    0.0851    0.2624    0.0266 C   0  0  0  0  0  0  0  0  0  2  0  0
    0.4841    1.3876    0.7359 C   0  0  0  0  0  0  0  0  0  3  0  0
    2.0191    2.0303    0.8057 S   0  0  0  0  0  1  0  0  0  4  0  0
    1.1566   -0.6823   -0.9297 S   0  0  0  0  0  0  0  0  0  5  0  0
   -1.7589   -0.2174   -0.9545 H   0  0  0  0  0  0  0  0  0  6  0  0
   -1.4004   -1.2253    0.4427 H   0  0  0  0  0  0  0  0  0  7  0  0
   -1.9442    0.4442    0.6783 H   0  0  0  0  0  0  0  0  0  8  0  0
   -0.3073    1.8814    1.2951 H   0  0  0  0  0  0  0  0  0  9  0  0
    2.2383    0.0827   -0.6554 H   0  0  0  0  0  0  0  0  0 10  0  0
  1  8  1  0
  1  7  1  0
  1  6  1  0
  1  2  1  0
  2  5  1  0
  2  3  1  0
  3  9  1  0
  3  4  1  0
  5 10  1  0
M  RAD  1   4   2
M  END
>  <rmg_smiles>  (5) 
[S][CH][C](S)C

>  <rmg_adjacency_list>  (5) 
multiplicity 2
1  S u0 p2 c0 {4,S} {10,S}
2  S u1 p2 c0 {5,S}
3  C u0 p0 c0 {4,S} {6,S} {7,S} {8,S}
4  C u0 p0 c0 {1,S} {3,S} {5,S}
5  C u0 p0 c0 {2,S} {4,S} {9,S}
6  H u0 p0 c0 {3,S}
7  H u0 p0 c0 {3,S}
8  H u0 p0 c0 {3,S}
9  H u0 p0 c0 {5,S}
10 H u0 p0 c0 {1,S}


>  <multiplicity>  (5) 
2

>  <reaction>  (5) 
rxn_858

>  <type>  (5) 
r2

>  <role_mapnums>  (5) 
{}

>  <role_mapidx>  (5) 
{}

>  <ordered_mapped_smiles>  (5) 
[C:1]([CH:2]([CH:3]([S:4])[H:9])[S:5][H:10])([H:6])([H:7])[H:8]

>  <level_of_theory>  (5) 
wb97xd/def2tzvp

>  <lot_method>  (5) 
wb97xd

>  <lot_basis>  (5) 
def2tzvp

>  <spin_multiplicity>  (5) 
2.0

>  <optical_isomers>  (5) 
1.0

>  <modes>  (5) 
IdealGasTranslation(mass=(104.983, 'amu')),         NonlinearRotor(             inertia = ([100.49, 235.605, 332.975

>  <frequency_value>  (5) 
unknown

>  <frequency_units>  (5) 
unknown

>  <frequency_list>  (5) 
unknown

>  <arkane_path>  (5) 
/home/calvin/Dropbox/PersonalFolders/Calvin/HAb_Converged/rxn_858/output/Species/rxn_858_C[C][C=S]S/arkane/output.py

>  <path_exists>  (5) 
True

>  <E0_value>  (5) 
-2398728.4301470886

>  <E0_units>  (5) 
kJ/mol

>  <thermo_class>  (5) 
NASA

>  <Cp0_value>  (5) 
33.257888

>  <Cp0_units>  (5) 
J/(mol*K)

>  <CpInf_value>  (5) 
232.805216

>  <CpInf_units>  (5) 
J/(mol*K)

>  <Tmin_value>  (5) 
10.0

>  <Tmin_units>  (5) 
K

>  <Tmax_value>  (5) 
3000.0

>  <Tmax_units>  (5) 
K

>  <polynomials>  (5) 
[{"name": "polynomial1", "class": "NASAPolynomial", "Tmin_value": 10.0, "Tmin_units": "K", "Tmax_value": 174.01726113942388, "Tmax_units": "K", "coeffs": [3.9082014614847895, 0.009872915439602193, 0.0002057584614251195, -8.728618456878904e-07, 1.263986644581055e-09, -288500402.10474426, 11.702702284946598]}, {"name": "polynomial2", "class": "NASAPolynomial", "Tmin_value": 174.01726113942388, "Tmin_units": "K", "Tmax_value": 3000.0, "Tmax_units": "K", "coeffs": [2.7483218276330854, 0.03653436950450788, -2.4060579297723113e-05, 7.590116446699495e-09, -9.145171304727525e-13, -288500361.7372306, 15.270275939437306]}]

>  <H298_value>  (5) 
-573305.3360940289

>  <H298_units>  (5) 
kcal/mol

>  <S298_value>  (5) 
81.10142956929253

>  <S298_units>  (5) 
cal/(mol*K)

>  <Cp_T_value_list>  (5) 
[23.331207482754937, 27.77067978154661, 31.580624091189616, 34.831911972780674, 39.92019668355091, 43.51527435205942, 48.488777974072114, 50.99847756573189, 52.51423316121439]

>  <Cp_T_units>  (5) 
cal/(mol*K)

>  <T_list>  (5) 
[300.0, 400.0, 500.0, 600.0, 800.0, 1000.0, 1500.0, 2000.0, 2400.0]

>  <T_units>  (5) 
K

>  <yaml_path>  (5) 
/home/calvin/Dropbox/PersonalFolders/Calvin/HAb_Converged/rxn_858/output/Species/rxn_858_C[C][C=S]S/rxn_858_CCC=SS.yml

>  <frequencies_cm1>  (5) 
[87.10770878419999, 202.9537511326, 210.78211439739997, 327.18438255672, 442.76261247763995, 467.34641992324003, 480.1258796037599, 647.00048986508, 830.9944945291601, 879.7157553745599, 933.5735212393199, 1024.4992738614399, 1031.5035988878399, 1155.4389499432, 1323.3985438850798, 1397.47958151724, 1408.19207861644, 1459.59833072196, 1480.63877374244, 2543.7099041463202, 3014.00912775716, 3075.6540549747997, 3103.56148331528, 3112.8731154092]

>  <ZPE_kJmol>  (5) 
183.26857293928828

>  <E_elec_kJmol>  (5) 
-2398911.698720028

>  <E0_minus_Eelec_plus_ZPE_kJmol>  (5) 
0.0

>  <rxn>  (5) 
rxn_858

>  <species_type>  (5) 
r0

>  <species_folder>  (5) 
rxn_858_C[C][C=S]S

>  <frequencies_cm1_list>  (5) 
[87.10770878419999, 202.9537511326, 210.78211439739997, 327.18438255672, 442.76261247763995, 467.34641992324003, 480.1258796037599, 647.00048986508, 830.9944945291601, 879.7157553745599, 933.5735212393199, 1024.4992738614399, 1031.5035988878399, 1155.4389499432, 1323.3985438850798, 1397.47958151724, 1408.19207861644, 1459.59833072196, 1480.63877374244, 2543.7099041463202, 3014.00912775716, 3075.6540549747997, 3103.56148331528, 3112.8731154092]

>  <E0_kJmol>  (5) 
-2.39873e+06

>  <H298_kJmol>  (5) 
-2.39871e+06

$$$$
