
     RDKit          3D

  9  8  0  0  0  0  0  0  0  0999 V2000
    1.4446   -0.3701   -1.7895 C   0  0  0  0  0  2  0  0  0  1  0  0
    0.9539   -0.3328   -0.6942 C   0  0  0  0  0  2  0  0  0  2  0  0
    0.4389   -0.2358    0.6356 C   0  0  0  0  0  0  0  0  0  3  0  0
   -0.9011    0.2356    0.7999 C   0  0  0  0  0  2  0  0  0  4  0  0
   -2.0012    0.6803    0.9800 C   0  0  0  0  0  2  0  0  0  5  0  0
    1.8562   -0.4261   -2.7685 H   0  0  0  0  0  0  0  0  0  6  0  0
    1.0589    0.5404    1.0824 H   0  0  0  0  0  0  0  0  0  7  0  0
    0.6962   -1.0831    1.2701 H   0  0  0  0  0  0  0  0  0  8  0  0
   -2.9840    1.0600    1.1238 H   0  0  0  0  0  0  0  0  0  9  0  0
  1  6  1  0
  1  2  1  0
  2  3  1  0
  3  4  1  0
  3  7  1  0
  3  8  1  0
  4  5  1  0
  5  9  1  0
M  RAD  4   1   3   2   3   4   3   5   3
M  END
>  <rmg_smiles>  (1) 
[CH][C]C[C][CH]

>  <rmg_adjacency_list>  (1) 
1 C u0 p0 c0 {2,S} {3,S} {6,S} {7,S}
2 C u0 p1 c0 {1,S} {4,S}
3 C u0 p1 c0 {1,S} {5,S}
4 C u0 p1 c0 {2,S} {8,S}
5 C u0 p1 c0 {3,S} {9,S}
6 H u0 p0 c0 {1,S}
7 H u0 p0 c0 {1,S}
8 H u0 p0 c0 {4,S}
9 H u0 p0 c0 {5,S}


>  <multiplicity>  (1) 
1

>  <reaction>  (1) 
rxn_1380

>  <type>  (1) 
r1h

>  <role_mapnums>  (1) 
{"r1h_a": 3, "r1h_h": 7}

>  <role_mapidx>  (1) 
{"r1h_a": 2, "r1h_h": 6}

>  <ordered_mapped_smiles>  (1) 
[C:1]([C:2][C:3]([C:4][C:5][H:9])([H:7])[H:8])[H:6]

>  <mol_properties>  (1) 
{"2": {"label": "donator", "atom_type": "Cs"}, "6": {"label": "d_hydrogen", "atom_type": "H0"}}

>  <level_of_theory>  (1) 
wb97xd/def2tzvp

>  <lot_method>  (1) 
wb97xd

>  <lot_basis>  (1) 
def2tzvp

>  <spin_multiplicity>  (1) 
1.0

>  <optical_isomers>  (1) 
1.0

>  <modes>  (1) 
IdealGasTranslation(mass=(64.0313, 'amu')),         NonlinearRotor(             inertia = ([26.0751, 176.474, 199.453

>  <frequency_value>  (1) 
unknown

>  <frequency_units>  (1) 
unknown

>  <frequency_list>  (1) 
unknown

>  <arkane_path>  (1) 
/home/calvin/Dropbox/PersonalFolders/Calvin/HAb_Converged/rxn_1380/output/Species/rxn_1380_CtCCCtC/arkane/output.py

>  <path_exists>  (1) 
True

>  <E0_value>  (1) 
-505987.19351265096

>  <E0_units>  (1) 
kJ/mol

>  <thermo_class>  (1) 
NASA

>  <Cp0_value>  (1) 
33.257888

>  <Cp0_units>  (1) 
J/(mol*K)

>  <CpInf_value>  (1) 
207.8618

>  <CpInf_units>  (1) 
J/(mol*K)

>  <Tmin_value>  (1) 
10.0

>  <Tmin_units>  (1) 
K

>  <Tmax_value>  (1) 
3000.0

>  <Tmax_units>  (1) 
K

>  <polynomials>  (1) 
[{"name": "polynomial1", "class": "NASAPolynomial", "Tmin_value": 10.0, "Tmin_units": "K", "Tmax_value": 497.8513259912737, "Tmax_units": "K", "coeffs": [3.8915923857803536, 0.006957077216274673, 0.00011247108954423451, -2.58415972479989e-07, 1.7696354569532415e-10, -60856199.4251038, 8.432123404375208]}, {"name": "polynomial2", "class": "NASAPolynomial", "Tmin_value": 497.8513259912737, "Tmin_units": "K", "Tmax_value": 3000.0, "Tmax_units": "K", "coeffs": [4.075787334974484, 0.027762889535938477, -1.736147806652233e-05, 5.355292661241066e-09, -6.423462202508128e-13, -60856493.94799508, 4.89821145227154]}]

>  <H298_value>  (1) 
-120929.79228656254

>  <H298_units>  (1) 
kcal/mol

>  <S298_value>  (1) 
71.02155085771051

>  <S298_units>  (1) 
cal/(mol*K)

>  <Cp_T_value_list>  (1) 
[20.979509503559502, 25.16090011310623, 28.30999724146717, 30.91474121272046, 35.081264888538236, 38.134781385911204, 42.68326999943224, 45.150237682434486, 46.5496532279807]

>  <Cp_T_units>  (1) 
cal/(mol*K)

>  <T_list>  (1) 
[300.0, 400.0, 500.0, 600.0, 800.0, 1000.0, 1500.0, 2000.0, 2400.0]

>  <T_units>  (1) 
K

>  <yaml_path>  (1) 
/home/calvin/Dropbox/PersonalFolders/Calvin/HAb_Converged/rxn_1380/output/Species/rxn_1380_CtCCCtC/rxn_1380_CtCCCtC.yml

>  <frequencies_cm1>  (1) 
[136.57060404415998, 317.76287869768, 341.09689481504, 341.70805650852003, 565.30396551304, 688.26420465296, 689.33545436288, 698.59215057424, 701.977574337, 902.24633420948, 929.56320181244, 996.6124464769199, 1233.63331178204, 1332.80631377348, 1444.34675632624, 2232.8002767979997, 2237.0990096083196, 3019.1456327765195, 3054.0230512167996, 3436.67207420316, 3437.69525501584]

>  <ZPE_kJmol>  (1) 
171.88700812582363

>  <E_elec_kJmol>  (1) 
-506159.0805207768

>  <E0_minus_Eelec_plus_ZPE_kJmol>  (1) 
0.0

>  <rxn>  (1) 
rxn_1380

>  <species_type>  (1) 
r0

>  <species_folder>  (1) 
rxn_1380_CtCCCtC

>  <frequencies_cm1_list>  (1) 
[136.57060404415998, 317.76287869768, 341.09689481504, 341.70805650852003, 565.30396551304, 688.26420465296, 689.33545436288, 698.59215057424, 701.977574337, 902.24633420948, 929.56320181244, 996.6124464769199, 1233.63331178204, 1332.80631377348, 1444.34675632624, 2232.8002767979997, 2237.0990096083196, 3019.1456327765195, 3054.0230512167996, 3436.67207420316, 3437.69525501584]

>  <E0_kJmol>  (1) 
-505987

>  <H298_kJmol>  (1) 
-505970

$$$$

     RDKit          3D

  8  7  0  0  0  0  0  0  0  0999 V2000
   -1.2053   -1.0513    0.1005 H   0  0  0  0  0  0  0  0  0  1  0  0
   -0.7149    1.0541   -0.7182 S   0  0  0  0  0  0  0  0  0  2  0  0
   -0.5645   -0.2530    0.4684 C   0  0  0  0  0  0  0  0  0  3  0  0
    0.7028   -0.8699    0.6464 C   0  0  0  0  0  2  0  0  0  4  0  0
    1.7465   -1.4562    0.7508 C   0  0  0  0  0  2  0  0  0  5  0  0
    0.0040    0.4592   -1.6800 H   0  0  0  0  0  0  0  0  0  6  0  0
   -1.0792    0.0207    1.3868 H   0  0  0  0  0  0  0  0  0  7  0  0
    2.6782   -1.9582    0.8554 H   0  0  0  0  0  0  0  0  0  8  0  0
  1  3  1  0
  2  3  1  0
  2  6  1  0
  3  4  1  0
  3  7  1  0
  4  5  1  0
  5  8  1  0
M  RAD  2   4   3   5   3
M  END
>  <rmg_smiles>  (2) 
[CH][C]CS

>  <rmg_adjacency_list>  (2) 
1 S u0 p2 c0 {2,S} {7,S}
2 C u0 p0 c0 {1,S} {3,S} {5,S} {6,S}
3 C u0 p1 c0 {2,S} {4,S}
4 C u0 p1 c0 {3,S} {8,S}
5 H u0 p0 c0 {2,S}
6 H u0 p0 c0 {2,S}
7 H u0 p0 c0 {1,S}
8 H u0 p0 c0 {4,S}


>  <multiplicity>  (2) 
1

>  <reaction>  (2) 
rxn_1380

>  <type>  (2) 
r2h

>  <role_mapnums>  (2) 
{"r2h_a": 3, "r2h_h": 1}

>  <role_mapidx>  (2) 
{"r2h_a": 2, "r2h_h": 0}

>  <ordered_mapped_smiles>  (2) 
[H:1][C:3]([S:2][H:6])([C:4][C:5][H:8])[H:7]

>  <mol_properties>  (2) 
{"0": {"label": "a_hydrogen", "atom_type": "H0"}, "2": {"label": "acceptor", "atom_type": "Cs"}}

>  <level_of_theory>  (2) 
wb97xd/def2tzvp

>  <lot_method>  (2) 
wb97xd

>  <lot_basis>  (2) 
def2tzvp

>  <spin_multiplicity>  (2) 
1.0

>  <optical_isomers>  (2) 
2.0

>  <modes>  (2) 
IdealGasTranslation(mass=(72.0034, 'amu')),         NonlinearRotor(             inertia = ([22.2085, 166.22, 182.902

>  <frequency_value>  (2) 
unknown

>  <frequency_units>  (2) 
unknown

>  <frequency_list>  (2) 
unknown

>  <arkane_path>  (2) 
/home/calvin/Dropbox/PersonalFolders/Calvin/HAb_Converged/rxn_1380/output/Species/rxn_1380_SCCtC/arkane/output.py

>  <path_exists>  (2) 
True

>  <E0_value>  (2) 
-1351591.9619272442

>  <E0_units>  (2) 
kJ/mol

>  <thermo_class>  (2) 
NASA

>  <Cp0_value>  (2) 
33.257888

>  <Cp0_units>  (2) 
J/(mol*K)

>  <CpInf_value>  (2) 
182.918384

>  <CpInf_units>  (2) 
J/(mol*K)

>  <Tmin_value>  (2) 
10.0

>  <Tmin_units>  (2) 
K

>  <Tmax_value>  (2) 
3000.0

>  <Tmax_units>  (2) 
K

>  <polynomials>  (2) 
[{"name": "polynomial1", "class": "NASAPolynomial", "Tmin_value": 10.0, "Tmin_units": "K", "Tmax_value": 475.2199189026072, "Tmax_units": "K", "coeffs": [3.9081729464366273, 0.006066515480213879, 9.858801916657192e-05, -2.3454588538714718e-07, 1.6729093969770136e-10, -162558962.7892696, 9.8761209629424]}, {"name": "polynomial2", "class": "NASAPolynomial", "Tmin_value": 475.2199189026072, "Tmin_units": "K", "Tmax_value": 3000.0, "Tmax_units": "K", "coeffs": [3.9292799211709246, 0.023944631257607943, -1.4834916665788379e-05, 4.522082984509358e-09, -5.363690563089036e-13, -162559168.67574582, 7.6448789699266015]}]

>  <H298_value>  (2) 
-323034.4124485172

>  <H298_units>  (2) 
kcal/mol

>  <S298_value>  (2) 
72.70695616719325

>  <S298_units>  (2) 
cal/(mol*K)

>  <Cp_T_value_list>  (2) 
[19.12361750639078, 22.6155498358861, 25.286415175994005, 27.548137324924326, 31.171813968930973, 33.831611291215516, 37.7853923074815, 39.89045746976903, 41.06584514735627]

>  <Cp_T_units>  (2) 
cal/(mol*K)

>  <T_list>  (2) 
[300.0, 400.0, 500.0, 600.0, 800.0, 1000.0, 1500.0, 2000.0, 2400.0]

>  <T_units>  (2) 
K

>  <yaml_path>  (2) 
/home/calvin/Dropbox/PersonalFolders/Calvin/HAb_Converged/rxn_1380/output/Species/rxn_1380_SCCtC/rxn_1380_SCCtC.yml

>  <frequencies_cm1>  (2) 
[173.19223675572, 229.15816711371997, 344.57158938696, 467.96444860203997, 686.8633396476799, 691.89683988724, 698.0771266752399, 793.7067642415599, 956.7495966943198, 1009.0760248327199, 1208.56881536404, 1272.7064582528399, 1449.8609455381998, 2225.7547498596796, 2705.54414718276, 3049.3603681845198, 3095.3691698285193, 3437.0291574397993]

>  <ZPE_kJmol>  (2) 
146.51536962244307

>  <E_elec_kJmol>  (2) 
-1351738.4772968667

>  <E0_minus_Eelec_plus_ZPE_kJmol>  (2) 
0.0

>  <rxn>  (2) 
rxn_1380

>  <species_type>  (2) 
p0

>  <species_folder>  (2) 
rxn_1380_SCCtC

>  <frequencies_cm1_list>  (2) 
[173.19223675572, 229.15816711371997, 344.57158938696, 467.96444860203997, 686.8633396476799, 691.89683988724, 698.0771266752399, 793.7067642415599, 956.7495966943198, 1009.0760248327199, 1208.56881536404, 1272.7064582528399, 1449.8609455381998, 2225.7547498596796, 2705.54414718276, 3049.3603681845198, 3095.3691698285193, 3437.0291574397993]

>  <E0_kJmol>  (2) 
-1.35159e+06

>  <H298_kJmol>  (2) 
-1.35158e+06

$$$$

     RDKit          3D

 16 14  0  0  0  0  0  0  0  0999 V2000
   -0.0723   -1.2464   -2.2466 C   0  0  0  0  0  0  0  0  0  1  0  0
   -0.5630   -1.2091   -1.1513 C   0  0  0  0  0  0  0  0  0  2  0  0
   -1.0780   -1.1121    0.1785 C   0  0  0  0  0  0  0  0  0  3  0  0
   -2.4179   -0.6407    0.3428 C   0  0  0  0  0  0  0  0  0  4  0  0
   -3.5181   -0.1960    0.5229 C   0  0  0  0  0  0  0  0  0  5  0  0
    0.3393   -1.3024   -3.2256 H   0  0  0  0  0  0  0  0  0  6  0  0
   -0.3138   -0.1553    0.7292 H   0  0  0  0  0  0  0  0  0  7  0  0
   -0.8207   -1.9594    0.8130 H   0  0  0  0  0  0  0  0  0  8  0  0
   -4.5009    0.1837    0.6667 H   0  0  0  0  0  0  0  0  0  9  0  0
    0.3378    2.1510    0.0032 S   0  0  0  0  0  0  0  0  0 10  0  0
    0.4883    0.8438    1.1898 C   0  0  0  0  0  3  0  0  0 11  0  0
    1.7555    0.2269    1.3678 C   0  0  0  0  0  0  0  0  0 12  0  0
    2.7992   -0.3593    1.4722 C   0  0  0  0  0  0  0  0  0 13  0  0
    1.0568    1.5561   -0.9586 H   0  0  0  0  0  0  0  0  0 14  0  0
   -0.0265    1.1176    2.1082 H   0  0  0  0  0  0  0  0  0 15  0  0
    3.7309   -0.8614    1.5768 H   0  0  0  0  0  0  0  0  0 16  0  0
  1  6  1  0
  1  2  1  0
  2  3  1  0
  3  4  1  0
  3  7  1  0
  3  8  1  0
  4  5  1  0
  5  9  1  0
 10 14  1  0
 10 11  1  0
 11 12  1  0
 11 15  1  0
 12 13  1  0
 13 16  1  0
M  RAD  1  11   2
M  END
>  <rmg_smiles>  (3) 
[CH][C]C[C][CH].[CH][C][CH]S

>  <rmg_adjacency_list>  (3) 
multiplicity 2
1  S u0 p2 c0 {3,S} {13,S}
2  C u0 p0 c0 {4,S} {5,S} {10,S} {11,S}
3  C u1 p0 c0 {1,S} {6,S} {12,S}
4  C u0 p1 c0 {2,S} {7,S}
5  C u0 p1 c0 {2,S} {8,S}
6  C u0 p1 c0 {3,S} {9,S}
7  C u0 p1 c0 {4,S} {14,S}
8  C u0 p1 c0 {5,S} {15,S}
9  C u0 p1 c0 {6,S} {16,S}
10 H u0 p0 c0 {2,S}
11 H u0 p0 c0 {2,S}
12 H u0 p0 c0 {3,S}
13 H u0 p0 c0 {1,S}
14 H u0 p0 c0 {7,S}
15 H u0 p0 c0 {8,S}
16 H u0 p0 c0 {9,S}


>  <multiplicity>  (3) 
2

>  <reaction>  (3) 
rxn_1380

>  <type>  (3) 
ts

>  <role_mapnums>  (3) 
{"*2": 7, "*1": 3, "*3": 11, "*0": 2, "*4": 10}

>  <role_mapidx>  (3) 
{"*2": 6, "*1": 2, "*3": 10, "*0": 1, "*4": 9}

>  <ordered_mapped_smiles>  (3) 
[CH2:1]([CH2:2][C:3]([CH2:4][CH2:5][H:9])([H:7])[H:8])[H:6].[S:10]([C:11]([CH2:12][CH2:13][H:16])[H:15])[H:14]

>  <mol_properties>  (3) 
{"1": {"label": "*0", "atom_type": "C2s"}, "2": {"label": "*1", "atom_type": "Cs"}, "6": {"label": "*2", "atom_type": "H0"}, "9": {"label": "*4", "atom_type": "S2s"}, "10": {"label": "*3", "atom_type": "Cs"}}

>  <level_of_theory>  (3) 
wb97xd/def2tzvp

>  <lot_method>  (3) 
wb97xd

>  <lot_basis>  (3) 
def2tzvp

>  <spin_multiplicity>  (3) 
2.0

>  <optical_isomers>  (3) 
2.0

>  <modes>  (3) 
IdealGasTranslation(mass=(135.027, 'amu')),         NonlinearRotor(             inertia = ([338.087, 585.024, 660.661

>  <frequency_value>  (3) 
-1799.21

>  <frequency_units>  (3) 
cm^-1

>  <frequency_list>  (3) 
unknown

>  <arkane_path>  (3) 
/home/calvin/Dropbox/PersonalFolders/Calvin/HAb_Converged/rxn_1380/output/rxns/TS0/arkane/output.py

>  <path_exists>  (3) 
True

>  <E0_value>  (3) 
-1855860.0

>  <E0_units>  (3) 
kJ/mol

>  <thermo_class>  (3) 
unknown

>  <Cp0_value>  (3) 
unknown

>  <Cp0_units>  (3) 
unknown

>  <CpInf_value>  (3) 
unknown

>  <CpInf_units>  (3) 
unknown

>  <Tmin_value>  (3) 
unknown

>  <Tmin_units>  (3) 
unknown

>  <Tmax_value>  (3) 
unknown

>  <Tmax_units>  (3) 
unknown

>  <polynomials>  (3) 
unknown

>  <H298_value>  (3) 
unknown

>  <H298_units>  (3) 
unknown

>  <S298_value>  (3) 
unknown

>  <S298_units>  (3) 
unknown

>  <Cp_T_value_list>  (3) 
unknown

>  <Cp_T_units>  (3) 
unknown

>  <T_list>  (3) 
unknown

>  <T_units>  (3) 
unknown

>  <yaml_path>  (3) 
unknown

>  <frequencies_cm1>  (3) 
unknown

>  <ZPE_kJmol>  (3) 
unknown

>  <E_elec_kJmol>  (3) 
unknown

>  <E0_minus_Eelec_plus_ZPE_kJmol>  (3) 
unknown

>  <rxn>  (3) 
unknown

>  <species_type>  (3) 
unknown

>  <species_folder>  (3) 
unknown

>  <frequencies_cm1_list>  (3) 
[]

>  <ts_imag_freq_cm1>  (3) 
-1821.0604

>  <ts_freq_out_path>  (3) 
/home/calvin/Dropbox/PersonalFolders/Calvin/HAb_Converged/rxn_1380/output/rxns/TS0/geometry/freq.out

>  <E0_kJmol>  (3) 
-1.85586e+06

>  <H298_kJmol>  (3) 
unknown

$$$$

     RDKit          3D

  8  7  0  0  0  0  0  0  0  0999 V2000
   -2.2129    0.4855    0.7390 C   0  0  0  0  0  0  0  0  0  1  0  0
   -1.2226    0.0526    0.1974 C   0  0  0  0  0  0  0  0  0  2  0  0
   -0.1006   -0.4575   -0.4419 C   0  0  0  0  0  3  0  0  0  3  0  0
    1.1960   -0.1737   -0.0342 C   0  0  0  0  0  0  0  0  0  4  0  0
    2.3329    0.0603    0.3036 C   0  0  0  0  0  0  0  0  0  5  0  0
   -3.0803    0.8696    1.2198 H   0  0  0  0  0  0  0  0  0  6  0  0
   -0.2433   -1.1067   -1.2980 H   0  0  0  0  0  0  0  0  0  7  0  0
    3.3308    0.2700    0.6058 H   0  0  0  0  0  0  0  0  0  8  0  0
  1  6  1  0
  1  2  1  0
  2  3  1  0
  3  4  1  0
  3  7  1  0
  4  5  1  0
  5  8  1  0
M  RAD  1   3   2
M  END
>  <rmg_smiles>  (4) 
[CH]C[CH]C[CH]

>  <rmg_adjacency_list>  (4) 
multiplicity 2
1 C u1 p0 c0 {2,S} {3,S} {6,S}
2 C u0 p1 c0 {1,S} {4,S}
3 C u0 p1 c0 {1,S} {5,S}
4 C u0 p1 c0 {2,S} {7,S}
5 C u0 p1 c0 {3,S} {8,S}
6 H u0 p0 c0 {1,S}
7 H u0 p0 c0 {4,S}
8 H u0 p0 c0 {5,S}


>  <multiplicity>  (4) 
2

>  <reaction>  (4) 
rxn_1380

>  <type>  (4) 
r1

>  <role_mapnums>  (4) 
{}

>  <role_mapidx>  (4) 
{}

>  <ordered_mapped_smiles>  (4) 
[CH2:1]([CH2:2][C:3]([CH2:4][CH2:5][H:8])[H:7])[H:6]

>  <level_of_theory>  (4) 
wb97xd/def2tzvp

>  <lot_method>  (4) 
wb97xd

>  <lot_basis>  (4) 
def2tzvp

>  <spin_multiplicity>  (4) 
2.0

>  <optical_isomers>  (4) 
1.0

>  <modes>  (4) 
IdealGasTranslation(mass=(63.0235, 'amu')),         NonlinearRotor(             inertia = ([17.4877, 183.017, 200.505

>  <frequency_value>  (4) 
unknown

>  <frequency_units>  (4) 
unknown

>  <frequency_list>  (4) 
unknown

>  <arkane_path>  (4) 
/home/calvin/Dropbox/PersonalFolders/Calvin/HAb_Converged/rxn_1380/output/Species/rxn_1380_CtC[CH]CtC/arkane/output.py

>  <path_exists>  (4) 
True

>  <E0_value>  (4) 
-504350.2602594301

>  <E0_units>  (4) 
kJ/mol

>  <thermo_class>  (4) 
NASA

>  <Cp0_value>  (4) 
33.257888

>  <Cp0_units>  (4) 
J/(mol*K)

>  <CpInf_value>  (4) 
182.918384

>  <CpInf_units>  (4) 
J/(mol*K)

>  <Tmin_value>  (4) 
10.0

>  <Tmin_units>  (4) 
K

>  <Tmax_value>  (4) 
3000.0

>  <Tmax_units>  (4) 
K

>  <polynomials>  (4) 
[{"name": "polynomial1", "class": "NASAPolynomial", "Tmin_value": 10.0, "Tmin_units": "K", "Tmax_value": 511.3919089489883, "Tmax_units": "K", "coeffs": [3.8659954757573973, 0.008525616172306112, 0.00010836986673963408, -2.626119315958765e-07, 1.8230598905311024e-10, -60659320.69120562, 8.776064020238547]}, {"name": "polynomial2", "class": "NASAPolynomial", "Tmin_value": 511.3919089489883, "Tmin_units": "K", "Tmax_value": 3000.0, "Tmax_units": "K", "coeffs": [5.628254952966442, 0.022649494843224656, -1.4916539685924306e-05, 4.8216558906608004e-09, -6.002662773476099e-13, -60659865.858327985, -2.111983316915381]}]

>  <H298_value>  (4) 
-120538.51368508991

>  <H298_units>  (4) 
kcal/mol

>  <S298_value>  (4) 
71.92961318485641

>  <S298_units>  (4) 
cal/(mol*K)

>  <Cp_T_value_list>  (4) 
[20.99111005886384, 24.790978026499133, 27.40139790751197, 29.433868246293493, 32.638046849521324, 34.940256474405714, 38.30245845445545, 40.20133175263048, 41.34770744760823]

>  <Cp_T_units>  (4) 
cal/(mol*K)

>  <T_list>  (4) 
[300.0, 400.0, 500.0, 600.0, 800.0, 1000.0, 1500.0, 2000.0, 2400.0]

>  <T_units>  (4) 
K

>  <yaml_path>  (4) 
/home/calvin/Dropbox/PersonalFolders/Calvin/HAb_Converged/rxn_1380/output/Species/rxn_1380_CtC[CH]CtC/rxn_1380_CtCCHCtC.yml

>  <frequencies_cm1>  (4) 
[140.92427273703998, 354.42571332116, 356.18366156308, 383.39752438624004, 580.9812929985999, 582.4370938864399, 598.9659275516799, 670.81519495484, 678.8701687352, 681.5894949219199, 955.0809192615599, 1115.22588390928, 1366.0425227222797, 2023.89971637828, 2119.4194821794795, 3149.0140591483596, 3426.6737435772397, 3430.6016591802795]

>  <ZPE_kJmol>  (4) 
135.26507637113028

>  <E_elec_kJmol>  (4) 
-504485.5253358012

>  <E0_minus_Eelec_plus_ZPE_kJmol>  (4) 
0.0

>  <rxn>  (4) 
rxn_1380

>  <species_type>  (4) 
p1

>  <species_folder>  (4) 
rxn_1380_CtC[CH]CtC

>  <frequencies_cm1_list>  (4) 
[140.92427273703998, 354.42571332116, 356.18366156308, 383.39752438624004, 580.9812929985999, 582.4370938864399, 598.9659275516799, 670.81519495484, 678.8701687352, 681.5894949219199, 955.0809192615599, 1115.22588390928, 1366.0425227222797, 2023.89971637828, 2119.4194821794795, 3149.0140591483596, 3426.6737435772397, 3430.6016591802795]

>  <E0_kJmol>  (4) 
-504350

>  <H298_kJmol>  (4) 
-504333

$$$$

     RDKit          3D

  7  6  0  0  0  0  0  0  0  0999 V2000
   -2.0652    0.3855   -0.2963 S   0  0  0  0  0  0  0  0  0  1  0  0
   -0.7169   -0.5853    0.1792 C   0  0  0  0  0  3  0  0  0  2  0  0
    0.5987   -0.2168    0.0254 C   0  0  0  0  0  0  0  0  0  3  0  0
    1.7547    0.1211   -0.1163 C   0  0  0  0  0  0  0  0  0  4  0  0
   -1.3643    1.4227   -0.7731 H   0  0  0  0  0  0  0  0  0  5  0  0
   -0.9781   -1.5363    0.6220 H   0  0  0  0  0  0  0  0  0  6  0  0
    2.7711    0.4089   -0.2366 H   0  0  0  0  0  0  0  0  0  7  0  0
  1  2  1  0
  1  5  1  0
  2  6  1  0
  2  3  1  0
  3  4  1  0
  4  7  1  0
M  RAD  1   2   2
M  END
>  <rmg_smiles>  (5) 
[CH][C][CH]S

>  <rmg_adjacency_list>  (5) 
multiplicity 2
1 S u0 p2 c0 {2,S} {6,S}
2 C u1 p0 c0 {1,S} {3,S} {5,S}
3 C u0 p1 c0 {2,S} {4,S}
4 C u0 p1 c0 {3,S} {7,S}
5 H u0 p0 c0 {2,S}
6 H u0 p0 c0 {1,S}
7 H u0 p0 c0 {4,S}


>  <multiplicity>  (5) 
2

>  <reaction>  (5) 
rxn_1380

>  <type>  (5) 
r2

>  <role_mapnums>  (5) 
{}

>  <role_mapidx>  (5) 
{}

>  <ordered_mapped_smiles>  (5) 
[S:1]([C:2]([CH2:3][CH2:4][H:7])[H:6])[H:5]

>  <level_of_theory>  (5) 
wb97xd/def2tzvp

>  <lot_method>  (5) 
wb97xd

>  <lot_basis>  (5) 
def2tzvp

>  <spin_multiplicity>  (5) 
2.0

>  <optical_isomers>  (5) 
1.0

>  <modes>  (5) 
IdealGasTranslation(mass=(70.9955, 'amu')),         NonlinearRotor(             inertia = ([14.9079, 166.925, 181.833

>  <frequency_value>  (5) 
unknown

>  <frequency_units>  (5) 
unknown

>  <frequency_list>  (5) 
unknown

>  <arkane_path>  (5) 
/home/calvin/Dropbox/PersonalFolders/Calvin/HAb_Converged/rxn_1380/output/Species/rxn_1380_S[CH]CtC/arkane/output.py

>  <path_exists>  (5) 
True

>  <E0_value>  (5) 
-1349941.413308029

>  <E0_units>  (5) 
kJ/mol

>  <thermo_class>  (5) 
NASA

>  <Cp0_value>  (5) 
33.257888

>  <Cp0_units>  (5) 
J/(mol*K)

>  <CpInf_value>  (5) 
157.97496800000002

>  <CpInf_units>  (5) 
J/(mol*K)

>  <Tmin_value>  (5) 
10.0

>  <Tmin_units>  (5) 
K

>  <Tmax_value>  (5) 
3000.0

>  <Tmax_units>  (5) 
K

>  <polynomials>  (5) 
[{"name": "polynomial1", "class": "NASAPolynomial", "Tmin_value": 10.0, "Tmin_units": "K", "Tmax_value": 486.65208178728574, "Tmax_units": "K", "coeffs": [3.8802951459672888, 0.007873604506352367, 9.419382974185595e-05, -2.421838422094103e-07, 1.77542717864309e-10, -162360446.73209924, 9.503452393902604]}, {"name": "polynomial2", "class": "NASAPolynomial", "Tmin_value": 486.65208178728574, "Tmin_units": "K", "Tmax_value": 3000.0, "Tmax_units": "K", "coeffs": [5.47913018219522, 0.01853455272341036, -1.203216244282249e-05, 3.83984951192902e-09, -4.735578092033837e-13, -162360884.20440963, 0.04560966254204442]}]

>  <H298_value>  (5) 
-322639.87448503025

>  <H298_units>  (5) 
kcal/mol

>  <S298_value>  (5) 
72.23945901825131

>  <S298_units>  (5) 
cal/(mol*K)

>  <Cp_T_value_list>  (5) 
[19.114846827611093, 22.14955743591332, 24.221562759830928, 25.905855360123407, 28.572496367656612, 30.499272110750873, 33.326843001689376, 34.89824152839212, 35.824105130276145]

>  <Cp_T_units>  (5) 
cal/(mol*K)

>  <T_list>  (5) 
[300.0, 400.0, 500.0, 600.0, 800.0, 1000.0, 1500.0, 2000.0, 2400.0]

>  <T_units>  (5) 
K

>  <yaml_path>  (5) 
/home/calvin/Dropbox/PersonalFolders/Calvin/HAb_Converged/rxn_1380/output/Species/rxn_1380_S[CH]CtC/rxn_1380_SCHCtC.yml

>  <frequencies_cm1>  (5) 
[185.14079121252, 248.73594226104, 394.82418795872, 492.5619900182799, 498.371459599, 555.60091525588, 690.8187231919999, 740.57689882072, 984.5334192990399, 1090.8961549205198, 1319.94445026912, 2052.8165915608, 2702.0831865814794, 3183.2253800126, 3431.48750028656]

>  <ZPE_kJmol>  (5) 
111.08297344706106

>  <E_elec_kJmol>  (5) 
-1350052.4962814762

>  <E0_minus_Eelec_plus_ZPE_kJmol>  (5) 
0.0

>  <rxn>  (5) 
rxn_1380

>  <species_type>  (5) 
r1

>  <species_folder>  (5) 
rxn_1380_S[CH]CtC

>  <frequencies_cm1_list>  (5) 
[185.14079121252, 248.73594226104, 394.82418795872, 492.5619900182799, 498.371459599, 555.60091525588, 690.8187231919999, 740.57689882072, 984.5334192990399, 1090.8961549205198, 1319.94445026912, 2052.8165915608, 2702.0831865814794, 3183.2253800126, 3431.48750028656]

>  <E0_kJmol>  (5) 
-1.34994e+06

>  <H298_kJmol>  (5) 
-1.34993e+06

$$$$
