
     RDKit          3D

 13 12  0  0  0  0  0  0  0  0999 V2000
   -2.1381   -0.6978   -0.3094 C   0  0  0  0  0  0  0  0  0  1  0  0
   -0.9505   -0.1311   -0.5034 C   0  0  0  0  0  0  0  0  0  2  0  0
   -0.1933    0.6121    0.5117 C   0  0  0  0  0  0  0  0  0  3  0  0
    1.2747    0.4662    0.5557 C   0  0  0  0  0  0  0  0  0  4  0  0
    2.0331   -0.2704   -0.2512 C   0  0  0  0  0  0  0  0  0  5  0  0
   -2.6670   -1.1925   -1.1139 H   0  0  0  0  0  0  0  0  0  6  0  0
   -2.6174   -0.6884    0.6636 H   0  0  0  0  0  0  0  0  0  7  0  0
   -0.5135   -0.1681   -1.4981 H   0  0  0  0  0  0  0  0  0  8  0  0
   -0.3288    1.6727    0.2925 H   0  0  0  0  0  0  0  0  0  9  0  0
   -0.6466    0.5595    1.5033 H   0  0  0  0  0  0  0  0  0 10  0  0
    1.7663    1.0588    1.3232 H   0  0  0  0  0  0  0  0  0 11  0  0
    1.6118   -0.9015   -1.0243 H   0  0  0  0  0  0  0  0  0 12  0  0
    3.1105   -0.2759   -0.1490 H   0  0  0  0  0  0  0  0  0 13  0  0
  1  7  1  0
  1  6  1  0
  1  2  1  0
  2  8  1  0
  2  3  1  0
  3  4  1  0
  3  9  1  0
  3 10  1  0
  4  5  1  0
  4 11  1  0
  5 12  1  0
  5 13  1  0
M  END
>  <rmg_smiles>  (1) 
[CH2][CH]C[CH][CH2]

>  <rmg_adjacency_list>  (1) 
1  C u0 p0 c0 {2,S} {3,S} {6,S} {7,S}
2  C u0 p0 c0 {1,S} {4,S} {8,S}
3  C u0 p0 c0 {1,S} {5,S} {9,S}
4  C u0 p0 c0 {2,S} {10,S} {11,S}
5  C u0 p0 c0 {3,S} {12,S} {13,S}
6  H u0 p0 c0 {1,S}
7  H u0 p0 c0 {1,S}
8  H u0 p0 c0 {2,S}
9  H u0 p0 c0 {3,S}
10 H u0 p0 c0 {4,S}
11 H u0 p0 c0 {4,S}
12 H u0 p0 c0 {5,S}
13 H u0 p0 c0 {5,S}


>  <multiplicity>  (1) 
1

>  <reaction>  (1) 
rxn_745

>  <type>  (1) 
r1h

>  <role_mapnums>  (1) 
{"r1h_a": 3, "r1h_h": 9}

>  <role_mapidx>  (1) 
{"r1h_a": 2, "r1h_h": 8}

>  <ordered_mapped_smiles>  (1) 
[CH:1]([CH:2]([C:3]([CH:4]([CH:5]([H:12])[H:13])[H:11])([H:9])[H:10])[H:8])([H:6])[H:7]

>  <mol_properties>  (1) 
{"2": {"label": "donator", "atom_type": "Cs"}, "8": {"label": "d_hydrogen", "atom_type": "H0"}}

>  <level_of_theory>  (1) 
wb97xd/def2tzvp

>  <lot_method>  (1) 
wb97xd

>  <lot_basis>  (1) 
def2tzvp

>  <spin_multiplicity>  (1) 
1.0

>  <optical_isomers>  (1) 
2.0

>  <modes>  (1) 
IdealGasTranslation(mass=(68.0626, 'amu')),         NonlinearRotor(             inertia = ([45.0412, 159.938, 187.579

>  <frequency_value>  (1) 
unknown

>  <frequency_units>  (1) 
unknown

>  <frequency_list>  (1) 
unknown

>  <arkane_path>  (1) 
/home/calvin/Dropbox/PersonalFolders/Calvin/HAb_Converged/rxn_745/output/Species/rxn_745_C=CCC=C/arkane/output.py

>  <path_exists>  (1) 
True

>  <E0_value>  (1) 
-512473.3799039456

>  <E0_units>  (1) 
kJ/mol

>  <thermo_class>  (1) 
NASA

>  <Cp0_value>  (1) 
33.257888

>  <Cp0_units>  (1) 
J/(mol*K)

>  <CpInf_value>  (1) 
307.635464

>  <CpInf_units>  (1) 
J/(mol*K)

>  <Tmin_value>  (1) 
10.0

>  <Tmin_units>  (1) 
K

>  <Tmax_value>  (1) 
3000.0

>  <Tmax_units>  (1) 
K

>  <polynomials>  (1) 
[{"name": "polynomial1", "class": "NASAPolynomial", "Tmin_value": 10.0, "Tmin_units": "K", "Tmax_value": 819.4804820196184, "Tmax_units": "K", "coeffs": [3.8786961323103277, 0.01518848526354921, 5.629175519915376e-05, -8.158967068239976e-08, 3.30459758185792e-11, -61636312.679365546, 10.298540277465028]}, {"name": "polynomial2", "class": "NASAPolynomial", "Tmin_value": 819.4804820196184, "Tmin_units": "K", "Tmax_value": 3000.0, "Tmax_units": "K", "coeffs": [0.9713570478533602, 0.04440309225960069, -2.468286623666531e-05, 6.656489578832237e-09, -7.002700885295111e-13, -61636340.62723716, 20.6681030649648]}]

>  <H298_value>  (1) 
-122479.74618776135

>  <H298_units>  (1) 
kcal/mol

>  <S298_value>  (1) 
77.03784100856907

>  <S298_units>  (1) 
cal/(mol*K)

>  <Cp_T_value_list>  (1) 
[22.98452912921813, 28.98342495343222, 34.60231709225981, 39.57761952390819, 47.33114131422195, 52.95468648559353, 61.52407504834919, 65.76395981018108, 67.86608281001313]

>  <Cp_T_units>  (1) 
cal/(mol*K)

>  <T_list>  (1) 
[300.0, 400.0, 500.0, 600.0, 800.0, 1000.0, 1500.0, 2000.0, 2400.0]

>  <T_units>  (1) 
K

>  <yaml_path>  (1) 
/home/calvin/Dropbox/PersonalFolders/Calvin/HAb_Converged/rxn_745/output/Species/rxn_745_C=CCC=C/rxn_745_C=CCC=C.yml

>  <frequencies_cm1>  (1) 
[87.95234797856001, 151.90458226372, 257.19606817528, 416.50326061396, 498.01437636235994, 571.25077480016, 682.49593698416, 887.8393990081199, 919.5923391278, 958.3564712591999, 961.16506825508, 963.55477914644, 1034.0581174268798, 1039.2220903875198, 1080.8909573092799, 1137.2757737718, 1245.9046145488799, 1315.20623039832, 1324.3393208739199, 1346.8492987528798, 1434.93211945252, 1443.44718124932, 1463.70478794332, 1713.3403052812798, 1720.18668964532, 2995.26912481888, 3030.3800207600398, 3111.8568015818396, 3116.1074654949202, 3123.6062134643594, 3128.7427184837197, 3202.1645255251597, 3207.6031778986]

>  <ZPE_kJmol>  (1) 
296.4999886896896

>  <E_elec_kJmol>  (1) 
-512769.8798926352

>  <E0_minus_Eelec_plus_ZPE_kJmol>  (1) 
0.0

>  <rxn>  (1) 
rxn_745

>  <species_type>  (1) 
r0

>  <species_folder>  (1) 
rxn_745_C=CCC=C

>  <frequencies_cm1_list>  (1) 
[87.95234797856001, 151.90458226372, 257.19606817528, 416.50326061396, 498.01437636235994, 571.25077480016, 682.49593698416, 887.8393990081199, 919.5923391278, 958.3564712591999, 961.16506825508, 963.55477914644, 1034.0581174268798, 1039.2220903875198, 1080.8909573092799, 1137.2757737718, 1245.9046145488799, 1315.20623039832, 1324.3393208739199, 1346.8492987528798, 1434.93211945252, 1443.44718124932, 1463.70478794332, 1713.3403052812798, 1720.18668964532, 2995.26912481888, 3030.3800207600398, 3111.8568015818396, 3116.1074654949202, 3123.6062134643594, 3128.7427184837197, 3202.1645255251597, 3207.6031778986]

>  <E0_kJmol>  (1) 
-512473

>  <H298_kJmol>  (1) 
-512455

$$$$

     RDKit          3D

 25 26  0  0  0  0  0  0  0  0999 V2000
    1.8634   -1.1582    1.1246 H   0  0  0  0  0  0  0  0  0  1  0  0
    1.8356   -0.0985    0.8806 C   0  0  0  0  0  0  0  0  0  2  0  0
    2.5293   -0.0185   -0.4695 C   0  0  0  0  0  0  0  0  0  3  0  0
    1.4017    0.2746   -1.4847 C   0  0  0  0  0  0  0  0  0  4  0  0
    0.1393   -0.1965   -0.7711 C   0  0  0  0  0  0  0  0  0  5  0  0
   -1.2157    0.2742   -1.2660 C   0  0  0  0  0  0  0  0  0  6  0  0
   -2.3093   -0.2490   -0.3292 C   0  0  0  0  0  0  0  0  0  7  0  0
   -2.0567    0.1272    1.1334 C   0  0  0  0  0  0  0  0  0  8  0  0
   -0.6705   -0.3088    1.6162 C   0  0  0  0  0  0  0  0  0  9  0  0
    0.3857    0.2463    0.6729 C   0  0  0  0  0  0  0  0  0 10  0  0
    2.3475    0.3102    1.7490 H   0  0  0  0  0  0  0  0  0 11  0  0
    3.3099    0.7449   -0.4864 H   0  0  0  0  0  0  0  0  0 12  0  0
    3.0282   -0.9662   -0.7019 H   0  0  0  0  0  0  0  0  0 13  0  0
    1.5612   -0.2158   -2.4458 H   0  0  0  0  0  0  0  0  0 14  0  0
    1.3335    1.3507   -1.6727 H   0  0  0  0  0  0  0  0  0 15  0  0
    0.1363   -1.2941   -0.7728 H   0  0  0  0  0  0  0  0  0 16  0  0
   -1.2356    1.3705   -1.2852 H   0  0  0  0  0  0  0  0  0 17  0  0
   -1.4009   -0.0652   -2.2885 H   0  0  0  0  0  0  0  0  0 18  0  0
   -2.3478   -1.3407   -0.4124 H   0  0  0  0  0  0  0  0  0 19  0  0
   -3.2868    0.1240   -0.6432 H   0  0  0  0  0  0  0  0  0 20  0  0
   -2.1434    1.2142    1.2421 H   0  0  0  0  0  0  0  0  0 21  0  0
   -2.8311   -0.3118    1.7665 H   0  0  0  0  0  0  0  0  0 22  0  0
   -0.5008    0.0306    2.6414 H   0  0  0  0  0  0  0  0  0 23  0  0
   -0.6092   -1.4015    1.6212 H   0  0  0  0  0  0  0  0  0 24  0  0
    0.2986    1.3470    0.6930 H   0  0  0  0  0  0  0  0  0 25  0  0
  1  2  1  0
  2 11  1  0
  2  3  1  0
  2 10  1  0
  3  4  1  0
  3 13  1  0
  3 12  1  0
  4 14  1  0
  4  5  1  0
  4 15  1  0
  5 16  1  0
  5 10  1  0
  5  6  1  0
  6  7  1  0
  6 17  1  0
  6 18  1  0
  7 20  1  0
  7 19  1  0
  7  8  1  0
  8  9  1  0
  8 22  1  0
  8 21  1  0
  9 24  1  0
  9 10  1  0
  9 23  1  0
 10 25  1  0
M  END
>  <rmg_smiles>  (2) 
C1CCC2CCCC2C1

>  <rmg_adjacency_list>  (2) 
1  C u0 p0 c0 {2,S} {4,S} {5,S} {10,S}
2  C u0 p0 c0 {1,S} {3,S} {6,S} {11,S}
3  C u0 p0 c0 {2,S} {7,S} {12,S} {13,S}
4  C u0 p0 c0 {1,S} {7,S} {16,S} {17,S}
5  C u0 p0 c0 {1,S} {8,S} {18,S} {19,S}
6  C u0 p0 c0 {2,S} {9,S} {24,S} {25,S}
7  C u0 p0 c0 {3,S} {4,S} {14,S} {15,S}
8  C u0 p0 c0 {5,S} {9,S} {20,S} {21,S}
9  C u0 p0 c0 {6,S} {8,S} {22,S} {23,S}
10 H u0 p0 c0 {1,S}
11 H u0 p0 c0 {2,S}
12 H u0 p0 c0 {3,S}
13 H u0 p0 c0 {3,S}
14 H u0 p0 c0 {7,S}
15 H u0 p0 c0 {7,S}
16 H u0 p0 c0 {4,S}
17 H u0 p0 c0 {4,S}
18 H u0 p0 c0 {5,S}
19 H u0 p0 c0 {5,S}
20 H u0 p0 c0 {8,S}
21 H u0 p0 c0 {8,S}
22 H u0 p0 c0 {9,S}
23 H u0 p0 c0 {9,S}
24 H u0 p0 c0 {6,S}
25 H u0 p0 c0 {6,S}


>  <multiplicity>  (2) 
1

>  <reaction>  (2) 
rxn_745

>  <type>  (2) 
r2h

>  <role_mapnums>  (2) 
{"r2h_a": 2, "r2h_h": 1}

>  <role_mapidx>  (2) 
{"r2h_a": 1, "r2h_h": 0}

>  <ordered_mapped_smiles>  (2) 
[H:1][C:2]1([H:11])[C:3]([H:12])([H:13])[C:4]([H:14])([H:15])[C:5]2([H:16])[C:6]([H:17])([H:18])[C:7]([H:19])([H:20])[C:8]([H:21])([H:22])[C:9]([H:23])([H:24])[C:10]12[H:25]

>  <mol_properties>  (2) 
{"0": {"label": "a_hydrogen", "atom_type": "H0"}, "1": {"label": "acceptor", "atom_type": "Cs"}}

>  <level_of_theory>  (2) 
wb97xd/def2tzvp

>  <lot_method>  (2) 
wb97xd

>  <lot_basis>  (2) 
def2tzvp

>  <spin_multiplicity>  (2) 
1.0

>  <optical_isomers>  (2) 
2.0

>  <modes>  (2) 
IdealGasTranslation(mass=(124.125, 'amu')),         NonlinearRotor(             inertia = ([170.024, 375.242, 505.424

>  <frequency_value>  (2) 
unknown

>  <frequency_units>  (2) 
unknown

>  <frequency_list>  (2) 
unknown

>  <arkane_path>  (2) 
/home/calvin/Dropbox/PersonalFolders/Calvin/HAb_Converged/rxn_745/output/Species/rxn_745_C1CCC2CCCC2C1/arkane/output.py

>  <path_exists>  (2) 
True

>  <E0_value>  (2) 
-925233.0049241188

>  <E0_units>  (2) 
kJ/mol

>  <thermo_class>  (2) 
NASA

>  <Cp0_value>  (2) 
33.257888

>  <Cp0_units>  (2) 
J/(mol*K)

>  <CpInf_value>  (2) 
606.956456

>  <CpInf_units>  (2) 
J/(mol*K)

>  <Tmin_value>  (2) 
10.0

>  <Tmin_units>  (2) 
K

>  <Tmax_value>  (2) 
3000.0

>  <Tmax_units>  (2) 
K

>  <polynomials>  (2) 
[{"name": "polynomial1", "class": "NASAPolynomial", "Tmin_value": 10.0, "Tmin_units": "K", "Tmax_value": 492.86414085374884, "Tmax_units": "K", "coeffs": [4.007994789865864, -0.0014434969438387518, 0.0002774235318770471, -4.47143959124011e-07, 2.345687014006794e-10, -111279824.80461533, 12.742603075803766]}, {"name": "polynomial2", "class": "NASAPolynomial", "Tmin_value": 492.86414085374884, "Tmin_units": "K", "Tmax_value": 3000.0, "Tmax_units": "K", "coeffs": [-9.95853370242537, 0.11191389639895702, -6.759505783925652e-05, 1.9571966588871765e-08, -2.183492026273649e-12, -111278448.17509678, 70.24048730977755]}]

>  <H298_value>  (2) 
-221130.41480672767

>  <H298_units>  (2) 
kcal/mol

>  <S298_value>  (2) 
87.40258332007863

>  <S298_units>  (2) 
cal/(mol*K)

>  <Cp_T_value_list>  (2) 
[36.50534740058796, 50.089738669944325, 62.417515537946755, 73.12949241055418, 90.29515590280347, 102.83551087971135, 120.87161605712708, 129.42454969138163, 133.951878152645]

>  <Cp_T_units>  (2) 
cal/(mol*K)

>  <T_list>  (2) 
[300.0, 400.0, 500.0, 600.0, 800.0, 1000.0, 1500.0, 2000.0, 2400.0]

>  <T_units>  (2) 
K

>  <yaml_path>  (2) 
/home/calvin/Dropbox/PersonalFolders/Calvin/HAb_Converged/rxn_745/output/Species/rxn_745_C1CCC2CCCC2C1/rxn_745_C1CCC2CCCC2C1.yml

>  <frequencies_cm1>  (2) 
[79.74630052116, 161.44969185852, 192.46099756363998, 319.95344701476, 325.08995203411996, 337.32691987436, 425.16252910247994, 470.50523317043996, 497.06673238819997, 579.3538174777599, 623.59780389452, 769.3495673115199, 782.1839628746, 837.42199278868, 848.74565158136, 873.0204446875598, 907.5545138618398, 921.7142375916799, 922.5451428153999, 945.43967187228, 987.1978096031999, 1015.3867843418, 1044.03584709684, 1066.28487953364, 1072.4857672776, 1096.98030391404, 1116.2696656779199, 1122.75209982, 1142.3985448205199, 1202.0657802659998, 1207.82031396416, 1217.5508321625998, 1256.61711164808, 1262.63945777372, 1284.5314069738797, 1286.2687542598399, 1313.97704002604, 1316.9847795961998, 1320.6311488011202, 1339.9411115209598, 1339.9754464475598, 1365.2322184545199, 1368.74811493836, 1376.8580246012798, 1398.55083122716, 1401.5036349147601, 1472.50826312356, 1476.82072990452, 1478.06365424744, 1478.81215564732, 1486.92206531024, 1491.0628574582, 1506.3831017071197, 2950.4551786205598, 2962.34193020948, 2991.31374127456, 2991.7532283350397, 2996.8759993837602, 3001.07172741428, 3015.06664349644, 3015.65720423396, 3043.90798184044, 3044.3474689009204, 3044.821290888, 3053.3088847435192, 3057.07199269888, 3062.7784574998, 3072.117557535, 3090.8781614292393]

>  <ZPE_kJmol>  (2) 
613.2521071062491

>  <E_elec_kJmol>  (2) 
-925846.257031225

>  <E0_minus_Eelec_plus_ZPE_kJmol>  (2) 
0.0

>  <rxn>  (2) 
rxn_745

>  <species_type>  (2) 
p0

>  <species_folder>  (2) 
rxn_745_C1CCC2CCCC2C1

>  <frequencies_cm1_list>  (2) 
[79.74630052116, 161.44969185852, 192.46099756363998, 319.95344701476, 325.08995203411996, 337.32691987436, 425.16252910247994, 470.50523317043996, 497.06673238819997, 579.3538174777599, 623.59780389452, 769.3495673115199, 782.1839628746, 837.42199278868, 848.74565158136, 873.0204446875598, 907.5545138618398, 921.7142375916799, 922.5451428153999, 945.43967187228, 987.1978096031999, 1015.3867843418, 1044.03584709684, 1066.28487953364, 1072.4857672776, 1096.98030391404, 1116.2696656779199, 1122.75209982, 1142.3985448205199, 1202.0657802659998, 1207.82031396416, 1217.5508321625998, 1256.61711164808, 1262.63945777372, 1284.5314069738797, 1286.2687542598399, 1313.97704002604, 1316.9847795961998, 1320.6311488011202, 1339.9411115209598, 1339.9754464475598, 1365.2322184545199, 1368.74811493836, 1376.8580246012798, 1398.55083122716, 1401.5036349147601, 1472.50826312356, 1476.82072990452, 1478.06365424744, 1478.81215564732, 1486.92206531024, 1491.0628574582, 1506.3831017071197, 2950.4551786205598, 2962.34193020948, 2991.31374127456, 2991.7532283350397, 2996.8759993837602, 3001.07172741428, 3015.06664349644, 3015.65720423396, 3043.90798184044, 3044.3474689009204, 3044.821290888, 3053.3088847435192, 3057.07199269888, 3062.7784574998, 3072.117557535, 3090.8781614292393]

>  <E0_kJmol>  (2) 
-925233

>  <H298_kJmol>  (2) 
-925210

$$$$

     RDKit          3D

 37 37  0  0  0  0  0  0  0  0999 V2000
   -0.6840   -2.8473    0.3198 C   0  0  0  0  0  0  0  0  0  1  0  0
    0.5037   -2.2806    0.1258 C   0  0  0  0  0  0  0  0  0  2  0  0
    1.2609   -1.5375    1.1410 C   0  0  0  0  0  0  0  0  0  3  0  0
    2.7289   -1.6833    1.1850 C   0  0  0  0  0  0  0  0  0  4  0  0
    3.4873   -2.4200    0.3781 C   0  0  0  0  0  0  0  0  0  5  0  0
   -1.2128   -3.3421   -0.4846 H   0  0  0  0  0  0  0  0  0  6  0  0
   -1.1632   -2.8379    1.2929 H   0  0  0  0  0  0  0  0  0  7  0  0
    0.9407   -2.3176   -0.8689 H   0  0  0  0  0  0  0  0  0  8  0  0
    1.1017   -0.2912    0.8833 H   0  0  0  0  0  0  0  0  0  9  0  0
    0.8076   -1.5900    2.1325 H   0  0  0  0  0  0  0  0  0 10  0  0
    3.2205   -1.0907    1.9524 H   0  0  0  0  0  0  0  0  0 11  0  0
    3.0659   -3.0510   -0.3951 H   0  0  0  0  0  0  0  0  0 12  0  0
    4.5647   -2.4254    0.4802 H   0  0  0  0  0  0  0  0  0 13  0  0
    1.0647    1.1150    0.5595 C   0  0  0  0  0  3  0  0  0 14  0  0
    1.7584    1.1951   -0.7906 C   0  0  0  0  0  0  0  0  0 15  0  0
    0.6308    1.4882   -1.8058 C   0  0  0  0  0  0  0  0  0 16  0  0
   -0.6315    1.0171   -1.0922 C   0  0  0  0  0  0  0  0  0 17  0  0
   -1.9866    1.4878   -1.5871 C   0  0  0  0  0  0  0  0  0 18  0  0
   -3.0801    0.9646   -0.6502 C   0  0  0  0  0  0  0  0  0 19  0  0
   -2.8276    1.3408    0.8123 C   0  0  0  0  0  0  0  0  0 20  0  0
   -1.4414    0.9048    1.2951 C   0  0  0  0  0  0  0  0  0 21  0  0
   -0.3851    1.4599    0.3518 C   0  0  0  0  0  0  0  0  0 22  0  0
    1.5766    1.5238    1.4279 H   0  0  0  0  0  0  0  0  0 23  0  0
    2.5390    1.9585   -0.8074 H   0  0  0  0  0  0  0  0  0 24  0  0
    2.2573    0.2474   -1.0230 H   0  0  0  0  0  0  0  0  0 25  0  0
    0.7904    0.9978   -2.7669 H   0  0  0  0  0  0  0  0  0 26  0  0
    0.5627    2.5643   -1.9938 H   0  0  0  0  0  0  0  0  0 27  0  0
   -0.6346   -0.0805   -1.0939 H   0  0  0  0  0  0  0  0  0 28  0  0
   -2.0065    2.5841   -1.6063 H   0  0  0  0  0  0  0  0  0 29  0  0
   -2.1718    1.1484   -2.6096 H   0  0  0  0  0  0  0  0  0 30  0  0
   -3.1187   -0.1271   -0.7334 H   0  0  0  0  0  0  0  0  0 31  0  0
   -4.0577    1.3375   -0.9643 H   0  0  0  0  0  0  0  0  0 32  0  0
   -2.9142    2.4278    0.9211 H   0  0  0  0  0  0  0  0  0 33  0  0
   -3.6019    0.9018    1.4455 H   0  0  0  0  0  0  0  0  0 34  0  0
   -1.2716    1.2442    2.3203 H   0  0  0  0  0  0  0  0  0 35  0  0
   -1.3801   -0.1879    1.3001 H   0  0  0  0  0  0  0  0  0 36  0  0
   -0.4723    2.5605    0.3719 H   0  0  0  0  0  0  0  0  0 37  0  0
  1  7  1  0
  1  6  1  0
  1  2  1  0
  2  8  1  0
  2  3  1  0
  3  4  1  0
  3  9  1  0
  3 10  1  0
  4 11  1  0
  4  5  1  0
  5 12  1  0
  5 13  1  0
 14 15  1  0
 14 23  1  0
 14 22  1  0
 15 25  1  0
 15 16  1  0
 15 24  1  0
 16 26  1  0
 16 17  1  0
 16 27  1  0
 17 18  1  0
 17 22  1  0
 17 28  1  0
 18 19  1  0
 18 29  1  0
 18 30  1  0
 19 31  1  0
 19 20  1  0
 19 32  1  0
 20 33  1  0
 20 21  1  0
 20 34  1  0
 21 35  1  0
 21 36  1  0
 21 22  1  0
 22 37  1  0
M  RAD  1  14   2
M  END
>  <rmg_smiles>  (3) 
[CH2][CH]C[CH][CH2].[CH]1CCC2CCCCC12

>  <rmg_adjacency_list>  (3) 
multiplicity 2
1  C u0 p0 c0 {2,S} {3,S} {4,S} {15,S}
2  C u0 p0 c0 {1,S} {5,S} {10,S} {16,S}
3  C u0 p0 c0 {1,S} {6,S} {19,S} {20,S}
4  C u0 p0 c0 {1,S} {8,S} {17,S} {18,S}
5  C u0 p0 c0 {2,S} {7,S} {25,S} {26,S}
6  C u0 p0 c0 {3,S} {7,S} {21,S} {22,S}
7  C u0 p0 c0 {5,S} {6,S} {23,S} {24,S}
8  C u0 p0 c0 {4,S} {10,S} {27,S} {28,S}
9  C u0 p0 c0 {11,S} {12,S} {29,S} {30,S}
10 C u1 p0 c0 {2,S} {8,S} {31,S}
11 C u0 p0 c0 {9,S} {13,S} {32,S}
12 C u0 p0 c0 {9,S} {14,S} {33,S}
13 C u0 p0 c0 {11,S} {34,S} {35,S}
14 C u0 p0 c0 {12,S} {36,S} {37,S}
15 H u0 p0 c0 {1,S}
16 H u0 p0 c0 {2,S}
17 H u0 p0 c0 {4,S}
18 H u0 p0 c0 {4,S}
19 H u0 p0 c0 {3,S}
20 H u0 p0 c0 {3,S}
21 H u0 p0 c0 {6,S}
22 H u0 p0 c0 {6,S}
23 H u0 p0 c0 {7,S}
24 H u0 p0 c0 {7,S}
25 H u0 p0 c0 {5,S}
26 H u0 p0 c0 {5,S}
27 H u0 p0 c0 {8,S}
28 H u0 p0 c0 {8,S}
29 H u0 p0 c0 {9,S}
30 H u0 p0 c0 {9,S}
31 H u0 p0 c0 {10,S}
32 H u0 p0 c0 {11,S}
33 H u0 p0 c0 {12,S}
34 H u0 p0 c0 {13,S}
35 H u0 p0 c0 {13,S}
36 H u0 p0 c0 {14,S}
37 H u0 p0 c0 {14,S}


>  <multiplicity>  (3) 
2

>  <reaction>  (3) 
rxn_745

>  <type>  (3) 
ts

>  <role_mapnums>  (3) 
{"*2": 9, "*1": 3, "*3": 14, "*0": 2, "*4": 22}

>  <role_mapidx>  (3) 
{"*2": 8, "*1": 2, "*3": 13, "*0": 1, "*4": 21}

>  <ordered_mapped_smiles>  (3) 
[CH:1]([CH:2]([C:3]([CH:4]([CH:5]([H:12])[H:13])[H:11])([H:9])[H:10])[H:8])([H:6])[H:7].[C:14]1([H:23])[C:15]([H:24])([H:25])[C:16]([H:26])([H:27])[C:17]2([H:28])[C:18]([H:29])([H:30])[C:19]([H:31])([H:32])[C:20]([H:33])([H:34])[C:21]([H:35])([H:36])[C:22]12[H:37]

>  <mol_properties>  (3) 
{"1": {"label": "*0", "atom_type": "Cs"}, "2": {"label": "*1", "atom_type": "Cs"}, "8": {"label": "*2", "atom_type": "H0"}, "13": {"label": "*3", "atom_type": "Cs"}, "21": {"label": "*4", "atom_type": "Cs"}}

>  <level_of_theory>  (3) 
wb97xd/def2tzvp

>  <lot_method>  (3) 
wb97xd

>  <lot_basis>  (3) 
def2tzvp

>  <spin_multiplicity>  (3) 
2.0

>  <optical_isomers>  (3) 
2.0

>  <modes>  (3) 
IdealGasTranslation(mass=(191.18, 'amu')),         NonlinearRotor(             inertia = ([508.532, 1138.63, 1324.26

>  <frequency_value>  (3) 
-1616.17

>  <frequency_units>  (3) 
cm^-1

>  <frequency_list>  (3) 
unknown

>  <arkane_path>  (3) 
/home/calvin/Dropbox/PersonalFolders/Calvin/HAb_Converged/rxn_745/output/rxns/TS0/arkane/output.py

>  <path_exists>  (3) 
True

>  <E0_value>  (3) 
-1435970.0

>  <E0_units>  (3) 
kJ/mol

>  <thermo_class>  (3) 
unknown

>  <Cp0_value>  (3) 
unknown

>  <Cp0_units>  (3) 
unknown

>  <CpInf_value>  (3) 
unknown

>  <CpInf_units>  (3) 
unknown

>  <Tmin_value>  (3) 
unknown

>  <Tmin_units>  (3) 
unknown

>  <Tmax_value>  (3) 
unknown

>  <Tmax_units>  (3) 
unknown

>  <polynomials>  (3) 
unknown

>  <H298_value>  (3) 
unknown

>  <H298_units>  (3) 
unknown

>  <S298_value>  (3) 
unknown

>  <S298_units>  (3) 
unknown

>  <Cp_T_value_list>  (3) 
unknown

>  <Cp_T_units>  (3) 
unknown

>  <T_list>  (3) 
unknown

>  <T_units>  (3) 
unknown

>  <yaml_path>  (3) 
unknown

>  <frequencies_cm1>  (3) 
unknown

>  <ZPE_kJmol>  (3) 
unknown

>  <E_elec_kJmol>  (3) 
unknown

>  <E0_minus_Eelec_plus_ZPE_kJmol>  (3) 
unknown

>  <rxn>  (3) 
unknown

>  <species_type>  (3) 
unknown

>  <species_folder>  (3) 
unknown

>  <frequencies_cm1_list>  (3) 
[]

>  <ts_imag_freq_cm1>  (3) 
-1635.8021

>  <ts_freq_out_path>  (3) 
/home/calvin/Dropbox/PersonalFolders/Calvin/HAb_Converged/rxn_745/output/rxns/TS0/geometry/freq.out

>  <E0_kJmol>  (3) 
-1.43597e+06

>  <H298_kJmol>  (3) 
unknown

$$$$

     RDKit          3D

 12 11  0  0  0  0  0  0  0  0999 V2000
   -2.3791    0.4612   -0.5870 C   0  0  0  0  0  0  0  0  0  1  0  0
   -1.3422   -0.3138   -0.1893 C   0  0  0  0  0  0  0  0  0  2  0  0
   -1.4723   -1.6058    0.3589 C   0  0  0  0  0  3  0  0  0  3  0  0
   -0.3798   -2.3973    0.7671 C   0  0  0  0  0  0  0  0  0  4  0  0
   -0.4849   -3.6397    1.2956 C   0  0  0  0  0  0  0  0  0  5  0  0
   -2.2205    1.4472   -1.0017 H   0  0  0  0  0  0  0  0  0  6  0  0
   -3.4026    0.1153   -0.5011 H   0  0  0  0  0  0  0  0  0  7  0  0
   -0.3330    0.0765   -0.2952 H   0  0  0  0  0  0  0  0  0  8  0  0
   -2.4723   -2.0151    0.4735 H   0  0  0  0  0  0  0  0  0  9  0  0
    0.6117   -1.9687    0.6436 H   0  0  0  0  0  0  0  0  0 10  0  0
    0.3893   -4.2030    1.5920 H   0  0  0  0  0  0  0  0  0 11  0  0
   -1.4516   -4.1084    1.4378 H   0  0  0  0  0  0  0  0  0 12  0  0
  1  7  1  0
  1  6  1  0
  1  2  1  0
  2  8  1  0
  2  3  1  0
  3  4  1  0
  3  9  1  0
  4  5  1  0
  4 10  1  0
  5 11  1  0
  5 12  1  0
M  RAD  1   3   2
M  END
>  <rmg_smiles>  (4) 
[CH2][CH][CH][CH][CH2]

>  <rmg_adjacency_list>  (4) 
multiplicity 2
1  C u1 p0 c0 {2,S} {3,S} {7,S}
2  C u0 p0 c0 {1,S} {4,S} {6,S}
3  C u0 p0 c0 {1,S} {5,S} {8,S}
4  C u0 p0 c0 {2,S} {9,S} {10,S}
5  C u0 p0 c0 {3,S} {11,S} {12,S}
6  H u0 p0 c0 {2,S}
7  H u0 p0 c0 {1,S}
8  H u0 p0 c0 {3,S}
9  H u0 p0 c0 {4,S}
10 H u0 p0 c0 {4,S}
11 H u0 p0 c0 {5,S}
12 H u0 p0 c0 {5,S}


>  <multiplicity>  (4) 
2

>  <reaction>  (4) 
rxn_745

>  <type>  (4) 
r1

>  <role_mapnums>  (4) 
{}

>  <role_mapidx>  (4) 
{}

>  <ordered_mapped_smiles>  (4) 
[CH:1]([CH:2]([C:3]([CH:4]([CH:5]([H:11])[H:12])[H:10])[H:9])[H:8])([H:6])[H:7]

>  <level_of_theory>  (4) 
wb97xd/def2tzvp

>  <lot_method>  (4) 
wb97xd

>  <lot_basis>  (4) 
def2tzvp

>  <spin_multiplicity>  (4) 
2.0

>  <optical_isomers>  (4) 
1.0

>  <modes>  (4) 
IdealGasTranslation(mass=(67.0548, 'amu')),         NonlinearRotor(             inertia = ([15.7789, 219.5, 235.279

>  <frequency_value>  (4) 
unknown

>  <frequency_units>  (4) 
unknown

>  <frequency_list>  (4) 
unknown

>  <arkane_path>  (4) 
/home/calvin/Dropbox/PersonalFolders/Calvin/HAb_Converged/rxn_745/output/Species/rxn_745_C=C[CH]C=C/arkane/output.py

>  <path_exists>  (4) 
True

>  <E0_value>  (4) 
-510855.5751100087

>  <E0_units>  (4) 
kJ/mol

>  <thermo_class>  (4) 
NASA

>  <Cp0_value>  (4) 
33.257888

>  <Cp0_units>  (4) 
J/(mol*K)

>  <CpInf_value>  (4) 
282.692048

>  <CpInf_units>  (4) 
J/(mol*K)

>  <Tmin_value>  (4) 
10.0

>  <Tmin_units>  (4) 
K

>  <Tmax_value>  (4) 
3000.0

>  <Tmax_units>  (4) 
K

>  <polynomials>  (4) 
[{"name": "polynomial1", "class": "NASAPolynomial", "Tmin_value": 10.0, "Tmin_units": "K", "Tmax_value": 495.5840275842744, "Tmax_units": "K", "coeffs": [3.932082032376979, 0.0042390896901888155, 0.00013491958123094253, -2.6336005693654997e-07, 1.626909165392724e-10, -61441731.381948404, 9.35015460292558]}, {"name": "polynomial2", "class": "NASAPolynomial", "Tmin_value": 495.5840275842744, "Tmin_units": "K", "Tmax_value": 3000.0, "Tmax_units": "K", "coeffs": [0.4678177086389979, 0.045132350968267176, -2.7995649240380386e-05, 8.450588130835857e-09, -9.873863008116942e-13, -61441546.824784815, 22.029002821441143]}]

>  <H298_value>  (4) 
-122093.22023375862

>  <H298_units>  (4) 
kcal/mol

>  <S298_value>  (4) 
73.53288382015234

>  <S298_units>  (4) 
cal/(mol*K)

>  <Cp_T_value_list>  (4) 
[22.959480712992537, 28.863567781662294, 33.84151615247921, 38.087110466730245, 44.868640102140795, 49.81473866504161, 57.02929961159329, 60.721969960278656, 62.78050937960764]

>  <Cp_T_units>  (4) 
cal/(mol*K)

>  <T_list>  (4) 
[300.0, 400.0, 500.0, 600.0, 800.0, 1000.0, 1500.0, 2000.0, 2400.0]

>  <T_units>  (4) 
K

>  <yaml_path>  (4) 
/home/calvin/Dropbox/PersonalFolders/Calvin/HAb_Converged/rxn_745/output/Species/rxn_745_C=C[CH]C=C/rxn_745_C=CCHC=C.yml

>  <frequencies_cm1>  (4) 
[152.447074104, 206.60012033752, 248.40632696568, 457.56783282756, 491.88902545691997, 588.69978449828, 627.8209998663199, 832.6563049765999, 870.4315912219199, 882.064264354, 920.7322586909199, 984.0870652532399, 1007.05026416332, 1023.1327437827599, 1134.85859493916, 1248.1157838219199, 1283.31595057224, 1294.9760916455998, 1300.263670342, 1433.84713577196, 1468.49107671136, 1516.66297873116, 1589.96804702216, 3115.7572492435997, 3116.0319286563995, 3124.4645866293595, 3126.14013104744, 3128.6191127479597, 3219.8676136801196, 3219.9500175039598]

>  <ZPE_kJmol>  (4) 
260.8752032786634

>  <E_elec_kJmol>  (4) 
-511116.4503132874

>  <E0_minus_Eelec_plus_ZPE_kJmol>  (4) 
0.0

>  <rxn>  (4) 
rxn_745

>  <species_type>  (4) 
p1

>  <species_folder>  (4) 
rxn_745_C=C[CH]C=C

>  <frequencies_cm1_list>  (4) 
[152.447074104, 206.60012033752, 248.40632696568, 457.56783282756, 491.88902545691997, 588.69978449828, 627.8209998663199, 832.6563049765999, 870.4315912219199, 882.064264354, 920.7322586909199, 984.0870652532399, 1007.05026416332, 1023.1327437827599, 1134.85859493916, 1248.1157838219199, 1283.31595057224, 1294.9760916455998, 1300.263670342, 1433.84713577196, 1468.49107671136, 1516.66297873116, 1589.96804702216, 3115.7572492435997, 3116.0319286563995, 3124.4645866293595, 3126.14013104744, 3128.6191127479597, 3219.8676136801196, 3219.9500175039598]

>  <E0_kJmol>  (4) 
-510856

>  <H298_kJmol>  (4) 
-510838

$$$$

     RDKit          3D

 24 25  0  0  0  0  0  0  0  0999 V2000
   -1.3137    1.2076    0.0526 C   0  0  0  0  0  3  0  0  0  1  0  0
   -2.3065    0.1196    0.2833 C   0  0  0  0  0  0  0  0  0  2  0  0
   -1.7836   -1.0394   -0.5898 C   0  0  0  0  0  0  0  0  0  3  0  0
   -0.2749   -0.7855   -0.6984 C   0  0  0  0  0  0  0  0  0  4  0  0
    0.4655   -1.2917    0.5434 C   0  0  0  0  0  0  0  0  0  5  0  0
    1.8694   -0.7131    0.6745 C   0  0  0  0  0  0  0  0  0  6  0  0
    1.8184    0.8105    0.7119 C   0  0  0  0  0  0  0  0  0  7  0  0
    1.1779    1.3572   -0.5588 C   0  0  0  0  0  0  0  0  0  8  0  0
   -0.2011    0.7528   -0.8316 C   0  0  0  0  0  0  0  0  0  9  0  0
   -1.4277    2.2231    0.4082 H   0  0  0  0  0  0  0  0  0 10  0  0
   -2.3438   -0.1691    1.3425 H   0  0  0  0  0  0  0  0  0 11  0  0
   -3.3295    0.4088    0.0212 H   0  0  0  0  0  0  0  0  0 12  0  0
   -2.2393   -0.9859   -1.5815 H   0  0  0  0  0  0  0  0  0 13  0  0
   -2.0144   -2.0220   -0.1744 H   0  0  0  0  0  0  0  0  0 14  0  0
    0.1520   -1.2674   -1.5825 H   0  0  0  0  0  0  0  0  0 15  0  0
   -0.1033   -1.0202    1.4396 H   0  0  0  0  0  0  0  0  0 16  0  0
    0.4983   -2.3841    0.5177 H   0  0  0  0  0  0  0  0  0 17  0  0
    2.4827   -1.0338   -0.1757 H   0  0  0  0  0  0  0  0  0 18  0  0
    2.3514   -1.1019    1.5744 H   0  0  0  0  0  0  0  0  0 19  0  0
    1.2359    1.1286    1.5834 H   0  0  0  0  0  0  0  0  0 20  0  0
    2.8216    1.2258    0.8314 H   0  0  0  0  0  0  0  0  0 21  0  0
    1.0952    2.4462   -0.5109 H   0  0  0  0  0  0  0  0  0 22  0  0
    1.8331    1.1314   -1.4069 H   0  0  0  0  0  0  0  0  0 23  0  0
   -0.4636    1.0027   -1.8738 H   0  0  0  0  0  0  0  0  0 24  0  0
  1 10  1  0
  1  9  1  0
  1  2  1  0
  2 12  1  0
  2 11  1  0
  2  3  1  0
  3  4  1  0
  3 13  1  0
  3 14  1  0
  4  9  1  0
  4  5  1  0
  4 15  1  0
  5 16  1  0
  5 17  1  0
  5  6  1  0
  6  7  1  0
  6 19  1  0
  6 18  1  0
  7 20  1  0
  7 21  1  0
  7  8  1  0
  8 23  1  0
  8  9  1  0
  8 22  1  0
  9 24  1  0
M  RAD  1   1   2
M  END
>  <rmg_smiles>  (5) 
[CH]1CCC2CCCCC12

>  <rmg_adjacency_list>  (5) 
multiplicity 2
1  C u0 p0 c0 {2,S} {3,S} {4,S} {10,S}
2  C u0 p0 c0 {1,S} {5,S} {9,S} {11,S}
3  C u0 p0 c0 {1,S} {6,S} {14,S} {15,S}
4  C u0 p0 c0 {1,S} {8,S} {12,S} {13,S}
5  C u0 p0 c0 {2,S} {7,S} {20,S} {21,S}
6  C u0 p0 c0 {3,S} {7,S} {16,S} {17,S}
7  C u0 p0 c0 {5,S} {6,S} {18,S} {19,S}
8  C u0 p0 c0 {4,S} {9,S} {22,S} {23,S}
9  C u1 p0 c0 {2,S} {8,S} {24,S}
10 H u0 p0 c0 {1,S}
11 H u0 p0 c0 {2,S}
12 H u0 p0 c0 {4,S}
13 H u0 p0 c0 {4,S}
14 H u0 p0 c0 {3,S}
15 H u0 p0 c0 {3,S}
16 H u0 p0 c0 {6,S}
17 H u0 p0 c0 {6,S}
18 H u0 p0 c0 {7,S}
19 H u0 p0 c0 {7,S}
20 H u0 p0 c0 {5,S}
21 H u0 p0 c0 {5,S}
22 H u0 p0 c0 {8,S}
23 H u0 p0 c0 {8,S}
24 H u0 p0 c0 {9,S}


>  <multiplicity>  (5) 
2

>  <reaction>  (5) 
rxn_745

>  <type>  (5) 
r2

>  <role_mapnums>  (5) 
{}

>  <role_mapidx>  (5) 
{}

>  <ordered_mapped_smiles>  (5) 
[C:1]1([H:10])[C:2]([H:11])([H:12])[C:3]([H:13])([H:14])[C:4]2([H:15])[C:5]([H:16])([H:17])[C:6]([H:18])([H:19])[C:7]([H:20])([H:21])[C:8]([H:22])([H:23])[C:9]12[H:24]

>  <level_of_theory>  (5) 
wb97xd/def2tzvp

>  <lot_method>  (5) 
wb97xd

>  <lot_basis>  (5) 
def2tzvp

>  <spin_multiplicity>  (5) 
2.0

>  <optical_isomers>  (5) 
2.0

>  <modes>  (5) 
IdealGasTranslation(mass=(123.117, 'amu')),         NonlinearRotor(             inertia = ([183.116, 337.78, 420.862

>  <frequency_value>  (5) 
unknown

>  <frequency_units>  (5) 
unknown

>  <frequency_list>  (5) 
unknown

>  <arkane_path>  (5) 
/home/calvin/Dropbox/PersonalFolders/Calvin/HAb_Converged/rxn_745/output/Species/rxn_745_[CH]1CCC2CCCCC12/arkane/output.py

>  <path_exists>  (5) 
True

>  <E0_value>  (5) 
-923521.4034742753

>  <E0_units>  (5) 
kJ/mol

>  <thermo_class>  (5) 
NASA

>  <Cp0_value>  (5) 
33.257888

>  <Cp0_units>  (5) 
J/(mol*K)

>  <CpInf_value>  (5) 
582.01304

>  <CpInf_units>  (5) 
J/(mol*K)

>  <Tmin_value>  (5) 
10.0

>  <Tmin_units>  (5) 
K

>  <Tmax_value>  (5) 
3000.0

>  <Tmax_units>  (5) 
K

>  <polynomials>  (5) 
[{"name": "polynomial1", "class": "NASAPolynomial", "Tmin_value": 10.0, "Tmin_units": "K", "Tmax_value": 528.972455779128, "Tmax_units": "K", "coeffs": [3.9868218800267257, -0.0002706572745000309, 0.00028187632893371514, -4.741050184034835e-07, 2.5734956335824994e-10, -111073965.68706591, 13.539897637614564]}, {"name": "polynomial2", "class": "NASAPolynomial", "Tmin_value": 528.972455779128, "Tmin_units": "K", "Tmax_value": 3000.0, "Tmax_units": "K", "coeffs": [-8.057241794330608, 0.1064450955450352, -6.508787704379979e-05, 1.907252295638734e-08, -2.1508745349439294e-12, -111072910.31254905, 61.90729537273606]}]

>  <H298_value>  (5) 
-220721.245578044

>  <H298_units>  (5) 
kcal/mol

>  <S298_value>  (5) 
89.45134221739195

>  <S298_units>  (5) 
cal/(mol*K)

>  <Cp_T_value_list>  (5) 
[36.878956346585845, 50.12569271862853, 61.88517923543043, 71.97481392014562, 88.08635981771188, 99.80073994362994, 116.53702427589523, 124.49378200225445, 128.77598528640422]

>  <Cp_T_units>  (5) 
cal/(mol*K)

>  <T_list>  (5) 
[300.0, 400.0, 500.0, 600.0, 800.0, 1000.0, 1500.0, 2000.0, 2400.0]

>  <T_units>  (5) 
K

>  <yaml_path>  (5) 
/home/calvin/Dropbox/PersonalFolders/Calvin/HAb_Converged/rxn_745/output/Species/rxn_745_[CH]1CCC2CCCCC12/rxn_745_CH1CCC2CCCCC12.yml

>  <frequencies_cm1>  (5) 
[136.62553992672, 157.51490927016, 211.37954212023996, 286.18848019632, 322.06847849332, 355.62056876684, 367.5897241795999, 411.11954412308, 476.10869319156, 586.10406404732, 659.1619208667998, 679.4263945461199, 776.27148851408, 816.29914594436, 831.37217872176, 862.80923751672, 874.6891221203199, 908.0695377608398, 920.8901993532799, 936.1829756609199, 978.41493537892, 1007.2974756348399, 1019.2666310475998, 1048.87020476212, 1054.7002752987999, 1059.7475095089999, 1090.01031381424, 1111.6207166162799, 1132.16673669372, 1153.45439118572, 1197.1009498796398, 1215.60747531704, 1249.276304341, 1269.96653111016, 1285.0532978581998, 1290.7322947178397, 1302.2482290994799, 1317.86375371716, 1334.75653760436, 1341.808931528, 1361.1738301304, 1369.2082029548, 1377.33871357368, 1391.0452162724, 1392.73449466112, 1461.8919038188399, 1471.2378708393599, 1474.8361711470397, 1479.64992785636, 1487.40275428264, 1490.6165034123997, 2897.1467715814, 2960.3367704960397, 2992.7077392945193, 2999.801335130079, 3001.73782499032, 3002.8296756562, 3006.4005080225998, 3019.7155925580796, 3032.0555651781197, 3045.94747648048, 3049.81358921564, 3053.18527900776, 3057.6694204217197, 3072.8935268761597, 3173.233916372]

>  <ZPE_kJmol>  (5) 
575.1531238351159

>  <E_elec_kJmol>  (5) 
-924096.5565981104

>  <E0_minus_Eelec_plus_ZPE_kJmol>  (5) 
0.0

>  <rxn>  (5) 
rxn_745

>  <species_type>  (5) 
r1

>  <species_folder>  (5) 
rxn_745_[CH]1CCC2CCCCC12

>  <frequencies_cm1_list>  (5) 
[136.62553992672, 157.51490927016, 211.37954212023996, 286.18848019632, 322.06847849332, 355.62056876684, 367.5897241795999, 411.11954412308, 476.10869319156, 586.10406404732, 659.1619208667998, 679.4263945461199, 776.27148851408, 816.29914594436, 831.37217872176, 862.80923751672, 874.6891221203199, 908.0695377608398, 920.8901993532799, 936.1829756609199, 978.41493537892, 1007.2974756348399, 1019.2666310475998, 1048.87020476212, 1054.7002752987999, 1059.7475095089999, 1090.01031381424, 1111.6207166162799, 1132.16673669372, 1153.45439118572, 1197.1009498796398, 1215.60747531704, 1249.276304341, 1269.96653111016, 1285.0532978581998, 1290.7322947178397, 1302.2482290994799, 1317.86375371716, 1334.75653760436, 1341.808931528, 1361.1738301304, 1369.2082029548, 1377.33871357368, 1391.0452162724, 1392.73449466112, 1461.8919038188399, 1471.2378708393599, 1474.8361711470397, 1479.64992785636, 1487.40275428264, 1490.6165034123997, 2897.1467715814, 2960.3367704960397, 2992.7077392945193, 2999.801335130079, 3001.73782499032, 3002.8296756562, 3006.4005080225998, 3019.7155925580796, 3032.0555651781197, 3045.94747648048, 3049.81358921564, 3053.18527900776, 3057.6694204217197, 3072.8935268761597, 3173.233916372]

>  <E0_kJmol>  (5) 
-923521

>  <H298_kJmol>  (5) 
-923498

$$$$
