
     RDKit          3D

 19 20  0  0  0  0  0  0  0  0999 V2000
   -0.8740    0.0786   -0.7802 C   0  0  0  0  0  0  0  0  0  1  0  0
   -0.6550    1.4099   -0.0361 C   0  0  0  0  0  0  0  0  0  2  0  0
   -1.1341   -1.0330    0.2544 C   0  0  0  0  0  0  0  0  0  3  0  0
    0.5593   -0.2566   -1.2351 C   0  0  0  0  0  0  0  0  0  4  0  0
    0.7420    1.2160    0.6357 C   0  0  0  0  0  0  0  0  0  5  0  0
    0.2628   -1.2273    0.9263 C   0  0  0  0  0  0  0  0  0  6  0  0
    1.0923   -0.1919    0.1881 C   0  0  0  0  0  0  0  0  0  7  0  0
   -1.6276    0.1331   -1.5649 H   0  0  0  0  0  0  0  0  0  8  0  0
   -0.6388    2.2463   -0.7363 H   0  0  0  0  0  0  0  0  0  9  0  0
   -1.4435    1.6044    0.6919 H   0  0  0  0  0  0  0  0  0 10  0  0
   -1.9053   -0.7497    0.9719 H   0  0  0  0  0  0  0  0  0 11  0  0
   -1.4619   -1.9501   -0.2373 H   0  0  0  0  0  0  0  0  0 12  0  0
    0.7061    1.3085    1.7211 H   0  0  0  0  0  0  0  0  0 13  0  0
    1.4647    1.9425    0.2613 H   0  0  0  0  0  0  0  0  0 14  0  0
    0.6452   -2.2352    0.7581 H   0  0  0  0  0  0  0  0  0 15  0  0
    0.2432   -1.0520    2.0018 H   0  0  0  0  0  0  0  0  0 16  0  0
    0.6495   -1.2433   -1.6914 H   0  0  0  0  0  0  0  0  0 17  0  0
    0.9904    0.4948   -1.8981 H   0  0  0  0  0  0  0  0  0 18  0  0
    2.1611   -0.3930    0.2600 H   0  0  0  0  0  0  0  0  0 19  0  0
  1  3  1  0
  1  4  1  0
  1  8  1  0
  1  2  1  0
  2  5  1  0
  2 10  1  0
  2  9  1  0
  3 12  1  0
  3 11  1  0
  3  6  1  0
  4 17  1  0
  4 18  1  0
  4  7  1  0
  5  7  1  0
  5 14  1  0
  5 13  1  0
  6  7  1  0
  6 16  1  0
  6 15  1  0
  7 19  1  0
M  END
>  <rmg_smiles>  (1) 
C1CC2CCC1C2

>  <rmg_adjacency_list>  (1) 
1  C u0 p0 c0 {3,S} {4,S} {5,S} {8,S}
2  C u0 p0 c0 {3,S} {6,S} {7,S} {9,S}
3  C u0 p0 c0 {1,S} {2,S} {18,S} {19,S}
4  C u0 p0 c0 {1,S} {6,S} {10,S} {11,S}
5  C u0 p0 c0 {1,S} {7,S} {12,S} {13,S}
6  C u0 p0 c0 {2,S} {4,S} {14,S} {15,S}
7  C u0 p0 c0 {2,S} {5,S} {16,S} {17,S}
8  H u0 p0 c0 {1,S}
9  H u0 p0 c0 {2,S}
10 H u0 p0 c0 {4,S}
11 H u0 p0 c0 {4,S}
12 H u0 p0 c0 {5,S}
13 H u0 p0 c0 {5,S}
14 H u0 p0 c0 {6,S}
15 H u0 p0 c0 {6,S}
16 H u0 p0 c0 {7,S}
17 H u0 p0 c0 {7,S}
18 H u0 p0 c0 {3,S}
19 H u0 p0 c0 {3,S}


>  <multiplicity>  (1) 
1

>  <reaction>  (1) 
rxn_732

>  <type>  (1) 
r1h

>  <role_mapnums>  (1) 
{"r1h_a": 7, "r1h_h": 19}

>  <role_mapidx>  (1) 
{"r1h_a": 6, "r1h_h": 18}

>  <ordered_mapped_smiles>  (1) 
[C:1]12([H:8])[C:2]([H:9])([H:10])[C:5]([H:13])([H:14])[C:7]([H:19])([C:4]1([H:17])[H:18])[C:6]([H:15])([H:16])[C:3]2([H:11])[H:12]

>  <mol_properties>  (1) 
{"6": {"label": "donator", "atom_type": "Cs"}, "18": {"label": "d_hydrogen", "atom_type": "H0"}}

>  <level_of_theory>  (1) 
wb97xd/def2tzvp

>  <lot_method>  (1) 
wb97xd

>  <lot_basis>  (1) 
def2tzvp

>  <spin_multiplicity>  (1) 
1.0

>  <optical_isomers>  (1) 
1.0

>  <modes>  (1) 
IdealGasTranslation(mass=(96.0939, 'amu')),         NonlinearRotor(             inertia = ([135.336, 156.085, 180.607

>  <frequency_value>  (1) 
unknown

>  <frequency_units>  (1) 
unknown

>  <frequency_list>  (1) 
unknown

>  <arkane_path>  (1) 
/home/calvin/Dropbox/PersonalFolders/Calvin/HAb_Converged/rxn_732/output/Species/rxn_732_C1CC2CCC1C2/arkane/output.py

>  <path_exists>  (1) 
True

>  <E0_value>  (1) 
-718893.5806331062

>  <E0_units>  (1) 
kJ/mol

>  <thermo_class>  (1) 
NASA

>  <Cp0_value>  (1) 
33.257888

>  <Cp0_units>  (1) 
J/(mol*K)

>  <CpInf_value>  (1) 
457.29596

>  <CpInf_units>  (1) 
J/(mol*K)

>  <Tmin_value>  (1) 
10.0

>  <Tmin_units>  (1) 
K

>  <Tmax_value>  (1) 
3000.0

>  <Tmax_units>  (1) 
K

>  <polynomials>  (1) 
[{"name": "polynomial1", "class": "NASAPolynomial", "Tmin_value": 10.0, "Tmin_units": "K", "Tmax_value": 662.4178125457627, "Tmax_units": "K", "coeffs": [4.239403585768697, -0.01836828814634063, 0.0002578950712714286, -3.7381328534857083e-07, 1.74409927807895e-10, -86462928.5201383, 9.87949578073462]}, {"name": "polynomial2", "class": "NASAPolynomial", "Tmin_value": 662.4178125457627, "Tmin_units": "K", "Tmax_value": 3000.0, "Tmax_units": "K", "coeffs": [-6.999983226389214, 0.08370637401899614, -5.070273549604008e-05, 1.4717426455763106e-08, -1.6436943039919863e-12, -86462189.9567335, 53.80936817756756]}]

>  <H298_value>  (1) 
-171815.58472962098

>  <H298_units>  (1) 
kcal/mol

>  <S298_value>  (1) 
73.63684385034063

>  <S298_units>  (1) 
cal/(mol*K)

>  <Cp_T_value_list>  (1) 
[26.348838520541374, 37.15309814493767, 47.10273015631388, 55.48382566754763, 68.31505323621754, 77.6548383777145, 91.07076230422987, 97.45683083224962, 100.88536523646154]

>  <Cp_T_units>  (1) 
cal/(mol*K)

>  <T_list>  (1) 
[300.0, 400.0, 500.0, 600.0, 800.0, 1000.0, 1500.0, 2000.0, 2400.0]

>  <T_units>  (1) 
K

>  <yaml_path>  (1) 
/home/calvin/Dropbox/PersonalFolders/Calvin/HAb_Converged/rxn_732/output/Species/rxn_732_C1CC2CCC1C2/rxn_732_C1CC2CCC1C2.yml

>  <frequencies_cm1>  (1) 
[154.85738595131997, 340.37586135643994, 406.75900844488, 450.69398052224, 546.52276066284, 762.7915963309199, 767.83883054112, 803.5128192785198, 822.9257867781599, 828.1927645185999, 886.4866029000799, 904.4231685559199, 936.7804033837599, 957.0723450043599, 964.2964135609999, 966.8990009972799, 969.81060277296, 1009.5017779225599, 1041.98261848616, 1088.6987196181199, 1128.4585646209198, 1135.50409155924, 1162.87589504476, 1186.2717140299999, 1234.53288685896, 1241.50287695876, 1269.37597037264, 1285.33484425632, 1285.7125284489198, 1300.5726846814, 1328.01315802012, 1340.8956224804401, 1342.91451616452, 1343.99949984508, 1472.87221334552, 1484.7314969931601, 1486.79845957448, 1493.51437121744, 1517.5419528521197, 3027.37228118988, 3027.8598371476, 3028.0795806778397, 3039.1354270430397, 3039.76032270716, 3064.0831847106, 3066.3286889102396, 3077.8514902772, 3080.41974278688, 3084.8970172155196, 3085.2334994962002, 3090.71335378156]

>  <ZPE_kJmol>  (1) 
462.7371032824111

>  <E_elec_kJmol>  (1) 
-719356.3177363885

>  <E0_minus_Eelec_plus_ZPE_kJmol>  (1) 
0.0

>  <rxn>  (1) 
rxn_732

>  <species_type>  (1) 
r1

>  <species_folder>  (1) 
rxn_732_C1CC2CCC1C2

>  <frequencies_cm1_list>  (1) 
[154.85738595131997, 340.37586135643994, 406.75900844488, 450.69398052224, 546.52276066284, 762.7915963309199, 767.83883054112, 803.5128192785198, 822.9257867781599, 828.1927645185999, 886.4866029000799, 904.4231685559199, 936.7804033837599, 957.0723450043599, 964.2964135609999, 966.8990009972799, 969.81060277296, 1009.5017779225599, 1041.98261848616, 1088.6987196181199, 1128.4585646209198, 1135.50409155924, 1162.87589504476, 1186.2717140299999, 1234.53288685896, 1241.50287695876, 1269.37597037264, 1285.33484425632, 1285.7125284489198, 1300.5726846814, 1328.01315802012, 1340.8956224804401, 1342.91451616452, 1343.99949984508, 1472.87221334552, 1484.7314969931601, 1486.79845957448, 1493.51437121744, 1517.5419528521197, 3027.37228118988, 3027.8598371476, 3028.0795806778397, 3039.1354270430397, 3039.76032270716, 3064.0831847106, 3066.3286889102396, 3077.8514902772, 3080.41974278688, 3084.8970172155196, 3085.2334994962002, 3090.71335378156]

>  <E0_kJmol>  (1) 
-718894

>  <H298_kJmol>  (1) 
-718876

$$$$

     RDKit          3D

  2  1  0  0  0  0  0  0  0  0999 V2000
    0.4422   -0.0844    0.0192 H   0  0  0  0  0  0  0  0  0  1  0  0
   -0.2840    0.0542   -0.0124 H   0  0  0  0  0  0  0  0  0  2  0  0
  1  2  1  0
M  END
>  <rmg_smiles>  (2) 
[H][H]

>  <rmg_adjacency_list>  (2) 
1 H u0 p0 c0 {2,S}
2 H u0 p0 c0 {1,S}


>  <multiplicity>  (2) 
1

>  <reaction>  (2) 
rxn_732

>  <type>  (2) 
r2h

>  <role_mapnums>  (2) 
{"r2h_a": 1, "r2h_h": 2}

>  <role_mapidx>  (2) 
{"r2h_a": 0, "r2h_h": 1}

>  <ordered_mapped_smiles>  (2) 
[H:1][H:2]

>  <mol_properties>  (2) 
{"0": {"label": "acceptor", "atom_type": "H0"}, "1": {"label": "a_hydrogen", "atom_type": "H0"}}

>  <level_of_theory>  (2) 
wb97xd/def2tzvp

>  <lot_method>  (2) 
wb97xd

>  <lot_basis>  (2) 
def2tzvp

>  <spin_multiplicity>  (2) 
1.0

>  <optical_isomers>  (2) 
1.0

>  <modes>  (2) 
IdealGasTranslation(mass=(2.01565, 'amu')),         LinearRotor(inertia=(0.279051, 'amu*angstrom^2'), symmetry=2),         HarmonicOscillator(frequencies=([4384.98

>  <frequency_value>  (2) 
unknown

>  <frequency_units>  (2) 
unknown

>  <frequency_list>  (2) 
unknown

>  <arkane_path>  (2) 
/home/calvin/Dropbox/PersonalFolders/Calvin/HAb_Converged/rxn_732/output/Species/rxn_732_[H][H]/arkane/output.py

>  <path_exists>  (2) 
True

>  <E0_value>  (2) 
-3062.16965545063

>  <E0_units>  (2) 
kJ/mol

>  <thermo_class>  (2) 
NASA

>  <Cp0_value>  (2) 
29.100652

>  <Cp0_units>  (2) 
J/(mol*K)

>  <CpInf_value>  (2) 
37.415124

>  <CpInf_units>  (2) 
J/(mol*K)

>  <Tmin_value>  (2) 
10.0

>  <Tmin_units>  (2) 
K

>  <Tmax_value>  (2) 
3000.0

>  <Tmax_units>  (2) 
K

>  <polynomials>  (2) 
[{"name": "polynomial1", "class": "NASAPolynomial", "Tmin_value": 10.0, "Tmin_units": "K", "Tmax_value": 609.8839760798177, "Tmax_units": "K", "coeffs": [3.498630427760662, 8.118128927195725e-05, -2.559636751505851e-07, 1.12469612407288e-11, 3.0815171130046294e-13, -368293.8823611774, -4.277290681887199]}, {"name": "polynomial2", "class": "NASAPolynomial", "Tmin_value": 609.8839760798177, "Tmin_units": "K", "Tmax_value": 3000.0, "Tmax_units": "K", "coeffs": [3.686867766797846, -0.0007828622299568348, 9.578139376048542e-07, -3.193665739780837e-10, 3.533006631714403e-14, -368323.7341208647, -5.148841965058497]}]

>  <H298_value>  (2) 
-729.8011438890577

>  <H298_units>  (2) 
kcal/mol

>  <S298_value>  (2) 
31.136082854374543

>  <S298_units>  (2) 
cal/(mol*K)

>  <Cp_T_value_list>  (2) 
[6.960683160805141, 6.952753142081975, 6.947066275630451, 6.950370161364484, 7.003977696739648, 7.10979357060473, 7.489089863592967, 7.874797646413975, 8.112273708870758]

>  <Cp_T_units>  (2) 
cal/(mol*K)

>  <T_list>  (2) 
[300.0, 400.0, 500.0, 600.0, 800.0, 1000.0, 1500.0, 2000.0, 2400.0]

>  <T_units>  (2) 
K

>  <yaml_path>  (2) 
/home/calvin/Dropbox/PersonalFolders/Calvin/HAb_Converged/rxn_732/output/Species/rxn_732_[H][H]/rxn_732_HH.yml

>  <frequencies_cm1>  (2) 
[4384.97527895388]

>  <ZPE_kJmol>  (2) 
26.22798418526521

>  <E_elec_kJmol>  (2) 
-3088.3976396358958

>  <E0_minus_Eelec_plus_ZPE_kJmol>  (2) 
0.0

>  <rxn>  (2) 
rxn_732

>  <species_type>  (2) 
p0

>  <species_folder>  (2) 
rxn_732_[H][H]

>  <frequencies_cm1_list>  (2) 
[4384.97527895388]

>  <E0_kJmol>  (2) 
-3062.17

>  <H298_kJmol>  (2) 
-3053.49

$$$$

     RDKit          3D

 20 20  0  0  0  0  0  0  0  0999 V2000
   -1.0448    0.1072   -0.8217 C   0  0  0  0  0  0  0  0  0  1  0  0
   -0.8258    1.4385   -0.0776 C   0  0  0  0  0  0  0  0  0  2  0  0
   -1.3049   -1.0045    0.2129 C   0  0  0  0  0  0  0  0  0  3  0  0
    0.3885   -0.2280   -1.2766 C   0  0  0  0  0  0  0  0  0  4  0  0
    0.5712    1.2446    0.5942 C   0  0  0  0  0  0  0  0  0  5  0  0
    0.0919   -1.1988    0.8848 C   0  0  0  0  0  0  0  0  0  6  0  0
    0.9215   -0.1633    0.1466 C   0  0  0  0  0  0  0  0  0  7  0  0
   -1.7984    0.1617   -1.6064 H   0  0  0  0  0  0  0  0  0  8  0  0
   -0.8096    2.2749   -0.7778 H   0  0  0  0  0  0  0  0  0  9  0  0
   -1.6144    1.6330    0.6504 H   0  0  0  0  0  0  0  0  0 10  0  0
   -2.0761   -0.7212    0.9304 H   0  0  0  0  0  0  0  0  0 11  0  0
   -1.6327   -1.9215   -0.2788 H   0  0  0  0  0  0  0  0  0 12  0  0
    0.5353    1.3371    1.6797 H   0  0  0  0  0  0  0  0  0 13  0  0
    1.2938    1.9711    0.2198 H   0  0  0  0  0  0  0  0  0 14  0  0
    0.4744   -2.2066    0.7166 H   0  0  0  0  0  0  0  0  0 15  0  0
    0.0724   -1.0234    1.9604 H   0  0  0  0  0  0  0  0  0 16  0  0
    0.4787   -1.2147   -1.7329 H   0  0  0  0  0  0  0  0  0 17  0  0
    0.8196    0.5233   -1.9396 H   0  0  0  0  0  0  0  0  0 18  0  0
    3.1718   -0.5892    0.2770 H   0  0  0  0  0 15  0  0  0 19  0  0
    2.2874   -0.4203    0.2386 H   0  0  0  0  0  0  0  0  0 20  0  0
  1  3  1  0
  1  4  1  0
  1  8  1  0
  1  2  1  0
  2  5  1  0
  2 10  1  0
  2  9  1  0
  3 12  1  0
  3 11  1  0
  3  6  1  0
  4 17  1  0
  4 18  1  0
  4  7  1  0
  5  7  1  0
  5 14  1  0
  5 13  1  0
  6  7  1  0
  6 16  1  0
  6 15  1  0
  7 20  1  0
M  END
>  <rmg_smiles>  (3) 
C1CC2CCC1C2.[H]

>  <rmg_adjacency_list>  (3) 
multiplicity 2
1  C u0 p0 c0 {3,S} {4,S} {5,S} {8,S}
2  C u0 p0 c0 {3,S} {6,S} {7,S} {9,S}
3  C u0 p0 c0 {1,S} {2,S} {18,S} {19,S}
4  C u0 p0 c0 {1,S} {6,S} {10,S} {11,S}
5  C u0 p0 c0 {1,S} {7,S} {12,S} {13,S}
6  C u0 p0 c0 {2,S} {4,S} {14,S} {15,S}
7  C u0 p0 c0 {2,S} {5,S} {16,S} {17,S}
8  H u0 p0 c0 {1,S}
9  H u0 p0 c0 {2,S}
10 H u0 p0 c0 {4,S}
11 H u0 p0 c0 {4,S}
12 H u0 p0 c0 {5,S}
13 H u0 p0 c0 {5,S}
14 H u0 p0 c0 {6,S}
15 H u0 p0 c0 {6,S}
16 H u0 p0 c0 {7,S}
17 H u0 p0 c0 {7,S}
18 H u0 p0 c0 {3,S}
19 H u0 p0 c0 {3,S}
20 H u1 p0 c0


>  <multiplicity>  (3) 
2

>  <reaction>  (3) 
rxn_732

>  <type>  (3) 
ts

>  <role_mapnums>  (3) 
{"*2": 20, "*1": 19, "*3": 7, "*0": null, "*4": 4}

>  <role_mapidx>  (3) 
{"*2": 19, "*1": 18, "*3": 6, "*4": 3}

>  <ordered_mapped_smiles>  (3) 
[C:1]12([H:8])[C:2]([H:9])([H:10])[C:5]([H:13])([H:14])[C:7]([H:20])([C:4]1([H:17])[H:18])[C:6]([H:15])([H:16])[C:3]2([H:11])[H:12].[H:19]

>  <mol_properties>  (3) 
{"3": {"label": "*4", "atom_type": "Cs"}, "6": {"label": "*3", "atom_type": "Cs"}, "18": {"label": "*1", "atom_type": "H0"}, "19": {"label": "*2", "atom_type": "H0"}}

>  <level_of_theory>  (3) 
wb97xd/def2tzvp

>  <lot_method>  (3) 
wb97xd

>  <lot_basis>  (3) 
def2tzvp

>  <spin_multiplicity>  (3) 
2.0

>  <optical_isomers>  (3) 
1.0

>  <modes>  (3) 
IdealGasTranslation(mass=(97.1017, 'amu')),         NonlinearRotor(             inertia = ([147.343, 157.959, 192.364

>  <frequency_value>  (3) 
-1124.69

>  <frequency_units>  (3) 
cm^-1

>  <frequency_list>  (3) 
unknown

>  <arkane_path>  (3) 
/home/calvin/Dropbox/PersonalFolders/Calvin/HAb_Converged/rxn_732/output/rxns/TS0/arkane/output.py

>  <path_exists>  (3) 
True

>  <E0_value>  (3) 
-720173.0

>  <E0_units>  (3) 
kJ/mol

>  <thermo_class>  (3) 
unknown

>  <Cp0_value>  (3) 
unknown

>  <Cp0_units>  (3) 
unknown

>  <CpInf_value>  (3) 
unknown

>  <CpInf_units>  (3) 
unknown

>  <Tmin_value>  (3) 
unknown

>  <Tmin_units>  (3) 
unknown

>  <Tmax_value>  (3) 
unknown

>  <Tmax_units>  (3) 
unknown

>  <polynomials>  (3) 
unknown

>  <H298_value>  (3) 
unknown

>  <H298_units>  (3) 
unknown

>  <S298_value>  (3) 
unknown

>  <S298_units>  (3) 
unknown

>  <Cp_T_value_list>  (3) 
unknown

>  <Cp_T_units>  (3) 
unknown

>  <T_list>  (3) 
unknown

>  <T_units>  (3) 
unknown

>  <yaml_path>  (3) 
unknown

>  <frequencies_cm1>  (3) 
unknown

>  <ZPE_kJmol>  (3) 
unknown

>  <E_elec_kJmol>  (3) 
unknown

>  <E0_minus_Eelec_plus_ZPE_kJmol>  (3) 
unknown

>  <rxn>  (3) 
unknown

>  <species_type>  (3) 
unknown

>  <species_folder>  (3) 
unknown

>  <frequencies_cm1_list>  (3) 
[]

>  <ts_imag_freq_cm1>  (3) 
-1138.3531

>  <ts_freq_out_path>  (3) 
/home/calvin/Dropbox/PersonalFolders/Calvin/HAb_Converged/rxn_732/output/rxns/TS0/geometry/freq.out

>  <E0_kJmol>  (3) 
-720173

>  <H298_kJmol>  (3) 
unknown

$$$$

     RDKit          3D

 18 19  0  0  0  0  0  0  0  0999 V2000
    1.4897    0.5883    0.1105 C   0  0  0  0  0  0  0  0  0  1  0  0
    1.1311   -0.8051   -0.5162 C   0  0  0  0  0  0  0  0  0  2  0  0
   -0.3169   -1.0404   -0.0394 C   0  0  0  0  0  0  0  0  0  3  0  0
   -1.2543   -0.0684   -0.7849 C   0  0  0  0  0  0  0  0  0  4  0  0
   -0.8937    1.3243   -0.1581 C   0  0  0  0  0  0  0  0  0  5  0  0
    0.1924    0.9172    0.8069 C   0  0  0  0  0  3  0  0  0  6  0  0
   -0.2799   -0.4064    1.3705 C   0  0  0  0  0  0  0  0  0  7  0  0
    1.7637    1.3287   -0.6409 H   0  0  0  0  0  0  0  0  0  8  0  0
    2.3187    0.4966    0.8138 H   0  0  0  0  0  0  0  0  0  9  0  0
    1.7945   -1.5849   -0.1392 H   0  0  0  0  0  0  0  0  0 10  0  0
    1.2076   -0.8023   -1.6044 H   0  0  0  0  0  0  0  0  0 11  0  0
   -0.6324   -2.0820   -0.0940 H   0  0  0  0  0  0  0  0  0 12  0  0
   -1.0930   -0.0918   -1.8636 H   0  0  0  0  0  0  0  0  0 13  0  0
   -2.2997   -0.3205   -0.6004 H   0  0  0  0  0  0  0  0  0 14  0  0
   -0.5487    2.0429   -0.9014 H   0  0  0  0  0  0  0  0  0 15  0  0
   -1.7551    1.7547    0.3548 H   0  0  0  0  0  0  0  0  0 16  0  0
    0.4357   -0.8873    2.0385 H   0  0  0  0  0  0  0  0  0 17  0  0
   -1.2599   -0.3636    1.8475 H   0  0  0  0  0  0  0  0  0 18  0  0
  1  8  1  0
  1  6  1  0
  1  9  1  0
  1  2  1  0
  2 11  1  0
  2  3  1  0
  2 10  1  0
  3  4  1  0
  3 12  1  0
  3  7  1  0
  4 14  1  0
  4  5  1  0
  4 13  1  0
  5 16  1  0
  5 15  1  0
  5  6  1  0
  6  7  1  0
  7 17  1  0
  7 18  1  0
M  RAD  1   6   2
M  END
>  <rmg_smiles>  (4) 
C1CC2CC[C]1C2

>  <rmg_adjacency_list>  (4) 
multiplicity 2
1  C u0 p0 c0 {2,S} {3,S} {4,S} {8,S}
2  C u0 p0 c0 {1,S} {5,S} {9,S} {10,S}
3  C u0 p0 c0 {1,S} {6,S} {11,S} {12,S}
4  C u0 p0 c0 {1,S} {7,S} {17,S} {18,S}
5  C u0 p0 c0 {2,S} {7,S} {13,S} {14,S}
6  C u0 p0 c0 {3,S} {7,S} {15,S} {16,S}
7  C u1 p0 c0 {4,S} {5,S} {6,S}
8  H u0 p0 c0 {1,S}
9  H u0 p0 c0 {2,S}
10 H u0 p0 c0 {2,S}
11 H u0 p0 c0 {3,S}
12 H u0 p0 c0 {3,S}
13 H u0 p0 c0 {5,S}
14 H u0 p0 c0 {5,S}
15 H u0 p0 c0 {6,S}
16 H u0 p0 c0 {6,S}
17 H u0 p0 c0 {4,S}
18 H u0 p0 c0 {4,S}


>  <multiplicity>  (4) 
2

>  <reaction>  (4) 
rxn_732

>  <type>  (4) 
r1

>  <role_mapnums>  (4) 
{}

>  <role_mapidx>  (4) 
{}

>  <ordered_mapped_smiles>  (4) 
[C:1]1([H:8])([H:9])[C:2]([H:10])([H:11])[C:3]2([H:12])[C:4]([H:13])([H:14])[C:5]([H:15])([H:16])[C:6]1[C:7]2([H:17])[H:18]

>  <level_of_theory>  (4) 
wb97xd/def2tzvp

>  <lot_method>  (4) 
wb97xd

>  <lot_basis>  (4) 
def2tzvp

>  <spin_multiplicity>  (4) 
2.0

>  <optical_isomers>  (4) 
1.0

>  <modes>  (4) 
IdealGasTranslation(mass=(95.0861, 'amu')),         NonlinearRotor(             inertia = ([129.118, 156.244, 176.414

>  <frequency_value>  (4) 
unknown

>  <frequency_units>  (4) 
unknown

>  <frequency_list>  (4) 
unknown

>  <arkane_path>  (4) 
/home/calvin/Dropbox/PersonalFolders/Calvin/HAb_Converged/rxn_732/output/Species/rxn_732_C1CC2CC[C]1C2/arkane/output.py

>  <path_exists>  (4) 
True

>  <E0_value>  (4) 
-717136.8259170701

>  <E0_units>  (4) 
kJ/mol

>  <thermo_class>  (4) 
NASA

>  <Cp0_value>  (4) 
33.257888

>  <Cp0_units>  (4) 
J/(mol*K)

>  <CpInf_value>  (4) 
432.352544

>  <CpInf_units>  (4) 
J/(mol*K)

>  <Tmin_value>  (4) 
10.0

>  <Tmin_units>  (4) 
K

>  <Tmax_value>  (4) 
3000.0

>  <Tmax_units>  (4) 
K

>  <polynomials>  (4) 
[{"name": "polynomial1", "class": "NASAPolynomial", "Tmin_value": 10.0, "Tmin_units": "K", "Tmax_value": 646.1324590440888, "Tmax_units": "K", "coeffs": [4.218750710959558, -0.017316782700385905, 0.00025469000210756246, -3.807497037843714e-07, 1.830514991759779e-10, -86251638.55406377, 11.187111910979148]}, {"name": "polynomial2", "class": "NASAPolynomial", "Tmin_value": 646.1324590440888, "Tmin_units": "K", "Tmax_value": 3000.0, "Tmax_units": "K", "coeffs": [-5.753666896541013, 0.07879270357687056, -4.822679202549291e-05, 1.4127941350913933e-08, -1.5901088973099827e-12, -86251067.37677719, 49.3903543168938]}]

>  <H298_value>  (4) 
-171395.70267313893

>  <H298_units>  (4) 
kcal/mol

>  <S298_value>  (4) 
76.2536800001839

>  <S298_units>  (4) 
cal/(mol*K)

>  <Cp_T_value_list>  (4) 
[26.128369812041274, 36.486254606833086, 45.864458987562394, 53.65183342970516, 65.57293879315729, 74.22231604110186, 86.55671814636287, 92.41774213121404, 95.60681768008335]

>  <Cp_T_units>  (4) 
cal/(mol*K)

>  <T_list>  (4) 
[300.0, 400.0, 500.0, 600.0, 800.0, 1000.0, 1500.0, 2000.0, 2400.0]

>  <T_units>  (4) 
K

>  <yaml_path>  (4) 
/home/calvin/Dropbox/PersonalFolders/Calvin/HAb_Converged/rxn_732/output/Species/rxn_732_C1CC2CC[C]1C2/rxn_732_C1CC2CCC1C2.yml

>  <frequencies_cm1>  (4) 
[163.06343340872002, 342.08574070111996, 400.67485945136, 454.12747318223995, 525.9904745560399, 735.22065027112, 750.74003709432, 799.5368347782398, 800.0312577212799, 824.37472068068, 884.11749296468, 884.7698565700799, 929.1168477666399, 953.12382844536, 955.69894794036, 962.6620710548399, 993.11715094904, 1017.4812148643999, 1050.52514822424, 1110.8104123485198, 1121.6877170954, 1173.14890508348, 1197.9593230446399, 1219.0890368742798, 1226.62898675564, 1247.5252230844, 1255.1819117162, 1258.01797665336, 1307.2336604418, 1312.8920563454801, 1322.5745056466799, 1327.2577896349198, 1467.6258365610397, 1481.6962894817198, 1483.00101669252, 1487.2585475909198, 1512.7625310693998, 3031.40320157272, 3031.430669514, 3039.33456961732, 3041.40839918396, 3044.3612028715597, 3073.30554599536, 3073.84803783564, 3079.3965619742, 3091.6266628291196, 3097.66960991072, 3097.8550185143595]

>  <ZPE_kJmol>  (4) 
428.5051682919513

>  <E_elec_kJmol>  (4) 
-717565.3310853621

>  <E0_minus_Eelec_plus_ZPE_kJmol>  (4) 
0.0

>  <rxn>  (4) 
rxn_732

>  <species_type>  (4) 
p1

>  <species_folder>  (4) 
rxn_732_C1CC2CC[C]1C2

>  <frequencies_cm1_list>  (4) 
[163.06343340872002, 342.08574070111996, 400.67485945136, 454.12747318223995, 525.9904745560399, 735.22065027112, 750.74003709432, 799.5368347782398, 800.0312577212799, 824.37472068068, 884.11749296468, 884.7698565700799, 929.1168477666399, 953.12382844536, 955.69894794036, 962.6620710548399, 993.11715094904, 1017.4812148643999, 1050.52514822424, 1110.8104123485198, 1121.6877170954, 1173.14890508348, 1197.9593230446399, 1219.0890368742798, 1226.62898675564, 1247.5252230844, 1255.1819117162, 1258.01797665336, 1307.2336604418, 1312.8920563454801, 1322.5745056466799, 1327.2577896349198, 1467.6258365610397, 1481.6962894817198, 1483.00101669252, 1487.2585475909198, 1512.7625310693998, 3031.40320157272, 3031.430669514, 3039.33456961732, 3041.40839918396, 3044.3612028715597, 3073.30554599536, 3073.84803783564, 3079.3965619742, 3091.6266628291196, 3097.66960991072, 3097.8550185143595]

>  <E0_kJmol>  (4) 
-717137

>  <H298_kJmol>  (4) 
-717120

$$$$

     RDKit          3D

  1  0  0  0  0  0  0  0  0  0999 V2000
    0.0000    0.0000    0.0000 H   0  0  0  0  0 15  0  0  0  1  0  0
M  END
>  <rmg_smiles>  (5) 
[H]

>  <rmg_adjacency_list>  (5) 
multiplicity 2
1 H u1 p0 c0


>  <multiplicity>  (5) 
2

>  <reaction>  (5) 
rxn_732

>  <type>  (5) 
r2

>  <role_mapnums>  (5) 
{}

>  <role_mapidx>  (5) 
{}

>  <ordered_mapped_smiles>  (5) 
[H:1]

>  <level_of_theory>  (5) 
wb97xd/def2tzvp

>  <lot_method>  (5) 
wb97xd

>  <lot_basis>  (5) 
def2tzvp

>  <spin_multiplicity>  (5) 
2.0

>  <optical_isomers>  (5) 
1.0

>  <modes>  (5) 
IdealGasTranslation(mass=(1.00797, 'amu')),

>  <frequency_value>  (5) 
unknown

>  <frequency_units>  (5) 
unknown

>  <frequency_list>  (5) 
unknown

>  <arkane_path>  (5) 
/home/calvin/Dropbox/PersonalFolders/Calvin/HAb_Converged/rxn_732/output/Species/rxn_732_[H]/arkane/output.py

>  <path_exists>  (5) 
True

>  <E0_value>  (5) 
-1319.7535890175566

>  <E0_units>  (5) 
kJ/mol

>  <thermo_class>  (5) 
NASA

>  <Cp0_value>  (5) 
20.78618

>  <Cp0_units>  (5) 
J/(mol*K)

>  <CpInf_value>  (5) 
20.78618

>  <CpInf_units>  (5) 
J/(mol*K)

>  <Tmin_value>  (5) 
10.0

>  <Tmin_units>  (5) 
K

>  <Tmax_value>  (5) 
3000.0

>  <Tmax_units>  (5) 
K

>  <polynomials>  (5) 
[{"name": "polynomial1", "class": "NASAPolynomial", "Tmin_value": 10.0, "Tmin_units": "K", "Tmax_value": 1853.5663026740365, "Tmax_units": "K", "coeffs": [2.500000000000126, -2.814048095438137e-15, 9.047587538332909e-18, -8.591944598242694e-21, 2.4182720553650057e-24, -158729.69562032758, -0.461069367474324]}, {"name": "polynomial2", "class": "NASAPolynomial", "Tmin_value": 1853.5663026740365, "Tmin_units": "K", "Tmax_value": 3000.0, "Tmax_units": "K", "coeffs": [2.500000000696122, -1.3129776766613561e-12, 9.140875080033424e-16, -2.782806647322001e-19, 3.1263265306749967e-23, -158729.69562061856, -0.4610693713504795]}]

>  <H298_value>  (5) 
-313.9482141882736

>  <H298_units>  (5) 
kcal/mol

>  <S298_value>  (5) 
27.387012987908147

>  <S298_units>  (5) 
cal/(mol*K)

>  <Cp_T_value_list>  (5) 
[4.968016252389826, 4.968016252389978, 4.968016252390173, 4.96801625239036, 4.968016252390567, 4.968016252390427, 4.968016252389077, 4.968016252391019, 4.968016252390868]

>  <Cp_T_units>  (5) 
cal/(mol*K)

>  <T_list>  (5) 
[300.0, 400.0, 500.0, 600.0, 800.0, 1000.0, 1500.0, 2000.0, 2400.0]

>  <T_units>  (5) 
K

>  <yaml_path>  (5) 
/home/calvin/Dropbox/PersonalFolders/Calvin/HAb_Converged/rxn_732/output/Species/rxn_732_[H]/rxn_732_H.yml

>  <frequencies_cm1>  (5) 
[]

>  <ZPE_kJmol>  (5) 
unknown

>  <E_elec_kJmol>  (5) 
unknown

>  <E0_minus_Eelec_plus_ZPE_kJmol>  (5) 
unknown

>  <rxn>  (5) 
rxn_732

>  <species_type>  (5) 
r0

>  <species_folder>  (5) 
rxn_732_[H]

>  <frequencies_cm1_list>  (5) 
[]

>  <E0_kJmol>  (5) 
-1319.75

>  <H298_kJmol>  (5) 
-1313.56

$$$$
