
     RDKit          3D

 19 20  0  0  0  0  0  0  0  0999 V2000
    0.1647   -1.2208    0.9022 C   0  0  0  0  0  0  0  0  0  1  0  0
    0.1001   -1.4179   -0.6175 C   0  0  0  0  0  0  0  0  0  2  0  0
    0.2452    0.0199   -1.1458 C   0  0  0  0  0  0  0  0  0  3  0  0
   -1.0504    0.7851   -0.8299 C   0  0  0  0  0  0  0  0  0  4  0  0
   -0.9905    0.9627    0.7128 C   0  0  0  0  0  0  0  0  0  5  0  0
    0.3386    0.2783    1.0882 C   0  0  0  0  0  0  0  0  0  6  0  0
    1.2155    0.6267   -0.1228 C   0  0  0  0  0  0  0  0  0  7  0  0
    1.0745   -1.6928    1.2712 H   0  0  0  0  0  0  0  0  0  8  0  0
   -0.6297   -1.6822    1.4877 H   0  0  0  0  0  0  0  0  0  9  0  0
    0.9230   -2.0470   -0.9700 H   0  0  0  0  0  0  0  0  0 10  0  0
   -0.8293   -1.8876   -0.9455 H   0  0  0  0  0  0  0  0  0 11  0  0
    0.5492    0.0781   -2.1899 H   0  0  0  0  0  0  0  0  0 12  0  0
   -1.9360    0.2379   -1.1563 H   0  0  0  0  0  0  0  0  0 13  0  0
   -1.0596    1.7522   -1.3351 H   0  0  0  0  0  0  0  0  0 14  0  0
   -1.8403    0.5080    1.2236 H   0  0  0  0  0  0  0  0  0 15  0  0
   -0.9697    2.0189    0.9884 H   0  0  0  0  0  0  0  0  0 16  0  0
    0.7242    0.5655    2.0659 H   0  0  0  0  0  0  0  0  0 17  0  0
    2.1877    0.1309   -0.1030 H   0  0  0  0  0  0  0  0  0 18  0  0
    1.3615    1.7006   -0.2538 H   0  0  0  0  0  0  0  0  0 19  0  0
  1  8  1  0
  1  6  1  0
  1  9  1  0
  1  2  1  0
  2 11  1  0
  2  3  1  0
  2 10  1  0
  3  4  1  0
  3 12  1  0
  3  7  1  0
  4 14  1  0
  4  5  1  0
  4 13  1  0
  5 16  1  0
  5 15  1  0
  5  6  1  0
  6  7  1  0
  6 17  1  0
  7 18  1  0
  7 19  1  0
M  END
>  <rmg_smiles>  (1) 
C1CC2CCC1C2

>  <rmg_adjacency_list>  (1) 
1  C u0 p0 c0 {3,S} {5,S} {6,S} {8,S}
2  C u0 p0 c0 {3,S} {4,S} {7,S} {9,S}
3  C u0 p0 c0 {1,S} {2,S} {18,S} {19,S}
4  C u0 p0 c0 {2,S} {5,S} {10,S} {11,S}
5  C u0 p0 c0 {1,S} {4,S} {12,S} {13,S}
6  C u0 p0 c0 {1,S} {7,S} {14,S} {15,S}
7  C u0 p0 c0 {2,S} {6,S} {16,S} {17,S}
8  H u0 p0 c0 {1,S}
9  H u0 p0 c0 {2,S}
10 H u0 p0 c0 {4,S}
11 H u0 p0 c0 {4,S}
12 H u0 p0 c0 {5,S}
13 H u0 p0 c0 {5,S}
14 H u0 p0 c0 {6,S}
15 H u0 p0 c0 {6,S}
16 H u0 p0 c0 {7,S}
17 H u0 p0 c0 {7,S}
18 H u0 p0 c0 {3,S}
19 H u0 p0 c0 {3,S}


>  <multiplicity>  (1) 
1

>  <reaction>  (1) 
rxn_483

>  <type>  (1) 
r1h

>  <role_mapnums>  (1) 
{"r1h_a": 1, "r1h_h": 8}

>  <role_mapidx>  (1) 
{"r1h_a": 0, "r1h_h": 7}

>  <ordered_mapped_smiles>  (1) 
[C:1]1([H:8])([H:9])[C:2]([H:10])([H:11])[C:3]2([H:12])[C:4]([H:13])([H:14])[C:5]([H:15])([H:16])[C:6]1([H:17])[C:7]2([H:18])[H:19]

>  <mol_properties>  (1) 
{"0": {"label": "donator", "atom_type": "Cs"}, "7": {"label": "d_hydrogen", "atom_type": "H0"}}

>  <level_of_theory>  (1) 
wb97xd/def2tzvp

>  <lot_method>  (1) 
wb97xd

>  <lot_basis>  (1) 
def2tzvp

>  <spin_multiplicity>  (1) 
1.0

>  <optical_isomers>  (1) 
1.0

>  <modes>  (1) 
IdealGasTranslation(mass=(96.0939, 'amu')),         NonlinearRotor(             inertia = ([135.336, 156.085, 180.607

>  <frequency_value>  (1) 
unknown

>  <frequency_units>  (1) 
unknown

>  <frequency_list>  (1) 
unknown

>  <arkane_path>  (1) 
/home/calvin/Dropbox/PersonalFolders/Calvin/HAb_Converged/rxn_483/output/Species/rxn_483_C1CC2CCC1C2/arkane/output.py

>  <path_exists>  (1) 
True

>  <E0_value>  (1) 
-718893.5806331062

>  <E0_units>  (1) 
kJ/mol

>  <thermo_class>  (1) 
NASA

>  <Cp0_value>  (1) 
33.257888

>  <Cp0_units>  (1) 
J/(mol*K)

>  <CpInf_value>  (1) 
457.29596

>  <CpInf_units>  (1) 
J/(mol*K)

>  <Tmin_value>  (1) 
10.0

>  <Tmin_units>  (1) 
K

>  <Tmax_value>  (1) 
3000.0

>  <Tmax_units>  (1) 
K

>  <polynomials>  (1) 
[{"name": "polynomial1", "class": "NASAPolynomial", "Tmin_value": 10.0, "Tmin_units": "K", "Tmax_value": 662.4178125457627, "Tmax_units": "K", "coeffs": [4.239403585768697, -0.01836828814634063, 0.0002578950712714286, -3.7381328534857083e-07, 1.74409927807895e-10, -86462928.5201383, 9.87949578073462]}, {"name": "polynomial2", "class": "NASAPolynomial", "Tmin_value": 662.4178125457627, "Tmin_units": "K", "Tmax_value": 3000.0, "Tmax_units": "K", "coeffs": [-6.999983226389214, 0.08370637401899614, -5.070273549604008e-05, 1.4717426455763106e-08, -1.6436943039919863e-12, -86462189.9567335, 53.80936817756756]}]

>  <H298_value>  (1) 
-171815.58472962098

>  <H298_units>  (1) 
kcal/mol

>  <S298_value>  (1) 
73.63684385034063

>  <S298_units>  (1) 
cal/(mol*K)

>  <Cp_T_value_list>  (1) 
[26.348838520541374, 37.15309814493767, 47.10273015631388, 55.48382566754763, 68.31505323621754, 77.6548383777145, 91.07076230422987, 97.45683083224962, 100.88536523646154]

>  <Cp_T_units>  (1) 
cal/(mol*K)

>  <T_list>  (1) 
[300.0, 400.0, 500.0, 600.0, 800.0, 1000.0, 1500.0, 2000.0, 2400.0]

>  <T_units>  (1) 
K

>  <yaml_path>  (1) 
/home/calvin/Dropbox/PersonalFolders/Calvin/HAb_Converged/rxn_483/output/Species/rxn_483_C1CC2CCC1C2/rxn_483_C1CC2CCC1C2.yml

>  <frequencies_cm1>  (1) 
[154.85738595131997, 340.37586135643994, 406.75900844488, 450.69398052224, 546.52276066284, 762.7915963309199, 767.83883054112, 803.5128192785198, 822.9257867781599, 828.1927645185999, 886.4866029000799, 904.4231685559199, 936.7804033837599, 957.0723450043599, 964.2964135609999, 966.8990009972799, 969.81060277296, 1009.5017779225599, 1041.98261848616, 1088.6987196181199, 1128.4585646209198, 1135.50409155924, 1162.87589504476, 1186.2717140299999, 1234.53288685896, 1241.50287695876, 1269.37597037264, 1285.33484425632, 1285.7125284489198, 1300.5726846814, 1328.01315802012, 1340.8956224804401, 1342.91451616452, 1343.99949984508, 1472.87221334552, 1484.7314969931601, 1486.79845957448, 1493.51437121744, 1517.5419528521197, 3027.37228118988, 3027.8598371476, 3028.0795806778397, 3039.1354270430397, 3039.76032270716, 3064.0831847106, 3066.3286889102396, 3077.8514902772, 3080.41974278688, 3084.8970172155196, 3085.2334994962002, 3090.71335378156]

>  <ZPE_kJmol>  (1) 
462.7371032824111

>  <E_elec_kJmol>  (1) 
-719356.3177363885

>  <E0_minus_Eelec_plus_ZPE_kJmol>  (1) 
0.0

>  <rxn>  (1) 
rxn_483

>  <species_type>  (1) 
r1

>  <species_folder>  (1) 
rxn_483_C1CC2CCC1C2

>  <frequencies_cm1_list>  (1) 
[154.85738595131997, 340.37586135643994, 406.75900844488, 450.69398052224, 546.52276066284, 762.7915963309199, 767.83883054112, 803.5128192785198, 822.9257867781599, 828.1927645185999, 886.4866029000799, 904.4231685559199, 936.7804033837599, 957.0723450043599, 964.2964135609999, 966.8990009972799, 969.81060277296, 1009.5017779225599, 1041.98261848616, 1088.6987196181199, 1128.4585646209198, 1135.50409155924, 1162.87589504476, 1186.2717140299999, 1234.53288685896, 1241.50287695876, 1269.37597037264, 1285.33484425632, 1285.7125284489198, 1300.5726846814, 1328.01315802012, 1340.8956224804401, 1342.91451616452, 1343.99949984508, 1472.87221334552, 1484.7314969931601, 1486.79845957448, 1493.51437121744, 1517.5419528521197, 3027.37228118988, 3027.8598371476, 3028.0795806778397, 3039.1354270430397, 3039.76032270716, 3064.0831847106, 3066.3286889102396, 3077.8514902772, 3080.41974278688, 3084.8970172155196, 3085.2334994962002, 3090.71335378156]

>  <E0_kJmol>  (1) 
-718894

>  <H298_kJmol>  (1) 
-718876

$$$$

     RDKit          3D

  5  4  0  0  0  0  0  0  0  0999 V2000
    0.0310   -0.0141    0.0111 C   0  0  0  0  0  0  0  0  0  1  0  0
    0.5617    0.8217    0.4574 H   0  0  0  0  0  0  0  0  0  2  0  0
    0.4943   -0.3934   -0.8950 H   0  0  0  0  0  0  0  0  0  3  0  0
   -0.2427   -0.7890    0.7206 H   0  0  0  0  0  0  0  0  0  4  0  0
   -0.9128    0.4085   -0.3206 H   0  0  0  0  0  0  0  0  0  5  0  0
  1  3  1  0
  1  5  1  0
  1  4  1  0
  1  2  1  0
M  END
>  <rmg_smiles>  (2) 
C

>  <rmg_adjacency_list>  (2) 
1 C u0 p0 c0 {2,S} {3,S} {4,S} {5,S}
2 H u0 p0 c0 {1,S}
3 H u0 p0 c0 {1,S}
4 H u0 p0 c0 {1,S}
5 H u0 p0 c0 {1,S}


>  <multiplicity>  (2) 
1

>  <reaction>  (2) 
rxn_483

>  <type>  (2) 
r2h

>  <role_mapnums>  (2) 
{"r2h_a": 1, "r2h_h": 5}

>  <role_mapidx>  (2) 
{"r2h_a": 0, "r2h_h": 4}

>  <ordered_mapped_smiles>  (2) 
[C:1]([H:2])([H:3])([H:4])[H:5]

>  <mol_properties>  (2) 
{"0": {"label": "acceptor", "atom_type": "Cs"}, "4": {"label": "a_hydrogen", "atom_type": "H0"}}

>  <level_of_theory>  (2) 
wb97xd/def2tzvp

>  <lot_method>  (2) 
wb97xd

>  <lot_basis>  (2) 
def2tzvp

>  <spin_multiplicity>  (2) 
1.0

>  <optical_isomers>  (2) 
1.0

>  <modes>  (2) 
IdealGasTranslation(mass=(16.0313, 'amu')),         NonlinearRotor(             inertia = ([3.18679, 3.18679, 3.18679

>  <frequency_value>  (2) 
unknown

>  <frequency_units>  (2) 
unknown

>  <frequency_list>  (2) 
unknown

>  <arkane_path>  (2) 
/home/calvin/Dropbox/PersonalFolders/Calvin/HAb_Converged/rxn_483/output/Species/rxn_483_C/arkane/output.py

>  <path_exists>  (2) 
True

>  <E0_value>  (2) 
-106268.5262916272

>  <E0_units>  (2) 
kJ/mol

>  <thermo_class>  (2) 
NASA

>  <Cp0_value>  (2) 
33.257888

>  <Cp0_units>  (2) 
J/(mol*K)

>  <CpInf_value>  (2) 
108.088136

>  <CpInf_units>  (2) 
J/(mol*K)

>  <Tmin_value>  (2) 
10.0

>  <Tmin_units>  (2) 
K

>  <Tmax_value>  (2) 
3000.0

>  <Tmax_units>  (2) 
K

>  <polynomials>  (2) 
[{"name": "polynomial1", "class": "NASAPolynomial", "Tmin_value": 10.0, "Tmin_units": "K", "Tmax_value": 616.7595780986624, "Tmax_units": "K", "coeffs": [4.041420799946622, -0.002477807655966685, 1.1290457802459216e-05, 3.700688819348292e-09, -9.366412561864162e-12, -12781153.318458663, -0.42637433538586406]}, {"name": "polynomial2", "class": "NASAPolynomial", "Tmin_value": 616.7595780986624, "Tmin_units": "K", "Tmax_value": 3000.0, "Tmax_units": "K", "coeffs": [0.6800320423470843, 0.011684066325645743, -4.5749540261290126e-06, 7.694671628924811e-10, -3.8768177461555664e-14, -12780593.404419335, 15.343675764562182]}]

>  <H298_value>  (2) 
-25396.41264990868

>  <H298_units>  (2) 
kcal/mol

>  <S298_value>  (2) 
44.46392088520575

>  <S298_units>  (2) 
cal/(mol*K)

>  <Cp_T_value_list>  (2) 
[8.621039065772948, 9.645572285350525, 10.934239595808906, 12.330144838344452, 14.859142397339834, 16.9306880471269, 20.49440393107996, 22.423230884533538, 23.291918246513866]

>  <Cp_T_units>  (2) 
cal/(mol*K)

>  <T_list>  (2) 
[300.0, 400.0, 500.0, 600.0, 800.0, 1000.0, 1500.0, 2000.0, 2400.0]

>  <T_units>  (2) 
K

>  <yaml_path>  (2) 
/home/calvin/Dropbox/PersonalFolders/Calvin/HAb_Converged/rxn_483/output/Species/rxn_483_C/rxn_483_C.yml

>  <frequencies_cm1>  (2) 
[1326.5504901469599, 1326.5504901469599, 1326.5504901469599, 1542.24249904816, 1542.24249904816, 3008.8382878112, 3127.32125252248, 3127.32125252248, 3127.32125252248]

>  <ZPE_kJmol>  (2) 
116.36640738144024

>  <E_elec_kJmol>  (2) 
-106384.89269900863

>  <E0_minus_Eelec_plus_ZPE_kJmol>  (2) 
0.0

>  <rxn>  (2) 
rxn_483

>  <species_type>  (2) 
p0

>  <species_folder>  (2) 
rxn_483_C

>  <frequencies_cm1_list>  (2) 
[1326.5504901469599, 1326.5504901469599, 1326.5504901469599, 1542.24249904816, 1542.24249904816, 3008.8382878112, 3127.32125252248, 3127.32125252248, 3127.32125252248]

>  <E0_kJmol>  (2) 
-106269

>  <H298_kJmol>  (2) 
-106259

$$$$

     RDKit          3D

 23 23  0  0  0  0  0  0  0  0999 V2000
    2.0951   -2.0147    1.5312 C   0  0  0  0  0  3  0  0  0  1  0  0
    2.6258   -1.1788    1.9776 H   0  0  0  0  0  0  0  0  0  2  0  0
    2.5584   -2.3940    0.6252 H   0  0  0  0  0  0  0  0  0  3  0  0
    1.8214   -2.7895    2.2408 H   0  0  0  0  0  0  0  0  0  4  0  0
   -0.1961   -0.9121    0.6677 C   0  0  0  0  0  0  0  0  0  5  0  0
   -0.2607   -1.1092   -0.8520 C   0  0  0  0  0  0  0  0  0  6  0  0
   -0.1156    0.3287   -1.3803 C   0  0  0  0  0  0  0  0  0  7  0  0
   -1.4112    1.0939   -1.0644 C   0  0  0  0  0  0  0  0  0  8  0  0
   -1.3512    1.2714    0.4783 C   0  0  0  0  0  0  0  0  0  9  0  0
   -0.0222    0.5871    0.8537 C   0  0  0  0  0  0  0  0  0 10  0  0
    0.8547    0.9354   -0.3573 C   0  0  0  0  0  0  0  0  0 11  0  0
    0.8823   -1.4715    1.1050 H   0  0  0  0  0  0  0  0  0 12  0  0
   -0.9905   -1.3734    1.2532 H   0  0  0  0  0  0  0  0  0 13  0  0
    0.5622   -1.7383   -1.2045 H   0  0  0  0  0  0  0  0  0 14  0  0
   -1.1900   -1.5789   -1.1800 H   0  0  0  0  0  0  0  0  0 15  0  0
    0.1884    0.3868   -2.4244 H   0  0  0  0  0  0  0  0  0 16  0  0
   -2.2968    0.5466   -1.3908 H   0  0  0  0  0  0  0  0  0 17  0  0
   -1.4204    2.0610   -1.5696 H   0  0  0  0  0  0  0  0  0 18  0  0
   -2.2010    0.8167    0.9891 H   0  0  0  0  0  0  0  0  0 19  0  0
   -1.3305    2.3277    0.7539 H   0  0  0  0  0  0  0  0  0 20  0  0
    0.3634    0.8742    1.8314 H   0  0  0  0  0  0  0  0  0 21  0  0
    1.8269    0.4397   -0.3375 H   0  0  0  0  0  0  0  0  0 22  0  0
    1.0007    2.0093   -0.4883 H   0  0  0  0  0  0  0  0  0 23  0  0
  1  4  1  0
  1  2  1  0
  1  3  1  0
  5 12  1  0
  5 10  1  0
  5 13  1  0
  5  6  1  0
  6  7  1  0
  6 15  1  0
  6 14  1  0
  7  8  1  0
  7 16  1  0
  7 11  1  0
  8 17  1  0
  8  9  1  0
  8 18  1  0
  9 20  1  0
  9 10  1  0
  9 19  1  0
 10 21  1  0
 10 11  1  0
 11 22  1  0
 11 23  1  0
M  RAD  1   1   2
M  END
>  <rmg_smiles>  (3) 
C1CC2CCC1C2.[CH3]

>  <rmg_adjacency_list>  (3) 
multiplicity 2
1  C u0 p0 c0 {3,S} {5,S} {6,S} {9,S}
2  C u0 p0 c0 {3,S} {4,S} {7,S} {10,S}
3  C u0 p0 c0 {1,S} {2,S} {19,S} {20,S}
4  C u0 p0 c0 {2,S} {5,S} {11,S} {12,S}
5  C u0 p0 c0 {1,S} {4,S} {13,S} {14,S}
6  C u0 p0 c0 {1,S} {7,S} {15,S} {16,S}
7  C u0 p0 c0 {2,S} {6,S} {17,S} {18,S}
8  C u1 p0 c0 {21,S} {22,S} {23,S}
9  H u0 p0 c0 {1,S}
10 H u0 p0 c0 {2,S}
11 H u0 p0 c0 {4,S}
12 H u0 p0 c0 {4,S}
13 H u0 p0 c0 {5,S}
14 H u0 p0 c0 {5,S}
15 H u0 p0 c0 {6,S}
16 H u0 p0 c0 {6,S}
17 H u0 p0 c0 {7,S}
18 H u0 p0 c0 {7,S}
19 H u0 p0 c0 {3,S}
20 H u0 p0 c0 {3,S}
21 H u0 p0 c0 {8,S}
22 H u0 p0 c0 {8,S}
23 H u0 p0 c0 {8,S}


>  <multiplicity>  (3) 
2

>  <reaction>  (3) 
rxn_483

>  <type>  (3) 
ts

>  <role_mapnums>  (3) 
{"*2": 12, "*1": 5, "*3": 1, "*0": 6, "*4": 2}

>  <role_mapidx>  (3) 
{"*2": 11, "*1": 4, "*3": 0, "*0": 5, "*4": 1}

>  <ordered_mapped_smiles>  (3) 
[C:1]([H:2])([H:3])[H:4].[C:5]1([H:12])([H:13])[C:6]([H:14])([H:15])[C:7]2([H:16])[C:8]([H:17])([H:18])[C:9]([H:19])([H:20])[C:10]1([H:21])[C:11]2([H:22])[H:23]

>  <mol_properties>  (3) 
{"0": {"label": "*3", "atom_type": "Cs"}, "1": {"label": "*4", "atom_type": "H0"}, "4": {"label": "*1", "atom_type": "Cs"}, "5": {"label": "*0", "atom_type": "Cs"}, "11": {"label": "*2", "atom_type": "H0"}}

>  <level_of_theory>  (3) 
wb97xd/def2tzvp

>  <lot_method>  (3) 
wb97xd

>  <lot_basis>  (3) 
def2tzvp

>  <spin_multiplicity>  (3) 
2.0

>  <optical_isomers>  (3) 
2.0

>  <modes>  (3) 
IdealGasTranslation(mass=(111.117, 'amu')),         NonlinearRotor(             inertia = ([143.703, 348.655, 375.024

>  <frequency_value>  (3) 
-1632.15

>  <frequency_units>  (3) 
cm^-1

>  <frequency_list>  (3) 
unknown

>  <arkane_path>  (3) 
/home/calvin/Dropbox/PersonalFolders/Calvin/HAb_Converged/rxn_483/output/rxns/TS0/arkane/output.py

>  <path_exists>  (3) 
True

>  <E0_value>  (3) 
-823370.0

>  <E0_units>  (3) 
kJ/mol

>  <thermo_class>  (3) 
unknown

>  <Cp0_value>  (3) 
unknown

>  <Cp0_units>  (3) 
unknown

>  <CpInf_value>  (3) 
unknown

>  <CpInf_units>  (3) 
unknown

>  <Tmin_value>  (3) 
unknown

>  <Tmin_units>  (3) 
unknown

>  <Tmax_value>  (3) 
unknown

>  <Tmax_units>  (3) 
unknown

>  <polynomials>  (3) 
unknown

>  <H298_value>  (3) 
unknown

>  <H298_units>  (3) 
unknown

>  <S298_value>  (3) 
unknown

>  <S298_units>  (3) 
unknown

>  <Cp_T_value_list>  (3) 
unknown

>  <Cp_T_units>  (3) 
unknown

>  <T_list>  (3) 
unknown

>  <T_units>  (3) 
unknown

>  <yaml_path>  (3) 
unknown

>  <frequencies_cm1>  (3) 
unknown

>  <ZPE_kJmol>  (3) 
unknown

>  <E_elec_kJmol>  (3) 
unknown

>  <E0_minus_Eelec_plus_ZPE_kJmol>  (3) 
unknown

>  <rxn>  (3) 
unknown

>  <species_type>  (3) 
unknown

>  <species_folder>  (3) 
unknown

>  <frequencies_cm1_list>  (3) 
[]

>  <ts_imag_freq_cm1>  (3) 
-1651.9712

>  <ts_freq_out_path>  (3) 
/home/calvin/Dropbox/PersonalFolders/Calvin/HAb_Converged/rxn_483/output/rxns/TS0/geometry/freq.out

>  <E0_kJmol>  (3) 
-823370

>  <H298_kJmol>  (3) 
unknown

$$$$

     RDKit          3D

 18 19  0  0  0  0  0  0  0  0999 V2000
    1.0085    0.0884    1.2095 C   0  0  0  0  0  3  0  0  0  1  0  0
    1.2139    1.0410    0.0690 C   0  0  0  0  0  0  0  0  0  2  0  0
    0.2881    0.4324   -1.0019 C   0  0  0  0  0  0  0  0  0  3  0  0
   -1.1714    0.6323   -0.5516 C   0  0  0  0  0  0  0  0  0  4  0  0
   -1.3278   -0.3670    0.6275 C   0  0  0  0  0  0  0  0  0  5  0  0
    0.0899   -0.9908    0.7354 C   0  0  0  0  0  0  0  0  0  6  0  0
    0.4790   -1.0703   -0.7525 C   0  0  0  0  0  0  0  0  0  7  0  0
    1.2161    0.3102    2.2471 H   0  0  0  0  0  0  0  0  0  8  0  0
    2.2567    1.0516   -0.2755 H   0  0  0  0  0  0  0  0  0  9  0  0
    0.9543    2.0764    0.3130 H   0  0  0  0  0  0  0  0  0 10  0  0
    0.4908    0.7813   -2.0131 H   0  0  0  0  0  0  0  0  0 11  0  0
   -1.8596    0.3913   -1.3630 H   0  0  0  0  0  0  0  0  0 12  0  0
   -1.3656    1.6639   -0.2546 H   0  0  0  0  0  0  0  0  0 13  0  0
   -1.6314    0.1167    1.5558 H   0  0  0  0  0  0  0  0  0 14  0  0
   -2.0651   -1.1401    0.3991 H   0  0  0  0  0  0  0  0  0 15  0  0
    0.1199   -1.9185    1.3041 H   0  0  0  0  0  0  0  0  0 16  0  0
   -0.2009   -1.6913   -1.3392 H   0  0  0  0  0  0  0  0  0 17  0  0
    1.5046   -1.4076   -0.9091 H   0  0  0  0  0  0  0  0  0 18  0  0
  1  8  1  0
  1  6  1  0
  1  2  1  0
  2  3  1  0
  2 10  1  0
  2  9  1  0
  3  4  1  0
  3 11  1  0
  3  7  1  0
  4 12  1  0
  4  5  1  0
  4 13  1  0
  5 14  1  0
  5 15  1  0
  5  6  1  0
  6  7  1  0
  6 16  1  0
  7 17  1  0
  7 18  1  0
M  RAD  1   1   2
M  END
>  <rmg_smiles>  (4) 
[CH]1CC2CCC1C2

>  <rmg_adjacency_list>  (4) 
multiplicity 2
1  C u0 p0 c0 {3,S} {4,S} {6,S} {8,S}
2  C u0 p0 c0 {3,S} {5,S} {7,S} {9,S}
3  C u0 p0 c0 {1,S} {2,S} {14,S} {15,S}
4  C u0 p0 c0 {1,S} {5,S} {10,S} {11,S}
5  C u0 p0 c0 {2,S} {4,S} {12,S} {13,S}
6  C u0 p0 c0 {1,S} {7,S} {16,S} {17,S}
7  C u1 p0 c0 {2,S} {6,S} {18,S}
8  H u0 p0 c0 {1,S}
9  H u0 p0 c0 {2,S}
10 H u0 p0 c0 {4,S}
11 H u0 p0 c0 {4,S}
12 H u0 p0 c0 {5,S}
13 H u0 p0 c0 {5,S}
14 H u0 p0 c0 {3,S}
15 H u0 p0 c0 {3,S}
16 H u0 p0 c0 {6,S}
17 H u0 p0 c0 {6,S}
18 H u0 p0 c0 {7,S}


>  <multiplicity>  (4) 
2

>  <reaction>  (4) 
rxn_483

>  <type>  (4) 
r1

>  <role_mapnums>  (4) 
{}

>  <role_mapidx>  (4) 
{}

>  <ordered_mapped_smiles>  (4) 
[C:1]1([H:8])[C:2]([H:9])([H:10])[C:3]2([H:11])[C:4]([H:12])([H:13])[C:5]([H:14])([H:15])[C:6]1([H:16])[C:7]2([H:17])[H:18]

>  <level_of_theory>  (4) 
wb97xd/def2tzvp

>  <lot_method>  (4) 
wb97xd

>  <lot_basis>  (4) 
def2tzvp

>  <spin_multiplicity>  (4) 
2.0

>  <optical_isomers>  (4) 
2.0

>  <modes>  (4) 
IdealGasTranslation(mass=(95.0861, 'amu')),         NonlinearRotor(             inertia = ([132.076, 151.536, 174.491

>  <frequency_value>  (4) 
unknown

>  <frequency_units>  (4) 
unknown

>  <frequency_list>  (4) 
unknown

>  <arkane_path>  (4) 
/home/calvin/Dropbox/PersonalFolders/Calvin/HAb_Converged/rxn_483/output/Species/rxn_483_[CH]1CC2CCC1C2/arkane/output.py

>  <path_exists>  (4) 
True

>  <E0_value>  (4) 
-717174.6605343558

>  <E0_units>  (4) 
kJ/mol

>  <thermo_class>  (4) 
NASA

>  <Cp0_value>  (4) 
33.257888

>  <Cp0_units>  (4) 
J/(mol*K)

>  <CpInf_value>  (4) 
432.352544

>  <CpInf_units>  (4) 
J/(mol*K)

>  <Tmin_value>  (4) 
10.0

>  <Tmin_units>  (4) 
K

>  <Tmax_value>  (4) 
3000.0

>  <Tmax_units>  (4) 
K

>  <polynomials>  (4) 
[{"name": "polynomial1", "class": "NASAPolynomial", "Tmin_value": 10.0, "Tmin_units": "K", "Tmax_value": 627.8575921144865, "Tmax_units": "K", "coeffs": [4.196860558820338, -0.016171105268722473, 0.00026078071603870495, -4.023045641305321e-07, 1.994526736098869e-10, -86256187.80409713, 11.805109187536795]}, {"name": "polynomial2", "class": "NASAPolynomial", "Tmin_value": 627.8575921144865, "Tmin_units": "K", "Tmax_value": 3000.0, "Tmax_units": "K", "coeffs": [-5.155123360865168, 0.0782768443570585, -4.816421106910532e-05, 1.418738663471415e-08, -1.605060631155765e-12, -86255700.7118907, 47.097238820075255]}]

>  <H298_value>  (4) 
-171404.61720790953

>  <H298_units>  (4) 
kcal/mol

>  <S298_value>  (4) 
78.13622956239406

>  <S298_units>  (4) 
cal/(mol*K)

>  <Cp_T_value_list>  (4) 
[26.964676953533466, 37.382989594264686, 46.66797183764434, 54.30346962845638, 66.07017706139216, 74.59940600620303, 86.73655345511231, 92.52402479168427, 95.69953412861575]

>  <Cp_T_units>  (4) 
cal/(mol*K)

>  <T_list>  (4) 
[300.0, 400.0, 500.0, 600.0, 800.0, 1000.0, 1500.0, 2000.0, 2400.0]

>  <T_units>  (4) 
K

>  <yaml_path>  (4) 
/home/calvin/Dropbox/PersonalFolders/Calvin/HAb_Converged/rxn_483/output/Species/rxn_483_[CH]1CC2CCC1C2/rxn_483_CH1CC2CCC1C2.yml

>  <frequencies_cm1>  (4) 
[193.92366543679998, 286.69663711, 376.72968164051997, 444.80210711767995, 471.88549721975994, 575.8310540086, 765.9023406808799, 775.8320014535999, 815.4819746912799, 831.9284045326799, 874.91573263588, 910.4386476962399, 914.8815871982799, 937.18555551764, 949.47059225512, 959.71613435256, 965.2715254764399, 1010.9919137369999, 1035.07443125424, 1037.4504081749599, 1108.18035697096, 1132.1530027230801, 1143.67580409004, 1182.37126636824, 1216.39031164352, 1247.2505436715999, 1266.38883175844, 1275.3365136304, 1286.14514852408, 1310.02165648172, 1334.4475232649597, 1339.6389641668798, 1349.2252756736, 1458.5751499092798, 1478.1460580712799, 1483.955527652, 1507.2689428133997, 2964.07241051012, 3015.2863870266797, 3024.7216248563595, 3032.1173680459997, 3039.44444138244, 3070.4488801022394, 3085.21976552556, 3086.5588276629596, 3090.45927532472, 3091.9356771685193, 3183.2528479538796]

>  <ZPE_kJmol>  (4) 
424.2981940261813

>  <E_elec_kJmol>  (4) 
-717598.958728382

>  <E0_minus_Eelec_plus_ZPE_kJmol>  (4) 
0.0

>  <rxn>  (4) 
rxn_483

>  <species_type>  (4) 
p1

>  <species_folder>  (4) 
rxn_483_[CH]1CC2CCC1C2

>  <frequencies_cm1_list>  (4) 
[193.92366543679998, 286.69663711, 376.72968164051997, 444.80210711767995, 471.88549721975994, 575.8310540086, 765.9023406808799, 775.8320014535999, 815.4819746912799, 831.9284045326799, 874.91573263588, 910.4386476962399, 914.8815871982799, 937.18555551764, 949.47059225512, 959.71613435256, 965.2715254764399, 1010.9919137369999, 1035.07443125424, 1037.4504081749599, 1108.18035697096, 1132.1530027230801, 1143.67580409004, 1182.37126636824, 1216.39031164352, 1247.2505436715999, 1266.38883175844, 1275.3365136304, 1286.14514852408, 1310.02165648172, 1334.4475232649597, 1339.6389641668798, 1349.2252756736, 1458.5751499092798, 1478.1460580712799, 1483.955527652, 1507.2689428133997, 2964.07241051012, 3015.2863870266797, 3024.7216248563595, 3032.1173680459997, 3039.44444138244, 3070.4488801022394, 3085.21976552556, 3086.5588276629596, 3090.45927532472, 3091.9356771685193, 3183.2528479538796]

>  <E0_kJmol>  (4) 
-717175

>  <H298_kJmol>  (4) 
-717157

$$$$

     RDKit          3D

  4  3  0  0  0  0  0  0  0  0999 V2000
    0.0000    0.0000    0.0000 C   0  0  0  0  0  3  0  0  0  1  0  0
    1.0638   -0.1747    0.0540 H   0  0  0  0  0  0  0  0  0  2  0  0
   -0.6833   -0.8351   -0.0280 H   0  0  0  0  0  0  0  0  0  3  0  0
   -0.3805    1.0098   -0.0260 H   0  0  0  0  0  0  0  0  0  4  0  0
  1  3  1  0
  1  4  1  0
  1  2  1  0
M  RAD  1   1   2
M  END
>  <rmg_smiles>  (5) 
[CH3]

>  <rmg_adjacency_list>  (5) 
multiplicity 2
1 C u1 p0 c0 {2,S} {3,S} {4,S}
2 H u0 p0 c0 {1,S}
3 H u0 p0 c0 {1,S}
4 H u0 p0 c0 {1,S}


>  <multiplicity>  (5) 
2

>  <reaction>  (5) 
rxn_483

>  <type>  (5) 
r2

>  <role_mapnums>  (5) 
{}

>  <role_mapidx>  (5) 
{}

>  <ordered_mapped_smiles>  (5) 
[C:1]([H:2])([H:3])[H:4]

>  <level_of_theory>  (5) 
wb97xd/def2tzvp

>  <lot_method>  (5) 
wb97xd

>  <lot_basis>  (5) 
def2tzvp

>  <spin_multiplicity>  (5) 
2.0

>  <optical_isomers>  (5) 
1.0

>  <modes>  (5) 
IdealGasTranslation(mass=(15.0235, 'amu')),         NonlinearRotor(             inertia = ([1.76141, 1.76141, 3.52282

>  <frequency_value>  (5) 
unknown

>  <frequency_units>  (5) 
unknown

>  <frequency_list>  (5) 
unknown

>  <arkane_path>  (5) 
/home/calvin/Dropbox/PersonalFolders/Calvin/HAb_Converged/rxn_483/output/Species/rxn_483_[CH3]/arkane/output.py

>  <path_exists>  (5) 
True

>  <E0_value>  (5) 
-104520.13119505512

>  <E0_units>  (5) 
kJ/mol

>  <thermo_class>  (5) 
NASA

>  <Cp0_value>  (5) 
33.257888

>  <Cp0_units>  (5) 
J/(mol*K)

>  <CpInf_value>  (5) 
83.14472

>  <CpInf_units>  (5) 
J/(mol*K)

>  <Tmin_value>  (5) 
10.0

>  <Tmin_units>  (5) 
K

>  <Tmax_value>  (5) 
3000.0

>  <Tmax_units>  (5) 
K

>  <polynomials>  (5) 
[{"name": "polynomial1", "class": "NASAPolynomial", "Tmin_value": 10.0, "Tmin_units": "K", "Tmax_value": 646.6680568167106, "Tmax_units": "K", "coeffs": [3.9912271000461548, 0.0004274218009639198, 9.38132315134313e-06, -1.0944874554220949e-08, 4.263406085556096e-12, -12570867.748368958, 0.20527673099681187]}, {"name": "polynomial2", "class": "NASAPolynomial", "Tmin_value": 646.6680568167106, "Tmin_units": "K", "Tmax_value": 3000.0, "Tmax_units": "K", "coeffs": [3.2488827598675174, 0.0050187516265713635, -1.2675301815554908e-06, 3.215102013021586e-11, 2.0164394281080815e-14, -12570771.728238096, 3.4631324604304954]}]

>  <H298_value>  (5) 
-24978.383291331436

>  <H298_units>  (5) 
kcal/mol

>  <S298_value>  (5) 
46.49953999396709

>  <S298_units>  (5) 
cal/(mol*K)

>  <Cp_T_value_list>  (5) 
[9.345424201068383, 10.07887042200736, 10.827537754048599, 11.552428339520182, 12.871902382304132, 14.014614114932202, 16.167234911840477, 17.479674567657305, 18.096247059343543]

>  <Cp_T_units>  (5) 
cal/(mol*K)

>  <T_list>  (5) 
[300.0, 400.0, 500.0, 600.0, 800.0, 1000.0, 1500.0, 2000.0, 2400.0]

>  <T_units>  (5) 
K

>  <yaml_path>  (5) 
/home/calvin/Dropbox/PersonalFolders/Calvin/HAb_Converged/rxn_483/output/Species/rxn_483_[CH3]/rxn_483_CH3.yml

>  <frequencies_cm1>  (5) 
[520.22220688724, 1393.4280601784399, 1393.43492716376, 3088.8592677451597, 3268.6163424668, 3268.6232094521197]

>  <ZPE_kJmol>  (5) 
77.35764153782172

>  <E_elec_kJmol>  (5) 
-104597.48883659294

>  <E0_minus_Eelec_plus_ZPE_kJmol>  (5) 
0.0

>  <rxn>  (5) 
rxn_483

>  <species_type>  (5) 
r0

>  <species_folder>  (5) 
rxn_483_[CH3]

>  <frequencies_cm1_list>  (5) 
[520.22220688724, 1393.4280601784399, 1393.43492716376, 3088.8592677451597, 3268.6163424668, 3268.6232094521197]

>  <E0_kJmol>  (5) 
-104520

>  <H298_kJmol>  (5) 
-104510

$$$$
