
     RDKit          3D

 11 10  0  0  0  0  0  0  0  0999 V2000
   -0.4720   -0.8212   -0.8939 C   0  0  0  0  0  0  0  0  0  1  0  0
   -0.1058   -0.2675    0.4575 C   0  0  0  0  0  0  0  0  0  2  0  0
    0.5450    1.0904    0.4583 C   0  0  0  0  0  0  0  0  0  3  0  0
    0.4048   -0.8689   -1.5460 H   0  0  0  0  0  0  0  0  0  4  0  0
   -1.2158   -0.1939   -1.3993 H   0  0  0  0  0  0  0  0  0  5  0  0
   -0.8879   -1.8273   -0.8164 H   0  0  0  0  0  0  0  0  0  6  0  0
    0.6527   -0.9463    0.8494 H   0  0  0  0  0  0  0  0  0  7  0  0
   -0.9059   -0.3611    1.1928 H   0  0  0  0  0  0  0  0  0  8  0  0
   -0.1349    1.8642    0.0829 H   0  0  0  0  0  0  0  0  0  9  0  0
    0.8564    1.3855    1.4622 H   0  0  0  0  0  0  0  0  0 10  0  0
    1.4296    1.0988   -0.1845 H   0  0  0  0  0  0  0  0  0 11  0  0
  1  5  1  0
  1  4  1  0
  1  6  1  0
  1  2  1  0
  2  7  1  0
  2  8  1  0
  2  3  1  0
  3 11  1  0
  3  9  1  0
  3 10  1  0
M  END
>  <rmg_smiles>  (1) 
CCC

>  <rmg_adjacency_list>  (1) 
1  C u0 p0 c0 {2,S} {4,S} {5,S} {6,S}
2  C u0 p0 c0 {1,S} {3,S} {7,S} {8,S}
3  C u0 p0 c0 {2,S} {9,S} {10,S} {11,S}
4  H u0 p0 c0 {1,S}
5  H u0 p0 c0 {1,S}
6  H u0 p0 c0 {1,S}
7  H u0 p0 c0 {2,S}
8  H u0 p0 c0 {2,S}
9  H u0 p0 c0 {3,S}
10 H u0 p0 c0 {3,S}
11 H u0 p0 c0 {3,S}


>  <multiplicity>  (1) 
1

>  <reaction>  (1) 
rxn_912

>  <type>  (1) 
r1h

>  <role_mapnums>  (1) 
{"r1h_a": 2, "r1h_h": 7}

>  <role_mapidx>  (1) 
{"r1h_a": 1, "r1h_h": 6}

>  <ordered_mapped_smiles>  (1) 
[C:1]([C:2]([C:3]([H:9])([H:10])[H:11])([H:7])[H:8])([H:4])([H:5])[H:6]

>  <mol_properties>  (1) 
{"1": {"label": "donator", "atom_type": "Cs"}, "6": {"label": "d_hydrogen", "atom_type": "H0"}}

>  <level_of_theory>  (1) 
wb97xd/def2tzvp

>  <lot_method>  (1) 
wb97xd

>  <lot_basis>  (1) 
def2tzvp

>  <spin_multiplicity>  (1) 
1.0

>  <optical_isomers>  (1) 
1.0

>  <modes>  (1) 
IdealGasTranslation(mass=(44.0626, 'amu')),         NonlinearRotor(             inertia = ([17.0625, 59.5808, 67.2958

>  <frequency_value>  (1) 
unknown

>  <frequency_units>  (1) 
unknown

>  <frequency_list>  (1) 
unknown

>  <arkane_path>  (1) 
/home/calvin/Dropbox/PersonalFolders/Calvin/HAb_Converged/rxn_912/output/Species/rxn_912_CCC/arkane/output.py

>  <path_exists>  (1) 
True

>  <E0_value>  (1) 
-312559.7664121831

>  <E0_units>  (1) 
kJ/mol

>  <thermo_class>  (1) 
NASA

>  <Cp0_value>  (1) 
33.257888

>  <Cp0_units>  (1) 
J/(mol*K)

>  <CpInf_value>  (1) 
257.748632

>  <CpInf_units>  (1) 
J/(mol*K)

>  <Tmin_value>  (1) 
10.0

>  <Tmin_units>  (1) 
K

>  <Tmax_value>  (1) 
3000.0

>  <Tmax_units>  (1) 
K

>  <polynomials>  (1) 
[{"name": "polynomial1", "class": "NASAPolynomial", "Tmin_value": 10.0, "Tmin_units": "K", "Tmax_value": 577.4310568776192, "Tmax_units": "K", "coeffs": [3.9747269033817734, 0.0011347804367172543, 7.533889062875609e-05, -1.0470498139729524e-07, 4.699078499553375e-11, -37592254.8773633, 6.773591698117238]}, {"name": "polynomial2", "class": "NASAPolynomial", "Tmin_value": 577.4310568776192, "Tmin_units": "K", "Tmax_value": 3000.0, "Tmax_units": "K", "coeffs": [-1.3041055241664254, 0.03770227026025092, -1.9652378532074013e-05, 4.9654907444475164e-09, -4.909963524622396e-13, -37591645.24138486, 29.34198158192454]}]

>  <H298_value>  (1) 
-74700.16503809701

>  <H298_units>  (1) 
kcal/mol

>  <S298_value>  (1) 
64.12787959081382

>  <S298_units>  (1) 
cal/(mol*K)

>  <Cp_T_value_list>  (1) 
[17.187849905588877, 21.82888089347945, 26.282080105357306, 30.30750880664003, 37.00458219733553, 42.16907955247373, 50.28489012355217, 54.3677942411287, 56.31048938168173]

>  <Cp_T_units>  (1) 
cal/(mol*K)

>  <T_list>  (1) 
[300.0, 400.0, 500.0, 600.0, 800.0, 1000.0, 1500.0, 2000.0, 2400.0]

>  <T_units>  (1) 
K

>  <yaml_path>  (1) 
/home/calvin/Dropbox/PersonalFolders/Calvin/HAb_Converged/rxn_912/output/Species/rxn_912_CCC/rxn_912_CCC.yml

>  <frequencies_cm1>  (1) 
[219.27657523823999, 274.69314677064, 369.88329727648, 749.53831466332, 878.21188558948, 908.3991530561998, 929.9271520343999, 1065.0968910732797, 1172.11199030016, 1205.9799618984, 1309.06714552224, 1359.46395078572, 1398.3379546822398, 1410.31397708032, 1476.4087107853202, 1480.39842925624, 1483.440503753, 1494.09119798432, 1498.5410044716796, 3005.39792816588, 3007.40308787932, 3010.35589156692, 3037.8787687294803, 3071.65746951856, 3081.94421352792, 3083.3450785332, 3086.08500567588]

>  <ZPE_kJmol>  (1) 
269.5620865819488

>  <E_elec_kJmol>  (1) 
-312829.32849876507

>  <E0_minus_Eelec_plus_ZPE_kJmol>  (1) 
0.0

>  <rxn>  (1) 
rxn_912

>  <species_type>  (1) 
r1

>  <species_folder>  (1) 
rxn_912_CCC

>  <frequencies_cm1_list>  (1) 
[219.27657523823999, 274.69314677064, 369.88329727648, 749.53831466332, 878.21188558948, 908.3991530561998, 929.9271520343999, 1065.0968910732797, 1172.11199030016, 1205.9799618984, 1309.06714552224, 1359.46395078572, 1398.3379546822398, 1410.31397708032, 1476.4087107853202, 1480.39842925624, 1483.440503753, 1494.09119798432, 1498.5410044716796, 3005.39792816588, 3007.40308787932, 3010.35589156692, 3037.8787687294803, 3071.65746951856, 3081.94421352792, 3083.3450785332, 3086.08500567588]

>  <E0_kJmol>  (1) 
-312560

>  <H298_kJmol>  (1) 
-312545

$$$$

     RDKit          3D

 14 13  0  0  0  0  0  0  0  0999 V2000
   -0.0264    0.5506    1.3566 C   0  0  0  0  0  0  0  0  0  1  0  0
   -0.2066    0.1751   -0.0944 C   0  0  0  0  0  0  0  0  0  2  0  0
    0.9854    0.4956   -0.9634 C   0  0  0  0  0  0  0  0  0  3  0  0
   -0.7610   -1.2136   -0.3033 C   0  0  0  0  0  0  0  0  0  4  0  0
    0.2782    1.5945    1.4612 H   0  0  0  0  0  0  0  0  0  5  0  0
   -0.9516    0.4095    1.9202 H   0  0  0  0  0  0  0  0  0  6  0  0
    0.7462   -0.0670    1.8315 H   0  0  0  0  0  0  0  0  0  7  0  0
    1.8460   -0.1324   -0.7004 H   0  0  0  0  0  0  0  0  0  8  0  0
    1.2926    1.5374   -0.8476 H   0  0  0  0  0  0  0  0  0  9  0  0
    0.7650    0.3222   -2.0193 H   0  0  0  0  0  0  0  0  0 10  0  0
   -1.6951   -1.3540    0.2458 H   0  0  0  0  0  0  0  0  0 11  0  0
   -0.9568   -1.4078   -1.3602 H   0  0  0  0  0  0  0  0  0 12  0  0
   -0.0551   -1.9770    0.0470 H   0  0  0  0  0  0  0  0  0 13  0  0
   -0.9957    0.8385   -0.4486 H   0  0  0  0  0  0  0  0  0 14  0  0
  1  5  1  0
  1  7  1  0
  1  6  1  0
  1  2  1  0
  2 14  1  0
  2  3  1  0
  2  4  1  0
  3  9  1  0
  3 10  1  0
  3  8  1  0
  4 13  1  0
  4 12  1  0
  4 11  1  0
M  END
>  <rmg_smiles>  (2) 
CC(C)C

>  <rmg_adjacency_list>  (2) 
1  C u0 p0 c0 {2,S} {3,S} {4,S} {5,S}
2  C u0 p0 c0 {1,S} {6,S} {7,S} {8,S}
3  C u0 p0 c0 {1,S} {9,S} {10,S} {11,S}
4  C u0 p0 c0 {1,S} {12,S} {13,S} {14,S}
5  H u0 p0 c0 {1,S}
6  H u0 p0 c0 {2,S}
7  H u0 p0 c0 {2,S}
8  H u0 p0 c0 {2,S}
9  H u0 p0 c0 {3,S}
10 H u0 p0 c0 {3,S}
11 H u0 p0 c0 {3,S}
12 H u0 p0 c0 {4,S}
13 H u0 p0 c0 {4,S}
14 H u0 p0 c0 {4,S}


>  <multiplicity>  (2) 
1

>  <reaction>  (2) 
rxn_912

>  <type>  (2) 
r2h

>  <role_mapnums>  (2) 
{"r2h_a": 2, "r2h_h": 14}

>  <role_mapidx>  (2) 
{"r2h_a": 1, "r2h_h": 13}

>  <ordered_mapped_smiles>  (2) 
[C:1]([C:2]([C:3]([H:8])([H:9])[H:10])([C:4]([H:11])([H:12])[H:13])[H:14])([H:5])([H:6])[H:7]

>  <mol_properties>  (2) 
{"1": {"label": "acceptor", "atom_type": "Cs"}, "13": {"label": "a_hydrogen", "atom_type": "H0"}}

>  <level_of_theory>  (2) 
wb97xd/def2tzvp

>  <lot_method>  (2) 
wb97xd

>  <lot_basis>  (2) 
def2tzvp

>  <spin_multiplicity>  (2) 
1.0

>  <optical_isomers>  (2) 
1.0

>  <modes>  (2) 
IdealGasTranslation(mass=(58.0782, 'amu')),         NonlinearRotor(             inertia = ([64.472, 64.4727, 111.215

>  <frequency_value>  (2) 
unknown

>  <frequency_units>  (2) 
unknown

>  <frequency_list>  (2) 
unknown

>  <arkane_path>  (2) 
/home/calvin/Dropbox/PersonalFolders/Calvin/HAb_Converged/rxn_912/output/Species/rxn_912_CC[C]C/arkane/output.py

>  <path_exists>  (2) 
True

>  <E0_value>  (2) 
-415716.8496857216

>  <E0_units>  (2) 
kJ/mol

>  <thermo_class>  (2) 
NASA

>  <Cp0_value>  (2) 
33.257888

>  <Cp0_units>  (2) 
J/(mol*K)

>  <CpInf_value>  (2) 
332.57888

>  <CpInf_units>  (2) 
J/(mol*K)

>  <Tmin_value>  (2) 
10.0

>  <Tmin_units>  (2) 
K

>  <Tmax_value>  (2) 
3000.0

>  <Tmax_units>  (2) 
K

>  <polynomials>  (2) 
[{"name": "polynomial1", "class": "NASAPolynomial", "Tmin_value": 10.0, "Tmin_units": "K", "Tmax_value": 537.5545466762225, "Tmax_units": "K", "coeffs": [3.863143065162102, 0.009527905174366035, 8.52337642300856e-05, -1.3180542652684234e-07, 6.382675441605253e-11, -49999183.66953896, 7.5579829086279]}, {"name": "polynomial2", "class": "NASAPolynomial", "Tmin_value": 537.5545466762225, "Tmin_units": "K", "Tmax_value": 3000.0, "Tmax_units": "K", "coeffs": [-1.5259276182587485, 0.049628782655176645, -2.666496115843282e-05, 6.970420007656459e-09, -7.139793384154133e-13, -49998604.289043486, 30.21197108392869]}]

>  <H298_value>  (2) 
-99354.53709197717

>  <H298_units>  (2) 
kcal/mol

>  <S298_value>  (2) 
69.85764251950914

>  <S298_units>  (2) 
cal/(mol*K)

>  <Cp_T_value_list>  (2) 
[22.556390690537896, 28.834614783448878, 34.67482693443306, 39.873367908870776, 48.463857952024114, 55.03436165289233, 65.24342904862415, 70.36993062701133, 72.85881946006164]

>  <Cp_T_units>  (2) 
cal/(mol*K)

>  <T_list>  (2) 
[300.0, 400.0, 500.0, 600.0, 800.0, 1000.0, 1500.0, 2000.0, 2400.0]

>  <T_units>  (2) 
K

>  <yaml_path>  (2) 
/home/calvin/Dropbox/PersonalFolders/Calvin/HAb_Converged/rxn_912/output/Species/rxn_912_CC[C]C/rxn_912_CCCC.yml

>  <frequencies_cm1>  (2) 
[211.34520719364, 262.68965643128, 263.692236288, 368.99058918488, 369.3751403627999, 435.3325343614, 804.00037523624, 925.0172575305999, 925.2164001048799, 953.1993652838798, 976.1900321352399, 976.3617067682399, 1191.078603754, 1191.09920470996, 1204.15334380328, 1353.06392046748, 1353.18752620324, 1393.20144966288, 1393.4967300316398, 1417.39383894524, 1467.49536383996, 1474.08766974716, 1474.2662113654796, 1492.55299327264, 1492.60106216988, 1500.951316319, 2997.8854462257996, 2999.842537042, 2999.8906059392393, 3005.2674554447995, 3068.52612421264, 3068.55359215392, 3077.2609295396796, 3079.327892121, 3082.9330594139997, 3083.08413309104]

>  <ZPE_kJmol>  (2) 
342.9252692052438

>  <E_elec_kJmol>  (2) 
-416059.77495492686

>  <E0_minus_Eelec_plus_ZPE_kJmol>  (2) 
0.0

>  <rxn>  (2) 
rxn_912

>  <species_type>  (2) 
p0

>  <species_folder>  (2) 
rxn_912_CC[C]C

>  <frequencies_cm1_list>  (2) 
[211.34520719364, 262.68965643128, 263.692236288, 368.99058918488, 369.3751403627999, 435.3325343614, 804.00037523624, 925.0172575305999, 925.2164001048799, 953.1993652838798, 976.1900321352399, 976.3617067682399, 1191.078603754, 1191.09920470996, 1204.15334380328, 1353.06392046748, 1353.18752620324, 1393.20144966288, 1393.4967300316398, 1417.39383894524, 1467.49536383996, 1474.08766974716, 1474.2662113654796, 1492.55299327264, 1492.60106216988, 1500.951316319, 2997.8854462257996, 2999.842537042, 2999.8906059392393, 3005.2674554447995, 3068.52612421264, 3068.55359215392, 3077.2609295396796, 3079.327892121, 3082.9330594139997, 3083.08413309104]

>  <E0_kJmol>  (2) 
-415717

>  <H298_kJmol>  (2) 
-415699

$$$$

     RDKit          3D

 24 22  0  0  0  0  0  0  0  0999 V2000
    0.8140   -0.3578    2.0156 C   0  0  0  0  0  0  0  0  0  1  0  0
    0.6337   -0.7333    0.5645 C   0  0  0  0  0  0  0  0  0  2  0  0
    1.8258   -0.4127   -0.3045 C   0  0  0  0  0  0  0  0  0  3  0  0
    0.0793   -2.1219    0.3557 C   0  0  0  0  0  0  0  0  0  4  0  0
    1.1185    0.6861    2.1202 H   0  0  0  0  0  0  0  0  0  5  0  0
   -0.1112   -0.4989    2.5792 H   0  0  0  0  0  0  0  0  0  6  0  0
    1.5866   -0.9754    2.4904 H   0  0  0  0  0  0  0  0  0  7  0  0
    2.6864   -1.0407   -0.0414 H   0  0  0  0  0  0  0  0  0  8  0  0
    2.1330    0.6290   -0.1886 H   0  0  0  0  0  0  0  0  0  9  0  0
    1.6054   -0.5861   -1.3604 H   0  0  0  0  0  0  0  0  0 10  0  0
   -0.8547   -2.2624    0.9047 H   0  0  0  0  0  0  0  0  0 11  0  0
   -0.1164   -2.3161   -0.7012 H   0  0  0  0  0  0  0  0  0 12  0  0
    0.7853   -2.8854    0.7059 H   0  0  0  0  0  0  0  0  0 13  0  0
   -1.6418    0.3697   -1.7082 C   0  0  0  0  0  0  0  0  0 14  0  0
   -1.2756    0.9234   -0.3567 C   0  0  0  0  0  3  0  0  0 15  0  0
   -0.6248    2.2813   -0.3560 C   0  0  0  0  0  0  0  0  0 16  0  0
   -0.7650    0.3220   -2.3603 H   0  0  0  0  0  0  0  0  0 17  0  0
   -2.3856    0.9970   -2.2136 H   0  0  0  0  0  0  0  0  0 18  0  0
   -2.0577   -0.6364   -1.6306 H   0  0  0  0  0  0  0  0  0 19  0  0
   -0.3267    0.0742    0.1334 H   0  0  0  0  0  0  0  0  0 20  0  0
   -2.0758    0.8299    0.3785 H   0  0  0  0  0  0  0  0  0 21  0  0
   -1.3048    3.0552   -0.7314 H   0  0  0  0  0  0  0  0  0 22  0  0
   -0.3134    2.5764    0.6479 H   0  0  0  0  0  0  0  0  0 23  0  0
    0.2597    2.2897   -0.9988 H   0  0  0  0  0  0  0  0  0 24  0  0
  1  7  1  0
  1  5  1  0
  1  6  1  0
  1  2  1  0
  2 20  1  0
  2  3  1  0
  2  4  1  0
  3  8  1  0
  3  9  1  0
  3 10  1  0
  4 11  1  0
  4 12  1  0
  4 13  1  0
 14 15  1  0
 14 17  1  0
 14 19  1  0
 14 18  1  0
 15 16  1  0
 15 21  1  0
 16 22  1  0
 16 23  1  0
 16 24  1  0
M  RAD  1  15   2
M  END
>  <rmg_smiles>  (3) 
CC(C)C.C[CH]C

>  <rmg_adjacency_list>  (3) 
multiplicity 2
1  C u0 p0 c0 {2,S} {3,S} {4,S} {8,S}
2  C u0 p0 c0 {1,S} {9,S} {10,S} {11,S}
3  C u0 p0 c0 {1,S} {12,S} {13,S} {14,S}
4  C u0 p0 c0 {1,S} {15,S} {16,S} {17,S}
5  C u0 p0 c0 {7,S} {18,S} {19,S} {20,S}
6  C u0 p0 c0 {7,S} {21,S} {22,S} {23,S}
7  C u1 p0 c0 {5,S} {6,S} {24,S}
8  H u0 p0 c0 {1,S}
9  H u0 p0 c0 {2,S}
10 H u0 p0 c0 {2,S}
11 H u0 p0 c0 {2,S}
12 H u0 p0 c0 {3,S}
13 H u0 p0 c0 {3,S}
14 H u0 p0 c0 {3,S}
15 H u0 p0 c0 {4,S}
16 H u0 p0 c0 {4,S}
17 H u0 p0 c0 {4,S}
18 H u0 p0 c0 {5,S}
19 H u0 p0 c0 {5,S}
20 H u0 p0 c0 {5,S}
21 H u0 p0 c0 {6,S}
22 H u0 p0 c0 {6,S}
23 H u0 p0 c0 {6,S}
24 H u0 p0 c0 {7,S}


>  <multiplicity>  (3) 
2

>  <reaction>  (3) 
rxn_912

>  <type>  (3) 
ts

>  <role_mapnums>  (3) 
{"*2": 20, "*1": 15, "*3": 2, "*0": 1, "*4": 14}

>  <role_mapidx>  (3) 
{"*2": 19, "*1": 14, "*3": 1, "*0": 0, "*4": 13}

>  <ordered_mapped_smiles>  (3) 
[C:1]([C:2]([C:3]([H:8])([H:9])[H:10])([C:4]([H:11])([H:12])[H:13])[H:20])([H:5])([H:6])[H:7].[C:14]([C:15]([C:16]([H:22])([H:23])[H:24])[H:21])([H:17])([H:18])[H:19]

>  <mol_properties>  (3) 
{"0": {"label": "*0", "atom_type": "Cs"}, "1": {"label": "*3", "atom_type": "Cs"}, "13": {"label": "*4", "atom_type": "Cs"}, "14": {"label": "*1", "atom_type": "Cs"}, "19": {"label": "*2", "atom_type": "H0"}}

>  <level_of_theory>  (3) 
wb97xd/def2tzvp

>  <lot_method>  (3) 
wb97xd

>  <lot_basis>  (3) 
def2tzvp

>  <spin_multiplicity>  (3) 
2.0

>  <optical_isomers>  (3) 
2.0

>  <modes>  (3) 
IdealGasTranslation(mass=(101.133, 'amu')),         NonlinearRotor(inertia=([175.628, 348.1, 396.59

>  <frequency_value>  (3) 
-1700.85

>  <frequency_units>  (3) 
cm^-1

>  <frequency_list>  (3) 
unknown

>  <arkane_path>  (3) 
/home/calvin/Dropbox/PersonalFolders/Calvin/HAb_Converged/rxn_912/output/rxns/TS0/arkane/output.py

>  <path_exists>  (3) 
True

>  <E0_value>  (3) 
-726515.0

>  <E0_units>  (3) 
kJ/mol

>  <thermo_class>  (3) 
unknown

>  <Cp0_value>  (3) 
unknown

>  <Cp0_units>  (3) 
unknown

>  <CpInf_value>  (3) 
unknown

>  <CpInf_units>  (3) 
unknown

>  <Tmin_value>  (3) 
unknown

>  <Tmin_units>  (3) 
unknown

>  <Tmax_value>  (3) 
unknown

>  <Tmax_units>  (3) 
unknown

>  <polynomials>  (3) 
unknown

>  <H298_value>  (3) 
unknown

>  <H298_units>  (3) 
unknown

>  <S298_value>  (3) 
unknown

>  <S298_units>  (3) 
unknown

>  <Cp_T_value_list>  (3) 
unknown

>  <Cp_T_units>  (3) 
unknown

>  <T_list>  (3) 
unknown

>  <T_units>  (3) 
unknown

>  <yaml_path>  (3) 
unknown

>  <frequencies_cm1>  (3) 
unknown

>  <ZPE_kJmol>  (3) 
unknown

>  <E_elec_kJmol>  (3) 
unknown

>  <E0_minus_Eelec_plus_ZPE_kJmol>  (3) 
unknown

>  <rxn>  (3) 
unknown

>  <species_type>  (3) 
unknown

>  <species_folder>  (3) 
unknown

>  <frequencies_cm1_list>  (3) 
[]

>  <ts_imag_freq_cm1>  (3) 
-1721.5108

>  <ts_freq_out_path>  (3) 
/home/calvin/Dropbox/PersonalFolders/Calvin/HAb_Converged/rxn_912/output/rxns/TS0/geometry/freq.out

>  <E0_kJmol>  (3) 
-726515

>  <H298_kJmol>  (3) 
unknown

$$$$

     RDKit          3D

 10  9  0  0  0  0  0  0  0  0999 V2000
    1.2930    0.1441    0.3288 C   0  0  0  0  0  0  0  0  0  1  0  0
   -0.0374   -0.1647    0.9100 C   0  0  0  0  0  3  0  0  0  2  0  0
   -1.2664    0.4569    0.3567 C   0  0  0  0  0  0  0  0  0  3  0  0
    1.4384    1.2242    0.2174 H   0  0  0  0  0  0  0  0  0  4  0  0
    2.1077   -0.2477    0.9385 H   0  0  0  0  0  0  0  0  0  5  0  0
    1.4057   -0.2836   -0.6789 H   0  0  0  0  0  0  0  0  0  6  0  0
   -0.1309   -0.9912    1.6030 H   0  0  0  0  0  0  0  0  0  7  0  0
   -1.5005    0.0716   -0.6471 H   0  0  0  0  0  0  0  0  0  8  0  0
   -2.1382    0.2713    0.9849 H   0  0  0  0  0  0  0  0  0  9  0  0
   -1.1497    1.5406    0.2456 H   0  0  0  0  0  0  0  0  0 10  0  0
  1  5  1  0
  1  4  1  0
  1  6  1  0
  1  2  1  0
  2  7  1  0
  2  3  1  0
  3  9  1  0
  3 10  1  0
  3  8  1  0
M  RAD  1   2   2
M  END
>  <rmg_smiles>  (4) 
C[CH]C

>  <rmg_adjacency_list>  (4) 
multiplicity 2
1  C u0 p0 c0 {3,S} {4,S} {5,S} {6,S}
2  C u0 p0 c0 {3,S} {7,S} {8,S} {9,S}
3  C u1 p0 c0 {1,S} {2,S} {10,S}
4  H u0 p0 c0 {1,S}
5  H u0 p0 c0 {1,S}
6  H u0 p0 c0 {1,S}
7  H u0 p0 c0 {2,S}
8  H u0 p0 c0 {2,S}
9  H u0 p0 c0 {2,S}
10 H u0 p0 c0 {3,S}


>  <multiplicity>  (4) 
2

>  <reaction>  (4) 
rxn_912

>  <type>  (4) 
r1

>  <role_mapnums>  (4) 
{}

>  <role_mapidx>  (4) 
{}

>  <ordered_mapped_smiles>  (4) 
[C:1]([C:2]([C:3]([H:8])([H:9])[H:10])[H:7])([H:4])([H:5])[H:6]

>  <level_of_theory>  (4) 
wb97xd/def2tzvp

>  <lot_method>  (4) 
wb97xd

>  <lot_basis>  (4) 
def2tzvp

>  <spin_multiplicity>  (4) 
2.0

>  <optical_isomers>  (4) 
1.0

>  <modes>  (4) 
IdealGasTranslation(mass=(43.0548, 'amu')),         NonlinearRotor(             inertia = ([13.4945, 59.9891, 67.2321

>  <frequency_value>  (4) 
unknown

>  <frequency_units>  (4) 
unknown

>  <frequency_list>  (4) 
unknown

>  <arkane_path>  (4) 
/home/calvin/Dropbox/PersonalFolders/Calvin/HAb_Converged/rxn_912/output/Species/rxn_912_C[CH]C/arkane/output.py

>  <path_exists>  (4) 
True

>  <E0_value>  (4) 
-310845.2184059608

>  <E0_units>  (4) 
kJ/mol

>  <thermo_class>  (4) 
NASA

>  <Cp0_value>  (4) 
33.257888

>  <Cp0_units>  (4) 
J/(mol*K)

>  <CpInf_value>  (4) 
232.805216

>  <CpInf_units>  (4) 
J/(mol*K)

>  <Tmin_value>  (4) 
10.0

>  <Tmin_units>  (4) 
K

>  <Tmax_value>  (4) 
3000.0

>  <Tmax_units>  (4) 
K

>  <polynomials>  (4) 
[{"name": "polynomial1", "class": "NASAPolynomial", "Tmin_value": 10.0, "Tmin_units": "K", "Tmax_value": 447.8128792552529, "Tmax_units": "K", "coeffs": [3.752012635379411, 0.026641862649172638, -7.746058003612534e-05, 2.1389576411497674e-07, -1.844633782932518e-10, -37386043.96321184, 8.05688024181999]}, {"name": "polynomial2", "class": "NASAPolynomial", "Tmin_value": 447.8128792552529, "Tmin_units": "K", "Tmax_value": 3000.0, "Tmax_units": "K", "coeffs": [0.3456331898922003, 0.0329396549778818, -1.7732866616299737e-05, 4.6556958792141865e-09, -4.78902486015414e-13, -37385496.94179907, 24.455396824893292]}]

>  <H298_value>  (4) 
-74289.9090718394

>  <H298_units>  (4) 
kcal/mol

>  <S298_value>  (4) 
70.4573159165227

>  <S298_units>  (4) 
cal/(mol*K)

>  <Cp_T_value_list>  (4) 
[17.99246870913784, 21.823762730245537, 25.70307457878351, 29.150647616604275, 34.84741547055869, 39.20602419681299, 45.99328941377369, 49.43494906715023, 51.132806782188474]

>  <Cp_T_units>  (4) 
cal/(mol*K)

>  <T_list>  (4) 
[300.0, 400.0, 500.0, 600.0, 800.0, 1000.0, 1500.0, 2000.0, 2400.0]

>  <T_units>  (4) 
K

>  <yaml_path>  (4) 
/home/calvin/Dropbox/PersonalFolders/Calvin/HAb_Converged/rxn_912/output/Species/rxn_912_C[CH]C/rxn_912_CCHC.yml

>  <frequencies_cm1>  (4) 
[105.22281605836, 112.68722910119999, 345.60850417028, 388.99411742204, 888.91751570336, 934.4593623456, 940.8456586931999, 1017.3988110405598, 1144.8637925504, 1173.26564383392, 1356.01672415508, 1400.16457277736, 1405.7130969159198, 1454.7502390860398, 1462.58546933616, 1465.42840125864, 1476.53231652108, 2938.8637074004, 2942.7366871208797, 3008.0211165581195, 3008.4194017066793, 3085.04122390724, 3085.8858631016, 3161.75918390228]

>  <ZPE_kJmol>  (4) 
229.10994966023972

>  <E_elec_kJmol>  (4) 
-311074.328355621

>  <E0_minus_Eelec_plus_ZPE_kJmol>  (4) 
0.0

>  <rxn>  (4) 
rxn_912

>  <species_type>  (4) 
p1

>  <species_folder>  (4) 
rxn_912_C[CH]C

>  <frequencies_cm1_list>  (4) 
[105.22281605836, 112.68722910119999, 345.60850417028, 388.99411742204, 888.91751570336, 934.4593623456, 940.8456586931999, 1017.3988110405598, 1144.8637925504, 1173.26564383392, 1356.01672415508, 1400.16457277736, 1405.7130969159198, 1454.7502390860398, 1462.58546933616, 1465.42840125864, 1476.53231652108, 2938.8637074004, 2942.7366871208797, 3008.0211165581195, 3008.4194017066793, 3085.04122390724, 3085.8858631016, 3161.75918390228]

>  <E0_kJmol>  (4) 
-310845

>  <H298_kJmol>  (4) 
-310829

$$$$

     RDKit          3D

 13 12  0  0  0  0  0  0  0  0999 V2000
   -1.3649   -0.5967   -0.3477 C   0  0  0  0  0  0  0  0  0  1  0  0
   -0.1601   -0.2776    0.4669 C   0  0  0  0  0  3  0  0  0  2  0  0
    1.1241   -0.9571    0.1414 C   0  0  0  0  0  0  0  0  0  3  0  0
   -0.1188    1.0130    1.2082 C   0  0  0  0  0  0  0  0  0  4  0  0
   -1.4265   -1.6632   -0.5770 H   0  0  0  0  0  0  0  0  0  5  0  0
   -2.2858   -0.3004    0.1602 H   0  0  0  0  0  0  0  0  0  6  0  0
   -1.3532   -0.0668   -1.3139 H   0  0  0  0  0  0  0  0  0  7  0  0
    1.6174   -0.4963   -0.7297 H   0  0  0  0  0  0  0  0  0  8  0  0
    0.9723   -2.0104   -0.1064 H   0  0  0  0  0  0  0  0  0  9  0  0
    1.8338   -0.8977    0.9701 H   0  0  0  0  0  0  0  0  0 10  0  0
   -1.0851    1.2507    1.6593 H   0  0  0  0  0  0  0  0  0 11  0  0
    0.6358    1.0009    1.9983 H   0  0  0  0  0  0  0  0  0 12  0  0
    0.1343    1.8546    0.5434 H   0  0  0  0  0  0  0  0  0 13  0  0
  1  5  1  0
  1  7  1  0
  1  6  1  0
  1  2  1  0
  2  3  1  0
  2  4  1  0
  3  9  1  0
  3 10  1  0
  3  8  1  0
  4 13  1  0
  4 12  1  0
  4 11  1  0
M  RAD  1   2   2
M  END
>  <rmg_smiles>  (5) 
C[C](C)C

>  <rmg_adjacency_list>  (5) 
multiplicity 2
1  C u0 p0 c0 {4,S} {5,S} {6,S} {7,S}
2  C u0 p0 c0 {4,S} {8,S} {9,S} {10,S}
3  C u0 p0 c0 {4,S} {11,S} {12,S} {13,S}
4  C u1 p0 c0 {1,S} {2,S} {3,S}
5  H u0 p0 c0 {1,S}
6  H u0 p0 c0 {1,S}
7  H u0 p0 c0 {1,S}
8  H u0 p0 c0 {2,S}
9  H u0 p0 c0 {2,S}
10 H u0 p0 c0 {2,S}
11 H u0 p0 c0 {3,S}
12 H u0 p0 c0 {3,S}
13 H u0 p0 c0 {3,S}


>  <multiplicity>  (5) 
2

>  <reaction>  (5) 
rxn_912

>  <type>  (5) 
r2

>  <role_mapnums>  (5) 
{}

>  <role_mapidx>  (5) 
{}

>  <ordered_mapped_smiles>  (5) 
[C:1]([C:2]([C:3]([H:8])([H:9])[H:10])[C:4]([H:11])([H:12])[H:13])([H:5])([H:6])[H:7]

>  <level_of_theory>  (5) 
wb97xd/def2tzvp

>  <lot_method>  (5) 
wb97xd

>  <lot_basis>  (5) 
def2tzvp

>  <spin_multiplicity>  (5) 
2.0

>  <optical_isomers>  (5) 
1.0

>  <modes>  (5) 
IdealGasTranslation(mass=(57.0704, 'amu')),         NonlinearRotor(             inertia = ([62.748, 62.7522, 115.629

>  <frequency_value>  (5) 
unknown

>  <frequency_units>  (5) 
unknown

>  <frequency_list>  (5) 
unknown

>  <arkane_path>  (5) 
/home/calvin/Dropbox/PersonalFolders/Calvin/HAb_Converged/rxn_912/output/Species/rxn_912_C[C][C]C/arkane/output.py

>  <path_exists>  (5) 
True

>  <E0_value>  (5) 
-414011.856965502

>  <E0_units>  (5) 
kJ/mol

>  <thermo_class>  (5) 
NASA

>  <Cp0_value>  (5) 
33.257888

>  <Cp0_units>  (5) 
J/(mol*K)

>  <CpInf_value>  (5) 
307.635464

>  <CpInf_units>  (5) 
J/(mol*K)

>  <Tmin_value>  (5) 
10.0

>  <Tmin_units>  (5) 
K

>  <Tmax_value>  (5) 
3000.0

>  <Tmax_units>  (5) 
K

>  <polynomials>  (5) 
[{"name": "polynomial1", "class": "NASAPolynomial", "Tmin_value": 10.0, "Tmin_units": "K", "Tmax_value": 460.8517506539943, "Tmax_units": "K", "coeffs": [3.6293236819383625, 0.03765513297036382, -8.84510944318526e-05, 2.2786379010121045e-07, -1.9098431940090202e-10, -49794124.30274951, 8.373302063040073]}, {"name": "polynomial2", "class": "NASAPolynomial", "Tmin_value": 460.8517506539943, "Tmin_units": "K", "Tmax_value": 3000.0, "Tmax_units": "K", "coeffs": [-0.4807714777262607, 0.04578746704616988, -2.5277086318255314e-05, 6.798505396909619e-09, -7.152952071845242e-13, -49793453.00394831, 28.19127653770342]}]

>  <H298_value>  (5) 
-98946.5719001988

>  <H298_units>  (5) 
kcal/mol

>  <S298_value>  (5) 
75.46858084131917

>  <S298_units>  (5) 
cal/(mol*K)

>  <Cp_T_value_list>  (5) 
[22.993200195014794, 28.284477973958165, 33.581400627828174, 38.28896344619916, 46.02313970951047, 51.89156454928672, 60.909386756411806, 65.4369955185219, 67.6919887846801]

>  <Cp_T_units>  (5) 
cal/(mol*K)

>  <T_list>  (5) 
[300.0, 400.0, 500.0, 600.0, 800.0, 1000.0, 1500.0, 2000.0, 2400.0]

>  <T_units>  (5) 
K

>  <yaml_path>  (5) 
/home/calvin/Dropbox/PersonalFolders/Calvin/HAb_Converged/rxn_912/output/Species/rxn_912_C[C][C]C/rxn_912_CCCC.yml

>  <frequencies_cm1>  (5) 
[125.53535863492, 129.34653548752, 129.4770082086, 257.14113229272, 382.52541725059996, 382.89623445788, 764.0551216298, 930.3597721095599, 930.3872400508399, 963.9530642949999, 1004.16613032892, 1004.57814944812, 1087.74420865864, 1293.58209362564, 1293.7743692146, 1387.15163559596, 1387.57052170048, 1410.6573263463201, 1453.5210487137597, 1456.63179306372, 1456.74166482884, 1475.7288792386398, 1477.9949843942402, 1478.2627968217198, 2923.3237196212394, 2923.6876698432, 2931.1795508273203, 3026.6031788340397, 3027.0426658945194, 3028.1001816337994, 3072.43343885972, 3076.3064185802, 3076.69783674344]

>  <ZPE_kJmol>  (5) 
303.54745611946817

>  <E_elec_kJmol>  (5) 
-414315.4044216215

>  <E0_minus_Eelec_plus_ZPE_kJmol>  (5) 
0.0

>  <rxn>  (5) 
rxn_912

>  <species_type>  (5) 
r0

>  <species_folder>  (5) 
rxn_912_C[C][C]C

>  <frequencies_cm1_list>  (5) 
[125.53535863492, 129.34653548752, 129.4770082086, 257.14113229272, 382.52541725059996, 382.89623445788, 764.0551216298, 930.3597721095599, 930.3872400508399, 963.9530642949999, 1004.16613032892, 1004.57814944812, 1087.74420865864, 1293.58209362564, 1293.7743692146, 1387.15163559596, 1387.57052170048, 1410.6573263463201, 1453.5210487137597, 1456.63179306372, 1456.74166482884, 1475.7288792386398, 1477.9949843942402, 1478.2627968217198, 2923.3237196212394, 2923.6876698432, 2931.1795508273203, 3026.6031788340397, 3027.0426658945194, 3028.1001816337994, 3072.43343885972, 3076.3064185802, 3076.69783674344]

>  <E0_kJmol>  (5) 
-414012

>  <H298_kJmol>  (5) 
-413992

$$$$
