
     RDKit          3D

  9  8  0  0  0  0  0  0  0  0999 V2000
    0.7172   -0.3085   -1.0405 C   0  0  0  0  0  0  0  0  0  1  0  0
    0.0234   -0.3666    0.0707 C   0  0  0  0  0  0  0  0  0  2  0  0
   -0.6834    0.6370    0.8922 C   0  0  0  0  0  0  0  0  0  3  0  0
    1.1567   -1.1941   -1.4861 H   0  0  0  0  0  0  0  0  0  4  0  0
    0.8729    0.6350   -1.5622 H   0  0  0  0  0  0  0  0  0  5  0  0
   -0.0660   -1.3634    0.5026 H   0  0  0  0  0  0  0  0  0  6  0  0
   -1.7494    0.4064    0.9527 H   0  0  0  0  0  0  0  0  0  7  0  0
   -0.5707    1.6398    0.4680 H   0  0  0  0  0  0  0  0  0  8  0  0
   -0.2963    0.6459    1.9134 H   0  0  0  0  0  0  0  0  0  9  0  0
  1  5  1  0
  1  4  1  0
  1  2  1  0
  2  6  1  0
  2  3  1  0
  3  8  1  0
  3  7  1  0
  3  9  1  0
M  END
>  <rmg_smiles>  (1) 
[CH2][CH]C

>  <rmg_adjacency_list>  (1) 
1 C u0 p0 c0 {2,S} {4,S} {5,S} {6,S}
2 C u0 p0 c0 {1,S} {3,S} {7,S}
3 C u0 p0 c0 {2,S} {8,S} {9,S}
4 H u0 p0 c0 {1,S}
5 H u0 p0 c0 {1,S}
6 H u0 p0 c0 {1,S}
7 H u0 p0 c0 {2,S}
8 H u0 p0 c0 {3,S}
9 H u0 p0 c0 {3,S}


>  <multiplicity>  (1) 
1

>  <reaction>  (1) 
rxn_1632

>  <type>  (1) 
r1h

>  <role_mapnums>  (1) 
{"r1h_a": 2, "r1h_h": 6}

>  <role_mapidx>  (1) 
{"r1h_a": 1, "r1h_h": 5}

>  <ordered_mapped_smiles>  (1) 
[CH:1]([CH:2]([C:3]([H:7])([H:8])[H:9])[H:6])([H:4])[H:5]

>  <mol_properties>  (1) 
{"1": {"label": "donator", "atom_type": "Cs"}, "5": {"label": "d_hydrogen", "atom_type": "H0"}}

>  <level_of_theory>  (1) 
wb97xd/def2tzvp

>  <lot_method>  (1) 
wb97xd

>  <lot_basis>  (1) 
def2tzvp

>  <spin_multiplicity>  (1) 
1.0

>  <optical_isomers>  (1) 
1.0

>  <modes>  (1) 
IdealGasTranslation(mass=(42.047, 'amu')),         NonlinearRotor(             inertia = ([10.7194, 53.9495, 61.5633

>  <frequency_value>  (1) 
unknown

>  <frequency_units>  (1) 
unknown

>  <frequency_list>  (1) 
unknown

>  <arkane_path>  (1) 
/home/calvin/Dropbox/PersonalFolders/Calvin/HAb_Converged/rxn_1632/output/Species/rxn_1632_C=CC/arkane/output.py

>  <path_exists>  (1) 
True

>  <E0_value>  (1) 
-309367.8832800635

>  <E0_units>  (1) 
kJ/mol

>  <thermo_class>  (1) 
NASA

>  <Cp0_value>  (1) 
33.257888

>  <Cp0_units>  (1) 
J/(mol*K)

>  <CpInf_value>  (1) 
207.8618

>  <CpInf_units>  (1) 
J/(mol*K)

>  <Tmin_value>  (1) 
10.0

>  <Tmin_units>  (1) 
K

>  <Tmax_value>  (1) 
3000.0

>  <Tmax_units>  (1) 
K

>  <polynomials>  (1) 
[{"name": "polynomial1", "class": "NASAPolynomial", "Tmin_value": 10.0, "Tmin_units": "K", "Tmax_value": 531.9066404514887, "Tmax_units": "K", "coeffs": [4.0204367106395305, -0.0017312814973888466, 7.469369070858841e-05, -1.103989586823944e-07, 5.357411953540602e-11, -37208361.619619094, 6.984063163619424]}, {"name": "polynomial2", "class": "NASAPolynomial", "Tmin_value": 531.9066404514887, "Tmin_units": "K", "Tmax_value": 3000.0, "Tmax_units": "K", "coeffs": [-0.30746978474152303, 0.03081497539241948, -1.7087881859194207e-05, 4.635359552359225e-09, -4.926745989402899e-13, -37207901.209693715, 25.131571818199003]}]

>  <H298_value>  (1) 
-73937.54315081466

>  <H298_units>  (1) 
kcal/mol

>  <S298_value>  (1) 
63.235428095961645

>  <S298_units>  (1) 
cal/(mol*K)

>  <Cp_T_value_list>  (1) 
[15.255114438428619, 19.0471333221202, 22.6079143488244, 25.768633340780376, 30.96022164704354, 34.89993402421754, 40.97109580318192, 44.05842766532305, 45.61775865339882]

>  <Cp_T_units>  (1) 
cal/(mol*K)

>  <T_list>  (1) 
[300.0, 400.0, 500.0, 600.0, 800.0, 1000.0, 1500.0, 2000.0, 2400.0]

>  <T_units>  (1) 
K

>  <yaml_path>  (1) 
/home/calvin/Dropbox/PersonalFolders/Calvin/HAb_Converged/rxn_1632/output/Species/rxn_1632_C=CC/rxn_1632_C=CC.yml

>  <frequencies_cm1>  (1) 
[200.92112347787997, 429.72220735495995, 590.1693193567598, 925.5460154002399, 944.49202789812, 949.7315376972799, 1024.05291981564, 1068.7501272635197, 1186.76613697304, 1322.2792252779197, 1396.37399688072, 1440.26090006084, 1466.0326959668, 1481.02332492036, 1720.5094379553598, 3007.2932161142003, 3065.80679802592, 3091.5648599612396, 3111.3280437122, 3123.2628641983597, 3201.2855514042]

>  <ZPE_kJmol>  (1) 
207.8343042708976

>  <E_elec_kJmol>  (1) 
-309575.71758433443

>  <E0_minus_Eelec_plus_ZPE_kJmol>  (1) 
0.0

>  <rxn>  (1) 
rxn_1632

>  <species_type>  (1) 
r1

>  <species_folder>  (1) 
rxn_1632_C=CC

>  <frequencies_cm1_list>  (1) 
[200.92112347787997, 429.72220735495995, 590.1693193567598, 925.5460154002399, 944.49202789812, 949.7315376972799, 1024.05291981564, 1068.7501272635197, 1186.76613697304, 1322.2792252779197, 1396.37399688072, 1440.26090006084, 1466.0326959668, 1481.02332492036, 1720.5094379553598, 3007.2932161142003, 3065.80679802592, 3091.5648599612396, 3111.3280437122, 3123.2628641983597, 3201.2855514042]

>  <E0_kJmol>  (1) 
-309368

>  <H298_kJmol>  (1) 
-309355

$$$$

     RDKit          3D

 10  9  0  0  0  0  0  0  0  0999 V2000
   -0.1725   -0.5810   -1.4414 S   0  0  0  0  0  0  0  0  0  1  0  0
    0.5108    0.3875   -0.0891 C   0  0  0  0  0  0  0  0  0  2  0  0
   -0.3190    0.5090    1.1169 C   0  0  0  0  0  0  0  0  0  3  0  0
    0.1609    0.5188    2.3577 C   0  0  0  0  0  0  0  0  0  4  0  0
   -0.2095   -1.7622   -0.8063 H   0  0  0  0  0  0  0  0  0  5  0  0
    1.5512    0.1410    0.1175 H   0  0  0  0  0  0  0  0  0  6  0  0
   -1.3863    0.6229    0.9504 H   0  0  0  0  0  0  0  0  0  7  0  0
    1.2199    0.3960    2.5564 H   0  0  0  0  0  0  0  0  0  8  0  0
   -0.4908    0.6442    3.2126 H   0  0  0  0  0  0  0  0  0  9  0  0
    0.5780    1.3763   -0.5403 H   0  0  0  0  0  0  0  0  0 10  0  0
  1  2  1  0
  1  5  1  0
  2 10  1  0
  2  6  1  0
  2  3  1  0
  3  4  1  0
  3  7  1  0
  4  8  1  0
  4  9  1  0
M  END
>  <rmg_smiles>  (2) 
[CH2][CH]CS

>  <rmg_adjacency_list>  (2) 
1  S u0 p2 c0 {2,S} {10,S}
2  C u0 p0 c0 {1,S} {3,S} {5,S} {6,S}
3  C u0 p0 c0 {2,S} {4,S} {7,S}
4  C u0 p0 c0 {3,S} {8,S} {9,S}
5  H u0 p0 c0 {2,S}
6  H u0 p0 c0 {2,S}
7  H u0 p0 c0 {3,S}
8  H u0 p0 c0 {4,S}
9  H u0 p0 c0 {4,S}
10 H u0 p0 c0 {1,S}


>  <multiplicity>  (2) 
1

>  <reaction>  (2) 
rxn_1632

>  <type>  (2) 
r2h

>  <role_mapnums>  (2) 
{"r2h_a": 2, "r2h_h": 10}

>  <role_mapidx>  (2) 
{"r2h_a": 1, "r2h_h": 9}

>  <ordered_mapped_smiles>  (2) 
[S:1]([C:2]([CH:3]([CH:4]([H:8])[H:9])[H:7])([H:6])[H:10])[H:5]

>  <mol_properties>  (2) 
{"1": {"label": "acceptor", "atom_type": "Cs"}, "9": {"label": "a_hydrogen", "atom_type": "H0"}}

>  <level_of_theory>  (2) 
wb97xd/def2tzvp

>  <lot_method>  (2) 
wb97xd

>  <lot_basis>  (2) 
def2tzvp

>  <spin_multiplicity>  (2) 
1.0

>  <optical_isomers>  (2) 
2.0

>  <modes>  (2) 
IdealGasTranslation(mass=(74.019, 'amu')),         NonlinearRotor(             inertia = ([24.9739, 180.25, 186.44

>  <frequency_value>  (2) 
unknown

>  <frequency_units>  (2) 
unknown

>  <frequency_list>  (2) 
unknown

>  <arkane_path>  (2) 
/home/calvin/Dropbox/PersonalFolders/Calvin/HAb_Converged/rxn_1632/output/Species/rxn_1632_SCC=C/arkane/output.py

>  <path_exists>  (2) 
True

>  <E0_value>  (2) 
-1354838.6258243525

>  <E0_units>  (2) 
kJ/mol

>  <thermo_class>  (2) 
NASA

>  <Cp0_value>  (2) 
33.257888

>  <Cp0_units>  (2) 
J/(mol*K)

>  <CpInf_value>  (2) 
232.805216

>  <CpInf_units>  (2) 
J/(mol*K)

>  <Tmin_value>  (2) 
10.0

>  <Tmin_units>  (2) 
K

>  <Tmax_value>  (2) 
3000.0

>  <Tmax_units>  (2) 
K

>  <polynomials>  (2) 
[{"name": "polynomial1", "class": "NASAPolynomial", "Tmin_value": 10.0, "Tmin_units": "K", "Tmax_value": 400.65806020409946, "Tmax_units": "K", "coeffs": [3.883268576252178, 0.009872966694517036, 7.267081741219709e-05, -1.4952606927169204e-07, 9.638969446192109e-11, -162949446.9996889, 10.213451719731799]}, {"name": "polynomial2", "class": "NASAPolynomial", "Tmin_value": 400.65806020409946, "Tmin_units": "K", "Tmax_value": 3000.0, "Tmax_units": "K", "coeffs": [1.381946217098182, 0.03484518856752169, -2.0821510203899097e-05, 6.039055448516005e-09, -6.791318499482445e-13, -162949246.56534788, 19.9930512432755]}]

>  <H298_value>  (2) 
-323810.2515366824

>  <H298_units>  (2) 
kcal/mol

>  <S298_value>  (2) 
74.2752341119096

>  <S298_units>  (2) 
cal/(mol*K)

>  <Cp_T_value_list>  (2) 
[20.12858317623335, 24.557289426072625, 28.44010285073442, 31.814651802239496, 37.252480139055294, 41.26543233779768, 47.186294391719805, 50.14241959560657, 51.7278549409484]

>  <Cp_T_units>  (2) 
cal/(mol*K)

>  <T_list>  (2) 
[300.0, 400.0, 500.0, 600.0, 800.0, 1000.0, 1500.0, 2000.0, 2400.0]

>  <T_units>  (2) 
K

>  <yaml_path>  (2) 
/home/calvin/Dropbox/PersonalFolders/Calvin/HAb_Converged/rxn_1632/output/Species/rxn_1632_SCC=C/rxn_1632_SCC=C.yml

>  <frequencies_cm1>  (2) 
[109.00652496968, 245.3917204102, 290.63828668367995, 415.01999178484, 607.7556687612799, 738.8738864613599, 795.00462446704, 935.2971345546399, 957.23715265204, 997.0931354493199, 1031.7164754327598, 1111.56578073372, 1232.59639699872, 1263.93045101388, 1318.41311254276, 1435.2480007772401, 1465.33226346416, 1711.0192642431198, 2696.8986126648797, 3040.5500260189597, 3094.0163737204803, 3115.6885793903994, 3138.1779563133996, 3206.45639135016]

>  <ZPE_kJmol>  (2) 
209.0649957029236

>  <E_elec_kJmol>  (2) 
-1355047.6908200553

>  <E0_minus_Eelec_plus_ZPE_kJmol>  (2) 
0.0

>  <rxn>  (2) 
rxn_1632

>  <species_type>  (2) 
p0

>  <species_folder>  (2) 
rxn_1632_SCC=C

>  <frequencies_cm1_list>  (2) 
[109.00652496968, 245.3917204102, 290.63828668367995, 415.01999178484, 607.7556687612799, 738.8738864613599, 795.00462446704, 935.2971345546399, 957.23715265204, 997.0931354493199, 1031.7164754327598, 1111.56578073372, 1232.59639699872, 1263.93045101388, 1318.41311254276, 1435.2480007772401, 1465.33226346416, 1711.0192642431198, 2696.8986126648797, 3040.5500260189597, 3094.0163737204803, 3115.6885793903994, 3138.1779563133996, 3206.45639135016]

>  <E0_kJmol>  (2) 
-1.35484e+06

>  <H298_kJmol>  (2) 
-1.35482e+06

$$$$

     RDKit          3D

 18 16  0  0  0  0  0  0  0  0999 V2000
   -0.5767   -1.7066   -1.0214 S   0  0  0  0  0  0  0  0  0  1  0  0
    0.1066   -0.7381    0.3310 C   0  0  0  0  0  0  0  0  0  2  0  0
   -0.7232   -0.6167    1.5370 C   0  0  0  0  0  0  0  0  0  3  0  0
   -0.2433   -0.6069    2.7777 C   0  0  0  0  0  0  0  0  0  4  0  0
   -0.6137   -2.8879   -0.3863 H   0  0  0  0  0  0  0  0  0  5  0  0
    1.1470   -0.9846    0.5375 H   0  0  0  0  0  0  0  0  0  6  0  0
   -1.7905   -0.5028    1.3704 H   0  0  0  0  0  0  0  0  0  7  0  0
    0.8157   -0.7296    2.9764 H   0  0  0  0  0  0  0  0  0  8  0  0
   -0.8950   -0.4814    3.6326 H   0  0  0  0  0  0  0  0  0  9  0  0
    0.9961    1.7819   -1.8736 C   0  0  0  0  0  0  0  0  0 10  0  0
    0.3024    1.7237   -0.7624 C   0  0  0  0  0  3  0  0  0 11  0  0
   -0.4045    2.7274    0.0591 C   0  0  0  0  0  0  0  0  0 12  0  0
    1.4356    0.8962   -2.3191 H   0  0  0  0  0  0  0  0  0 13  0  0
    1.1519    2.7253   -2.3953 H   0  0  0  0  0  0  0  0  0 14  0  0
    0.1846    0.4108   -0.1934 H   0  0  0  0  0  0  0  0  0 15  0  0
   -1.4705    2.4967    0.1197 H   0  0  0  0  0  0  0  0  0 16  0  0
   -0.2917    3.7301   -0.3651 H   0  0  0  0  0  0  0  0  0 17  0  0
   -0.0173    2.7363    1.0803 H   0  0  0  0  0  0  0  0  0 18  0  0
  1  2  1  0
  1  5  1  0
  2 15  1  0
  2  6  1  0
  2  3  1  0
  3  4  1  0
  3  7  1  0
  4  8  1  0
  4  9  1  0
 10 13  1  0
 10 14  1  0
 10 11  1  0
 11 12  1  0
 12 17  1  0
 12 16  1  0
 12 18  1  0
M  RAD  1  11   2
M  END
>  <rmg_smiles>  (3) 
[CH2][CH]CS.[CH2][C]C

>  <rmg_adjacency_list>  (3) 
multiplicity 2
1  S u0 p2 c0 {2,S} {18,S}
2  C u0 p0 c0 {1,S} {4,S} {8,S} {9,S}
3  C u0 p0 c0 {7,S} {10,S} {11,S} {12,S}
4  C u0 p0 c0 {2,S} {5,S} {13,S}
5  C u0 p0 c0 {4,S} {14,S} {15,S}
6  C u0 p0 c0 {7,S} {16,S} {17,S}
7  C u1 p1 c0 {3,S} {6,S}
8  H u0 p0 c0 {2,S}
9  H u0 p0 c0 {2,S}
10 H u0 p0 c0 {3,S}
11 H u0 p0 c0 {3,S}
12 H u0 p0 c0 {3,S}
13 H u0 p0 c0 {4,S}
14 H u0 p0 c0 {5,S}
15 H u0 p0 c0 {5,S}
16 H u0 p0 c0 {6,S}
17 H u0 p0 c0 {6,S}
18 H u0 p0 c0 {1,S}


>  <multiplicity>  (3) 
2

>  <reaction>  (3) 
rxn_1632

>  <type>  (3) 
ts

>  <role_mapnums>  (3) 
{"*2": 15, "*1": 11, "*3": 2, "*0": 1, "*4": 10}

>  <role_mapidx>  (3) 
{"*2": 14, "*1": 10, "*3": 1, "*0": 0, "*4": 9}

>  <ordered_mapped_smiles>  (3) 
[S:1]([C:2]([CH:3]([CH:4]([H:8])[H:9])[H:7])([H:6])[H:15])[H:5].[CH:10]([CH:11][C:12]([H:16])([H:17])[H:18])([H:13])[H:14]

>  <mol_properties>  (3) 
{"0": {"label": "*0", "atom_type": "S2s"}, "1": {"label": "*3", "atom_type": "Cs"}, "9": {"label": "*4", "atom_type": "Cs"}, "10": {"label": "*1", "atom_type": "C2s"}, "14": {"label": "*2", "atom_type": "H0"}}

>  <level_of_theory>  (3) 
wb97xd/def2tzvp

>  <lot_method>  (3) 
wb97xd

>  <lot_basis>  (3) 
def2tzvp

>  <spin_multiplicity>  (3) 
2.0

>  <optical_isomers>  (3) 
2.0

>  <modes>  (3) 
IdealGasTranslation(mass=(115.058, 'amu')),         NonlinearRotor(             inertia = ([250.664, 379.189, 573.949

>  <frequency_value>  (3) 
-1529.03

>  <frequency_units>  (3) 
cm^-1

>  <frequency_list>  (3) 
unknown

>  <arkane_path>  (3) 
/home/calvin/Dropbox/PersonalFolders/Calvin/HAb_Converged/rxn_1632/output/rxns/TS0/arkane/output.py

>  <path_exists>  (3) 
True

>  <E0_value>  (3) 
-1662430.0

>  <E0_units>  (3) 
kJ/mol

>  <thermo_class>  (3) 
unknown

>  <Cp0_value>  (3) 
unknown

>  <Cp0_units>  (3) 
unknown

>  <CpInf_value>  (3) 
unknown

>  <CpInf_units>  (3) 
unknown

>  <Tmin_value>  (3) 
unknown

>  <Tmin_units>  (3) 
unknown

>  <Tmax_value>  (3) 
unknown

>  <Tmax_units>  (3) 
unknown

>  <polynomials>  (3) 
unknown

>  <H298_value>  (3) 
unknown

>  <H298_units>  (3) 
unknown

>  <S298_value>  (3) 
unknown

>  <S298_units>  (3) 
unknown

>  <Cp_T_value_list>  (3) 
unknown

>  <Cp_T_units>  (3) 
unknown

>  <T_list>  (3) 
unknown

>  <T_units>  (3) 
unknown

>  <yaml_path>  (3) 
unknown

>  <frequencies_cm1>  (3) 
unknown

>  <ZPE_kJmol>  (3) 
unknown

>  <E_elec_kJmol>  (3) 
unknown

>  <E0_minus_Eelec_plus_ZPE_kJmol>  (3) 
unknown

>  <rxn>  (3) 
unknown

>  <species_type>  (3) 
unknown

>  <species_folder>  (3) 
unknown

>  <frequencies_cm1_list>  (3) 
[]

>  <ts_imag_freq_cm1>  (3) 
-1547.6061

>  <ts_freq_out_path>  (3) 
/home/calvin/Dropbox/PersonalFolders/Calvin/HAb_Converged/rxn_1632/output/rxns/TS0/geometry/freq.out

>  <E0_kJmol>  (3) 
-1.66243e+06

>  <H298_kJmol>  (3) 
unknown

$$$$

     RDKit          3D

  8  7  0  0  0  0  0  0  0  0999 V2000
    1.4098   -0.3617   -0.1137 C   0  0  0  0  0  0  0  0  0  1  0  0
    0.1829   -0.1715   -0.5109 C   0  0  0  0  0  3  0  0  0  2  0  0
   -1.1129    0.2669    0.0153 C   0  0  0  0  0  0  0  0  0  3  0  0
    2.1881   -0.7137   -0.7829 H   0  0  0  0  0  0  0  0  0  4  0  0
    1.7065   -0.1722    0.9205 H   0  0  0  0  0  0  0  0  0  5  0  0
   -1.8665   -0.5154   -0.0958 H   0  0  0  0  0  0  0  0  0  6  0  0
   -1.0351    0.5163    1.0818 H   0  0  0  0  0  0  0  0  0  7  0  0
   -1.4726    1.1513   -0.5143 H   0  0  0  0  0  0  0  0  0  8  0  0
  1  5  1  0
  1  4  1  0
  1  2  1  0
  2  3  1  0
  3  6  1  0
  3  7  1  0
  3  8  1  0
M  RAD  1   2   2
M  END
>  <rmg_smiles>  (4) 
[CH2][C]C

>  <rmg_adjacency_list>  (4) 
multiplicity 2
1 C u0 p0 c0 {3,S} {4,S} {5,S} {6,S}
2 C u0 p0 c0 {3,S} {7,S} {8,S}
3 C u1 p1 c0 {1,S} {2,S}
4 H u0 p0 c0 {1,S}
5 H u0 p0 c0 {1,S}
6 H u0 p0 c0 {1,S}
7 H u0 p0 c0 {2,S}
8 H u0 p0 c0 {2,S}


>  <multiplicity>  (4) 
2

>  <reaction>  (4) 
rxn_1632

>  <type>  (4) 
r1

>  <role_mapnums>  (4) 
{}

>  <role_mapidx>  (4) 
{}

>  <ordered_mapped_smiles>  (4) 
[CH:1]([CH:2][C:3]([H:6])([H:7])[H:8])([H:4])[H:5]

>  <level_of_theory>  (4) 
wb97xd/def2tzvp

>  <lot_method>  (4) 
wb97xd

>  <lot_basis>  (4) 
def2tzvp

>  <spin_multiplicity>  (4) 
2.0

>  <optical_isomers>  (4) 
1.0

>  <modes>  (4) 
IdealGasTranslation(mass=(41.0391, 'amu')),         NonlinearRotor(             inertia = ([6.71616, 57.9316, 61.5152

>  <frequency_value>  (4) 
unknown

>  <frequency_units>  (4) 
unknown

>  <frequency_list>  (4) 
unknown

>  <arkane_path>  (4) 
/home/calvin/Dropbox/PersonalFolders/Calvin/HAb_Converged/rxn_1632/output/Species/rxn_1632_C=[C]C/arkane/output.py

>  <path_exists>  (4) 
True

>  <E0_value>  (4) 
-307613.25653515215

>  <E0_units>  (4) 
kJ/mol

>  <thermo_class>  (4) 
NASA

>  <Cp0_value>  (4) 
33.257888

>  <Cp0_units>  (4) 
J/(mol*K)

>  <CpInf_value>  (4) 
182.918384

>  <CpInf_units>  (4) 
J/(mol*K)

>  <Tmin_value>  (4) 
10.0

>  <Tmin_units>  (4) 
K

>  <Tmax_value>  (4) 
3000.0

>  <Tmax_units>  (4) 
K

>  <polynomials>  (4) 
[{"name": "polynomial1", "class": "NASAPolynomial", "Tmin_value": 10.0, "Tmin_units": "K", "Tmax_value": 538.1711488028841, "Tmax_units": "K", "coeffs": [3.930392301828367, 0.0054179567067513265, 4.1151041398938097e-05, -6.444124014737227e-08, 3.128242361006525e-11, -36997327.500744514, 7.4253602392221545]}, {"name": "polynomial2", "class": "NASAPolynomial", "Tmin_value": 538.1711488028841, "Tmin_units": "K", "Tmax_value": 3000.0, "Tmax_units": "K", "coeffs": [1.2730140544831965, 0.0251692789611033, -1.3900596126256308e-05, 3.755213403333302e-09, -3.9753510035605353e-13, -36997041.47800403, 18.5991996496872]}]

>  <H298_value>  (4) 
-73518.02603374641

>  <H298_units>  (4) 
kcal/mol

>  <S298_value>  (4) 
65.08526123373714

>  <S298_units>  (4) 
cal/(mol*K)

>  <Cp_T_value_list>  (4) 
[15.446252460985212, 18.59693875156949, 21.515738079456213, 24.104759953671334, 28.361201706158383, 31.595341743292256, 36.58827718853207, 39.128757927672034, 40.40916738620447]

>  <Cp_T_units>  (4) 
cal/(mol*K)

>  <T_list>  (4) 
[300.0, 400.0, 500.0, 600.0, 800.0, 1000.0, 1500.0, 2000.0, 2400.0]

>  <T_units>  (4) 
K

>  <yaml_path>  (4) 
/home/calvin/Dropbox/PersonalFolders/Calvin/HAb_Converged/rxn_1632/output/Species/rxn_1632_C=[C]C/rxn_1632_C=CC.yml

>  <frequencies_cm1>  (4) 
[176.04890264884, 312.72251147279997, 484.02632726551997, 893.4703269705199, 895.1939402858399, 932.7632169715598, 1043.3422815795197, 1098.3399670074, 1378.28635754784, 1408.11654177792, 1443.1999697778, 1458.9940360138, 1748.7121466646001, 2967.7256467003594, 3032.41264841476, 3055.0530990147995, 3082.9330594139997, 3144.5505186903597]

>  <ZPE_kJmol>  (4) 
170.8022104950377

>  <E_elec_kJmol>  (4) 
-307784.0587456472

>  <E0_minus_Eelec_plus_ZPE_kJmol>  (4) 
0.0

>  <rxn>  (4) 
rxn_1632

>  <species_type>  (4) 
p1

>  <species_folder>  (4) 
rxn_1632_C=[C]C

>  <frequencies_cm1_list>  (4) 
[176.04890264884, 312.72251147279997, 484.02632726551997, 893.4703269705199, 895.1939402858399, 932.7632169715598, 1043.3422815795197, 1098.3399670074, 1378.28635754784, 1408.11654177792, 1443.1999697778, 1458.9940360138, 1748.7121466646001, 2967.7256467003594, 3032.41264841476, 3055.0530990147995, 3082.9330594139997, 3144.5505186903597]

>  <E0_kJmol>  (4) 
-307613

>  <H298_kJmol>  (4) 
-307599

$$$$

     RDKit          3D

  9  8  0  0  0  0  0  0  0  0999 V2000
    2.3991   -0.1292   -0.2384 S   0  0  0  0  0  0  0  0  0  1  0  0
    0.7460    0.2807    0.0931 C   0  0  0  0  0  3  0  0  0  2  0  0
   -0.3131   -0.5719   -0.2043 C   0  0  0  0  0  0  0  0  0  3  0  0
   -0.2286   -1.8095   -0.7775 C   0  0  0  0  0  0  0  0  0  4  0  0
    2.9373    1.0009    0.2312 H   0  0  0  0  0  0  0  0  0  5  0  0
    0.5618    1.2421    0.5487 H   0  0  0  0  0  0  0  0  0  6  0  0
   -1.2978   -0.1954    0.0537 H   0  0  0  0  0  0  0  0  0  7  0  0
    0.7207   -2.2479   -1.0607 H   0  0  0  0  0  0  0  0  0  8  0  0
   -1.1177   -2.3938   -0.9670 H   0  0  0  0  0  0  0  0  0  9  0  0
  1  2  1  0
  1  5  1  0
  2  6  1  0
  2  3  1  0
  3  4  1  0
  3  7  1  0
  4  8  1  0
  4  9  1  0
M  RAD  1   2   2
M  END
>  <rmg_smiles>  (5) 
[CH2][CH][CH]S

>  <rmg_adjacency_list>  (5) 
multiplicity 2
1 S u0 p2 c0 {3,S} {9,S}
2 C u0 p0 c0 {3,S} {4,S} {5,S}
3 C u1 p0 c0 {1,S} {2,S} {6,S}
4 C u0 p0 c0 {2,S} {7,S} {8,S}
5 H u0 p0 c0 {2,S}
6 H u0 p0 c0 {3,S}
7 H u0 p0 c0 {4,S}
8 H u0 p0 c0 {4,S}
9 H u0 p0 c0 {1,S}


>  <multiplicity>  (5) 
2

>  <reaction>  (5) 
rxn_1632

>  <type>  (5) 
r2

>  <role_mapnums>  (5) 
{}

>  <role_mapidx>  (5) 
{}

>  <ordered_mapped_smiles>  (5) 
[S:1]([C:2]([CH:3]([CH:4]([H:8])[H:9])[H:7])[H:6])[H:5]

>  <level_of_theory>  (5) 
wb97xd/def2tzvp

>  <lot_method>  (5) 
wb97xd

>  <lot_basis>  (5) 
def2tzvp

>  <spin_multiplicity>  (5) 
2.0

>  <optical_isomers>  (5) 
1.0

>  <modes>  (5) 
IdealGasTranslation(mass=(73.0112, 'amu')),         NonlinearRotor(             inertia = ([31.363, 134.913, 166.276

>  <frequency_value>  (5) 
unknown

>  <frequency_units>  (5) 
unknown

>  <frequency_list>  (5) 
unknown

>  <arkane_path>  (5) 
/home/calvin/Dropbox/PersonalFolders/Calvin/HAb_Converged/rxn_1632/output/Species/rxn_1632_S[CH]C=C/arkane/output.py

>  <path_exists>  (5) 
True

>  <E0_value>  (5) 
-1353189.912902829

>  <E0_units>  (5) 
kJ/mol

>  <thermo_class>  (5) 
NASA

>  <Cp0_value>  (5) 
33.257888

>  <Cp0_units>  (5) 
J/(mol*K)

>  <CpInf_value>  (5) 
207.8618

>  <CpInf_units>  (5) 
J/(mol*K)

>  <Tmin_value>  (5) 
10.0

>  <Tmin_units>  (5) 
K

>  <Tmax_value>  (5) 
3000.0

>  <Tmax_units>  (5) 
K

>  <polynomials>  (5) 
[{"name": "polynomial1", "class": "NASAPolynomial", "Tmin_value": 10.0, "Tmin_units": "K", "Tmax_value": 494.182421916781, "Tmax_units": "K", "coeffs": [3.9171373588949456, 0.005296732981537435, 0.00010660061491766757, -2.3200753792228283e-07, 1.5435566423865143e-10, -162751151.45822766, 10.011870120637145]}, {"name": "polynomial2", "class": "NASAPolynomial", "Tmin_value": 494.182421916781, "Tmin_units": "K", "Tmax_value": 3000.0, "Tmax_units": "K", "coeffs": [2.9684844905613335, 0.02976556892789463, -1.8633830366542493e-05, 5.689075317713255e-09, -6.722422089020262e-13, -162751262.7195864, 11.845549052817699]}]

>  <H298_value>  (5) 
-323416.2553145126

>  <H298_units>  (5) 
kcal/mol

>  <S298_value>  (5) 
73.32316749567646

>  <S298_units>  (5) 
cal/(mol*K)

>  <Cp_T_value_list>  (5) 
[20.043540963892376, 24.233886931081226, 27.5465186826771, 30.32748293405113, 34.761695296239196, 37.98953828173351, 42.701336869209946, 45.151374707895805, 46.535171933883085]

>  <Cp_T_units>  (5) 
cal/(mol*K)

>  <T_list>  (5) 
[300.0, 400.0, 500.0, 600.0, 800.0, 1000.0, 1500.0, 2000.0, 2400.0]

>  <T_units>  (5) 
K

>  <yaml_path>  (5) 
/home/calvin/Dropbox/PersonalFolders/Calvin/HAb_Converged/rxn_1632/output/Species/rxn_1632_S[CH]C=C/rxn_1632_SCHC=C.yml

>  <frequencies_cm1>  (5) 
[163.62652620496, 213.33663293644, 322.76891099595997, 534.6497430445601, 548.4317825817999, 640.07856866252, 767.52981620172, 810.9222964388, 939.69200515944, 969.4329185803599, 1056.3483517756, 1131.90579125156, 1228.8126880874, 1369.48974935292, 1427.04882030516, 1524.36086927488, 2717.97339061196, 3127.7744735536003, 3135.08094593408, 3196.4305927829596, 3224.57836560964]

>  <ZPE_kJmol>  (5) 
173.75927083469932

>  <E_elec_kJmol>  (5) 
-1353363.6721736635

>  <E0_minus_Eelec_plus_ZPE_kJmol>  (5) 
0.0

>  <rxn>  (5) 
rxn_1632

>  <species_type>  (5) 
r0

>  <species_folder>  (5) 
rxn_1632_S[CH]C=C

>  <frequencies_cm1_list>  (5) 
[163.62652620496, 213.33663293644, 322.76891099595997, 534.6497430445601, 548.4317825817999, 640.07856866252, 767.52981620172, 810.9222964388, 939.69200515944, 969.4329185803599, 1056.3483517756, 1131.90579125156, 1228.8126880874, 1369.48974935292, 1427.04882030516, 1524.36086927488, 2717.97339061196, 3127.7744735536003, 3135.08094593408, 3196.4305927829596, 3224.57836560964]

>  <E0_kJmol>  (5) 
-1.35319e+06

>  <H298_kJmol>  (5) 
-1.35317e+06

$$$$
