
     RDKit          3D

 12 11  0  0  0  0  0  0  0  0999 V2000
    0.6062   -0.0744   -2.3576 C   0  0  0  0  0  2  0  0  0  1  0  0
    0.4425    0.0768   -1.1783 C   0  0  0  0  0  2  0  0  0  2  0  0
    0.3269    0.2856    0.2440 C   0  0  0  0  0  0  0  0  0  3  0  0
   -0.0176    1.7152    0.6470 C   0  0  0  0  0  0  0  0  0  4  0  0
   -0.4105   -0.7386    0.9419 C   0  0  0  0  0  2  0  0  0  5  0  0
   -0.9851   -1.5843    1.5690 C   0  0  0  0  0  2  0  0  0  6  0  0
    0.7180   -0.2135   -3.4059 H   0  0  0  0  0  0  0  0  0  7  0  0
    1.3549    0.1723    0.5882 H   0  0  0  0  0  0  0  0  0  8  0  0
   -1.0177    1.9852    0.3047 H   0  0  0  0  0  0  0  0  0  9  0  0
    0.7020    2.4048    0.2048 H   0  0  0  0  0  0  0  0  0 10  0  0
    0.0166    1.8126    1.7320 H   0  0  0  0  0  0  0  0  0 11  0  0
   -1.5081   -2.3351    2.1106 H   0  0  0  0  0  0  0  0  0 12  0  0
  1  7  1  0
  1  2  1  0
  2  3  1  0
  3  4  1  0
  3  5  1  0
  3  8  1  0
  4  9  1  0
  4 10  1  0
  4 11  1  0
  5  6  1  0
  6 12  1  0
M  RAD  4   1   3   2   3   5   3   6   3
M  END
>  <rmg_smiles>  (1) 
[CH][C]C(C)[C][CH]

>  <rmg_adjacency_list>  (1) 
1  C u0 p0 c0 {2,S} {3,S} {4,S} {7,S}
2  C u0 p0 c0 {1,S} {8,S} {9,S} {10,S}
3  C u0 p1 c0 {1,S} {5,S}
4  C u0 p1 c0 {1,S} {6,S}
5  C u0 p1 c0 {3,S} {11,S}
6  C u0 p1 c0 {4,S} {12,S}
7  H u0 p0 c0 {1,S}
8  H u0 p0 c0 {2,S}
9  H u0 p0 c0 {2,S}
10 H u0 p0 c0 {2,S}
11 H u0 p0 c0 {5,S}
12 H u0 p0 c0 {6,S}


>  <multiplicity>  (1) 
1

>  <reaction>  (1) 
rxn_1411

>  <type>  (1) 
r1h

>  <role_mapnums>  (1) 
{"r1h_a": 3, "r1h_h": 8}

>  <role_mapidx>  (1) 
{"r1h_a": 2, "r1h_h": 7}

>  <ordered_mapped_smiles>  (1) 
[C:1]([C:2][C:3]([C:4]([H:9])([H:10])[H:11])([C:5][C:6][H:12])[H:8])[H:7]

>  <mol_properties>  (1) 
{"2": {"label": "donator", "atom_type": "Cs"}, "7": {"label": "d_hydrogen", "atom_type": "H0"}}

>  <level_of_theory>  (1) 
wb97xd/def2tzvp

>  <lot_method>  (1) 
wb97xd

>  <lot_basis>  (1) 
def2tzvp

>  <spin_multiplicity>  (1) 
1.0

>  <optical_isomers>  (1) 
1.0

>  <modes>  (1) 
IdealGasTranslation(mass=(78.0469, 'amu')),         NonlinearRotor(             inertia = ([91.5038, 182.303, 256.884

>  <frequency_value>  (1) 
unknown

>  <frequency_units>  (1) 
unknown

>  <frequency_list>  (1) 
unknown

>  <arkane_path>  (1) 
/home/calvin/Dropbox/PersonalFolders/Calvin/HAb_Converged/rxn_1411/output/Species/rxn_1411_CtCC[C]CtC/arkane/output.py

>  <path_exists>  (1) 
True

>  <E0_value>  (1) 
-609140.5146388354

>  <E0_units>  (1) 
kJ/mol

>  <thermo_class>  (1) 
NASA

>  <Cp0_value>  (1) 
33.257888

>  <Cp0_units>  (1) 
J/(mol*K)

>  <CpInf_value>  (1) 
282.692048

>  <CpInf_units>  (1) 
J/(mol*K)

>  <Tmin_value>  (1) 
10.0

>  <Tmin_units>  (1) 
K

>  <Tmax_value>  (1) 
3000.0

>  <Tmax_units>  (1) 
K

>  <polynomials>  (1) 
[{"name": "polynomial1", "class": "NASAPolynomial", "Tmin_value": 10.0, "Tmin_units": "K", "Tmax_value": 428.30381772817856, "Tmax_units": "K", "coeffs": [3.843414737485958, 0.011059899510253308, 0.00017313206294384585, -4.5066861494576427e-07, 3.5431673194866504e-10, -73262680.70719364, 10.351537126465276]}, {"name": "polynomial2", "class": "NASAPolynomial", "Tmin_value": 428.30381772817856, "Tmin_units": "K", "Tmax_value": 3000.0, "Tmax_units": "K", "coeffs": [3.71225639608142, 0.03988512935119699, -2.4480757543004908e-05, 7.3774227474566334e-09, -8.647202101499329e-13, -73262922.62795044, 7.917757545343436]}]

>  <H298_value>  (1) 
-145583.22326588043

>  <H298_units>  (1) 
kcal/mol

>  <S298_value>  (1) 
79.39725011907349

>  <S298_units>  (1) 
cal/(mol*K)

>  <Cp_T_value_list>  (1) 
[26.71835542334415, 32.185236842440695, 36.57009328220792, 40.36357580076537, 46.452394866783735, 50.93077266482023, 57.588055372365, 61.09337215118473, 63.041253155202796]

>  <Cp_T_units>  (1) 
cal/(mol*K)

>  <T_list>  (1) 
[300.0, 400.0, 500.0, 600.0, 800.0, 1000.0, 1500.0, 2000.0, 2400.0]

>  <T_units>  (1) 
K

>  <yaml_path>  (1) 
/home/calvin/Dropbox/PersonalFolders/Calvin/HAb_Converged/rxn_1411/output/Species/rxn_1411_CtCC[C]CtC/rxn_1411_CtCCCCtC.yml

>  <frequencies_cm1>  (1) 
[133.58346542996, 199.16317523595998, 209.69026373152, 240.0698067872, 354.65919082204, 475.7310089989599, 567.46019890352, 568.12629647956, 689.5414639224799, 690.09082274808, 696.1063018883999, 699.3337849888, 789.86125246236, 930.3735060801998, 1032.6572524215999, 1082.42916202096, 1134.52211265848, 1298.31344651112, 1322.5745056466799, 1399.4092043921598, 1478.5306092491999, 1484.3400788299198, 2226.8946694228, 2231.41314576336, 3015.0597765111197, 3031.95942738364, 3117.4327936616796, 3119.7813026411195, 3437.7021220011598, 3438.6085640633996]

>  <ZPE_kJmol>  (1) 
245.805260802598

>  <E_elec_kJmol>  (1) 
-609386.3198996381

>  <E0_minus_Eelec_plus_ZPE_kJmol>  (1) 
0.0

>  <rxn>  (1) 
rxn_1411

>  <species_type>  (1) 
r0

>  <species_folder>  (1) 
rxn_1411_CtCC[C]CtC

>  <frequencies_cm1_list>  (1) 
[133.58346542996, 199.16317523595998, 209.69026373152, 240.0698067872, 354.65919082204, 475.7310089989599, 567.46019890352, 568.12629647956, 689.5414639224799, 690.09082274808, 696.1063018883999, 699.3337849888, 789.86125246236, 930.3735060801998, 1032.6572524215999, 1082.42916202096, 1134.52211265848, 1298.31344651112, 1322.5745056466799, 1399.4092043921598, 1478.5306092491999, 1484.3400788299198, 2226.8946694228, 2231.41314576336, 3015.0597765111197, 3031.95942738364, 3117.4327936616796, 3119.7813026411195, 3437.7021220011598, 3438.6085640633996]

>  <E0_kJmol>  (1) 
-609141

>  <H298_kJmol>  (1) 
-609120

$$$$

     RDKit          3D

  6  5  0  0  0  0  0  0  0  0999 V2000
   -1.6210   -0.7107    0.4256 H   0  0  0  0  0  0  0  0  0  1  0  0
   -0.5682   -0.7737    0.6829 C   0  0  0  0  0  0  0  0  0  2  0  0
    0.2997    0.3925   -0.2904 S   0  0  0  0  0  0  0  0  0  3  0  0
   -0.5346   -0.5181    1.7375 H   0  0  0  0  0  0  0  0  0  4  0  0
   -0.3707   -1.8201    0.4719 H   0  0  0  0  0  0  0  0  0  5  0  0
    0.1196   -0.2110   -1.4731 H   0  0  0  0  0  0  0  0  0  6  0  0
  1  2  1  0
  2  3  1  0
  2  5  1  0
  2  4  1  0
  3  6  1  0
M  END
>  <rmg_smiles>  (2) 
CS

>  <rmg_adjacency_list>  (2) 
1 S u0 p2 c0 {2,S} {6,S}
2 C u0 p0 c0 {1,S} {3,S} {4,S} {5,S}
3 H u0 p0 c0 {2,S}
4 H u0 p0 c0 {2,S}
5 H u0 p0 c0 {2,S}
6 H u0 p0 c0 {1,S}


>  <multiplicity>  (2) 
1

>  <reaction>  (2) 
rxn_1411

>  <type>  (2) 
r2h

>  <role_mapnums>  (2) 
{"r2h_a": 2, "r2h_h": 1}

>  <role_mapidx>  (2) 
{"r2h_a": 1, "r2h_h": 0}

>  <ordered_mapped_smiles>  (2) 
[H:1][C:2]([S:3][H:6])([H:4])[H:5]

>  <mol_properties>  (2) 
{"0": {"label": "a_hydrogen", "atom_type": "H0"}, "1": {"label": "acceptor", "atom_type": "Cs"}}

>  <level_of_theory>  (2) 
wb97xd/def2tzvp

>  <lot_method>  (2) 
wb97xd

>  <lot_basis>  (2) 
def2tzvp

>  <spin_multiplicity>  (2) 
1.0

>  <optical_isomers>  (2) 
1.0

>  <modes>  (2) 
IdealGasTranslation(mass=(48.0034, 'amu')),         NonlinearRotor(             inertia = ([4.88218, 38.8439, 40.5133

>  <frequency_value>  (2) 
unknown

>  <frequency_units>  (2) 
unknown

>  <frequency_list>  (2) 
unknown

>  <arkane_path>  (2) 
/home/calvin/Dropbox/PersonalFolders/Calvin/HAb_Converged/rxn_1411/output/Species/rxn_1411_CS/arkane/output.py

>  <path_exists>  (2) 
True

>  <E0_value>  (2) 
-1151727.0074722518

>  <E0_units>  (2) 
kJ/mol

>  <thermo_class>  (2) 
NASA

>  <Cp0_value>  (2) 
33.257888

>  <Cp0_units>  (2) 
J/(mol*K)

>  <CpInf_value>  (2) 
133.031552

>  <CpInf_units>  (2) 
J/(mol*K)

>  <Tmin_value>  (2) 
10.0

>  <Tmin_units>  (2) 
K

>  <Tmax_value>  (2) 
3000.0

>  <Tmax_units>  (2) 
K

>  <polynomials>  (2) 
[{"name": "polynomial1", "class": "NASAPolynomial", "Tmin_value": 10.0, "Tmin_units": "K", "Tmax_value": 512.0046987811082, "Tmax_units": "K", "coeffs": [3.9928587497669135, 0.0002559754074249204, 3.857280640825913e-05, -5.9282603001709694e-08, 2.982147399711347e-11, -138520762.43019888, 6.388595841908656]}, {"name": "polynomial2", "class": "NASAPolynomial", "Tmin_value": 512.0046987811082, "Tmin_units": "K", "Tmax_value": 3000.0, "Tmax_units": "K", "coeffs": [1.9274442242810899, 0.01639190572497184, -8.700073442106705e-06, 2.2701656845537463e-09, -2.333640907578926e-13, -138520550.93016994, 14.970390653960273]}]

>  <H298_value>  (2) 
-275266.5007544268

>  <H298_units>  (2) 
kcal/mol

>  <S298_value>  (2) 
60.53254852214023

>  <S298_units>  (2) 
cal/(mol*K)

>  <Cp_T_value_list>  (2) 
[12.285164170505567, 14.379905317207566, 16.329998202821564, 18.065044527000737, 20.944482261362513, 23.163034177843237, 26.669386406809583, 28.493484761208425, 29.402518411604955]

>  <Cp_T_units>  (2) 
cal/(mol*K)

>  <T_list>  (2) 
[300.0, 400.0, 500.0, 600.0, 800.0, 1000.0, 1500.0, 2000.0, 2400.0]

>  <T_units>  (2) 
K

>  <yaml_path>  (2) 
/home/calvin/Dropbox/PersonalFolders/Calvin/HAb_Converged/rxn_1411/output/Species/rxn_1411_CS/rxn_1411_CS.yml

>  <frequencies_cm1>  (2) 
[239.23203457815995, 718.5407429288399, 797.72395065376, 969.0552343877599, 1092.82577779544, 1352.90597980512, 1462.0155095546, 1475.7082782826799, 2706.3887863771197, 3036.2032243114, 3126.3324066364, 3127.7195376710397]

>  <ZPE_kJmol>  (2) 
120.25255493508004

>  <E_elec_kJmol>  (2) 
-1151847.260027187

>  <E0_minus_Eelec_plus_ZPE_kJmol>  (2) 
0.0

>  <rxn>  (2) 
rxn_1411

>  <species_type>  (2) 
p0

>  <species_folder>  (2) 
rxn_1411_CS

>  <frequencies_cm1_list>  (2) 
[239.23203457815995, 718.5407429288399, 797.72395065376, 969.0552343877599, 1092.82577779544, 1352.90597980512, 1462.0155095546, 1475.7082782826799, 2706.3887863771197, 3036.2032243114, 3126.3324066364, 3127.7195376710397]

>  <E0_kJmol>  (2) 
-1.15173e+06

>  <H298_kJmol>  (2) 
-1.15172e+06

$$$$

     RDKit          3D

 17 15  0  0  0  0  0  0  0  0999 V2000
   -0.8048   -0.2252   -2.3426 C   0  0  0  0  0  0  0  0  0  1  0  0
   -0.9686   -0.0740   -1.1634 C   0  0  0  0  0  0  0  0  0  2  0  0
   -1.0841    0.1348    0.2589 C   0  0  0  0  0  0  0  0  0  3  0  0
   -1.4286    1.5644    0.6619 C   0  0  0  0  0  0  0  0  0  4  0  0
   -1.8216   -0.8894    0.9568 C   0  0  0  0  0  0  0  0  0  5  0  0
   -2.3962   -1.7351    1.5840 C   0  0  0  0  0  0  0  0  0  6  0  0
   -0.6930   -0.3643   -3.3909 H   0  0  0  0  0  0  0  0  0  7  0  0
    0.1257    0.0015    0.6640 H   0  0  0  0  0  0  0  0  0  8  0  0
   -2.4288    1.8344    0.3197 H   0  0  0  0  0  0  0  0  0  9  0  0
   -0.7091    2.2540    0.2197 H   0  0  0  0  0  0  0  0  0 10  0  0
   -1.3945    1.6618    1.7469 H   0  0  0  0  0  0  0  0  0 11  0  0
   -2.9192   -2.4859    2.1256 H   0  0  0  0  0  0  0  0  0 12  0  0
    1.5140   -0.0815    1.0034 C   0  0  0  0  0  3  0  0  0 13  0  0
    2.3819    1.0846    0.0301 S   0  0  0  0  0  0  0  0  0 14  0  0
    1.5476    0.1740    2.0579 H   0  0  0  0  0  0  0  0  0 15  0  0
    1.7115   -1.1280    0.7923 H   0  0  0  0  0  0  0  0  0 16  0  0
    2.2018    0.4811   -1.1527 H   0  0  0  0  0  0  0  0  0 17  0  0
  1  7  1  0
  1  2  1  0
  2  3  1  0
  3  4  1  0
  3  5  1  0
  3  8  1  0
  4  9  1  0
  4 10  1  0
  4 11  1  0
  5  6  1  0
  6 12  1  0
 13 16  1  0
 13 14  1  0
 13 15  1  0
 14 17  1  0
M  RAD  1  13   2
M  END
>  <rmg_smiles>  (3) 
[CH][C]C([C][CH])C.[CH2]S

>  <rmg_adjacency_list>  (3) 
multiplicity 2
1  S u0 p2 c0 {4,S} {15,S}
2  C u0 p0 c0 {3,S} {5,S} {6,S} {9,S}
3  C u0 p0 c0 {2,S} {10,S} {11,S} {12,S}
4  C u1 p0 c0 {1,S} {13,S} {14,S}
5  C u0 p1 c0 {2,S} {7,S}
6  C u0 p1 c0 {2,S} {8,S}
7  C u0 p1 c0 {5,S} {16,S}
8  C u0 p1 c0 {6,S} {17,S}
9  H u0 p0 c0 {2,S}
10 H u0 p0 c0 {3,S}
11 H u0 p0 c0 {3,S}
12 H u0 p0 c0 {3,S}
13 H u0 p0 c0 {4,S}
14 H u0 p0 c0 {4,S}
15 H u0 p0 c0 {1,S}
16 H u0 p0 c0 {7,S}
17 H u0 p0 c0 {8,S}


>  <multiplicity>  (3) 
2

>  <reaction>  (3) 
rxn_1411

>  <type>  (3) 
ts

>  <role_mapnums>  (3) 
{"*2": 8, "*1": 3, "*3": 13, "*0": 2, "*4": 14}

>  <role_mapidx>  (3) 
{"*2": 7, "*1": 2, "*3": 12, "*0": 1, "*4": 13}

>  <ordered_mapped_smiles>  (3) 
[CH2:1]([CH2:2][C:3]([C:4]([H:9])([H:10])[H:11])([CH2:5][CH2:6][H:12])[H:8])[H:7].[C:13]([S:14][H:17])([H:15])[H:16]

>  <mol_properties>  (3) 
{"1": {"label": "*0", "atom_type": "C2s"}, "2": {"label": "*1", "atom_type": "Cs"}, "7": {"label": "*2", "atom_type": "H0"}, "12": {"label": "*3", "atom_type": "Cs"}, "13": {"label": "*4", "atom_type": "S2s"}}

>  <level_of_theory>  (3) 
wb97xd/def2tzvp

>  <lot_method>  (3) 
wb97xd

>  <lot_basis>  (3) 
def2tzvp

>  <spin_multiplicity>  (3) 
2.0

>  <optical_isomers>  (3) 
2.0

>  <modes>  (3) 
IdealGasTranslation(mass=(125.043, 'amu')),         NonlinearRotor(             inertia = ([241.251, 533.185, 618.821

>  <frequency_value>  (3) 
-1599.78

>  <frequency_units>  (3) 
cm^-1

>  <frequency_list>  (3) 
unknown

>  <arkane_path>  (3) 
/home/calvin/Dropbox/PersonalFolders/Calvin/HAb_Converged/rxn_1411/output/rxns/TS0/arkane/output.py

>  <path_exists>  (3) 
True

>  <E0_value>  (3) 
-1759140.0

>  <E0_units>  (3) 
kJ/mol

>  <thermo_class>  (3) 
unknown

>  <Cp0_value>  (3) 
unknown

>  <Cp0_units>  (3) 
unknown

>  <CpInf_value>  (3) 
unknown

>  <CpInf_units>  (3) 
unknown

>  <Tmin_value>  (3) 
unknown

>  <Tmin_units>  (3) 
unknown

>  <Tmax_value>  (3) 
unknown

>  <Tmax_units>  (3) 
unknown

>  <polynomials>  (3) 
unknown

>  <H298_value>  (3) 
unknown

>  <H298_units>  (3) 
unknown

>  <S298_value>  (3) 
unknown

>  <S298_units>  (3) 
unknown

>  <Cp_T_value_list>  (3) 
unknown

>  <Cp_T_units>  (3) 
unknown

>  <T_list>  (3) 
unknown

>  <T_units>  (3) 
unknown

>  <yaml_path>  (3) 
unknown

>  <frequencies_cm1>  (3) 
unknown

>  <ZPE_kJmol>  (3) 
unknown

>  <E_elec_kJmol>  (3) 
unknown

>  <E0_minus_Eelec_plus_ZPE_kJmol>  (3) 
unknown

>  <rxn>  (3) 
unknown

>  <species_type>  (3) 
unknown

>  <species_folder>  (3) 
unknown

>  <frequencies_cm1_list>  (3) 
[]

>  <ts_imag_freq_cm1>  (3) 
-1619.2074

>  <ts_freq_out_path>  (3) 
/home/calvin/Dropbox/PersonalFolders/Calvin/HAb_Converged/rxn_1411/output/rxns/TS0/geometry/freq.out

>  <E0_kJmol>  (3) 
-1.75914e+06

>  <H298_kJmol>  (3) 
unknown

$$$$

     RDKit          3D

 11 10  0  0  0  0  0  0  0  0999 V2000
   -0.9580    1.1013   -2.2955 C   0  0  0  0  0  0  0  0  0  1  0  0
   -0.5129    0.5941   -1.2929 C   0  0  0  0  0  0  0  0  0  2  0  0
   -0.0301   -0.0160   -0.1357 C   0  0  0  0  0  3  0  0  0  3  0  0
   -0.6593   -1.2845    0.3661 C   0  0  0  0  0  0  0  0  0  4  0  0
    1.0691    0.5292    0.5269 C   0  0  0  0  0  0  0  0  0  5  0  0
    2.0168    0.9794    1.1266 C   0  0  0  0  0  0  0  0  0  6  0  0
   -1.3415    1.5561   -3.1769 H   0  0  0  0  0  0  0  0  0  7  0  0
   -1.7166   -1.3186    0.1054 H   0  0  0  0  0  0  0  0  0  8  0  0
   -0.1742   -2.1550   -0.0865 H   0  0  0  0  0  0  0  0  0  9  0  0
   -0.5505   -1.3663    1.4470 H   0  0  0  0  0  0  0  0  0 10  0  0
    2.8514    1.3842    1.6465 H   0  0  0  0  0  0  0  0  0 11  0  0
  1  7  1  0
  1  2  1  0
  2  3  1  0
  3  4  1  0
  3  5  1  0
  4  8  1  0
  4  9  1  0
  4 10  1  0
  5  6  1  0
  6 11  1  0
M  RAD  1   3   2
M  END
>  <rmg_smiles>  (4) 
[CH]C[C](C)C[CH]

>  <rmg_adjacency_list>  (4) 
multiplicity 2
1  C u0 p0 c0 {2,S} {7,S} {8,S} {9,S}
2  C u1 p0 c0 {1,S} {3,S} {4,S}
3  C u0 p1 c0 {2,S} {5,S}
4  C u0 p1 c0 {2,S} {6,S}
5  C u0 p1 c0 {3,S} {10,S}
6  C u0 p1 c0 {4,S} {11,S}
7  H u0 p0 c0 {1,S}
8  H u0 p0 c0 {1,S}
9  H u0 p0 c0 {1,S}
10 H u0 p0 c0 {5,S}
11 H u0 p0 c0 {6,S}


>  <multiplicity>  (4) 
2

>  <reaction>  (4) 
rxn_1411

>  <type>  (4) 
r1

>  <role_mapnums>  (4) 
{}

>  <role_mapidx>  (4) 
{}

>  <ordered_mapped_smiles>  (4) 
[CH2:1]([CH2:2][C:3]([C:4]([H:8])([H:9])[H:10])[CH2:5][CH2:6][H:11])[H:7]

>  <level_of_theory>  (4) 
wb97xd/def2tzvp

>  <lot_method>  (4) 
wb97xd

>  <lot_basis>  (4) 
def2tzvp

>  <spin_multiplicity>  (4) 
2.0

>  <optical_isomers>  (4) 
1.0

>  <modes>  (4) 
IdealGasTranslation(mass=(77.0391, 'amu')),         NonlinearRotor(             inertia = ([87.0558, 182.116, 266.037

>  <frequency_value>  (4) 
unknown

>  <frequency_units>  (4) 
unknown

>  <frequency_list>  (4) 
unknown

>  <arkane_path>  (4) 
/home/calvin/Dropbox/PersonalFolders/Calvin/HAb_Converged/rxn_1411/output/Species/rxn_1411_CtC[C][C]CtC/arkane/output.py

>  <path_exists>  (4) 
True

>  <E0_value>  (4) 
-607514.9395077111

>  <E0_units>  (4) 
kJ/mol

>  <thermo_class>  (4) 
NASA

>  <Cp0_value>  (4) 
33.257888

>  <Cp0_units>  (4) 
J/(mol*K)

>  <CpInf_value>  (4) 
257.748632

>  <CpInf_units>  (4) 
J/(mol*K)

>  <Tmin_value>  (4) 
10.0

>  <Tmin_units>  (4) 
K

>  <Tmax_value>  (4) 
3000.0

>  <Tmax_units>  (4) 
K

>  <polynomials>  (4) 
[{"name": "polynomial1", "class": "NASAPolynomial", "Tmin_value": 10.0, "Tmin_units": "K", "Tmax_value": 349.46173600351864, "Tmax_units": "K", "coeffs": [3.766270434672447, 0.01962559465306403, 0.00015807938455067891, -5.467775010691105e-07, 5.441205279863145e-10, -73067173.52596356, 12.15378396539221]}, {"name": "polynomial2", "class": "NASAPolynomial", "Tmin_value": 349.46173600351864, "Tmin_units": "K", "Tmax_value": 3000.0, "Tmax_units": "K", "coeffs": [4.503025724813377, 0.03655999643186892, -2.3493426390627616e-05, 7.3276612126098215e-09, -8.780851036309253e-13, -73067379.9175016, 7.157724853906072]}]

>  <H298_value>  (4) 
-145194.46313324326

>  <H298_units>  (4) 
kcal/mol

>  <S298_value>  (4) 
84.90850212036293

>  <S298_units>  (4) 
cal/(mol*K)

>  <Cp_T_value_list>  (4) 
[26.877916196478143, 31.4268111749371, 35.31413934636125, 38.6518919246016, 43.93182763476164, 47.731054497646795, 53.19426248781607, 56.08143371701518, 57.80726761952239]

>  <Cp_T_units>  (4) 
cal/(mol*K)

>  <T_list>  (4) 
[300.0, 400.0, 500.0, 600.0, 800.0, 1000.0, 1500.0, 2000.0, 2400.0]

>  <T_units>  (4) 
K

>  <yaml_path>  (4) 
/home/calvin/Dropbox/PersonalFolders/Calvin/HAb_Converged/rxn_1411/output/Species/rxn_1411_CtC[C][C]CtC/rxn_1411_CtCCCCtC.yml

>  <frequencies_cm1>  (4) 
[29.02674694764, 135.43068448103998, 196.03869691536002, 226.34270313252, 381.02154746552, 485.94221616979996, 534.67721098584, 574.6774004748399, 575.94779275904, 598.55390843248, 680.22296484324, 681.74056859896, 705.74754927768, 980.1110807529599, 1012.7155270523198, 1219.2332435659998, 1286.1314145534398, 1393.02290804456, 1464.30221566616, 1471.2447378246798, 2036.0405464240396, 2119.5911568124798, 3006.0502917712797, 3079.4034289595193, 3119.3280816099996, 3427.5321167422394, 3431.14415102056]

>  <ZPE_kJmol>  (4) 
208.4566530536649

>  <E_elec_kJmol>  (4) 
-607723.3961607647

>  <E0_minus_Eelec_plus_ZPE_kJmol>  (4) 
0.0

>  <rxn>  (4) 
rxn_1411

>  <species_type>  (4) 
p1

>  <species_folder>  (4) 
rxn_1411_CtC[C][C]CtC

>  <frequencies_cm1_list>  (4) 
[29.02674694764, 135.43068448103998, 196.03869691536002, 226.34270313252, 381.02154746552, 485.94221616979996, 534.67721098584, 574.6774004748399, 575.94779275904, 598.55390843248, 680.22296484324, 681.74056859896, 705.74754927768, 980.1110807529599, 1012.7155270523198, 1219.2332435659998, 1286.1314145534398, 1393.02290804456, 1464.30221566616, 1471.2447378246798, 2036.0405464240396, 2119.5911568124798, 3006.0502917712797, 3079.4034289595193, 3119.3280816099996, 3427.5321167422394, 3431.14415102056]

>  <E0_kJmol>  (4) 
-607515

>  <H298_kJmol>  (4) 
-607494

$$$$

     RDKit          3D

  5  4  0  0  0  0  0  0  0  0999 V2000
   -0.5642    0.0794    0.0348 C   0  0  0  0  0  3  0  0  0  1  0  0
    1.0624    0.5420    0.2853 S   0  0  0  0  0  0  0  0  0  2  0  0
   -1.3257    0.7631    0.3741 H   0  0  0  0  0  0  0  0  0  3  0  0
   -0.8236   -0.8519   -0.4401 H   0  0  0  0  0  0  0  0  0  4  0  0
    1.6511   -0.5325   -0.2540 H   0  0  0  0  0  0  0  0  0  5  0  0
  1  3  1  0
  1  2  1  0
  1  4  1  0
  2  5  1  0
M  RAD  1   1   2
M  END
>  <rmg_smiles>  (5) 
[CH2]S

>  <rmg_adjacency_list>  (5) 
multiplicity 2
1 S u0 p2 c0 {2,S} {5,S}
2 C u1 p0 c0 {1,S} {3,S} {4,S}
3 H u0 p0 c0 {2,S}
4 H u0 p0 c0 {2,S}
5 H u0 p0 c0 {1,S}


>  <multiplicity>  (5) 
2

>  <reaction>  (5) 
rxn_1411

>  <type>  (5) 
r2

>  <role_mapnums>  (5) 
{}

>  <role_mapidx>  (5) 
{}

>  <ordered_mapped_smiles>  (5) 
[C:1]([S:2][H:5])([H:3])[H:4]

>  <level_of_theory>  (5) 
wb97xd/def2tzvp

>  <lot_method>  (5) 
wb97xd

>  <lot_basis>  (5) 
def2tzvp

>  <spin_multiplicity>  (5) 
2.0

>  <optical_isomers>  (5) 
1.0

>  <modes>  (5) 
IdealGasTranslation(mass=(46.9956, 'amu')),         NonlinearRotor(             inertia = ([3.47508, 32.1188, 35.5939

>  <frequency_value>  (5) 
unknown

>  <frequency_units>  (5) 
unknown

>  <frequency_list>  (5) 
unknown

>  <arkane_path>  (5) 
/home/calvin/Dropbox/PersonalFolders/Calvin/HAb_Converged/rxn_1411/output/Species/rxn_1411_[CH2]S/arkane/output.py

>  <path_exists>  (5) 
True

>  <E0_value>  (5) 
-1150024.3332710424

>  <E0_units>  (5) 
kJ/mol

>  <thermo_class>  (5) 
NASA

>  <Cp0_value>  (5) 
33.257888

>  <Cp0_units>  (5) 
J/(mol*K)

>  <CpInf_value>  (5) 
108.088136

>  <CpInf_units>  (5) 
J/(mol*K)

>  <Tmin_value>  (5) 
10.0

>  <Tmin_units>  (5) 
K

>  <Tmax_value>  (5) 
3000.0

>  <Tmax_units>  (5) 
K

>  <polynomials>  (5) 
[{"name": "polynomial1", "class": "NASAPolynomial", "Tmin_value": 10.0, "Tmin_units": "K", "Tmax_value": 228.7632631011955, "Tmax_units": "K", "coeffs": [3.952412159768893, 0.004869189743453995, 7.700507410130638e-05, -3.7784535832034173e-07, 5.662383077803353e-10, -138315979.8249789, 6.828268654504248]}, {"name": "polynomial2", "class": "NASAPolynomial", "Tmin_value": 228.7632631011955, "Tmin_units": "K", "Tmax_value": 3000.0, "Tmax_units": "K", "coeffs": [4.0647189913044315, 0.010177206447780005, -5.480339108667681e-06, 1.4876276440090965e-09, -1.6083284592339647e-13, -138316003.99077362, 6.036236642771031]}]

>  <H298_value>  (5) 
-274859.2476351292

>  <H298_units>  (5) 
kcal/mol

>  <S298_value>  (5) 
63.58185598753384

>  <S298_units>  (5) 
cal/(mol*K)

>  <Cp_T_value_list>  (5) 
[13.241777557438835, 14.605646175289959, 15.816452446168032, 16.888481942792666, 18.669517607236212, 20.047696562682138, 22.269217674285446, 23.499652986162165, 24.148886967222168]

>  <Cp_T_units>  (5) 
cal/(mol*K)

>  <T_list>  (5) 
[300.0, 400.0, 500.0, 600.0, 800.0, 1000.0, 1500.0, 2000.0, 2400.0]

>  <T_units>  (5) 
K

>  <yaml_path>  (5) 
/home/calvin/Dropbox/PersonalFolders/Calvin/HAb_Converged/rxn_1411/output/Species/rxn_1411_[CH2]S/rxn_1411_CH2S.yml

>  <frequencies_cm1>  (5) 
[112.26147601135997, 339.84023650148, 784.39513214764, 853.62121115856, 1068.3930440268798, 1401.38689616432, 2708.6686255033596, 3159.5548816145597, 3285.6189981191196]

>  <ZPE_kJmol>  (5) 
82.02640747232539

>  <E_elec_kJmol>  (5) 
-1150106.3596785148

>  <E0_minus_Eelec_plus_ZPE_kJmol>  (5) 
0.0

>  <rxn>  (5) 
rxn_1411

>  <species_type>  (5) 
r1

>  <species_folder>  (5) 
rxn_1411_[CH2]S

>  <frequencies_cm1_list>  (5) 
[112.26147601135997, 339.84023650148, 784.39513214764, 853.62121115856, 1068.3930440268798, 1401.38689616432, 2708.6686255033596, 3159.5548816145597, 3285.6189981191196]

>  <E0_kJmol>  (5) 
-1.15002e+06

>  <H298_kJmol>  (5) 
-1.15001e+06

$$$$
