
     RDKit          3D

 11 10  0  0  0  0  0  0  0  0999 V2000
   -0.2861   -0.8492   -0.9425 C   0  0  0  0  0  0  0  0  0  1  0  0
   -0.0185   -0.3159    0.4400 C   0  0  0  0  0  0  0  0  0  2  0  0
    0.2764    1.1586    0.5254 C   0  0  0  0  0  0  0  0  0  3  0  0
    0.5357   -0.6061   -1.6209 H   0  0  0  0  0  0  0  0  0  4  0  0
   -1.1994   -0.4190   -1.3695 H   0  0  0  0  0  0  0  0  0  5  0  0
   -0.4060   -1.9342   -0.9362 H   0  0  0  0  0  0  0  0  0  6  0  0
    0.8807   -0.8384    0.7681 H   0  0  0  0  0  0  0  0  0  7  0  0
   -0.7501   -0.6488    1.1771 H   0  0  0  0  0  0  0  0  0  8  0  0
   -0.5692    1.7604    0.1736 H   0  0  0  0  0  0  0  0  0  9  0  0
    0.4822    1.4723    1.5523 H   0  0  0  0  0  0  0  0  0 10  0  0
    1.1335    1.4252   -0.1013 H   0  0  0  0  0  0  0  0  0 11  0  0
  1  5  1  0
  1  4  1  0
  1  6  1  0
  1  2  1  0
  2  7  1  0
  2  8  1  0
  2  3  1  0
  3 11  1  0
  3  9  1  0
  3 10  1  0
M  END
>  <rmg_smiles>  (1) 
CCC

>  <rmg_adjacency_list>  (1) 
1  C u0 p0 c0 {2,S} {4,S} {5,S} {6,S}
2  C u0 p0 c0 {1,S} {3,S} {7,S} {8,S}
3  C u0 p0 c0 {2,S} {9,S} {10,S} {11,S}
4  H u0 p0 c0 {1,S}
5  H u0 p0 c0 {1,S}
6  H u0 p0 c0 {1,S}
7  H u0 p0 c0 {2,S}
8  H u0 p0 c0 {2,S}
9  H u0 p0 c0 {3,S}
10 H u0 p0 c0 {3,S}
11 H u0 p0 c0 {3,S}


>  <multiplicity>  (1) 
1

>  <reaction>  (1) 
rxn_10

>  <type>  (1) 
r1h

>  <role_mapnums>  (1) 
{"r1h_a": 2, "r1h_h": 7}

>  <role_mapidx>  (1) 
{"r1h_a": 1, "r1h_h": 6}

>  <ordered_mapped_smiles>  (1) 
[C:1]([C:2]([C:3]([H:9])([H:10])[H:11])([H:7])[H:8])([H:4])([H:5])[H:6]

>  <mol_properties>  (1) 
{"1": {"label": "donator", "atom_type": "Cs"}, "6": {"label": "d_hydrogen", "atom_type": "H0"}}

>  <level_of_theory>  (1) 
wb97xd/def2tzvp

>  <lot_method>  (1) 
wb97xd

>  <lot_basis>  (1) 
def2tzvp

>  <spin_multiplicity>  (1) 
1.0

>  <optical_isomers>  (1) 
1.0

>  <modes>  (1) 
IdealGasTranslation(mass=(44.0626, 'amu')),         NonlinearRotor(             inertia = ([17.0625, 59.5808, 67.2958

>  <frequency_value>  (1) 
unknown

>  <frequency_units>  (1) 
unknown

>  <frequency_list>  (1) 
unknown

>  <arkane_path>  (1) 
/home/calvin/Dropbox/PersonalFolders/Calvin/HAb_Converged/rxn_10/output/Species/rxn_10_CCC/arkane/output.py

>  <path_exists>  (1) 
True

>  <E0_value>  (1) 
-312559.7664121831

>  <E0_units>  (1) 
kJ/mol

>  <thermo_class>  (1) 
NASA

>  <Cp0_value>  (1) 
33.257888

>  <Cp0_units>  (1) 
J/(mol*K)

>  <CpInf_value>  (1) 
257.748632

>  <CpInf_units>  (1) 
J/(mol*K)

>  <Tmin_value>  (1) 
10.0

>  <Tmin_units>  (1) 
K

>  <Tmax_value>  (1) 
3000.0

>  <Tmax_units>  (1) 
K

>  <polynomials>  (1) 
[{"name": "polynomial1", "class": "NASAPolynomial", "Tmin_value": 10.0, "Tmin_units": "K", "Tmax_value": 577.4310568776192, "Tmax_units": "K", "coeffs": [3.9747269033817734, 0.0011347804367172543, 7.533889062875609e-05, -1.0470498139729524e-07, 4.699078499553375e-11, -37592254.8773633, 6.773591698117238]}, {"name": "polynomial2", "class": "NASAPolynomial", "Tmin_value": 577.4310568776192, "Tmin_units": "K", "Tmax_value": 3000.0, "Tmax_units": "K", "coeffs": [-1.3041055241664254, 0.03770227026025092, -1.9652378532074013e-05, 4.9654907444475164e-09, -4.909963524622396e-13, -37591645.24138486, 29.34198158192454]}]

>  <H298_value>  (1) 
-74700.16503809701

>  <H298_units>  (1) 
kcal/mol

>  <S298_value>  (1) 
64.12787959081382

>  <S298_units>  (1) 
cal/(mol*K)

>  <Cp_T_value_list>  (1) 
[17.187849905588877, 21.82888089347945, 26.282080105357306, 30.30750880664003, 37.00458219733553, 42.16907955247373, 50.28489012355217, 54.3677942411287, 56.31048938168173]

>  <Cp_T_units>  (1) 
cal/(mol*K)

>  <T_list>  (1) 
[300.0, 400.0, 500.0, 600.0, 800.0, 1000.0, 1500.0, 2000.0, 2400.0]

>  <T_units>  (1) 
K

>  <yaml_path>  (1) 
/home/calvin/Dropbox/PersonalFolders/Calvin/HAb_Converged/rxn_10/output/Species/rxn_10_CCC/rxn_10_CCC.yml

>  <frequencies_cm1>  (1) 
[219.27657523823999, 274.69314677064, 369.88329727648, 749.53831466332, 878.21188558948, 908.3991530561998, 929.9271520343999, 1065.0968910732797, 1172.11199030016, 1205.9799618984, 1309.06714552224, 1359.46395078572, 1398.3379546822398, 1410.31397708032, 1476.4087107853202, 1480.39842925624, 1483.440503753, 1494.09119798432, 1498.5410044716796, 3005.39792816588, 3007.40308787932, 3010.35589156692, 3037.8787687294803, 3071.65746951856, 3081.94421352792, 3083.3450785332, 3086.08500567588]

>  <ZPE_kJmol>  (1) 
269.5620865819488

>  <E_elec_kJmol>  (1) 
-312829.32849876507

>  <E0_minus_Eelec_plus_ZPE_kJmol>  (1) 
0.0

>  <rxn>  (1) 
rxn_10

>  <species_type>  (1) 
r0

>  <species_folder>  (1) 
rxn_10_CCC

>  <frequencies_cm1_list>  (1) 
[219.27657523823999, 274.69314677064, 369.88329727648, 749.53831466332, 878.21188558948, 908.3991530561998, 929.9271520343999, 1065.0968910732797, 1172.11199030016, 1205.9799618984, 1309.06714552224, 1359.46395078572, 1398.3379546822398, 1410.31397708032, 1476.4087107853202, 1480.39842925624, 1483.440503753, 1494.09119798432, 1498.5410044716796, 3005.39792816588, 3007.40308787932, 3010.35589156692, 3037.8787687294803, 3071.65746951856, 3081.94421352792, 3083.3450785332, 3086.08500567588]

>  <E0_kJmol>  (1) 
-312560

>  <H298_kJmol>  (1) 
-312545

$$$$

     RDKit          3D

 15 14  0  0  0  0  0  0  0  0999 V2000
   -1.2890    0.2741   -0.5010 H   0  0  0  0  0  0  0  0  0  1  0  0
    0.4016   -0.4814   -1.4642 C   0  0  0  0  0  0  0  0  0  2  0  0
   -0.4234   -0.3217   -0.2114 C   0  0  0  0  0  0  0  0  0  3  0  0
   -1.0368   -1.6048    0.2947 C   0  0  0  0  0  0  0  0  0  4  0  0
    0.2502    0.4721    0.8852 C   0  0  0  0  0  0  0  0  0  5  0  0
    0.7642    1.7198    0.4669 O   0  0  0  0  0  0  0  0  0  6  0  0
    1.2758   -1.1166   -1.2745 H   0  0  0  0  0  0  0  0  0  7  0  0
    0.7690    0.4800   -1.8236 H   0  0  0  0  0  0  0  0  0  8  0  0
   -0.1808   -0.9514   -2.2593 H   0  0  0  0  0  0  0  0  0  9  0  0
   -0.2643   -2.3149    0.6128 H   0  0  0  0  0  0  0  0  0 10  0  0
   -1.6942   -1.4257    1.1489 H   0  0  0  0  0  0  0  0  0 11  0  0
   -1.6246   -2.0916   -0.4864 H   0  0  0  0  0  0  0  0  0 12  0  0
    1.1133   -0.0849    1.2694 H   0  0  0  0  0  0  0  0  0 13  0  0
   -0.4480    0.5987    1.7243 H   0  0  0  0  0  0  0  0  0 14  0  0
    0.0342    2.2534    0.1472 H   0  0  0  0  0  0  0  0  0 15  0  0
  1  3  1  0
  2  9  1  0
  2  8  1  0
  2  7  1  0
  2  3  1  0
  3  4  1  0
  3  5  1  0
  4 12  1  0
  4 10  1  0
  4 11  1  0
  5  6  1  0
  5 14  1  0
  5 13  1  0
  6 15  1  0
M  END
>  <rmg_smiles>  (2) 
CC(C)CO

>  <rmg_adjacency_list>  (2) 
1  O u0 p2 c0 {3,S} {15,S}
2  C u0 p0 c0 {3,S} {4,S} {5,S} {6,S}
3  C u0 p0 c0 {1,S} {2,S} {7,S} {8,S}
4  C u0 p0 c0 {2,S} {9,S} {10,S} {11,S}
5  C u0 p0 c0 {2,S} {12,S} {13,S} {14,S}
6  H u0 p0 c0 {2,S}
7  H u0 p0 c0 {3,S}
8  H u0 p0 c0 {3,S}
9  H u0 p0 c0 {4,S}
10 H u0 p0 c0 {4,S}
11 H u0 p0 c0 {4,S}
12 H u0 p0 c0 {5,S}
13 H u0 p0 c0 {5,S}
14 H u0 p0 c0 {5,S}
15 H u0 p0 c0 {1,S}


>  <multiplicity>  (2) 
1

>  <reaction>  (2) 
rxn_10

>  <type>  (2) 
r2h

>  <role_mapnums>  (2) 
{"r2h_a": 3, "r2h_h": 1}

>  <role_mapidx>  (2) 
{"r2h_a": 2, "r2h_h": 0}

>  <ordered_mapped_smiles>  (2) 
[H:1][C:3]([C:2]([H:7])([H:8])[H:9])([C:4]([H:10])([H:11])[H:12])[C:5]([O:6][H:15])([H:13])[H:14]

>  <mol_properties>  (2) 
{"0": {"label": "a_hydrogen", "atom_type": "H0"}, "2": {"label": "acceptor", "atom_type": "Cs"}}

>  <level_of_theory>  (2) 
wb97xd/def2tzvp

>  <lot_method>  (2) 
wb97xd

>  <lot_basis>  (2) 
def2tzvp

>  <spin_multiplicity>  (2) 
1.0

>  <optical_isomers>  (2) 
2.0

>  <modes>  (2) 
IdealGasTranslation(mass=(74.0732, 'amu')),         NonlinearRotor(             inertia = ([66.603, 143.905, 189.515

>  <frequency_value>  (2) 
unknown

>  <frequency_units>  (2) 
unknown

>  <frequency_list>  (2) 
unknown

>  <arkane_path>  (2) 
/home/calvin/Dropbox/PersonalFolders/Calvin/HAb_Converged/rxn_10/output/Species/rxn_10_CC[C]CO/arkane/output.py

>  <path_exists>  (2) 
True

>  <E0_value>  (2) 
-613201.798563127

>  <E0_units>  (2) 
kJ/mol

>  <thermo_class>  (2) 
NASA

>  <Cp0_value>  (2) 
33.257888

>  <Cp0_units>  (2) 
J/(mol*K)

>  <CpInf_value>  (2) 
357.522296

>  <CpInf_units>  (2) 
J/(mol*K)

>  <Tmin_value>  (2) 
10.0

>  <Tmin_units>  (2) 
K

>  <Tmax_value>  (2) 
3000.0

>  <Tmax_units>  (2) 
K

>  <polynomials>  (2) 
[{"name": "polynomial1", "class": "NASAPolynomial", "Tmin_value": 10.0, "Tmin_units": "K", "Tmax_value": 575.0651176416371, "Tmax_units": "K", "coeffs": [3.712805799436365, 0.02341794423636385, 4.945520881208784e-05, -8.422411516035852e-08, 3.9345456013228885e-11, -73751136.90729754, 10.481383297442903]}, {"name": "polynomial2", "class": "NASAPolynomial", "Tmin_value": 575.0651176416371, "Tmin_units": "K", "Tmax_value": 3000.0, "Tmax_units": "K", "coeffs": [-0.6878246335024606, 0.05402765028160735, -3.0387394291557736e-05, 8.336812494957577e-09, -8.939885093345157e-13, -73750630.77899487, 29.27712262817248]}]

>  <H298_value>  (2) 
-146553.90003462895

>  <H298_units>  (2) 
kcal/mol

>  <S298_value>  (2) 
79.77174717591569

>  <S298_units>  (2) 
cal/(mol*K)

>  <Cp_T_value_list>  (2) 
[26.298303224673802, 33.0069380139673, 39.18106842386457, 44.660864775466386, 53.63198804085297, 60.401649014178936, 70.73051971901154, 75.92834368294982, 78.56390633588433]

>  <Cp_T_units>  (2) 
cal/(mol*K)

>  <T_list>  (2) 
[300.0, 400.0, 500.0, 600.0, 800.0, 1000.0, 1500.0, 2000.0, 2400.0]

>  <T_units>  (2) 
K

>  <yaml_path>  (2) 
/home/calvin/Dropbox/PersonalFolders/Calvin/HAb_Converged/rxn_10/output/Species/rxn_10_CC[C]CO/rxn_10_CCCCO.yml

>  <frequencies_cm1>  (2) 
[130.82980431664, 216.90746530284, 234.24660323583998, 266.73431078476, 284.49233482228, 352.62656316731994, 430.94453074191995, 496.53797451855996, 825.04768524204, 903.1871111983199, 929.7966793133199, 953.3298380049599, 972.0423730019598, 1079.3527525975999, 1116.63361589988, 1149.4372047735199, 1195.51467627072, 1246.91406139092, 1321.76420137892, 1364.46311609868, 1379.29580438988, 1394.3345022406797, 1400.81006939744, 1419.04878240736, 1474.01899989396, 1475.3855299726397, 1489.2293723777598, 1494.17360180816, 1499.15903315048, 2968.2269366287196, 2974.66816885888, 3005.13698272372, 3008.8176868552396, 3047.7397596489996, 3073.490954599, 3077.9132931450795, 3086.88844295832, 3102.6138393411197, 3839.6611077073594]

>  <ZPE_kJmol>  (2) 
356.9742425885658

>  <E_elec_kJmol>  (2) 
-613558.7728057157

>  <E0_minus_Eelec_plus_ZPE_kJmol>  (2) 
0.0

>  <rxn>  (2) 
rxn_10

>  <species_type>  (2) 
p1

>  <species_folder>  (2) 
rxn_10_CC[C]CO

>  <frequencies_cm1_list>  (2) 
[130.82980431664, 216.90746530284, 234.24660323583998, 266.73431078476, 284.49233482228, 352.62656316731994, 430.94453074191995, 496.53797451855996, 825.04768524204, 903.1871111983199, 929.7966793133199, 953.3298380049599, 972.0423730019598, 1079.3527525975999, 1116.63361589988, 1149.4372047735199, 1195.51467627072, 1246.91406139092, 1321.76420137892, 1364.46311609868, 1379.29580438988, 1394.3345022406797, 1400.81006939744, 1419.04878240736, 1474.01899989396, 1475.3855299726397, 1489.2293723777598, 1494.17360180816, 1499.15903315048, 2968.2269366287196, 2974.66816885888, 3005.13698272372, 3008.8176868552396, 3047.7397596489996, 3073.490954599, 3077.9132931450795, 3086.88844295832, 3102.6138393411197, 3839.6611077073594]

>  <E0_kJmol>  (2) 
-613202

>  <H298_kJmol>  (2) 
-613182

$$$$

     RDKit          3D

 25 23  0  0  0  0  0  0  0  0999 V2000
   -1.9147    0.0189   -1.7690 C   0  0  0  0  0  0  0  0  0  1  0  0
   -1.6471    0.5522   -0.3866 C   0  0  0  0  0  3  0  0  0  2  0  0
   -1.3522    2.0267   -0.3012 C   0  0  0  0  0  0  0  0  0  3  0  0
   -1.0928    0.2620   -2.4475 H   0  0  0  0  0  0  0  0  0  4  0  0
   -2.8279    0.4491   -2.1961 H   0  0  0  0  0  0  0  0  0  5  0  0
   -2.0346   -1.0661   -1.7628 H   0  0  0  0  0  0  0  0  0  6  0  0
   -0.5185   -0.1035    0.0252 H   0  0  0  0  0  0  0  0  0  7  0  0
   -2.3786    0.2193    0.3505 H   0  0  0  0  0  0  0  0  0  8  0  0
   -2.1978    2.6286   -0.6529 H   0  0  0  0  0  0  0  0  0  9  0  0
   -1.1463    2.3404    0.7257 H   0  0  0  0  0  0  0  0  0 10  0  0
   -0.4950    2.2933   -0.9279 H   0  0  0  0  0  0  0  0  0 11  0  0
    1.3660   -0.9924   -0.8731 C   0  0  0  0  0  0  0  0  0 12  0  0
    0.5410   -0.8327    0.3797 C   0  0  0  0  0  0  0  0  0 13  0  0
   -0.0724   -2.1158    0.8858 C   0  0  0  0  0  0  0  0  0 14  0  0
    1.2146   -0.0389    1.4764 C   0  0  0  0  0  0  0  0  0 15  0  0
    1.7286    1.2087    1.0580 O   0  0  0  0  0  0  0  0  0 16  0  0
    2.2402   -1.6277   -0.6834 H   0  0  0  0  0  0  0  0  0 17  0  0
    1.7334   -0.0310   -1.2325 H   0  0  0  0  0  0  0  0  0 18  0  0
    0.7836   -1.4624   -1.6682 H   0  0  0  0  0  0  0  0  0 19  0  0
    0.7001   -2.8259    1.2039 H   0  0  0  0  0  0  0  0  0 20  0  0
   -0.7298   -1.9368    1.7400 H   0  0  0  0  0  0  0  0  0 21  0  0
   -0.6602   -2.6026    0.1047 H   0  0  0  0  0  0  0  0  0 22  0  0
    2.0777   -0.5960    1.8605 H   0  0  0  0  0  0  0  0  0 23  0  0
    0.5164    0.0876    2.3155 H   0  0  0  0  0  0  0  0  0 24  0  0
    0.9986    1.7423    0.7383 H   0  0  0  0  0  0  0  0  0 25  0  0
  1  4  1  0
  1  5  1  0
  1  6  1  0
  1  2  1  0
  2  8  1  0
  2  3  1  0
  3  9  1  0
  3 11  1  0
  3 10  1  0
  7 13  1  0
 12 19  1  0
 12 17  1  0
 12 18  1  0
 12 13  1  0
 13 15  1  0
 13 14  1  0
 14 20  1  0
 14 22  1  0
 14 21  1  0
 15 16  1  0
 15 23  1  0
 15 24  1  0
 16 25  1  0
M  RAD  1   2   2
M  END
>  <rmg_smiles>  (3) 
CC(C)CO.C[CH]C

>  <rmg_adjacency_list>  (3) 
multiplicity 2
1  O u0 p2 c0 {3,S} {25,S}
2  C u0 p0 c0 {3,S} {4,S} {5,S} {9,S}
3  C u0 p0 c0 {1,S} {2,S} {10,S} {11,S}
4  C u0 p0 c0 {2,S} {12,S} {13,S} {14,S}
5  C u0 p0 c0 {2,S} {15,S} {16,S} {17,S}
6  C u0 p0 c0 {8,S} {18,S} {19,S} {20,S}
7  C u0 p0 c0 {8,S} {21,S} {22,S} {23,S}
8  C u1 p0 c0 {6,S} {7,S} {24,S}
9  H u0 p0 c0 {2,S}
10 H u0 p0 c0 {3,S}
11 H u0 p0 c0 {3,S}
12 H u0 p0 c0 {4,S}
13 H u0 p0 c0 {4,S}
14 H u0 p0 c0 {4,S}
15 H u0 p0 c0 {5,S}
16 H u0 p0 c0 {5,S}
17 H u0 p0 c0 {5,S}
18 H u0 p0 c0 {6,S}
19 H u0 p0 c0 {6,S}
20 H u0 p0 c0 {6,S}
21 H u0 p0 c0 {7,S}
22 H u0 p0 c0 {7,S}
23 H u0 p0 c0 {7,S}
24 H u0 p0 c0 {8,S}
25 H u0 p0 c0 {1,S}


>  <multiplicity>  (3) 
2

>  <reaction>  (3) 
rxn_10

>  <type>  (3) 
ts

>  <role_mapnums>  (3) 
{"*2": 7, "*1": 2, "*3": 13, "*0": 15, "*4": 1}

>  <role_mapidx>  (3) 
{"*2": 6, "*1": 1, "*3": 12, "*0": 14, "*4": 0}

>  <ordered_mapped_smiles>  (3) 
[C:1]([C:2]([C:3]([H:9])([H:10])[H:11])[H:8])([H:4])([H:5])[H:6].[H:7][C:13]([C:12]([H:17])([H:18])[H:19])([C:14]([H:20])([H:21])[H:22])[C:15]([O:16][H:25])([H:23])[H:24]

>  <mol_properties>  (3) 
{"0": {"label": "*4", "atom_type": "Cs"}, "1": {"label": "*1", "atom_type": "Cs"}, "6": {"label": "*2", "atom_type": "H0"}, "12": {"label": "*3", "atom_type": "Cs"}, "14": {"label": "*0", "atom_type": "Cs"}}

>  <level_of_theory>  (3) 
wb97xd/def2tzvp

>  <lot_method>  (3) 
wb97xd

>  <lot_basis>  (3) 
def2tzvp

>  <spin_multiplicity>  (3) 
2.0

>  <optical_isomers>  (3) 
2.0

>  <modes>  (3) 
IdealGasTranslation(mass=(117.128, 'amu')),         NonlinearRotor(             inertia = ([251.816, 384.602, 497.67

>  <frequency_value>  (3) 
-1715.14

>  <frequency_units>  (3) 
cm^-1

>  <frequency_list>  (3) 
unknown

>  <arkane_path>  (3) 
/home/calvin/Dropbox/PersonalFolders/Calvin/HAb_Converged/rxn_10/output/rxns/TS0/arkane/output.py

>  <path_exists>  (3) 
True

>  <E0_value>  (3) 
-924002.0

>  <E0_units>  (3) 
kJ/mol

>  <thermo_class>  (3) 
unknown

>  <Cp0_value>  (3) 
unknown

>  <Cp0_units>  (3) 
unknown

>  <CpInf_value>  (3) 
unknown

>  <CpInf_units>  (3) 
unknown

>  <Tmin_value>  (3) 
unknown

>  <Tmin_units>  (3) 
unknown

>  <Tmax_value>  (3) 
unknown

>  <Tmax_units>  (3) 
unknown

>  <polynomials>  (3) 
unknown

>  <H298_value>  (3) 
unknown

>  <H298_units>  (3) 
unknown

>  <S298_value>  (3) 
unknown

>  <S298_units>  (3) 
unknown

>  <Cp_T_value_list>  (3) 
unknown

>  <Cp_T_units>  (3) 
unknown

>  <T_list>  (3) 
unknown

>  <T_units>  (3) 
unknown

>  <yaml_path>  (3) 
unknown

>  <frequencies_cm1>  (3) 
unknown

>  <ZPE_kJmol>  (3) 
unknown

>  <E_elec_kJmol>  (3) 
unknown

>  <E0_minus_Eelec_plus_ZPE_kJmol>  (3) 
unknown

>  <rxn>  (3) 
unknown

>  <species_type>  (3) 
unknown

>  <species_folder>  (3) 
unknown

>  <frequencies_cm1_list>  (3) 
[]

>  <ts_imag_freq_cm1>  (3) 
-1735.9757

>  <ts_freq_out_path>  (3) 
/home/calvin/Dropbox/PersonalFolders/Calvin/HAb_Converged/rxn_10/output/rxns/TS0/geometry/freq.out

>  <E0_kJmol>  (3) 
-924002

>  <H298_kJmol>  (3) 
unknown

$$$$

     RDKit          3D

 10  9  0  0  0  0  0  0  0  0999 V2000
    1.2930    0.1441    0.3288 C   0  0  0  0  0  0  0  0  0  1  0  0
   -0.0374   -0.1647    0.9100 C   0  0  0  0  0  3  0  0  0  2  0  0
   -1.2664    0.4569    0.3567 C   0  0  0  0  0  0  0  0  0  3  0  0
    1.4384    1.2242    0.2174 H   0  0  0  0  0  0  0  0  0  4  0  0
    2.1077   -0.2477    0.9385 H   0  0  0  0  0  0  0  0  0  5  0  0
    1.4057   -0.2836   -0.6789 H   0  0  0  0  0  0  0  0  0  6  0  0
   -0.1309   -0.9912    1.6030 H   0  0  0  0  0  0  0  0  0  7  0  0
   -1.5005    0.0716   -0.6471 H   0  0  0  0  0  0  0  0  0  8  0  0
   -2.1382    0.2713    0.9849 H   0  0  0  0  0  0  0  0  0  9  0  0
   -1.1497    1.5406    0.2456 H   0  0  0  0  0  0  0  0  0 10  0  0
  1  5  1  0
  1  4  1  0
  1  6  1  0
  1  2  1  0
  2  7  1  0
  2  3  1  0
  3  9  1  0
  3 10  1  0
  3  8  1  0
M  RAD  1   2   2
M  END
>  <rmg_smiles>  (4) 
C[CH]C

>  <rmg_adjacency_list>  (4) 
multiplicity 2
1  C u0 p0 c0 {3,S} {4,S} {5,S} {6,S}
2  C u0 p0 c0 {3,S} {7,S} {8,S} {9,S}
3  C u1 p0 c0 {1,S} {2,S} {10,S}
4  H u0 p0 c0 {1,S}
5  H u0 p0 c0 {1,S}
6  H u0 p0 c0 {1,S}
7  H u0 p0 c0 {2,S}
8  H u0 p0 c0 {2,S}
9  H u0 p0 c0 {2,S}
10 H u0 p0 c0 {3,S}


>  <multiplicity>  (4) 
2

>  <reaction>  (4) 
rxn_10

>  <type>  (4) 
r1

>  <role_mapnums>  (4) 
{}

>  <role_mapidx>  (4) 
{}

>  <ordered_mapped_smiles>  (4) 
[C:1]([C:2]([C:3]([H:8])([H:9])[H:10])[H:7])([H:4])([H:5])[H:6]

>  <level_of_theory>  (4) 
wb97xd/def2tzvp

>  <lot_method>  (4) 
wb97xd

>  <lot_basis>  (4) 
def2tzvp

>  <spin_multiplicity>  (4) 
2.0

>  <optical_isomers>  (4) 
1.0

>  <modes>  (4) 
IdealGasTranslation(mass=(43.0548, 'amu')),         NonlinearRotor(             inertia = ([13.4945, 59.9891, 67.2321

>  <frequency_value>  (4) 
unknown

>  <frequency_units>  (4) 
unknown

>  <frequency_list>  (4) 
unknown

>  <arkane_path>  (4) 
/home/calvin/Dropbox/PersonalFolders/Calvin/HAb_Converged/rxn_10/output/Species/rxn_10_C[CH]C/arkane/output.py

>  <path_exists>  (4) 
True

>  <E0_value>  (4) 
-310845.2184059608

>  <E0_units>  (4) 
kJ/mol

>  <thermo_class>  (4) 
NASA

>  <Cp0_value>  (4) 
33.257888

>  <Cp0_units>  (4) 
J/(mol*K)

>  <CpInf_value>  (4) 
232.805216

>  <CpInf_units>  (4) 
J/(mol*K)

>  <Tmin_value>  (4) 
10.0

>  <Tmin_units>  (4) 
K

>  <Tmax_value>  (4) 
3000.0

>  <Tmax_units>  (4) 
K

>  <polynomials>  (4) 
[{"name": "polynomial1", "class": "NASAPolynomial", "Tmin_value": 10.0, "Tmin_units": "K", "Tmax_value": 447.8128792552529, "Tmax_units": "K", "coeffs": [3.752012635379411, 0.026641862649172638, -7.746058003612534e-05, 2.1389576411497674e-07, -1.844633782932518e-10, -37386043.96321184, 8.05688024181999]}, {"name": "polynomial2", "class": "NASAPolynomial", "Tmin_value": 447.8128792552529, "Tmin_units": "K", "Tmax_value": 3000.0, "Tmax_units": "K", "coeffs": [0.3456331898922003, 0.0329396549778818, -1.7732866616299737e-05, 4.6556958792141865e-09, -4.78902486015414e-13, -37385496.94179907, 24.455396824893292]}]

>  <H298_value>  (4) 
-74289.9090718394

>  <H298_units>  (4) 
kcal/mol

>  <S298_value>  (4) 
70.4573159165227

>  <S298_units>  (4) 
cal/(mol*K)

>  <Cp_T_value_list>  (4) 
[17.99246870913784, 21.823762730245537, 25.70307457878351, 29.150647616604275, 34.84741547055869, 39.20602419681299, 45.99328941377369, 49.43494906715023, 51.132806782188474]

>  <Cp_T_units>  (4) 
cal/(mol*K)

>  <T_list>  (4) 
[300.0, 400.0, 500.0, 600.0, 800.0, 1000.0, 1500.0, 2000.0, 2400.0]

>  <T_units>  (4) 
K

>  <yaml_path>  (4) 
/home/calvin/Dropbox/PersonalFolders/Calvin/HAb_Converged/rxn_10/output/Species/rxn_10_C[CH]C/rxn_10_CCHC.yml

>  <frequencies_cm1>  (4) 
[105.22281605836, 112.68722910119999, 345.60850417028, 388.99411742204, 888.91751570336, 934.4593623456, 940.8456586931999, 1017.3988110405598, 1144.8637925504, 1173.26564383392, 1356.01672415508, 1400.16457277736, 1405.7130969159198, 1454.7502390860398, 1462.58546933616, 1465.42840125864, 1476.53231652108, 2938.8637074004, 2942.7366871208797, 3008.0211165581195, 3008.4194017066793, 3085.04122390724, 3085.8858631016, 3161.75918390228]

>  <ZPE_kJmol>  (4) 
229.10994966023972

>  <E_elec_kJmol>  (4) 
-311074.328355621

>  <E0_minus_Eelec_plus_ZPE_kJmol>  (4) 
0.0

>  <rxn>  (4) 
rxn_10

>  <species_type>  (4) 
p0

>  <species_folder>  (4) 
rxn_10_C[CH]C

>  <frequencies_cm1_list>  (4) 
[105.22281605836, 112.68722910119999, 345.60850417028, 388.99411742204, 888.91751570336, 934.4593623456, 940.8456586931999, 1017.3988110405598, 1144.8637925504, 1173.26564383392, 1356.01672415508, 1400.16457277736, 1405.7130969159198, 1454.7502390860398, 1462.58546933616, 1465.42840125864, 1476.53231652108, 2938.8637074004, 2942.7366871208797, 3008.0211165581195, 3008.4194017066793, 3085.04122390724, 3085.8858631016, 3161.75918390228]

>  <E0_kJmol>  (4) 
-310845

>  <H298_kJmol>  (4) 
-310829

$$$$

     RDKit          3D

 14 13  0  0  0  0  0  0  0  0999 V2000
   -0.0263    1.3824   -0.7006 C   0  0  0  0  0  0  0  0  0  1  0  0
   -0.2039   -0.0453   -0.3213 C   0  0  0  0  0  3  0  0  0  2  0  0
   -1.1121   -0.3782    0.8104 C   0  0  0  0  0  0  0  0  0  3  0  0
    0.8313   -1.0381   -0.7322 C   0  0  0  0  0  0  0  0  0  4  0  0
    0.3307   -2.3541   -0.9005 O   0  0  0  0  0  0  0  0  0  5  0  0
    0.6071    1.9181    0.0231 H   0  0  0  0  0  0  0  0  0  6  0  0
   -0.9831    1.9109   -0.7211 H   0  0  0  0  0  0  0  0  0  7  0  0
    0.4475    1.4899   -1.6787 H   0  0  0  0  0  0  0  0  0  8  0  0
   -2.0864    0.1051    0.6984 H   0  0  0  0  0  0  0  0  0  9  0  0
   -1.2623   -1.4541    0.9003 H   0  0  0  0  0  0  0  0  0 10  0  0
   -0.6968   -0.0235    1.7662 H   0  0  0  0  0  0  0  0  0 11  0  0
    1.6088   -1.1338    0.0391 H   0  0  0  0  0  0  0  0  0 12  0  0
    1.3350   -0.6925   -1.6447 H   0  0  0  0  0  0  0  0  0 13  0  0
   -0.3997   -2.3102   -1.5208 H   0  0  0  0  0  0  0  0  0 14  0  0
  1  8  1  0
  1  7  1  0
  1  6  1  0
  1  2  1  0
  2  3  1  0
  2  4  1  0
  3 11  1  0
  3  9  1  0
  3 10  1  0
  4 13  1  0
  4 12  1  0
  4  5  1  0
  5 14  1  0
M  RAD  1   2   2
M  END
>  <rmg_smiles>  (5) 
C[C](C)CO

>  <rmg_adjacency_list>  (5) 
multiplicity 2
1  O u0 p2 c0 {2,S} {14,S}
2  C u0 p0 c0 {1,S} {5,S} {6,S} {7,S}
3  C u0 p0 c0 {5,S} {8,S} {9,S} {10,S}
4  C u0 p0 c0 {5,S} {11,S} {12,S} {13,S}
5  C u1 p0 c0 {2,S} {3,S} {4,S}
6  H u0 p0 c0 {2,S}
7  H u0 p0 c0 {2,S}
8  H u0 p0 c0 {3,S}
9  H u0 p0 c0 {3,S}
10 H u0 p0 c0 {3,S}
11 H u0 p0 c0 {4,S}
12 H u0 p0 c0 {4,S}
13 H u0 p0 c0 {4,S}
14 H u0 p0 c0 {1,S}


>  <multiplicity>  (5) 
2

>  <reaction>  (5) 
rxn_10

>  <type>  (5) 
r2

>  <role_mapnums>  (5) 
{}

>  <role_mapidx>  (5) 
{}

>  <ordered_mapped_smiles>  (5) 
[C:1]([C:2]([C:3]([H:9])([H:10])[H:11])[C:4]([O:5][H:14])([H:12])[H:13])([H:6])([H:7])[H:8]

>  <level_of_theory>  (5) 
wb97xd/def2tzvp

>  <lot_method>  (5) 
wb97xd

>  <lot_basis>  (5) 
def2tzvp

>  <spin_multiplicity>  (5) 
2.0

>  <optical_isomers>  (5) 
2.0

>  <modes>  (5) 
IdealGasTranslation(mass=(73.0653, 'amu')),         NonlinearRotor(             inertia = ([66.6519, 141.392, 190.234

>  <frequency_value>  (5) 
unknown

>  <frequency_units>  (5) 
unknown

>  <frequency_list>  (5) 
unknown

>  <arkane_path>  (5) 
/home/calvin/Dropbox/PersonalFolders/Calvin/HAb_Converged/rxn_10/output/Species/rxn_10_C[C][C]CO/arkane/output.py

>  <path_exists>  (5) 
True

>  <E0_value>  (5) 
-611495.1349430596

>  <E0_units>  (5) 
kJ/mol

>  <thermo_class>  (5) 
NASA

>  <Cp0_value>  (5) 
33.257888

>  <Cp0_units>  (5) 
J/(mol*K)

>  <CpInf_value>  (5) 
332.57888

>  <CpInf_units>  (5) 
J/(mol*K)

>  <Tmin_value>  (5) 
10.0

>  <Tmin_units>  (5) 
K

>  <Tmax_value>  (5) 
3000.0

>  <Tmax_units>  (5) 
K

>  <polynomials>  (5) 
[{"name": "polynomial1", "class": "NASAPolynomial", "Tmin_value": 10.0, "Tmin_units": "K", "Tmax_value": 444.89285803448655, "Tmax_units": "K", "coeffs": [3.5516497294481084, 0.04549119231203356, -9.35500556411164e-05, 2.2415821551796147e-07, -1.89017142507032e-10, -73545875.69862285, 11.47675931749065]}, {"name": "polynomial2", "class": "NASAPolynomial", "Tmin_value": 444.89285803448655, "Tmin_units": "K", "Tmax_value": 3000.0, "Tmax_units": "K", "coeffs": [0.48125722327110365, 0.0496265058412315, -2.8360023030992606e-05, 7.892390846890453e-09, -8.565813367019484e-13, -73545370.22540295, 26.41330014079809]}]

>  <H298_value>  (5) 
-146145.66332159776

>  <H298_units>  (5) 
kcal/mol

>  <S298_value>  (5) 
84.88967618109803

>  <S298_units>  (5) 
cal/(mol*K)

>  <Cp_T_value_list>  (5) 
[26.431307814702723, 32.36643649688936, 38.03019801263985, 43.00572393844454, 51.11511550414589, 57.19885677382744, 66.39523256354266, 70.99891817771157, 73.36018555026162]

>  <Cp_T_units>  (5) 
cal/(mol*K)

>  <T_list>  (5) 
[300.0, 400.0, 500.0, 600.0, 800.0, 1000.0, 1500.0, 2000.0, 2400.0]

>  <T_units>  (5) 
K

>  <yaml_path>  (5) 
/home/calvin/Dropbox/PersonalFolders/Calvin/HAb_Converged/rxn_10/output/Species/rxn_10_C[C][C]CO/rxn_10_CCCCO.yml

>  <frequencies_cm1>  (5) 
[74.39691895688, 115.57822992092, 128.84524555916, 237.25434280599998, 298.41858105124, 342.64883349736, 362.94764210328, 501.66074556727995, 775.74273064444, 910.0884314449199, 933.4911174154801, 969.65952909592, 994.96437000012, 1046.9268479165598, 1072.89091941148, 1184.8433810834401, 1259.4188416586398, 1297.5237431993198, 1363.9824271262798, 1384.1782309523999, 1395.42635290656, 1412.97150039916, 1456.05496629684, 1458.62321880652, 1472.01384018052, 1478.3314666749197, 1482.21131338072, 2937.81305864644, 2941.3838910128397, 2951.21054700576, 2983.71885551064, 3027.32421229264, 3032.9002043724804, 3076.5398960810794, 3098.1708998390795, 3827.0464556745196]

>  <ZPE_kJmol>  (5) 
318.7283386735599

>  <E_elec_kJmol>  (5) 
-611813.8632817332

>  <E0_minus_Eelec_plus_ZPE_kJmol>  (5) 
0.0

>  <rxn>  (5) 
rxn_10

>  <species_type>  (5) 
r1

>  <species_folder>  (5) 
rxn_10_C[C][C]CO

>  <frequencies_cm1_list>  (5) 
[74.39691895688, 115.57822992092, 128.84524555916, 237.25434280599998, 298.41858105124, 342.64883349736, 362.94764210328, 501.66074556727995, 775.74273064444, 910.0884314449199, 933.4911174154801, 969.65952909592, 994.96437000012, 1046.9268479165598, 1072.89091941148, 1184.8433810834401, 1259.4188416586398, 1297.5237431993198, 1363.9824271262798, 1384.1782309523999, 1395.42635290656, 1412.97150039916, 1456.05496629684, 1458.62321880652, 1472.01384018052, 1478.3314666749197, 1482.21131338072, 2937.81305864644, 2941.3838910128397, 2951.21054700576, 2983.71885551064, 3027.32421229264, 3032.9002043724804, 3076.5398960810794, 3098.1708998390795, 3827.0464556745196]

>  <E0_kJmol>  (5) 
-611495

>  <H298_kJmol>  (5) 
-611473

$$$$
