
     RDKit          3D

 15 15  0  0  0  0  0  0  0  0999 V2000
    1.3115   -0.2319    2.0274 C   0  0  0  0  0  0  0  0  0  1  0  0
    0.5444   -0.0632    0.7760 C   0  0  0  0  0  0  0  0  0  2  0  0
   -0.4239    0.9348    0.6593 C   0  0  0  0  0  0  0  0  0  3  0  0
   -1.1989    1.0453   -0.4831 C   0  0  0  0  0  0  0  0  0  4  0  0
   -1.0236    0.1568   -1.5343 C   0  0  0  0  0  0  0  0  0  5  0  0
   -0.0642   -0.8404   -1.4328 C   0  0  0  0  0  0  0  0  0  6  0  0
    0.7097   -0.9490   -0.2895 C   0  0  0  0  0  0  0  0  0  7  0  0
    0.7313   -0.9002    2.6611 H   0  0  0  0  0  0  0  0  0  8  0  0
    2.2673   -0.7374    1.9024 H   0  0  0  0  0  0  0  0  0  9  0  0
    1.4154    0.6781    2.6154 H   0  0  0  0  0  0  0  0  0 10  0  0
   -0.5709    1.6286    1.4790 H   0  0  0  0  0  0  0  0  0 11  0  0
   -1.9435    1.8284   -0.5538 H   0  0  0  0  0  0  0  0  0 12  0  0
   -1.6287    0.2426   -2.4277 H   0  0  0  0  0  0  0  0  0 13  0  0
    0.0818   -1.5371   -2.2489 H   0  0  0  0  0  0  0  0  0 14  0  0
    1.4529   -1.7346   -0.2148 H   0  0  0  0  0  0  0  0  0 15  0  0
  1 10  1  0
  1  8  1  0
  1  9  1  0
  1  2  1  0
  2  7  1  0
  2  3  1  0
  3  4  1  0
  3 11  1  0
  4  5  1  0
  4 12  1  0
  5  6  1  0
  5 13  1  0
  6 14  1  0
  6  7  1  0
  7 15  1  0
M  END
>  <rmg_smiles>  (1) 
CC1[CH][CH][CH][CH][CH]1

>  <rmg_adjacency_list>  (1) 
1  C u0 p0 c0 {2,S} {8,S} {9,S} {10,S}
2  C u0 p0 c0 {1,S} {3,S} {4,S}
3  C u0 p0 c0 {2,S} {5,S} {11,S}
4  C u0 p0 c0 {2,S} {7,S} {15,S}
5  C u0 p0 c0 {3,S} {6,S} {12,S}
6  C u0 p0 c0 {5,S} {7,S} {13,S}
7  C u0 p0 c0 {4,S} {6,S} {14,S}
8  H u0 p0 c0 {1,S}
9  H u0 p0 c0 {1,S}
10 H u0 p0 c0 {1,S}
11 H u0 p0 c0 {3,S}
12 H u0 p0 c0 {5,S}
13 H u0 p0 c0 {6,S}
14 H u0 p0 c0 {7,S}
15 H u0 p0 c0 {4,S}


>  <multiplicity>  (1) 
1

>  <reaction>  (1) 
rxn_1453

>  <type>  (1) 
r1h

>  <role_mapnums>  (1) 
{"r1h_a": 1, "r1h_h": 8}

>  <role_mapidx>  (1) 
{"r1h_a": 0, "r1h_h": 7}

>  <ordered_mapped_smiles>  (1) 
[C:1]([CH:2]1[CH:3]([H:11])[CH:4]([H:12])[CH:5]([H:13])[CH:6]([H:14])[CH:7]1[H:15])([H:8])([H:9])[H:10]

>  <mol_properties>  (1) 
{"0": {"label": "donator", "atom_type": "Cs"}, "7": {"label": "d_hydrogen", "atom_type": "H0"}}

>  <level_of_theory>  (1) 
wb97xd/def2tzvp

>  <lot_method>  (1) 
wb97xd

>  <lot_basis>  (1) 
def2tzvp

>  <spin_multiplicity>  (1) 
1.0

>  <optical_isomers>  (1) 
1.0

>  <modes>  (1) 
IdealGasTranslation(mass=(92.0626, 'amu')),         NonlinearRotor(             inertia = ([90.1823, 198.896, 285.945

>  <frequency_value>  (1) 
unknown

>  <frequency_units>  (1) 
unknown

>  <frequency_list>  (1) 
unknown

>  <arkane_path>  (1) 
/home/calvin/Dropbox/PersonalFolders/Calvin/HAb_Converged/rxn_1453/output/Species/rxn_1453_Cc1ccccc1/arkane/output.py

>  <path_exists>  (1) 
True

>  <E0_value>  (1) 
-712667.4186954657

>  <E0_units>  (1) 
kJ/mol

>  <thermo_class>  (1) 
NASA

>  <Cp0_value>  (1) 
33.257888

>  <Cp0_units>  (1) 
J/(mol*K)

>  <CpInf_value>  (1) 
357.522296

>  <CpInf_units>  (1) 
J/(mol*K)

>  <Tmin_value>  (1) 
10.0

>  <Tmin_units>  (1) 
K

>  <Tmax_value>  (1) 
3000.0

>  <Tmax_units>  (1) 
K

>  <polynomials>  (1) 
[{"name": "polynomial1", "class": "NASAPolynomial", "Tmin_value": 10.0, "Tmin_units": "K", "Tmax_value": 551.6337437556739, "Tmax_units": "K", "coeffs": [3.980790839095313, 0.0003554759084543946, 0.0001740807555533119, -2.980551059269885e-07, 1.6260016547012624e-10, -85714089.33006716, 11.957866570352502]}, {"name": "polynomial2", "class": "NASAPolynomial", "Tmin_value": 551.6337437556739, "Tmin_units": "K", "Tmax_value": 3000.0, "Tmax_units": "K", "coeffs": [-2.464142884673319, 0.06292217705968887, -3.910410735823183e-05, 1.1617312031768996e-08, -1.3239292319465783e-12, -85713619.1845923, 37.0335001763548]}]

>  <H298_value>  (1) 
-170327.17110881128

>  <H298_units>  (1) 
kcal/mol

>  <S298_value>  (1) 
79.81344471114225

>  <S298_units>  (1) 
cal/(mol*K)

>  <Cp_T_value_list>  (1) 
[25.8819241324838, 33.907584394638754, 40.905333833989275, 46.79760597028022, 56.14405324051195, 62.889739407887795, 72.41562819521319, 76.94346395033827, 79.4531872673492]

>  <Cp_T_units>  (1) 
cal/(mol*K)

>  <T_list>  (1) 
[300.0, 400.0, 500.0, 600.0, 800.0, 1000.0, 1500.0, 2000.0, 2400.0]

>  <T_units>  (1) 
K

>  <yaml_path>  (1) 
/home/calvin/Dropbox/PersonalFolders/Calvin/HAb_Converged/rxn_1453/output/Species/rxn_1453_Cc1ccccc1/rxn_1453_Cc1ccccc1.yml

>  <frequencies_cm1>  (1) 
[32.67311615255999, 208.88682644908, 346.6454189536, 414.1066827372799, 475.62800421915995, 527.95443235756, 633.69913930024, 711.73556047672, 745.6928028841199, 800.1617304423601, 861.8684605278798, 915.5202168330399, 979.4449831769199, 991.60641417864, 997.6768292015198, 1015.82627140228, 1052.7363174972797, 1058.5389200926797, 1109.8078324918, 1173.8974064833599, 1201.1112693065197, 1232.0058362611999, 1316.04400260736, 1349.7815014845198, 1404.03755249784, 1462.1391152903598, 1476.8481978457999, 1495.6225357106798, 1530.4999541509599, 1640.12450779944, 1663.1975784746398, 3015.0391755551595, 3079.01201079628, 3101.631860440359, 3145.0655425893597, 3146.5282104625194, 3159.5205466879593, 3168.9008486350795, 3181.02107772488]

>  <ZPE_kJmol>  (1) 
333.8912309447283

>  <E_elec_kJmol>  (1) 
-713001.3099264104

>  <E0_minus_Eelec_plus_ZPE_kJmol>  (1) 
0.0

>  <rxn>  (1) 
rxn_1453

>  <species_type>  (1) 
r1

>  <species_folder>  (1) 
rxn_1453_Cc1ccccc1

>  <frequencies_cm1_list>  (1) 
[32.67311615255999, 208.88682644908, 346.6454189536, 414.1066827372799, 475.62800421915995, 527.95443235756, 633.69913930024, 711.73556047672, 745.6928028841199, 800.1617304423601, 861.8684605278798, 915.5202168330399, 979.4449831769199, 991.60641417864, 997.6768292015198, 1015.82627140228, 1052.7363174972797, 1058.5389200926797, 1109.8078324918, 1173.8974064833599, 1201.1112693065197, 1232.0058362611999, 1316.04400260736, 1349.7815014845198, 1404.03755249784, 1462.1391152903598, 1476.8481978457999, 1495.6225357106798, 1530.4999541509599, 1640.12450779944, 1663.1975784746398, 3015.0391755551595, 3079.01201079628, 3101.631860440359, 3145.0655425893597, 3146.5282104625194, 3159.5205466879593, 3168.9008486350795, 3181.02107772488]

>  <E0_kJmol>  (1) 
-712667

>  <H298_kJmol>  (1) 
-712649

$$$$

     RDKit          3D

 12 12  0  0  0  0  0  0  0  0999 V2000
    0.9044    0.8266   -0.5607 C   0  0  0  0  0  0  0  0  0  1  0  0
   -0.2238    0.5104   -1.2809 C   0  0  0  0  0  0  0  0  0  2  0  0
   -1.1534   -0.3438   -0.6955 C   0  0  0  0  0  0  0  0  0  3  0  0
   -0.9276   -0.8491    0.5776 C   0  0  0  0  0  0  0  0  0  4  0  0
    0.2228   -0.5087    1.2761 C   0  0  0  0  0  0  0  0  0  5  0  0
    1.1604    0.3447    0.7021 C   0  0  0  0  0  0  0  0  0  6  0  0
   -0.3837    0.9145   -2.2743 H   0  0  0  0  0  0  0  0  0  7  0  0
   -2.0533   -0.6136   -1.2350 H   0  0  0  0  0  0  0  0  0  8  0  0
   -1.6536   -1.5134    1.0292 H   0  0  0  0  0  0  0  0  0  9  0  0
    0.3921   -0.9070    2.2694 H   0  0  0  0  0  0  0  0  0 10  0  0
    2.0613    0.6164    1.2391 H   0  0  0  0  0  0  0  0  0 11  0  0
    1.5955    1.4987   -1.0693 H   0  0  0  0  0  0  0  0  0 12  0  0
  1  6  1  0
  1  2  1  0
  1 12  1  0
  2  7  1  0
  2  3  1  0
  3  4  1  0
  3  8  1  0
  4  5  1  0
  4  9  1  0
  5  6  1  0
  5 10  1  0
  6 11  1  0
M  END
>  <rmg_smiles>  (2) 
[CH]1[CH][CH][CH][CH][CH]1

>  <rmg_adjacency_list>  (2) 
1  C u0 p0 c0 {2,S} {6,S} {12,S}
2  C u0 p0 c0 {1,S} {3,S} {7,S}
3  C u0 p0 c0 {2,S} {4,S} {8,S}
4  C u0 p0 c0 {3,S} {5,S} {9,S}
5  C u0 p0 c0 {4,S} {6,S} {10,S}
6  C u0 p0 c0 {1,S} {5,S} {11,S}
7  H u0 p0 c0 {2,S}
8  H u0 p0 c0 {3,S}
9  H u0 p0 c0 {4,S}
10 H u0 p0 c0 {5,S}
11 H u0 p0 c0 {6,S}
12 H u0 p0 c0 {1,S}


>  <multiplicity>  (2) 
1

>  <reaction>  (2) 
rxn_1453

>  <type>  (2) 
r2h

>  <role_mapnums>  (2) 
{"r2h_a": 1, "r2h_h": 12}

>  <role_mapidx>  (2) 
{"r2h_a": 0, "r2h_h": 11}

>  <ordered_mapped_smiles>  (2) 
[CH:1]1([H:12])[CH:2]([H:7])[CH:3]([H:8])[CH:4]([H:9])[CH:5]([H:10])[CH:6]1[H:11]

>  <mol_properties>  (2) 
{"0": {"label": "acceptor", "atom_type": "Cs"}, "11": {"label": "a_hydrogen", "atom_type": "H0"}}

>  <level_of_theory>  (2) 
wb97xd/def2tzvp

>  <lot_method>  (2) 
wb97xd

>  <lot_basis>  (2) 
def2tzvp

>  <spin_multiplicity>  (2) 
1.0

>  <optical_isomers>  (2) 
1.0

>  <modes>  (2) 
IdealGasTranslation(mass=(78.0469, 'amu')),         NonlinearRotor(             inertia = ([87.7329, 87.7329, 175.465

>  <frequency_value>  (2) 
unknown

>  <frequency_units>  (2) 
unknown

>  <frequency_list>  (2) 
unknown

>  <arkane_path>  (2) 
/home/calvin/Dropbox/PersonalFolders/Calvin/HAb_Converged/rxn_1453/output/Species/rxn_1453_c1ccccc1/arkane/output.py

>  <path_exists>  (2) 
True

>  <E0_value>  (2) 
-609504.360370392

>  <E0_units>  (2) 
kJ/mol

>  <thermo_class>  (2) 
NASA

>  <Cp0_value>  (2) 
33.257888

>  <Cp0_units>  (2) 
J/(mol*K)

>  <CpInf_value>  (2) 
282.692048

>  <CpInf_units>  (2) 
J/(mol*K)

>  <Tmin_value>  (2) 
10.0

>  <Tmin_units>  (2) 
K

>  <Tmax_value>  (2) 
3000.0

>  <Tmax_units>  (2) 
K

>  <polynomials>  (2) 
[{"name": "polynomial1", "class": "NASAPolynomial", "Tmin_value": 10.0, "Tmin_units": "K", "Tmax_value": 624.5889238561655, "Tmax_units": "K", "coeffs": [4.233170708495583, -0.01904563214825518, 0.00020733376577422523, -3.229091824972669e-07, 1.629208076699705e-10, -73306442.699468, 7.126691172067535]}, {"name": "polynomial2", "class": "NASAPolynomial", "Tmin_value": 624.5889238561655, "Tmin_units": "K", "Tmax_value": 3000.0, "Tmax_units": "K", "coeffs": [-1.8699021293027178, 0.05022895593960526, -3.153647090007196e-05, 9.439584179997264e-09, -1.0810278207930717e-12, -73306269.17485286, 28.98404561011881]}]

>  <H298_value>  (2) 
-145671.69164689348

>  <H298_units>  (2) 
kcal/mol

>  <S298_value>  (2) 
64.08076207186494

>  <S298_units>  (2) 
cal/(mol*K)

>  <Cp_T_value_list>  (2) 
[19.436132708589593, 26.415747967053818, 32.516061319525356, 37.38352811788437, 44.75228655332595, 50.04012365769979, 57.43496865369366, 60.9324301113873, 62.907849221882884]

>  <Cp_T_units>  (2) 
cal/(mol*K)

>  <T_list>  (2) 
[300.0, 400.0, 500.0, 600.0, 800.0, 1000.0, 1500.0, 2000.0, 2400.0]

>  <T_units>  (2) 
K

>  <yaml_path>  (2) 
/home/calvin/Dropbox/PersonalFolders/Calvin/HAb_Converged/rxn_1453/output/Species/rxn_1453_c1ccccc1/rxn_1453_c1ccccc1.yml

>  <frequencies_cm1>  (2) 
[411.08520919648, 411.08520919648, 619.4913466731599, 619.4913466731599, 688.7723615666399, 717.7579066023599, 868.2066879782399, 868.2066879782399, 984.4304145192399, 984.4304145192399, 1003.7129092978, 1017.3782100845998, 1018.6966712660399, 1060.29000134928, 1060.29000134928, 1165.64329012872, 1194.6494361204, 1194.6494361204, 1323.1101305016398, 1373.28719223488, 1510.9015780476798, 1510.9015780476798, 1649.40867195208, 1649.40867195208, 3149.73509260696, 3159.4312758787996, 3159.4312758787996, 3175.33521387992, 3175.33521387992, 3185.60135693332]

>  <ZPE_kJmol>  (2) 
262.6411261645067

>  <E_elec_kJmol>  (2) 
-609767.0014965564

>  <E0_minus_Eelec_plus_ZPE_kJmol>  (2) 
0.0

>  <rxn>  (2) 
rxn_1453

>  <species_type>  (2) 
p0

>  <species_folder>  (2) 
rxn_1453_c1ccccc1

>  <frequencies_cm1_list>  (2) 
[411.08520919648, 411.08520919648, 619.4913466731599, 619.4913466731599, 688.7723615666399, 717.7579066023599, 868.2066879782399, 868.2066879782399, 984.4304145192399, 984.4304145192399, 1003.7129092978, 1017.3782100845998, 1018.6966712660399, 1060.29000134928, 1060.29000134928, 1165.64329012872, 1194.6494361204, 1194.6494361204, 1323.1101305016398, 1373.28719223488, 1510.9015780476798, 1510.9015780476798, 1649.40867195208, 1649.40867195208, 3149.73509260696, 3159.4312758787996, 3159.4312758787996, 3175.33521387992, 3175.33521387992, 3185.60135693332]

>  <E0_kJmol>  (2) 
-609504

>  <H298_kJmol>  (2) 
-609490

$$$$

     RDKit          3D

 26 26  0  0  0  0  0  0  0  0999 V2000
    0.2541   -0.6232    1.6423 C   0  0  0  0  0  3  0  0  0  1  0  0
   -0.8740   -0.9393    0.9221 C   0  0  0  0  0  0  0  0  0  2  0  0
   -1.8037   -1.7936    1.5075 C   0  0  0  0  0  0  0  0  0  3  0  0
   -1.5779   -2.2989    2.7806 C   0  0  0  0  0  0  0  0  0  4  0  0
   -0.4275   -1.9584    3.4791 C   0  0  0  0  0  0  0  0  0  5  0  0
    0.5101   -1.1051    2.9051 C   0  0  0  0  0  0  0  0  0  6  0  0
   -1.0340   -0.5353   -0.0713 H   0  0  0  0  0  0  0  0  0  7  0  0
   -2.7036   -2.0633    0.9680 H   0  0  0  0  0  0  0  0  0  8  0  0
   -2.3039   -2.9632    3.2322 H   0  0  0  0  0  0  0  0  0  9  0  0
   -0.2582   -2.3568    4.4724 H   0  0  0  0  0  0  0  0  0 10  0  0
    1.4110   -0.8334    3.4421 H   0  0  0  0  0  0  0  0  0 11  0  0
    1.8504    1.0472    0.2331 C   0  0  0  0  0  0  0  0  0 12  0  0
    1.0834    1.2159   -1.0183 C   0  0  0  0  0  0  0  0  0 13  0  0
    0.1151    2.2139   -1.1350 C   0  0  0  0  0  0  0  0  0 14  0  0
   -0.6600    2.3244   -2.2774 C   0  0  0  0  0  0  0  0  0 15  0  0
   -0.4846    1.4359   -3.3286 C   0  0  0  0  0  0  0  0  0 16  0  0
    0.4748    0.4387   -3.2272 C   0  0  0  0  0  0  0  0  0 17  0  0
    1.2487    0.3301   -2.0838 C   0  0  0  0  0  0  0  0  0 18  0  0
    1.1922    0.2890    0.9519 H   0  0  0  0  0  0  0  0  0 19  0  0
    2.8063    0.5417    0.1081 H   0  0  0  0  0  0  0  0  0 20  0  0
    1.9544    1.9573    0.8210 H   0  0  0  0  0  0  0  0  0 21  0  0
   -0.0320    2.9077   -0.3153 H   0  0  0  0  0  0  0  0  0 22  0  0
   -1.4045    3.1076   -2.3481 H   0  0  0  0  0  0  0  0  0 23  0  0
   -1.0898    1.5218   -4.2221 H   0  0  0  0  0  0  0  0  0 24  0  0
    0.6208   -0.2580   -4.0432 H   0  0  0  0  0  0  0  0  0 25  0  0
    1.9919   -0.4554   -2.0092 H   0  0  0  0  0  0  0  0  0 26  0  0
  1  6  1  0
  1  2  1  0
  2  3  1  0
  2  7  1  0
  3  4  1  0
  3  8  1  0
  4  9  1  0
  4  5  1  0
  5 10  1  0
  5  6  1  0
  6 11  1  0
 12 19  1  0
 12 20  1  0
 12 21  1  0
 12 13  1  0
 13 14  1  0
 13 18  1  0
 14 15  1  0
 14 22  1  0
 15 23  1  0
 15 16  1  0
 16 17  1  0
 16 24  1  0
 17 18  1  0
 17 25  1  0
 18 26  1  0
M  RAD  1   1   2
M  END
>  <rmg_smiles>  (3) 
CC1[CH][CH][CH][CH][CH]1.[C]1[CH][CH][CH][CH][CH]1

>  <rmg_adjacency_list>  (3) 
multiplicity 2
1  C u0 p0 c0 {2,S} {14,S} {15,S} {16,S}
2  C u0 p0 c0 {1,S} {3,S} {4,S}
3  C u0 p0 c0 {2,S} {6,S} {20,S}
4  C u0 p0 c0 {2,S} {8,S} {24,S}
5  C u0 p0 c0 {9,S} {10,S} {18,S}
6  C u0 p0 c0 {3,S} {7,S} {21,S}
7  C u0 p0 c0 {6,S} {8,S} {22,S}
8  C u0 p0 c0 {4,S} {7,S} {23,S}
9  C u0 p0 c0 {5,S} {11,S} {17,S}
10 C u0 p0 c0 {5,S} {12,S} {19,S}
11 C u0 p0 c0 {9,S} {13,S} {25,S}
12 C u0 p0 c0 {10,S} {13,S} {26,S}
13 C u1 p1 c0 {11,S} {12,S}
14 H u0 p0 c0 {1,S}
15 H u0 p0 c0 {1,S}
16 H u0 p0 c0 {1,S}
17 H u0 p0 c0 {9,S}
18 H u0 p0 c0 {5,S}
19 H u0 p0 c0 {10,S}
20 H u0 p0 c0 {3,S}
21 H u0 p0 c0 {6,S}
22 H u0 p0 c0 {7,S}
23 H u0 p0 c0 {8,S}
24 H u0 p0 c0 {4,S}
25 H u0 p0 c0 {11,S}
26 H u0 p0 c0 {12,S}


>  <multiplicity>  (3) 
2

>  <reaction>  (3) 
rxn_1453

>  <type>  (3) 
ts

>  <role_mapnums>  (3) 
{"*2": 19, "*1": 12, "*3": 1, "*0": 13, "*4": 2}

>  <role_mapidx>  (3) 
{"*2": 18, "*1": 11, "*3": 0, "*0": 12, "*4": 1}

>  <ordered_mapped_smiles>  (3) 
[CH:1]1[CH:2]([H:7])[CH:3]([H:8])[CH:4]([H:9])[CH:5]([H:10])[CH:6]1[H:11].[C:12]([CH:13]1[CH:14]([H:22])[CH:15]([H:23])[CH:16]([H:24])[CH:17]([H:25])[CH:18]1[H:26])([H:19])([H:20])[H:21]

>  <mol_properties>  (3) 
{"0": {"label": "*3", "atom_type": "C2s"}, "1": {"label": "*4", "atom_type": "Cs"}, "11": {"label": "*1", "atom_type": "Cs"}, "12": {"label": "*0", "atom_type": "Cs"}, "18": {"label": "*2", "atom_type": "H0"}}

>  <level_of_theory>  (3) 
wb97xd/def2tzvp

>  <lot_method>  (3) 
wb97xd

>  <lot_basis>  (3) 
def2tzvp

>  <spin_multiplicity>  (3) 
2.0

>  <optical_isomers>  (3) 
1.0

>  <modes>  (3) 
IdealGasTranslation(mass=(169.102, 'amu')),         NonlinearRotor(             inertia = ([294.928, 1304.3, 1421.36

>  <frequency_value>  (3) 
-1324.64

>  <frequency_units>  (3) 
cm^-1

>  <frequency_list>  (3) 
unknown

>  <arkane_path>  (3) 
/home/calvin/Dropbox/PersonalFolders/Calvin/HAb_Converged/rxn_1453/output/rxns/TS0/arkane/output.py

>  <path_exists>  (3) 
True

>  <E0_value>  (3) 
-1320380.0

>  <E0_units>  (3) 
kJ/mol

>  <thermo_class>  (3) 
unknown

>  <Cp0_value>  (3) 
unknown

>  <Cp0_units>  (3) 
unknown

>  <CpInf_value>  (3) 
unknown

>  <CpInf_units>  (3) 
unknown

>  <Tmin_value>  (3) 
unknown

>  <Tmin_units>  (3) 
unknown

>  <Tmax_value>  (3) 
unknown

>  <Tmax_units>  (3) 
unknown

>  <polynomials>  (3) 
unknown

>  <H298_value>  (3) 
unknown

>  <H298_units>  (3) 
unknown

>  <S298_value>  (3) 
unknown

>  <S298_units>  (3) 
unknown

>  <Cp_T_value_list>  (3) 
unknown

>  <Cp_T_units>  (3) 
unknown

>  <T_list>  (3) 
unknown

>  <T_units>  (3) 
unknown

>  <yaml_path>  (3) 
unknown

>  <frequencies_cm1>  (3) 
unknown

>  <ZPE_kJmol>  (3) 
unknown

>  <E_elec_kJmol>  (3) 
unknown

>  <E0_minus_Eelec_plus_ZPE_kJmol>  (3) 
unknown

>  <rxn>  (3) 
unknown

>  <species_type>  (3) 
unknown

>  <species_folder>  (3) 
unknown

>  <frequencies_cm1_list>  (3) 
[]

>  <ts_imag_freq_cm1>  (3) 
-1340.7306

>  <ts_freq_out_path>  (3) 
/home/calvin/Dropbox/PersonalFolders/Calvin/HAb_Converged/rxn_1453/output/rxns/TS0/geometry/freq.out

>  <E0_kJmol>  (3) 
-1.32038e+06

>  <H298_kJmol>  (3) 
unknown

$$$$

     RDKit          3D

 14 14  0  0  0  0  0  0  0  0999 V2000
    2.3111    0.1295    0.0255 C   0  0  0  0  0  0  0  0  0  1  0  0
    0.9132    0.0511    0.0101 C   0  0  0  0  0  0  0  0  0  2  0  0
    0.2446   -1.1981    0.0389 C   0  0  0  0  0  3  0  0  0  3  0  0
   -1.1306   -1.2689    0.0235 C   0  0  0  0  0  0  0  0  0  4  0  0
   -1.8967   -0.1062   -0.0209 C   0  0  0  0  0  0  0  0  0  5  0  0
   -1.2644    1.1347   -0.0499 C   0  0  0  0  0  0  0  0  0  6  0  0
    0.1101    1.2180   -0.0350 C   0  0  0  0  0  0  0  0  0  7  0  0
    2.9188   -0.7647    0.0599 H   0  0  0  0  0  0  0  0  0  8  0  0
    2.8158    1.0859    0.0034 H   0  0  0  0  0  0  0  0  0  9  0  0
    0.8353   -2.1058    0.0735 H   0  0  0  0  0  0  0  0  0 10  0  0
   -1.6191   -2.2351    0.0461 H   0  0  0  0  0  0  0  0  0 11  0  0
   -2.9772   -0.1668   -0.0328 H   0  0  0  0  0  0  0  0  0 12  0  0
   -1.8572    2.0404   -0.0845 H   0  0  0  0  0  0  0  0  0 13  0  0
    0.5964    2.1860   -0.0577 H   0  0  0  0  0  0  0  0  0 14  0  0
  1  8  1  0
  1  9  1  0
  1  2  1  0
  2  7  1  0
  2  3  1  0
  3  4  1  0
  3 10  1  0
  4  5  1  0
  4 11  1  0
  5 12  1  0
  5  6  1  0
  6 13  1  0
  6  7  1  0
  7 14  1  0
M  RAD  1   3   2
M  END
>  <rmg_smiles>  (4) 
[CH2]C1[CH][CH][CH][CH][CH]1

>  <rmg_adjacency_list>  (4) 
multiplicity 2
1  C u0 p0 c0 {2,S} {3,S} {7,S}
2  C u1 p0 c0 {1,S} {4,S} {8,S}
3  C u0 p0 c0 {1,S} {6,S} {12,S}
4  C u0 p0 c0 {2,S} {5,S} {9,S}
5  C u0 p0 c0 {4,S} {6,S} {10,S}
6  C u0 p0 c0 {3,S} {5,S} {11,S}
7  C u0 p0 c0 {1,S} {13,S} {14,S}
8  H u0 p0 c0 {2,S}
9  H u0 p0 c0 {4,S}
10 H u0 p0 c0 {5,S}
11 H u0 p0 c0 {6,S}
12 H u0 p0 c0 {3,S}
13 H u0 p0 c0 {7,S}
14 H u0 p0 c0 {7,S}


>  <multiplicity>  (4) 
2

>  <reaction>  (4) 
rxn_1453

>  <type>  (4) 
r1

>  <role_mapnums>  (4) 
{}

>  <role_mapidx>  (4) 
{}

>  <ordered_mapped_smiles>  (4) 
[CH:1]([CH:2]1[C:3]([H:10])[CH:4]([H:11])[CH:5]([H:12])[CH:6]([H:13])[CH:7]1[H:14])([H:8])[H:9]

>  <level_of_theory>  (4) 
wb97xd/def2tzvp

>  <lot_method>  (4) 
wb97xd

>  <lot_basis>  (4) 
def2tzvp

>  <spin_multiplicity>  (4) 
2.0

>  <optical_isomers>  (4) 
1.0

>  <modes>  (4) 
IdealGasTranslation(mass=(91.0548, 'amu')),         NonlinearRotor(             inertia = ([90.2688, 184.999, 275.268

>  <frequency_value>  (4) 
unknown

>  <frequency_units>  (4) 
unknown

>  <frequency_list>  (4) 
unknown

>  <arkane_path>  (4) 
/home/calvin/Dropbox/PersonalFolders/Calvin/HAb_Converged/rxn_1453/output/Species/rxn_1453_[CH2]c1ccccc1/arkane/output.py

>  <path_exists>  (4) 
True

>  <E0_value>  (4) 
-710982.0623900568

>  <E0_units>  (4) 
kJ/mol

>  <thermo_class>  (4) 
NASA

>  <Cp0_value>  (4) 
33.257888

>  <Cp0_units>  (4) 
J/(mol*K)

>  <CpInf_value>  (4) 
332.57888

>  <CpInf_units>  (4) 
J/(mol*K)

>  <Tmin_value>  (4) 
10.0

>  <Tmin_units>  (4) 
K

>  <Tmax_value>  (4) 
3000.0

>  <Tmax_units>  (4) 
K

>  <polynomials>  (4) 
[{"name": "polynomial1", "class": "NASAPolynomial", "Tmin_value": 10.0, "Tmin_units": "K", "Tmax_value": 553.2111543820812, "Tmax_units": "K", "coeffs": [4.142543100339783, -0.014218751426311257, 0.00025768288845109076, -4.6329717299686994e-07, 2.6710359880098635e-10, -85511387.18345657, 10.487952528933349]}, {"name": "polynomial2", "class": "NASAPolynomial", "Tmin_value": 553.2111543820812, "Tmin_units": "K", "Tmax_value": 3000.0, "Tmax_units": "K", "coeffs": [-0.7942858141271507, 0.05799977662333905, -3.716272398168618e-05, 1.1355668259156845e-08, -1.3253477782048034e-12, -85511399.83716469, 26.33142406546513]}]

>  <H298_value>  (4) 
-169924.63454747986

>  <H298_units>  (4) 
kcal/mol

>  <S298_value>  (4) 
74.98251677136349

>  <S298_units>  (4) 
cal/(mol*K)

>  <Cp_T_value_list>  (4) 
[25.283015903963822, 33.526434594449704, 40.21254996448577, 45.52304336844698, 53.838654110521205, 59.76143460322508, 67.97251244989147, 71.92525639213041, 74.23565100621211]

>  <Cp_T_units>  (4) 
cal/(mol*K)

>  <T_list>  (4) 
[300.0, 400.0, 500.0, 600.0, 800.0, 1000.0, 1500.0, 2000.0, 2400.0]

>  <T_units>  (4) 
K

>  <yaml_path>  (4) 
/home/calvin/Dropbox/PersonalFolders/Calvin/HAb_Converged/rxn_1453/output/Species/rxn_1453_[CH2]c1ccccc1/rxn_1453_CH2c1ccccc1.yml

>  <frequencies_cm1>  (4) 
[200.24815891652, 361.60171298056, 390.17523889708, 478.87608827552, 500.34228438583995, 531.78621016612, 625.85017507948, 685.3594698625999, 711.2686054749599, 777.5487477835999, 833.0683240958, 836.50868374112, 906.74420959408, 969.6801300518798, 974.03379874476, 983.70251407532, 992.09397013636, 1038.3980521491198, 1114.7108600102797, 1165.8355657176799, 1178.3403459854, 1276.27729061924, 1315.886061945, 1345.4965026448397, 1472.9546171693598, 1482.97354875124, 1496.57704667016, 1589.63156474148, 1604.18957361988, 3131.52384753832, 3150.75140643432, 3153.26472306144, 3164.65705170732, 3171.3798303356, 3183.3901876602795, 3230.66251460316]

>  <ZPE_kJmol>  (4) 
299.2207520027369

>  <E_elec_kJmol>  (4) 
-711281.2831420596

>  <E0_minus_Eelec_plus_ZPE_kJmol>  (4) 
0.0

>  <rxn>  (4) 
rxn_1453

>  <species_type>  (4) 
p1

>  <species_folder>  (4) 
rxn_1453_[CH2]c1ccccc1

>  <frequencies_cm1_list>  (4) 
[200.24815891652, 361.60171298056, 390.17523889708, 478.87608827552, 500.34228438583995, 531.78621016612, 625.85017507948, 685.3594698625999, 711.2686054749599, 777.5487477835999, 833.0683240958, 836.50868374112, 906.74420959408, 969.6801300518798, 974.03379874476, 983.70251407532, 992.09397013636, 1038.3980521491198, 1114.7108600102797, 1165.8355657176799, 1178.3403459854, 1276.27729061924, 1315.886061945, 1345.4965026448397, 1472.9546171693598, 1482.97354875124, 1496.57704667016, 1589.63156474148, 1604.18957361988, 3131.52384753832, 3150.75140643432, 3153.26472306144, 3164.65705170732, 3171.3798303356, 3183.3901876602795, 3230.66251460316]

>  <E0_kJmol>  (4) 
-710982

>  <H298_kJmol>  (4) 
-710965

$$$$

     RDKit          3D

 11 11  0  0  0  0  0  0  0  0999 V2000
    0.1524   -1.5397    0.0698 C   0  0  0  0  0  3  0  0  0  1  0  0
   -1.1218   -1.0406    0.0516 C   0  0  0  0  0  0  0  0  0  2  0  0
   -1.2464    0.3470   -0.0114 C   0  0  0  0  0  0  0  0  0  3  0  0
   -0.1137    1.1487   -0.0521 C   0  0  0  0  0  0  0  0  0  4  0  0
    1.1542    0.5837   -0.0308 C   0  0  0  0  0  0  0  0  0  5  0  0
    1.3041   -0.8014    0.0319 C   0  0  0  0  0  0  0  0  0  6  0  0
   -1.9955   -1.6793    0.0840 H   0  0  0  0  0  0  0  0  0  7  0  0
   -2.2319    0.7966   -0.0284 H   0  0  0  0  0  0  0  0  0  8  0  0
   -0.2203    2.2248   -0.1009 H   0  0  0  0  0  0  0  0  0  9  0  0
    2.0325    1.2173   -0.0630 H   0  0  0  0  0  0  0  0  0 10  0  0
    2.2862   -1.2570    0.0492 H   0  0  0  0  0  0  0  0  0 11  0  0
  1  6  1  0
  1  2  1  0
  2  7  1  0
  2  3  1  0
  3  4  1  0
  3  8  1  0
  4  5  1  0
  4  9  1  0
  5  6  1  0
  5 10  1  0
  6 11  1  0
M  RAD  1   1   2
M  END
>  <rmg_smiles>  (5) 
[C]1[CH][CH][CH][CH][CH]1

>  <rmg_adjacency_list>  (5) 
multiplicity 2
1  C u0 p0 c0 {2,S} {3,S} {8,S}
2  C u0 p0 c0 {1,S} {4,S} {7,S}
3  C u0 p0 c0 {1,S} {5,S} {9,S}
4  C u0 p0 c0 {2,S} {6,S} {10,S}
5  C u0 p0 c0 {3,S} {6,S} {11,S}
6  C u1 p1 c0 {4,S} {5,S}
7  H u0 p0 c0 {2,S}
8  H u0 p0 c0 {1,S}
9  H u0 p0 c0 {3,S}
10 H u0 p0 c0 {4,S}
11 H u0 p0 c0 {5,S}


>  <multiplicity>  (5) 
2

>  <reaction>  (5) 
rxn_1453

>  <type>  (5) 
r2

>  <role_mapnums>  (5) 
{}

>  <role_mapidx>  (5) 
{}

>  <ordered_mapped_smiles>  (5) 
[CH:1]1[CH:2]([H:7])[CH:3]([H:8])[CH:4]([H:9])[CH:5]([H:10])[CH:6]1[H:11]

>  <level_of_theory>  (5) 
wb97xd/def2tzvp

>  <lot_method>  (5) 
wb97xd

>  <lot_basis>  (5) 
def2tzvp

>  <spin_multiplicity>  (5) 
2.0

>  <optical_isomers>  (5) 
1.0

>  <modes>  (5) 
IdealGasTranslation(mass=(77.0391, 'amu')),         NonlinearRotor(             inertia = ([79.4834, 89.154, 168.637

>  <frequency_value>  (5) 
unknown

>  <frequency_units>  (5) 
unknown

>  <frequency_list>  (5) 
unknown

>  <arkane_path>  (5) 
/home/calvin/Dropbox/PersonalFolders/Calvin/HAb_Converged/rxn_1453/output/Species/rxn_1453_[c]1ccccc1/arkane/output.py

>  <path_exists>  (5) 
True

>  <E0_value>  (5) 
-607724.3998530591

>  <E0_units>  (5) 
kJ/mol

>  <thermo_class>  (5) 
NASA

>  <Cp0_value>  (5) 
33.257888

>  <Cp0_units>  (5) 
J/(mol*K)

>  <CpInf_value>  (5) 
257.748632

>  <CpInf_units>  (5) 
J/(mol*K)

>  <Tmin_value>  (5) 
10.0

>  <Tmin_units>  (5) 
K

>  <Tmax_value>  (5) 
3000.0

>  <Tmax_units>  (5) 
K

>  <polynomials>  (5) 
[{"name": "polynomial1", "class": "NASAPolynomial", "Tmin_value": 10.0, "Tmin_units": "K", "Tmax_value": 611.9514215734742, "Tmax_units": "K", "coeffs": [4.210928264836411, -0.017715806278107295, 0.00019979619959629934, -3.2072543899037057e-07, 1.6634002564869843e-10, -73092362.08808997, 9.54191385059124]}, {"name": "polynomial2", "class": "NASAPolynomial", "Tmin_value": 611.9514215734742, "Tmin_units": "K", "Tmax_value": 3000.0, "Tmax_units": "K", "coeffs": [-0.9065656418041578, 0.04572632756728043, -2.922673417115117e-05, 8.862920600563165e-09, -1.0248093206646468e-12, -73092297.32994455, 27.12926825116414]}]

>  <H298_value>  (5) 
-145246.28547837673

>  <H298_units>  (5) 
kcal/mol

>  <S298_value>  (5) 
68.80259293434003

>  <S298_units>  (5) 
cal/(mol*K)

>  <Cp_T_value_list>  (5) 
[19.00884575603113, 25.48368627748837, 31.01561709438249, 35.35051353006511, 41.905097841074586, 46.5625118136136, 52.953158530405716, 55.931056660579024, 57.65071338208347]

>  <Cp_T_units>  (5) 
cal/(mol*K)

>  <T_list>  (5) 
[300.0, 400.0, 500.0, 600.0, 800.0, 1000.0, 1500.0, 2000.0, 2400.0]

>  <T_units>  (5) 
K

>  <yaml_path>  (5) 
/home/calvin/Dropbox/PersonalFolders/Calvin/HAb_Converged/rxn_1453/output/Species/rxn_1453_[c]1ccccc1/rxn_1453_c1ccccc1.yml

>  <frequencies_cm1>  (5) 
[400.5512537155999, 426.67326587288, 597.8672099004799, 615.68016982056, 676.79633916856, 724.72789670216, 824.4571245045198, 899.6574807438399, 971.9119002808799, 984.9523054035599, 991.6407491052399, 1020.6812300235198, 1047.53114262472, 1072.8977863968, 1169.36519617216, 1172.49654147808, 1297.26966474248, 1311.9787472979199, 1460.7382502850799, 1471.6292890026, 1588.58778297284, 1641.45670295152, 3150.80634231688, 3156.9248262369997, 3168.1111453232797, 3171.7231796016, 3181.6597073596404]

>  <ZPE_kJmol>  (5) 
228.47946828382223

>  <E_elec_kJmol>  (5) 
-607952.8793213429

>  <E0_minus_Eelec_plus_ZPE_kJmol>  (5) 
0.0

>  <rxn>  (5) 
rxn_1453

>  <species_type>  (5) 
r0

>  <species_folder>  (5) 
rxn_1453_[c]1ccccc1

>  <frequencies_cm1_list>  (5) 
[400.5512537155999, 426.67326587288, 597.8672099004799, 615.68016982056, 676.79633916856, 724.72789670216, 824.4571245045198, 899.6574807438399, 971.9119002808799, 984.9523054035599, 991.6407491052399, 1020.6812300235198, 1047.53114262472, 1072.8977863968, 1169.36519617216, 1172.49654147808, 1297.26966474248, 1311.9787472979199, 1460.7382502850799, 1471.6292890026, 1588.58778297284, 1641.45670295152, 3150.80634231688, 3156.9248262369997, 3168.1111453232797, 3171.7231796016, 3181.6597073596404]

>  <E0_kJmol>  (5) 
-607724

>  <H298_kJmol>  (5) 
-607710

$$$$
