
     RDKit          3D

 19 20  0  0  0  0  0  0  0  0999 V2000
    0.1529   -1.2705    0.8321 C   0  0  0  0  0  0  0  0  0  1  0  0
    0.1406   -1.3767   -0.6968 C   0  0  0  0  0  0  0  0  0  2  0  0
    0.2833    0.0920   -1.1330 C   0  0  0  0  0  0  0  0  0  3  0  0
   -1.0331    0.8208   -0.8176 C   0  0  0  0  0  0  0  0  0  4  0  0
   -1.0291    0.9057    0.7339 C   0  0  0  0  0  0  0  0  0  5  0  0
    0.2965    0.2159    1.1144 C   0  0  0  0  0  0  0  0  0  6  0  0
    1.2089    0.6487   -0.0422 C   0  0  0  0  0  0  0  0  0  7  0  0
    1.0637   -1.7498    1.1884 H   0  0  0  0  0  0  0  0  0  8  0  0
   -0.6451   -1.7838    1.3669 H   0  0  0  0  0  0  0  0  0  9  0  0
    0.9833   -1.9740   -1.0592 H   0  0  0  0  0  0  0  0  0 10  0  0
   -0.7708   -1.8361   -1.0849 H   0  0  0  0  0  0  0  0  0 11  0  0
    0.6222    0.2171   -2.1605 H   0  0  0  0  0  0  0  0  0 12  0  0
   -1.8988    0.2834   -1.2075 H   0  0  0  0  0  0  0  0  0 13  0  0
   -1.0387    1.8166   -1.2640 H   0  0  0  0  0  0  0  0  0 14  0  0
   -1.8887    0.4096    1.1862 H   0  0  0  0  0  0  0  0  0 15  0  0
   -1.0338    1.9437    1.0729 H   0  0  0  0  0  0  0  0  0 16  0  0
    0.6430    0.4510    2.1200 H   0  0  0  0  0  0  0  0  0 17  0  0
    2.1873    0.1649   -0.0197 H   0  0  0  0  0  0  0  0  0 18  0  0
    1.3436    1.7303   -0.1036 H   0  0  0  0  0  0  0  0  0 19  0  0
  1  8  1  0
  1  6  1  0
  1  9  1  0
  1  2  1  0
  2 11  1  0
  2  3  1  0
  2 10  1  0
  3  4  1  0
  3 12  1  0
  3  7  1  0
  4 14  1  0
  4  5  1  0
  4 13  1  0
  5 16  1  0
  5 15  1  0
  5  6  1  0
  6  7  1  0
  6 17  1  0
  7 18  1  0
  7 19  1  0
M  END
>  <rmg_smiles>  (1) 
C1CC2CCC1C2

>  <rmg_adjacency_list>  (1) 
1  C u0 p0 c0 {3,S} {5,S} {6,S} {8,S}
2  C u0 p0 c0 {3,S} {4,S} {7,S} {9,S}
3  C u0 p0 c0 {1,S} {2,S} {18,S} {19,S}
4  C u0 p0 c0 {2,S} {5,S} {10,S} {11,S}
5  C u0 p0 c0 {1,S} {4,S} {12,S} {13,S}
6  C u0 p0 c0 {1,S} {7,S} {14,S} {15,S}
7  C u0 p0 c0 {2,S} {6,S} {16,S} {17,S}
8  H u0 p0 c0 {1,S}
9  H u0 p0 c0 {2,S}
10 H u0 p0 c0 {4,S}
11 H u0 p0 c0 {4,S}
12 H u0 p0 c0 {5,S}
13 H u0 p0 c0 {5,S}
14 H u0 p0 c0 {6,S}
15 H u0 p0 c0 {6,S}
16 H u0 p0 c0 {7,S}
17 H u0 p0 c0 {7,S}
18 H u0 p0 c0 {3,S}
19 H u0 p0 c0 {3,S}


>  <multiplicity>  (1) 
1

>  <reaction>  (1) 
rxn_485

>  <type>  (1) 
r1h

>  <role_mapnums>  (1) 
{"r1h_a": 1, "r1h_h": 8}

>  <role_mapidx>  (1) 
{"r1h_a": 0, "r1h_h": 7}

>  <ordered_mapped_smiles>  (1) 
[C:1]1([H:8])([H:9])[C:2]([H:10])([H:11])[C:3]2([H:12])[C:4]([H:13])([H:14])[C:5]([H:15])([H:16])[C:6]1([H:17])[C:7]2([H:18])[H:19]

>  <mol_properties>  (1) 
{"0": {"label": "donator", "atom_type": "Cs"}, "7": {"label": "d_hydrogen", "atom_type": "H0"}}

>  <level_of_theory>  (1) 
wb97xd/def2tzvp

>  <lot_method>  (1) 
wb97xd

>  <lot_basis>  (1) 
def2tzvp

>  <spin_multiplicity>  (1) 
1.0

>  <optical_isomers>  (1) 
1.0

>  <modes>  (1) 
IdealGasTranslation(mass=(96.0939, 'amu')),         NonlinearRotor(             inertia = ([135.336, 156.085, 180.607

>  <frequency_value>  (1) 
unknown

>  <frequency_units>  (1) 
unknown

>  <frequency_list>  (1) 
unknown

>  <arkane_path>  (1) 
/home/calvin/Dropbox/PersonalFolders/Calvin/HAb_Converged/rxn_485/output/Species/rxn_485_C1CC2CCC1C2/arkane/output.py

>  <path_exists>  (1) 
True

>  <E0_value>  (1) 
-718893.5806331062

>  <E0_units>  (1) 
kJ/mol

>  <thermo_class>  (1) 
NASA

>  <Cp0_value>  (1) 
33.257888

>  <Cp0_units>  (1) 
J/(mol*K)

>  <CpInf_value>  (1) 
457.29596

>  <CpInf_units>  (1) 
J/(mol*K)

>  <Tmin_value>  (1) 
10.0

>  <Tmin_units>  (1) 
K

>  <Tmax_value>  (1) 
3000.0

>  <Tmax_units>  (1) 
K

>  <polynomials>  (1) 
[{"name": "polynomial1", "class": "NASAPolynomial", "Tmin_value": 10.0, "Tmin_units": "K", "Tmax_value": 662.4178125457627, "Tmax_units": "K", "coeffs": [4.239403585768697, -0.01836828814634063, 0.0002578950712714286, -3.7381328534857083e-07, 1.74409927807895e-10, -86462928.5201383, 9.87949578073462]}, {"name": "polynomial2", "class": "NASAPolynomial", "Tmin_value": 662.4178125457627, "Tmin_units": "K", "Tmax_value": 3000.0, "Tmax_units": "K", "coeffs": [-6.999983226389214, 0.08370637401899614, -5.070273549604008e-05, 1.4717426455763106e-08, -1.6436943039919863e-12, -86462189.9567335, 53.80936817756756]}]

>  <H298_value>  (1) 
-171815.58472962098

>  <H298_units>  (1) 
kcal/mol

>  <S298_value>  (1) 
73.63684385034063

>  <S298_units>  (1) 
cal/(mol*K)

>  <Cp_T_value_list>  (1) 
[26.348838520541374, 37.15309814493767, 47.10273015631388, 55.48382566754763, 68.31505323621754, 77.6548383777145, 91.07076230422987, 97.45683083224962, 100.88536523646154]

>  <Cp_T_units>  (1) 
cal/(mol*K)

>  <T_list>  (1) 
[300.0, 400.0, 500.0, 600.0, 800.0, 1000.0, 1500.0, 2000.0, 2400.0]

>  <T_units>  (1) 
K

>  <yaml_path>  (1) 
/home/calvin/Dropbox/PersonalFolders/Calvin/HAb_Converged/rxn_485/output/Species/rxn_485_C1CC2CCC1C2/rxn_485_C1CC2CCC1C2.yml

>  <frequencies_cm1>  (1) 
[154.85738595131997, 340.37586135643994, 406.75900844488, 450.69398052224, 546.52276066284, 762.7915963309199, 767.83883054112, 803.5128192785198, 822.9257867781599, 828.1927645185999, 886.4866029000799, 904.4231685559199, 936.7804033837599, 957.0723450043599, 964.2964135609999, 966.8990009972799, 969.81060277296, 1009.5017779225599, 1041.98261848616, 1088.6987196181199, 1128.4585646209198, 1135.50409155924, 1162.87589504476, 1186.2717140299999, 1234.53288685896, 1241.50287695876, 1269.37597037264, 1285.33484425632, 1285.7125284489198, 1300.5726846814, 1328.01315802012, 1340.8956224804401, 1342.91451616452, 1343.99949984508, 1472.87221334552, 1484.7314969931601, 1486.79845957448, 1493.51437121744, 1517.5419528521197, 3027.37228118988, 3027.8598371476, 3028.0795806778397, 3039.1354270430397, 3039.76032270716, 3064.0831847106, 3066.3286889102396, 3077.8514902772, 3080.41974278688, 3084.8970172155196, 3085.2334994962002, 3090.71335378156]

>  <ZPE_kJmol>  (1) 
462.7371032824111

>  <E_elec_kJmol>  (1) 
-719356.3177363885

>  <E0_minus_Eelec_plus_ZPE_kJmol>  (1) 
0.0

>  <rxn>  (1) 
rxn_485

>  <species_type>  (1) 
r1

>  <species_folder>  (1) 
rxn_485_C1CC2CCC1C2

>  <frequencies_cm1_list>  (1) 
[154.85738595131997, 340.37586135643994, 406.75900844488, 450.69398052224, 546.52276066284, 762.7915963309199, 767.83883054112, 803.5128192785198, 822.9257867781599, 828.1927645185999, 886.4866029000799, 904.4231685559199, 936.7804033837599, 957.0723450043599, 964.2964135609999, 966.8990009972799, 969.81060277296, 1009.5017779225599, 1041.98261848616, 1088.6987196181199, 1128.4585646209198, 1135.50409155924, 1162.87589504476, 1186.2717140299999, 1234.53288685896, 1241.50287695876, 1269.37597037264, 1285.33484425632, 1285.7125284489198, 1300.5726846814, 1328.01315802012, 1340.8956224804401, 1342.91451616452, 1343.99949984508, 1472.87221334552, 1484.7314969931601, 1486.79845957448, 1493.51437121744, 1517.5419528521197, 3027.37228118988, 3027.8598371476, 3028.0795806778397, 3039.1354270430397, 3039.76032270716, 3064.0831847106, 3066.3286889102396, 3077.8514902772, 3080.41974278688, 3084.8970172155196, 3085.2334994962002, 3090.71335378156]

>  <E0_kJmol>  (1) 
-718894

>  <H298_kJmol>  (1) 
-718876

$$$$

     RDKit          3D

  8  7  0  0  0  0  0  0  0  0999 V2000
    0.2842    0.4675    0.5226 C   0  0  0  0  0  0  0  0  0  1  0  0
   -0.2544   -0.4821   -0.5132 C   0  0  0  0  0  0  0  0  0  2  0  0
    1.2448    0.1295    0.9252 H   0  0  0  0  0  0  0  0  0  3  0  0
   -0.4040    0.5659    1.3649 H   0  0  0  0  0  0  0  0  0  4  0  0
    0.4399    1.4638    0.1033 H   0  0  0  0  0  0  0  0  0  5  0  0
   -0.5158   -1.4707   -0.1404 H   0  0  0  0  0  0  0  0  0  6  0  0
    0.3300   -0.5419   -1.4301 H   0  0  0  0  0  0  0  0  0  7  0  0
   -1.2073   -0.0766   -0.8492 H   0  0  0  0  0  0  0  0  0  8  0  0
  1  5  1  0
  1  4  1  0
  1  3  1  0
  1  2  1  0
  2  7  1  0
  2  8  1  0
  2  6  1  0
M  END
>  <rmg_smiles>  (2) 
CC

>  <rmg_adjacency_list>  (2) 
1 C u0 p0 c0 {2,S} {3,S} {4,S} {5,S}
2 C u0 p0 c0 {1,S} {6,S} {7,S} {8,S}
3 H u0 p0 c0 {1,S}
4 H u0 p0 c0 {1,S}
5 H u0 p0 c0 {1,S}
6 H u0 p0 c0 {2,S}
7 H u0 p0 c0 {2,S}
8 H u0 p0 c0 {2,S}


>  <multiplicity>  (2) 
1

>  <reaction>  (2) 
rxn_485

>  <type>  (2) 
r2h

>  <role_mapnums>  (2) 
{"r2h_a": 2, "r2h_h": 8}

>  <role_mapidx>  (2) 
{"r2h_a": 1, "r2h_h": 7}

>  <ordered_mapped_smiles>  (2) 
[C:1]([C:2]([H:6])([H:7])[H:8])([H:3])([H:4])[H:5]

>  <mol_properties>  (2) 
{"1": {"label": "acceptor", "atom_type": "Cs"}, "7": {"label": "a_hydrogen", "atom_type": "H0"}}

>  <level_of_theory>  (2) 
wb97xd/def2tzvp

>  <lot_method>  (2) 
wb97xd

>  <lot_basis>  (2) 
def2tzvp

>  <spin_multiplicity>  (2) 
1.0

>  <optical_isomers>  (2) 
1.0

>  <modes>  (2) 
IdealGasTranslation(mass=(30.0469, 'amu')),         NonlinearRotor(             inertia = ([6.25566, 25.1393, 25.1393

>  <frequency_value>  (2) 
unknown

>  <frequency_units>  (2) 
unknown

>  <frequency_list>  (2) 
unknown

>  <arkane_path>  (2) 
/home/calvin/Dropbox/PersonalFolders/Calvin/HAb_Converged/rxn_485/output/Species/rxn_485_CC/arkane/output.py

>  <path_exists>  (2) 
True

>  <E0_value>  (2) 
-209409.0952137841

>  <E0_units>  (2) 
kJ/mol

>  <thermo_class>  (2) 
NASA

>  <Cp0_value>  (2) 
33.257888

>  <Cp0_units>  (2) 
J/(mol*K)

>  <CpInf_value>  (2) 
182.918384

>  <CpInf_units>  (2) 
J/(mol*K)

>  <Tmin_value>  (2) 
10.0

>  <Tmin_units>  (2) 
K

>  <Tmax_value>  (2) 
3000.0

>  <Tmax_units>  (2) 
K

>  <polynomials>  (2) 
[{"name": "polynomial1", "class": "NASAPolynomial", "Tmin_value": 10.0, "Tmin_units": "K", "Tmax_value": 746.6686841225998, "Tmax_units": "K", "coeffs": [4.05949155328205, -0.003835565665241399, 5.3186040380635144e-05, -6.162047637406245e-08, 2.3242210517060023e-11, -25186098.42214424, 3.537324504259843]}, {"name": "polynomial2", "class": "NASAPolynomial", "Tmin_value": 746.6686841225998, "Tmin_units": "K", "Tmax_value": 3000.0, "Tmax_units": "K", "coeffs": [-1.046496014036793, 0.026500176421266477, -1.3747367898389822e-05, 3.490635384402257e-09, -3.493819827122593e-13, -25185419.059970565, 26.122432242478077]}]

>  <H298_value>  (2) 
-50047.2003571238

>  <H298_units>  (2) 
kcal/mol

>  <S298_value>  (2) 
54.420548043106656

>  <S298_units>  (2) 
cal/(mol*K)

>  <Cp_T_value_list>  (2) 
[12.360572544544063, 15.274308747535915, 18.259044378417013, 21.07888414556187, 25.832548078118208, 29.50517950077797, 35.34115403896942, 38.351806873475496, 39.80767330504735]

>  <Cp_T_units>  (2) 
cal/(mol*K)

>  <T_list>  (2) 
[300.0, 400.0, 500.0, 600.0, 800.0, 1000.0, 1500.0, 2000.0, 2400.0]

>  <T_units>  (2) 
K

>  <yaml_path>  (2) 
/home/calvin/Dropbox/PersonalFolders/Calvin/HAb_Converged/rxn_485/output/Species/rxn_485_CC/rxn_485_CC.yml

>  <frequencies_cm1>  (2) 
[304.49586305944, 822.3970289085198, 822.4107628791601, 1005.43652261312, 1210.79371860772, 1210.8005855930398, 1393.77140944444, 1414.4616362136, 1489.39418002544, 1489.4010470107598, 1490.3006220876798, 1490.3006220876798, 3015.21771717348, 3016.07609033848, 3072.8111230523195, 3072.8179900376404, 3096.4266855677993, 3096.4335525531196]

>  <ZPE_kJmol>  (2) 
194.47545128409476

>  <E_elec_kJmol>  (2) 
-209603.57066506823

>  <E0_minus_Eelec_plus_ZPE_kJmol>  (2) 
0.0

>  <rxn>  (2) 
rxn_485

>  <species_type>  (2) 
p0

>  <species_folder>  (2) 
rxn_485_CC

>  <frequencies_cm1_list>  (2) 
[304.49586305944, 822.3970289085198, 822.4107628791601, 1005.43652261312, 1210.79371860772, 1210.8005855930398, 1393.77140944444, 1414.4616362136, 1489.39418002544, 1489.4010470107598, 1490.3006220876798, 1490.3006220876798, 3015.21771717348, 3016.07609033848, 3072.8111230523195, 3072.8179900376404, 3096.4266855677993, 3096.4335525531196]

>  <E0_kJmol>  (2) 
-209409

>  <H298_kJmol>  (2) 
-209397

$$$$

     RDKit          3D

 26 26  0  0  0  0  0  0  0  0999 V2000
    2.3446   -0.9860    2.2157 C   0  0  0  0  0  0  0  0  0  1  0  0
    1.8060   -1.9356    1.1799 C   0  0  0  0  0  3  0  0  0  2  0  0
    3.3051   -1.3240    2.6182 H   0  0  0  0  0  0  0  0  0  3  0  0
    1.6563   -0.8876    3.0580 H   0  0  0  0  0  0  0  0  0  4  0  0
    2.5003    0.0103    1.7964 H   0  0  0  0  0  0  0  0  0  5  0  0
    1.5446   -2.9243    1.5527 H   0  0  0  0  0  0  0  0  0  6  0  0
    2.3904   -1.9954    0.2630 H   0  0  0  0  0  0  0  0  0  7  0  0
   -0.4941   -0.8456    0.3262 C   0  0  0  0  0  0  0  0  0  8  0  0
   -0.5064   -0.9517   -1.2027 C   0  0  0  0  0  0  0  0  0  9  0  0
   -0.3638    0.5169   -1.6389 C   0  0  0  0  0  0  0  0  0 10  0  0
   -1.6802    1.2458   -1.3235 C   0  0  0  0  0  0  0  0  0 11  0  0
   -1.6761    1.3307    0.2280 C   0  0  0  0  0  0  0  0  0 12  0  0
   -0.3506    0.6409    0.6085 C   0  0  0  0  0  0  0  0  0 13  0  0
    0.5618    1.0737   -0.5481 C   0  0  0  0  0  0  0  0  0 14  0  0
    0.6105   -1.4269    0.7583 H   0  0  0  0  0  0  0  0  0 15  0  0
   -1.2922   -1.3589    0.8610 H   0  0  0  0  0  0  0  0  0 16  0  0
    0.3362   -1.5491   -1.5651 H   0  0  0  0  0  0  0  0  0 17  0  0
   -1.4178   -1.4112   -1.5907 H   0  0  0  0  0  0  0  0  0 18  0  0
   -0.0249    0.6420   -2.6664 H   0  0  0  0  0  0  0  0  0 19  0  0
   -2.5459    0.7084   -1.7134 H   0  0  0  0  0  0  0  0  0 20  0  0
   -1.6858    2.2415   -1.7698 H   0  0  0  0  0  0  0  0  0 21  0  0
   -2.5358    0.8345    0.6803 H   0  0  0  0  0  0  0  0  0 22  0  0
   -1.6808    2.3686    0.5671 H   0  0  0  0  0  0  0  0  0 23  0  0
   -0.0041    0.8760    1.6141 H   0  0  0  0  0  0  0  0  0 24  0  0
    1.5402    0.5898   -0.5255 H   0  0  0  0  0  0  0  0  0 25  0  0
    0.6966    2.1553   -0.6094 H   0  0  0  0  0  0  0  0  0 26  0  0
  1  4  1  0
  1  3  1  0
  1  5  1  0
  1  2  1  0
  2  6  1  0
  2  7  1  0
  8 16  1  0
  8 13  1  0
  8  9  1  0
  8 15  1  0
  9 17  1  0
  9 18  1  0
  9 10  1  0
 10 14  1  0
 10 11  1  0
 10 19  1  0
 11 21  1  0
 11 12  1  0
 11 20  1  0
 12 22  1  0
 12 23  1  0
 12 13  1  0
 13 24  1  0
 13 14  1  0
 14 25  1  0
 14 26  1  0
M  RAD  1   2   2
M  END
>  <rmg_smiles>  (3) 
C1CC2CCC1C2.[CH2]C

>  <rmg_adjacency_list>  (3) 
multiplicity 2
1  C u0 p0 c0 {3,S} {5,S} {6,S} {10,S}
2  C u0 p0 c0 {3,S} {4,S} {7,S} {11,S}
3  C u0 p0 c0 {1,S} {2,S} {20,S} {21,S}
4  C u0 p0 c0 {2,S} {5,S} {12,S} {13,S}
5  C u0 p0 c0 {1,S} {4,S} {14,S} {15,S}
6  C u0 p0 c0 {1,S} {7,S} {16,S} {17,S}
7  C u0 p0 c0 {2,S} {6,S} {18,S} {19,S}
8  C u0 p0 c0 {9,S} {22,S} {23,S} {24,S}
9  C u1 p0 c0 {8,S} {25,S} {26,S}
10 H u0 p0 c0 {1,S}
11 H u0 p0 c0 {2,S}
12 H u0 p0 c0 {4,S}
13 H u0 p0 c0 {4,S}
14 H u0 p0 c0 {5,S}
15 H u0 p0 c0 {5,S}
16 H u0 p0 c0 {6,S}
17 H u0 p0 c0 {6,S}
18 H u0 p0 c0 {7,S}
19 H u0 p0 c0 {7,S}
20 H u0 p0 c0 {3,S}
21 H u0 p0 c0 {3,S}
22 H u0 p0 c0 {8,S}
23 H u0 p0 c0 {8,S}
24 H u0 p0 c0 {8,S}
25 H u0 p0 c0 {9,S}
26 H u0 p0 c0 {9,S}


>  <multiplicity>  (3) 
2

>  <reaction>  (3) 
rxn_485

>  <type>  (3) 
ts

>  <role_mapnums>  (3) 
{"*2": 15, "*1": 8, "*3": 2, "*0": 9, "*4": 1}

>  <role_mapidx>  (3) 
{"*2": 14, "*1": 7, "*3": 1, "*0": 8, "*4": 0}

>  <ordered_mapped_smiles>  (3) 
[C:1]([C:2]([H:6])[H:7])([H:3])([H:4])[H:5].[C:8]1([H:15])([H:16])[C:9]([H:17])([H:18])[C:10]2([H:19])[C:11]([H:20])([H:21])[C:12]([H:22])([H:23])[C:13]1([H:24])[C:14]2([H:25])[H:26]

>  <mol_properties>  (3) 
{"0": {"label": "*4", "atom_type": "Cs"}, "1": {"label": "*3", "atom_type": "Cs"}, "7": {"label": "*1", "atom_type": "Cs"}, "8": {"label": "*0", "atom_type": "Cs"}, "14": {"label": "*2", "atom_type": "H0"}}

>  <level_of_theory>  (3) 
wb97xd/def2tzvp

>  <lot_method>  (3) 
wb97xd

>  <lot_basis>  (3) 
def2tzvp

>  <spin_multiplicity>  (3) 
2.0

>  <optical_isomers>  (3) 
2.0

>  <modes>  (3) 
IdealGasTranslation(mass=(125.133, 'amu')),         NonlinearRotor(             inertia = ([168.454, 516.821, 556.928

>  <frequency_value>  (3) 
-1706.57

>  <frequency_units>  (3) 
cm^-1

>  <frequency_list>  (3) 
unknown

>  <arkane_path>  (3) 
/home/calvin/Dropbox/PersonalFolders/Calvin/HAb_Converged/rxn_485/output/rxns/TS0/arkane/output.py

>  <path_exists>  (3) 
True

>  <E0_value>  (3) 
-926522.0

>  <E0_units>  (3) 
kJ/mol

>  <thermo_class>  (3) 
unknown

>  <Cp0_value>  (3) 
unknown

>  <Cp0_units>  (3) 
unknown

>  <CpInf_value>  (3) 
unknown

>  <CpInf_units>  (3) 
unknown

>  <Tmin_value>  (3) 
unknown

>  <Tmin_units>  (3) 
unknown

>  <Tmax_value>  (3) 
unknown

>  <Tmax_units>  (3) 
unknown

>  <polynomials>  (3) 
unknown

>  <H298_value>  (3) 
unknown

>  <H298_units>  (3) 
unknown

>  <S298_value>  (3) 
unknown

>  <S298_units>  (3) 
unknown

>  <Cp_T_value_list>  (3) 
unknown

>  <Cp_T_units>  (3) 
unknown

>  <T_list>  (3) 
unknown

>  <T_units>  (3) 
unknown

>  <yaml_path>  (3) 
unknown

>  <frequencies_cm1>  (3) 
unknown

>  <ZPE_kJmol>  (3) 
unknown

>  <E_elec_kJmol>  (3) 
unknown

>  <E0_minus_Eelec_plus_ZPE_kJmol>  (3) 
unknown

>  <rxn>  (3) 
unknown

>  <species_type>  (3) 
unknown

>  <species_folder>  (3) 
unknown

>  <frequencies_cm1_list>  (3) 
[]

>  <ts_imag_freq_cm1>  (3) 
-1727.2962

>  <ts_freq_out_path>  (3) 
/home/calvin/Dropbox/PersonalFolders/Calvin/HAb_Converged/rxn_485/output/rxns/TS0/geometry/freq.out

>  <E0_kJmol>  (3) 
-926522

>  <H298_kJmol>  (3) 
unknown

$$$$

     RDKit          3D

 18 19  0  0  0  0  0  0  0  0999 V2000
    1.0085    0.0884    1.2095 C   0  0  0  0  0  3  0  0  0  1  0  0
    1.2139    1.0410    0.0690 C   0  0  0  0  0  0  0  0  0  2  0  0
    0.2881    0.4324   -1.0019 C   0  0  0  0  0  0  0  0  0  3  0  0
   -1.1714    0.6323   -0.5516 C   0  0  0  0  0  0  0  0  0  4  0  0
   -1.3278   -0.3670    0.6275 C   0  0  0  0  0  0  0  0  0  5  0  0
    0.0899   -0.9908    0.7354 C   0  0  0  0  0  0  0  0  0  6  0  0
    0.4790   -1.0703   -0.7525 C   0  0  0  0  0  0  0  0  0  7  0  0
    1.2161    0.3102    2.2471 H   0  0  0  0  0  0  0  0  0  8  0  0
    2.2567    1.0516   -0.2755 H   0  0  0  0  0  0  0  0  0  9  0  0
    0.9543    2.0764    0.3130 H   0  0  0  0  0  0  0  0  0 10  0  0
    0.4908    0.7813   -2.0131 H   0  0  0  0  0  0  0  0  0 11  0  0
   -1.8596    0.3913   -1.3630 H   0  0  0  0  0  0  0  0  0 12  0  0
   -1.3656    1.6639   -0.2546 H   0  0  0  0  0  0  0  0  0 13  0  0
   -1.6314    0.1167    1.5558 H   0  0  0  0  0  0  0  0  0 14  0  0
   -2.0651   -1.1401    0.3991 H   0  0  0  0  0  0  0  0  0 15  0  0
    0.1199   -1.9185    1.3041 H   0  0  0  0  0  0  0  0  0 16  0  0
   -0.2009   -1.6913   -1.3392 H   0  0  0  0  0  0  0  0  0 17  0  0
    1.5046   -1.4076   -0.9091 H   0  0  0  0  0  0  0  0  0 18  0  0
  1  8  1  0
  1  6  1  0
  1  2  1  0
  2  3  1  0
  2 10  1  0
  2  9  1  0
  3  4  1  0
  3 11  1  0
  3  7  1  0
  4 12  1  0
  4  5  1  0
  4 13  1  0
  5 14  1  0
  5 15  1  0
  5  6  1  0
  6  7  1  0
  6 16  1  0
  7 17  1  0
  7 18  1  0
M  RAD  1   1   2
M  END
>  <rmg_smiles>  (4) 
[CH]1CC2CCC1C2

>  <rmg_adjacency_list>  (4) 
multiplicity 2
1  C u0 p0 c0 {3,S} {4,S} {6,S} {8,S}
2  C u0 p0 c0 {3,S} {5,S} {7,S} {9,S}
3  C u0 p0 c0 {1,S} {2,S} {14,S} {15,S}
4  C u0 p0 c0 {1,S} {5,S} {10,S} {11,S}
5  C u0 p0 c0 {2,S} {4,S} {12,S} {13,S}
6  C u0 p0 c0 {1,S} {7,S} {16,S} {17,S}
7  C u1 p0 c0 {2,S} {6,S} {18,S}
8  H u0 p0 c0 {1,S}
9  H u0 p0 c0 {2,S}
10 H u0 p0 c0 {4,S}
11 H u0 p0 c0 {4,S}
12 H u0 p0 c0 {5,S}
13 H u0 p0 c0 {5,S}
14 H u0 p0 c0 {3,S}
15 H u0 p0 c0 {3,S}
16 H u0 p0 c0 {6,S}
17 H u0 p0 c0 {6,S}
18 H u0 p0 c0 {7,S}


>  <multiplicity>  (4) 
2

>  <reaction>  (4) 
rxn_485

>  <type>  (4) 
r1

>  <role_mapnums>  (4) 
{}

>  <role_mapidx>  (4) 
{}

>  <ordered_mapped_smiles>  (4) 
[C:1]1([H:8])[C:2]([H:9])([H:10])[C:3]2([H:11])[C:4]([H:12])([H:13])[C:5]([H:14])([H:15])[C:6]1([H:16])[C:7]2([H:17])[H:18]

>  <level_of_theory>  (4) 
wb97xd/def2tzvp

>  <lot_method>  (4) 
wb97xd

>  <lot_basis>  (4) 
def2tzvp

>  <spin_multiplicity>  (4) 
2.0

>  <optical_isomers>  (4) 
2.0

>  <modes>  (4) 
IdealGasTranslation(mass=(95.0861, 'amu')),         NonlinearRotor(             inertia = ([132.076, 151.536, 174.491

>  <frequency_value>  (4) 
unknown

>  <frequency_units>  (4) 
unknown

>  <frequency_list>  (4) 
unknown

>  <arkane_path>  (4) 
/home/calvin/Dropbox/PersonalFolders/Calvin/HAb_Converged/rxn_485/output/Species/rxn_485_[CH]1CC2CCC1C2/arkane/output.py

>  <path_exists>  (4) 
True

>  <E0_value>  (4) 
-717174.6605343558

>  <E0_units>  (4) 
kJ/mol

>  <thermo_class>  (4) 
NASA

>  <Cp0_value>  (4) 
33.257888

>  <Cp0_units>  (4) 
J/(mol*K)

>  <CpInf_value>  (4) 
432.352544

>  <CpInf_units>  (4) 
J/(mol*K)

>  <Tmin_value>  (4) 
10.0

>  <Tmin_units>  (4) 
K

>  <Tmax_value>  (4) 
3000.0

>  <Tmax_units>  (4) 
K

>  <polynomials>  (4) 
[{"name": "polynomial1", "class": "NASAPolynomial", "Tmin_value": 10.0, "Tmin_units": "K", "Tmax_value": 627.8575921144865, "Tmax_units": "K", "coeffs": [4.196860558820338, -0.016171105268722473, 0.00026078071603870495, -4.023045641305321e-07, 1.994526736098869e-10, -86256187.80409713, 11.805109187536795]}, {"name": "polynomial2", "class": "NASAPolynomial", "Tmin_value": 627.8575921144865, "Tmin_units": "K", "Tmax_value": 3000.0, "Tmax_units": "K", "coeffs": [-5.155123360865168, 0.0782768443570585, -4.816421106910532e-05, 1.418738663471415e-08, -1.605060631155765e-12, -86255700.7118907, 47.097238820075255]}]

>  <H298_value>  (4) 
-171404.61720790953

>  <H298_units>  (4) 
kcal/mol

>  <S298_value>  (4) 
78.13622956239406

>  <S298_units>  (4) 
cal/(mol*K)

>  <Cp_T_value_list>  (4) 
[26.964676953533466, 37.382989594264686, 46.66797183764434, 54.30346962845638, 66.07017706139216, 74.59940600620303, 86.73655345511231, 92.52402479168427, 95.69953412861575]

>  <Cp_T_units>  (4) 
cal/(mol*K)

>  <T_list>  (4) 
[300.0, 400.0, 500.0, 600.0, 800.0, 1000.0, 1500.0, 2000.0, 2400.0]

>  <T_units>  (4) 
K

>  <yaml_path>  (4) 
/home/calvin/Dropbox/PersonalFolders/Calvin/HAb_Converged/rxn_485/output/Species/rxn_485_[CH]1CC2CCC1C2/rxn_485_CH1CC2CCC1C2.yml

>  <frequencies_cm1>  (4) 
[193.92366543679998, 286.69663711, 376.72968164051997, 444.80210711767995, 471.88549721975994, 575.8310540086, 765.9023406808799, 775.8320014535999, 815.4819746912799, 831.9284045326799, 874.91573263588, 910.4386476962399, 914.8815871982799, 937.18555551764, 949.47059225512, 959.71613435256, 965.2715254764399, 1010.9919137369999, 1035.07443125424, 1037.4504081749599, 1108.18035697096, 1132.1530027230801, 1143.67580409004, 1182.37126636824, 1216.39031164352, 1247.2505436715999, 1266.38883175844, 1275.3365136304, 1286.14514852408, 1310.02165648172, 1334.4475232649597, 1339.6389641668798, 1349.2252756736, 1458.5751499092798, 1478.1460580712799, 1483.955527652, 1507.2689428133997, 2964.07241051012, 3015.2863870266797, 3024.7216248563595, 3032.1173680459997, 3039.44444138244, 3070.4488801022394, 3085.21976552556, 3086.5588276629596, 3090.45927532472, 3091.9356771685193, 3183.2528479538796]

>  <ZPE_kJmol>  (4) 
424.2981940261813

>  <E_elec_kJmol>  (4) 
-717598.958728382

>  <E0_minus_Eelec_plus_ZPE_kJmol>  (4) 
0.0

>  <rxn>  (4) 
rxn_485

>  <species_type>  (4) 
p1

>  <species_folder>  (4) 
rxn_485_[CH]1CC2CCC1C2

>  <frequencies_cm1_list>  (4) 
[193.92366543679998, 286.69663711, 376.72968164051997, 444.80210711767995, 471.88549721975994, 575.8310540086, 765.9023406808799, 775.8320014535999, 815.4819746912799, 831.9284045326799, 874.91573263588, 910.4386476962399, 914.8815871982799, 937.18555551764, 949.47059225512, 959.71613435256, 965.2715254764399, 1010.9919137369999, 1035.07443125424, 1037.4504081749599, 1108.18035697096, 1132.1530027230801, 1143.67580409004, 1182.37126636824, 1216.39031164352, 1247.2505436715999, 1266.38883175844, 1275.3365136304, 1286.14514852408, 1310.02165648172, 1334.4475232649597, 1339.6389641668798, 1349.2252756736, 1458.5751499092798, 1478.1460580712799, 1483.955527652, 1507.2689428133997, 2964.07241051012, 3015.2863870266797, 3024.7216248563595, 3032.1173680459997, 3039.44444138244, 3070.4488801022394, 3085.21976552556, 3086.5588276629596, 3090.45927532472, 3091.9356771685193, 3183.2528479538796]

>  <E0_kJmol>  (4) 
-717175

>  <H298_kJmol>  (4) 
-717157

$$$$

     RDKit          3D

  7  6  0  0  0  0  0  0  0  0999 V2000
   -0.6201    0.0189   -0.0017 C   0  0  0  0  0  0  0  0  0  1  0  0
    0.8589   -0.0553    0.0500 C   0  0  0  0  0  3  0  0  0  2  0  0
   -1.0738   -0.9730   -0.0559 H   0  0  0  0  0  0  0  0  0  3  0  0
   -0.9680    0.5706   -0.8872 H   0  0  0  0  0  0  0  0  0  4  0  0
   -1.0303    0.5369    0.8678 H   0  0  0  0  0  0  0  0  0  5  0  0
    1.3939   -0.8386   -0.4695 H   0  0  0  0  0  0  0  0  0  6  0  0
    1.4394    0.7404    0.4965 H   0  0  0  0  0  0  0  0  0  7  0  0
  1  5  1  0
  1  4  1  0
  1  3  1  0
  1  2  1  0
  2  7  1  0
  2  6  1  0
M  RAD  1   2   2
M  END
>  <rmg_smiles>  (5) 
C[CH2]

>  <rmg_adjacency_list>  (5) 
multiplicity 2
1 C u0 p0 c0 {2,S} {3,S} {4,S} {5,S}
2 C u1 p0 c0 {1,S} {6,S} {7,S}
3 H u0 p0 c0 {1,S}
4 H u0 p0 c0 {1,S}
5 H u0 p0 c0 {1,S}
6 H u0 p0 c0 {2,S}
7 H u0 p0 c0 {2,S}


>  <multiplicity>  (5) 
2

>  <reaction>  (5) 
rxn_485

>  <type>  (5) 
r2

>  <role_mapnums>  (5) 
{}

>  <role_mapidx>  (5) 
{}

>  <ordered_mapped_smiles>  (5) 
[C:1]([C:2]([H:6])[H:7])([H:3])([H:4])[H:5]

>  <level_of_theory>  (5) 
wb97xd/def2tzvp

>  <lot_method>  (5) 
wb97xd

>  <lot_basis>  (5) 
def2tzvp

>  <spin_multiplicity>  (5) 
2.0

>  <optical_isomers>  (5) 
1.0

>  <modes>  (5) 
IdealGasTranslation(mass=(29.0391, 'amu')),         NonlinearRotor(             inertia = ([4.86051, 22.0602, 23.8144

>  <frequency_value>  (5) 
unknown

>  <frequency_units>  (5) 
unknown

>  <frequency_list>  (5) 
unknown

>  <arkane_path>  (5) 
/home/calvin/Dropbox/PersonalFolders/Calvin/HAb_Converged/rxn_485/output/Species/rxn_485_C[CH2]/arkane/output.py

>  <path_exists>  (5) 
True

>  <E0_value>  (5) 
-207679.78865121285

>  <E0_units>  (5) 
kJ/mol

>  <thermo_class>  (5) 
NASA

>  <Cp0_value>  (5) 
33.257888

>  <Cp0_units>  (5) 
J/(mol*K)

>  <CpInf_value>  (5) 
157.97496800000002

>  <CpInf_units>  (5) 
J/(mol*K)

>  <Tmin_value>  (5) 
10.0

>  <Tmin_units>  (5) 
K

>  <Tmax_value>  (5) 
3000.0

>  <Tmax_units>  (5) 
K

>  <polynomials>  (5) 
[{"name": "polynomial1", "class": "NASAPolynomial", "Tmin_value": 10.0, "Tmin_units": "K", "Tmax_value": 487.87976470861213, "Tmax_units": "K", "coeffs": [3.9121871353579607, 0.009303342355112522, -1.0632548237956822e-05, 4.8831908404358495e-08, -4.7450160133634566e-11, -24978109.370781355, 5.932423398139755]}, {"name": "polynomial2", "class": "NASAPolynomial", "Tmin_value": 487.87976470861213, "Tmin_units": "K", "Tmax_value": 3000.0, "Tmax_units": "K", "coeffs": [1.255601804674027, 0.02015925973571526, -1.042095542288469e-05, 2.645655029251924e-09, -2.6467461504495006e-13, -24977720.132981308, 18.174806831505954]}]

>  <H298_value>  (5) 
-49633.563072244775

>  <H298_units>  (5) 
kcal/mol

>  <S298_value>  (5) 
61.32124798502571

>  <S298_units>  (5) 
cal/(mol*K)

>  <Cp_T_value_list>  (5) 
[13.275286080102546, 15.585331501205383, 17.97260864331377, 20.143861899983392, 23.766518336877798, 26.578661465366384, 31.07297867985595, 33.426295758137194, 34.588101279891]

>  <Cp_T_units>  (5) 
cal/(mol*K)

>  <T_list>  (5) 
[300.0, 400.0, 500.0, 600.0, 800.0, 1000.0, 1500.0, 2000.0, 2400.0]

>  <T_units>  (5) 
K

>  <yaml_path>  (5) 
/home/calvin/Dropbox/PersonalFolders/Calvin/HAb_Converged/rxn_485/output/Species/rxn_485_C[CH2]/rxn_485_CCH2.yml

>  <frequencies_cm1>  (5) 
[107.07690209476, 475.05117745227994, 809.2398850354, 971.27327064612, 1064.95268438156, 1183.6279246817999, 1386.8220203006, 1452.9442219468801, 1466.90480310244, 1470.74344789632, 2948.7315653052397, 3035.3173832051198, 3081.4978594821196, 3128.7358514984, 3230.1062887922394]

>  <ZPE_kJmol>  (5) 
154.3962225328414

>  <E_elec_kJmol>  (5) 
-207834.1848737457

>  <E0_minus_Eelec_plus_ZPE_kJmol>  (5) 
0.0

>  <rxn>  (5) 
rxn_485

>  <species_type>  (5) 
r0

>  <species_folder>  (5) 
rxn_485_C[CH2]

>  <frequencies_cm1_list>  (5) 
[107.07690209476, 475.05117745227994, 809.2398850354, 971.27327064612, 1064.95268438156, 1183.6279246817999, 1386.8220203006, 1452.9442219468801, 1466.90480310244, 1470.74344789632, 2948.7315653052397, 3035.3173832051198, 3081.4978594821196, 3128.7358514984, 3230.1062887922394]

>  <E0_kJmol>  (5) 
-207680

>  <H298_kJmol>  (5) 
-207667

$$$$
