
     RDKit          3D

  5  4  0  0  0  0  0  0  0  0999 V2000
   -0.0033   -0.0327   -0.0298 C   0  0  0  0  0  0  0  0  0  1  0  0
    0.1072    0.7893    0.6692 H   0  0  0  0  0  0  0  0  0  2  0  0
    0.6468   -0.7885    0.3975 H   0  0  0  0  0  0  0  0  0  3  0  0
   -1.0666   -0.2293    0.0613 H   0  0  0  0  0  0  0  0  0  4  0  0
    0.3193    0.3722   -0.9826 H   0  0  0  0  0  0  0  0  0  5  0  0
  1  3  1  0
  1  5  1  0
  1  4  1  0
  1  2  1  0
M  END
>  <rmg_smiles>  (1) 
C

>  <rmg_adjacency_list>  (1) 
1 C u0 p0 c0 {2,S} {3,S} {4,S} {5,S}
2 H u0 p0 c0 {1,S}
3 H u0 p0 c0 {1,S}
4 H u0 p0 c0 {1,S}
5 H u0 p0 c0 {1,S}


>  <multiplicity>  (1) 
1

>  <reaction>  (1) 
rxn_209

>  <type>  (1) 
r1h

>  <role_mapnums>  (1) 
{"r1h_a": 1, "r1h_h": 2}

>  <role_mapidx>  (1) 
{"r1h_a": 0, "r1h_h": 1}

>  <ordered_mapped_smiles>  (1) 
[C:1]([H:2])([H:3])([H:4])[H:5]

>  <mol_properties>  (1) 
{"0": {"label": "donator", "atom_type": "Cs"}, "1": {"label": "d_hydrogen", "atom_type": "H0"}}

>  <level_of_theory>  (1) 
wb97xd/def2tzvp

>  <lot_method>  (1) 
wb97xd

>  <lot_basis>  (1) 
def2tzvp

>  <spin_multiplicity>  (1) 
1.0

>  <optical_isomers>  (1) 
1.0

>  <modes>  (1) 
IdealGasTranslation(mass=(16.0313, 'amu')),         NonlinearRotor(             inertia = ([3.18679, 3.18679, 3.18679

>  <frequency_value>  (1) 
unknown

>  <frequency_units>  (1) 
unknown

>  <frequency_list>  (1) 
unknown

>  <arkane_path>  (1) 
/home/calvin/Dropbox/PersonalFolders/Calvin/HAb_Converged/rxn_209/output/Species/rxn_209_C/arkane/output.py

>  <path_exists>  (1) 
True

>  <E0_value>  (1) 
-106268.5262916272

>  <E0_units>  (1) 
kJ/mol

>  <thermo_class>  (1) 
NASA

>  <Cp0_value>  (1) 
33.257888

>  <Cp0_units>  (1) 
J/(mol*K)

>  <CpInf_value>  (1) 
108.088136

>  <CpInf_units>  (1) 
J/(mol*K)

>  <Tmin_value>  (1) 
10.0

>  <Tmin_units>  (1) 
K

>  <Tmax_value>  (1) 
3000.0

>  <Tmax_units>  (1) 
K

>  <polynomials>  (1) 
[{"name": "polynomial1", "class": "NASAPolynomial", "Tmin_value": 10.0, "Tmin_units": "K", "Tmax_value": 616.7595780986624, "Tmax_units": "K", "coeffs": [4.041420799946622, -0.002477807655966685, 1.1290457802459216e-05, 3.700688819348292e-09, -9.366412561864162e-12, -12781153.318458663, -0.42637433538586406]}, {"name": "polynomial2", "class": "NASAPolynomial", "Tmin_value": 616.7595780986624, "Tmin_units": "K", "Tmax_value": 3000.0, "Tmax_units": "K", "coeffs": [0.6800320423470843, 0.011684066325645743, -4.5749540261290126e-06, 7.694671628924811e-10, -3.8768177461555664e-14, -12780593.404419335, 15.343675764562182]}]

>  <H298_value>  (1) 
-25396.41264990868

>  <H298_units>  (1) 
kcal/mol

>  <S298_value>  (1) 
44.46392088520575

>  <S298_units>  (1) 
cal/(mol*K)

>  <Cp_T_value_list>  (1) 
[8.621039065772948, 9.645572285350525, 10.934239595808906, 12.330144838344452, 14.859142397339834, 16.9306880471269, 20.49440393107996, 22.423230884533538, 23.291918246513866]

>  <Cp_T_units>  (1) 
cal/(mol*K)

>  <T_list>  (1) 
[300.0, 400.0, 500.0, 600.0, 800.0, 1000.0, 1500.0, 2000.0, 2400.0]

>  <T_units>  (1) 
K

>  <yaml_path>  (1) 
/home/calvin/Dropbox/PersonalFolders/Calvin/HAb_Converged/rxn_209/output/Species/rxn_209_C/rxn_209_C.yml

>  <frequencies_cm1>  (1) 
[1326.5504901469599, 1326.5504901469599, 1326.5504901469599, 1542.24249904816, 1542.24249904816, 3008.8382878112, 3127.32125252248, 3127.32125252248, 3127.32125252248]

>  <ZPE_kJmol>  (1) 
116.36640738144024

>  <E_elec_kJmol>  (1) 
-106384.89269900863

>  <E0_minus_Eelec_plus_ZPE_kJmol>  (1) 
0.0

>  <rxn>  (1) 
rxn_209

>  <species_type>  (1) 
r1

>  <species_folder>  (1) 
rxn_209_C

>  <frequencies_cm1_list>  (1) 
[1326.5504901469599, 1326.5504901469599, 1326.5504901469599, 1542.24249904816, 1542.24249904816, 3008.8382878112, 3127.32125252248, 3127.32125252248, 3127.32125252248]

>  <E0_kJmol>  (1) 
-106269

>  <H298_kJmol>  (1) 
-106259

$$$$

     RDKit          3D

  7  6  0  0  0  0  0  0  0  0999 V2000
   -0.6536    0.8242   -0.5785 C   0  0  0  0  0  0  0  0  0  1  0  0
   -0.3681   -0.1600    0.3914 O   0  0  0  0  0  0  0  0  0  2  0  0
    0.9434   -0.5710    0.2281 O   0  0  0  0  0  0  0  0  0  3  0  0
   -0.6145    0.3993   -1.5871 H   0  0  0  0  0  0  0  0  0  4  0  0
   -1.6669    1.1620   -0.3607 H   0  0  0  0  0  0  0  0  0  5  0  0
    0.0460    1.6592   -0.5027 H   0  0  0  0  0  0  0  0  0  6  0  0
    0.8951   -1.3056   -0.3880 H   0  0  0  0  0  0  0  0  0  7  0  0
  1  5  1  0
  1  2  1  0
  1  4  1  0
  1  6  1  0
  2  3  1  0
  3  7  1  0
M  END
>  <rmg_smiles>  (2) 
COO

>  <rmg_adjacency_list>  (2) 
1 O u0 p2 c0 {2,S} {3,S}
2 O u0 p2 c0 {1,S} {7,S}
3 C u0 p0 c0 {1,S} {4,S} {5,S} {6,S}
4 H u0 p0 c0 {3,S}
5 H u0 p0 c0 {3,S}
6 H u0 p0 c0 {3,S}
7 H u0 p0 c0 {2,S}


>  <multiplicity>  (2) 
1

>  <reaction>  (2) 
rxn_209

>  <type>  (2) 
r2h

>  <role_mapnums>  (2) 
{"r2h_a": 3, "r2h_h": 7}

>  <role_mapidx>  (2) 
{"r2h_a": 2, "r2h_h": 6}

>  <ordered_mapped_smiles>  (2) 
[C:1]([O:2][O:3][H:7])([H:4])([H:5])[H:6]

>  <mol_properties>  (2) 
{"2": {"label": "acceptor", "atom_type": "O2s"}, "6": {"label": "a_hydrogen", "atom_type": "H0"}}

>  <level_of_theory>  (2) 
wb97xd/def2tzvp

>  <lot_method>  (2) 
wb97xd

>  <lot_basis>  (2) 
def2tzvp

>  <spin_multiplicity>  (2) 
1.0

>  <optical_isomers>  (2) 
2.0

>  <modes>  (2) 
IdealGasTranslation(mass=(48.0211, 'amu')),         NonlinearRotor(             inertia = ([11.4023, 47.567, 54.3178

>  <frequency_value>  (2) 
unknown

>  <frequency_units>  (2) 
unknown

>  <frequency_list>  (2) 
unknown

>  <arkane_path>  (2) 
/home/calvin/Dropbox/PersonalFolders/Calvin/HAb_Converged/rxn_209/output/Species/rxn_209_COO/arkane/output.py

>  <path_exists>  (2) 
True

>  <E0_value>  (2) 
-500996.37068336905

>  <E0_units>  (2) 
kJ/mol

>  <thermo_class>  (2) 
NASA

>  <Cp0_value>  (2) 
33.257888

>  <Cp0_units>  (2) 
J/(mol*K)

>  <CpInf_value>  (2) 
157.97496800000002

>  <CpInf_units>  (2) 
J/(mol*K)

>  <Tmin_value>  (2) 
10.0

>  <Tmin_units>  (2) 
K

>  <Tmax_value>  (2) 
3000.0

>  <Tmax_units>  (2) 
K

>  <polynomials>  (2) 
[{"name": "polynomial1", "class": "NASAPolynomial", "Tmin_value": 10.0, "Tmin_units": "K", "Tmax_value": 838.5949652474656, "Tmax_units": "K", "coeffs": [3.8926443728626077, 0.009079617057146893, 1.4077594363309796e-05, -2.146343128221017e-08, 8.342945567828501e-12, -60255944.33113838, 7.728034520387312]}, {"name": "polynomial2", "class": "NASAPolynomial", "Tmin_value": 838.5949652474656, "Tmin_units": "K", "Tmax_value": 3000.0, "Tmax_units": "K", "coeffs": [2.424951820258174, 0.019415537920099646, -1.0376022054546496e-05, 2.719325617933143e-09, -2.8021762590741595e-13, -60255815.44373704, 13.851228259507778]}]

>  <H298_value>  (2) 
-119737.72749637083

>  <H298_units>  (2) 
kcal/mol

>  <S298_value>  (2) 
65.70242811461199

>  <S298_units>  (2) 
cal/(mol*K)

>  <Cp_T_value_list>  (2) 
[14.648848115750306, 17.123412840200732, 19.455460441127553, 21.5681321787005, 25.026862972497845, 27.62927597353183, 31.71846133727489, 33.8283402102642, 34.87818629343292]

>  <Cp_T_units>  (2) 
cal/(mol*K)

>  <T_list>  (2) 
[300.0, 400.0, 500.0, 600.0, 800.0, 1000.0, 1500.0, 2000.0, 2400.0]

>  <T_units>  (2) 
K

>  <yaml_path>  (2) 
/home/calvin/Dropbox/PersonalFolders/Calvin/HAb_Converged/rxn_209/output/Species/rxn_209_COO/rxn_209_COO.yml

>  <frequencies_cm1>  (2) 
[198.65501832228, 250.41148667912, 460.30775997024, 925.7657589304799, 1080.95962716248, 1168.36261631544, 1210.90359037284, 1386.59540978504, 1442.64374396688, 1454.0086046714798, 1497.71009924796, 2988.7866906767995, 3061.27458771472, 3102.9846565484, 3780.3372215278796]

>  <ZPE_kJmol>  (2) 
143.60998000405402

>  <E_elec_kJmol>  (2) 
-501139.98066337314

>  <E0_minus_Eelec_plus_ZPE_kJmol>  (2) 
0.0

>  <rxn>  (2) 
rxn_209

>  <species_type>  (2) 
p0

>  <species_folder>  (2) 
rxn_209_COO

>  <frequencies_cm1_list>  (2) 
[198.65501832228, 250.41148667912, 460.30775997024, 925.7657589304799, 1080.95962716248, 1168.36261631544, 1210.90359037284, 1386.59540978504, 1442.64374396688, 1454.0086046714798, 1497.71009924796, 2988.7866906767995, 3061.27458771472, 3102.9846565484, 3780.3372215278796]

>  <E0_kJmol>  (2) 
-500996

>  <H298_kJmol>  (2) 
-500983

$$$$

     RDKit          3D

 11  9  0  0  0  0  0  0  0  0999 V2000
   -0.7697    1.4060    0.0481 C   0  0  0  0  0  0  0  0  0  1  0  0
   -0.4842    0.4217    1.0180 O   0  0  0  0  0  0  0  0  0  2  0  0
    0.8274    0.0107    0.8547 O   0  0  0  0  0  0  0  0  0  3  0  0
   -0.7306    0.9811   -0.9605 H   0  0  0  0  0  0  0  0  0  4  0  0
   -1.7830    1.7437    0.2659 H   0  0  0  0  0  0  0  0  0  5  0  0
   -0.0701    2.2409    0.1239 H   0  0  0  0  0  0  0  0  0  6  0  0
    0.6271   -1.9185   -0.7757 C   0  0  0  0  0  3  0  0  0  7  0  0
    0.7707   -0.8504    0.1325 H   0  0  0  0  0  0  0  0  0  8  0  0
    1.2772   -2.6742   -0.3485 H   0  0  0  0  0  0  0  0  0  9  0  0
   -0.4362   -2.1151   -0.6846 H   0  0  0  0  0  0  0  0  0 10  0  0
    0.9497   -1.5135   -1.7286 H   0  0  0  0  0  0  0  0  0 11  0  0
  1  5  1  0
  1  2  1  0
  1  4  1  0
  1  6  1  0
  2  3  1  0
  3  8  1  0
  7 11  1  0
  7  9  1  0
  7 10  1  0
M  RAD  1   7   2
M  END
>  <rmg_smiles>  (3) 
COO.[CH3]

>  <rmg_adjacency_list>  (3) 
multiplicity 2
1  O u0 p2 c0 {2,S} {3,S}
2  O u0 p2 c0 {1,S} {11,S}
3  C u0 p0 c0 {1,S} {5,S} {6,S} {7,S}
4  C u1 p0 c0 {8,S} {9,S} {10,S}
5  H u0 p0 c0 {3,S}
6  H u0 p0 c0 {3,S}
7  H u0 p0 c0 {3,S}
8  H u0 p0 c0 {4,S}
9  H u0 p0 c0 {4,S}
10 H u0 p0 c0 {4,S}
11 H u0 p0 c0 {2,S}


>  <multiplicity>  (3) 
2

>  <reaction>  (3) 
rxn_209

>  <type>  (3) 
ts

>  <role_mapnums>  (3) 
{"*2": 8, "*1": 7, "*3": 3, "*0": 2, "*4": 9}

>  <role_mapidx>  (3) 
{"*2": 7, "*1": 6, "*3": 2, "*0": 1, "*4": 8}

>  <ordered_mapped_smiles>  (3) 
[C:1]([O:2][O:3][H:8])([H:4])([H:5])[H:6].[C:7]([H:9])([H:10])[H:11]

>  <mol_properties>  (3) 
{"1": {"label": "*0", "atom_type": "O2s"}, "2": {"label": "*3", "atom_type": "O2s"}, "6": {"label": "*1", "atom_type": "Cs"}, "7": {"label": "*2", "atom_type": "H0"}, "8": {"label": "*4", "atom_type": "H0"}}

>  <level_of_theory>  (3) 
wb97xd/def2tzvp

>  <lot_method>  (3) 
wb97xd

>  <lot_basis>  (3) 
def2tzvp

>  <spin_multiplicity>  (3) 
2.0

>  <optical_isomers>  (3) 
2.0

>  <modes>  (3) 
IdealGasTranslation(mass=(63.0446, 'amu')),         NonlinearRotor(             inertia = ([39.0965, 133.673, 153.15

>  <frequency_value>  (3) 
-1817.69

>  <frequency_units>  (3) 
cm^-1

>  <frequency_list>  (3) 
unknown

>  <arkane_path>  (3) 
/home/calvin/Dropbox/PersonalFolders/Calvin/HAb_Converged/rxn_209/output/rxns/TS0/arkane/output.py

>  <path_exists>  (3) 
True

>  <E0_value>  (3) 
-605506.0

>  <E0_units>  (3) 
kJ/mol

>  <thermo_class>  (3) 
unknown

>  <Cp0_value>  (3) 
unknown

>  <Cp0_units>  (3) 
unknown

>  <CpInf_value>  (3) 
unknown

>  <CpInf_units>  (3) 
unknown

>  <Tmin_value>  (3) 
unknown

>  <Tmin_units>  (3) 
unknown

>  <Tmax_value>  (3) 
unknown

>  <Tmax_units>  (3) 
unknown

>  <polynomials>  (3) 
unknown

>  <H298_value>  (3) 
unknown

>  <H298_units>  (3) 
unknown

>  <S298_value>  (3) 
unknown

>  <S298_units>  (3) 
unknown

>  <Cp_T_value_list>  (3) 
unknown

>  <Cp_T_units>  (3) 
unknown

>  <T_list>  (3) 
unknown

>  <T_units>  (3) 
unknown

>  <yaml_path>  (3) 
unknown

>  <frequencies_cm1>  (3) 
unknown

>  <ZPE_kJmol>  (3) 
unknown

>  <E_elec_kJmol>  (3) 
unknown

>  <E0_minus_Eelec_plus_ZPE_kJmol>  (3) 
unknown

>  <rxn>  (3) 
unknown

>  <species_type>  (3) 
unknown

>  <species_folder>  (3) 
unknown

>  <frequencies_cm1_list>  (3) 
[]

>  <ts_imag_freq_cm1>  (3) 
-1839.7658

>  <ts_freq_out_path>  (3) 
/home/calvin/Dropbox/PersonalFolders/Calvin/HAb_Converged/rxn_209/output/rxns/TS0/geometry/freq.out

>  <E0_kJmol>  (3) 
-605506

>  <H298_kJmol>  (3) 
unknown

$$$$

     RDKit          3D

  4  3  0  0  0  0  0  0  0  0999 V2000
    0.0000    0.0000    0.0000 C   0  0  0  0  0  3  0  0  0  1  0  0
    1.0638   -0.1747    0.0540 H   0  0  0  0  0  0  0  0  0  2  0  0
   -0.6833   -0.8351   -0.0280 H   0  0  0  0  0  0  0  0  0  3  0  0
   -0.3805    1.0098   -0.0260 H   0  0  0  0  0  0  0  0  0  4  0  0
  1  3  1  0
  1  4  1  0
  1  2  1  0
M  RAD  1   1   2
M  END
>  <rmg_smiles>  (4) 
[CH3]

>  <rmg_adjacency_list>  (4) 
multiplicity 2
1 C u1 p0 c0 {2,S} {3,S} {4,S}
2 H u0 p0 c0 {1,S}
3 H u0 p0 c0 {1,S}
4 H u0 p0 c0 {1,S}


>  <multiplicity>  (4) 
2

>  <reaction>  (4) 
rxn_209

>  <type>  (4) 
r1

>  <role_mapnums>  (4) 
{}

>  <role_mapidx>  (4) 
{}

>  <ordered_mapped_smiles>  (4) 
[C:1]([H:2])([H:3])[H:4]

>  <level_of_theory>  (4) 
wb97xd/def2tzvp

>  <lot_method>  (4) 
wb97xd

>  <lot_basis>  (4) 
def2tzvp

>  <spin_multiplicity>  (4) 
2.0

>  <optical_isomers>  (4) 
1.0

>  <modes>  (4) 
IdealGasTranslation(mass=(15.0235, 'amu')),         NonlinearRotor(             inertia = ([1.76141, 1.76141, 3.52282

>  <frequency_value>  (4) 
unknown

>  <frequency_units>  (4) 
unknown

>  <frequency_list>  (4) 
unknown

>  <arkane_path>  (4) 
/home/calvin/Dropbox/PersonalFolders/Calvin/HAb_Converged/rxn_209/output/Species/rxn_209_[CH3]/arkane/output.py

>  <path_exists>  (4) 
True

>  <E0_value>  (4) 
-104520.13119505512

>  <E0_units>  (4) 
kJ/mol

>  <thermo_class>  (4) 
NASA

>  <Cp0_value>  (4) 
33.257888

>  <Cp0_units>  (4) 
J/(mol*K)

>  <CpInf_value>  (4) 
83.14472

>  <CpInf_units>  (4) 
J/(mol*K)

>  <Tmin_value>  (4) 
10.0

>  <Tmin_units>  (4) 
K

>  <Tmax_value>  (4) 
3000.0

>  <Tmax_units>  (4) 
K

>  <polynomials>  (4) 
[{"name": "polynomial1", "class": "NASAPolynomial", "Tmin_value": 10.0, "Tmin_units": "K", "Tmax_value": 646.6680568167106, "Tmax_units": "K", "coeffs": [3.9912271000461548, 0.0004274218009639198, 9.38132315134313e-06, -1.0944874554220949e-08, 4.263406085556096e-12, -12570867.748368958, 0.20527673099681187]}, {"name": "polynomial2", "class": "NASAPolynomial", "Tmin_value": 646.6680568167106, "Tmin_units": "K", "Tmax_value": 3000.0, "Tmax_units": "K", "coeffs": [3.2488827598675174, 0.0050187516265713635, -1.2675301815554908e-06, 3.215102013021586e-11, 2.0164394281080815e-14, -12570771.728238096, 3.4631324604304954]}]

>  <H298_value>  (4) 
-24978.383291331436

>  <H298_units>  (4) 
kcal/mol

>  <S298_value>  (4) 
46.49953999396709

>  <S298_units>  (4) 
cal/(mol*K)

>  <Cp_T_value_list>  (4) 
[9.345424201068383, 10.07887042200736, 10.827537754048599, 11.552428339520182, 12.871902382304132, 14.014614114932202, 16.167234911840477, 17.479674567657305, 18.096247059343543]

>  <Cp_T_units>  (4) 
cal/(mol*K)

>  <T_list>  (4) 
[300.0, 400.0, 500.0, 600.0, 800.0, 1000.0, 1500.0, 2000.0, 2400.0]

>  <T_units>  (4) 
K

>  <yaml_path>  (4) 
/home/calvin/Dropbox/PersonalFolders/Calvin/HAb_Converged/rxn_209/output/Species/rxn_209_[CH3]/rxn_209_CH3.yml

>  <frequencies_cm1>  (4) 
[520.22220688724, 1393.4280601784399, 1393.43492716376, 3088.8592677451597, 3268.6163424668, 3268.6232094521197]

>  <ZPE_kJmol>  (4) 
77.35764153782172

>  <E_elec_kJmol>  (4) 
-104597.48883659294

>  <E0_minus_Eelec_plus_ZPE_kJmol>  (4) 
0.0

>  <rxn>  (4) 
rxn_209

>  <species_type>  (4) 
p1

>  <species_folder>  (4) 
rxn_209_[CH3]

>  <frequencies_cm1_list>  (4) 
[520.22220688724, 1393.4280601784399, 1393.43492716376, 3088.8592677451597, 3268.6163424668, 3268.6232094521197]

>  <E0_kJmol>  (4) 
-104520

>  <H298_kJmol>  (4) 
-104510

$$$$

     RDKit          3D

  6  5  0  0  0  0  0  0  0  0999 V2000
   -0.4344    0.0212    0.0006 C   0  0  0  0  0  0  0  0  0  1  0  0
    0.8754    0.5852   -0.1558 O   0  0  0  0  0  0  0  0  0  2  0  0
    1.8009   -0.3034    0.0506 O   0  0  0  0  0  1  0  0  0  3  0  0
   -0.5437   -0.3548    1.0170 H   0  0  0  0  0  0  0  0  0  4  0  0
   -1.1312    0.8347   -0.1903 H   0  0  0  0  0  0  0  0  0  5  0  0
   -0.5670   -0.7829   -0.7220 H   0  0  0  0  0  0  0  0  0  6  0  0
  1  6  1  0
  1  5  1  0
  1  4  1  0
  1  2  1  0
  2  3  1  0
M  RAD  1   3   2
M  END
>  <rmg_smiles>  (5) 
CO[O]

>  <rmg_adjacency_list>  (5) 
multiplicity 2
1 O u0 p2 c0 {2,S} {3,S}
2 O u1 p2 c0 {1,S}
3 C u0 p0 c0 {1,S} {4,S} {5,S} {6,S}
4 H u0 p0 c0 {3,S}
5 H u0 p0 c0 {3,S}
6 H u0 p0 c0 {3,S}


>  <multiplicity>  (5) 
2

>  <reaction>  (5) 
rxn_209

>  <type>  (5) 
r2

>  <role_mapnums>  (5) 
{}

>  <role_mapidx>  (5) 
{}

>  <ordered_mapped_smiles>  (5) 
[C:1]([O:2][O:3])([H:4])([H:5])[H:6]

>  <level_of_theory>  (5) 
wb97xd/def2tzvp

>  <lot_method>  (5) 
wb97xd

>  <lot_basis>  (5) 
def2tzvp

>  <spin_multiplicity>  (5) 
2.0

>  <optical_isomers>  (5) 
1.0

>  <modes>  (5) 
IdealGasTranslation(mass=(47.0133, 'amu')),         NonlinearRotor(             inertia = ([9.40664, 43.9235, 50.0969

>  <frequency_value>  (5) 
unknown

>  <frequency_units>  (5) 
unknown

>  <frequency_list>  (5) 
unknown

>  <arkane_path>  (5) 
/home/calvin/Dropbox/PersonalFolders/Calvin/HAb_Converged/rxn_209/output/Species/rxn_209_CO[O]/arkane/output.py

>  <path_exists>  (5) 
True

>  <E0_value>  (5) 
-499346.9973631375

>  <E0_units>  (5) 
kJ/mol

>  <thermo_class>  (5) 
NASA

>  <Cp0_value>  (5) 
33.257888

>  <Cp0_units>  (5) 
J/(mol*K)

>  <CpInf_value>  (5) 
133.031552

>  <CpInf_units>  (5) 
J/(mol*K)

>  <Tmin_value>  (5) 
10.0

>  <Tmin_units>  (5) 
K

>  <Tmax_value>  (5) 
3000.0

>  <Tmax_units>  (5) 
K

>  <polynomials>  (5) 
[{"name": "polynomial1", "class": "NASAPolynomial", "Tmin_value": 10.0, "Tmin_units": "K", "Tmax_value": 501.084150905133, "Tmax_units": "K", "coeffs": [3.977726295223183, 0.0012447421558763674, 3.797778277376904e-05, -6.034634030487068e-08, 3.1055886574502375e-11, -60057570.17193063, 8.012420918260052]}, {"name": "polynomial2", "class": "NASAPolynomial", "Tmin_value": 501.084150905133, "Tmin_units": "K", "Tmax_value": 3000.0, "Tmax_units": "K", "coeffs": [2.0044843309188844, 0.016996245529262752, -9.173655620434641e-06, 2.3851149939042196e-09, -2.4142600516931244e-13, -60057372.41638915, 16.168734393962772]}]

>  <H298_value>  (5) 
-119343.87017461388

>  <H298_units>  (5) 
kcal/mol

>  <S298_value>  (5) 
64.10732748835879

>  <S298_units>  (5) 
cal/(mol*K)

>  <Cp_T_value_list>  (5) 
[12.700934027862079, 14.874108149094356, 16.87584137047918, 18.647174080348332, 21.56642074844516, 23.788378509044545, 27.196255239801676, 28.85514610257635, 29.64338089676258]

>  <Cp_T_units>  (5) 
cal/(mol*K)

>  <T_list>  (5) 
[300.0, 400.0, 500.0, 600.0, 800.0, 1000.0, 1500.0, 2000.0, 2400.0]

>  <T_units>  (5) 
K

>  <yaml_path>  (5) 
/home/calvin/Dropbox/PersonalFolders/Calvin/HAb_Converged/rxn_209/output/Species/rxn_209_CO[O]/rxn_209_COO.yml

>  <frequencies_cm1>  (5) 
[136.11738301303998, 503.54229954496, 947.5135014389199, 1128.13581631088, 1182.0279171022398, 1265.29011410724, 1439.9312847654799, 1461.6721602886, 1472.47392819696, 3031.17659105716, 3125.4328315594803, 3142.8406393456794]

>  <ZPE_kJmol>  (5) 
112.66525579648996

>  <E_elec_kJmol>  (5) 
-499459.662618934

>  <E0_minus_Eelec_plus_ZPE_kJmol>  (5) 
0.0

>  <rxn>  (5) 
rxn_209

>  <species_type>  (5) 
r0

>  <species_folder>  (5) 
rxn_209_CO[O]

>  <frequencies_cm1_list>  (5) 
[136.11738301303998, 503.54229954496, 947.5135014389199, 1128.13581631088, 1182.0279171022398, 1265.29011410724, 1439.9312847654799, 1461.6721602886, 1472.47392819696, 3031.17659105716, 3125.4328315594803, 3142.8406393456794]

>  <E0_kJmol>  (5) 
-499347

>  <H298_kJmol>  (5) 
-499335

$$$$
