
     RDKit          3D

  7  7  0  0  0  0  0  0  0  0999 V2000
    0.7823   -0.0244    1.8515 N   0  0  0  0  0  0  0  0  0  1  0  0
    0.2901   -0.0216    0.7073 C   0  0  0  0  0  0  0  0  0  2  0  0
    0.5983    0.8703   -0.2748 O   0  0  0  0  0  0  0  0  0  3  0  0
   -0.1521    0.5321   -1.3787 N   0  0  0  0  0  0  0  0  0  4  0  0
   -0.8503   -0.4389   -1.1375 N   0  0  0  0  0  0  0  0  0  5  0  0
   -0.6445   -0.8551    0.1626 O   0  0  0  0  0  0  0  0  0  6  0  0
    0.4158   -0.7801    2.4648 H   0  0  0  0  0  0  0  0  0  7  0  0
  1  2  1  0
  1  7  1  0
  2  3  1  0
  2  6  1  0
  3  4  1  0
  4  5  1  0
  5  6  1  0
M  END
>  <rmg_smiles>  (1) 
[NH][C]1O[N][N]O1

>  <rmg_adjacency_list>  (1) 
1 O u0 p2 c0 {3,S} {6,S}
2 O u0 p2 c0 {4,S} {6,S}
3 N u0 p1 c0 {1,S} {4,S}
4 N u0 p1 c0 {2,S} {3,S}
5 N u0 p1 c0 {6,S} {7,S}
6 C u0 p0 c0 {1,S} {2,S} {5,S}
7 H u0 p0 c0 {5,S}


>  <multiplicity>  (1) 
1

>  <reaction>  (1) 
rxn_3242

>  <type>  (1) 
r1h

>  <role_mapnums>  (1) 
{"r1h_a": 1, "r1h_h": 7}

>  <role_mapidx>  (1) 
{"r1h_a": 0, "r1h_h": 6}

>  <ordered_mapped_smiles>  (1) 
[NH:1]([CH:2]1[O:3][NH:4][NH:5][O:6]1)[H:7]

>  <mol_properties>  (1) 
{"0": {"label": "donator", "atom_type": "N3s"}, "6": {"label": "d_hydrogen", "atom_type": "H0"}}

>  <level_of_theory>  (1) 
wb97xd/def2tzvp

>  <lot_method>  (1) 
wb97xd

>  <lot_basis>  (1) 
def2tzvp

>  <spin_multiplicity>  (1) 
1.0

>  <optical_isomers>  (1) 
1.0

>  <modes>  (1) 
IdealGasTranslation(mass=(87.0069, 'amu')),         NonlinearRotor(             inertia = ([48.8575, 120.721, 169.578

>  <frequency_value>  (1) 
unknown

>  <frequency_units>  (1) 
unknown

>  <frequency_list>  (1) 
unknown

>  <arkane_path>  (1) 
/home/calvin/Dropbox/PersonalFolders/Calvin/ATLAS_Converged/NonRMG/rxn_3242/output/Species/rxn_3242_r2_N=c1onno1/arkane/output.py

>  <path_exists>  (1) 
True

>  <E0_value>  (1) 
-927513.3956974436

>  <E0_units>  (1) 
kJ/mol

>  <thermo_class>  (1) 
NASA

>  <Cp0_value>  (1) 
33.257888

>  <Cp0_units>  (1) 
J/(mol*K)

>  <CpInf_value>  (1) 
157.97496800000002

>  <CpInf_units>  (1) 
J/(mol*K)

>  <Tmin_value>  (1) 
10.0

>  <Tmin_units>  (1) 
K

>  <Tmax_value>  (1) 
3000.0

>  <Tmax_units>  (1) 
K

>  <polynomials>  (1) 
[{"name": "polynomial1", "class": "NASAPolynomial", "Tmin_value": 10.0, "Tmin_units": "K", "Tmax_value": 594.5510705426203, "Tmax_units": "K", "coeffs": [4.064128165333628, -0.006464132682369532, 0.00012609118943386684, -2.2452471871589397e-07, 1.2482881080850414e-10, -111554092.36102824, 9.73736041625877]}, {"name": "polynomial2", "class": "NASAPolynomial", "Tmin_value": 594.5510705426203, "Tmin_units": "K", "Tmax_value": 3000.0, "Tmax_units": "K", "coeffs": [2.6619435988700717, 0.02700063330274151, -1.8966063744434276e-05, 6.109629991067157e-09, -7.351884988814937e-13, -111554350.36753283, 12.201082878024012]}]

>  <H298_value>  (1) 
-221677.73393283132

>  <H298_units>  (1) 
kcal/mol

>  <S298_value>  (1) 
69.21240690289005

>  <S298_units>  (1) 
cal/(mol*K)

>  <Cp_T_value_list>  (1) 
[16.736335365541446, 20.824137553247738, 24.027452944596273, 26.348252322457366, 29.711055843773885, 31.936305555783512, 34.552273976473494, 35.596788664173474, 36.33939231381346]

>  <Cp_T_units>  (1) 
cal/(mol*K)

>  <T_list>  (1) 
[300.0, 400.0, 500.0, 600.0, 800.0, 1000.0, 1500.0, 2000.0, 2400.0]

>  <T_units>  (1) 
K

>  <yaml_path>  (1) 
/home/calvin/Dropbox/PersonalFolders/Calvin/ATLAS_Converged/NonRMG/rxn_3242/output/Species/rxn_3242_r2_N=c1onno1/rxn_3242_r2_N=c1onno1.yml

>  <frequencies_cm1>  (1) 
[208.89369343439998, 445.44073675243993, 644.52150816456, 714.2214091625599, 757.75122910604, 783.81143839544, 819.0802749989599, 941.40875148944, 996.4545058145599, 1049.54316932348, 1062.20589025356, 1273.50302854996, 1598.9500638207198, 1829.7357064552798, 3558.0254387782]

>  <ZPE_kJmol>  (1) 
99.78979924741076

>  <E_elec_kJmol>  (1) 
-927613.1854966908

>  <E0_minus_Eelec_plus_ZPE_kJmol>  (1) 
0.0

>  <rxn>  (1) 
rxn_3242

>  <species_type>  (1) 
r1

>  <species_folder>  (1) 
rxn_3242_r2_N=c1onno1

>  <frequencies_cm1_list>  (1) 
[208.89369343439998, 445.44073675243993, 644.52150816456, 714.2214091625599, 757.75122910604, 783.81143839544, 819.0802749989599, 941.40875148944, 996.4545058145599, 1049.54316932348, 1062.20589025356, 1273.50302854996, 1598.9500638207198, 1829.7357064552798, 3558.0254387782]

>  <E0_kJmol>  (1) 
-927513

>  <H298_kJmol>  (1) 
-927500

$$$$

     RDKit          3D

  8  7  0  0  0  0  0  0  0  0999 V2000
   -0.9621    0.8302    1.0991 N   0  0  0  0  0  0  0  0  0  1  0  0
    0.1706   -0.0420    0.8650 C   0  0  0  0  0  0  0  0  0  2  0  0
    0.4089   -0.3765   -0.5458 C   0  0  0  0  0  2  0  0  0  3  0  0
    0.5607   -0.6108   -1.6582 N   0  0  0  0  0  0  0  0  0  4  0  0
   -1.7524    0.5308    0.5311 H   0  0  0  0  0  0  0  0  0  5  0  0
    0.0138   -0.9757    1.4156 H   0  0  0  0  0  0  0  0  0  6  0  0
    1.0697    0.4249    1.2691 H   0  0  0  0  0  0  0  0  0  7  0  0
   -0.7044    1.7713    0.8078 H   0  0  0  0  0  0  0  0  0  8  0  0
  1  5  1  0
  1  2  1  0
  1  8  1  0
  2  7  1  0
  2  6  1  0
  2  3  1  0
  3  4  1  0
M  RAD  1   3   3
M  END
>  <rmg_smiles>  (2) 
[N][C]CN

>  <rmg_adjacency_list>  (2) 
1 N u0 p1 c0 {3,S} {7,S} {8,S}
2 N u0 p2 c0 {4,S}
3 C u0 p0 c0 {1,S} {4,S} {5,S} {6,S}
4 C u0 p1 c0 {2,S} {3,S}
5 H u0 p0 c0 {3,S}
6 H u0 p0 c0 {3,S}
7 H u0 p0 c0 {1,S}
8 H u0 p0 c0 {1,S}


>  <multiplicity>  (2) 
1

>  <reaction>  (2) 
rxn_3242

>  <type>  (2) 
r2h

>  <role_mapnums>  (2) 
{"r2h_a": 1, "r2h_h": 8}

>  <role_mapidx>  (2) 
{"r2h_a": 0, "r2h_h": 7}

>  <ordered_mapped_smiles>  (2) 
[N:1]([C:2]([C:3][NH2:4])([H:6])[H:7])([H:5])[H:8]

>  <mol_properties>  (2) 
{"0": {"label": "acceptor", "atom_type": "N3s"}, "7": {"label": "a_hydrogen", "atom_type": "H0"}}

>  <level_of_theory>  (2) 
wb97xd/def2tzvp

>  <lot_method>  (2) 
wb97xd

>  <lot_basis>  (2) 
def2tzvp

>  <spin_multiplicity>  (2) 
1.0

>  <optical_isomers>  (2) 
1.0

>  <modes>  (2) 
IdealGasTranslation(mass=(56.0374, 'amu')),         NonlinearRotor(             inertia = ([16.5185, 105.395, 116.141

>  <frequency_value>  (2) 
unknown

>  <frequency_units>  (2) 
unknown

>  <frequency_list>  (2) 
unknown

>  <arkane_path>  (2) 
/home/calvin/Dropbox/PersonalFolders/Calvin/ATLAS_Converged/NonRMG/rxn_3242/output/Species/rxn_3242_p1_NCCtN/arkane/output.py

>  <path_exists>  (2) 
True

>  <E0_value>  (2) 
-493707.24096395954

>  <E0_units>  (2) 
kJ/mol

>  <thermo_class>  (2) 
NASA

>  <Cp0_value>  (2) 
33.257888

>  <Cp0_units>  (2) 
J/(mol*K)

>  <CpInf_value>  (2) 
182.918384

>  <CpInf_units>  (2) 
J/(mol*K)

>  <Tmin_value>  (2) 
10.0

>  <Tmin_units>  (2) 
K

>  <Tmax_value>  (2) 
3000.0

>  <Tmax_units>  (2) 
K

>  <polynomials>  (2) 
[{"name": "polynomial1", "class": "NASAPolynomial", "Tmin_value": 10.0, "Tmin_units": "K", "Tmax_value": 310.3656944426032, "Tmax_units": "K", "coeffs": [3.9731943208296037, 0.002034998905401934, 9.475709370659397e-05, -2.3009470252826854e-07, 1.8817978896599532e-10, -59379266.29095806, 8.166466583720501]}, {"name": "polynomial2", "class": "NASAPolynomial", "Tmin_value": 310.3656944426032, "Tmin_units": "K", "Tmax_value": 3000.0, "Tmax_units": "K", "coeffs": [2.222751666825024, 0.024594558995586543, -1.4272560220765838e-05, 4.0994905264842876e-09, -4.624224001756621e-13, -59379157.63460226, 14.563329871704575]}]

>  <H298_value>  (2) 
-117995.39622498966

>  <H298_units>  (2) 
kcal/mol

>  <S298_value>  (2) 
67.48007386059012

>  <S298_units>  (2) 
cal/(mol*K)

>  <Cp_T_value_list>  (2) 
[16.739297051439777, 19.926703272151446, 22.72455293853158, 25.171796492782516, 29.159257216543025, 32.15661505552977, 36.755563782360284, 39.185316788338156, 40.47748472918174]

>  <Cp_T_units>  (2) 
cal/(mol*K)

>  <T_list>  (2) 
[300.0, 400.0, 500.0, 600.0, 800.0, 1000.0, 1500.0, 2000.0, 2400.0]

>  <T_units>  (2) 
K

>  <yaml_path>  (2) 
/home/calvin/Dropbox/PersonalFolders/Calvin/ATLAS_Converged/NonRMG/rxn_3242/output/Species/rxn_3242_p1_NCCtN/rxn_3242_p1_NCCtN.yml

>  <frequencies_cm1>  (2) 
[216.01475721123998, 261.31625936728, 391.90571919772, 575.1100205500001, 821.9438078774, 892.22053564228, 915.49274889176, 1117.7804024483198, 1189.6365368368, 1359.3815469618798, 1375.3816227574798, 1458.4996130707598, 1659.1529241211601, 2352.78024430904, 3046.929455381239, 3089.3536906882, 3509.5925913162396, 3590.1972650023995]

>  <ZPE_kJmol>  (2) 
166.41668883231094

>  <E_elec_kJmol>  (2) 
-493873.6576527919

>  <E0_minus_Eelec_plus_ZPE_kJmol>  (2) 
0.0

>  <rxn>  (2) 
rxn_3242

>  <species_type>  (2) 
p0

>  <species_folder>  (2) 
rxn_3242_p1_NCCtN

>  <frequencies_cm1_list>  (2) 
[216.01475721123998, 261.31625936728, 391.90571919772, 575.1100205500001, 821.9438078774, 892.22053564228, 915.49274889176, 1117.7804024483198, 1189.6365368368, 1359.3815469618798, 1375.3816227574798, 1458.4996130707598, 1659.1529241211601, 2352.78024430904, 3046.929455381239, 3089.3536906882, 3509.5925913162396, 3590.1972650023995]

>  <E0_kJmol>  (2) 
-493707

>  <H298_kJmol>  (2) 
-493693

$$$$

     RDKit          3D

 14 13  0  0  0  0  0  0  0  0999 V2000
   -0.3313   -0.9165    2.2255 N   0  0  0  0  0  0  0  0  0  1  0  0
    0.8014   -1.7888    1.9914 C   0  0  0  0  0  0  0  0  0  2  0  0
    1.0397   -2.1232    0.5806 C   0  0  0  0  0  0  0  0  0  3  0  0
    1.1915   -2.3575   -0.5318 N   0  0  0  0  0  0  0  0  0  4  0  0
   -1.1216   -1.2159    1.6575 H   0  0  0  0  0  0  0  0  0  5  0  0
    0.6446   -2.7225    2.5419 H   0  0  0  0  0  0  0  0  0  6  0  0
    1.7005   -1.3218    2.3955 H   0  0  0  0  0  0  0  0  0  7  0  0
    0.4202    1.1228    1.1351 N   0  0  0  0  0  2  0  0  0  8  0  0
   -0.0719    1.1255   -0.0092 C   0  0  0  0  0  0  0  0  0  9  0  0
    0.2362    2.0174   -0.9913 O   0  0  0  0  0  0  0  0  0 10  0  0
   -0.5142    1.6793   -2.0952 N   0  0  0  0  0  0  0  0  0 11  0  0
   -1.2123    0.7082   -1.8540 N   0  0  0  0  0  0  0  0  0 12  0  0
   -1.0066    0.2921   -0.5538 O   0  0  0  0  0  0  0  0  0 13  0  0
   -0.0233    0.2081    1.8773 H   0  0  0  0  0  0  0  0  0 14  0  0
  1  5  1  0
  1  2  1  0
  1 14  1  0
  2  7  1  0
  2  6  1  0
  2  3  1  0
  3  4  1  0
  8  9  1  0
  9 10  1  0
  9 13  1  0
 10 11  1  0
 11 12  1  0
 12 13  1  0
M  RAD  1   8   2
M  END
>  <rmg_smiles>  (3) 
[N][C]1O[N][N]O1.[N][C]CN

>  <rmg_adjacency_list>  (3) 
multiplicity 2
1  O u0 p2 c0 {4,S} {9,S}
2  O u0 p2 c0 {5,S} {9,S}
3  N u0 p1 c0 {8,S} {13,S} {14,S}
4  N u0 p1 c0 {1,S} {5,S}
5  N u0 p1 c0 {2,S} {4,S}
6  N u1 p2 c0 {9,S}
7  N u0 p2 c0 {10,S}
8  C u0 p0 c0 {3,S} {10,S} {11,S} {12,S}
9  C u0 p0 c0 {1,S} {2,S} {6,S}
10 C u0 p1 c0 {7,S} {8,S}
11 H u0 p0 c0 {8,S}
12 H u0 p0 c0 {8,S}
13 H u0 p0 c0 {3,S}
14 H u0 p0 c0 {3,S}


>  <multiplicity>  (3) 
2

>  <reaction>  (3) 
rxn_3242

>  <type>  (3) 
ts

>  <role_mapnums>  (3) 
{"*2": 14, "*1": 8, "*3": 1, "*0": 2, "*4": 9}

>  <role_mapidx>  (3) 
{"*2": 13, "*1": 7, "*3": 0, "*0": 1, "*4": 8}

>  <ordered_mapped_smiles>  (3) 
[N:1]([C:2]([CH2:3][NH2:4])([H:6])[H:7])([H:5])[H:14].[NH:8][CH:9]1[O:10][NH:11][NH:12][O:13]1

>  <mol_properties>  (3) 
{"0": {"label": "*3", "atom_type": "N3s"}, "1": {"label": "*0", "atom_type": "Cs"}, "7": {"label": "*1", "atom_type": "N1s"}, "8": {"label": "*4", "atom_type": "Cs"}, "13": {"label": "*2", "atom_type": "H0"}}

>  <level_of_theory>  (3) 
wb97xd/def2tzvp

>  <lot_method>  (3) 
wb97xd

>  <lot_basis>  (3) 
def2tzvp

>  <spin_multiplicity>  (3) 
2.0

>  <optical_isomers>  (3) 
2.0

>  <modes>  (3) 
IdealGasTranslation(mass=(142.036, 'amu')),         NonlinearRotor(             inertia = ([205.961, 571.024, 664.99

>  <frequency_value>  (3) 
-1821.63

>  <frequency_units>  (3) 
cm^-1

>  <frequency_list>  (3) 
unknown

>  <arkane_path>  (3) 
/home/calvin/Dropbox/PersonalFolders/Calvin/ATLAS_Converged/NonRMG/rxn_3242/output/rxns/TS0/arkane/output.py

>  <path_exists>  (3) 
True

>  <E0_value>  (3) 
-1419450.0

>  <E0_units>  (3) 
kJ/mol

>  <thermo_class>  (3) 
unknown

>  <Cp0_value>  (3) 
unknown

>  <Cp0_units>  (3) 
unknown

>  <CpInf_value>  (3) 
unknown

>  <CpInf_units>  (3) 
unknown

>  <Tmin_value>  (3) 
unknown

>  <Tmin_units>  (3) 
unknown

>  <Tmax_value>  (3) 
unknown

>  <Tmax_units>  (3) 
unknown

>  <polynomials>  (3) 
unknown

>  <H298_value>  (3) 
unknown

>  <H298_units>  (3) 
unknown

>  <S298_value>  (3) 
unknown

>  <S298_units>  (3) 
unknown

>  <Cp_T_value_list>  (3) 
unknown

>  <Cp_T_units>  (3) 
unknown

>  <T_list>  (3) 
unknown

>  <T_units>  (3) 
unknown

>  <yaml_path>  (3) 
unknown

>  <frequencies_cm1>  (3) 
unknown

>  <ZPE_kJmol>  (3) 
unknown

>  <E_elec_kJmol>  (3) 
unknown

>  <E0_minus_Eelec_plus_ZPE_kJmol>  (3) 
unknown

>  <rxn>  (3) 
unknown

>  <species_type>  (3) 
unknown

>  <species_folder>  (3) 
unknown

>  <frequencies_cm1_list>  (3) 
[]

>  <ts_imag_freq_cm1>  (3) 
-1843.7585

>  <ts_freq_out_path>  (3) 
/home/calvin/Dropbox/PersonalFolders/Calvin/ATLAS_Converged/NonRMG/rxn_3242/output/rxns/TS0/geometry/freq.out

>  <E0_kJmol>  (3) 
-1.41945e+06

>  <H298_kJmol>  (3) 
unknown

$$$$

     RDKit          3D

  6  6  0  0  0  0  0  0  0  0999 V2000
    1.9594    0.0134   -0.3734 N   0  0  0  0  0  2  0  0  0  1  0  0
    0.7437    0.0051   -0.0788 C   0  0  0  0  0  0  0  0  0  2  0  0
   -0.0745    1.0868    0.0233 O   0  0  0  0  0  0  0  0  0  3  0  0
   -1.3223    0.5972    0.3682 N   0  0  0  0  0  0  0  0  0  4  0  0
   -1.2899   -0.6150    0.4676 N   0  0  0  0  0  0  0  0  0  5  0  0
   -0.0165   -1.0874    0.2015 O   0  0  0  0  0  0  0  0  0  6  0  0
  1  2  1  0
  2  3  1  0
  2  6  1  0
  3  4  1  0
  4  5  1  0
  5  6  1  0
M  RAD  1   1   2
M  END
>  <rmg_smiles>  (4) 
[N][C]1O[N][N]O1

>  <rmg_adjacency_list>  (4) 
multiplicity 2
1 O u0 p2 c0 {3,S} {6,S}
2 O u0 p2 c0 {4,S} {6,S}
3 N u0 p1 c0 {1,S} {4,S}
4 N u0 p1 c0 {2,S} {3,S}
5 N u1 p2 c0 {6,S}
6 C u0 p0 c0 {1,S} {2,S} {5,S}


>  <multiplicity>  (4) 
2

>  <reaction>  (4) 
rxn_3242

>  <type>  (4) 
r1

>  <role_mapnums>  (4) 
{}

>  <role_mapidx>  (4) 
{}

>  <ordered_mapped_smiles>  (4) 
[NH:1][CH:2]1[O:3][NH:4][NH:5][O:6]1

>  <level_of_theory>  (4) 
wb97xd/def2tzvp

>  <lot_method>  (4) 
wb97xd

>  <lot_basis>  (4) 
def2tzvp

>  <spin_multiplicity>  (4) 
2.0

>  <optical_isomers>  (4) 
1.0

>  <modes>  (4) 
IdealGasTranslation(mass=(85.999, 'amu')),         NonlinearRotor(             inertia = ([48.4503, 114.569, 163.019

>  <frequency_value>  (4) 
unknown

>  <frequency_units>  (4) 
unknown

>  <frequency_list>  (4) 
unknown

>  <arkane_path>  (4) 
/home/calvin/Dropbox/PersonalFolders/Calvin/ATLAS_Converged/NonRMG/rxn_3242/output/Species/rxn_3242_p2_sbr-N-sbr=c1onno1/arkane/output.py

>  <path_exists>  (4) 
True

>  <E0_value>  (4) 
-925766.1233507326

>  <E0_units>  (4) 
kJ/mol

>  <thermo_class>  (4) 
NASA

>  <Cp0_value>  (4) 
33.257888

>  <Cp0_units>  (4) 
J/(mol*K)

>  <CpInf_value>  (4) 
133.031552

>  <CpInf_units>  (4) 
J/(mol*K)

>  <Tmin_value>  (4) 
10.0

>  <Tmin_units>  (4) 
K

>  <Tmax_value>  (4) 
3000.0

>  <Tmax_units>  (4) 
K

>  <polynomials>  (4) 
[{"name": "polynomial1", "class": "NASAPolynomial", "Tmin_value": 10.0, "Tmin_units": "K", "Tmax_value": 616.0864984642515, "Tmax_units": "K", "coeffs": [3.94812055354869, 0.002870632430470056, 6.601813711413239e-05, -1.1874693803665765e-07, 6.345849341330536e-11, -111343943.32258263, 9.377120967783604]}, {"name": "polynomial2", "class": "NASAPolynomial", "Tmin_value": 616.0864984642515, "Tmin_units": "K", "Tmax_value": 3000.0, "Tmax_units": "K", "coeffs": [2.4544566455499175, 0.02517036301302165, -1.8957852591200607e-05, 6.406820502487897e-09, -7.999640326918053e-13, -111343998.43927236, 13.91872622116066]}]

>  <H298_value>  (4) 
-221260.06538606877

>  <H298_units>  (4) 
kcal/mol

>  <S298_value>  (4) 
69.02430482099071

>  <S298_units>  (4) 
cal/(mol*K)

>  <Cp_T_value_list>  (4) 
[16.01447807468723, 19.24412536395936, 21.88065311931888, 23.870148628394773, 26.6491311769416, 28.365034926557463, 30.06252774055981, 30.64056177383133, 31.185424153668]

>  <Cp_T_units>  (4) 
cal/(mol*K)

>  <T_list>  (4) 
[300.0, 400.0, 500.0, 600.0, 800.0, 1000.0, 1500.0, 2000.0, 2400.0]

>  <T_units>  (4) 
K

>  <yaml_path>  (4) 
/home/calvin/Dropbox/PersonalFolders/Calvin/ATLAS_Converged/NonRMG/rxn_3242/output/Species/rxn_3242_p2_sbr-N-sbr=c1onno1/rxn_3242_p2_sbr-N-sbr=c1onno1.yml

>  <frequencies_cm1>  (4) 
[203.66105062056, 421.06293886643994, 625.6235645639199, 691.3131461350399, 746.0704870767199, 784.21659052932, 934.89884940608, 1008.3206564475199, 1041.0761764239198, 1163.2398452667198, 1617.8480074213599, 1768.29678879724]

>  <ZPE_kJmol>  (4) 
65.82829353267302

>  <E_elec_kJmol>  (4) 
-925831.9516442652

>  <E0_minus_Eelec_plus_ZPE_kJmol>  (4) 
0.0

>  <rxn>  (4) 
rxn_3242

>  <species_type>  (4) 
p1

>  <species_folder>  (4) 
rxn_3242_p2_sbr-N-sbr=c1onno1

>  <frequencies_cm1_list>  (4) 
[203.66105062056, 421.06293886643994, 625.6235645639199, 691.3131461350399, 746.0704870767199, 784.21659052932, 934.89884940608, 1008.3206564475199, 1041.0761764239198, 1163.2398452667198, 1617.8480074213599, 1768.29678879724]

>  <E0_kJmol>  (4) 
-925766

>  <H298_kJmol>  (4) 
-925752

$$$$

     RDKit          3D

  7  6  0  0  0  0  0  0  0  0999 V2000
   -1.3059    0.5497   -0.1304 N   0  0  0  0  0  2  0  0  0  1  0  0
   -0.2700   -0.4288    0.0448 C   0  0  0  0  0  0  0  0  0  2  0  0
    1.1109    0.0669    0.0401 C   0  0  0  0  0  0  0  0  0  3  0  0
    2.1758    0.4925    0.0308 N   0  0  0  0  0  0  0  0  0  4  0  0
   -0.8815    1.4733   -0.2339 H   0  0  0  0  0  0  0  0  0  5  0  0
   -0.3767   -1.1909   -0.7373 H   0  0  0  0  0  0  0  0  0  6  0  0
   -0.4527   -0.9628    0.9858 H   0  0  0  0  0  0  0  0  0  7  0  0
  1  5  1  0
  1  2  1  0
  2  7  1  0
  2  6  1  0
  2  3  1  0
  3  4  1  0
M  RAD  1   1   2
M  END
>  <rmg_smiles>  (5) 
[N][C]C[NH]

>  <rmg_adjacency_list>  (5) 
multiplicity 2
1 N u1 p1 c0 {3,S} {7,S}
2 N u0 p2 c0 {4,S}
3 C u0 p0 c0 {1,S} {4,S} {5,S} {6,S}
4 C u0 p1 c0 {2,S} {3,S}
5 H u0 p0 c0 {3,S}
6 H u0 p0 c0 {3,S}
7 H u0 p0 c0 {1,S}


>  <multiplicity>  (5) 
2

>  <reaction>  (5) 
rxn_3242

>  <type>  (5) 
r2

>  <role_mapnums>  (5) 
{}

>  <role_mapidx>  (5) 
{}

>  <ordered_mapped_smiles>  (5) 
[N:1]([C:2]([CH2:3][NH2:4])([H:6])[H:7])[H:5]

>  <level_of_theory>  (5) 
wb97xd/def2tzvp

>  <lot_method>  (5) 
wb97xd

>  <lot_basis>  (5) 
def2tzvp

>  <spin_multiplicity>  (5) 
2.0

>  <optical_isomers>  (5) 
1.0

>  <modes>  (5) 
IdealGasTranslation(mass=(55.0296, 'amu')),         NonlinearRotor(             inertia = ([14.3798, 101.116, 112.445

>  <frequency_value>  (5) 
unknown

>  <frequency_units>  (5) 
unknown

>  <frequency_list>  (5) 
unknown

>  <arkane_path>  (5) 
/home/calvin/Dropbox/PersonalFolders/Calvin/ATLAS_Converged/NonRMG/rxn_3242/output/Species/rxn_3242_r1_sbr-NH-sbrCCtN/arkane/output.py

>  <path_exists>  (5) 
True

>  <E0_value>  (5) 
-491973.9107065931

>  <E0_units>  (5) 
kJ/mol

>  <thermo_class>  (5) 
NASA

>  <Cp0_value>  (5) 
33.257888

>  <Cp0_units>  (5) 
J/(mol*K)

>  <CpInf_value>  (5) 
157.97496800000002

>  <CpInf_units>  (5) 
J/(mol*K)

>  <Tmin_value>  (5) 
10.0

>  <Tmin_units>  (5) 
K

>  <Tmax_value>  (5) 
3000.0

>  <Tmax_units>  (5) 
K

>  <polynomials>  (5) 
[{"name": "polynomial1", "class": "NASAPolynomial", "Tmin_value": 10.0, "Tmin_units": "K", "Tmax_value": 441.5888552627719, "Tmax_units": "K", "coeffs": [3.8074387231682363, 0.01890513209384672, -2.384570888732855e-05, 4.838233157000235e-08, -4.1393745668634286e-11, -59170793.396980785, 9.226799164772778]}, {"name": "polynomial2", "class": "NASAPolynomial", "Tmin_value": 441.5888552627719, "Tmin_units": "K", "Tmax_value": 3000.0, "Tmax_units": "K", "coeffs": [2.9869977814233555, 0.020949312305084667, -1.2488909357575524e-05, 3.6086756240984913e-09, -4.0428709073473696e-13, -59170668.40878062, 13.109112838271622]}]

>  <H298_value>  (5) 
-117580.92958719996

>  <H298_units>  (5) 
kcal/mol

>  <S298_value>  (5) 
71.21799638955733

>  <S298_units>  (5) 
cal/(mol*K)

>  <Cp_T_value_list>  (5) 
[16.50156041465201, 19.059232907035433, 21.392761081461902, 23.42450687983812, 26.69929489980552, 29.116130872672766, 32.67662417459433, 34.43987147616164, 35.37681819280643]

>  <Cp_T_units>  (5) 
cal/(mol*K)

>  <T_list>  (5) 
[300.0, 400.0, 500.0, 600.0, 800.0, 1000.0, 1500.0, 2000.0, 2400.0]

>  <T_units>  (5) 
K

>  <yaml_path>  (5) 
/home/calvin/Dropbox/PersonalFolders/Calvin/ATLAS_Converged/NonRMG/rxn_3242/output/Species/rxn_3242_r1_sbr-NH-sbrCCtN/rxn_3242_r1_sbr-NH-sbrCCtN.yml

>  <frequencies_cm1>  (5) 
[63.7942936228, 224.96930606852, 349.44028197883995, 587.4774611113199, 879.8668290515999, 884.95526517372, 1044.48906812796, 1212.8469472184, 1240.74064158824, 1356.4012753329998, 1409.47620487128, 2361.53565059204, 2988.3609375869596, 3014.2975411406, 3431.2265548443993]

>  <ZPE_kJmol>  (5) 
125.90626832277542

>  <E_elec_kJmol>  (5) 
-492099.8169749159

>  <E0_minus_Eelec_plus_ZPE_kJmol>  (5) 
0.0

>  <rxn>  (5) 
rxn_3242

>  <species_type>  (5) 
r0

>  <species_folder>  (5) 
rxn_3242_r1_sbr-NH-sbrCCtN

>  <frequencies_cm1_list>  (5) 
[63.7942936228, 224.96930606852, 349.44028197883995, 587.4774611113199, 879.8668290515999, 884.95526517372, 1044.48906812796, 1212.8469472184, 1240.74064158824, 1356.4012753329998, 1409.47620487128, 2361.53565059204, 2988.3609375869596, 3014.2975411406, 3431.2265548443993]

>  <E0_kJmol>  (5) 
-491974

>  <H298_kJmol>  (5) 
-491959

$$$$
