
     RDKit          3D

 25 26  0  0  0  0  0  0  0  0999 V2000
   -1.2484   -1.7698   -0.9142 C   0  0  0  0  0  0  0  0  0  1  0  0
   -1.4993   -1.7055    0.5946 C   0  0  0  0  0  0  0  0  0  2  0  0
   -0.3171   -1.1013    1.3584 C   0  0  0  0  0  0  0  0  0  3  0  0
    0.0329    0.2511    0.7658 C   0  0  0  0  0  0  0  0  0  4  0  0
    1.2480    1.0056    1.2925 C   0  0  0  0  0  0  0  0  0  5  0  0
    1.4817    2.0596    0.2147 C   0  0  0  0  0  0  0  0  0  6  0  0
    0.8582    1.5390   -1.0871 C   0  0  0  0  0  0  0  0  0  7  0  0
    0.3383    0.1437   -0.7284 C   0  0  0  0  0  0  0  0  0  8  0  0
   -0.8465   -0.4123   -1.4983 C   0  0  0  0  0  0  0  0  0  9  0  0
   -0.4452   -2.4888   -1.1109 H   0  0  0  0  0  0  0  0  0 10  0  0
   -2.1378   -2.1509   -1.4211 H   0  0  0  0  0  0  0  0  0 11  0  0
   -2.3879   -1.0924    0.7817 H   0  0  0  0  0  0  0  0  0 12  0  0
   -1.7246   -2.7043    0.9753 H   0  0  0  0  0  0  0  0  0 13  0  0
   -0.5579   -1.0158    2.4213 H   0  0  0  0  0  0  0  0  0 14  0  0
    0.5521   -1.7653    1.2814 H   0  0  0  0  0  0  0  0  0 15  0  0
   -0.8411    0.9099    0.8728 H   0  0  0  0  0  0  0  0  0 16  0  0
    1.1022    1.4407    2.2837 H   0  0  0  0  0  0  0  0  0 17  0  0
    2.1056    0.3258    1.3628 H   0  0  0  0  0  0  0  0  0 18  0  0
    0.8941    2.9264    0.5122 H   0  0  0  0  0  0  0  0  0 19  0  0
    2.4980    2.4431    0.1425 H   0  0  0  0  0  0  0  0  0 20  0  0
    1.5677    1.5211   -1.9162 H   0  0  0  0  0  0  0  0  0 21  0  0
    0.0259    2.1821   -1.3945 H   0  0  0  0  0  0  0  0  0 22  0  0
    1.1707   -0.5667   -0.8314 H   0  0  0  0  0  0  0  0  0 23  0  0
   -0.6135   -0.5124   -2.5617 H   0  0  0  0  0  0  0  0  0 24  0  0
   -1.6855    0.2889   -1.4208 H   0  0  0  0  0  0  0  0  0 25  0  0
  1 11  1  0
  1 10  1  0
  1  9  1  0
  1  2  1  0
  2 12  1  0
  2 13  1  0
  2  3  1  0
  3 15  1  0
  3  4  1  0
  3 14  1  0
  4  5  1  0
  4  8  1  0
  4 16  1  0
  5 18  1  0
  5 17  1  0
  5  6  1  0
  6  7  1  0
  6 19  1  0
  6 20  1  0
  7 21  1  0
  7  8  1  0
  7 22  1  0
  8 23  1  0
  8  9  1  0
  9 24  1  0
  9 25  1  0
M  END
>  <rmg_smiles>  (1) 
C1CCC2CCCC2C1

>  <rmg_adjacency_list>  (1) 
1  C u0 p0 c0 {2,S} {3,S} {4,S} {10,S}
2  C u0 p0 c0 {1,S} {5,S} {6,S} {11,S}
3  C u0 p0 c0 {1,S} {8,S} {16,S} {17,S}
4  C u0 p0 c0 {1,S} {9,S} {18,S} {19,S}
5  C u0 p0 c0 {2,S} {9,S} {22,S} {23,S}
6  C u0 p0 c0 {2,S} {7,S} {24,S} {25,S}
7  C u0 p0 c0 {6,S} {8,S} {12,S} {13,S}
8  C u0 p0 c0 {3,S} {7,S} {14,S} {15,S}
9  C u0 p0 c0 {4,S} {5,S} {20,S} {21,S}
10 H u0 p0 c0 {1,S}
11 H u0 p0 c0 {2,S}
12 H u0 p0 c0 {7,S}
13 H u0 p0 c0 {7,S}
14 H u0 p0 c0 {8,S}
15 H u0 p0 c0 {8,S}
16 H u0 p0 c0 {3,S}
17 H u0 p0 c0 {3,S}
18 H u0 p0 c0 {4,S}
19 H u0 p0 c0 {4,S}
20 H u0 p0 c0 {9,S}
21 H u0 p0 c0 {9,S}
22 H u0 p0 c0 {5,S}
23 H u0 p0 c0 {5,S}
24 H u0 p0 c0 {6,S}
25 H u0 p0 c0 {6,S}


>  <multiplicity>  (1) 
1

>  <reaction>  (1) 
rxn_618

>  <type>  (1) 
r1h

>  <role_mapnums>  (1) 
{"r1h_a": 6, "r1h_h": 19}

>  <role_mapidx>  (1) 
{"r1h_a": 5, "r1h_h": 18}

>  <ordered_mapped_smiles>  (1) 
[C:1]1([H:10])([H:11])[C:2]([H:12])([H:13])[C:3]([H:14])([H:15])[C:4]2([H:16])[C:5]([H:17])([H:18])[C:6]([H:19])([H:20])[C:7]([H:21])([H:22])[C:8]2([H:23])[C:9]1([H:24])[H:25]

>  <mol_properties>  (1) 
{"5": {"label": "donator", "atom_type": "Cs"}, "18": {"label": "d_hydrogen", "atom_type": "H0"}}

>  <level_of_theory>  (1) 
wb97xd/def2tzvp

>  <lot_method>  (1) 
wb97xd

>  <lot_basis>  (1) 
def2tzvp

>  <spin_multiplicity>  (1) 
1.0

>  <optical_isomers>  (1) 
2.0

>  <modes>  (1) 
IdealGasTranslation(mass=(124.125, 'amu')),         NonlinearRotor(             inertia = ([170.024, 375.242, 505.424

>  <frequency_value>  (1) 
unknown

>  <frequency_units>  (1) 
unknown

>  <frequency_list>  (1) 
unknown

>  <arkane_path>  (1) 
/home/calvin/Dropbox/PersonalFolders/Calvin/HAb_Converged/rxn_618/output/Species/rxn_618_C1CCC2CCCC2C1/arkane/output.py

>  <path_exists>  (1) 
True

>  <E0_value>  (1) 
-925233.0049241188

>  <E0_units>  (1) 
kJ/mol

>  <thermo_class>  (1) 
NASA

>  <Cp0_value>  (1) 
33.257888

>  <Cp0_units>  (1) 
J/(mol*K)

>  <CpInf_value>  (1) 
606.956456

>  <CpInf_units>  (1) 
J/(mol*K)

>  <Tmin_value>  (1) 
10.0

>  <Tmin_units>  (1) 
K

>  <Tmax_value>  (1) 
3000.0

>  <Tmax_units>  (1) 
K

>  <polynomials>  (1) 
[{"name": "polynomial1", "class": "NASAPolynomial", "Tmin_value": 10.0, "Tmin_units": "K", "Tmax_value": 492.86414085374884, "Tmax_units": "K", "coeffs": [4.007994789865864, -0.0014434969438387518, 0.0002774235318770471, -4.47143959124011e-07, 2.345687014006794e-10, -111279824.80461533, 12.742603075803766]}, {"name": "polynomial2", "class": "NASAPolynomial", "Tmin_value": 492.86414085374884, "Tmin_units": "K", "Tmax_value": 3000.0, "Tmax_units": "K", "coeffs": [-9.95853370242537, 0.11191389639895702, -6.759505783925652e-05, 1.9571966588871765e-08, -2.183492026273649e-12, -111278448.17509678, 70.24048730977755]}]

>  <H298_value>  (1) 
-221130.41480672767

>  <H298_units>  (1) 
kcal/mol

>  <S298_value>  (1) 
87.40258332007863

>  <S298_units>  (1) 
cal/(mol*K)

>  <Cp_T_value_list>  (1) 
[36.50534740058796, 50.089738669944325, 62.417515537946755, 73.12949241055418, 90.29515590280347, 102.83551087971135, 120.87161605712708, 129.42454969138163, 133.951878152645]

>  <Cp_T_units>  (1) 
cal/(mol*K)

>  <T_list>  (1) 
[300.0, 400.0, 500.0, 600.0, 800.0, 1000.0, 1500.0, 2000.0, 2400.0]

>  <T_units>  (1) 
K

>  <yaml_path>  (1) 
/home/calvin/Dropbox/PersonalFolders/Calvin/HAb_Converged/rxn_618/output/Species/rxn_618_C1CCC2CCCC2C1/rxn_618_C1CCC2CCCC2C1.yml

>  <frequencies_cm1>  (1) 
[79.74630052116, 161.44969185852, 192.46099756363998, 319.95344701476, 325.08995203411996, 337.32691987436, 425.16252910247994, 470.50523317043996, 497.06673238819997, 579.3538174777599, 623.59780389452, 769.3495673115199, 782.1839628746, 837.42199278868, 848.74565158136, 873.0204446875598, 907.5545138618398, 921.7142375916799, 922.5451428153999, 945.43967187228, 987.1978096031999, 1015.3867843418, 1044.03584709684, 1066.28487953364, 1072.4857672776, 1096.98030391404, 1116.2696656779199, 1122.75209982, 1142.3985448205199, 1202.0657802659998, 1207.82031396416, 1217.5508321625998, 1256.61711164808, 1262.63945777372, 1284.5314069738797, 1286.2687542598399, 1313.97704002604, 1316.9847795961998, 1320.6311488011202, 1339.9411115209598, 1339.9754464475598, 1365.2322184545199, 1368.74811493836, 1376.8580246012798, 1398.55083122716, 1401.5036349147601, 1472.50826312356, 1476.82072990452, 1478.06365424744, 1478.81215564732, 1486.92206531024, 1491.0628574582, 1506.3831017071197, 2950.4551786205598, 2962.34193020948, 2991.31374127456, 2991.7532283350397, 2996.8759993837602, 3001.07172741428, 3015.06664349644, 3015.65720423396, 3043.90798184044, 3044.3474689009204, 3044.821290888, 3053.3088847435192, 3057.07199269888, 3062.7784574998, 3072.117557535, 3090.8781614292393]

>  <ZPE_kJmol>  (1) 
613.2521071062491

>  <E_elec_kJmol>  (1) 
-925846.257031225

>  <E0_minus_Eelec_plus_ZPE_kJmol>  (1) 
0.0

>  <rxn>  (1) 
rxn_618

>  <species_type>  (1) 
r1

>  <species_folder>  (1) 
rxn_618_C1CCC2CCCC2C1

>  <frequencies_cm1_list>  (1) 
[79.74630052116, 161.44969185852, 192.46099756363998, 319.95344701476, 325.08995203411996, 337.32691987436, 425.16252910247994, 470.50523317043996, 497.06673238819997, 579.3538174777599, 623.59780389452, 769.3495673115199, 782.1839628746, 837.42199278868, 848.74565158136, 873.0204446875598, 907.5545138618398, 921.7142375916799, 922.5451428153999, 945.43967187228, 987.1978096031999, 1015.3867843418, 1044.03584709684, 1066.28487953364, 1072.4857672776, 1096.98030391404, 1116.2696656779199, 1122.75209982, 1142.3985448205199, 1202.0657802659998, 1207.82031396416, 1217.5508321625998, 1256.61711164808, 1262.63945777372, 1284.5314069738797, 1286.2687542598399, 1313.97704002604, 1316.9847795961998, 1320.6311488011202, 1339.9411115209598, 1339.9754464475598, 1365.2322184545199, 1368.74811493836, 1376.8580246012798, 1398.55083122716, 1401.5036349147601, 1472.50826312356, 1476.82072990452, 1478.06365424744, 1478.81215564732, 1486.92206531024, 1491.0628574582, 1506.3831017071197, 2950.4551786205598, 2962.34193020948, 2991.31374127456, 2991.7532283350397, 2996.8759993837602, 3001.07172741428, 3015.06664349644, 3015.65720423396, 3043.90798184044, 3044.3474689009204, 3044.821290888, 3053.3088847435192, 3057.07199269888, 3062.7784574998, 3072.117557535, 3090.8781614292393]

>  <E0_kJmol>  (1) 
-925233

>  <H298_kJmol>  (1) 
-925210

$$$$

     RDKit          3D

 10  9  0  0  0  0  0  0  0  0999 V2000
   -0.8018   -0.7632    1.4920 C   0  0  0  0  0  0  0  0  0  1  0  0
   -0.0367   -0.5389    0.4408 C   0  0  0  0  0  0  0  0  0  2  0  0
    0.0094    0.6111   -0.4345 C   0  0  0  0  0  0  0  0  0  3  0  0
    0.8101    0.7198   -1.4904 C   0  0  0  0  0  0  0  0  0  4  0  0
   -0.7394   -1.6859    2.0581 H   0  0  0  0  0  0  0  0  0  5  0  0
   -1.5299   -0.0289    1.8345 H   0  0  0  0  0  0  0  0  0  6  0  0
   -0.6710    1.4282   -0.1928 H   0  0  0  0  0  0  0  0  0  7  0  0
    0.8016    1.6030   -2.1154 H   0  0  0  0  0  0  0  0  0  8  0  0
    1.4963   -0.0746   -1.7592 H   0  0  0  0  0  0  0  0  0  9  0  0
    0.6533   -1.3365    0.1654 H   0  0  0  0  0  0  0  0  0 10  0  0
  1  5  1  0
  1  6  1  0
  1  2  1  0
  2 10  1  0
  2  3  1  0
  3  4  1  0
  3  7  1  0
  4  8  1  0
  4  9  1  0
M  END
>  <rmg_smiles>  (2) 
[CH2][CH][CH][CH2]

>  <rmg_adjacency_list>  (2) 
1  C u0 p0 c0 {2,S} {3,S} {6,S}
2  C u0 p0 c0 {1,S} {4,S} {5,S}
3  C u0 p0 c0 {1,S} {7,S} {8,S}
4  C u0 p0 c0 {2,S} {9,S} {10,S}
5  H u0 p0 c0 {2,S}
6  H u0 p0 c0 {1,S}
7  H u0 p0 c0 {3,S}
8  H u0 p0 c0 {3,S}
9  H u0 p0 c0 {4,S}
10 H u0 p0 c0 {4,S}


>  <multiplicity>  (2) 
1

>  <reaction>  (2) 
rxn_618

>  <type>  (2) 
r2h

>  <role_mapnums>  (2) 
{"r2h_a": 2, "r2h_h": 10}

>  <role_mapidx>  (2) 
{"r2h_a": 1, "r2h_h": 9}

>  <ordered_mapped_smiles>  (2) 
[CH:1]([CH:2]([CH:3]([CH:4]([H:8])[H:9])[H:7])[H:10])([H:5])[H:6]

>  <mol_properties>  (2) 
{"1": {"label": "acceptor", "atom_type": "Cs"}, "9": {"label": "a_hydrogen", "atom_type": "H0"}}

>  <level_of_theory>  (2) 
wb97xd/def2tzvp

>  <lot_method>  (2) 
wb97xd

>  <lot_basis>  (2) 
def2tzvp

>  <spin_multiplicity>  (2) 
1.0

>  <optical_isomers>  (2) 
1.0

>  <modes>  (2) 
IdealGasTranslation(mass=(54.047, 'amu')),         NonlinearRotor(             inertia = ([11.9182, 113.061, 124.979

>  <frequency_value>  (2) 
unknown

>  <frequency_units>  (2) 
unknown

>  <frequency_list>  (2) 
unknown

>  <arkane_path>  (2) 
/home/calvin/Dropbox/PersonalFolders/Calvin/HAb_Converged/rxn_618/output/Species/rxn_618_C=CC=C/arkane/output.py

>  <path_exists>  (2) 
True

>  <E0_value>  (2) 
-409338.1696024378

>  <E0_units>  (2) 
kJ/mol

>  <thermo_class>  (2) 
NASA

>  <Cp0_value>  (2) 
33.257888

>  <Cp0_units>  (2) 
J/(mol*K)

>  <CpInf_value>  (2) 
232.805216

>  <CpInf_units>  (2) 
J/(mol*K)

>  <Tmin_value>  (2) 
10.0

>  <Tmin_units>  (2) 
K

>  <Tmax_value>  (2) 
3000.0

>  <Tmax_units>  (2) 
K

>  <polynomials>  (2) 
[{"name": "polynomial1", "class": "NASAPolynomial", "Tmin_value": 10.0, "Tmin_units": "K", "Tmax_value": 477.25150837589547, "Tmax_units": "K", "coeffs": [3.9644918263777202, 0.0020596769963902215, 8.674853780374631e-05, -1.450839919461119e-07, 7.838009270341474e-11, -49232008.066253, 7.365433669817705]}, {"name": "polynomial2", "class": "NASAPolynomial", "Tmin_value": 477.25150837589547, "Tmin_units": "K", "Tmax_value": 3000.0, "Tmax_units": "K", "coeffs": [-0.2016346126607574, 0.03684948174336166, -2.2193862153022103e-05, 6.534948821102615e-09, -7.488372760157006e-13, -49231608.95215794, 24.398107945208505]}]

>  <H298_value>  (2) 
-97830.61157155824

>  <H298_units>  (2) 
kcal/mol

>  <S298_value>  (2) 
66.15772377359508

>  <S298_units>  (2) 
cal/(mol*K)

>  <Cp_T_value_list>  (2) 
[18.098233407620363, 22.632858336014493, 26.717409141232952, 30.270647037570512, 35.994368828752485, 40.221251390017414, 46.50234453691136, 49.720054530985024, 51.45868146938158]

>  <Cp_T_units>  (2) 
cal/(mol*K)

>  <T_list>  (2) 
[300.0, 400.0, 500.0, 600.0, 800.0, 1000.0, 1500.0, 2000.0, 2400.0]

>  <T_units>  (2) 
K

>  <yaml_path>  (2) 
/home/calvin/Dropbox/PersonalFolders/Calvin/HAb_Converged/rxn_618/output/Species/rxn_618_C=CC=C/rxn_618_C=CC=C.yml

>  <frequencies_cm1>  (2) 
[162.86429083444, 299.37995899604, 518.85567680856, 535.67292385724, 782.5273121405999, 895.6128263903599, 951.29034336492, 952.5882035904, 1000.9317802431998, 1006.4047675432399, 1052.23502756892, 1221.82209703164, 1311.4568564135998, 1314.3066553213998, 1409.56547568044, 1464.2884816955202, 1663.07397273888, 1726.1678338590398, 3116.4851496875194, 3119.6920318319594, 3127.2663166399198, 3132.3341518060793, 3211.3044829860796, 3211.503625560359]

>  <ZPE_kJmol>  (2) 
222.43148839891296

>  <E_elec_kJmol>  (2) 
-409560.6010908368

>  <E0_minus_Eelec_plus_ZPE_kJmol>  (2) 
0.0

>  <rxn>  (2) 
rxn_618

>  <species_type>  (2) 
p0

>  <species_folder>  (2) 
rxn_618_C=CC=C

>  <frequencies_cm1_list>  (2) 
[162.86429083444, 299.37995899604, 518.85567680856, 535.67292385724, 782.5273121405999, 895.6128263903599, 951.29034336492, 952.5882035904, 1000.9317802431998, 1006.4047675432399, 1052.23502756892, 1221.82209703164, 1311.4568564135998, 1314.3066553213998, 1409.56547568044, 1464.2884816955202, 1663.07397273888, 1726.1678338590398, 3116.4851496875194, 3119.6920318319594, 3127.2663166399198, 3132.3341518060793, 3211.3044829860796, 3211.503625560359]

>  <E0_kJmol>  (2) 
-409338

>  <H298_kJmol>  (2) 
-409323

$$$$

     RDKit          3D

 34 34  0  0  0  0  0  0  0  0999 V2000
   -0.8497    2.4677    1.8216 C   0  0  0  0  0  0  0  0  0  1  0  0
   -0.0846    2.6920    0.7703 C   0  0  0  0  0  3  0  0  0  2  0  0
   -0.0385    3.8421   -0.1049 C   0  0  0  0  0  0  0  0  0  3  0  0
    0.7622    3.9507   -1.1608 C   0  0  0  0  0  0  0  0  0  4  0  0
   -0.7873    1.5450    2.3877 H   0  0  0  0  0  0  0  0  0  5  0  0
   -1.5778    3.2021    2.1640 H   0  0  0  0  0  0  0  0  0  6  0  0
   -0.7189    4.6592    0.1368 H   0  0  0  0  0  0  0  0  0  7  0  0
    0.7537    4.8339   -1.7859 H   0  0  0  0  0  0  0  0  0  8  0  0
    1.4484    3.1563   -1.4297 H   0  0  0  0  0  0  0  0  0  9  0  0
   -1.2296   -3.1867   -1.0640 C   0  0  0  0  0  0  0  0  0 10  0  0
   -1.4806   -3.1224    0.4448 C   0  0  0  0  0  0  0  0  0 11  0  0
   -0.2984   -2.5183    1.2086 C   0  0  0  0  0  0  0  0  0 12  0  0
    0.0516   -1.1658    0.6159 C   0  0  0  0  0  0  0  0  0 13  0  0
    1.2667   -0.4113    1.1426 C   0  0  0  0  0  0  0  0  0 14  0  0
    1.5005    0.6427    0.0648 C   0  0  0  0  0  0  0  0  0 15  0  0
    0.8769    0.1221   -1.2370 C   0  0  0  0  0  0  0  0  0 16  0  0
    0.3570   -1.2732   -0.8783 C   0  0  0  0  0  0  0  0  0 17  0  0
   -0.8278   -1.8292   -1.6482 C   0  0  0  0  0  0  0  0  0 18  0  0
   -0.4265   -3.9057   -1.2608 H   0  0  0  0  0  0  0  0  0 19  0  0
   -2.1191   -3.5678   -1.5709 H   0  0  0  0  0  0  0  0  0 20  0  0
   -2.3691   -2.5093    0.6319 H   0  0  0  0  0  0  0  0  0 21  0  0
   -1.7059   -4.1212    0.8254 H   0  0  0  0  0  0  0  0  0 22  0  0
   -0.5392   -2.4327    2.2715 H   0  0  0  0  0  0  0  0  0 23  0  0
    0.5708   -3.1822    1.1315 H   0  0  0  0  0  0  0  0  0 24  0  0
   -0.8224   -0.5070    0.7229 H   0  0  0  0  0  0  0  0  0 25  0  0
    1.1209    0.0238    2.1338 H   0  0  0  0  0  0  0  0  0 26  0  0
    2.1243   -1.0911    1.2130 H   0  0  0  0  0  0  0  0  0 27  0  0
    0.8196    1.6468    0.4094 H   0  0  0  0  0  0  0  0  0 28  0  0
    2.5167    1.0262   -0.0074 H   0  0  0  0  0  0  0  0  0 29  0  0
    1.5864    0.1042   -2.0660 H   0  0  0  0  0  0  0  0  0 30  0  0
    0.0446    0.7652   -1.5444 H   0  0  0  0  0  0  0  0  0 31  0  0
    1.1894   -1.9836   -0.9813 H   0  0  0  0  0  0  0  0  0 32  0  0
   -0.5948   -1.9294   -2.7116 H   0  0  0  0  0  0  0  0  0 33  0  0
   -1.6668   -1.1280   -1.5707 H   0  0  0  0  0  0  0  0  0 34  0  0
  1  5  1  0
  1  6  1  0
  1  2  1  0
  2  3  1  0
  3  4  1  0
  3  7  1  0
  4  9  1  0
  4  8  1  0
 10 11  1  0
 10 19  1  0
 10 20  1  0
 10 18  1  0
 11 21  1  0
 11 12  1  0
 11 22  1  0
 12 24  1  0
 12 23  1  0
 12 13  1  0
 13 17  1  0
 13 25  1  0
 13 14  1  0
 14 15  1  0
 14 26  1  0
 14 27  1  0
 15 29  1  0
 15 16  1  0
 15 28  1  0
 16 31  1  0
 16 17  1  0
 16 30  1  0
 17 18  1  0
 17 32  1  0
 18 34  1  0
 18 33  1  0
M  RAD  1   2   2
M  END
>  <rmg_smiles>  (3) 
C1CCC2CCCC2C1.[CH2][C][CH][CH2]

>  <rmg_adjacency_list>  (3) 
multiplicity 2
1  C u0 p0 c0 {2,S} {3,S} {4,S} {14,S}
2  C u0 p0 c0 {1,S} {5,S} {6,S} {15,S}
3  C u0 p0 c0 {1,S} {8,S} {20,S} {21,S}
4  C u0 p0 c0 {1,S} {9,S} {22,S} {23,S}
5  C u0 p0 c0 {2,S} {9,S} {26,S} {27,S}
6  C u0 p0 c0 {2,S} {7,S} {28,S} {29,S}
7  C u0 p0 c0 {6,S} {8,S} {16,S} {17,S}
8  C u0 p0 c0 {3,S} {7,S} {18,S} {19,S}
9  C u0 p0 c0 {4,S} {5,S} {24,S} {25,S}
10 C u0 p0 c0 {11,S} {13,S} {30,S}
11 C u0 p0 c0 {10,S} {31,S} {32,S}
12 C u0 p0 c0 {13,S} {33,S} {34,S}
13 C u1 p1 c0 {10,S} {12,S}
14 H u0 p0 c0 {1,S}
15 H u0 p0 c0 {2,S}
16 H u0 p0 c0 {7,S}
17 H u0 p0 c0 {7,S}
18 H u0 p0 c0 {8,S}
19 H u0 p0 c0 {8,S}
20 H u0 p0 c0 {3,S}
21 H u0 p0 c0 {3,S}
22 H u0 p0 c0 {4,S}
23 H u0 p0 c0 {4,S}
24 H u0 p0 c0 {9,S}
25 H u0 p0 c0 {9,S}
26 H u0 p0 c0 {5,S}
27 H u0 p0 c0 {5,S}
28 H u0 p0 c0 {6,S}
29 H u0 p0 c0 {6,S}
30 H u0 p0 c0 {10,S}
31 H u0 p0 c0 {11,S}
32 H u0 p0 c0 {11,S}
33 H u0 p0 c0 {12,S}
34 H u0 p0 c0 {12,S}


>  <multiplicity>  (3) 
2

>  <reaction>  (3) 
rxn_618

>  <type>  (3) 
ts

>  <role_mapnums>  (3) 
{"*2": 28, "*1": 15, "*3": 2, "*0": 14, "*4": 3}

>  <role_mapidx>  (3) 
{"*2": 27, "*1": 14, "*3": 1, "*0": 13, "*4": 2}

>  <ordered_mapped_smiles>  (3) 
[CH:1]([CH:2][CH:3]([CH:4]([H:8])[H:9])[H:7])([H:5])[H:6].[C:10]1([H:19])([H:20])[C:11]([H:21])([H:22])[C:12]([H:23])([H:24])[C:13]2([H:25])[C:14]([H:26])([H:27])[C:15]([H:28])([H:29])[C:16]([H:30])([H:31])[C:17]2([H:32])[C:18]1([H:33])[H:34]

>  <mol_properties>  (3) 
{"1": {"label": "*3", "atom_type": "C2s"}, "2": {"label": "*4", "atom_type": "Cs"}, "13": {"label": "*0", "atom_type": "Cs"}, "14": {"label": "*1", "atom_type": "Cs"}, "27": {"label": "*2", "atom_type": "H0"}}

>  <level_of_theory>  (3) 
wb97xd/def2tzvp

>  <lot_method>  (3) 
wb97xd

>  <lot_basis>  (3) 
def2tzvp

>  <spin_multiplicity>  (3) 
2.0

>  <optical_isomers>  (3) 
2.0

>  <modes>  (3) 
IdealGasTranslation(mass=(177.164, 'amu')),         NonlinearRotor(             inertia = ([367.289, 1238.67, 1333.63

>  <frequency_value>  (3) 
-1473.42

>  <frequency_units>  (3) 
cm^-1

>  <frequency_list>  (3) 
unknown

>  <arkane_path>  (3) 
/home/calvin/Dropbox/PersonalFolders/Calvin/HAb_Converged/rxn_618/output/rxns/TS0/arkane/output.py

>  <path_exists>  (3) 
True

>  <E0_value>  (3) 
-1332790.0

>  <E0_units>  (3) 
kJ/mol

>  <thermo_class>  (3) 
unknown

>  <Cp0_value>  (3) 
unknown

>  <Cp0_units>  (3) 
unknown

>  <CpInf_value>  (3) 
unknown

>  <CpInf_units>  (3) 
unknown

>  <Tmin_value>  (3) 
unknown

>  <Tmin_units>  (3) 
unknown

>  <Tmax_value>  (3) 
unknown

>  <Tmax_units>  (3) 
unknown

>  <polynomials>  (3) 
unknown

>  <H298_value>  (3) 
unknown

>  <H298_units>  (3) 
unknown

>  <S298_value>  (3) 
unknown

>  <S298_units>  (3) 
unknown

>  <Cp_T_value_list>  (3) 
unknown

>  <Cp_T_units>  (3) 
unknown

>  <T_list>  (3) 
unknown

>  <T_units>  (3) 
unknown

>  <yaml_path>  (3) 
unknown

>  <frequencies_cm1>  (3) 
unknown

>  <ZPE_kJmol>  (3) 
unknown

>  <E_elec_kJmol>  (3) 
unknown

>  <E0_minus_Eelec_plus_ZPE_kJmol>  (3) 
unknown

>  <rxn>  (3) 
unknown

>  <species_type>  (3) 
unknown

>  <species_folder>  (3) 
unknown

>  <frequencies_cm1_list>  (3) 
[]

>  <ts_imag_freq_cm1>  (3) 
-1491.3207

>  <ts_freq_out_path>  (3) 
/home/calvin/Dropbox/PersonalFolders/Calvin/HAb_Converged/rxn_618/output/rxns/TS0/geometry/freq.out

>  <E0_kJmol>  (3) 
-1.33279e+06

>  <H298_kJmol>  (3) 
unknown

$$$$

     RDKit          3D

 24 25  0  0  0  0  0  0  0  0999 V2000
   -2.3462    0.0587    0.4026 C   0  0  0  0  0  3  0  0  0  1  0  0
   -1.9216   -0.8977   -0.6619 C   0  0  0  0  0  0  0  0  0  2  0  0
   -0.4224   -0.6048   -0.8347 C   0  0  0  0  0  0  0  0  0  3  0  0
    0.4246   -1.4411    0.1277 C   0  0  0  0  0  0  0  0  0  4  0  0
    1.8615   -0.9403    0.2199 C   0  0  0  0  0  0  0  0  0  5  0  0
    1.8962    0.5175    0.6671 C   0  0  0  0  0  0  0  0  0  6  0  0
    1.1011    1.4007   -0.2911 C   0  0  0  0  0  0  0  0  0  7  0  0
   -0.3231    0.9028   -0.5260 C   0  0  0  0  0  0  0  0  0  8  0  0
   -1.3110    1.1041    0.6384 C   0  0  0  0  0  0  0  0  0  9  0  0
   -3.2900    0.0057    0.9268 H   0  0  0  0  0  0  0  0  0 10  0  0
   -2.1170   -1.9442   -0.4050 H   0  0  0  0  0  0  0  0  0 11  0  0
   -2.4616   -0.7093   -1.6016 H   0  0  0  0  0  0  0  0  0 12  0  0
   -0.0868   -0.8050   -1.8562 H   0  0  0  0  0  0  0  0  0 13  0  0
   -0.0273   -1.4106    1.1258 H   0  0  0  0  0  0  0  0  0 14  0  0
    0.4005   -2.4873   -0.1884 H   0  0  0  0  0  0  0  0  0 15  0  0
    2.4341   -1.5641    0.9101 H   0  0  0  0  0  0  0  0  0 16  0  0
    2.3441   -1.0297   -0.7603 H   0  0  0  0  0  0  0  0  0 17  0  0
    1.4821    0.5910    1.6781 H   0  0  0  0  0  0  0  0  0 18  0  0
    2.9265    0.8752    0.7283 H   0  0  0  0  0  0  0  0  0 19  0  0
    1.0758    2.4318    0.0723 H   0  0  0  0  0  0  0  0  0 20  0  0
    1.6246    1.4246   -1.2529 H   0  0  0  0  0  0  0  0  0 21  0  0
   -0.7335    1.4393   -1.3877 H   0  0  0  0  0  0  0  0  0 22  0  0
   -0.8124    0.9625    1.6085 H   0  0  0  0  0  0  0  0  0 23  0  0
   -1.7184    2.1202    0.6602 H   0  0  0  0  0  0  0  0  0 24  0  0
  1 10  1  0
  1  9  1  0
  1  2  1  0
  2 12  1  0
  2 11  1  0
  2  3  1  0
  3  4  1  0
  3 13  1  0
  3  8  1  0
  4 14  1  0
  4  5  1  0
  4 15  1  0
  5 16  1  0
  5 17  1  0
  5  6  1  0
  6  7  1  0
  6 19  1  0
  6 18  1  0
  7 20  1  0
  7 21  1  0
  7  8  1  0
  8  9  1  0
  8 22  1  0
  9 24  1  0
  9 23  1  0
M  RAD  1   1   2
M  END
>  <rmg_smiles>  (4) 
[CH]1CC2CCCCC2C1

>  <rmg_adjacency_list>  (4) 
multiplicity 2
1  C u0 p0 c0 {2,S} {3,S} {7,S} {10,S}
2  C u0 p0 c0 {1,S} {4,S} {8,S} {11,S}
3  C u0 p0 c0 {1,S} {5,S} {12,S} {13,S}
4  C u0 p0 c0 {2,S} {6,S} {18,S} {19,S}
5  C u0 p0 c0 {3,S} {6,S} {14,S} {15,S}
6  C u0 p0 c0 {4,S} {5,S} {16,S} {17,S}
7  C u0 p0 c0 {1,S} {9,S} {20,S} {21,S}
8  C u0 p0 c0 {2,S} {9,S} {22,S} {23,S}
9  C u1 p0 c0 {7,S} {8,S} {24,S}
10 H u0 p0 c0 {1,S}
11 H u0 p0 c0 {2,S}
12 H u0 p0 c0 {3,S}
13 H u0 p0 c0 {3,S}
14 H u0 p0 c0 {5,S}
15 H u0 p0 c0 {5,S}
16 H u0 p0 c0 {6,S}
17 H u0 p0 c0 {6,S}
18 H u0 p0 c0 {4,S}
19 H u0 p0 c0 {4,S}
20 H u0 p0 c0 {7,S}
21 H u0 p0 c0 {7,S}
22 H u0 p0 c0 {8,S}
23 H u0 p0 c0 {8,S}
24 H u0 p0 c0 {9,S}


>  <multiplicity>  (4) 
2

>  <reaction>  (4) 
rxn_618

>  <type>  (4) 
r1

>  <role_mapnums>  (4) 
{}

>  <role_mapidx>  (4) 
{}

>  <ordered_mapped_smiles>  (4) 
[C:1]1([H:10])[C:2]([H:11])([H:12])[C:3]2([H:13])[C:4]([H:14])([H:15])[C:5]([H:16])([H:17])[C:6]([H:18])([H:19])[C:7]([H:20])([H:21])[C:8]2([H:22])[C:9]1([H:23])[H:24]

>  <level_of_theory>  (4) 
wb97xd/def2tzvp

>  <lot_method>  (4) 
wb97xd

>  <lot_basis>  (4) 
def2tzvp

>  <spin_multiplicity>  (4) 
2.0

>  <optical_isomers>  (4) 
2.0

>  <modes>  (4) 
IdealGasTranslation(mass=(123.117, 'amu')),         NonlinearRotor(             inertia = ([182.859, 335.738, 424.72

>  <frequency_value>  (4) 
unknown

>  <frequency_units>  (4) 
unknown

>  <frequency_list>  (4) 
unknown

>  <arkane_path>  (4) 
/home/calvin/Dropbox/PersonalFolders/Calvin/HAb_Converged/rxn_618/output/Species/rxn_618_[CH]1CC2CCCCC2C1/arkane/output.py

>  <path_exists>  (4) 
True

>  <E0_value>  (4) 
-923523.381550898

>  <E0_units>  (4) 
kJ/mol

>  <thermo_class>  (4) 
NASA

>  <Cp0_value>  (4) 
33.257888

>  <Cp0_units>  (4) 
J/(mol*K)

>  <CpInf_value>  (4) 
582.01304

>  <CpInf_units>  (4) 
J/(mol*K)

>  <Tmin_value>  (4) 
10.0

>  <Tmin_units>  (4) 
K

>  <Tmax_value>  (4) 
3000.0

>  <Tmax_units>  (4) 
K

>  <polynomials>  (4) 
[{"name": "polynomial1", "class": "NASAPolynomial", "Tmin_value": 10.0, "Tmin_units": "K", "Tmax_value": 526.4834343259283, "Tmax_units": "K", "coeffs": [3.98643894828874, -0.00023182140811730054, 0.00028231001506313013, -4.759214837969805e-07, 2.590692260082836e-10, -111074203.63386503, 13.49617432795343]}, {"name": "polynomial2", "class": "NASAPolynomial", "Tmin_value": 526.4834343259283, "Tmin_units": "K", "Tmax_value": 3000.0, "Tmax_units": "K", "coeffs": [-8.038530107035681, 0.1064091818695619, -6.505516623617582e-05, 1.906120741359288e-08, -2.1496250536372206e-12, -111073149.21835624, 61.78404410488912]}]

>  <H298_value>  (4) 
-220721.71313565032

>  <H298_units>  (4) 
kcal/mol

>  <S298_value>  (4) 
89.39628008765251

>  <S298_units>  (4) 
cal/(mol*K)

>  <Cp_T_value_list>  (4) 
[36.90913064982296, 50.15015676910796, 61.90083300801128, 71.988043048504, 88.09755552735788, 99.81155582762689, 116.55009221226358, 124.50807980477506, 128.7878327045076]

>  <Cp_T_units>  (4) 
cal/(mol*K)

>  <T_list>  (4) 
[300.0, 400.0, 500.0, 600.0, 800.0, 1000.0, 1500.0, 2000.0, 2400.0]

>  <T_units>  (4) 
K

>  <yaml_path>  (4) 
/home/calvin/Dropbox/PersonalFolders/Calvin/HAb_Converged/rxn_618/output/Species/rxn_618_[CH]1CC2CCCCC2C1/rxn_618_CH1CC2CCCCC2C1.yml

>  <frequencies_cm1>  (4) 
[146.42472797835998, 158.91577427544, 205.58380651015997, 300.86322782516, 319.93971304412, 341.24796849208, 360.57166518256, 413.82513633915994, 476.2185649566799, 587.1615797866, 608.54537207308, 718.4995410169199, 772.020824601, 810.8742275415599, 835.6159756495199, 860.57746728772, 899.1355898595199, 910.8163318888398, 920.0592941295598, 932.81815285412, 958.1367277289598, 1008.73267556672, 1015.1807747821998, 1048.8564707914802, 1053.3474791907602, 1058.02389619368, 1092.04294146896, 1112.6850993408798, 1130.1890449215598, 1155.4664178844798, 1170.0381607335198, 1233.24876060412, 1247.16813984776, 1271.69014442548, 1273.9081806838399, 1295.6902581188797, 1312.967593184, 1330.9247597958001, 1338.83552688444, 1355.8175815808, 1365.2802873517599, 1368.27429295128, 1378.8425833587598, 1392.36367745384, 1394.5061768736798, 1457.40089541956, 1463.74598985524, 1472.3503224611998, 1478.6336140289998, 1482.5340616907597, 1495.07317688508, 2942.0225206476, 2948.31267920072, 2993.1403593696796, 2993.82705790168, 2997.4802940919203, 3004.5876238981195, 3006.34557214004, 3011.77049054284, 3016.1790951182797, 3025.6898697864804, 3042.96033786628, 3048.17924670948, 3052.8556637123997, 3057.50461277404, 3183.91894552992]

>  <ZPE_kJmol>  (4) 
574.904176107268

>  <E_elec_kJmol>  (4) 
-924098.2857270052

>  <E0_minus_Eelec_plus_ZPE_kJmol>  (4) 
0.0

>  <rxn>  (4) 
rxn_618

>  <species_type>  (4) 
p1

>  <species_folder>  (4) 
rxn_618_[CH]1CC2CCCCC2C1

>  <frequencies_cm1_list>  (4) 
[146.42472797835998, 158.91577427544, 205.58380651015997, 300.86322782516, 319.93971304412, 341.24796849208, 360.57166518256, 413.82513633915994, 476.2185649566799, 587.1615797866, 608.54537207308, 718.4995410169199, 772.020824601, 810.8742275415599, 835.6159756495199, 860.57746728772, 899.1355898595199, 910.8163318888398, 920.0592941295598, 932.81815285412, 958.1367277289598, 1008.73267556672, 1015.1807747821998, 1048.8564707914802, 1053.3474791907602, 1058.02389619368, 1092.04294146896, 1112.6850993408798, 1130.1890449215598, 1155.4664178844798, 1170.0381607335198, 1233.24876060412, 1247.16813984776, 1271.69014442548, 1273.9081806838399, 1295.6902581188797, 1312.967593184, 1330.9247597958001, 1338.83552688444, 1355.8175815808, 1365.2802873517599, 1368.27429295128, 1378.8425833587598, 1392.36367745384, 1394.5061768736798, 1457.40089541956, 1463.74598985524, 1472.3503224611998, 1478.6336140289998, 1482.5340616907597, 1495.07317688508, 2942.0225206476, 2948.31267920072, 2993.1403593696796, 2993.82705790168, 2997.4802940919203, 3004.5876238981195, 3006.34557214004, 3011.77049054284, 3016.1790951182797, 3025.6898697864804, 3042.96033786628, 3048.17924670948, 3052.8556637123997, 3057.50461277404, 3183.91894552992]

>  <E0_kJmol>  (4) 
-923523

>  <H298_kJmol>  (4) 
-923500

$$$$

     RDKit          3D

  9  8  0  0  0  0  0  0  0  0999 V2000
    1.8963   -0.1405   -0.2150 C   0  0  0  0  0  0  0  0  0  1  0  0
    0.6340    0.1486   -0.2254 C   0  0  0  0  0  3  0  0  0  2  0  0
   -0.6770    0.4501   -0.2373 C   0  0  0  0  0  0  0  0  0  3  0  0
   -1.6600   -0.2303    0.4662 C   0  0  0  0  0  0  0  0  0  4  0  0
    2.3274   -0.8354   -0.9313 H   0  0  0  0  0  0  0  0  0  5  0  0
    2.5751    0.2988    0.5117 H   0  0  0  0  0  0  0  0  0  6  0  0
   -0.9723    1.2966   -0.8520 H   0  0  0  0  0  0  0  0  0  7  0  0
   -2.6934    0.0777    0.4015 H   0  0  0  0  0  0  0  0  0  8  0  0
   -1.4140   -1.0782    1.0904 H   0  0  0  0  0  0  0  0  0  9  0  0
  1  5  1  0
  1  6  1  0
  1  2  1  0
  2  3  1  0
  3  4  1  0
  3  7  1  0
  4  8  1  0
  4  9  1  0
M  RAD  1   2   2
M  END
>  <rmg_smiles>  (5) 
[CH2][C][CH][CH2]

>  <rmg_adjacency_list>  (5) 
multiplicity 2
1 C u0 p0 c0 {2,S} {4,S} {5,S}
2 C u0 p0 c0 {1,S} {6,S} {7,S}
3 C u0 p0 c0 {4,S} {8,S} {9,S}
4 C u1 p1 c0 {1,S} {3,S}
5 H u0 p0 c0 {1,S}
6 H u0 p0 c0 {2,S}
7 H u0 p0 c0 {2,S}
8 H u0 p0 c0 {3,S}
9 H u0 p0 c0 {3,S}


>  <multiplicity>  (5) 
2

>  <reaction>  (5) 
rxn_618

>  <type>  (5) 
r2

>  <role_mapnums>  (5) 
{}

>  <role_mapidx>  (5) 
{}

>  <ordered_mapped_smiles>  (5) 
[CH:1]([CH:2][CH:3]([CH:4]([H:8])[H:9])[H:7])([H:5])[H:6]

>  <level_of_theory>  (5) 
wb97xd/def2tzvp

>  <lot_method>  (5) 
wb97xd

>  <lot_basis>  (5) 
def2tzvp

>  <spin_multiplicity>  (5) 
2.0

>  <optical_isomers>  (5) 
1.0

>  <modes>  (5) 
IdealGasTranslation(mass=(53.0391, 'amu')),         NonlinearRotor(             inertia = ([12.0347, 113.266, 121.844

>  <frequency_value>  (5) 
unknown

>  <frequency_units>  (5) 
unknown

>  <frequency_list>  (5) 
unknown

>  <arkane_path>  (5) 
/home/calvin/Dropbox/PersonalFolders/Calvin/HAb_Converged/rxn_618/output/Species/rxn_618_C=[C]C=C/arkane/output.py

>  <path_exists>  (5) 
True

>  <E0_value>  (5) 
-407618.73102202936

>  <E0_units>  (5) 
kJ/mol

>  <thermo_class>  (5) 
NASA

>  <Cp0_value>  (5) 
33.257888

>  <Cp0_units>  (5) 
J/(mol*K)

>  <CpInf_value>  (5) 
207.8618

>  <CpInf_units>  (5) 
J/(mol*K)

>  <Tmin_value>  (5) 
10.0

>  <Tmin_units>  (5) 
K

>  <Tmax_value>  (5) 
3000.0

>  <Tmax_units>  (5) 
K

>  <polynomials>  (5) 
[{"name": "polynomial1", "class": "NASAPolynomial", "Tmin_value": 10.0, "Tmin_units": "K", "Tmax_value": 513.96992949071, "Tmax_units": "K", "coeffs": [3.9420802999541826, 0.0035685760014192327, 9.465791812405604e-05, -1.8686526671215408e-07, 1.1507173469765572e-10, -49025207.15718319, 8.65621190884103]}, {"name": "polynomial2", "class": "NASAPolynomial", "Tmin_value": 513.96992949071, "Tmin_units": "K", "Tmax_value": 3000.0, "Tmax_units": "K", "coeffs": [2.0283894812979866, 0.030453216730392172, -1.8799715383868938e-05, 5.69276117666148e-09, -6.699501956082314e-13, -49025168.8245439, 15.074146021629948]}]

>  <H298_value>  (5) 
-97419.52636783152

>  <H298_units>  (5) 
kcal/mol

>  <S298_value>  (5) 
69.47182773714773

>  <S298_units>  (5) 
cal/(mol*K)

>  <Cp_T_value_list>  (5) 
[18.71667250989835, 22.85533281432161, 26.28015598227693, 29.162718122858536, 33.78137212963757, 37.17010503303923, 42.188992301862434, 44.829088783976054, 46.30020231473576]

>  <Cp_T_units>  (5) 
cal/(mol*K)

>  <T_list>  (5) 
[300.0, 400.0, 500.0, 600.0, 800.0, 1000.0, 1500.0, 2000.0, 2400.0]

>  <T_units>  (5) 
K

>  <yaml_path>  (5) 
/home/calvin/Dropbox/PersonalFolders/Calvin/HAb_Converged/rxn_618/output/Species/rxn_618_C=[C]C=C/rxn_618_C=CC=C.yml

>  <frequencies_cm1>  (5) 
[209.82760343791998, 213.04821955299997, 498.83154761543994, 525.2763080827599, 574.87654304912, 748.94088694048, 893.75874035396, 905.4944182658398, 936.5057239709599, 975.15311735192, 1080.3828003955998, 1184.87084902472, 1365.78157728012, 1440.54244645896, 1485.45939743708, 1902.75236136284, 3071.21111547276, 3118.0645563111198, 3138.67237925644, 3141.51531117892, 3241.1690021427603]

>  <ZPE_kJmol>  (5) 
183.34053407098105

>  <E_elec_kJmol>  (5) 
-407802.07155610033

>  <E0_minus_Eelec_plus_ZPE_kJmol>  (5) 
0.0

>  <rxn>  (5) 
rxn_618

>  <species_type>  (5) 
r0

>  <species_folder>  (5) 
rxn_618_C=[C]C=C

>  <frequencies_cm1_list>  (5) 
[209.82760343791998, 213.04821955299997, 498.83154761543994, 525.2763080827599, 574.87654304912, 748.94088694048, 893.75874035396, 905.4944182658398, 936.5057239709599, 975.15311735192, 1080.3828003955998, 1184.87084902472, 1365.78157728012, 1440.54244645896, 1485.45939743708, 1902.75236136284, 3071.21111547276, 3118.0645563111198, 3138.67237925644, 3141.51531117892, 3241.1690021427603]

>  <E0_kJmol>  (5) 
-407619

>  <H298_kJmol>  (5) 
-407603

$$$$
