
     RDKit          3D

 12 11  0  0  0  0  0  0  0  0999 V2000
    0.5721    0.2412   -2.3655 C   0  0  0  0  0  2  0  0  0  1  0  0
    0.4034    0.2509   -1.1777 C   0  0  0  0  0  2  0  0  0  2  0  0
    0.2490    0.3071    0.2497 C   0  0  0  0  0  0  0  0  0  3  0  0
   -0.2788    1.6239    0.8017 C   0  0  0  0  0  0  0  0  0  4  0  0
   -0.2803   -0.8764    0.8668 C   0  0  0  0  0  2  0  0  0  5  0  0
   -0.6610   -1.8511    1.4529 C   0  0  0  0  0  2  0  0  0  6  0  0
    0.7068    0.2200   -3.4204 H   0  0  0  0  0  0  0  0  0  7  0  0
    1.2722    0.2870    0.6247 H   0  0  0  0  0  0  0  0  0  8  0  0
   -1.3327    1.7435    0.5451 H   0  0  0  0  0  0  0  0  0  9  0  0
    0.2835    2.4551    0.3786 H   0  0  0  0  0  0  0  0  0 10  0  0
   -0.1723    1.6389    1.8858 H   0  0  0  0  0  0  0  0  0 11  0  0
   -1.0183   -2.7158    1.9590 H   0  0  0  0  0  0  0  0  0 12  0  0
  1  7  1  0
  1  2  1  0
  2  3  1  0
  3  4  1  0
  3  5  1  0
  3  8  1  0
  4  9  1  0
  4 10  1  0
  4 11  1  0
  5  6  1  0
  6 12  1  0
M  RAD  4   1   3   2   3   5   3   6   3
M  END
>  <rmg_smiles>  (1) 
[CH][C]C(C)[C][CH]

>  <rmg_adjacency_list>  (1) 
1  C u0 p0 c0 {2,S} {3,S} {4,S} {7,S}
2  C u0 p0 c0 {1,S} {8,S} {9,S} {10,S}
3  C u0 p1 c0 {1,S} {5,S}
4  C u0 p1 c0 {1,S} {6,S}
5  C u0 p1 c0 {3,S} {11,S}
6  C u0 p1 c0 {4,S} {12,S}
7  H u0 p0 c0 {1,S}
8  H u0 p0 c0 {2,S}
9  H u0 p0 c0 {2,S}
10 H u0 p0 c0 {2,S}
11 H u0 p0 c0 {5,S}
12 H u0 p0 c0 {6,S}


>  <multiplicity>  (1) 
1

>  <reaction>  (1) 
rxn_1418

>  <type>  (1) 
r1h

>  <role_mapnums>  (1) 
{"r1h_a": 3, "r1h_h": 8}

>  <role_mapidx>  (1) 
{"r1h_a": 2, "r1h_h": 7}

>  <ordered_mapped_smiles>  (1) 
[C:1]([C:2][C:3]([C:4]([H:9])([H:10])[H:11])([C:5][C:6][H:12])[H:8])[H:7]

>  <mol_properties>  (1) 
{"2": {"label": "donator", "atom_type": "Cs"}, "7": {"label": "d_hydrogen", "atom_type": "H0"}}

>  <level_of_theory>  (1) 
wb97xd/def2tzvp

>  <lot_method>  (1) 
wb97xd

>  <lot_basis>  (1) 
def2tzvp

>  <spin_multiplicity>  (1) 
1.0

>  <optical_isomers>  (1) 
1.0

>  <modes>  (1) 
IdealGasTranslation(mass=(78.0469, 'amu')),         NonlinearRotor(             inertia = ([91.5038, 182.303, 256.884

>  <frequency_value>  (1) 
unknown

>  <frequency_units>  (1) 
unknown

>  <frequency_list>  (1) 
unknown

>  <arkane_path>  (1) 
/home/calvin/Dropbox/PersonalFolders/Calvin/HAb_Converged/rxn_1418/output/Species/rxn_1418_CtCC[C]CtC/arkane/output.py

>  <path_exists>  (1) 
True

>  <E0_value>  (1) 
-609140.5146388354

>  <E0_units>  (1) 
kJ/mol

>  <thermo_class>  (1) 
NASA

>  <Cp0_value>  (1) 
33.257888

>  <Cp0_units>  (1) 
J/(mol*K)

>  <CpInf_value>  (1) 
282.692048

>  <CpInf_units>  (1) 
J/(mol*K)

>  <Tmin_value>  (1) 
10.0

>  <Tmin_units>  (1) 
K

>  <Tmax_value>  (1) 
3000.0

>  <Tmax_units>  (1) 
K

>  <polynomials>  (1) 
[{"name": "polynomial1", "class": "NASAPolynomial", "Tmin_value": 10.0, "Tmin_units": "K", "Tmax_value": 428.30381772817856, "Tmax_units": "K", "coeffs": [3.843414737485958, 0.011059899510253308, 0.00017313206294384585, -4.5066861494576427e-07, 3.5431673194866504e-10, -73262680.70719364, 10.351537126465276]}, {"name": "polynomial2", "class": "NASAPolynomial", "Tmin_value": 428.30381772817856, "Tmin_units": "K", "Tmax_value": 3000.0, "Tmax_units": "K", "coeffs": [3.71225639608142, 0.03988512935119699, -2.4480757543004908e-05, 7.3774227474566334e-09, -8.647202101499329e-13, -73262922.62795044, 7.917757545343436]}]

>  <H298_value>  (1) 
-145583.22326588043

>  <H298_units>  (1) 
kcal/mol

>  <S298_value>  (1) 
79.39725011907349

>  <S298_units>  (1) 
cal/(mol*K)

>  <Cp_T_value_list>  (1) 
[26.71835542334415, 32.185236842440695, 36.57009328220792, 40.36357580076537, 46.452394866783735, 50.93077266482023, 57.588055372365, 61.09337215118473, 63.041253155202796]

>  <Cp_T_units>  (1) 
cal/(mol*K)

>  <T_list>  (1) 
[300.0, 400.0, 500.0, 600.0, 800.0, 1000.0, 1500.0, 2000.0, 2400.0]

>  <T_units>  (1) 
K

>  <yaml_path>  (1) 
/home/calvin/Dropbox/PersonalFolders/Calvin/HAb_Converged/rxn_1418/output/Species/rxn_1418_CtCC[C]CtC/rxn_1418_CtCCCCtC.yml

>  <frequencies_cm1>  (1) 
[133.58346542996, 199.16317523595998, 209.69026373152, 240.0698067872, 354.65919082204, 475.7310089989599, 567.46019890352, 568.12629647956, 689.5414639224799, 690.09082274808, 696.1063018883999, 699.3337849888, 789.86125246236, 930.3735060801998, 1032.6572524215999, 1082.42916202096, 1134.52211265848, 1298.31344651112, 1322.5745056466799, 1399.4092043921598, 1478.5306092491999, 1484.3400788299198, 2226.8946694228, 2231.41314576336, 3015.0597765111197, 3031.95942738364, 3117.4327936616796, 3119.7813026411195, 3437.7021220011598, 3438.6085640633996]

>  <ZPE_kJmol>  (1) 
245.805260802598

>  <E_elec_kJmol>  (1) 
-609386.3198996381

>  <E0_minus_Eelec_plus_ZPE_kJmol>  (1) 
0.0

>  <rxn>  (1) 
rxn_1418

>  <species_type>  (1) 
r0

>  <species_folder>  (1) 
rxn_1418_CtCC[C]CtC

>  <frequencies_cm1_list>  (1) 
[133.58346542996, 199.16317523595998, 209.69026373152, 240.0698067872, 354.65919082204, 475.7310089989599, 567.46019890352, 568.12629647956, 689.5414639224799, 690.09082274808, 696.1063018883999, 699.3337849888, 789.86125246236, 930.3735060801998, 1032.6572524215999, 1082.42916202096, 1134.52211265848, 1298.31344651112, 1322.5745056466799, 1399.4092043921598, 1478.5306092491999, 1484.3400788299198, 2226.8946694228, 2231.41314576336, 3015.0597765111197, 3031.95942738364, 3117.4327936616796, 3119.7813026411195, 3437.7021220011598, 3438.6085640633996]

>  <E0_kJmol>  (1) 
-609141

>  <H298_kJmol>  (1) 
-609120

$$$$

     RDKit          3D

  8  7  0  0  0  0  0  0  0  0999 V2000
   -0.9318   -0.2010   -1.6223 H   0  0  0  0  0  0  0  0  0  1  0  0
    0.8046    0.5868   -2.0846 C   0  0  0  0  0  0  0  0  0  2  0  0
    0.0740   -0.0746   -1.2217 C   0  0  0  0  0  0  0  0  0  3  0  0
    0.1041   -0.6668    0.0556 C   0  0  0  0  0  0  0  0  0  4  0  0
   -0.4150    0.0643    1.4263 S   0  0  0  0  0  0  0  0  0  5  0  0
    1.8301    0.8617   -1.8603 H   0  0  0  0  0  0  0  0  0  6  0  0
    0.4026    0.8813   -3.0478 H   0  0  0  0  0  0  0  0  0  7  0  0
    0.4151   -1.7113    0.0857 H   0  0  0  0  0  0  0  0  0  8  0  0
  1  3  1  0
  2  7  1  0
  2  6  1  0
  2  3  1  0
  3  4  1  0
  4  8  1  0
  4  5  1  0
M  END
>  <rmg_smiles>  (2) 
[CH2][CH][CH][S]

>  <rmg_adjacency_list>  (2) 
1 S u0 p2 c0 {4,S}
2 C u0 p0 c0 {3,S} {4,S} {5,S}
3 C u0 p0 c0 {2,S} {6,S} {7,S}
4 C u0 p0 c0 {1,S} {2,S} {8,S}
5 H u0 p0 c0 {2,S}
6 H u0 p0 c0 {3,S}
7 H u0 p0 c0 {3,S}
8 H u0 p0 c0 {4,S}


>  <multiplicity>  (2) 
1

>  <reaction>  (2) 
rxn_1418

>  <type>  (2) 
r2h

>  <role_mapnums>  (2) 
{"r2h_a": 3, "r2h_h": 1}

>  <role_mapidx>  (2) 
{"r2h_a": 2, "r2h_h": 0}

>  <ordered_mapped_smiles>  (2) 
[H:1][CH:3]([CH:2]([H:6])[H:7])[CH:4]([SH:5])[H:8]

>  <mol_properties>  (2) 
{"0": {"label": "a_hydrogen", "atom_type": "H0"}, "2": {"label": "acceptor", "atom_type": "Cs"}}

>  <level_of_theory>  (2) 
wb97xd/def2tzvp

>  <lot_method>  (2) 
wb97xd

>  <lot_basis>  (2) 
def2tzvp

>  <spin_multiplicity>  (2) 
1.0

>  <optical_isomers>  (2) 
1.0

>  <modes>  (2) 
IdealGasTranslation(mass=(72.0034, 'amu')),         NonlinearRotor(             inertia = ([10.8259, 179.445, 190.271

>  <frequency_value>  (2) 
unknown

>  <frequency_units>  (2) 
unknown

>  <frequency_list>  (2) 
unknown

>  <arkane_path>  (2) 
/home/calvin/Dropbox/PersonalFolders/Calvin/HAb_Converged/rxn_1418/output/Species/rxn_1418_C=CC=S/arkane/output.py

>  <path_exists>  (2) 
True

>  <E0_value>  (2) 
-1351663.0036055504

>  <E0_units>  (2) 
kJ/mol

>  <thermo_class>  (2) 
NASA

>  <Cp0_value>  (2) 
33.257888

>  <Cp0_units>  (2) 
J/(mol*K)

>  <CpInf_value>  (2) 
182.918384

>  <CpInf_units>  (2) 
J/(mol*K)

>  <Tmin_value>  (2) 
10.0

>  <Tmin_units>  (2) 
K

>  <Tmax_value>  (2) 
3000.0

>  <Tmax_units>  (2) 
K

>  <polynomials>  (2) 
[{"name": "polynomial1", "class": "NASAPolynomial", "Tmin_value": 10.0, "Tmin_units": "K", "Tmax_value": 379.2644192115922, "Tmax_units": "K", "coeffs": [3.9765643065430916, 0.0016004709541293095, 8.72904253733476e-05, -1.7911724885444054e-07, 1.2101661725986147e-10, -162567509.24915665, 9.120160110672158]}, {"name": "polynomial2", "class": "NASAPolynomial", "Tmin_value": 379.2644192115922, "Tmin_units": "K", "Tmax_value": 3000.0, "Tmax_units": "K", "coeffs": [1.464888744558327, 0.0281037867234722, -1.7583624528695405e-05, 5.321955350531072e-09, -6.214743427137124e-13, -162567318.8273217, 18.801153395762828]}]

>  <H298_value>  (2) 
-323051.77369567833

>  <H298_units>  (2) 
kcal/mol

>  <S298_value>  (2) 
69.12773786002882

>  <S298_units>  (2) 
cal/(mol*K)

>  <Cp_T_value_list>  (2) 
[16.805632008963112, 20.304717440143907, 23.344267700018552, 25.964949893337177, 30.135357981253517, 33.15759755729083, 37.504149039419545, 39.684548396616805, 40.90462524755872]

>  <Cp_T_units>  (2) 
cal/(mol*K)

>  <T_list>  (2) 
[300.0, 400.0, 500.0, 600.0, 800.0, 1000.0, 1500.0, 2000.0, 2400.0]

>  <T_units>  (2) 
K

>  <yaml_path>  (2) 
/home/calvin/Dropbox/PersonalFolders/Calvin/HAb_Converged/rxn_1418/output/Species/rxn_1418_C=CC=S/rxn_1418_C=CC=S.yml

>  <frequencies_cm1>  (2) 
[143.52686017332, 284.27945827736, 458.62534856684, 626.85962192152, 901.60770457472, 915.3554091853599, 995.0811087505599, 1035.17743603404, 1098.5734445082799, 1194.99965237172, 1299.26109048528, 1341.3969124088, 1455.1759921758799, 1675.0087932250397, 3064.563873683, 3123.0293866974803, 3158.3600261688803, 3216.07703778348]

>  <ZPE_kJmol>  (2) 
155.4365784144883

>  <E_elec_kJmol>  (2) 
-1351818.4401839648

>  <E0_minus_Eelec_plus_ZPE_kJmol>  (2) 
0.0

>  <rxn>  (2) 
rxn_1418

>  <species_type>  (2) 
p0

>  <species_folder>  (2) 
rxn_1418_C=CC=S

>  <frequencies_cm1_list>  (2) 
[143.52686017332, 284.27945827736, 458.62534856684, 626.85962192152, 901.60770457472, 915.3554091853599, 995.0811087505599, 1035.17743603404, 1098.5734445082799, 1194.99965237172, 1299.26109048528, 1341.3969124088, 1455.1759921758799, 1675.0087932250397, 3064.563873683, 3123.0293866974803, 3158.3600261688803, 3216.07703778348]

>  <E0_kJmol>  (2) 
-1.35166e+06

>  <H298_kJmol>  (2) 
-1.35165e+06

$$$$

     RDKit          3D

 19 17  0  0  0  0  0  0  0  0999 V2000
   -0.6046    0.2326   -3.4528 C   0  0  0  0  0  0  0  0  0  1  0  0
   -0.7732    0.2423   -2.2650 C   0  0  0  0  0  0  0  0  0  2  0  0
   -0.9277    0.2985   -0.8377 C   0  0  0  0  0  0  0  0  0  3  0  0
   -1.4554    1.6153   -0.2856 C   0  0  0  0  0  0  0  0  0  4  0  0
   -1.4569   -0.8850   -0.2206 C   0  0  0  0  0  0  0  0  0  5  0  0
   -1.8376   -1.8597    0.3655 C   0  0  0  0  0  0  0  0  0  6  0  0
   -0.4699    0.2114   -4.5077 H   0  0  0  0  0  0  0  0  0  7  0  0
    0.3036    0.2743   -0.3863 H   0  0  0  0  0  0  0  0  0  8  0  0
   -2.5093    1.7349   -0.5422 H   0  0  0  0  0  0  0  0  0  9  0  0
   -0.8931    2.4465   -0.7087 H   0  0  0  0  0  0  0  0  0 10  0  0
   -1.3489    1.6304    0.7984 H   0  0  0  0  0  0  0  0  0 11  0  0
   -2.1950   -2.7244    0.8717 H   0  0  0  0  0  0  0  0  0 12  0  0
    2.2893    1.0934   -0.7493 C   0  0  0  0  0  0  0  0  0 13  0  0
    1.5587    0.4320    0.1137 C   0  0  0  0  0  0  0  0  0 14  0  0
    1.5888   -0.1602    1.3909 C   0  0  0  0  0  0  0  0  0 15  0  0
    1.0697    0.5710    2.7617 S   0  0  0  0  0  1  0  0  0 16  0  0
    3.3148    1.3684   -0.5250 H   0  0  0  0  0  0  0  0  0 17  0  0
    1.8873    1.3879   -1.7124 H   0  0  0  0  0  0  0  0  0 18  0  0
    1.8998   -1.2047    1.4211 H   0  0  0  0  0  0  0  0  0 19  0  0
  1  7  1  0
  1  2  1  0
  2  3  1  0
  3  4  1  0
  3  5  1  0
  3  8  1  0
  4  9  1  0
  4 10  1  0
  4 11  1  0
  5  6  1  0
  6 12  1  0
 13 17  1  0
 13 14  1  0
 13 18  1  0
 14 15  1  0
 15 16  1  0
 15 19  1  0
M  RAD  1  16   2
M  END
>  <rmg_smiles>  (3) 
[CH][C]C([C][CH])C.[CH2][C][CH][S]

>  <rmg_adjacency_list>  (3) 
multiplicity 2
1  S u1 p2 c0 {5,S}
2  C u0 p0 c0 {3,S} {6,S} {7,S} {11,S}
3  C u0 p0 c0 {2,S} {12,S} {13,S} {14,S}
4  C u0 p0 c0 {8,S} {15,S} {16,S}
5  C u0 p0 c0 {1,S} {8,S} {17,S}
6  C u0 p1 c0 {2,S} {9,S}
7  C u0 p1 c0 {2,S} {10,S}
8  C u0 p1 c0 {4,S} {5,S}
9  C u0 p1 c0 {6,S} {18,S}
10 C u0 p1 c0 {7,S} {19,S}
11 H u0 p0 c0 {2,S}
12 H u0 p0 c0 {3,S}
13 H u0 p0 c0 {3,S}
14 H u0 p0 c0 {3,S}
15 H u0 p0 c0 {4,S}
16 H u0 p0 c0 {4,S}
17 H u0 p0 c0 {5,S}
18 H u0 p0 c0 {9,S}
19 H u0 p0 c0 {10,S}


>  <multiplicity>  (3) 
2

>  <reaction>  (3) 
rxn_1418

>  <type>  (3) 
ts

>  <role_mapnums>  (3) 
{"*2": 8, "*1": 3, "*3": 14, "*0": 2, "*4": 15}

>  <role_mapidx>  (3) 
{"*2": 7, "*1": 2, "*3": 13, "*0": 1, "*4": 14}

>  <ordered_mapped_smiles>  (3) 
[CH2:1]([CH2:2][C:3]([C:4]([H:9])([H:10])[H:11])([CH2:5][CH2:6][H:12])[H:8])[H:7].[CH:13]([CH2:14][CH:15]([S:16])[H:19])([H:17])[H:18]

>  <mol_properties>  (3) 
{"1": {"label": "*0", "atom_type": "C2s"}, "2": {"label": "*1", "atom_type": "Cs"}, "7": {"label": "*2", "atom_type": "H0"}, "13": {"label": "*3", "atom_type": "C2s"}, "14": {"label": "*4", "atom_type": "Cs"}}

>  <level_of_theory>  (3) 
wb97xd/def2tzvp

>  <lot_method>  (3) 
wb97xd

>  <lot_basis>  (3) 
def2tzvp

>  <spin_multiplicity>  (3) 
2.0

>  <optical_isomers>  (3) 
2.0

>  <modes>  (3) 
IdealGasTranslation(mass=(149.042, 'amu')),         NonlinearRotor(             inertia = ([346.963, 692.67, 857.738

>  <frequency_value>  (3) 
-1623.2

>  <frequency_units>  (3) 
cm^-1

>  <frequency_list>  (3) 
unknown

>  <arkane_path>  (3) 
/home/calvin/Dropbox/PersonalFolders/Calvin/HAb_Converged/rxn_1418/output/rxns/TS0/arkane/output.py

>  <path_exists>  (3) 
True

>  <E0_value>  (3) 
-1959050.0

>  <E0_units>  (3) 
kJ/mol

>  <thermo_class>  (3) 
unknown

>  <Cp0_value>  (3) 
unknown

>  <Cp0_units>  (3) 
unknown

>  <CpInf_value>  (3) 
unknown

>  <CpInf_units>  (3) 
unknown

>  <Tmin_value>  (3) 
unknown

>  <Tmin_units>  (3) 
unknown

>  <Tmax_value>  (3) 
unknown

>  <Tmax_units>  (3) 
unknown

>  <polynomials>  (3) 
unknown

>  <H298_value>  (3) 
unknown

>  <H298_units>  (3) 
unknown

>  <S298_value>  (3) 
unknown

>  <S298_units>  (3) 
unknown

>  <Cp_T_value_list>  (3) 
unknown

>  <Cp_T_units>  (3) 
unknown

>  <T_list>  (3) 
unknown

>  <T_units>  (3) 
unknown

>  <yaml_path>  (3) 
unknown

>  <frequencies_cm1>  (3) 
unknown

>  <ZPE_kJmol>  (3) 
unknown

>  <E_elec_kJmol>  (3) 
unknown

>  <E0_minus_Eelec_plus_ZPE_kJmol>  (3) 
unknown

>  <rxn>  (3) 
unknown

>  <species_type>  (3) 
unknown

>  <species_folder>  (3) 
unknown

>  <frequencies_cm1_list>  (3) 
[]

>  <ts_imag_freq_cm1>  (3) 
-1642.9164

>  <ts_freq_out_path>  (3) 
/home/calvin/Dropbox/PersonalFolders/Calvin/HAb_Converged/rxn_1418/output/rxns/TS0/geometry/freq.out

>  <E0_kJmol>  (3) 
-1.95905e+06

>  <H298_kJmol>  (3) 
unknown

$$$$

     RDKit          3D

 11 10  0  0  0  0  0  0  0  0999 V2000
   -0.9580    1.1013   -2.2955 C   0  0  0  0  0  0  0  0  0  1  0  0
   -0.5129    0.5941   -1.2929 C   0  0  0  0  0  0  0  0  0  2  0  0
   -0.0301   -0.0160   -0.1357 C   0  0  0  0  0  3  0  0  0  3  0  0
   -0.6593   -1.2845    0.3661 C   0  0  0  0  0  0  0  0  0  4  0  0
    1.0691    0.5292    0.5269 C   0  0  0  0  0  0  0  0  0  5  0  0
    2.0168    0.9794    1.1266 C   0  0  0  0  0  0  0  0  0  6  0  0
   -1.3415    1.5561   -3.1769 H   0  0  0  0  0  0  0  0  0  7  0  0
   -1.7166   -1.3186    0.1054 H   0  0  0  0  0  0  0  0  0  8  0  0
   -0.1742   -2.1550   -0.0865 H   0  0  0  0  0  0  0  0  0  9  0  0
   -0.5505   -1.3663    1.4470 H   0  0  0  0  0  0  0  0  0 10  0  0
    2.8514    1.3842    1.6465 H   0  0  0  0  0  0  0  0  0 11  0  0
  1  7  1  0
  1  2  1  0
  2  3  1  0
  3  4  1  0
  3  5  1  0
  4  8  1  0
  4  9  1  0
  4 10  1  0
  5  6  1  0
  6 11  1  0
M  RAD  1   3   2
M  END
>  <rmg_smiles>  (4) 
[CH]C[C](C)C[CH]

>  <rmg_adjacency_list>  (4) 
multiplicity 2
1  C u0 p0 c0 {2,S} {7,S} {8,S} {9,S}
2  C u1 p0 c0 {1,S} {3,S} {4,S}
3  C u0 p1 c0 {2,S} {5,S}
4  C u0 p1 c0 {2,S} {6,S}
5  C u0 p1 c0 {3,S} {10,S}
6  C u0 p1 c0 {4,S} {11,S}
7  H u0 p0 c0 {1,S}
8  H u0 p0 c0 {1,S}
9  H u0 p0 c0 {1,S}
10 H u0 p0 c0 {5,S}
11 H u0 p0 c0 {6,S}


>  <multiplicity>  (4) 
2

>  <reaction>  (4) 
rxn_1418

>  <type>  (4) 
r1

>  <role_mapnums>  (4) 
{}

>  <role_mapidx>  (4) 
{}

>  <ordered_mapped_smiles>  (4) 
[CH2:1]([CH2:2][C:3]([C:4]([H:8])([H:9])[H:10])[CH2:5][CH2:6][H:11])[H:7]

>  <level_of_theory>  (4) 
wb97xd/def2tzvp

>  <lot_method>  (4) 
wb97xd

>  <lot_basis>  (4) 
def2tzvp

>  <spin_multiplicity>  (4) 
2.0

>  <optical_isomers>  (4) 
1.0

>  <modes>  (4) 
IdealGasTranslation(mass=(77.0391, 'amu')),         NonlinearRotor(             inertia = ([87.0558, 182.116, 266.037

>  <frequency_value>  (4) 
unknown

>  <frequency_units>  (4) 
unknown

>  <frequency_list>  (4) 
unknown

>  <arkane_path>  (4) 
/home/calvin/Dropbox/PersonalFolders/Calvin/HAb_Converged/rxn_1418/output/Species/rxn_1418_CtC[C][C]CtC/arkane/output.py

>  <path_exists>  (4) 
True

>  <E0_value>  (4) 
-607514.9395077111

>  <E0_units>  (4) 
kJ/mol

>  <thermo_class>  (4) 
NASA

>  <Cp0_value>  (4) 
33.257888

>  <Cp0_units>  (4) 
J/(mol*K)

>  <CpInf_value>  (4) 
257.748632

>  <CpInf_units>  (4) 
J/(mol*K)

>  <Tmin_value>  (4) 
10.0

>  <Tmin_units>  (4) 
K

>  <Tmax_value>  (4) 
3000.0

>  <Tmax_units>  (4) 
K

>  <polynomials>  (4) 
[{"name": "polynomial1", "class": "NASAPolynomial", "Tmin_value": 10.0, "Tmin_units": "K", "Tmax_value": 349.46173600351864, "Tmax_units": "K", "coeffs": [3.766270434672447, 0.01962559465306403, 0.00015807938455067891, -5.467775010691105e-07, 5.441205279863145e-10, -73067173.52596356, 12.15378396539221]}, {"name": "polynomial2", "class": "NASAPolynomial", "Tmin_value": 349.46173600351864, "Tmin_units": "K", "Tmax_value": 3000.0, "Tmax_units": "K", "coeffs": [4.503025724813377, 0.03655999643186892, -2.3493426390627616e-05, 7.3276612126098215e-09, -8.780851036309253e-13, -73067379.9175016, 7.157724853906072]}]

>  <H298_value>  (4) 
-145194.46313324326

>  <H298_units>  (4) 
kcal/mol

>  <S298_value>  (4) 
84.90850212036293

>  <S298_units>  (4) 
cal/(mol*K)

>  <Cp_T_value_list>  (4) 
[26.877916196478143, 31.4268111749371, 35.31413934636125, 38.6518919246016, 43.93182763476164, 47.731054497646795, 53.19426248781607, 56.08143371701518, 57.80726761952239]

>  <Cp_T_units>  (4) 
cal/(mol*K)

>  <T_list>  (4) 
[300.0, 400.0, 500.0, 600.0, 800.0, 1000.0, 1500.0, 2000.0, 2400.0]

>  <T_units>  (4) 
K

>  <yaml_path>  (4) 
/home/calvin/Dropbox/PersonalFolders/Calvin/HAb_Converged/rxn_1418/output/Species/rxn_1418_CtC[C][C]CtC/rxn_1418_CtCCCCtC.yml

>  <frequencies_cm1>  (4) 
[29.02674694764, 135.43068448103998, 196.03869691536002, 226.34270313252, 381.02154746552, 485.94221616979996, 534.67721098584, 574.6774004748399, 575.94779275904, 598.55390843248, 680.22296484324, 681.74056859896, 705.74754927768, 980.1110807529599, 1012.7155270523198, 1219.2332435659998, 1286.1314145534398, 1393.02290804456, 1464.30221566616, 1471.2447378246798, 2036.0405464240396, 2119.5911568124798, 3006.0502917712797, 3079.4034289595193, 3119.3280816099996, 3427.5321167422394, 3431.14415102056]

>  <ZPE_kJmol>  (4) 
208.4566530536649

>  <E_elec_kJmol>  (4) 
-607723.3961607647

>  <E0_minus_Eelec_plus_ZPE_kJmol>  (4) 
0.0

>  <rxn>  (4) 
rxn_1418

>  <species_type>  (4) 
p1

>  <species_folder>  (4) 
rxn_1418_CtC[C][C]CtC

>  <frequencies_cm1_list>  (4) 
[29.02674694764, 135.43068448103998, 196.03869691536002, 226.34270313252, 381.02154746552, 485.94221616979996, 534.67721098584, 574.6774004748399, 575.94779275904, 598.55390843248, 680.22296484324, 681.74056859896, 705.74754927768, 980.1110807529599, 1012.7155270523198, 1219.2332435659998, 1286.1314145534398, 1393.02290804456, 1464.30221566616, 1471.2447378246798, 2036.0405464240396, 2119.5911568124798, 3006.0502917712797, 3079.4034289595193, 3119.3280816099996, 3427.5321167422394, 3431.14415102056]

>  <E0_kJmol>  (4) 
-607515

>  <H298_kJmol>  (4) 
-607494

$$$$

     RDKit          3D

  7  6  0  0  0  0  0  0  0  0999 V2000
   -1.3496    0.0255    0.0758 C   0  0  0  0  0  0  0  0  0  1  0  0
   -0.0636   -0.0704   -0.0033 C   0  0  0  0  0  0  0  0  0  2  0  0
    1.2597   -0.1602   -0.0839 C   0  0  0  0  0  0  0  0  0  3  0  0
    2.2616    1.2090   -0.0064 S   0  0  0  0  0  1  0  0  0  4  0  0
   -1.8547   -0.0180    1.0345 H   0  0  0  0  0  0  0  0  0  5  0  0
   -1.9552    0.1601   -0.8138 H   0  0  0  0  0  0  0  0  0  6  0  0
    1.7017   -1.1460   -0.2029 H   0  0  0  0  0  0  0  0  0  7  0  0
  1  5  1  0
  1  6  1  0
  1  2  1  0
  2  3  1  0
  3  7  1  0
  3  4  1  0
M  RAD  1   4   2
M  END
>  <rmg_smiles>  (5) 
[CH2][C][CH][S]

>  <rmg_adjacency_list>  (5) 
multiplicity 2
1 S u1 p2 c0 {3,S}
2 C u0 p0 c0 {4,S} {5,S} {6,S}
3 C u0 p0 c0 {1,S} {4,S} {7,S}
4 C u0 p1 c0 {2,S} {3,S}
5 H u0 p0 c0 {2,S}
6 H u0 p0 c0 {2,S}
7 H u0 p0 c0 {3,S}


>  <multiplicity>  (5) 
2

>  <reaction>  (5) 
rxn_1418

>  <type>  (5) 
r2

>  <role_mapnums>  (5) 
{}

>  <role_mapidx>  (5) 
{}

>  <ordered_mapped_smiles>  (5) 
[CH:1]([CH2:2][CH:3]([S:4])[H:7])([H:5])[H:6]

>  <level_of_theory>  (5) 
wb97xd/def2tzvp

>  <lot_method>  (5) 
wb97xd

>  <lot_basis>  (5) 
def2tzvp

>  <spin_multiplicity>  (5) 
2.0

>  <optical_isomers>  (5) 
1.0

>  <modes>  (5) 
IdealGasTranslation(mass=(70.9955, 'amu')),         NonlinearRotor(             inertia = ([15.5037, 168.136, 180.155

>  <frequency_value>  (5) 
unknown

>  <frequency_units>  (5) 
unknown

>  <frequency_list>  (5) 
unknown

>  <arkane_path>  (5) 
/home/calvin/Dropbox/PersonalFolders/Calvin/HAb_Converged/rxn_1418/output/Species/rxn_1418_C=[C]C=S/arkane/output.py

>  <path_exists>  (5) 
True

>  <E0_value>  (5) 
-1349974.9514304646

>  <E0_units>  (5) 
kJ/mol

>  <thermo_class>  (5) 
NASA

>  <Cp0_value>  (5) 
33.257888

>  <Cp0_units>  (5) 
J/(mol*K)

>  <CpInf_value>  (5) 
157.97496800000002

>  <CpInf_units>  (5) 
J/(mol*K)

>  <Tmin_value>  (5) 
10.0

>  <Tmin_units>  (5) 
K

>  <Tmax_value>  (5) 
3000.0

>  <Tmax_units>  (5) 
K

>  <polynomials>  (5) 
[{"name": "polynomial1", "class": "NASAPolynomial", "Tmin_value": 10.0, "Tmin_units": "K", "Tmax_value": 512.4132081755071, "Tmax_units": "K", "coeffs": [3.9367277430889454, 0.003960033189618784, 7.680606340322444e-05, -1.641203227603232e-07, 1.0627515985980872e-10, -162364481.16895175, 9.658168165074201]}, {"name": "polynomial2", "class": "NASAPolynomial", "Tmin_value": 512.4132081755071, "Tmin_units": "K", "Tmax_value": 3000.0, "Tmax_units": "K", "coeffs": [3.3647333007428304, 0.021676302493600218, -1.3845685269614659e-05, 4.288319658509041e-09, -5.118697163047367e-13, -162364596.5155951, 10.337743376880406]}]

>  <H298_value>  (5) 
-322648.2691664007

>  <H298_units>  (5) 
kcal/mol

>  <S298_value>  (5) 
70.4232093854119

>  <S298_units>  (5) 
cal/(mol*K)

>  <Cp_T_value_list>  (5) 
[16.825406163279702, 19.925033202376387, 22.34696643388099, 24.335344385010114, 27.48404868602145, 29.752059218905067, 33.00379104512425, 34.67921562368621, 35.642206703773255]

>  <Cp_T_units>  (5) 
cal/(mol*K)

>  <T_list>  (5) 
[300.0, 400.0, 500.0, 600.0, 800.0, 1000.0, 1500.0, 2000.0, 2400.0]

>  <T_units>  (5) 
K

>  <yaml_path>  (5) 
/home/calvin/Dropbox/PersonalFolders/Calvin/HAb_Converged/rxn_1418/output/Species/rxn_1418_C=[C]C=S/rxn_1418_C=CC=S.yml

>  <frequencies_cm1>  (5) 
[185.77942084728, 296.71556869188, 468.53440838359995, 521.0531121109599, 831.68806004648, 859.1354003705198, 874.6204522671201, 960.9109897982398, 1069.9999185917598, 1278.95541489404, 1416.10284570508, 1949.0701773462401, 3107.4275960504397, 3110.5658083416797, 3188.7189682686003]

>  <ZPE_kJmol>  (5) 
120.34004192737773

>  <E_elec_kJmol>  (5) 
-1350095.291472392

>  <E0_minus_Eelec_plus_ZPE_kJmol>  (5) 
0.0

>  <rxn>  (5) 
rxn_1418

>  <species_type>  (5) 
r1

>  <species_folder>  (5) 
rxn_1418_C=[C]C=S

>  <frequencies_cm1_list>  (5) 
[185.77942084728, 296.71556869188, 468.53440838359995, 521.0531121109599, 831.68806004648, 859.1354003705198, 874.6204522671201, 960.9109897982398, 1069.9999185917598, 1278.95541489404, 1416.10284570508, 1949.0701773462401, 3107.4275960504397, 3110.5658083416797, 3188.7189682686003]

>  <E0_kJmol>  (5) 
-1.34997e+06

>  <H298_kJmol>  (5) 
-1.34996e+06

$$$$
