
     RDKit          3D

  9  8  0  0  0  0  0  0  0  0999 V2000
   -0.2049   -0.1593   -1.2435 C   0  0  0  0  0  0  0  0  0  1  0  0
    0.0700   -0.4445    0.0292 C   0  0  0  0  0  0  0  0  0  2  0  0
    0.1543    0.5334    1.1137 C   0  0  0  0  0  0  0  0  0  3  0  0
   -0.2878   -0.9357   -1.9929 H   0  0  0  0  0  0  0  0  0  4  0  0
   -0.3470    0.8641   -1.5742 H   0  0  0  0  0  0  0  0  0  5  0  0
    0.2073   -1.4864    0.3073 H   0  0  0  0  0  0  0  0  0  6  0  0
   -0.7630    0.5231    1.7005 H   0  0  0  0  0  0  0  0  0  7  0  0
    0.2197    1.5685    0.7807 H   0  0  0  0  0  0  0  0  0  8  0  0
    0.9025    0.3073    1.8716 H   0  0  0  0  0  0  0  0  0  9  0  0
  1  5  1  0
  1  4  1  0
  1  2  1  0
  2  6  1  0
  2  3  1  0
  3  8  1  0
  3  7  1  0
  3  9  1  0
M  END
>  <rmg_smiles>  (1) 
[CH2][CH]C

>  <rmg_adjacency_list>  (1) 
1 C u0 p0 c0 {2,S} {4,S} {5,S} {6,S}
2 C u0 p0 c0 {1,S} {3,S} {7,S}
3 C u0 p0 c0 {2,S} {8,S} {9,S}
4 H u0 p0 c0 {1,S}
5 H u0 p0 c0 {1,S}
6 H u0 p0 c0 {1,S}
7 H u0 p0 c0 {2,S}
8 H u0 p0 c0 {3,S}
9 H u0 p0 c0 {3,S}


>  <multiplicity>  (1) 
1

>  <reaction>  (1) 
rxn_741

>  <type>  (1) 
r1h

>  <role_mapnums>  (1) 
{"r1h_a": 3, "r1h_h": 7}

>  <role_mapidx>  (1) 
{"r1h_a": 2, "r1h_h": 6}

>  <ordered_mapped_smiles>  (1) 
[CH:1]([CH:2]([C:3]([H:7])([H:8])[H:9])[H:6])([H:4])[H:5]

>  <mol_properties>  (1) 
{"2": {"label": "donator", "atom_type": "Cs"}, "6": {"label": "d_hydrogen", "atom_type": "H0"}}

>  <level_of_theory>  (1) 
wb97xd/def2tzvp

>  <lot_method>  (1) 
wb97xd

>  <lot_basis>  (1) 
def2tzvp

>  <spin_multiplicity>  (1) 
1.0

>  <optical_isomers>  (1) 
1.0

>  <modes>  (1) 
IdealGasTranslation(mass=(42.047, 'amu')),         NonlinearRotor(             inertia = ([10.7194, 53.9495, 61.5632

>  <frequency_value>  (1) 
unknown

>  <frequency_units>  (1) 
unknown

>  <frequency_list>  (1) 
unknown

>  <arkane_path>  (1) 
/home/calvin/Dropbox/PersonalFolders/Calvin/HAb_Converged/rxn_741/output/Species/rxn_741_C=CC/arkane/output.py

>  <path_exists>  (1) 
True

>  <E0_value>  (1) 
-309367.88070268225

>  <E0_units>  (1) 
kJ/mol

>  <thermo_class>  (1) 
NASA

>  <Cp0_value>  (1) 
33.257888

>  <Cp0_units>  (1) 
J/(mol*K)

>  <CpInf_value>  (1) 
207.8618

>  <CpInf_units>  (1) 
J/(mol*K)

>  <Tmin_value>  (1) 
10.0

>  <Tmin_units>  (1) 
K

>  <Tmax_value>  (1) 
3000.0

>  <Tmax_units>  (1) 
K

>  <polynomials>  (1) 
[{"name": "polynomial1", "class": "NASAPolynomial", "Tmin_value": 10.0, "Tmin_units": "K", "Tmax_value": 532.0577202057873, "Tmax_units": "K", "coeffs": [4.020103835302654, -0.0017074980479917085, 7.459046034705118e-05, -1.1023396025676474e-07, 5.3481197627967796e-11, -37208361.301710494, 6.986181334463051]}, {"name": "polynomial2", "class": "NASAPolynomial", "Tmin_value": 532.0577202057873, "Tmin_units": "K", "Tmax_value": 3000.0, "Tmax_units": "K", "coeffs": [-0.30507671788284774, 0.030809359218709958, -1.7083112014376123e-05, 4.633555316648191e-09, -4.924250044802513e-13, -37207901.05583462, 25.12344343354427]}]

>  <H298_value>  (1) 
-73937.54186756606

>  <H298_units>  (1) 
kcal/mol

>  <S298_value>  (1) 
63.24337268320408

>  <S298_units>  (1) 
cal/(mol*K)

>  <Cp_T_value_list>  (1) 
[15.257526344712856, 19.04881200484783, 22.609043962382263, 25.769394717679983, 30.960482554899503, 34.89991831876069, 40.970847866509764, 44.05802967631756, 45.61721763006197]

>  <Cp_T_units>  (1) 
cal/(mol*K)

>  <T_list>  (1) 
[300.0, 400.0, 500.0, 600.0, 800.0, 1000.0, 1500.0, 2000.0, 2400.0]

>  <T_units>  (1) 
K

>  <yaml_path>  (1) 
/home/calvin/Dropbox/PersonalFolders/Calvin/HAb_Converged/rxn_741/output/Species/rxn_741_C=CC/rxn_741_C=CC.yml

>  <frequencies_cm1>  (1) 
[200.09708523947998, 429.33078919172, 590.7049442117201, 925.49107951768, 943.8671322339999, 950.17102475776, 1024.49240687612, 1068.78446219012, 1186.6081963106801, 1322.3410281457998, 1395.89330790832, 1440.30896895808, 1465.7442825833598, 1480.7692464635202, 1719.664798761, 3008.0348505287598, 3066.795643912, 3091.69533268232, 3111.44478246264, 3123.9495627303595, 3201.2649504482397]

>  <ZPE_kJmol>  (1) 
207.83598829281505

>  <E_elec_kJmol>  (1) 
-309575.71669097507

>  <E0_minus_Eelec_plus_ZPE_kJmol>  (1) 
0.0

>  <rxn>  (1) 
rxn_741

>  <species_type>  (1) 
r0

>  <species_folder>  (1) 
rxn_741_C=CC

>  <frequencies_cm1_list>  (1) 
[200.09708523947998, 429.33078919172, 590.7049442117201, 925.49107951768, 943.8671322339999, 950.17102475776, 1024.49240687612, 1068.78446219012, 1186.6081963106801, 1322.3410281457998, 1395.89330790832, 1440.30896895808, 1465.7442825833598, 1480.7692464635202, 1719.664798761, 3008.0348505287598, 3066.795643912, 3091.69533268232, 3111.44478246264, 3123.9495627303595, 3201.2649504482397]

>  <E0_kJmol>  (1) 
-309368

>  <H298_kJmol>  (1) 
-309355

$$$$

     RDKit          3D

 19 20  0  0  0  0  0  0  0  0999 V2000
    2.1330    0.0405   -0.1483 H   0  0  0  0  0  0  0  0  0  1  0  0
    1.2521    0.1492    0.4834 C   0  0  0  0  0  0  0  0  0  2  0  0
    0.3407   -1.0603    0.3829 C   0  0  0  0  0  0  0  0  0  3  0  0
   -0.8912   -0.5428    1.1558 C   0  0  0  0  0  0  0  0  0  4  0  0
   -0.9377    0.9657    0.7744 C   0  0  0  0  0  0  0  0  0  5  0  0
    0.2860    1.1314   -0.1523 C   0  0  0  0  0  0  0  0  0  6  0  0
   -0.0227    0.4360   -1.4887 C   0  0  0  0  0  0  0  0  0  7  0  0
   -0.0062   -1.0713   -1.1160 C   0  0  0  0  0  0  0  0  0  8  0  0
    1.6745    0.3967    1.4566 H   0  0  0  0  0  0  0  0  0  9  0  0
    0.7336   -2.0032    0.7591 H   0  0  0  0  0  0  0  0  0 10  0  0
   -0.7556   -0.6709    2.2308 H   0  0  0  0  0  0  0  0  0 11  0  0
   -1.7991   -1.0784    0.8725 H   0  0  0  0  0  0  0  0  0 12  0  0
   -1.8650    1.2447    0.2708 H   0  0  0  0  0  0  0  0  0 13  0  0
   -0.8420    1.5968    1.6590 H   0  0  0  0  0  0  0  0  0 14  0  0
    0.6290    2.1598   -0.2514 H   0  0  0  0  0  0  0  0  0 15  0  0
   -0.9783    0.7600   -1.9032 H   0  0  0  0  0  0  0  0  0 16  0  0
    0.7508    0.6551   -2.2266 H   0  0  0  0  0  0  0  0  0 17  0  0
   -0.9628   -1.5617   -1.3023 H   0  0  0  0  0  0  0  0  0 18  0  0
    0.7549   -1.5998   -1.6900 H   0  0  0  0  0  0  0  0  0 19  0  0
  1  2  1  0
  2  6  1  0
  2  3  1  0
  2  9  1  0
  3  4  1  0
  3  8  1  0
  3 10  1  0
  4 11  1  0
  4 12  1  0
  4  5  1  0
  5 14  1  0
  5 13  1  0
  5  6  1  0
  6  7  1  0
  6 15  1  0
  7 17  1  0
  7  8  1  0
  7 16  1  0
  8 19  1  0
  8 18  1  0
M  END
>  <rmg_smiles>  (2) 
C1CC2CCC1C2

>  <rmg_adjacency_list>  (2) 
1  C u0 p0 c0 {3,S} {4,S} {7,S} {8,S}
2  C u0 p0 c0 {3,S} {5,S} {6,S} {9,S}
3  C u0 p0 c0 {1,S} {2,S} {10,S} {11,S}
4  C u0 p0 c0 {1,S} {5,S} {12,S} {13,S}
5  C u0 p0 c0 {2,S} {4,S} {14,S} {15,S}
6  C u0 p0 c0 {2,S} {7,S} {16,S} {17,S}
7  C u0 p0 c0 {1,S} {6,S} {18,S} {19,S}
8  H u0 p0 c0 {1,S}
9  H u0 p0 c0 {2,S}
10 H u0 p0 c0 {3,S}
11 H u0 p0 c0 {3,S}
12 H u0 p0 c0 {4,S}
13 H u0 p0 c0 {4,S}
14 H u0 p0 c0 {5,S}
15 H u0 p0 c0 {5,S}
16 H u0 p0 c0 {6,S}
17 H u0 p0 c0 {6,S}
18 H u0 p0 c0 {7,S}
19 H u0 p0 c0 {7,S}


>  <multiplicity>  (2) 
1

>  <reaction>  (2) 
rxn_741

>  <type>  (2) 
r2h

>  <role_mapnums>  (2) 
{"r2h_a": 2, "r2h_h": 1}

>  <role_mapidx>  (2) 
{"r2h_a": 1, "r2h_h": 0}

>  <ordered_mapped_smiles>  (2) 
[H:1][C:2]1([H:9])[C:3]2([H:10])[C:4]([H:11])([H:12])[C:5]([H:13])([H:14])[C:6]1([H:15])[C:7]([H:16])([H:17])[C:8]2([H:18])[H:19]

>  <mol_properties>  (2) 
{"0": {"label": "a_hydrogen", "atom_type": "H0"}, "1": {"label": "acceptor", "atom_type": "Cs"}}

>  <level_of_theory>  (2) 
wb97xd/def2tzvp

>  <lot_method>  (2) 
wb97xd

>  <lot_basis>  (2) 
def2tzvp

>  <spin_multiplicity>  (2) 
1.0

>  <optical_isomers>  (2) 
1.0

>  <modes>  (2) 
IdealGasTranslation(mass=(96.0939, 'amu')),         NonlinearRotor(             inertia = ([135.336, 156.085, 180.607

>  <frequency_value>  (2) 
unknown

>  <frequency_units>  (2) 
unknown

>  <frequency_list>  (2) 
unknown

>  <arkane_path>  (2) 
/home/calvin/Dropbox/PersonalFolders/Calvin/HAb_Converged/rxn_741/output/Species/rxn_741_C1CC2CCC1C2/arkane/output.py

>  <path_exists>  (2) 
True

>  <E0_value>  (2) 
-718893.5806331062

>  <E0_units>  (2) 
kJ/mol

>  <thermo_class>  (2) 
NASA

>  <Cp0_value>  (2) 
33.257888

>  <Cp0_units>  (2) 
J/(mol*K)

>  <CpInf_value>  (2) 
457.29596

>  <CpInf_units>  (2) 
J/(mol*K)

>  <Tmin_value>  (2) 
10.0

>  <Tmin_units>  (2) 
K

>  <Tmax_value>  (2) 
3000.0

>  <Tmax_units>  (2) 
K

>  <polynomials>  (2) 
[{"name": "polynomial1", "class": "NASAPolynomial", "Tmin_value": 10.0, "Tmin_units": "K", "Tmax_value": 662.4178125457627, "Tmax_units": "K", "coeffs": [4.239403585768697, -0.01836828814634063, 0.0002578950712714286, -3.7381328534857083e-07, 1.74409927807895e-10, -86462928.5201383, 9.87949578073462]}, {"name": "polynomial2", "class": "NASAPolynomial", "Tmin_value": 662.4178125457627, "Tmin_units": "K", "Tmax_value": 3000.0, "Tmax_units": "K", "coeffs": [-6.999983226389214, 0.08370637401899614, -5.070273549604008e-05, 1.4717426455763106e-08, -1.6436943039919863e-12, -86462189.9567335, 53.80936817756756]}]

>  <H298_value>  (2) 
-171815.58472962098

>  <H298_units>  (2) 
kcal/mol

>  <S298_value>  (2) 
73.63684385034063

>  <S298_units>  (2) 
cal/(mol*K)

>  <Cp_T_value_list>  (2) 
[26.348838520541374, 37.15309814493767, 47.10273015631388, 55.48382566754763, 68.31505323621754, 77.6548383777145, 91.07076230422987, 97.45683083224962, 100.88536523646154]

>  <Cp_T_units>  (2) 
cal/(mol*K)

>  <T_list>  (2) 
[300.0, 400.0, 500.0, 600.0, 800.0, 1000.0, 1500.0, 2000.0, 2400.0]

>  <T_units>  (2) 
K

>  <yaml_path>  (2) 
/home/calvin/Dropbox/PersonalFolders/Calvin/HAb_Converged/rxn_741/output/Species/rxn_741_C1CC2CCC1C2/rxn_741_C1CC2CCC1C2.yml

>  <frequencies_cm1>  (2) 
[154.85738595131997, 340.37586135643994, 406.75900844488, 450.69398052224, 546.52276066284, 762.7915963309199, 767.83883054112, 803.5128192785198, 822.9257867781599, 828.1927645185999, 886.4866029000799, 904.4231685559199, 936.7804033837599, 957.0723450043599, 964.2964135609999, 966.8990009972799, 969.81060277296, 1009.5017779225599, 1041.98261848616, 1088.6987196181199, 1128.4585646209198, 1135.50409155924, 1162.87589504476, 1186.2717140299999, 1234.53288685896, 1241.50287695876, 1269.37597037264, 1285.33484425632, 1285.7125284489198, 1300.5726846814, 1328.01315802012, 1340.8956224804401, 1342.91451616452, 1343.99949984508, 1472.87221334552, 1484.7314969931601, 1486.79845957448, 1493.51437121744, 1517.5419528521197, 3027.37228118988, 3027.8598371476, 3028.0795806778397, 3039.1354270430397, 3039.76032270716, 3064.0831847106, 3066.3286889102396, 3077.8514902772, 3080.41974278688, 3084.8970172155196, 3085.2334994962002, 3090.71335378156]

>  <ZPE_kJmol>  (2) 
462.7371032824111

>  <E_elec_kJmol>  (2) 
-719356.3177363885

>  <E0_minus_Eelec_plus_ZPE_kJmol>  (2) 
0.0

>  <rxn>  (2) 
rxn_741

>  <species_type>  (2) 
p0

>  <species_folder>  (2) 
rxn_741_C1CC2CCC1C2

>  <frequencies_cm1_list>  (2) 
[154.85738595131997, 340.37586135643994, 406.75900844488, 450.69398052224, 546.52276066284, 762.7915963309199, 767.83883054112, 803.5128192785198, 822.9257867781599, 828.1927645185999, 886.4866029000799, 904.4231685559199, 936.7804033837599, 957.0723450043599, 964.2964135609999, 966.8990009972799, 969.81060277296, 1009.5017779225599, 1041.98261848616, 1088.6987196181199, 1128.4585646209198, 1135.50409155924, 1162.87589504476, 1186.2717140299999, 1234.53288685896, 1241.50287695876, 1269.37597037264, 1285.33484425632, 1285.7125284489198, 1300.5726846814, 1328.01315802012, 1340.8956224804401, 1342.91451616452, 1343.99949984508, 1472.87221334552, 1484.7314969931601, 1486.79845957448, 1493.51437121744, 1517.5419528521197, 3027.37228118988, 3027.8598371476, 3028.0795806778397, 3039.1354270430397, 3039.76032270716, 3064.0831847106, 3066.3286889102396, 3077.8514902772, 3080.41974278688, 3084.8970172155196, 3085.2334994962002, 3090.71335378156]

>  <E0_kJmol>  (2) 
-718894

>  <H298_kJmol>  (2) 
-718876

$$$$

     RDKit          3D

 27 27  0  0  0  0  0  0  0  0999 V2000
    2.1249   -0.5161   -2.7401 C   0  0  0  0  0  0  0  0  0  1  0  0
    2.3998   -0.8013   -1.4674 C   0  0  0  0  0  0  0  0  0  2  0  0
    2.4842    0.1766   -0.3829 C   0  0  0  0  0  0  0  0  0  3  0  0
    2.0420   -1.2925   -3.4895 H   0  0  0  0  0  0  0  0  0  4  0  0
    1.9828    0.5073   -3.0708 H   0  0  0  0  0  0  0  0  0  5  0  0
    2.5371   -1.8432   -1.1893 H   0  0  0  0  0  0  0  0  0  6  0  0
    1.4036    0.1645    0.3083 H   0  0  0  0  0  0  0  0  0  7  0  0
    2.5495    1.2117   -0.7159 H   0  0  0  0  0  0  0  0  0  8  0  0
    3.2323   -0.0495    0.3750 H   0  0  0  0  0  0  0  0  0  9  0  0
    0.2468    0.3072    1.1378 C   0  0  0  0  0  3  0  0  0 10  0  0
   -0.6647   -0.9023    1.0374 C   0  0  0  0  0  0  0  0  0 11  0  0
   -1.8965   -0.3848    1.8103 C   0  0  0  0  0  0  0  0  0 12  0  0
   -1.9430    1.1237    1.4289 C   0  0  0  0  0  0  0  0  0 13  0  0
   -0.7194    1.2893    0.5022 C   0  0  0  0  0  0  0  0  0 14  0  0
   -1.0280    0.5940   -0.8342 C   0  0  0  0  0  0  0  0  0 15  0  0
   -1.0115   -0.9133   -0.4616 C   0  0  0  0  0  0  0  0  0 16  0  0
    0.6692    0.5547    2.1110 H   0  0  0  0  0  0  0  0  0 17  0  0
   -0.2718   -1.8453    1.4135 H   0  0  0  0  0  0  0  0  0 18  0  0
   -1.7610   -0.5129    2.8852 H   0  0  0  0  0  0  0  0  0 19  0  0
   -2.8045   -0.9204    1.5270 H   0  0  0  0  0  0  0  0  0 20  0  0
   -2.8704    1.4027    0.9253 H   0  0  0  0  0  0  0  0  0 21  0  0
   -1.8473    1.7548    2.3135 H   0  0  0  0  0  0  0  0  0 22  0  0
   -0.3763    2.3178    0.4031 H   0  0  0  0  0  0  0  0  0 23  0  0
   -1.9837    0.9180   -1.2487 H   0  0  0  0  0  0  0  0  0 24  0  0
   -0.2546    0.8131   -1.5721 H   0  0  0  0  0  0  0  0  0 25  0  0
   -1.9681   -1.4038   -0.6479 H   0  0  0  0  0  0  0  0  0 26  0  0
   -0.2505   -1.4418   -1.0356 H   0  0  0  0  0  0  0  0  0 27  0  0
  1  4  1  0
  1  5  1  0
  1  2  1  0
  2  6  1  0
  2  3  1  0
  3  8  1  0
  3  7  1  0
  3  9  1  0
 10 14  1  0
 10 11  1  0
 10 17  1  0
 11 16  1  0
 11 12  1  0
 11 18  1  0
 12 19  1  0
 12 20  1  0
 12 13  1  0
 13 21  1  0
 13 14  1  0
 13 22  1  0
 14 15  1  0
 14 23  1  0
 15 25  1  0
 15 16  1  0
 15 24  1  0
 16 26  1  0
 16 27  1  0
M  RAD  1  10   2
M  END
>  <rmg_smiles>  (3) 
[CH2][CH]C.[CH]1C2CCC1CC2

>  <rmg_adjacency_list>  (3) 
multiplicity 2
1  C u0 p0 c0 {3,S} {6,S} {8,S} {11,S}
2  C u0 p0 c0 {4,S} {5,S} {8,S} {12,S}
3  C u0 p0 c0 {1,S} {4,S} {13,S} {14,S}
4  C u0 p0 c0 {2,S} {3,S} {15,S} {16,S}
5  C u0 p0 c0 {2,S} {6,S} {17,S} {18,S}
6  C u0 p0 c0 {1,S} {5,S} {19,S} {20,S}
7  C u0 p0 c0 {9,S} {21,S} {22,S} {23,S}
8  C u1 p0 c0 {1,S} {2,S} {24,S}
9  C u0 p0 c0 {7,S} {10,S} {25,S}
10 C u0 p0 c0 {9,S} {26,S} {27,S}
11 H u0 p0 c0 {1,S}
12 H u0 p0 c0 {2,S}
13 H u0 p0 c0 {3,S}
14 H u0 p0 c0 {3,S}
15 H u0 p0 c0 {4,S}
16 H u0 p0 c0 {4,S}
17 H u0 p0 c0 {5,S}
18 H u0 p0 c0 {5,S}
19 H u0 p0 c0 {6,S}
20 H u0 p0 c0 {6,S}
21 H u0 p0 c0 {7,S}
22 H u0 p0 c0 {7,S}
23 H u0 p0 c0 {7,S}
24 H u0 p0 c0 {8,S}
25 H u0 p0 c0 {9,S}
26 H u0 p0 c0 {10,S}
27 H u0 p0 c0 {10,S}


>  <multiplicity>  (3) 
2

>  <reaction>  (3) 
rxn_741

>  <type>  (3) 
ts

>  <role_mapnums>  (3) 
{"*2": 7, "*1": 3, "*3": 10, "*0": 2, "*4": 11}

>  <role_mapidx>  (3) 
{"*2": 6, "*1": 2, "*3": 9, "*0": 1, "*4": 10}

>  <ordered_mapped_smiles>  (3) 
[CH:1]([CH:2]([C:3]([H:7])([H:8])[H:9])[H:6])([H:4])[H:5].[C:10]1([H:17])[C:11]2([H:18])[C:12]([H:19])([H:20])[C:13]([H:21])([H:22])[C:14]1([H:23])[C:15]([H:24])([H:25])[C:16]2([H:26])[H:27]

>  <mol_properties>  (3) 
{"1": {"label": "*0", "atom_type": "Cs"}, "2": {"label": "*1", "atom_type": "Cs"}, "6": {"label": "*2", "atom_type": "H0"}, "9": {"label": "*3", "atom_type": "Cs"}, "10": {"label": "*4", "atom_type": "Cs"}}

>  <level_of_theory>  (3) 
wb97xd/def2tzvp

>  <lot_method>  (3) 
wb97xd

>  <lot_basis>  (3) 
def2tzvp

>  <spin_multiplicity>  (3) 
2.0

>  <optical_isomers>  (3) 
2.0

>  <modes>  (3) 
IdealGasTranslation(mass=(137.133, 'amu')),         NonlinearRotor(             inertia = ([196.94, 658.629, 677.252

>  <frequency_value>  (3) 
-1663.13

>  <frequency_units>  (3) 
cm^-1

>  <frequency_list>  (3) 
unknown

>  <arkane_path>  (3) 
/home/calvin/Dropbox/PersonalFolders/Calvin/HAb_Converged/rxn_741/output/rxns/TS0/arkane/output.py

>  <path_exists>  (3) 
True

>  <E0_value>  (3) 
-1026490.0

>  <E0_units>  (3) 
kJ/mol

>  <thermo_class>  (3) 
unknown

>  <Cp0_value>  (3) 
unknown

>  <Cp0_units>  (3) 
unknown

>  <CpInf_value>  (3) 
unknown

>  <CpInf_units>  (3) 
unknown

>  <Tmin_value>  (3) 
unknown

>  <Tmin_units>  (3) 
unknown

>  <Tmax_value>  (3) 
unknown

>  <Tmax_units>  (3) 
unknown

>  <polynomials>  (3) 
unknown

>  <H298_value>  (3) 
unknown

>  <H298_units>  (3) 
unknown

>  <S298_value>  (3) 
unknown

>  <S298_units>  (3) 
unknown

>  <Cp_T_value_list>  (3) 
unknown

>  <Cp_T_units>  (3) 
unknown

>  <T_list>  (3) 
unknown

>  <T_units>  (3) 
unknown

>  <yaml_path>  (3) 
unknown

>  <frequencies_cm1>  (3) 
unknown

>  <ZPE_kJmol>  (3) 
unknown

>  <E_elec_kJmol>  (3) 
unknown

>  <E0_minus_Eelec_plus_ZPE_kJmol>  (3) 
unknown

>  <rxn>  (3) 
unknown

>  <species_type>  (3) 
unknown

>  <species_folder>  (3) 
unknown

>  <frequencies_cm1_list>  (3) 
[]

>  <ts_imag_freq_cm1>  (3) 
-1683.3301

>  <ts_freq_out_path>  (3) 
/home/calvin/Dropbox/PersonalFolders/Calvin/HAb_Converged/rxn_741/output/rxns/TS0/geometry/freq.out

>  <E0_kJmol>  (3) 
-1.02649e+06

>  <H298_kJmol>  (3) 
unknown

$$$$

     RDKit          3D

  8  7  0  0  0  0  0  0  0  0999 V2000
   -1.2262   -0.1032    0.0429 C   0  0  0  0  0  0  0  0  0  1  0  0
    0.0344    0.4295    0.2005 C   0  0  0  0  0  0  0  0  0  2  0  0
    1.2024   -0.1933   -0.1813 C   0  0  0  0  0  3  0  0  0  3  0  0
   -2.1090    0.4329    0.3624 H   0  0  0  0  0  0  0  0  0  4  0  0
   -1.3659   -1.0784   -0.4078 H   0  0  0  0  0  0  0  0  0  5  0  0
    0.1132    1.4113    0.6589 H   0  0  0  0  0  0  0  0  0  6  0  0
    2.1658    0.2743   -0.0323 H   0  0  0  0  0  0  0  0  0  7  0  0
    1.1853   -1.1731   -0.6434 H   0  0  0  0  0  0  0  0  0  8  0  0
  1  5  1  0
  1  4  1  0
  1  2  1  0
  2  6  1  0
  2  3  1  0
  3  8  1  0
  3  7  1  0
M  RAD  1   3   2
M  END
>  <rmg_smiles>  (4) 
[CH2][CH][CH2]

>  <rmg_adjacency_list>  (4) 
multiplicity 2
1 C u0 p0 c0 {2,S} {3,S} {4,S}
2 C u1 p0 c0 {1,S} {7,S} {8,S}
3 C u0 p0 c0 {1,S} {5,S} {6,S}
4 H u0 p0 c0 {1,S}
5 H u0 p0 c0 {3,S}
6 H u0 p0 c0 {3,S}
7 H u0 p0 c0 {2,S}
8 H u0 p0 c0 {2,S}


>  <multiplicity>  (4) 
2

>  <reaction>  (4) 
rxn_741

>  <type>  (4) 
r1

>  <role_mapnums>  (4) 
{}

>  <role_mapidx>  (4) 
{}

>  <ordered_mapped_smiles>  (4) 
[CH:1]([CH:2]([C:3]([H:7])[H:8])[H:6])([H:4])[H:5]

>  <level_of_theory>  (4) 
wb97xd/def2tzvp

>  <lot_method>  (4) 
wb97xd

>  <lot_basis>  (4) 
def2tzvp

>  <spin_multiplicity>  (4) 
2.0

>  <optical_isomers>  (4) 
1.0

>  <modes>  (4) 
IdealGasTranslation(mass=(41.0391, 'amu')),         NonlinearRotor(             inertia = ([9.18678, 48.3525, 57.5393

>  <frequency_value>  (4) 
unknown

>  <frequency_units>  (4) 
unknown

>  <frequency_list>  (4) 
unknown

>  <arkane_path>  (4) 
/home/calvin/Dropbox/PersonalFolders/Calvin/HAb_Converged/rxn_741/output/Species/rxn_741_[CH2]C=C/arkane/output.py

>  <path_exists>  (4) 
True

>  <E0_value>  (4) 
-307695.8239419476

>  <E0_units>  (4) 
kJ/mol

>  <thermo_class>  (4) 
NASA

>  <Cp0_value>  (4) 
33.257888

>  <Cp0_units>  (4) 
J/(mol*K)

>  <CpInf_value>  (4) 
182.918384

>  <CpInf_units>  (4) 
J/(mol*K)

>  <Tmin_value>  (4) 
10.0

>  <Tmin_units>  (4) 
K

>  <Tmax_value>  (4) 
3000.0

>  <Tmax_units>  (4) 
K

>  <polynomials>  (4) 
[{"name": "polynomial1", "class": "NASAPolynomial", "Tmin_value": 10.0, "Tmin_units": "K", "Tmax_value": 532.7267436952769, "Tmax_units": "K", "coeffs": [4.120476242700736, -0.01110500746607337, 0.00013118962632593044, -2.295122998736072e-07, 1.327617546042694e-10, -37007258.9235638, 6.732627685136077]}, {"name": "polynomial2", "class": "NASAPolynomial", "Tmin_value": 532.7267436952769, "Tmin_units": "K", "Tmax_value": 3000.0, "Tmax_units": "K", "coeffs": [0.911699466954835, 0.027118425571894478, -1.6222639840263127e-05, 4.752540164453407e-09, -5.404199600895895e-13, -37007117.54936121, 18.310519838179516]}]

>  <H298_value>  (4) 
-73538.08078140329

>  <H298_units>  (4) 
kcal/mol

>  <S298_value>  (4) 
61.52456331648896

>  <S298_units>  (4) 
cal/(mol*K)

>  <Cp_T_value_list>  (4) 
[14.853530963099974, 18.637467651362382, 21.80750730434748, 24.44088072021761, 28.68710434193412, 31.834263999492475, 36.54938793194129, 39.012029638884556, 40.38558701326713]

>  <Cp_T_units>  (4) 
cal/(mol*K)

>  <T_list>  (4) 
[300.0, 400.0, 500.0, 600.0, 800.0, 1000.0, 1500.0, 2000.0, 2400.0]

>  <T_units>  (4) 
K

>  <yaml_path>  (4) 
/home/calvin/Dropbox/PersonalFolders/Calvin/HAb_Converged/rxn_741/output/Species/rxn_741_[CH2]C=C/rxn_741_CH2C=C.yml

>  <frequencies_cm1>  (4) 
[432.19432207015996, 530.70122648556, 552.78545127468, 794.8604177753199, 818.87426543936, 934.1091460942799, 1008.91808417036, 1035.1568350780801, 1186.33351689788, 1269.2386306662397, 1410.5886564931197, 1500.8483115392, 1510.5101598844399, 3121.9787379435197, 3123.6542823616, 3129.68349547256, 3223.1843675896794, 3225.69081723148]

>  <ZPE_kJmol>  (4) 
172.31799451557927

>  <E_elec_kJmol>  (4) 
-307868.1419364632

>  <E0_minus_Eelec_plus_ZPE_kJmol>  (4) 
0.0

>  <rxn>  (4) 
rxn_741

>  <species_type>  (4) 
p1

>  <species_folder>  (4) 
rxn_741_[CH2]C=C

>  <frequencies_cm1_list>  (4) 
[432.19432207015996, 530.70122648556, 552.78545127468, 794.8604177753199, 818.87426543936, 934.1091460942799, 1008.91808417036, 1035.1568350780801, 1186.33351689788, 1269.2386306662397, 1410.5886564931197, 1500.8483115392, 1510.5101598844399, 3121.9787379435197, 3123.6542823616, 3129.68349547256, 3223.1843675896794, 3225.69081723148]

>  <E0_kJmol>  (4) 
-307696

>  <H298_kJmol>  (4) 
-307683

$$$$

     RDKit          3D

 18 19  0  0  0  0  0  0  0  0999 V2000
   -0.2352   -0.0323    1.4420 C   0  0  0  0  0  3  0  0  0  1  0  0
   -0.1734   -1.1359    0.4256 C   0  0  0  0  0  0  0  0  0  2  0  0
   -1.2562   -0.6812   -0.5734 C   0  0  0  0  0  0  0  0  0  3  0  0
   -1.1576    0.8706   -0.5226 C   0  0  0  0  0  0  0  0  0  4  0  0
   -0.0301    1.1185    0.4994 C   0  0  0  0  0  0  0  0  0  5  0  0
    1.3075    0.7028   -0.1632 C   0  0  0  0  0  0  0  0  0  6  0  0
    1.2087   -0.8504   -0.2141 C   0  0  0  0  0  0  0  0  0  7  0  0
    0.1290   -0.0888    2.4599 H   0  0  0  0  0  0  0  0  0  8  0  0
   -0.2924   -2.1557    0.7848 H   0  0  0  0  0  0  0  0  0  9  0  0
   -2.2417   -1.0206   -0.2534 H   0  0  0  0  0  0  0  0  0 10  0  0
   -1.0769   -1.0814   -1.5727 H   0  0  0  0  0  0  0  0  0 11  0  0
   -0.9249    1.3092   -1.4944 H   0  0  0  0  0  0  0  0  0 12  0  0
   -2.0935    1.3103   -0.1770 H   0  0  0  0  0  0  0  0  0 13  0  0
   -0.0206    2.1196    0.9249 H   0  0  0  0  0  0  0  0  0 14  0  0
    1.4248    1.1518   -1.1514 H   0  0  0  0  0  0  0  0  0 15  0  0
    2.1542    1.0215    0.4460 H   0  0  0  0  0  0  0  0  0 16  0  0
    1.2724   -1.2452   -1.2300 H   0  0  0  0  0  0  0  0  0 17  0  0
    2.0058   -1.3127    0.3695 H   0  0  0  0  0  0  0  0  0 18  0  0
  1  5  1  0
  1  8  1  0
  1  2  1  0
  2  3  1  0
  2  9  1  0
  2  7  1  0
  3  4  1  0
  3 11  1  0
  3 10  1  0
  4 12  1  0
  4  5  1  0
  4 13  1  0
  5 14  1  0
  5  6  1  0
  6  7  1  0
  6 16  1  0
  6 15  1  0
  7 17  1  0
  7 18  1  0
M  RAD  1   1   2
M  END
>  <rmg_smiles>  (5) 
[CH]1C2CCC1CC2

>  <rmg_adjacency_list>  (5) 
multiplicity 2
1  C u0 p0 c0 {3,S} {6,S} {7,S} {8,S}
2  C u0 p0 c0 {4,S} {5,S} {7,S} {9,S}
3  C u0 p0 c0 {1,S} {4,S} {10,S} {11,S}
4  C u0 p0 c0 {2,S} {3,S} {12,S} {13,S}
5  C u0 p0 c0 {2,S} {6,S} {14,S} {15,S}
6  C u0 p0 c0 {1,S} {5,S} {16,S} {17,S}
7  C u1 p0 c0 {1,S} {2,S} {18,S}
8  H u0 p0 c0 {1,S}
9  H u0 p0 c0 {2,S}
10 H u0 p0 c0 {3,S}
11 H u0 p0 c0 {3,S}
12 H u0 p0 c0 {4,S}
13 H u0 p0 c0 {4,S}
14 H u0 p0 c0 {5,S}
15 H u0 p0 c0 {5,S}
16 H u0 p0 c0 {6,S}
17 H u0 p0 c0 {6,S}
18 H u0 p0 c0 {7,S}


>  <multiplicity>  (5) 
2

>  <reaction>  (5) 
rxn_741

>  <type>  (5) 
r2

>  <role_mapnums>  (5) 
{}

>  <role_mapidx>  (5) 
{}

>  <ordered_mapped_smiles>  (5) 
[C:1]1([H:8])[C:2]2([H:9])[C:3]([H:10])([H:11])[C:4]([H:12])([H:13])[C:5]1([H:14])[C:6]([H:15])([H:16])[C:7]2([H:17])[H:18]

>  <level_of_theory>  (5) 
wb97xd/def2tzvp

>  <lot_method>  (5) 
wb97xd

>  <lot_basis>  (5) 
def2tzvp

>  <spin_multiplicity>  (5) 
2.0

>  <optical_isomers>  (5) 
1.0

>  <modes>  (5) 
IdealGasTranslation(mass=(95.0861, 'amu')),         NonlinearRotor(             inertia = ([131.698, 150.873, 179.768

>  <frequency_value>  (5) 
unknown

>  <frequency_units>  (5) 
unknown

>  <frequency_list>  (5) 
unknown

>  <arkane_path>  (5) 
/home/calvin/Dropbox/PersonalFolders/Calvin/HAb_Converged/rxn_741/output/Species/rxn_741_[CH]1C2CCC1CC2/arkane/output.py

>  <path_exists>  (5) 
True

>  <E0_value>  (5) 
-717147.6579744646

>  <E0_units>  (5) 
kJ/mol

>  <thermo_class>  (5) 
NASA

>  <Cp0_value>  (5) 
33.257888

>  <Cp0_units>  (5) 
J/(mol*K)

>  <CpInf_value>  (5) 
432.352544

>  <CpInf_units>  (5) 
J/(mol*K)

>  <Tmin_value>  (5) 
10.0

>  <Tmin_units>  (5) 
K

>  <Tmax_value>  (5) 
3000.0

>  <Tmax_units>  (5) 
K

>  <polynomials>  (5) 
[{"name": "polynomial1", "class": "NASAPolynomial", "Tmin_value": 10.0, "Tmin_units": "K", "Tmax_value": 635.4471957380537, "Tmax_units": "K", "coeffs": [4.18473062002596, -0.01502013194823754, 0.00025199852997619257, -3.844519780480544e-07, 1.8817169933707443e-10, -86252940.3442829, 11.25945795177864]}, {"name": "polynomial2", "class": "NASAPolynomial", "Tmin_value": 635.4471957380537, "Tmin_units": "K", "Tmax_value": 3000.0, "Tmax_units": "K", "coeffs": [-5.266597468019981, 0.07829329873190549, -4.8103907256015726e-05, 1.4148749675547229e-08, -1.598202956545304e-12, -86252421.98246332, 47.19856065920948]}]

>  <H298_value>  (5) 
-171398.1640011394

>  <H298_units>  (5) 
kcal/mol

>  <S298_value>  (5) 
77.09001921808854

>  <S298_units>  (5) 
cal/(mol*K)

>  <Cp_T_value_list>  (5) 
[26.832347370986522, 37.178073206487355, 46.45796896984967, 54.12663090213915, 65.91777941403888, 74.46726630497956, 86.64356863518884, 92.45104863781256, 95.63747410182123]

>  <Cp_T_units>  (5) 
cal/(mol*K)

>  <T_list>  (5) 
[300.0, 400.0, 500.0, 600.0, 800.0, 1000.0, 1500.0, 2000.0, 2400.0]

>  <T_units>  (5) 
K

>  <yaml_path>  (5) 
/home/calvin/Dropbox/PersonalFolders/Calvin/HAb_Converged/rxn_741/output/Species/rxn_741_[CH]1C2CCC1CC2/rxn_741_CH1C2CCC1CC2.yml

>  <frequencies_cm1>  (5) 
[142.57921619916, 339.05740017499994, 342.51836077628, 406.3813242522799, 543.5493560192799, 660.4597810922799, 754.13919482772, 763.8834469968, 814.36952306944, 824.35411972472, 832.64943799128, 877.8136004409199, 896.9656224984, 945.8036220942399, 950.5899108622799, 962.6414700988798, 996.8802589044, 1004.1867312848799, 1013.1275461715198, 1085.5399063709199, 1119.11946458572, 1163.69306629784, 1188.27687374344, 1199.57993158016, 1230.33715882844, 1235.5972695835599, 1270.0008660367598, 1274.45753950944, 1280.5966243855198, 1295.7108590748398, 1325.0328863912398, 1339.21321107704, 1348.0235532425997, 1470.44816752756, 1485.7409438352, 1490.2662871610798, 1508.79341355444, 3026.5001740542393, 3030.34568583344, 3037.5697543900797, 3042.08823073064, 3066.5552994257996, 3070.6480226765193, 3086.51075876572, 3091.4481212107994, 3096.85243865764, 3100.3408672001997, 3171.9703910731196]

>  <ZPE_kJmol>  (5) 
425.88988225412487

>  <E_elec_kJmol>  (5) 
-717573.5478567188

>  <E0_minus_Eelec_plus_ZPE_kJmol>  (5) 
0.0

>  <rxn>  (5) 
rxn_741

>  <species_type>  (5) 
r1

>  <species_folder>  (5) 
rxn_741_[CH]1C2CCC1CC2

>  <frequencies_cm1_list>  (5) 
[142.57921619916, 339.05740017499994, 342.51836077628, 406.3813242522799, 543.5493560192799, 660.4597810922799, 754.13919482772, 763.8834469968, 814.36952306944, 824.35411972472, 832.64943799128, 877.8136004409199, 896.9656224984, 945.8036220942399, 950.5899108622799, 962.6414700988798, 996.8802589044, 1004.1867312848799, 1013.1275461715198, 1085.5399063709199, 1119.11946458572, 1163.69306629784, 1188.27687374344, 1199.57993158016, 1230.33715882844, 1235.5972695835599, 1270.0008660367598, 1274.45753950944, 1280.5966243855198, 1295.7108590748398, 1325.0328863912398, 1339.21321107704, 1348.0235532425997, 1470.44816752756, 1485.7409438352, 1490.2662871610798, 1508.79341355444, 3026.5001740542393, 3030.34568583344, 3037.5697543900797, 3042.08823073064, 3066.5552994257996, 3070.6480226765193, 3086.51075876572, 3091.4481212107994, 3096.85243865764, 3100.3408672001997, 3171.9703910731196]

>  <E0_kJmol>  (5) 
-717148

>  <H298_kJmol>  (5) 
-717130

$$$$
