
     RDKit          3D

 19 20  0  0  0  0  0  0  0  0999 V2000
   -0.6216   -0.7098   -1.2248 C   0  0  0  0  0  0  0  0  0  1  0  0
   -0.7960   -1.3206    0.1921 C   0  0  0  0  0  0  0  0  0  2  0  0
   -0.2982   -0.2018    1.1211 C   0  0  0  0  0  0  0  0  0  3  0  0
    1.2298   -0.0653    0.9405 C   0  0  0  0  0  0  0  0  0  4  0  0
    1.3642    0.5905   -0.4653 C   0  0  0  0  0  0  0  0  0  5  0  0
   -0.1016    0.7095   -0.9343 C   0  0  0  0  0  0  0  0  0  6  0  0
   -0.7758    1.0374    0.3867 C   0  0  0  0  0  0  0  0  0  7  0  0
   -1.5704   -0.6811   -1.7596 H   0  0  0  0  0  0  0  0  0  8  0  0
    0.0842   -1.2722   -1.8378 H   0  0  0  0  0  0  0  0  0  9  0  0
   -1.8460   -1.5442    0.3875 H   0  0  0  0  0  0  0  0  0 10  0  0
   -0.2312   -2.2439    0.3289 H   0  0  0  0  0  0  0  0  0 11  0  0
   -0.6120   -0.3074    2.1582 H   0  0  0  0  0  0  0  0  0 12  0  0
    1.7300   -1.0336    1.0030 H   0  0  0  0  0  0  0  0  0 13  0  0
    1.6559    0.5744    1.7145 H   0  0  0  0  0  0  0  0  0 14  0  0
    1.9619   -0.0077   -1.1552 H   0  0  0  0  0  0  0  0  0 15  0  0
    1.8295    1.5749   -0.3946 H   0  0  0  0  0  0  0  0  0 16  0  0
   -0.2504    1.4155   -1.7493 H   0  0  0  0  0  0  0  0  0 17  0  0
   -1.8623    1.0393    0.3024 H   0  0  0  0  0  0  0  0  0 18  0  0
   -0.5691    2.0090    0.8350 H   0  0  0  0  0  0  0  0  0 19  0  0
  1  8  1  0
  1  6  1  0
  1  9  1  0
  1  2  1  0
  2 11  1  0
  2  3  1  0
  2 10  1  0
  3  4  1  0
  3 12  1  0
  3  7  1  0
  4 14  1  0
  4  5  1  0
  4 13  1  0
  5 16  1  0
  5 15  1  0
  5  6  1  0
  6  7  1  0
  6 17  1  0
  7 18  1  0
  7 19  1  0
M  END
>  <rmg_smiles>  (1) 
C1CC2CCC1C2

>  <rmg_adjacency_list>  (1) 
1  C u0 p0 c0 {3,S} {5,S} {6,S} {8,S}
2  C u0 p0 c0 {3,S} {4,S} {7,S} {9,S}
3  C u0 p0 c0 {1,S} {2,S} {18,S} {19,S}
4  C u0 p0 c0 {2,S} {5,S} {10,S} {11,S}
5  C u0 p0 c0 {1,S} {4,S} {12,S} {13,S}
6  C u0 p0 c0 {1,S} {7,S} {14,S} {15,S}
7  C u0 p0 c0 {2,S} {6,S} {16,S} {17,S}
8  H u0 p0 c0 {1,S}
9  H u0 p0 c0 {2,S}
10 H u0 p0 c0 {4,S}
11 H u0 p0 c0 {4,S}
12 H u0 p0 c0 {5,S}
13 H u0 p0 c0 {5,S}
14 H u0 p0 c0 {6,S}
15 H u0 p0 c0 {6,S}
16 H u0 p0 c0 {7,S}
17 H u0 p0 c0 {7,S}
18 H u0 p0 c0 {3,S}
19 H u0 p0 c0 {3,S}


>  <multiplicity>  (1) 
1

>  <reaction>  (1) 
rxn_547

>  <type>  (1) 
r1h

>  <role_mapnums>  (1) 
{"r1h_a": 7, "r1h_h": 18}

>  <role_mapidx>  (1) 
{"r1h_a": 6, "r1h_h": 17}

>  <ordered_mapped_smiles>  (1) 
[C:1]1([H:8])([H:9])[C:2]([H:10])([H:11])[C:3]2([H:12])[C:4]([H:13])([H:14])[C:5]([H:15])([H:16])[C:6]1([H:17])[C:7]2([H:18])[H:19]

>  <mol_properties>  (1) 
{"6": {"label": "donator", "atom_type": "Cs"}, "17": {"label": "d_hydrogen", "atom_type": "H0"}}

>  <level_of_theory>  (1) 
wb97xd/def2tzvp

>  <lot_method>  (1) 
wb97xd

>  <lot_basis>  (1) 
def2tzvp

>  <spin_multiplicity>  (1) 
1.0

>  <optical_isomers>  (1) 
1.0

>  <modes>  (1) 
IdealGasTranslation(mass=(96.0939, 'amu')),         NonlinearRotor(             inertia = ([135.336, 156.085, 180.607

>  <frequency_value>  (1) 
unknown

>  <frequency_units>  (1) 
unknown

>  <frequency_list>  (1) 
unknown

>  <arkane_path>  (1) 
/home/calvin/Dropbox/PersonalFolders/Calvin/HAb_Converged/rxn_547/output/Species/rxn_547_C1CC2CCC1C2/arkane/output.py

>  <path_exists>  (1) 
True

>  <E0_value>  (1) 
-718893.5806331062

>  <E0_units>  (1) 
kJ/mol

>  <thermo_class>  (1) 
NASA

>  <Cp0_value>  (1) 
33.257888

>  <Cp0_units>  (1) 
J/(mol*K)

>  <CpInf_value>  (1) 
457.29596

>  <CpInf_units>  (1) 
J/(mol*K)

>  <Tmin_value>  (1) 
10.0

>  <Tmin_units>  (1) 
K

>  <Tmax_value>  (1) 
3000.0

>  <Tmax_units>  (1) 
K

>  <polynomials>  (1) 
[{"name": "polynomial1", "class": "NASAPolynomial", "Tmin_value": 10.0, "Tmin_units": "K", "Tmax_value": 662.4178125457627, "Tmax_units": "K", "coeffs": [4.239403585768697, -0.01836828814634063, 0.0002578950712714286, -3.7381328534857083e-07, 1.74409927807895e-10, -86462928.5201383, 9.87949578073462]}, {"name": "polynomial2", "class": "NASAPolynomial", "Tmin_value": 662.4178125457627, "Tmin_units": "K", "Tmax_value": 3000.0, "Tmax_units": "K", "coeffs": [-6.999983226389214, 0.08370637401899614, -5.070273549604008e-05, 1.4717426455763106e-08, -1.6436943039919863e-12, -86462189.9567335, 53.80936817756756]}]

>  <H298_value>  (1) 
-171815.58472962098

>  <H298_units>  (1) 
kcal/mol

>  <S298_value>  (1) 
73.63684385034063

>  <S298_units>  (1) 
cal/(mol*K)

>  <Cp_T_value_list>  (1) 
[26.348838520541374, 37.15309814493767, 47.10273015631388, 55.48382566754763, 68.31505323621754, 77.6548383777145, 91.07076230422987, 97.45683083224962, 100.88536523646154]

>  <Cp_T_units>  (1) 
cal/(mol*K)

>  <T_list>  (1) 
[300.0, 400.0, 500.0, 600.0, 800.0, 1000.0, 1500.0, 2000.0, 2400.0]

>  <T_units>  (1) 
K

>  <yaml_path>  (1) 
/home/calvin/Dropbox/PersonalFolders/Calvin/HAb_Converged/rxn_547/output/Species/rxn_547_C1CC2CCC1C2/rxn_547_C1CC2CCC1C2.yml

>  <frequencies_cm1>  (1) 
[154.85738595131997, 340.37586135643994, 406.75900844488, 450.69398052224, 546.52276066284, 762.7915963309199, 767.83883054112, 803.5128192785198, 822.9257867781599, 828.1927645185999, 886.4866029000799, 904.4231685559199, 936.7804033837599, 957.0723450043599, 964.2964135609999, 966.8990009972799, 969.81060277296, 1009.5017779225599, 1041.98261848616, 1088.6987196181199, 1128.4585646209198, 1135.50409155924, 1162.87589504476, 1186.2717140299999, 1234.53288685896, 1241.50287695876, 1269.37597037264, 1285.33484425632, 1285.7125284489198, 1300.5726846814, 1328.01315802012, 1340.8956224804401, 1342.91451616452, 1343.99949984508, 1472.87221334552, 1484.7314969931601, 1486.79845957448, 1493.51437121744, 1517.5419528521197, 3027.37228118988, 3027.8598371476, 3028.0795806778397, 3039.1354270430397, 3039.76032270716, 3064.0831847106, 3066.3286889102396, 3077.8514902772, 3080.41974278688, 3084.8970172155196, 3085.2334994962002, 3090.71335378156]

>  <ZPE_kJmol>  (1) 
462.7371032824111

>  <E_elec_kJmol>  (1) 
-719356.3177363885

>  <E0_minus_Eelec_plus_ZPE_kJmol>  (1) 
0.0

>  <rxn>  (1) 
rxn_547

>  <species_type>  (1) 
r1

>  <species_folder>  (1) 
rxn_547_C1CC2CCC1C2

>  <frequencies_cm1_list>  (1) 
[154.85738595131997, 340.37586135643994, 406.75900844488, 450.69398052224, 546.52276066284, 762.7915963309199, 767.83883054112, 803.5128192785198, 822.9257867781599, 828.1927645185999, 886.4866029000799, 904.4231685559199, 936.7804033837599, 957.0723450043599, 964.2964135609999, 966.8990009972799, 969.81060277296, 1009.5017779225599, 1041.98261848616, 1088.6987196181199, 1128.4585646209198, 1135.50409155924, 1162.87589504476, 1186.2717140299999, 1234.53288685896, 1241.50287695876, 1269.37597037264, 1285.33484425632, 1285.7125284489198, 1300.5726846814, 1328.01315802012, 1340.8956224804401, 1342.91451616452, 1343.99949984508, 1472.87221334552, 1484.7314969931601, 1486.79845957448, 1493.51437121744, 1517.5419528521197, 3027.37228118988, 3027.8598371476, 3028.0795806778397, 3039.1354270430397, 3039.76032270716, 3064.0831847106, 3066.3286889102396, 3077.8514902772, 3080.41974278688, 3084.8970172155196, 3085.2334994962002, 3090.71335378156]

>  <E0_kJmol>  (1) 
-718894

>  <H298_kJmol>  (1) 
-718876

$$$$

     RDKit          3D

 15 15  0  0  0  0  0  0  0  0999 V2000
    0.6341    1.1706    2.0211 C   0  0  0  0  0  0  0  0  0  1  0  0
    0.1980    0.4737    0.8028 C   0  0  0  0  0  0  0  0  0  2  0  0
   -0.2133   -0.8601    0.8407 C   0  0  0  0  0  0  0  0  0  3  0  0
   -0.5277   -1.5441   -0.3214 C   0  0  0  0  0  0  0  0  0  4  0  0
   -0.4410   -0.9087   -1.5518 C   0  0  0  0  0  0  0  0  0  5  0  0
   -0.0446    0.4206   -1.6057 C   0  0  0  0  0  0  0  0  0  6  0  0
    0.2702    1.1022   -0.4431 C   0  0  0  0  0  0  0  0  0  7  0  0
    0.2988    0.7158    2.9511 H   0  0  0  0  0  0  0  0  0  8  0  0
    0.4648    2.2457    2.0152 H   0  0  0  0  0  0  0  0  0  9  0  0
   -0.2814   -1.3658    1.7973 H   0  0  0  0  0  0  0  0  0 10  0  0
   -0.8426   -2.5789   -0.2672 H   0  0  0  0  0  0  0  0  0 11  0  0
   -0.6848   -1.4432   -2.4609 H   0  0  0  0  0  0  0  0  0 12  0  0
    0.0212    0.9274   -2.5606 H   0  0  0  0  0  0  0  0  0 13  0  0
    0.5880    2.1374   -0.4949 H   0  0  0  0  0  0  0  0  0 14  0  0
    1.7192    1.1086    2.0762 H   0  0  0  0  0  0  0  0  0 15  0  0
  1 15  1  0
  1  8  1  0
  1  9  1  0
  1  2  1  0
  2  7  1  0
  2  3  1  0
  3  4  1  0
  3 10  1  0
  4  5  1  0
  4 11  1  0
  5 12  1  0
  5  6  1  0
  6 13  1  0
  6  7  1  0
  7 14  1  0
M  END
>  <rmg_smiles>  (2) 
CC1[CH][CH][CH][CH][CH]1

>  <rmg_adjacency_list>  (2) 
1  C u0 p0 c0 {2,S} {8,S} {9,S} {10,S}
2  C u0 p0 c0 {1,S} {3,S} {4,S}
3  C u0 p0 c0 {2,S} {5,S} {11,S}
4  C u0 p0 c0 {2,S} {7,S} {15,S}
5  C u0 p0 c0 {3,S} {6,S} {12,S}
6  C u0 p0 c0 {5,S} {7,S} {13,S}
7  C u0 p0 c0 {4,S} {6,S} {14,S}
8  H u0 p0 c0 {1,S}
9  H u0 p0 c0 {1,S}
10 H u0 p0 c0 {1,S}
11 H u0 p0 c0 {3,S}
12 H u0 p0 c0 {5,S}
13 H u0 p0 c0 {6,S}
14 H u0 p0 c0 {7,S}
15 H u0 p0 c0 {4,S}


>  <multiplicity>  (2) 
1

>  <reaction>  (2) 
rxn_547

>  <type>  (2) 
r2h

>  <role_mapnums>  (2) 
{"r2h_a": 1, "r2h_h": 15}

>  <role_mapidx>  (2) 
{"r2h_a": 0, "r2h_h": 14}

>  <ordered_mapped_smiles>  (2) 
[C:1]([CH:2]1[CH:3]([H:10])[CH:4]([H:11])[CH:5]([H:12])[CH:6]([H:13])[CH:7]1[H:14])([H:8])([H:9])[H:15]

>  <mol_properties>  (2) 
{"0": {"label": "acceptor", "atom_type": "Cs"}, "14": {"label": "a_hydrogen", "atom_type": "H0"}}

>  <level_of_theory>  (2) 
wb97xd/def2tzvp

>  <lot_method>  (2) 
wb97xd

>  <lot_basis>  (2) 
def2tzvp

>  <spin_multiplicity>  (2) 
1.0

>  <optical_isomers>  (2) 
1.0

>  <modes>  (2) 
IdealGasTranslation(mass=(92.0626, 'amu')),         NonlinearRotor(             inertia = ([90.1823, 198.896, 285.945

>  <frequency_value>  (2) 
unknown

>  <frequency_units>  (2) 
unknown

>  <frequency_list>  (2) 
unknown

>  <arkane_path>  (2) 
/home/calvin/Dropbox/PersonalFolders/Calvin/HAb_Converged/rxn_547/output/Species/rxn_547_Cc1ccccc1/arkane/output.py

>  <path_exists>  (2) 
True

>  <E0_value>  (2) 
-712667.4186954657

>  <E0_units>  (2) 
kJ/mol

>  <thermo_class>  (2) 
NASA

>  <Cp0_value>  (2) 
33.257888

>  <Cp0_units>  (2) 
J/(mol*K)

>  <CpInf_value>  (2) 
357.522296

>  <CpInf_units>  (2) 
J/(mol*K)

>  <Tmin_value>  (2) 
10.0

>  <Tmin_units>  (2) 
K

>  <Tmax_value>  (2) 
3000.0

>  <Tmax_units>  (2) 
K

>  <polynomials>  (2) 
[{"name": "polynomial1", "class": "NASAPolynomial", "Tmin_value": 10.0, "Tmin_units": "K", "Tmax_value": 551.6404107050422, "Tmax_units": "K", "coeffs": [3.9807877443631, 0.00035561988080208296, 0.00017407945539970812, -2.980514466570864e-07, 1.625970399361135e-10, -85714089.32981402, 11.957872909957874]}, {"name": "polynomial2", "class": "NASAPolynomial", "Tmin_value": 551.6404107050422, "Tmin_units": "K", "Tmax_value": 3000.0, "Tmax_units": "K", "coeffs": [-2.4640727136101863, 0.06292197006651765, -3.910390273638268e-05, 1.1617229825521433e-08, -1.3239176957032157e-12, -85713619.20098881, 37.03314537917204]}]

>  <H298_value>  (2) 
-170327.1711088113

>  <H298_units>  (2) 
kcal/mol

>  <S298_value>  (2) 
79.81344471114225

>  <S298_units>  (2) 
cal/(mol*K)

>  <Cp_T_value_list>  (2) 
[25.881917309628086, 33.90758568479932, 40.90534559010948, 46.79761268221675, 56.14404960423432, 62.889733704082204, 72.41563025517803, 76.9434671339039, 79.45318395865998]

>  <Cp_T_units>  (2) 
cal/(mol*K)

>  <T_list>  (2) 
[300.0, 400.0, 500.0, 600.0, 800.0, 1000.0, 1500.0, 2000.0, 2400.0]

>  <T_units>  (2) 
K

>  <yaml_path>  (2) 
/home/calvin/Dropbox/PersonalFolders/Calvin/HAb_Converged/rxn_547/output/Species/rxn_547_Cc1ccccc1/rxn_547_Cc1ccccc1.yml

>  <frequencies_cm1>  (2) 
[32.67311615255999, 208.88682644908, 346.6454189536, 414.1066827372799, 475.62800421915995, 527.95443235756, 633.69913930024, 711.73556047672, 745.6928028841199, 800.1617304423601, 861.8684605278798, 915.5202168330399, 979.4449831769199, 991.60641417864, 997.6768292015198, 1015.82627140228, 1052.7363174972797, 1058.5389200926797, 1109.8078324918, 1173.8974064833599, 1201.1112693065197, 1232.0058362611999, 1316.04400260736, 1349.7815014845198, 1404.03755249784, 1462.1391152903598, 1476.8481978457999, 1495.6225357106798, 1530.4999541509599, 1640.12450779944, 1663.1975784746398, 3015.0391755551595, 3079.01201079628, 3101.631860440359, 3145.0655425893597, 3146.5282104625194, 3159.5205466879593, 3168.9008486350795, 3181.02107772488]

>  <ZPE_kJmol>  (2) 
333.8912309447283

>  <E_elec_kJmol>  (2) 
-713001.3099264104

>  <E0_minus_Eelec_plus_ZPE_kJmol>  (2) 
0.0

>  <rxn>  (2) 
rxn_547

>  <species_type>  (2) 
p0

>  <species_folder>  (2) 
rxn_547_Cc1ccccc1

>  <frequencies_cm1_list>  (2) 
[32.67311615255999, 208.88682644908, 346.6454189536, 414.1066827372799, 475.62800421915995, 527.95443235756, 633.69913930024, 711.73556047672, 745.6928028841199, 800.1617304423601, 861.8684605278798, 915.5202168330399, 979.4449831769199, 991.60641417864, 997.6768292015198, 1015.82627140228, 1052.7363174972797, 1058.5389200926797, 1109.8078324918, 1173.8974064833599, 1201.1112693065197, 1232.0058362611999, 1316.04400260736, 1349.7815014845198, 1404.03755249784, 1462.1391152903598, 1476.8481978457999, 1495.6225357106798, 1530.4999541509599, 1640.12450779944, 1663.1975784746398, 3015.0391755551595, 3079.01201079628, 3101.631860440359, 3145.0655425893597, 3146.5282104625194, 3159.5205466879593, 3168.9008486350795, 3181.02107772488]

>  <E0_kJmol>  (2) 
-712667

>  <H298_kJmol>  (2) 
-712649

$$$$

     RDKit          3D

 33 34  0  0  0  0  0  0  0  0999 V2000
   -1.4336    1.1417    1.1435 C   0  0  0  0  0  0  0  0  0  1  0  0
   -1.8697    0.4448   -0.0748 C   0  0  0  0  0  0  0  0  0  2  0  0
   -2.2810   -0.8890   -0.0368 C   0  0  0  0  0  0  0  0  0  3  0  0
   -2.5954   -1.5730   -1.1990 C   0  0  0  0  0  0  0  0  0  4  0  0
   -2.5087   -0.9376   -2.4294 C   0  0  0  0  0  0  0  0  0  5  0  0
   -2.1122    0.3916   -2.4833 C   0  0  0  0  0  0  0  0  0  6  0  0
   -1.7975    1.0733   -1.3207 C   0  0  0  0  0  0  0  0  0  7  0  0
   -1.7688    0.6869    2.0735 H   0  0  0  0  0  0  0  0  0  8  0  0
   -1.6029    2.2168    1.1377 H   0  0  0  0  0  0  0  0  0  9  0  0
   -2.3491   -1.3947    0.9197 H   0  0  0  0  0  0  0  0  0 10  0  0
   -2.9103   -2.6078   -1.1448 H   0  0  0  0  0  0  0  0  0 11  0  0
   -2.7525   -1.4721   -3.3385 H   0  0  0  0  0  0  0  0  0 12  0  0
   -2.0465    0.8985   -3.4381 H   0  0  0  0  0  0  0  0  0 13  0  0
   -1.4797    2.1085   -1.3724 H   0  0  0  0  0  0  0  0  0 14  0  0
    1.4198   -0.6812   -0.2929 C   0  0  0  0  0  0  0  0  0 15  0  0
    1.2455   -1.2921    1.1240 C   0  0  0  0  0  0  0  0  0 16  0  0
    1.7433   -0.1732    2.0529 C   0  0  0  0  0  0  0  0  0 17  0  0
    3.2712   -0.0368    1.8724 C   0  0  0  0  0  0  0  0  0 18  0  0
    3.4056    0.6191    0.4666 C   0  0  0  0  0  0  0  0  0 19  0  0
    1.9399    0.7381   -0.0024 C   0  0  0  0  0  0  0  0  0 20  0  0
    1.2657    1.0660    1.3186 C   0  0  0  0  0  3  0  0  0 21  0  0
    0.4711   -0.6526   -0.8277 H   0  0  0  0  0  0  0  0  0 22  0  0
    2.1256   -1.2436   -0.9059 H   0  0  0  0  0  0  0  0  0 23  0  0
    0.1955   -1.5157    1.3194 H   0  0  0  0  0  0  0  0  0 24  0  0
    1.8102   -2.2153    1.2607 H   0  0  0  0  0  0  0  0  0 25  0  0
    1.4294   -0.2788    3.0901 H   0  0  0  0  0  0  0  0  0 26  0  0
    3.7714   -1.0050    1.9348 H   0  0  0  0  0  0  0  0  0 27  0  0
    3.6973    0.6030    2.6464 H   0  0  0  0  0  0  0  0  0 28  0  0
    4.0034    0.0208   -0.2233 H   0  0  0  0  0  0  0  0  0 29  0  0
    3.8709    1.6035    0.5373 H   0  0  0  0  0  0  0  0  0 30  0  0
    1.7910    1.4441   -0.8174 H   0  0  0  0  0  0  0  0  0 31  0  0
   -0.1505    1.0684    1.2087 H   0  0  0  0  0  0  0  0  0 32  0  0
    1.4723    2.0375    1.7669 H   0  0  0  0  0  0  0  0  0 33  0  0
  1  8  1  0
  1 32  1  0
  1  9  1  0
  1  2  1  0
  2  3  1  0
  2  7  1  0
  3  4  1  0
  3 10  1  0
  4 11  1  0
  4  5  1  0
  5 12  1  0
  5  6  1  0
  6  7  1  0
  6 13  1  0
  7 14  1  0
 15 23  1  0
 15 16  1  0
 15 22  1  0
 15 20  1  0
 16 17  1  0
 16 24  1  0
 16 25  1  0
 17 18  1  0
 17 21  1  0
 17 26  1  0
 18 19  1  0
 18 28  1  0
 18 27  1  0
 19 29  1  0
 19 20  1  0
 19 30  1  0
 20 31  1  0
 20 21  1  0
 21 33  1  0
M  RAD  1  21   2
M  END
>  <rmg_smiles>  (3) 
CC1[CH][CH][CH][CH][CH]1.[CH]1C2CCC1CC2

>  <rmg_adjacency_list>  (3) 
multiplicity 2
1  C u0 p0 c0 {4,S} {5,S} {9,S} {15,S}
2  C u0 p0 c0 {3,S} {6,S} {9,S} {16,S}
3  C u0 p0 c0 {2,S} {4,S} {17,S} {18,S}
4  C u0 p0 c0 {1,S} {3,S} {19,S} {20,S}
5  C u0 p0 c0 {1,S} {6,S} {21,S} {22,S}
6  C u0 p0 c0 {2,S} {5,S} {23,S} {24,S}
7  C u0 p0 c0 {8,S} {25,S} {26,S} {27,S}
8  C u0 p0 c0 {7,S} {10,S} {11,S}
9  C u1 p0 c0 {1,S} {2,S} {28,S}
10 C u0 p0 c0 {8,S} {12,S} {29,S}
11 C u0 p0 c0 {8,S} {14,S} {33,S}
12 C u0 p0 c0 {10,S} {13,S} {30,S}
13 C u0 p0 c0 {12,S} {14,S} {31,S}
14 C u0 p0 c0 {11,S} {13,S} {32,S}
15 H u0 p0 c0 {1,S}
16 H u0 p0 c0 {2,S}
17 H u0 p0 c0 {3,S}
18 H u0 p0 c0 {3,S}
19 H u0 p0 c0 {4,S}
20 H u0 p0 c0 {4,S}
21 H u0 p0 c0 {5,S}
22 H u0 p0 c0 {5,S}
23 H u0 p0 c0 {6,S}
24 H u0 p0 c0 {6,S}
25 H u0 p0 c0 {7,S}
26 H u0 p0 c0 {7,S}
27 H u0 p0 c0 {7,S}
28 H u0 p0 c0 {9,S}
29 H u0 p0 c0 {10,S}
30 H u0 p0 c0 {12,S}
31 H u0 p0 c0 {13,S}
32 H u0 p0 c0 {14,S}
33 H u0 p0 c0 {11,S}


>  <multiplicity>  (3) 
2

>  <reaction>  (3) 
rxn_547

>  <type>  (3) 
ts

>  <role_mapnums>  (3) 
{"*2": 32, "*1": 21, "*3": 1, "*0": 2, "*4": 17}

>  <role_mapidx>  (3) 
{"*2": 31, "*1": 20, "*3": 0, "*0": 1, "*4": 16}

>  <ordered_mapped_smiles>  (3) 
[C:1]([CH:2]1[CH:3]([H:10])[CH:4]([H:11])[CH:5]([H:12])[CH:6]([H:13])[CH:7]1[H:14])([H:8])([H:9])[H:32].[C:15]1([H:22])([H:23])[C:16]([H:24])([H:25])[C:17]2([H:26])[C:18]([H:27])([H:28])[C:19]([H:29])([H:30])[C:20]1([H:31])[C:21]2[H:33]

>  <mol_properties>  (3) 
{"0": {"label": "*3", "atom_type": "Cs"}, "1": {"label": "*0", "atom_type": "Cs"}, "16": {"label": "*4", "atom_type": "Cs"}, "20": {"label": "*1", "atom_type": "Cs"}, "31": {"label": "*2", "atom_type": "H0"}}

>  <level_of_theory>  (3) 
wb97xd/def2tzvp

>  <lot_method>  (3) 
wb97xd

>  <lot_basis>  (3) 
def2tzvp

>  <spin_multiplicity>  (3) 
2.0

>  <optical_isomers>  (3) 
2.0

>  <modes>  (3) 
IdealGasTranslation(mass=(187.149, 'amu')),         NonlinearRotor(             inertia = ([351.632, 1285.85, 1300.24

>  <frequency_value>  (3) 
-1637.35

>  <frequency_units>  (3) 
cm^-1

>  <frequency_list>  (3) 
unknown

>  <arkane_path>  (3) 
/home/calvin/Dropbox/PersonalFolders/Calvin/HAb_Converged/rxn_547/output/rxns/TS0/arkane/output.py

>  <path_exists>  (3) 
True

>  <E0_value>  (3) 
-1429790.0

>  <E0_units>  (3) 
kJ/mol

>  <thermo_class>  (3) 
unknown

>  <Cp0_value>  (3) 
unknown

>  <Cp0_units>  (3) 
unknown

>  <CpInf_value>  (3) 
unknown

>  <CpInf_units>  (3) 
unknown

>  <Tmin_value>  (3) 
unknown

>  <Tmin_units>  (3) 
unknown

>  <Tmax_value>  (3) 
unknown

>  <Tmax_units>  (3) 
unknown

>  <polynomials>  (3) 
unknown

>  <H298_value>  (3) 
unknown

>  <H298_units>  (3) 
unknown

>  <S298_value>  (3) 
unknown

>  <S298_units>  (3) 
unknown

>  <Cp_T_value_list>  (3) 
unknown

>  <Cp_T_units>  (3) 
unknown

>  <T_list>  (3) 
unknown

>  <T_units>  (3) 
unknown

>  <yaml_path>  (3) 
unknown

>  <frequencies_cm1>  (3) 
unknown

>  <ZPE_kJmol>  (3) 
unknown

>  <E_elec_kJmol>  (3) 
unknown

>  <E0_minus_Eelec_plus_ZPE_kJmol>  (3) 
unknown

>  <rxn>  (3) 
unknown

>  <species_type>  (3) 
unknown

>  <species_folder>  (3) 
unknown

>  <frequencies_cm1_list>  (3) 
[]

>  <ts_imag_freq_cm1>  (3) 
-1657.2408

>  <ts_freq_out_path>  (3) 
/home/calvin/Dropbox/PersonalFolders/Calvin/HAb_Converged/rxn_547/output/rxns/TS0/geometry/freq.out

>  <E0_kJmol>  (3) 
-1.42979e+06

>  <H298_kJmol>  (3) 
unknown

$$$$

     RDKit          3D

 18 19  0  0  0  0  0  0  0  0999 V2000
   -0.2352   -0.0323    1.4420 C   0  0  0  0  0  3  0  0  0  1  0  0
   -0.1734   -1.1359    0.4256 C   0  0  0  0  0  0  0  0  0  2  0  0
   -1.2562   -0.6812   -0.5734 C   0  0  0  0  0  0  0  0  0  3  0  0
   -1.1576    0.8706   -0.5226 C   0  0  0  0  0  0  0  0  0  4  0  0
   -0.0301    1.1185    0.4994 C   0  0  0  0  0  0  0  0  0  5  0  0
    1.3075    0.7028   -0.1632 C   0  0  0  0  0  0  0  0  0  6  0  0
    1.2087   -0.8504   -0.2141 C   0  0  0  0  0  0  0  0  0  7  0  0
    0.1290   -0.0888    2.4599 H   0  0  0  0  0  0  0  0  0  8  0  0
   -0.2924   -2.1557    0.7848 H   0  0  0  0  0  0  0  0  0  9  0  0
   -2.2417   -1.0206   -0.2534 H   0  0  0  0  0  0  0  0  0 10  0  0
   -1.0769   -1.0814   -1.5727 H   0  0  0  0  0  0  0  0  0 11  0  0
   -0.9249    1.3092   -1.4944 H   0  0  0  0  0  0  0  0  0 12  0  0
   -2.0935    1.3103   -0.1770 H   0  0  0  0  0  0  0  0  0 13  0  0
   -0.0206    2.1196    0.9249 H   0  0  0  0  0  0  0  0  0 14  0  0
    1.4248    1.1518   -1.1514 H   0  0  0  0  0  0  0  0  0 15  0  0
    2.1542    1.0215    0.4460 H   0  0  0  0  0  0  0  0  0 16  0  0
    1.2724   -1.2452   -1.2300 H   0  0  0  0  0  0  0  0  0 17  0  0
    2.0058   -1.3127    0.3695 H   0  0  0  0  0  0  0  0  0 18  0  0
  1  5  1  0
  1  8  1  0
  1  2  1  0
  2  3  1  0
  2  9  1  0
  2  7  1  0
  3  4  1  0
  3 11  1  0
  3 10  1  0
  4 12  1  0
  4  5  1  0
  4 13  1  0
  5 14  1  0
  5  6  1  0
  6  7  1  0
  6 16  1  0
  6 15  1  0
  7 17  1  0
  7 18  1  0
M  RAD  1   1   2
M  END
>  <rmg_smiles>  (4) 
[CH]1C2CCC1CC2

>  <rmg_adjacency_list>  (4) 
multiplicity 2
1  C u0 p0 c0 {3,S} {6,S} {7,S} {8,S}
2  C u0 p0 c0 {4,S} {5,S} {7,S} {9,S}
3  C u0 p0 c0 {1,S} {4,S} {10,S} {11,S}
4  C u0 p0 c0 {2,S} {3,S} {12,S} {13,S}
5  C u0 p0 c0 {2,S} {6,S} {14,S} {15,S}
6  C u0 p0 c0 {1,S} {5,S} {16,S} {17,S}
7  C u1 p0 c0 {1,S} {2,S} {18,S}
8  H u0 p0 c0 {1,S}
9  H u0 p0 c0 {2,S}
10 H u0 p0 c0 {3,S}
11 H u0 p0 c0 {3,S}
12 H u0 p0 c0 {4,S}
13 H u0 p0 c0 {4,S}
14 H u0 p0 c0 {5,S}
15 H u0 p0 c0 {5,S}
16 H u0 p0 c0 {6,S}
17 H u0 p0 c0 {6,S}
18 H u0 p0 c0 {7,S}


>  <multiplicity>  (4) 
2

>  <reaction>  (4) 
rxn_547

>  <type>  (4) 
r1

>  <role_mapnums>  (4) 
{}

>  <role_mapidx>  (4) 
{}

>  <ordered_mapped_smiles>  (4) 
[C:1]1([H:8])[C:2]2([H:9])[C:3]([H:10])([H:11])[C:4]([H:12])([H:13])[C:5]1([H:14])[C:6]([H:15])([H:16])[C:7]2([H:17])[H:18]

>  <level_of_theory>  (4) 
wb97xd/def2tzvp

>  <lot_method>  (4) 
wb97xd

>  <lot_basis>  (4) 
def2tzvp

>  <spin_multiplicity>  (4) 
2.0

>  <optical_isomers>  (4) 
1.0

>  <modes>  (4) 
IdealGasTranslation(mass=(95.0861, 'amu')),         NonlinearRotor(             inertia = ([131.698, 150.873, 179.768

>  <frequency_value>  (4) 
unknown

>  <frequency_units>  (4) 
unknown

>  <frequency_list>  (4) 
unknown

>  <arkane_path>  (4) 
/home/calvin/Dropbox/PersonalFolders/Calvin/HAb_Converged/rxn_547/output/Species/rxn_547_[CH]1C2CCC1CC2/arkane/output.py

>  <path_exists>  (4) 
True

>  <E0_value>  (4) 
-717147.6579749513

>  <E0_units>  (4) 
kJ/mol

>  <thermo_class>  (4) 
NASA

>  <Cp0_value>  (4) 
33.257888

>  <Cp0_units>  (4) 
J/(mol*K)

>  <CpInf_value>  (4) 
432.352544

>  <CpInf_units>  (4) 
J/(mol*K)

>  <Tmin_value>  (4) 
10.0

>  <Tmin_units>  (4) 
K

>  <Tmax_value>  (4) 
3000.0

>  <Tmax_units>  (4) 
K

>  <polynomials>  (4) 
[{"name": "polynomial1", "class": "NASAPolynomial", "Tmin_value": 10.0, "Tmin_units": "K", "Tmax_value": 635.4498092577459, "Tmax_units": "K", "coeffs": [4.184728400170363, -0.015020053566978274, 0.0002519980537941916, -3.8445072657376267e-07, 1.8817067904219946e-10, -86252940.34420538, 11.259462352099021]}, {"name": "polynomial2", "class": "NASAPolynomial", "Tmin_value": 635.4498092577459, "Tmin_units": "K", "Tmax_value": 3000.0, "Tmax_units": "K", "coeffs": [-5.266495648947054, 0.07829303837726027, -4.810367347510083e-05, 1.4148661403012806e-08, -1.5981910685037683e-12, -86252422.00760801, 47.19803798188497]}]

>  <H298_value>  (4) 
-171398.16399978104

>  <H298_units>  (4) 
kcal/mol

>  <S298_value>  (4) 
77.09002517122175

>  <S298_units>  (4) 
cal/(mol*K)

>  <Cp_T_value_list>  (4) 
[26.832355247397707, 37.17808695464531, 46.45799001661323, 54.126653698598815, 65.9177850357397, 74.4672640412527, 86.6435677559895, 92.45104915812537, 95.63746949779204]

>  <Cp_T_units>  (4) 
cal/(mol*K)

>  <T_list>  (4) 
[300.0, 400.0, 500.0, 600.0, 800.0, 1000.0, 1500.0, 2000.0, 2400.0]

>  <T_units>  (4) 
K

>  <yaml_path>  (4) 
/home/calvin/Dropbox/PersonalFolders/Calvin/HAb_Converged/rxn_547/output/Species/rxn_547_[CH]1C2CCC1CC2/rxn_547_CH1C2CCC1CC2.yml

>  <frequencies_cm1>  (4) 
[142.57921619916, 339.05740017499994, 342.51836077628, 406.3813242522799, 543.5493560192799, 660.4597810922799, 754.13919482772, 763.8834469968, 814.36952306944, 824.3472527393999, 832.64943799128, 877.8136004409199, 896.9656224984, 945.8036220942399, 950.5899108622799, 962.6414700988798, 996.8802589044, 1004.1867312848799, 1013.1275461715198, 1085.5399063709199, 1119.11946458572, 1163.69306629784, 1188.27687374344, 1199.57993158016, 1230.33715882844, 1235.5972695835599, 1270.0008660367598, 1274.4506725241201, 1280.5966243855198, 1295.7108590748398, 1325.0328863912398, 1339.21321107704, 1348.0235532425997, 1470.44816752756, 1485.7409438352, 1490.2662871610798, 1508.79341355444, 3026.5001740542393, 3030.34568583344, 3037.5697543900797, 3042.08823073064, 3066.5552994257996, 3070.6480226765193, 3086.5176257510398, 3091.4549881961198, 3096.85243865764, 3100.3408672001997, 3171.9703910731196]

>  <ZPE_kJmol>  (4) 
425.88988225412487

>  <E_elec_kJmol>  (4) 
-717573.5478572055

>  <E0_minus_Eelec_plus_ZPE_kJmol>  (4) 
0.0

>  <rxn>  (4) 
rxn_547

>  <species_type>  (4) 
p1

>  <species_folder>  (4) 
rxn_547_[CH]1C2CCC1CC2

>  <frequencies_cm1_list>  (4) 
[142.57921619916, 339.05740017499994, 342.51836077628, 406.3813242522799, 543.5493560192799, 660.4597810922799, 754.13919482772, 763.8834469968, 814.36952306944, 824.3472527393999, 832.64943799128, 877.8136004409199, 896.9656224984, 945.8036220942399, 950.5899108622799, 962.6414700988798, 996.8802589044, 1004.1867312848799, 1013.1275461715198, 1085.5399063709199, 1119.11946458572, 1163.69306629784, 1188.27687374344, 1199.57993158016, 1230.33715882844, 1235.5972695835599, 1270.0008660367598, 1274.4506725241201, 1280.5966243855198, 1295.7108590748398, 1325.0328863912398, 1339.21321107704, 1348.0235532425997, 1470.44816752756, 1485.7409438352, 1490.2662871610798, 1508.79341355444, 3026.5001740542393, 3030.34568583344, 3037.5697543900797, 3042.08823073064, 3066.5552994257996, 3070.6480226765193, 3086.5176257510398, 3091.4549881961198, 3096.85243865764, 3100.3408672001997, 3171.9703910731196]

>  <E0_kJmol>  (4) 
-717148

>  <H298_kJmol>  (4) 
-717130

$$$$

     RDKit          3D

 14 14  0  0  0  0  0  0  0  0999 V2000
    2.3111    0.1295    0.0255 C   0  0  0  0  0  0  0  0  0  1  0  0
    0.9132    0.0511    0.0101 C   0  0  0  0  0  0  0  0  0  2  0  0
    0.2446   -1.1981    0.0389 C   0  0  0  0  0  3  0  0  0  3  0  0
   -1.1306   -1.2689    0.0235 C   0  0  0  0  0  0  0  0  0  4  0  0
   -1.8967   -0.1062   -0.0209 C   0  0  0  0  0  0  0  0  0  5  0  0
   -1.2644    1.1347   -0.0499 C   0  0  0  0  0  0  0  0  0  6  0  0
    0.1101    1.2180   -0.0350 C   0  0  0  0  0  0  0  0  0  7  0  0
    2.9188   -0.7647    0.0599 H   0  0  0  0  0  0  0  0  0  8  0  0
    2.8158    1.0859    0.0034 H   0  0  0  0  0  0  0  0  0  9  0  0
    0.8353   -2.1058    0.0735 H   0  0  0  0  0  0  0  0  0 10  0  0
   -1.6191   -2.2351    0.0461 H   0  0  0  0  0  0  0  0  0 11  0  0
   -2.9772   -0.1668   -0.0328 H   0  0  0  0  0  0  0  0  0 12  0  0
   -1.8572    2.0404   -0.0845 H   0  0  0  0  0  0  0  0  0 13  0  0
    0.5964    2.1860   -0.0577 H   0  0  0  0  0  0  0  0  0 14  0  0
  1  8  1  0
  1  9  1  0
  1  2  1  0
  2  7  1  0
  2  3  1  0
  3  4  1  0
  3 10  1  0
  4  5  1  0
  4 11  1  0
  5 12  1  0
  5  6  1  0
  6 13  1  0
  6  7  1  0
  7 14  1  0
M  RAD  1   3   2
M  END
>  <rmg_smiles>  (5) 
[CH2]C1[CH][CH][CH][CH][CH]1

>  <rmg_adjacency_list>  (5) 
multiplicity 2
1  C u0 p0 c0 {2,S} {3,S} {7,S}
2  C u1 p0 c0 {1,S} {4,S} {8,S}
3  C u0 p0 c0 {1,S} {6,S} {12,S}
4  C u0 p0 c0 {2,S} {5,S} {9,S}
5  C u0 p0 c0 {4,S} {6,S} {10,S}
6  C u0 p0 c0 {3,S} {5,S} {11,S}
7  C u0 p0 c0 {1,S} {13,S} {14,S}
8  H u0 p0 c0 {2,S}
9  H u0 p0 c0 {4,S}
10 H u0 p0 c0 {5,S}
11 H u0 p0 c0 {6,S}
12 H u0 p0 c0 {3,S}
13 H u0 p0 c0 {7,S}
14 H u0 p0 c0 {7,S}


>  <multiplicity>  (5) 
2

>  <reaction>  (5) 
rxn_547

>  <type>  (5) 
r2

>  <role_mapnums>  (5) 
{}

>  <role_mapidx>  (5) 
{}

>  <ordered_mapped_smiles>  (5) 
[CH:1]([CH:2]1[C:3]([H:10])[CH:4]([H:11])[CH:5]([H:12])[CH:6]([H:13])[CH:7]1[H:14])([H:8])[H:9]

>  <level_of_theory>  (5) 
wb97xd/def2tzvp

>  <lot_method>  (5) 
wb97xd

>  <lot_basis>  (5) 
def2tzvp

>  <spin_multiplicity>  (5) 
2.0

>  <optical_isomers>  (5) 
1.0

>  <modes>  (5) 
IdealGasTranslation(mass=(91.0548, 'amu')),         NonlinearRotor(             inertia = ([90.2688, 184.999, 275.268

>  <frequency_value>  (5) 
unknown

>  <frequency_units>  (5) 
unknown

>  <frequency_list>  (5) 
unknown

>  <arkane_path>  (5) 
/home/calvin/Dropbox/PersonalFolders/Calvin/HAb_Converged/rxn_547/output/Species/rxn_547_[CH2]c1ccccc1/arkane/output.py

>  <path_exists>  (5) 
True

>  <E0_value>  (5) 
-710982.0623900568

>  <E0_units>  (5) 
kJ/mol

>  <thermo_class>  (5) 
NASA

>  <Cp0_value>  (5) 
33.257888

>  <Cp0_units>  (5) 
J/(mol*K)

>  <CpInf_value>  (5) 
332.57888

>  <CpInf_units>  (5) 
J/(mol*K)

>  <Tmin_value>  (5) 
10.0

>  <Tmin_units>  (5) 
K

>  <Tmax_value>  (5) 
3000.0

>  <Tmax_units>  (5) 
K

>  <polynomials>  (5) 
[{"name": "polynomial1", "class": "NASAPolynomial", "Tmin_value": 10.0, "Tmin_units": "K", "Tmax_value": 553.2109116327725, "Tmax_units": "K", "coeffs": [4.142543359170266, -0.014218763448623044, 0.0002576829967730386, -4.632974771235726e-07, 2.671038579104251e-10, -85511387.18347761, 10.487951999207327]}, {"name": "polynomial2", "class": "NASAPolynomial", "Tmin_value": 553.2109116327725, "Tmin_units": "K", "Tmax_value": 3000.0, "Tmax_units": "K", "coeffs": [-0.7942917364053798, 0.057999794075117024, -3.716274122111428e-05, 1.1355675181462914e-08, -1.3253487492588121e-12, -85511399.83577849, 26.331454017928447]}]

>  <H298_value>  (5) 
-169924.63454747986

>  <H298_units>  (5) 
kcal/mol

>  <S298_value>  (5) 
74.98251677136349

>  <S298_units>  (5) 
cal/(mol*K)

>  <Cp_T_value_list>  (5) 
[25.283016477228646, 33.52643449610302, 40.21254898412453, 45.52304279605987, 53.838654413345935, 59.76143508278511, 67.97251227799326, 71.92525612415508, 74.23565128362748]

>  <Cp_T_units>  (5) 
cal/(mol*K)

>  <T_list>  (5) 
[300.0, 400.0, 500.0, 600.0, 800.0, 1000.0, 1500.0, 2000.0, 2400.0]

>  <T_units>  (5) 
K

>  <yaml_path>  (5) 
/home/calvin/Dropbox/PersonalFolders/Calvin/HAb_Converged/rxn_547/output/Species/rxn_547_[CH2]c1ccccc1/rxn_547_CH2c1ccccc1.yml

>  <frequencies_cm1>  (5) 
[200.24815891652, 361.60171298056, 390.17523889708, 478.87608827552, 500.34228438583995, 531.78621016612, 625.85017507948, 685.3594698625999, 711.2686054749599, 777.5487477835999, 833.0683240958, 836.50868374112, 906.74420959408, 969.6801300518798, 974.03379874476, 983.70251407532, 992.09397013636, 1038.3980521491198, 1114.7108600102797, 1165.8355657176799, 1178.3403459854, 1276.27729061924, 1315.886061945, 1345.4965026448397, 1472.9546171693598, 1482.97354875124, 1496.57704667016, 1589.63156474148, 1604.18957361988, 3131.52384753832, 3150.75140643432, 3153.26472306144, 3164.65705170732, 3171.3798303356, 3183.3901876602795, 3230.66251460316]

>  <ZPE_kJmol>  (5) 
299.2207520027369

>  <E_elec_kJmol>  (5) 
-711281.2831420596

>  <E0_minus_Eelec_plus_ZPE_kJmol>  (5) 
0.0

>  <rxn>  (5) 
rxn_547

>  <species_type>  (5) 
r0

>  <species_folder>  (5) 
rxn_547_[CH2]c1ccccc1

>  <frequencies_cm1_list>  (5) 
[200.24815891652, 361.60171298056, 390.17523889708, 478.87608827552, 500.34228438583995, 531.78621016612, 625.85017507948, 685.3594698625999, 711.2686054749599, 777.5487477835999, 833.0683240958, 836.50868374112, 906.74420959408, 969.6801300518798, 974.03379874476, 983.70251407532, 992.09397013636, 1038.3980521491198, 1114.7108600102797, 1165.8355657176799, 1178.3403459854, 1276.27729061924, 1315.886061945, 1345.4965026448397, 1472.9546171693598, 1482.97354875124, 1496.57704667016, 1589.63156474148, 1604.18957361988, 3131.52384753832, 3150.75140643432, 3153.26472306144, 3164.65705170732, 3171.3798303356, 3183.3901876602795, 3230.66251460316]

>  <E0_kJmol>  (5) 
-710982

>  <H298_kJmol>  (5) 
-710965

$$$$
