
     RDKit          3D

 14 13  0  0  0  0  0  0  0  0999 V2000
   -0.1840    1.2758    0.6482 C   0  0  0  0  0  0  0  0  0  1  0  0
   -0.2976   -0.1456    0.1469 C   0  0  0  0  0  0  0  0  0  2  0  0
   -0.4506   -0.1950   -1.3702 C   0  0  0  0  0  0  0  0  0  3  0  0
    0.9117   -0.9693    0.5974 C   0  0  0  0  0  0  0  0  0  4  0  0
   -1.0992    1.8327    0.4426 H   0  0  0  0  0  0  0  0  0  5  0  0
    0.5976    1.8555    0.1534 H   0  0  0  0  0  0  0  0  0  6  0  0
   -0.1115    1.3653    1.7322 H   0  0  0  0  0  0  0  0  0  7  0  0
   -1.1905   -0.5937    0.5969 H   0  0  0  0  0  0  0  0  0  8  0  0
    0.4253    0.2418   -1.8582 H   0  0  0  0  0  0  0  0  0  9  0  0
   -0.5515   -1.2230   -1.7235 H   0  0  0  0  0  0  0  0  0 10  0  0
   -1.3292    0.3633   -1.6988 H   0  0  0  0  0  0  0  0  0 11  0  0
    1.0100   -0.9680    1.6844 H   0  0  0  0  0  0  0  0  0 12  0  0
    1.8336   -0.5601    0.1758 H   0  0  0  0  0  0  0  0  0 13  0  0
    0.8224   -2.0062    0.2659 H   0  0  0  0  0  0  0  0  0 14  0  0
  1  5  1  0
  1  7  1  0
  1  6  1  0
  1  2  1  0
  2  8  1  0
  2  3  1  0
  2  4  1  0
  3 11  1  0
  3  9  1  0
  3 10  1  0
  4 14  1  0
  4 13  1  0
  4 12  1  0
M  END
>  <rmg_smiles>  (1) 
CC(C)C

>  <rmg_adjacency_list>  (1) 
1  C u0 p0 c0 {2,S} {3,S} {4,S} {5,S}
2  C u0 p0 c0 {1,S} {6,S} {7,S} {8,S}
3  C u0 p0 c0 {1,S} {9,S} {10,S} {11,S}
4  C u0 p0 c0 {1,S} {12,S} {13,S} {14,S}
5  H u0 p0 c0 {1,S}
6  H u0 p0 c0 {2,S}
7  H u0 p0 c0 {2,S}
8  H u0 p0 c0 {2,S}
9  H u0 p0 c0 {3,S}
10 H u0 p0 c0 {3,S}
11 H u0 p0 c0 {3,S}
12 H u0 p0 c0 {4,S}
13 H u0 p0 c0 {4,S}
14 H u0 p0 c0 {4,S}


>  <multiplicity>  (1) 
1

>  <reaction>  (1) 
rxn_96

>  <type>  (1) 
r1h

>  <role_mapnums>  (1) 
{"r1h_a": 1, "r1h_h": 5}

>  <role_mapidx>  (1) 
{"r1h_a": 0, "r1h_h": 4}

>  <ordered_mapped_smiles>  (1) 
[C:1]([C:2]([C:3]([H:9])([H:10])[H:11])([C:4]([H:12])([H:13])[H:14])[H:8])([H:5])([H:6])[H:7]

>  <mol_properties>  (1) 
{"0": {"label": "donator", "atom_type": "Cs"}, "4": {"label": "d_hydrogen", "atom_type": "H0"}}

>  <level_of_theory>  (1) 
wb97xd/def2tzvp

>  <lot_method>  (1) 
wb97xd

>  <lot_basis>  (1) 
def2tzvp

>  <spin_multiplicity>  (1) 
1.0

>  <optical_isomers>  (1) 
1.0

>  <modes>  (1) 
IdealGasTranslation(mass=(58.0782, 'amu')),         NonlinearRotor(             inertia = ([64.4718, 64.473, 111.216

>  <frequency_value>  (1) 
unknown

>  <frequency_units>  (1) 
unknown

>  <frequency_list>  (1) 
unknown

>  <arkane_path>  (1) 
/home/calvin/Dropbox/PersonalFolders/Calvin/HAb_Converged/rxn_96/output/Species/rxn_96_CC[C]C/arkane/output.py

>  <path_exists>  (1) 
True

>  <E0_value>  (1) 
-415716.83673124097

>  <E0_units>  (1) 
kJ/mol

>  <thermo_class>  (1) 
NASA

>  <Cp0_value>  (1) 
33.257888

>  <Cp0_units>  (1) 
J/(mol*K)

>  <CpInf_value>  (1) 
332.57888

>  <CpInf_units>  (1) 
J/(mol*K)

>  <Tmin_value>  (1) 
10.0

>  <Tmin_units>  (1) 
K

>  <Tmax_value>  (1) 
3000.0

>  <Tmax_units>  (1) 
K

>  <polynomials>  (1) 
[{"name": "polynomial1", "class": "NASAPolynomial", "Tmin_value": 10.0, "Tmin_units": "K", "Tmax_value": 538.3074638018948, "Tmax_units": "K", "coeffs": [3.8626479449200675, 0.009574944685441466, 8.495774983094284e-05, -1.3127489033345595e-07, 6.349074115453347e-11, -49999182.12189803, 7.558304457382525]}, {"name": "polynomial2", "class": "NASAPolynomial", "Tmin_value": 538.3074638018948, "Tmin_units": "K", "Tmax_value": 3000.0, "Tmax_units": "K", "coeffs": [-1.5286334332253253, 0.04963591972689461, -2.667260356084909e-05, 6.973653547816338e-09, -7.144435395366836e-13, -49998601.68839898, 30.2291641320556]}]

>  <H298_value>  (1) 
-99354.5332328084

>  <H298_units>  (1) 
kcal/mol

>  <S298_value>  (1) 
69.8641615247454

>  <S298_units>  (1) 
cal/(mol*K)

>  <Cp_T_value_list>  (1) 
[22.557142265869256, 28.833642556990355, 34.67350987524638, 39.872301668063024, 48.46301963036931, 55.03348369189243, 65.24217227372851, 70.36881743793214, 72.85822786727128]

>  <Cp_T_units>  (1) 
cal/(mol*K)

>  <T_list>  (1) 
[300.0, 400.0, 500.0, 600.0, 800.0, 1000.0, 1500.0, 2000.0, 2400.0]

>  <T_units>  (1) 
K

>  <yaml_path>  (1) 
/home/calvin/Dropbox/PersonalFolders/Calvin/HAb_Converged/rxn_96/output/Species/rxn_96_CC[C]C/rxn_96_CCCC.yml

>  <frequencies_cm1>  (1) 
[211.03619285424, 262.4561789304, 263.18407937431994, 369.12792889127996, 369.47814514259994, 435.2226625962799, 804.0278431775198, 925.2850699580799, 925.48421253236, 953.43970977008, 976.11449529672, 976.42350963612, 1191.09920470996, 1191.16787456316, 1204.16707777392, 1353.0982553940798, 1353.1943931885598, 1393.2083166481998, 1393.46239510504, 1417.3801049746, 1467.53656575188, 1474.0945367324798, 1474.2318764388801, 1492.5323923166798, 1492.58046121392, 1500.95818330432, 2997.8923132111195, 3000.014211675, 3000.1172164547993, 3005.4734650043993, 3068.65659693372, 3068.78020266948, 3077.4120032167198, 3079.7467782255194, 3083.2695416946794, 3083.5373541221597]

>  <ZPE_kJmol>  (1) 
342.9389056754047

>  <E_elec_kJmol>  (1) 
-416059.7756369164

>  <E0_minus_Eelec_plus_ZPE_kJmol>  (1) 
0.0

>  <rxn>  (1) 
rxn_96

>  <species_type>  (1) 
r1

>  <species_folder>  (1) 
rxn_96_CC[C]C

>  <frequencies_cm1_list>  (1) 
[211.03619285424, 262.4561789304, 263.18407937431994, 369.12792889127996, 369.47814514259994, 435.2226625962799, 804.0278431775198, 925.2850699580799, 925.48421253236, 953.43970977008, 976.11449529672, 976.42350963612, 1191.09920470996, 1191.16787456316, 1204.16707777392, 1353.0982553940798, 1353.1943931885598, 1393.2083166481998, 1393.46239510504, 1417.3801049746, 1467.53656575188, 1474.0945367324798, 1474.2318764388801, 1492.5323923166798, 1492.58046121392, 1500.95818330432, 2997.8923132111195, 3000.014211675, 3000.1172164547993, 3005.4734650043993, 3068.65659693372, 3068.78020266948, 3077.4120032167198, 3079.7467782255194, 3083.2695416946794, 3083.5373541221597]

>  <E0_kJmol>  (1) 
-415717

>  <H298_kJmol>  (1) 
-415699

$$$$

     RDKit          3D

  4  3  0  0  0  0  0  0  0  0999 V2000
   -0.0477    0.0665    0.0413 N   0  0  0  0  0  0  0  0  0  1  0  0
    0.2158    0.3416   -0.9068 H   0  0  0  0  0  0  0  0  0  2  0  0
   -0.6216   -0.7686   -0.0917 H   0  0  0  0  0  0  0  0  0  3  0  0
    0.8246   -0.3733    0.3411 H   0  0  0  0  0  0  0  0  0  4  0  0
  1  3  1  0
  1  2  1  0
  1  4  1  0
M  END
>  <rmg_smiles>  (2) 
N

>  <rmg_adjacency_list>  (2) 
1 N u0 p1 c0 {2,S} {3,S} {4,S}
2 H u0 p0 c0 {1,S}
3 H u0 p0 c0 {1,S}
4 H u0 p0 c0 {1,S}


>  <multiplicity>  (2) 
1

>  <reaction>  (2) 
rxn_96

>  <type>  (2) 
r2h

>  <role_mapnums>  (2) 
{"r2h_a": 1, "r2h_h": 4}

>  <role_mapidx>  (2) 
{"r2h_a": 0, "r2h_h": 3}

>  <ordered_mapped_smiles>  (2) 
[N:1]([H:2])([H:3])[H:4]

>  <mol_properties>  (2) 
{"0": {"label": "acceptor", "atom_type": "N3s"}, "3": {"label": "a_hydrogen", "atom_type": "H0"}}

>  <level_of_theory>  (2) 
wb97xd/def2tzvp

>  <lot_method>  (2) 
wb97xd

>  <lot_basis>  (2) 
def2tzvp

>  <spin_multiplicity>  (2) 
1.0

>  <optical_isomers>  (2) 
1.0

>  <modes>  (2) 
IdealGasTranslation(mass=(17.0266, 'amu')),         NonlinearRotor(             inertia = ([1.67808, 1.67808, 2.6816

>  <frequency_value>  (2) 
unknown

>  <frequency_units>  (2) 
unknown

>  <frequency_list>  (2) 
unknown

>  <arkane_path>  (2) 
/home/calvin/Dropbox/PersonalFolders/Calvin/HAb_Converged/rxn_96/output/Species/rxn_96_N/arkane/output.py

>  <path_exists>  (2) 
True

>  <E0_value>  (2) 
-148421.26364269105

>  <E0_units>  (2) 
kJ/mol

>  <thermo_class>  (2) 
NASA

>  <Cp0_value>  (2) 
33.257888

>  <Cp0_units>  (2) 
J/(mol*K)

>  <CpInf_value>  (2) 
83.14472

>  <CpInf_units>  (2) 
J/(mol*K)

>  <Tmin_value>  (2) 
10.0

>  <Tmin_units>  (2) 
K

>  <Tmax_value>  (2) 
3000.0

>  <Tmax_units>  (2) 
K

>  <polynomials>  (2) 
[{"name": "polynomial1", "class": "NASAPolynomial", "Tmin_value": 10.0, "Tmin_units": "K", "Tmax_value": 661.0804506617714, "Tmax_units": "K", "coeffs": [4.018065952450781, -0.0010594462951532533, 7.0068770418278475e-06, -1.9448375260802637e-09, -1.6903909714968277e-12, -17850955.574744247, 0.2630280077390306]}, {"name": "polynomial2", "class": "NASAPolynomial", "Tmin_value": 661.0804506617714, "Tmin_units": "K", "Tmax_value": 3000.0, "Tmax_units": "K", "coeffs": [2.4516557563251014, 0.005556461768624229, -1.5108534204519605e-06, 9.614541938565228e-11, 1.4295840769984746e-14, -17850685.932123393, 7.644744620409682]}]

>  <H298_value>  (2) 
-35471.13537017314

>  <H298_units>  (2) 
kcal/mol

>  <S298_value>  (2) 
45.962578608532034

>  <S298_units>  (2) 
cal/(mol*K)

>  <Cp_T_value_list>  (2) 
[8.474736662297328, 9.037108019992646, 9.720038934265556, 10.464061758445943, 11.893353433479012, 13.130875057040445, 15.468001463496948, 16.92913622142614, 17.662419085416545]

>  <Cp_T_units>  (2) 
cal/(mol*K)

>  <T_list>  (2) 
[300.0, 400.0, 500.0, 600.0, 800.0, 1000.0, 1500.0, 2000.0, 2400.0]

>  <T_units>  (2) 
K

>  <yaml_path>  (2) 
/home/calvin/Dropbox/PersonalFolders/Calvin/HAb_Converged/rxn_96/output/Species/rxn_96_N/rxn_96_N.yml

>  <frequencies_cm1>  (2) 
[1006.65197901476, 1653.7074047623996, 1654.02328608712, 3472.52460455888, 3599.6737047439997, 3600.5252109236794]

>  <ZPE_kJmol>  (2) 
89.64282786797604

>  <E_elec_kJmol>  (2) 
-148510.906470559

>  <E0_minus_Eelec_plus_ZPE_kJmol>  (2) 
0.0

>  <rxn>  (2) 
rxn_96

>  <species_type>  (2) 
p0

>  <species_folder>  (2) 
rxn_96_N

>  <frequencies_cm1_list>  (2) 
[1006.65197901476, 1653.7074047623996, 1654.02328608712, 3472.52460455888, 3599.6737047439997, 3600.5252109236794]

>  <E0_kJmol>  (2) 
-148421

>  <H298_kJmol>  (2) 
-148411

$$$$

     RDKit          3D

 17 15  0  0  0  0  0  0  0  0999 V2000
   -1.8794    1.9615    0.1067 N   0  0  0  0  0  2  0  0  0  1  0  0
   -1.6159    2.2366   -0.8414 H   0  0  0  0  0  0  0  0  0  2  0  0
   -2.4533    1.1264   -0.0263 H   0  0  0  0  0  0  0  0  0  3  0  0
    0.3149    0.7428    0.7325 C   0  0  0  0  0  0  0  0  0  4  0  0
    0.2012   -0.6786    0.2312 C   0  0  0  0  0  0  0  0  0  5  0  0
    0.0482   -0.7281   -1.2860 C   0  0  0  0  0  0  0  0  0  6  0  0
    1.4105   -1.5023    0.6817 C   0  0  0  0  0  0  0  0  0  7  0  0
   -0.7629    1.3986    0.4904 H   0  0  0  0  0  0  0  0  0  8  0  0
    1.0964    1.3225    0.2377 H   0  0  0  0  0  0  0  0  0  9  0  0
    0.3874    0.8323    1.8164 H   0  0  0  0  0  0  0  0  0 10  0  0
   -0.6917   -1.1267    0.6812 H   0  0  0  0  0  0  0  0  0 11  0  0
    0.9241   -0.2912   -1.7740 H   0  0  0  0  0  0  0  0  0 12  0  0
   -0.0527   -1.7560   -1.6392 H   0  0  0  0  0  0  0  0  0 13  0  0
   -0.8303   -0.1698   -1.6145 H   0  0  0  0  0  0  0  0  0 14  0  0
    1.5088   -1.5010    1.7686 H   0  0  0  0  0  0  0  0  0 15  0  0
    2.3325   -1.0931    0.2601 H   0  0  0  0  0  0  0  0  0 16  0  0
    1.3212   -2.5392    0.3502 H   0  0  0  0  0  0  0  0  0 17  0  0
  1  2  1  0
  1  3  1  0
  4  8  1  0
  4  5  1  0
  4  9  1  0
  4 10  1  0
  5 11  1  0
  5  7  1  0
  5  6  1  0
  6 14  1  0
  6 13  1  0
  6 12  1  0
  7 17  1  0
  7 15  1  0
  7 16  1  0
M  RAD  1   1   2
M  END
>  <rmg_smiles>  (3) 
CC(C)C.[NH2]

>  <rmg_adjacency_list>  (3) 
multiplicity 2
1  N u1 p1 c0 {16,S} {17,S}
2  C u0 p0 c0 {3,S} {4,S} {5,S} {6,S}
3  C u0 p0 c0 {2,S} {7,S} {8,S} {9,S}
4  C u0 p0 c0 {2,S} {10,S} {11,S} {12,S}
5  C u0 p0 c0 {2,S} {13,S} {14,S} {15,S}
6  H u0 p0 c0 {2,S}
7  H u0 p0 c0 {3,S}
8  H u0 p0 c0 {3,S}
9  H u0 p0 c0 {3,S}
10 H u0 p0 c0 {4,S}
11 H u0 p0 c0 {4,S}
12 H u0 p0 c0 {4,S}
13 H u0 p0 c0 {5,S}
14 H u0 p0 c0 {5,S}
15 H u0 p0 c0 {5,S}
16 H u0 p0 c0 {1,S}
17 H u0 p0 c0 {1,S}


>  <multiplicity>  (3) 
2

>  <reaction>  (3) 
rxn_96

>  <type>  (3) 
ts

>  <role_mapnums>  (3) 
{"*2": 8, "*1": 4, "*3": 1, "*0": 5, "*4": 2}

>  <role_mapidx>  (3) 
{"*2": 7, "*1": 3, "*3": 0, "*0": 4, "*4": 1}

>  <ordered_mapped_smiles>  (3) 
[N:1]([H:2])[H:3].[C:4]([C:5]([C:6]([H:12])([H:13])[H:14])([C:7]([H:15])([H:16])[H:17])[H:11])([H:8])([H:9])[H:10]

>  <mol_properties>  (3) 
{"0": {"label": "*3", "atom_type": "N3s"}, "1": {"label": "*4", "atom_type": "H0"}, "3": {"label": "*1", "atom_type": "Cs"}, "4": {"label": "*0", "atom_type": "Cs"}, "7": {"label": "*2", "atom_type": "H0"}}

>  <level_of_theory>  (3) 
wb97xd/def2tzvp

>  <lot_method>  (3) 
wb97xd

>  <lot_basis>  (3) 
def2tzvp

>  <spin_multiplicity>  (3) 
2.0

>  <optical_isomers>  (3) 
2.0

>  <modes>  (3) 
IdealGasTranslation(mass=(74.097, 'amu')),         NonlinearRotor(             inertia = ([69.0764, 214.522, 258.07

>  <frequency_value>  (3) 
-1698.45

>  <frequency_units>  (3) 
cm^-1

>  <frequency_list>  (3) 
unknown

>  <arkane_path>  (3) 
/home/calvin/Dropbox/PersonalFolders/Calvin/HAb_Converged/rxn_96/output/rxns/TS0/arkane/output.py

>  <path_exists>  (3) 
True

>  <E0_value>  (3) 
-562343.0

>  <E0_units>  (3) 
kJ/mol

>  <thermo_class>  (3) 
unknown

>  <Cp0_value>  (3) 
unknown

>  <Cp0_units>  (3) 
unknown

>  <CpInf_value>  (3) 
unknown

>  <CpInf_units>  (3) 
unknown

>  <Tmin_value>  (3) 
unknown

>  <Tmin_units>  (3) 
unknown

>  <Tmax_value>  (3) 
unknown

>  <Tmax_units>  (3) 
unknown

>  <polynomials>  (3) 
unknown

>  <H298_value>  (3) 
unknown

>  <H298_units>  (3) 
unknown

>  <S298_value>  (3) 
unknown

>  <S298_units>  (3) 
unknown

>  <Cp_T_value_list>  (3) 
unknown

>  <Cp_T_units>  (3) 
unknown

>  <T_list>  (3) 
unknown

>  <T_units>  (3) 
unknown

>  <yaml_path>  (3) 
unknown

>  <frequencies_cm1>  (3) 
unknown

>  <ZPE_kJmol>  (3) 
unknown

>  <E_elec_kJmol>  (3) 
unknown

>  <E0_minus_Eelec_plus_ZPE_kJmol>  (3) 
unknown

>  <rxn>  (3) 
unknown

>  <species_type>  (3) 
unknown

>  <species_folder>  (3) 
unknown

>  <frequencies_cm1_list>  (3) 
[]

>  <ts_imag_freq_cm1>  (3) 
-1719.0742

>  <ts_freq_out_path>  (3) 
/home/calvin/Dropbox/PersonalFolders/Calvin/HAb_Converged/rxn_96/output/rxns/TS0/geometry/freq.out

>  <E0_kJmol>  (3) 
-562343

>  <H298_kJmol>  (3) 
unknown

$$$$

     RDKit          3D

 13 12  0  0  0  0  0  0  0  0999 V2000
   -0.4829    1.4403   -0.3409 C   0  0  0  0  0  3  0  0  0  1  0  0
    0.0787    0.0671   -0.4409 C   0  0  0  0  0  0  0  0  0  2  0  0
    0.3145   -0.5495    0.9388 C   0  0  0  0  0  0  0  0  0  3  0  0
    1.3508    0.0366   -1.2894 C   0  0  0  0  0  0  0  0  0  4  0  0
   -0.3688    2.1453   -1.1545 H   0  0  0  0  0  0  0  0  0  5  0  0
   -1.1302    1.7147    0.4824 H   0  0  0  0  0  0  0  0  0  6  0  0
   -0.6656   -0.5653   -0.9534 H   0  0  0  0  0  0  0  0  0  7  0  0
   -0.6023   -0.5519    1.5313 H   0  0  0  0  0  0  0  0  0  8  0  0
    1.0695    0.0178    1.4883 H   0  0  0  0  0  0  0  0  0  9  0  0
    0.6630   -1.5804    0.8509 H   0  0  0  0  0  0  0  0  0 10  0  0
    2.1414    0.6240   -0.8164 H   0  0  0  0  0  0  0  0  0 11  0  0
    1.1717    0.4514   -2.2832 H   0  0  0  0  0  0  0  0  0 12  0  0
    1.7147   -0.9856   -1.4103 H   0  0  0  0  0  0  0  0  0 13  0  0
  1  5  1  0
  1  6  1  0
  1  2  1  0
  2  7  1  0
  2  3  1  0
  2  4  1  0
  3  9  1  0
  3 10  1  0
  3  8  1  0
  4 13  1  0
  4 12  1  0
  4 11  1  0
M  RAD  1   1   2
M  END
>  <rmg_smiles>  (4) 
[CH2]C(C)C

>  <rmg_adjacency_list>  (4) 
multiplicity 2
1  C u0 p0 c0 {2,S} {3,S} {4,S} {5,S}
2  C u0 p0 c0 {1,S} {6,S} {7,S} {8,S}
3  C u0 p0 c0 {1,S} {9,S} {10,S} {11,S}
4  C u1 p0 c0 {1,S} {12,S} {13,S}
5  H u0 p0 c0 {1,S}
6  H u0 p0 c0 {2,S}
7  H u0 p0 c0 {2,S}
8  H u0 p0 c0 {2,S}
9  H u0 p0 c0 {3,S}
10 H u0 p0 c0 {3,S}
11 H u0 p0 c0 {3,S}
12 H u0 p0 c0 {4,S}
13 H u0 p0 c0 {4,S}


>  <multiplicity>  (4) 
2

>  <reaction>  (4) 
rxn_96

>  <type>  (4) 
r1

>  <role_mapnums>  (4) 
{}

>  <role_mapidx>  (4) 
{}

>  <ordered_mapped_smiles>  (4) 
[C:1]([C:2]([C:3]([H:8])([H:9])[H:10])([C:4]([H:11])([H:12])[H:13])[H:7])([H:5])[H:6]

>  <level_of_theory>  (4) 
wb97xd/def2tzvp

>  <lot_method>  (4) 
wb97xd

>  <lot_basis>  (4) 
def2tzvp

>  <spin_multiplicity>  (4) 
2.0

>  <optical_isomers>  (4) 
1.0

>  <modes>  (4) 
IdealGasTranslation(mass=(57.0704, 'amu')),         NonlinearRotor(             inertia = ([59.5606, 63.39, 108.586

>  <frequency_value>  (4) 
unknown

>  <frequency_units>  (4) 
unknown

>  <frequency_list>  (4) 
unknown

>  <arkane_path>  (4) 
/home/calvin/Dropbox/PersonalFolders/Calvin/HAb_Converged/rxn_96/output/Species/rxn_96_[CH2]C[C]C/arkane/output.py

>  <path_exists>  (4) 
True

>  <E0_value>  (4) 
-413983.0738184321

>  <E0_units>  (4) 
kJ/mol

>  <thermo_class>  (4) 
NASA

>  <Cp0_value>  (4) 
33.257888

>  <Cp0_units>  (4) 
J/(mol*K)

>  <CpInf_value>  (4) 
307.635464

>  <CpInf_units>  (4) 
J/(mol*K)

>  <Tmin_value>  (4) 
10.0

>  <Tmin_units>  (4) 
K

>  <Tmax_value>  (4) 
3000.0

>  <Tmax_units>  (4) 
K

>  <polynomials>  (4) 
[{"name": "polynomial1", "class": "NASAPolynomial", "Tmin_value": 10.0, "Tmin_units": "K", "Tmax_value": 422.7006024652162, "Tmax_units": "K", "coeffs": [3.801557940822066, 0.014598364284720151, 7.81364108549254e-05, -1.5375462918999758e-07, 9.390572814272922e-11, -49790657.32653574, 9.428384652702356]}, {"name": "polynomial2", "class": "NASAPolynomial", "Tmin_value": 422.7006024652162, "Tmin_units": "K", "Tmax_value": 3000.0, "Tmax_units": "K", "coeffs": [0.7837472549441569, 0.04315578078828058, -2.3202704100243613e-05, 6.0733396649487434e-09, -6.221090586057554e-13, -49790402.20033874, 21.38896808680506]}]

>  <H298_value>  (4) 
-98939.92357357952

>  <H298_units>  (4) 
kcal/mol

>  <S298_value>  (4) 
74.98679984362816

>  <S298_units>  (4) 
cal/(mol*K)

>  <Cp_T_value_list>  (4) 
[23.49395873240781, 29.224692960396023, 34.34140691158251, 38.86073383403731, 46.328490954317544, 52.04107224780781, 60.926615574811336, 65.4138000702495, 67.62028038631306]

>  <Cp_T_units>  (4) 
cal/(mol*K)

>  <T_list>  (4) 
[300.0, 400.0, 500.0, 600.0, 800.0, 1000.0, 1500.0, 2000.0, 2400.0]

>  <T_units>  (4) 
K

>  <yaml_path>  (4) 
/home/calvin/Dropbox/PersonalFolders/Calvin/HAb_Converged/rxn_96/output/Species/rxn_96_[CH2]C[C]C/rxn_96_CH2CCC.yml

>  <frequencies_cm1>  (4) 
[129.94396321035998, 230.44916035387996, 259.87419245008, 364.26610328472, 376.42753428643994, 403.3667176968, 530.3922121461599, 817.9060205092399, 905.4120144419999, 942.48686818468, 968.8011559309199, 984.65015804948, 1084.39311982248, 1179.6862751081198, 1201.38594871932, 1315.27490025152, 1324.0028385932399, 1388.9095838378798, 1402.9113669053597, 1453.1227635651999, 1473.09882386108, 1477.9057135850799, 1488.0207829614399, 1496.61824858208, 2907.9279385337995, 3006.9842017747997, 3009.56618825512, 3079.78798013744, 3083.0223302231598, 3085.28843537876, 3087.5133386224397, 3116.29287409856, 3219.30452088388]

>  <ZPE_kJmol>  (4) 
303.82162310237294

>  <E_elec_kJmol>  (4) 
-414286.8954415344

>  <E0_minus_Eelec_plus_ZPE_kJmol>  (4) 
0.0

>  <rxn>  (4) 
rxn_96

>  <species_type>  (4) 
p1

>  <species_folder>  (4) 
rxn_96_[CH2]C[C]C

>  <frequencies_cm1_list>  (4) 
[129.94396321035998, 230.44916035387996, 259.87419245008, 364.26610328472, 376.42753428643994, 403.3667176968, 530.3922121461599, 817.9060205092399, 905.4120144419999, 942.48686818468, 968.8011559309199, 984.65015804948, 1084.39311982248, 1179.6862751081198, 1201.38594871932, 1315.27490025152, 1324.0028385932399, 1388.9095838378798, 1402.9113669053597, 1453.1227635651999, 1473.09882386108, 1477.9057135850799, 1488.0207829614399, 1496.61824858208, 2907.9279385337995, 3006.9842017747997, 3009.56618825512, 3079.78798013744, 3083.0223302231598, 3085.28843537876, 3087.5133386224397, 3116.29287409856, 3219.30452088388]

>  <E0_kJmol>  (4) 
-413983

>  <H298_kJmol>  (4) 
-413965

$$$$

     RDKit          3D

  3  2  0  0  0  0  0  0  0  0999 V2000
    0.0002    0.4233    0.0000 N   0  0  0  0  0  2  0  0  0  1  0  0
   -0.8051   -0.2112    0.0000 H   0  0  0  0  0  0  0  0  0  2  0  0
    0.8049   -0.2121    0.0000 H   0  0  0  0  0  0  0  0  0  3  0  0
  1  3  1  0
  1  2  1  0
M  RAD  1   1   2
M  END
>  <rmg_smiles>  (5) 
[NH2]

>  <rmg_adjacency_list>  (5) 
multiplicity 2
1 N u1 p1 c0 {2,S} {3,S}
2 H u0 p0 c0 {1,S}
3 H u0 p0 c0 {1,S}


>  <multiplicity>  (5) 
2

>  <reaction>  (5) 
rxn_96

>  <type>  (5) 
r2

>  <role_mapnums>  (5) 
{}

>  <role_mapidx>  (5) 
{}

>  <ordered_mapped_smiles>  (5) 
[N:1]([H:2])[H:3]

>  <level_of_theory>  (5) 
wb97xd/def2tzvp

>  <lot_method>  (5) 
wb97xd

>  <lot_basis>  (5) 
def2tzvp

>  <spin_multiplicity>  (5) 
2.0

>  <optical_isomers>  (5) 
1.0

>  <modes>  (5) 
IdealGasTranslation(mass=(16.0187, 'amu')),         NonlinearRotor(             inertia = ([0.710442, 1.30616, 2.0166

>  <frequency_value>  (5) 
unknown

>  <frequency_units>  (5) 
unknown

>  <frequency_list>  (5) 
unknown

>  <arkane_path>  (5) 
/home/calvin/Dropbox/PersonalFolders/Calvin/HAb_Converged/rxn_96/output/Species/rxn_96_[NH2]/arkane/output.py

>  <path_exists>  (5) 
True

>  <E0_value>  (5) 
-146665.82219964045

>  <E0_units>  (5) 
kJ/mol

>  <thermo_class>  (5) 
NASA

>  <Cp0_value>  (5) 
33.257888

>  <Cp0_units>  (5) 
J/(mol*K)

>  <CpInf_value>  (5) 
58.201304

>  <CpInf_units>  (5) 
J/(mol*K)

>  <Tmin_value>  (5) 
10.0

>  <Tmin_units>  (5) 
K

>  <Tmax_value>  (5) 
3000.0

>  <Tmax_units>  (5) 
K

>  <polynomials>  (5) 
[{"name": "polynomial1", "class": "NASAPolynomial", "Tmin_value": 10.0, "Tmin_units": "K", "Tmax_value": 785.762025652844, "Tmax_units": "K", "coeffs": [4.006150952110655, -0.0003084550413445115, 1.1919167642356156e-06, 1.4835268864917173e-09, -1.3501682773251204e-12, -17639824.212471265, 0.5976393950121619]}, {"name": "polynomial2", "class": "NASAPolynomial", "Tmin_value": 785.762025652844, "Tmin_units": "K", "Tmax_value": 3000.0, "Tmax_units": "K", "coeffs": [3.2706683171239272, 0.0018199930208633956, 2.1290206946552888e-07, -3.0253090271967345e-10, 5.0619779589579903e-14, -17639658.754270043, 4.285961361161453]}]

>  <H298_value>  (5) 
-35051.60272998557

>  <H298_units>  (5) 
kcal/mol

>  <S298_value>  (5) 
46.48569697774424

>  <S298_units>  (5) 
cal/(mol*K)

>  <Cp_T_value_list>  (5) 
[8.048197877278941, 8.214827565402967, 8.447531305278195, 8.735020460220388, 9.397018833396599, 10.038676259975528, 11.356703010007145, 12.225159042044737, 12.643051079877377]

>  <Cp_T_units>  (5) 
cal/(mol*K)

>  <T_list>  (5) 
[300.0, 400.0, 500.0, 600.0, 800.0, 1000.0, 1500.0, 2000.0, 2400.0]

>  <T_units>  (5) 
K

>  <yaml_path>  (5) 
/home/calvin/Dropbox/PersonalFolders/Calvin/HAb_Converged/rxn_96/output/Species/rxn_96_[NH2]/rxn_96_NH2.yml

>  <frequencies_cm1>  (5) 
[1514.64408504708, 3360.6064778135196, 3454.89705324244]

>  <ZPE_kJmol>  (5) 
49.8253618406256

>  <E_elec_kJmol>  (5) 
-146715.64756148108

>  <E0_minus_Eelec_plus_ZPE_kJmol>  (5) 
0.0

>  <rxn>  (5) 
rxn_96

>  <species_type>  (5) 
r0

>  <species_folder>  (5) 
rxn_96_[NH2]

>  <frequencies_cm1_list>  (5) 
[1514.64408504708, 3360.6064778135196, 3454.89705324244]

>  <E0_kJmol>  (5) 
-146666

>  <H298_kJmol>  (5) 
-146656

$$$$
