
     RDKit          3D

 15 15  0  0  0  0  0  0  0  0999 V2000
    0.1199   -0.0798   -2.4546 C   0  0  0  0  0  0  0  0  0  1  0  0
    0.0464   -0.0312   -0.9545 C   0  0  0  0  0  0  0  0  0  2  0  0
    0.1512    1.1491   -0.2442 C   0  0  0  0  0  0  0  0  0  3  0  0
    0.0783    1.2358    1.1303 C   0  0  0  0  0  0  0  0  0  4  0  0
   -0.0943    0.0656    1.8557 C   0  0  0  0  0  0  0  0  0  5  0  0
   -0.1957   -1.1453    1.1842 C   0  0  0  0  0  0  0  0  0  6  0  0
   -0.1260   -1.1923   -0.1982 C   0  0  0  0  0  0  0  0  0  7  0  0
    0.9512   -0.7084   -2.7793 H   0  0  0  0  0  0  0  0  0  8  0  0
   -0.7949   -0.5045   -2.8725 H   0  0  0  0  0  0  0  0  0  9  0  0
    0.2603    0.9161   -2.8721 H   0  0  0  0  0  0  0  0  0 10  0  0
    0.3254    2.0711   -0.7989 H   0  0  0  0  0  0  0  0  0 11  0  0
    0.1626    2.1941    1.6263 H   0  0  0  0  0  0  0  0  0 12  0  0
   -0.1487    0.0998    2.9364 H   0  0  0  0  0  0  0  0  0 13  0  0
   -0.3318   -2.0619    1.7442 H   0  0  0  0  0  0  0  0  0 14  0  0
   -0.2071   -2.1451   -0.7098 H   0  0  0  0  0  0  0  0  0 15  0  0
  1 10  1  0
  1  8  1  0
  1  9  1  0
  1  2  1  0
  2  7  1  0
  2  3  1  0
  3 11  1  0
  3  4  1  0
  4  5  1  0
  4 12  1  0
  5  6  1  0
  5 13  1  0
  6 14  1  0
  6  7  1  0
  7 15  1  0
M  END
>  <rmg_smiles>  (1) 
CC1[CH][CH][CH][CH][CH]1

>  <rmg_adjacency_list>  (1) 
1  C u0 p0 c0 {2,S} {8,S} {9,S} {10,S}
2  C u0 p0 c0 {1,S} {3,S} {4,S}
3  C u0 p0 c0 {2,S} {5,S} {11,S}
4  C u0 p0 c0 {2,S} {7,S} {15,S}
5  C u0 p0 c0 {3,S} {6,S} {12,S}
6  C u0 p0 c0 {5,S} {7,S} {13,S}
7  C u0 p0 c0 {4,S} {6,S} {14,S}
8  H u0 p0 c0 {1,S}
9  H u0 p0 c0 {1,S}
10 H u0 p0 c0 {1,S}
11 H u0 p0 c0 {3,S}
12 H u0 p0 c0 {5,S}
13 H u0 p0 c0 {6,S}
14 H u0 p0 c0 {7,S}
15 H u0 p0 c0 {4,S}


>  <multiplicity>  (1) 
1

>  <reaction>  (1) 
rxn_258

>  <type>  (1) 
r1h

>  <role_mapnums>  (1) 
{"r1h_a": 3, "r1h_h": 11}

>  <role_mapidx>  (1) 
{"r1h_a": 2, "r1h_h": 10}

>  <ordered_mapped_smiles>  (1) 
[C:1]([CH:2]1[CH:3]([H:11])[CH:4]([H:12])[CH:5]([H:13])[CH:6]([H:14])[CH:7]1[H:15])([H:8])([H:9])[H:10]

>  <mol_properties>  (1) 
{"2": {"label": "donator", "atom_type": "Cs"}, "10": {"label": "d_hydrogen", "atom_type": "H0"}}

>  <level_of_theory>  (1) 
wb97xd/def2tzvp

>  <lot_method>  (1) 
wb97xd

>  <lot_basis>  (1) 
def2tzvp

>  <spin_multiplicity>  (1) 
1.0

>  <optical_isomers>  (1) 
1.0

>  <modes>  (1) 
IdealGasTranslation(mass=(92.0626, 'amu')),         NonlinearRotor(             inertia = ([90.1823, 198.896, 285.945

>  <frequency_value>  (1) 
unknown

>  <frequency_units>  (1) 
unknown

>  <frequency_list>  (1) 
unknown

>  <arkane_path>  (1) 
/home/calvin/Dropbox/PersonalFolders/Calvin/HAb_Converged/rxn_258/output/Species/rxn_258_Cc1ccccc1/arkane/output.py

>  <path_exists>  (1) 
True

>  <E0_value>  (1) 
-712667.4186954657

>  <E0_units>  (1) 
kJ/mol

>  <thermo_class>  (1) 
NASA

>  <Cp0_value>  (1) 
33.257888

>  <Cp0_units>  (1) 
J/(mol*K)

>  <CpInf_value>  (1) 
357.522296

>  <CpInf_units>  (1) 
J/(mol*K)

>  <Tmin_value>  (1) 
10.0

>  <Tmin_units>  (1) 
K

>  <Tmax_value>  (1) 
3000.0

>  <Tmax_units>  (1) 
K

>  <polynomials>  (1) 
[{"name": "polynomial1", "class": "NASAPolynomial", "Tmin_value": 10.0, "Tmin_units": "K", "Tmax_value": 551.6404107050422, "Tmax_units": "K", "coeffs": [3.9807877443631, 0.00035561988080208296, 0.00017407945539970812, -2.980514466570864e-07, 1.625970399361135e-10, -85714089.32981402, 11.957872909957874]}, {"name": "polynomial2", "class": "NASAPolynomial", "Tmin_value": 551.6404107050422, "Tmin_units": "K", "Tmax_value": 3000.0, "Tmax_units": "K", "coeffs": [-2.4640727136101863, 0.06292197006651765, -3.910390273638268e-05, 1.1617229825521433e-08, -1.3239176957032157e-12, -85713619.20098881, 37.03314537917204]}]

>  <H298_value>  (1) 
-170327.1711088113

>  <H298_units>  (1) 
kcal/mol

>  <S298_value>  (1) 
79.81344471114225

>  <S298_units>  (1) 
cal/(mol*K)

>  <Cp_T_value_list>  (1) 
[25.881917309628086, 33.90758568479932, 40.90534559010948, 46.79761268221675, 56.14404960423432, 62.889733704082204, 72.41563025517803, 76.9434671339039, 79.45318395865998]

>  <Cp_T_units>  (1) 
cal/(mol*K)

>  <T_list>  (1) 
[300.0, 400.0, 500.0, 600.0, 800.0, 1000.0, 1500.0, 2000.0, 2400.0]

>  <T_units>  (1) 
K

>  <yaml_path>  (1) 
/home/calvin/Dropbox/PersonalFolders/Calvin/HAb_Converged/rxn_258/output/Species/rxn_258_Cc1ccccc1/rxn_258_Cc1ccccc1.yml

>  <frequencies_cm1>  (1) 
[32.67311615255999, 208.88682644908, 346.6454189536, 414.1066827372799, 475.62800421915995, 527.95443235756, 633.69913930024, 711.73556047672, 745.6928028841199, 800.1617304423601, 861.8684605278798, 915.5202168330399, 979.4449831769199, 991.60641417864, 997.6768292015198, 1015.82627140228, 1052.7363174972797, 1058.5389200926797, 1109.8078324918, 1173.8974064833599, 1201.1112693065197, 1232.0058362611999, 1316.04400260736, 1349.7815014845198, 1404.03755249784, 1462.1391152903598, 1476.8481978457999, 1495.6225357106798, 1530.4999541509599, 1640.12450779944, 1663.1975784746398, 3015.0391755551595, 3079.01201079628, 3101.631860440359, 3145.0655425893597, 3146.5282104625194, 3159.5205466879593, 3168.9008486350795, 3181.02107772488]

>  <ZPE_kJmol>  (1) 
333.8912309447283

>  <E_elec_kJmol>  (1) 
-713001.3099264104

>  <E0_minus_Eelec_plus_ZPE_kJmol>  (1) 
0.0

>  <rxn>  (1) 
rxn_258

>  <species_type>  (1) 
r0

>  <species_folder>  (1) 
rxn_258_Cc1ccccc1

>  <frequencies_cm1_list>  (1) 
[32.67311615255999, 208.88682644908, 346.6454189536, 414.1066827372799, 475.62800421915995, 527.95443235756, 633.69913930024, 711.73556047672, 745.6928028841199, 800.1617304423601, 861.8684605278798, 915.5202168330399, 979.4449831769199, 991.60641417864, 997.6768292015198, 1015.82627140228, 1052.7363174972797, 1058.5389200926797, 1109.8078324918, 1173.8974064833599, 1201.1112693065197, 1232.0058362611999, 1316.04400260736, 1349.7815014845198, 1404.03755249784, 1462.1391152903598, 1476.8481978457999, 1495.6225357106798, 1530.4999541509599, 1640.12450779944, 1663.1975784746398, 3015.0391755551595, 3079.01201079628, 3101.631860440359, 3145.0655425893597, 3146.5282104625194, 3159.5205466879593, 3168.9008486350795, 3181.02107772488]

>  <E0_kJmol>  (1) 
-712667

>  <H298_kJmol>  (1) 
-712649

$$$$

     RDKit          3D

  3  2  0  0  0  0  0  0  0  0999 V2000
    0.1379   -0.7735    0.4513 H   0  0  0  0  0  0  0  0  0  1  0  0
    0.0471    0.0555   -0.0377 O   0  0  0  0  0  0  0  0  0  2  0  0
   -0.9140    0.1545   -0.0072 H   0  0  0  0  0  0  0  0  0  3  0  0
  1  2  1  0
  2  3  1  0
M  END
>  <rmg_smiles>  (2) 
O

>  <rmg_adjacency_list>  (2) 
1 H u0 p0 c0 {2,S}
2 O u0 p2 c0 {1,S} {3,S}
3 H u0 p0 c0 {2,S}


>  <multiplicity>  (2) 
1

>  <reaction>  (2) 
rxn_258

>  <type>  (2) 
r2h

>  <role_mapnums>  (2) 
{"r2h_a": 2, "r2h_h": 1}

>  <role_mapidx>  (2) 
{"r2h_a": 1, "r2h_h": 0}

>  <ordered_mapped_smiles>  (2) 
[H:1][O:2][H:3]

>  <mol_properties>  (2) 
{"0": {"label": "a_hydrogen", "atom_type": "H0"}, "1": {"label": "acceptor", "atom_type": "O2s"}}

>  <level_of_theory>  (2) 
wb97xd/def2tzvp

>  <lot_method>  (2) 
wb97xd

>  <lot_basis>  (2) 
def2tzvp

>  <spin_multiplicity>  (2) 
1.0

>  <optical_isomers>  (2) 
1.0

>  <modes>  (2) 
IdealGasTranslation(mass=(18.0106, 'amu')),         NonlinearRotor(             inertia = ([0.602336, 1.17002, 1.77235

>  <frequency_value>  (2) 
unknown

>  <frequency_units>  (2) 
unknown

>  <frequency_list>  (2) 
unknown

>  <arkane_path>  (2) 
/home/calvin/Dropbox/PersonalFolders/Calvin/HAb_Converged/rxn_258/output/Species/rxn_258_O/arkane/output.py

>  <path_exists>  (2) 
True

>  <E0_value>  (2) 
-200631.8610370755

>  <E0_units>  (2) 
kJ/mol

>  <thermo_class>  (2) 
NASA

>  <Cp0_value>  (2) 
33.257888

>  <Cp0_units>  (2) 
J/(mol*K)

>  <CpInf_value>  (2) 
58.201304

>  <CpInf_units>  (2) 
J/(mol*K)

>  <Tmin_value>  (2) 
10.0

>  <Tmin_units>  (2) 
K

>  <Tmax_value>  (2) 
3000.0

>  <Tmax_units>  (2) 
K

>  <polynomials>  (2) 
[{"name": "polynomial1", "class": "NASAPolynomial", "Tmin_value": 10.0, "Tmin_units": "K", "Tmax_value": 775.5892611220346, "Tmax_units": "K", "coeffs": [4.0046377604896435, -0.0002349968237338005, 9.297667881726044e-07, 1.2709781190462173e-09, -1.099134861879461e-12, -24130439.408818465, -0.1238602766167563]}, {"name": "polynomial2", "class": "NASAPolynomial", "Tmin_value": 775.5892611220346, "Tmin_units": "K", "Tmax_value": 3000.0, "Tmax_units": "K", "coeffs": [3.5165154437069566, 0.001116128343838406, 5.723157882575294e-07, -3.60634757198529e-10, 5.17568046911035e-14, -24130328.613551635, 2.333142915795675]}]

>  <H298_value>  (2) 
-47949.795051442925

>  <H298_units>  (2) 
kcal/mol

>  <S298_value>  (2) 
45.0524244619197

>  <S298_units>  (2) 
cal/(mol*K)

>  <Cp_T_value_list>  (2) 
[8.034735208537397, 8.172598301648419, 8.365657236320523, 8.605476742654242, 9.165502751993213, 9.72952523102407, 10.975927733177299, 11.88561344031021, 12.367407656630238]

>  <Cp_T_units>  (2) 
cal/(mol*K)

>  <T_list>  (2) 
[300.0, 400.0, 500.0, 600.0, 800.0, 1000.0, 1500.0, 2000.0, 2400.0]

>  <T_units>  (2) 
K

>  <yaml_path>  (2) 
/home/calvin/Dropbox/PersonalFolders/Calvin/HAb_Converged/rxn_258/output/Species/rxn_258_O/rxn_258_O.yml

>  <frequencies_cm1>  (2) 
[1605.0960156821197, 3829.7657818612397, 3938.29848484384]

>  <ZPE_kJmol>  (2) 
56.06396479185102

>  <E_elec_kJmol>  (2) 
-200687.92500186732

>  <E0_minus_Eelec_plus_ZPE_kJmol>  (2) 
0.0

>  <rxn>  (2) 
rxn_258

>  <species_type>  (2) 
p0

>  <species_folder>  (2) 
rxn_258_O

>  <frequencies_cm1_list>  (2) 
[1605.0960156821197, 3829.7657818612397, 3938.29848484384]

>  <E0_kJmol>  (2) 
-200632

>  <H298_kJmol>  (2) 
-200622

$$$$

     RDKit          3D

 17 16  0  0  0  0  0  0  0  0999 V2000
    0.1348   -0.5994   -2.2715 C   0  0  0  0  0  0  0  0  0  1  0  0
    0.0613   -0.5508   -0.7715 C   0  0  0  0  0  0  0  0  0  2  0  0
    0.1661    0.6295   -0.0612 C   0  0  0  0  0  0  0  0  0  3  0  0
    0.0932    0.7162    1.3133 C   0  0  0  0  0  0  0  0  0  4  0  0
   -0.0794   -0.4540    2.0388 C   0  0  0  0  0  0  0  0  0  5  0  0
   -0.1809   -1.6649    1.3672 C   0  0  0  0  0  0  0  0  0  6  0  0
   -0.1111   -1.7119   -0.0151 C   0  0  0  0  0  0  0  0  0  7  0  0
    0.9660   -1.2280   -2.5962 H   0  0  0  0  0  0  0  0  0  8  0  0
   -0.7801   -1.0241   -2.6895 H   0  0  0  0  0  0  0  0  0  9  0  0
    0.2752    0.3965   -2.6890 H   0  0  0  0  0  0  0  0  0 10  0  0
    0.3622    1.6674   -0.6856 H   0  0  0  0  0  0  0  0  0 11  0  0
    0.1775    1.6745    1.8093 H   0  0  0  0  0  0  0  0  0 12  0  0
   -0.1339   -0.4198    3.1194 H   0  0  0  0  0  0  0  0  0 13  0  0
   -0.3170   -2.5815    1.9272 H   0  0  0  0  0  0  0  0  0 14  0  0
   -0.1922   -2.6647   -0.5268 H   0  0  0  0  0  0  0  0  0 15  0  0
    0.2428    2.7578   -1.3288 O   0  0  0  0  0  1  0  0  0 16  0  0
   -0.7184    2.8568   -1.2983 H   0  0  0  0  0  0  0  0  0 17  0  0
  1 10  1  0
  1  8  1  0
  1  9  1  0
  1  2  1  0
  2  7  1  0
  2  3  1  0
  3 11  1  0
  3  4  1  0
  4  5  1  0
  4 12  1  0
  5  6  1  0
  5 13  1  0
  6 14  1  0
  6  7  1  0
  7 15  1  0
 16 17  1  0
M  RAD  1  16   2
M  END
>  <rmg_smiles>  (3) 
CC1[CH][CH][CH][CH][CH]1.[OH]

>  <rmg_adjacency_list>  (3) 
multiplicity 2
1  O u1 p2 c0 {17,S}
2  C u0 p0 c0 {3,S} {9,S} {10,S} {11,S}
3  C u0 p0 c0 {2,S} {4,S} {5,S}
4  C u0 p0 c0 {3,S} {6,S} {12,S}
5  C u0 p0 c0 {3,S} {8,S} {16,S}
6  C u0 p0 c0 {4,S} {7,S} {13,S}
7  C u0 p0 c0 {6,S} {8,S} {14,S}
8  C u0 p0 c0 {5,S} {7,S} {15,S}
9  H u0 p0 c0 {2,S}
10 H u0 p0 c0 {2,S}
11 H u0 p0 c0 {2,S}
12 H u0 p0 c0 {4,S}
13 H u0 p0 c0 {6,S}
14 H u0 p0 c0 {7,S}
15 H u0 p0 c0 {8,S}
16 H u0 p0 c0 {5,S}
17 H u0 p0 c0 {1,S}


>  <multiplicity>  (3) 
2

>  <reaction>  (3) 
rxn_258

>  <type>  (3) 
ts

>  <role_mapnums>  (3) 
{"*2": 11, "*1": 3, "*3": 16, "*0": 2, "*4": 17}

>  <role_mapidx>  (3) 
{"*2": 10, "*1": 2, "*3": 15, "*0": 1, "*4": 16}

>  <ordered_mapped_smiles>  (3) 
[C:1]([CH:2]1[CH:3]([H:11])[CH:4]([H:12])[CH:5]([H:13])[CH:6]([H:14])[CH:7]1[H:15])([H:8])([H:9])[H:10].[O:16][H:17]

>  <mol_properties>  (3) 
{"1": {"label": "*0", "atom_type": "Cs"}, "2": {"label": "*1", "atom_type": "Cs"}, "10": {"label": "*2", "atom_type": "H0"}, "15": {"label": "*3", "atom_type": "O2s"}, "16": {"label": "*4", "atom_type": "H0"}}

>  <level_of_theory>  (3) 
wb97xd/def2tzvp

>  <lot_method>  (3) 
wb97xd

>  <lot_basis>  (3) 
def2tzvp

>  <spin_multiplicity>  (3) 
2.0

>  <optical_isomers>  (3) 
2.0

>  <modes>  (3) 
IdealGasTranslation(mass=(109.065, 'amu')),         NonlinearRotor(             inertia = ([172.671, 307.498, 474.463

>  <frequency_value>  (3) 
-1283.38

>  <frequency_units>  (3) 
cm^-1

>  <frequency_list>  (3) 
unknown

>  <arkane_path>  (3) 
/home/calvin/Dropbox/PersonalFolders/Calvin/HAb_Converged/rxn_258/output/rxns/TS0/arkane/output.py

>  <path_exists>  (3) 
True

>  <E0_value>  (3) 
-911494.0

>  <E0_units>  (3) 
kJ/mol

>  <thermo_class>  (3) 
unknown

>  <Cp0_value>  (3) 
unknown

>  <Cp0_units>  (3) 
unknown

>  <CpInf_value>  (3) 
unknown

>  <CpInf_units>  (3) 
unknown

>  <Tmin_value>  (3) 
unknown

>  <Tmin_units>  (3) 
unknown

>  <Tmax_value>  (3) 
unknown

>  <Tmax_units>  (3) 
unknown

>  <polynomials>  (3) 
unknown

>  <H298_value>  (3) 
unknown

>  <H298_units>  (3) 
unknown

>  <S298_value>  (3) 
unknown

>  <S298_units>  (3) 
unknown

>  <Cp_T_value_list>  (3) 
unknown

>  <Cp_T_units>  (3) 
unknown

>  <T_list>  (3) 
unknown

>  <T_units>  (3) 
unknown

>  <yaml_path>  (3) 
unknown

>  <frequencies_cm1>  (3) 
unknown

>  <ZPE_kJmol>  (3) 
unknown

>  <E_elec_kJmol>  (3) 
unknown

>  <E0_minus_Eelec_plus_ZPE_kJmol>  (3) 
unknown

>  <rxn>  (3) 
unknown

>  <species_type>  (3) 
unknown

>  <species_folder>  (3) 
unknown

>  <frequencies_cm1_list>  (3) 
[]

>  <ts_imag_freq_cm1>  (3) 
-1298.9694

>  <ts_freq_out_path>  (3) 
/home/calvin/Dropbox/PersonalFolders/Calvin/HAb_Converged/rxn_258/output/rxns/TS0/geometry/freq.out

>  <E0_kJmol>  (3) 
-911494

>  <H298_kJmol>  (3) 
unknown

$$$$

     RDKit          3D

 14 14  0  0  0  0  0  0  0  0999 V2000
    2.2462   -0.2877   -0.2657 C   0  0  0  0  0  0  0  0  0  1  0  0
    0.7647   -0.1654   -0.0437 C   0  0  0  0  0  0  0  0  0  2  0  0
   -0.0427    0.6416   -0.8095 C   0  0  0  0  0  3  0  0  0  3  0  0
   -1.3915    0.8143   -0.6808 C   0  0  0  0  0  0  0  0  0  4  0  0
   -2.0213    0.0958    0.3364 C   0  0  0  0  0  0  0  0  0  5  0  0
   -1.2712   -0.7390    1.1498 C   0  0  0  0  0  0  0  0  0  6  0  0
    0.0993   -0.8682    0.9637 C   0  0  0  0  0  0  0  0  0  7  0  0
    2.4602   -0.6530   -1.2713 H   0  0  0  0  0  0  0  0  0  8  0  0
    2.7372    0.6808   -0.1578 H   0  0  0  0  0  0  0  0  0  9  0  0
    2.6913   -0.9781    0.4506 H   0  0  0  0  0  0  0  0  0 10  0  0
   -1.9535    1.4736   -1.3307 H   0  0  0  0  0  0  0  0  0 11  0  0
   -3.0897    0.1931    0.4856 H   0  0  0  0  0  0  0  0  0 12  0  0
   -1.7563   -1.2979    1.9399 H   0  0  0  0  0  0  0  0  0 13  0  0
    0.6703   -1.5263    1.6100 H   0  0  0  0  0  0  0  0  0 14  0  0
  1 10  1  0
  1  8  1  0
  1  9  1  0
  1  2  1  0
  2  7  1  0
  2  3  1  0
  3  4  1  0
  4  5  1  0
  4 11  1  0
  5 12  1  0
  5  6  1  0
  6 13  1  0
  6  7  1  0
  7 14  1  0
M  RAD  1   3   2
M  END
>  <rmg_smiles>  (4) 
CC1[C][CH][CH][CH][CH]1

>  <rmg_adjacency_list>  (4) 
multiplicity 2
1  C u0 p0 c0 {2,S} {8,S} {9,S} {10,S}
2  C u0 p0 c0 {1,S} {3,S} {7,S}
3  C u0 p0 c0 {2,S} {4,S} {13,S}
4  C u0 p0 c0 {3,S} {5,S} {12,S}
5  C u0 p0 c0 {4,S} {6,S} {11,S}
6  C u0 p0 c0 {5,S} {7,S} {14,S}
7  C u1 p1 c0 {2,S} {6,S}
8  H u0 p0 c0 {1,S}
9  H u0 p0 c0 {1,S}
10 H u0 p0 c0 {1,S}
11 H u0 p0 c0 {5,S}
12 H u0 p0 c0 {4,S}
13 H u0 p0 c0 {3,S}
14 H u0 p0 c0 {6,S}


>  <multiplicity>  (4) 
2

>  <reaction>  (4) 
rxn_258

>  <type>  (4) 
r1

>  <role_mapnums>  (4) 
{}

>  <role_mapidx>  (4) 
{}

>  <ordered_mapped_smiles>  (4) 
[C:1]([CH:2]1[CH:3][CH:4]([H:11])[CH:5]([H:12])[CH:6]([H:13])[CH:7]1[H:14])([H:8])([H:9])[H:10]

>  <level_of_theory>  (4) 
wb97xd/def2tzvp

>  <lot_method>  (4) 
wb97xd

>  <lot_basis>  (4) 
def2tzvp

>  <spin_multiplicity>  (4) 
2.0

>  <optical_isomers>  (4) 
1.0

>  <modes>  (4) 
IdealGasTranslation(mass=(91.0548, 'amu')),         NonlinearRotor(             inertia = ([84.2839, 200.463, 281.627

>  <frequency_value>  (4) 
unknown

>  <frequency_units>  (4) 
unknown

>  <frequency_list>  (4) 
unknown

>  <arkane_path>  (4) 
/home/calvin/Dropbox/PersonalFolders/Calvin/HAb_Converged/rxn_258/output/Species/rxn_258_Cc1[c]cccc1/arkane/output.py

>  <path_exists>  (4) 
True

>  <E0_value>  (4) 
-710887.9624305989

>  <E0_units>  (4) 
kJ/mol

>  <thermo_class>  (4) 
NASA

>  <Cp0_value>  (4) 
33.257888

>  <Cp0_units>  (4) 
J/(mol*K)

>  <CpInf_value>  (4) 
332.57888

>  <CpInf_units>  (4) 
J/(mol*K)

>  <Tmin_value>  (4) 
10.0

>  <Tmin_units>  (4) 
K

>  <Tmax_value>  (4) 
3000.0

>  <Tmax_units>  (4) 
K

>  <polynomials>  (4) 
[{"name": "polynomial1", "class": "NASAPolynomial", "Tmin_value": 10.0, "Tmin_units": "K", "Tmax_value": 432.30960906357234, "Tmax_units": "K", "coeffs": [3.950307307051477, 0.0031258263765114236, 0.00016159726717864716, -2.988921088543375e-07, 1.7903772147565055e-10, -85500071.31455384, 12.270948773810101]}, {"name": "polynomial2", "class": "NASAPolynomial", "Tmin_value": 432.30960906357234, "Tmin_units": "K", "Tmax_value": 3000.0, "Tmax_units": "K", "coeffs": [-2.276964514691508, 0.060922750525661644, -3.956140718662711e-05, 1.226962132350078e-08, -1.4554498696326521e-12, -85499534.55875105, 37.072393290868376]}]

>  <H298_value>  (4) 
-169901.8534806741

>  <H298_units>  (4) 
kcal/mol

>  <S298_value>  (4) 
80.67929274506712

>  <S298_units>  (4) 
cal/(mol*K)

>  <Cp_T_value_list>  (4) 
[25.45994635496887, 32.80971591976566, 39.22108931937815, 44.70457723304359, 53.312436508177115, 59.414593482021715, 67.83478849945, 71.92232990509903, 74.30332615322922]

>  <Cp_T_units>  (4) 
cal/(mol*K)

>  <T_list>  (4) 
[300.0, 400.0, 500.0, 600.0, 800.0, 1000.0, 1500.0, 2000.0, 2400.0]

>  <T_units>  (4) 
K

>  <yaml_path>  (4) 
/home/calvin/Dropbox/PersonalFolders/Calvin/HAb_Converged/rxn_258/output/Species/rxn_258_Cc1[c]cccc1/rxn_258_Cc1ccccc1.yml

>  <frequencies_cm1>  (4) 
[40.405341622879995, 203.44817407563997, 332.98011816679997, 417.78051988347994, 486.18256065599996, 516.31489224016, 628.58323523684, 691.65649540104, 744.381208688, 795.03209240832, 856.5053449929599, 940.3169008235599, 979.8844702374, 983.10508635248, 999.79186068008, 1046.58349865056, 1054.0410447080799, 1132.14613573776, 1167.9368632256, 1219.32938136048, 1273.4412256820801, 1309.9323856725598, 1403.6736022758798, 1439.7733441031198, 1470.75031488164, 1476.5735184330001, 1488.36413222744, 1590.5792087156399, 1649.28506621632, 3022.7095981576, 3089.38115862948, 3104.96921530588, 3141.8861283862, 3154.32223880072, 3166.8476200243995, 3179.2425285269996]

>  <ZPE_kJmol>  (4) 
300.2516198584586

>  <E_elec_kJmol>  (4) 
-711188.2140504573

>  <E0_minus_Eelec_plus_ZPE_kJmol>  (4) 
0.0

>  <rxn>  (4) 
rxn_258

>  <species_type>  (4) 
p1

>  <species_folder>  (4) 
rxn_258_Cc1[c]cccc1

>  <frequencies_cm1_list>  (4) 
[40.405341622879995, 203.44817407563997, 332.98011816679997, 417.78051988347994, 486.18256065599996, 516.31489224016, 628.58323523684, 691.65649540104, 744.381208688, 795.03209240832, 856.5053449929599, 940.3169008235599, 979.8844702374, 983.10508635248, 999.79186068008, 1046.58349865056, 1054.0410447080799, 1132.14613573776, 1167.9368632256, 1219.32938136048, 1273.4412256820801, 1309.9323856725598, 1403.6736022758798, 1439.7733441031198, 1470.75031488164, 1476.5735184330001, 1488.36413222744, 1590.5792087156399, 1649.28506621632, 3022.7095981576, 3089.38115862948, 3104.96921530588, 3141.8861283862, 3154.32223880072, 3166.8476200243995, 3179.2425285269996]

>  <E0_kJmol>  (4) 
-710888

>  <H298_kJmol>  (4) 
-710869

$$$$

     RDKit          3D

  2  1  0  0  0  0  0  0  0  0999 V2000
    0.0000    0.0000    0.4855 O   0  0  0  0  0  1  0  0  0  1  0  0
    0.0000    0.0000   -0.4855 H   0  0  0  0  0  0  0  0  0  2  0  0
  1  2  1  0
M  RAD  1   1   2
M  END
>  <rmg_smiles>  (5) 
[OH]

>  <rmg_adjacency_list>  (5) 
multiplicity 2
1 O u1 p2 c0 {2,S}
2 H u0 p0 c0 {1,S}


>  <multiplicity>  (5) 
2

>  <reaction>  (5) 
rxn_258

>  <type>  (5) 
r2

>  <role_mapnums>  (5) 
{}

>  <role_mapidx>  (5) 
{}

>  <ordered_mapped_smiles>  (5) 
[O:1][H:2]

>  <level_of_theory>  (5) 
wb97xd/def2tzvp

>  <lot_method>  (5) 
wb97xd

>  <lot_basis>  (5) 
def2tzvp

>  <spin_multiplicity>  (5) 
2.0

>  <optical_isomers>  (5) 
1.0

>  <modes>  (5) 
IdealGasTranslation(mass=(17.0027, 'amu')),         LinearRotor(inertia=(0.893825, 'amu*angstrom^2'), symmetry=1),         HarmonicOscillator(frequencies=([3770.81

>  <frequency_value>  (5) 
unknown

>  <frequency_units>  (5) 
unknown

>  <frequency_list>  (5) 
unknown

>  <arkane_path>  (5) 
/home/calvin/Dropbox/PersonalFolders/Calvin/HAb_Converged/rxn_258/output/Species/rxn_258_[OH]/arkane/output.py

>  <path_exists>  (5) 
True

>  <E0_value>  (5) 
-198836.1106552763

>  <E0_units>  (5) 
kJ/mol

>  <thermo_class>  (5) 
NASA

>  <Cp0_value>  (5) 
29.100652

>  <Cp0_units>  (5) 
J/(mol*K)

>  <CpInf_value>  (5) 
37.415124

>  <CpInf_units>  (5) 
J/(mol*K)

>  <Tmin_value>  (5) 
10.0

>  <Tmin_units>  (5) 
K

>  <Tmax_value>  (5) 
3000.0

>  <Tmax_units>  (5) 
K

>  <polynomials>  (5) 
[{"name": "polynomial1", "class": "NASAPolynomial", "Tmin_value": 10.0, "Tmin_units": "K", "Tmax_value": 985.6459359324402, "Tmax_units": "K", "coeffs": [3.49686777077684, 0.00018334165413566602, -9.927422114975035e-07, 1.559335065614597e-09, -6.051175734082516e-13, -23914460.190001234, 1.4722271748407303]}, {"name": "polynomial2", "class": "NASAPolynomial", "Tmin_value": 985.6459359324402, "Tmin_units": "K", "Tmax_value": 3000.0, "Tmax_units": "K", "coeffs": [3.4538997471416084, -0.0002990851320361188, 7.409868333423891e-07, -2.8938793165350344e-10, 3.527321549332907e-14, -23914419.81566734, 1.8407453398243376]}]

>  <H298_value>  (5) 
-47520.89563584726

>  <H298_units>  (5) 
kcal/mol

>  <S298_value>  (5) 
42.56065351108258

>  <S298_units>  (5) 
cal/(mol*K)

>  <Cp_T_value_list>  (5) 
[6.95467440837288, 6.946622347988586, 6.950155535415497, 6.9708793647131895, 7.071890602250594, 7.236783548847422, 7.699190754845551, 8.085833580657471, 8.29452334304518]

>  <Cp_T_units>  (5) 
cal/(mol*K)

>  <T_list>  (5) 
[300.0, 400.0, 500.0, 600.0, 800.0, 1000.0, 1500.0, 2000.0, 2400.0]

>  <T_units>  (5) 
K

>  <yaml_path>  (5) 
/home/calvin/Dropbox/PersonalFolders/Calvin/HAb_Converged/rxn_258/output/Species/rxn_258_[OH]/rxn_258_OH.yml

>  <frequencies_cm1>  (5) 
[3725.55927963024]

>  <ZPE_kJmol>  (5) 
22.28379948603074

>  <E_elec_kJmol>  (5) 
-198858.39445476237

>  <E0_minus_Eelec_plus_ZPE_kJmol>  (5) 
0.0

>  <rxn>  (5) 
rxn_258

>  <species_type>  (5) 
r1

>  <species_folder>  (5) 
rxn_258_[OH]

>  <frequencies_cm1_list>  (5) 
[3725.55927963024]

>  <E0_kJmol>  (5) 
-198836

>  <H298_kJmol>  (5) 
-198827

$$$$
