
     RDKit          3D

 18 18  0  0  0  0  0  0  0  0999 V2000
    0.3275   -2.3216   -1.8429 C   0  0  0  0  0  0  0  0  0  1  0  0
    0.4448   -1.9041   -0.4022 C   0  0  0  0  0  0  0  0  0  2  0  0
    0.1812   -0.5149   -0.0146 C   0  0  0  0  0  0  0  0  0  3  0  0
   -0.4244    0.4053   -0.8760 C   0  0  0  0  0  0  0  0  0  4  0  0
   -0.7297    1.6863   -0.4468 C   0  0  0  0  0  0  0  0  0  5  0  0
   -0.4478    2.0770    0.8539 C   0  0  0  0  0  0  0  0  0  6  0  0
    0.1522    1.1748    1.7231 C   0  0  0  0  0  0  0  0  0  7  0  0
    0.4641   -0.1019    1.2940 C   0  0  0  0  0  0  0  0  0  8  0  0
    1.0236   -1.7679   -2.4806 H   0  0  0  0  0  0  0  0  0  9  0  0
   -0.6811   -2.1492   -2.2257 H   0  0  0  0  0  0  0  0  0 10  0  0
    0.5479   -3.3836   -1.9530 H   0  0  0  0  0  0  0  0  0 11  0  0
   -0.3626   -2.4391    0.0963 H   0  0  0  0  0  0  0  0  0 12  0  0
    1.2902   -2.3421    0.1271 H   0  0  0  0  0  0  0  0  0 13  0  0
   -0.6608    0.1171   -1.8919 H   0  0  0  0  0  0  0  0  0 14  0  0
   -1.1945    2.3838   -1.1325 H   0  0  0  0  0  0  0  0  0 15  0  0
   -0.6909    3.0775    1.1881 H   0  0  0  0  0  0  0  0  0 16  0  0
    0.3774    1.4697    2.7404 H   0  0  0  0  0  0  0  0  0 17  0  0
    0.9215   -0.8060    1.9792 H   0  0  0  0  0  0  0  0  0 18  0  0
  1 10  1  0
  1 11  1  0
  1  9  1  0
  1  2  1  0
  2 12  1  0
  2 13  1  0
  2  3  1  0
  3  4  1  0
  3  8  1  0
  4  5  1  0
  4 14  1  0
  5  6  1  0
  5 15  1  0
  6  7  1  0
  6 16  1  0
  7 17  1  0
  7  8  1  0
  8 18  1  0
M  END
>  <rmg_smiles>  (1) 
CCC1[CH][CH][CH][CH][CH]1

>  <rmg_adjacency_list>  (1) 
1  C u0 p0 c0 {2,S} {3,S} {9,S} {10,S}
2  C u0 p0 c0 {1,S} {11,S} {12,S} {13,S}
3  C u0 p0 c0 {1,S} {4,S} {5,S}
4  C u0 p0 c0 {3,S} {6,S} {14,S}
5  C u0 p0 c0 {3,S} {8,S} {18,S}
6  C u0 p0 c0 {4,S} {7,S} {15,S}
7  C u0 p0 c0 {6,S} {8,S} {16,S}
8  C u0 p0 c0 {5,S} {7,S} {17,S}
9  H u0 p0 c0 {1,S}
10 H u0 p0 c0 {1,S}
11 H u0 p0 c0 {2,S}
12 H u0 p0 c0 {2,S}
13 H u0 p0 c0 {2,S}
14 H u0 p0 c0 {4,S}
15 H u0 p0 c0 {6,S}
16 H u0 p0 c0 {7,S}
17 H u0 p0 c0 {8,S}
18 H u0 p0 c0 {5,S}


>  <multiplicity>  (1) 
1

>  <reaction>  (1) 
rxn_1511

>  <type>  (1) 
r1h

>  <role_mapnums>  (1) 
{"r1h_a": 2, "r1h_h": 12}

>  <role_mapidx>  (1) 
{"r1h_a": 1, "r1h_h": 11}

>  <ordered_mapped_smiles>  (1) 
[C:1]([C:2]([CH:3]1[CH:4]([H:14])[CH:5]([H:15])[CH:6]([H:16])[CH:7]([H:17])[CH:8]1[H:18])([H:12])[H:13])([H:9])([H:10])[H:11]

>  <mol_properties>  (1) 
{"1": {"label": "donator", "atom_type": "Cs"}, "11": {"label": "d_hydrogen", "atom_type": "H0"}}

>  <level_of_theory>  (1) 
wb97xd/def2tzvp

>  <lot_method>  (1) 
wb97xd

>  <lot_basis>  (1) 
def2tzvp

>  <spin_multiplicity>  (1) 
1.0

>  <optical_isomers>  (1) 
1.0

>  <modes>  (1) 
IdealGasTranslation(mass=(106.078, 'amu')),         NonlinearRotor(             inertia = ([110.416, 341.874, 411.865

>  <frequency_value>  (1) 
unknown

>  <frequency_units>  (1) 
unknown

>  <frequency_list>  (1) 
unknown

>  <arkane_path>  (1) 
/home/calvin/Dropbox/PersonalFolders/Calvin/HAb_Converged/rxn_1511/output/Species/rxn_1511_CCc1ccccc1/arkane/output.py

>  <path_exists>  (1) 
True

>  <E0_value>  (1) 
-815817.9037561571

>  <E0_units>  (1) 
kJ/mol

>  <thermo_class>  (1) 
NASA

>  <Cp0_value>  (1) 
33.257888

>  <Cp0_units>  (1) 
J/(mol*K)

>  <CpInf_value>  (1) 
432.352544

>  <CpInf_units>  (1) 
J/(mol*K)

>  <Tmin_value>  (1) 
10.0

>  <Tmin_units>  (1) 
K

>  <Tmax_value>  (1) 
3000.0

>  <Tmax_units>  (1) 
K

>  <polynomials>  (1) 
[{"name": "polynomial1", "class": "NASAPolynomial", "Tmin_value": 10.0, "Tmin_units": "K", "Tmax_value": 423.64221286564066, "Tmax_units": "K", "coeffs": [3.9313576428136847, 0.00433548241275686, 0.00021072402908531117, -3.936647014575837e-07, 2.39299197946727e-10, -98120227.55481465, 12.959903756557797]}, {"name": "polynomial2", "class": "NASAPolynomial", "Tmin_value": 423.64221286564066, "Tmin_units": "K", "Tmax_value": 3000.0, "Tmax_units": "K", "coeffs": [-3.831744087351853, 0.07763434183173747, -4.880767835098557e-05, 1.474976136685413e-08, -1.7152455638411797e-12, -98119569.80107659, 43.744896821921714]}]

>  <H298_value>  (1) 
-194980.06834128423

>  <H298_units>  (1) 
kcal/mol

>  <S298_value>  (1) 
85.45971865285561

>  <S298_units>  (1) 
cal/(mol*K)

>  <Cp_T_value_list>  (1) 
[30.814700172190967, 40.3659544276965, 48.72635221695798, 55.92346742650604, 67.34270920138786, 75.5723408499977, 87.237384341353, 92.9225471908414, 96.08425401549664]

>  <Cp_T_units>  (1) 
cal/(mol*K)

>  <T_list>  (1) 
[300.0, 400.0, 500.0, 600.0, 800.0, 1000.0, 1500.0, 2000.0, 2400.0]

>  <T_units>  (1) 
K

>  <yaml_path>  (1) 
/home/calvin/Dropbox/PersonalFolders/Calvin/HAb_Converged/rxn_1511/output/Species/rxn_1511_CCc1ccccc1/rxn_1511_CCc1ccccc1.yml

>  <frequencies_cm1>  (1) 
[34.3349266, 135.74656580575999, 222.50405833863996, 311.72679860139993, 360.38625657892, 413.90067317767995, 501.90109005348, 566.8971061072799, 633.36952400488, 715.5124024027199, 770.2697433443999, 787.05265546648, 789.67584385872, 862.2324107498398, 927.82585452648, 978.1333889808, 979.96687406124, 993.1308849196799, 1016.5747728021599, 1052.53030793768, 1054.54920162176, 1082.5459007714, 1116.4276063402797, 1174.3094256025597, 1199.89581290488, 1226.84186330056, 1261.7192817408397, 1329.56509670244, 1349.48622111576, 1353.9360276031198, 1398.4615604179999, 1477.6173002016399, 1482.14951051284, 1484.5254874335599, 1494.4826161475598, 1529.46990635296, 1639.9047642691999, 1662.1469297206797, 3013.28809429856, 3020.8349111652396, 3058.19131130604, 3090.8506934879597, 3092.1760216547195, 3142.7239005952397, 3143.62347567216, 3158.5385677872, 3168.2416180443593, 3180.7601322827195]

>  <ZPE_kJmol>  (1) 
409.36782000073936

>  <E_elec_kJmol>  (1) 
-816227.2715761579

>  <E0_minus_Eelec_plus_ZPE_kJmol>  (1) 
0.0

>  <rxn>  (1) 
rxn_1511

>  <species_type>  (1) 
r1

>  <species_folder>  (1) 
rxn_1511_CCc1ccccc1

>  <frequencies_cm1_list>  (1) 
[34.3349266, 135.74656580575999, 222.50405833863996, 311.72679860139993, 360.38625657892, 413.90067317767995, 501.90109005348, 566.8971061072799, 633.36952400488, 715.5124024027199, 770.2697433443999, 787.05265546648, 789.67584385872, 862.2324107498398, 927.82585452648, 978.1333889808, 979.96687406124, 993.1308849196799, 1016.5747728021599, 1052.53030793768, 1054.54920162176, 1082.5459007714, 1116.4276063402797, 1174.3094256025597, 1199.89581290488, 1226.84186330056, 1261.7192817408397, 1329.56509670244, 1349.48622111576, 1353.9360276031198, 1398.4615604179999, 1477.6173002016399, 1482.14951051284, 1484.5254874335599, 1494.4826161475598, 1529.46990635296, 1639.9047642691999, 1662.1469297206797, 3013.28809429856, 3020.8349111652396, 3058.19131130604, 3090.8506934879597, 3092.1760216547195, 3142.7239005952397, 3143.62347567216, 3158.5385677872, 3168.2416180443593, 3180.7601322827195]

>  <E0_kJmol>  (1) 
-815818

>  <H298_kJmol>  (1) 
-815797

$$$$

     RDKit          3D

  8  7  0  0  0  0  0  0  0  0999 V2000
   -0.9812    0.5942   -0.9078 S   0  0  0  0  0  0  0  0  0  1  0  0
    0.4031   -0.4521   -0.4983 C   0  0  0  0  0  0  0  0  0  2  0  0
    0.7919   -0.5427    0.8678 C   0  0  0  0  0  2  0  0  0  3  0  0
    1.1867   -0.5701    2.0029 C   0  0  0  0  0  2  0  0  0  4  0  0
   -0.4984    1.7066   -0.3346 H   0  0  0  0  0  0  0  0  0  5  0  0
    0.2912   -1.4109   -0.9993 H   0  0  0  0  0  0  0  0  0  6  0  0
    1.5107   -0.6105    3.0148 H   0  0  0  0  0  0  0  0  0  7  0  0
    1.2574   -0.0098   -1.0057 H   0  0  0  0  0  0  0  0  0  8  0  0
  1  2  1  0
  1  5  1  0
  2  8  1  0
  2  6  1  0
  2  3  1  0
  3  4  1  0
  4  7  1  0
M  RAD  2   3   3   4   3
M  END
>  <rmg_smiles>  (2) 
[CH][C]CS

>  <rmg_adjacency_list>  (2) 
1 S u0 p2 c0 {2,S} {7,S}
2 C u0 p0 c0 {1,S} {3,S} {5,S} {6,S}
3 C u0 p1 c0 {2,S} {4,S}
4 C u0 p1 c0 {3,S} {8,S}
5 H u0 p0 c0 {2,S}
6 H u0 p0 c0 {2,S}
7 H u0 p0 c0 {1,S}
8 H u0 p0 c0 {4,S}


>  <multiplicity>  (2) 
1

>  <reaction>  (2) 
rxn_1511

>  <type>  (2) 
r2h

>  <role_mapnums>  (2) 
{"r2h_a": 2, "r2h_h": 8}

>  <role_mapidx>  (2) 
{"r2h_a": 1, "r2h_h": 7}

>  <ordered_mapped_smiles>  (2) 
[S:1]([C:2]([C:3][C:4][H:7])([H:6])[H:8])[H:5]

>  <mol_properties>  (2) 
{"1": {"label": "acceptor", "atom_type": "Cs"}, "7": {"label": "a_hydrogen", "atom_type": "H0"}}

>  <level_of_theory>  (2) 
wb97xd/def2tzvp

>  <lot_method>  (2) 
wb97xd

>  <lot_basis>  (2) 
def2tzvp

>  <spin_multiplicity>  (2) 
1.0

>  <optical_isomers>  (2) 
2.0

>  <modes>  (2) 
IdealGasTranslation(mass=(72.0034, 'amu')),         NonlinearRotor(             inertia = ([22.2085, 166.22, 182.902

>  <frequency_value>  (2) 
unknown

>  <frequency_units>  (2) 
unknown

>  <frequency_list>  (2) 
unknown

>  <arkane_path>  (2) 
/home/calvin/Dropbox/PersonalFolders/Calvin/HAb_Converged/rxn_1511/output/Species/rxn_1511_SCCtC/arkane/output.py

>  <path_exists>  (2) 
True

>  <E0_value>  (2) 
-1351591.9619272442

>  <E0_units>  (2) 
kJ/mol

>  <thermo_class>  (2) 
NASA

>  <Cp0_value>  (2) 
33.257888

>  <Cp0_units>  (2) 
J/(mol*K)

>  <CpInf_value>  (2) 
182.918384

>  <CpInf_units>  (2) 
J/(mol*K)

>  <Tmin_value>  (2) 
10.0

>  <Tmin_units>  (2) 
K

>  <Tmax_value>  (2) 
3000.0

>  <Tmax_units>  (2) 
K

>  <polynomials>  (2) 
[{"name": "polynomial1", "class": "NASAPolynomial", "Tmin_value": 10.0, "Tmin_units": "K", "Tmax_value": 475.2199189026072, "Tmax_units": "K", "coeffs": [3.9081729464366273, 0.006066515480213879, 9.858801916657192e-05, -2.3454588538714718e-07, 1.6729093969770136e-10, -162558962.7892696, 9.8761209629424]}, {"name": "polynomial2", "class": "NASAPolynomial", "Tmin_value": 475.2199189026072, "Tmin_units": "K", "Tmax_value": 3000.0, "Tmax_units": "K", "coeffs": [3.9292799211709246, 0.023944631257607943, -1.4834916665788379e-05, 4.522082984509358e-09, -5.363690563089036e-13, -162559168.67574582, 7.6448789699266015]}]

>  <H298_value>  (2) 
-323034.4124485172

>  <H298_units>  (2) 
kcal/mol

>  <S298_value>  (2) 
72.70695616719325

>  <S298_units>  (2) 
cal/(mol*K)

>  <Cp_T_value_list>  (2) 
[19.12361750639078, 22.6155498358861, 25.286415175994005, 27.548137324924326, 31.171813968930973, 33.831611291215516, 37.7853923074815, 39.89045746976903, 41.06584514735627]

>  <Cp_T_units>  (2) 
cal/(mol*K)

>  <T_list>  (2) 
[300.0, 400.0, 500.0, 600.0, 800.0, 1000.0, 1500.0, 2000.0, 2400.0]

>  <T_units>  (2) 
K

>  <yaml_path>  (2) 
/home/calvin/Dropbox/PersonalFolders/Calvin/HAb_Converged/rxn_1511/output/Species/rxn_1511_SCCtC/rxn_1511_SCCtC.yml

>  <frequencies_cm1>  (2) 
[173.19223675572, 229.15816711371997, 344.57158938696, 467.96444860203997, 686.8633396476799, 691.89683988724, 698.0771266752399, 793.7067642415599, 956.7495966943198, 1009.0760248327199, 1208.56881536404, 1272.7064582528399, 1449.8609455381998, 2225.7547498596796, 2705.54414718276, 3049.3603681845198, 3095.3691698285193, 3437.0291574397993]

>  <ZPE_kJmol>  (2) 
146.51536962244307

>  <E_elec_kJmol>  (2) 
-1351738.4772968667

>  <E0_minus_Eelec_plus_ZPE_kJmol>  (2) 
0.0

>  <rxn>  (2) 
rxn_1511

>  <species_type>  (2) 
p0

>  <species_folder>  (2) 
rxn_1511_SCCtC

>  <frequencies_cm1_list>  (2) 
[173.19223675572, 229.15816711371997, 344.57158938696, 467.96444860203997, 686.8633396476799, 691.89683988724, 698.0771266752399, 793.7067642415599, 956.7495966943198, 1009.0760248327199, 1208.56881536404, 1272.7064582528399, 1449.8609455381998, 2225.7547498596796, 2705.54414718276, 3049.3603681845198, 3095.3691698285193, 3437.0291574397993]

>  <E0_kJmol>  (2) 
-1.35159e+06

>  <H298_kJmol>  (2) 
-1.35158e+06

$$$$

     RDKit          3D

 25 24  0  0  0  0  0  0  0  0999 V2000
   -2.2449   -0.8286    0.0701 S   0  0  0  0  0  0  0  0  0  1  0  0
   -0.8606   -1.8748    0.4796 C   0  0  0  0  0  3  0  0  0  2  0  0
   -0.4718   -1.9655    1.8457 C   0  0  0  0  0  0  0  0  0  3  0  0
   -0.0770   -1.9928    2.9808 C   0  0  0  0  0  0  0  0  0  4  0  0
   -1.7621    0.2839    0.6433 H   0  0  0  0  0  0  0  0  0  5  0  0
   -0.9725   -2.8336   -0.0215 H   0  0  0  0  0  0  0  0  0  6  0  0
    0.2469   -2.0333    3.9927 H   0  0  0  0  0  0  0  0  0  7  0  0
    1.0816   -1.0818   -2.2076 C   0  0  0  0  0  0  0  0  0  8  0  0
    1.1988   -0.6643   -0.7669 C   0  0  0  0  0  0  0  0  0  9  0  0
    0.9352    0.7249   -0.3793 C   0  0  0  0  0  0  0  0  0 10  0  0
    0.3296    1.6451   -1.2408 C   0  0  0  0  0  0  0  0  0 11  0  0
    0.0243    2.9261   -0.8115 C   0  0  0  0  0  0  0  0  0 12  0  0
    0.3062    3.3168    0.4892 C   0  0  0  0  0  0  0  0  0 13  0  0
    0.9063    2.4146    1.3584 C   0  0  0  0  0  0  0  0  0 14  0  0
    1.2181    1.1379    0.9292 C   0  0  0  0  0  0  0  0  0 15  0  0
    1.7776   -0.5281   -2.8454 H   0  0  0  0  0  0  0  0  0 16  0  0
    0.0729   -0.9094   -2.5904 H   0  0  0  0  0  0  0  0  0 17  0  0
    1.3019   -2.1438   -2.3178 H   0  0  0  0  0  0  0  0  0 18  0  0
    0.2027   -1.3243   -0.1520 H   0  0  0  0  0  0  0  0  0 19  0  0
    2.0442   -1.1023   -0.2377 H   0  0  0  0  0  0  0  0  0 20  0  0
    0.0932    1.3568   -2.2566 H   0  0  0  0  0  0  0  0  0 21  0  0
   -0.4405    3.6236   -1.4973 H   0  0  0  0  0  0  0  0  0 22  0  0
    0.0632    4.3173    0.8234 H   0  0  0  0  0  0  0  0  0 23  0  0
    1.1314    2.7095    2.3757 H   0  0  0  0  0  0  0  0  0 24  0  0
    1.6755    0.4338    1.6145 H   0  0  0  0  0  0  0  0  0 25  0  0
  1  5  1  0
  1  2  1  0
  2  6  1  0
  2  3  1  0
  3  4  1  0
  4  7  1  0
  8 16  1  0
  8 17  1  0
  8  9  1  0
  8 18  1  0
  9 20  1  0
  9 10  1  0
  9 19  1  0
 10 11  1  0
 10 15  1  0
 11 21  1  0
 11 12  1  0
 12 22  1  0
 12 13  1  0
 13 23  1  0
 13 14  1  0
 14 15  1  0
 14 24  1  0
 15 25  1  0
M  RAD  1   2   2
M  END
>  <rmg_smiles>  (3) 
CC[C]1[CH][CH][CH][CH][CH]1.[CH][C][CH]S

>  <rmg_adjacency_list>  (3) 
multiplicity 2
1  S u0 p2 c0 {10,S} {24,S}
2  C u0 p0 c0 {3,S} {4,S} {13,S} {14,S}
3  C u0 p0 c0 {2,S} {15,S} {16,S} {17,S}
4  C u0 p0 c0 {2,S} {5,S} {6,S}
5  C u0 p0 c0 {4,S} {7,S} {18,S}
6  C u0 p0 c0 {4,S} {9,S} {22,S}
7  C u0 p0 c0 {5,S} {8,S} {19,S}
8  C u0 p0 c0 {7,S} {9,S} {20,S}
9  C u0 p0 c0 {6,S} {8,S} {21,S}
10 C u1 p0 c0 {1,S} {11,S} {23,S}
11 C u0 p1 c0 {10,S} {12,S}
12 C u0 p1 c0 {11,S} {25,S}
13 H u0 p0 c0 {2,S}
14 H u0 p0 c0 {2,S}
15 H u0 p0 c0 {3,S}
16 H u0 p0 c0 {3,S}
17 H u0 p0 c0 {3,S}
18 H u0 p0 c0 {5,S}
19 H u0 p0 c0 {7,S}
20 H u0 p0 c0 {8,S}
21 H u0 p0 c0 {9,S}
22 H u0 p0 c0 {6,S}
23 H u0 p0 c0 {10,S}
24 H u0 p0 c0 {1,S}
25 H u0 p0 c0 {12,S}


>  <multiplicity>  (3) 
2

>  <reaction>  (3) 
rxn_1511

>  <type>  (3) 
ts

>  <role_mapnums>  (3) 
{"*2": 19, "*1": 9, "*3": 2, "*0": 10, "*4": 1}

>  <role_mapidx>  (3) 
{"*2": 18, "*1": 8, "*3": 1, "*0": 9, "*4": 0}

>  <ordered_mapped_smiles>  (3) 
[S:1]([C:2]([CH2:3][CH2:4][H:7])[H:6])[H:5].[C:8]([C:9]([CH:10]1[CH:11]([H:21])[CH:12]([H:22])[CH:13]([H:23])[CH:14]([H:24])[CH:15]1[H:25])([H:19])[H:20])([H:16])([H:17])[H:18]

>  <mol_properties>  (3) 
{"0": {"label": "*4", "atom_type": "S2s"}, "1": {"label": "*3", "atom_type": "Cs"}, "8": {"label": "*1", "atom_type": "Cs"}, "9": {"label": "*0", "atom_type": "Cs"}, "18": {"label": "*2", "atom_type": "H0"}}

>  <level_of_theory>  (3) 
wb97xd/def2tzvp

>  <lot_method>  (3) 
wb97xd

>  <lot_basis>  (3) 
def2tzvp

>  <spin_multiplicity>  (3) 
2.0

>  <optical_isomers>  (3) 
2.0

>  <modes>  (3) 
IdealGasTranslation(mass=(177.074, 'amu')),         NonlinearRotor(             inertia = ([514.831, 876.953, 972.968

>  <frequency_value>  (3) 
-1748.73

>  <frequency_units>  (3) 
cm^-1

>  <frequency_list>  (3) 
unknown

>  <arkane_path>  (3) 
/home/calvin/Dropbox/PersonalFolders/Calvin/HAb_Converged/rxn_1511/output/rxns/TS0/arkane/output.py

>  <path_exists>  (3) 
True

>  <E0_value>  (3) 
-2165690.0

>  <E0_units>  (3) 
kJ/mol

>  <thermo_class>  (3) 
unknown

>  <Cp0_value>  (3) 
unknown

>  <Cp0_units>  (3) 
unknown

>  <CpInf_value>  (3) 
unknown

>  <CpInf_units>  (3) 
unknown

>  <Tmin_value>  (3) 
unknown

>  <Tmin_units>  (3) 
unknown

>  <Tmax_value>  (3) 
unknown

>  <Tmax_units>  (3) 
unknown

>  <polynomials>  (3) 
unknown

>  <H298_value>  (3) 
unknown

>  <H298_units>  (3) 
unknown

>  <S298_value>  (3) 
unknown

>  <S298_units>  (3) 
unknown

>  <Cp_T_value_list>  (3) 
unknown

>  <Cp_T_units>  (3) 
unknown

>  <T_list>  (3) 
unknown

>  <T_units>  (3) 
unknown

>  <yaml_path>  (3) 
unknown

>  <frequencies_cm1>  (3) 
unknown

>  <ZPE_kJmol>  (3) 
unknown

>  <E_elec_kJmol>  (3) 
unknown

>  <E0_minus_Eelec_plus_ZPE_kJmol>  (3) 
unknown

>  <rxn>  (3) 
unknown

>  <species_type>  (3) 
unknown

>  <species_folder>  (3) 
unknown

>  <frequencies_cm1_list>  (3) 
[]

>  <ts_imag_freq_cm1>  (3) 
-1769.9727

>  <ts_freq_out_path>  (3) 
/home/calvin/Dropbox/PersonalFolders/Calvin/HAb_Converged/rxn_1511/output/rxns/TS0/geometry/freq.out

>  <E0_kJmol>  (3) 
-2.16569e+06

>  <H298_kJmol>  (3) 
unknown

$$$$

     RDKit          3D

 17 17  0  0  0  0  0  0  0  0999 V2000
    2.7069    0.2860   -0.1817 C   0  0  0  0  0  0  0  0  0  1  0  0
    1.6304   -0.7245    0.0085 C   0  0  0  0  0  0  0  0  0  2  0  0
    1.4786   -1.8800   -0.7837 C   0  0  0  0  0  0  0  0  0  3  0  0
    0.4231   -2.7891   -0.5312 C   0  0  0  0  0  3  0  0  0  4  0  0
    0.2582   -3.9235   -1.2940 C   0  0  0  0  0  0  0  0  0  5  0  0
    1.1348   -4.2030   -2.3401 C   0  0  0  0  0  0  0  0  0  6  0  0
    2.1804   -3.3260   -2.6093 C   0  0  0  0  0  0  0  0  0  7  0  0
    2.3549   -2.1866   -1.8513 C   0  0  0  0  0  0  0  0  0  8  0  0
    2.6698    0.7343   -1.1808 H   0  0  0  0  0  0  0  0  0  9  0  0
    3.7029   -0.1584   -0.0766 H   0  0  0  0  0  0  0  0  0 10  0  0
    2.6250    1.0917    0.5463 H   0  0  0  0  0  0  0  0  0 11  0  0
    0.9136   -0.5677    0.8059 H   0  0  0  0  0  0  0  0  0 12  0  0
   -0.2629   -2.5783    0.2811 H   0  0  0  0  0  0  0  0  0 13  0  0
   -0.5582   -4.6017   -1.0785 H   0  0  0  0  0  0  0  0  0 14  0  0
    1.0033   -5.0952   -2.9384 H   0  0  0  0  0  0  0  0  0 15  0  0
    2.8650   -3.5382   -3.4214 H   0  0  0  0  0  0  0  0  0 16  0  0
    3.1750   -1.5169   -2.0772 H   0  0  0  0  0  0  0  0  0 17  0  0
  1 10  1  0
  1 11  1  0
  1  9  1  0
  1  2  1  0
  2 12  1  0
  2  3  1  0
  3  4  1  0
  3  8  1  0
  4  5  1  0
  4 13  1  0
  5 14  1  0
  5  6  1  0
  6 15  1  0
  6  7  1  0
  7  8  1  0
  7 16  1  0
  8 17  1  0
M  RAD  1   4   2
M  END
>  <rmg_smiles>  (4) 
C[CH]C1[CH][CH][CH][CH][CH]1

>  <rmg_adjacency_list>  (4) 
multiplicity 2
1  C u0 p0 c0 {3,S} {9,S} {10,S} {11,S}
2  C u0 p0 c0 {3,S} {4,S} {5,S}
3  C u0 p0 c0 {1,S} {2,S} {12,S}
4  C u1 p0 c0 {2,S} {6,S} {13,S}
5  C u0 p0 c0 {2,S} {8,S} {17,S}
6  C u0 p0 c0 {4,S} {7,S} {14,S}
7  C u0 p0 c0 {6,S} {8,S} {15,S}
8  C u0 p0 c0 {5,S} {7,S} {16,S}
9  H u0 p0 c0 {1,S}
10 H u0 p0 c0 {1,S}
11 H u0 p0 c0 {1,S}
12 H u0 p0 c0 {3,S}
13 H u0 p0 c0 {4,S}
14 H u0 p0 c0 {6,S}
15 H u0 p0 c0 {7,S}
16 H u0 p0 c0 {8,S}
17 H u0 p0 c0 {5,S}


>  <multiplicity>  (4) 
2

>  <reaction>  (4) 
rxn_1511

>  <type>  (4) 
r1

>  <role_mapnums>  (4) 
{}

>  <role_mapidx>  (4) 
{}

>  <ordered_mapped_smiles>  (4) 
[C:1]([CH:2]([CH:3]1[C:4]([H:13])[CH:5]([H:14])[CH:6]([H:15])[CH:7]([H:16])[CH:8]1[H:17])[H:12])([H:9])([H:10])[H:11]

>  <level_of_theory>  (4) 
wb97xd/def2tzvp

>  <lot_method>  (4) 
wb97xd

>  <lot_basis>  (4) 
def2tzvp

>  <spin_multiplicity>  (4) 
2.0

>  <optical_isomers>  (4) 
1.0

>  <modes>  (4) 
IdealGasTranslation(mass=(105.07, 'amu')),         NonlinearRotor(             inertia = ([100.906, 335.03, 432.828

>  <frequency_value>  (4) 
unknown

>  <frequency_units>  (4) 
unknown

>  <frequency_list>  (4) 
unknown

>  <arkane_path>  (4) 
/home/calvin/Dropbox/PersonalFolders/Calvin/HAb_Converged/rxn_1511/output/Species/rxn_1511_C[CH]c1ccccc1/arkane/output.py

>  <path_exists>  (4) 
True

>  <E0_value>  (4) 
-814145.4390471868

>  <E0_units>  (4) 
kJ/mol

>  <thermo_class>  (4) 
NASA

>  <Cp0_value>  (4) 
33.257888

>  <Cp0_units>  (4) 
J/(mol*K)

>  <CpInf_value>  (4) 
407.409128

>  <CpInf_units>  (4) 
J/(mol*K)

>  <Tmin_value>  (4) 
10.0

>  <Tmin_units>  (4) 
K

>  <Tmax_value>  (4) 
3000.0

>  <Tmax_units>  (4) 
K

>  <polynomials>  (4) 
[{"name": "polynomial1", "class": "NASAPolynomial", "Tmin_value": 10.0, "Tmin_units": "K", "Tmax_value": 500.0181965945725, "Tmax_units": "K", "coeffs": [3.899986948526094, 0.0061904905300886525, 0.00020706851194563026, -3.977105955988957e-07, 2.4150499526027994e-10, -97919075.07363199, 12.718849532292747]}, {"name": "polynomial2", "class": "NASAPolynomial", "Tmin_value": 500.0181965945725, "Tmin_units": "K", "Tmax_value": 3000.0, "Tmax_units": "K", "coeffs": [-1.970517894513406, 0.07180867834424715, -4.574442536416197e-05, 1.397905514411292e-08, -1.6399820111971568e-12, -97918721.21698426, 34.639664550558976]}]

>  <H298_value>  (4) 
-194580.26959244045

>  <H298_units>  (4) 
kcal/mol

>  <S298_value>  (4) 
85.3392210607043

>  <S298_units>  (4) 
cal/(mol*K)

>  <Cp_T_value_list>  (4) 
[31.02288591619177, 40.21349792515304, 47.9763276039249, 54.55603245481067, 64.9529019753296, 72.39951333986244, 82.85547162555633, 87.95746847782826, 90.85152645234143]

>  <Cp_T_units>  (4) 
cal/(mol*K)

>  <T_list>  (4) 
[300.0, 400.0, 500.0, 600.0, 800.0, 1000.0, 1500.0, 2000.0, 2400.0]

>  <T_units>  (4) 
K

>  <yaml_path>  (4) 
/home/calvin/Dropbox/PersonalFolders/Calvin/HAb_Converged/rxn_1511/output/Species/rxn_1511_C[CH]c1ccccc1/rxn_1511_CCHc1ccccc1.yml

>  <frequencies_cm1>  (4) 
[105.45629355923998, 120.83147369072, 216.25510169744, 238.46979920763997, 411.38735655056, 430.68358529975995, 477.9078433454, 558.86273328288, 625.17721051812, 625.35575213644, 690.24189642512, 769.39763620876, 797.72395065376, 833.5833479948, 901.31929119128, 970.7101778498799, 980.6055036959999, 988.6055415938, 1000.11460899012, 1025.94134077864, 1044.8942202618398, 1074.80680831576, 1128.88431771076, 1167.6621838128, 1182.4262022508, 1237.72603503276, 1316.38048488804, 1342.4681621187199, 1389.5344795019998, 1422.2556645518, 1466.88420214648, 1475.4885347524398, 1484.7520979491198, 1503.6912434616797, 1594.2805138031197, 1610.7269436445201, 2982.0364441072397, 3025.80660853692, 3101.1374374973198, 3147.482721422, 3152.804635045, 3154.61751916948, 3165.4673559750795, 3173.5635316673593, 3183.0811733208798]

>  <ZPE_kJmol>  (4) 
372.6218456560276

>  <E_elec_kJmol>  (4) 
-814518.0608928428

>  <E0_minus_Eelec_plus_ZPE_kJmol>  (4) 
0.0

>  <rxn>  (4) 
rxn_1511

>  <species_type>  (4) 
p1

>  <species_folder>  (4) 
rxn_1511_C[CH]c1ccccc1

>  <frequencies_cm1_list>  (4) 
[105.45629355923998, 120.83147369072, 216.25510169744, 238.46979920763997, 411.38735655056, 430.68358529975995, 477.9078433454, 558.86273328288, 625.17721051812, 625.35575213644, 690.24189642512, 769.39763620876, 797.72395065376, 833.5833479948, 901.31929119128, 970.7101778498799, 980.6055036959999, 988.6055415938, 1000.11460899012, 1025.94134077864, 1044.8942202618398, 1074.80680831576, 1128.88431771076, 1167.6621838128, 1182.4262022508, 1237.72603503276, 1316.38048488804, 1342.4681621187199, 1389.5344795019998, 1422.2556645518, 1466.88420214648, 1475.4885347524398, 1484.7520979491198, 1503.6912434616797, 1594.2805138031197, 1610.7269436445201, 2982.0364441072397, 3025.80660853692, 3101.1374374973198, 3147.482721422, 3152.804635045, 3154.61751916948, 3165.4673559750795, 3173.5635316673593, 3183.0811733208798]

>  <E0_kJmol>  (4) 
-814145

>  <H298_kJmol>  (4) 
-814124

$$$$

     RDKit          3D

  7  6  0  0  0  0  0  0  0  0999 V2000
   -2.0652    0.3855   -0.2963 S   0  0  0  0  0  0  0  0  0  1  0  0
   -0.7169   -0.5853    0.1792 C   0  0  0  0  0  3  0  0  0  2  0  0
    0.5987   -0.2168    0.0254 C   0  0  0  0  0  0  0  0  0  3  0  0
    1.7547    0.1211   -0.1163 C   0  0  0  0  0  0  0  0  0  4  0  0
   -1.3643    1.4227   -0.7731 H   0  0  0  0  0  0  0  0  0  5  0  0
   -0.9781   -1.5363    0.6220 H   0  0  0  0  0  0  0  0  0  6  0  0
    2.7711    0.4089   -0.2366 H   0  0  0  0  0  0  0  0  0  7  0  0
  1  2  1  0
  1  5  1  0
  2  6  1  0
  2  3  1  0
  3  4  1  0
  4  7  1  0
M  RAD  1   2   2
M  END
>  <rmg_smiles>  (5) 
[CH][C][CH]S

>  <rmg_adjacency_list>  (5) 
multiplicity 2
1 S u0 p2 c0 {2,S} {6,S}
2 C u1 p0 c0 {1,S} {3,S} {5,S}
3 C u0 p1 c0 {2,S} {4,S}
4 C u0 p1 c0 {3,S} {7,S}
5 H u0 p0 c0 {2,S}
6 H u0 p0 c0 {1,S}
7 H u0 p0 c0 {4,S}


>  <multiplicity>  (5) 
2

>  <reaction>  (5) 
rxn_1511

>  <type>  (5) 
r2

>  <role_mapnums>  (5) 
{}

>  <role_mapidx>  (5) 
{}

>  <ordered_mapped_smiles>  (5) 
[S:1]([C:2]([CH2:3][CH2:4][H:7])[H:6])[H:5]

>  <level_of_theory>  (5) 
wb97xd/def2tzvp

>  <lot_method>  (5) 
wb97xd

>  <lot_basis>  (5) 
def2tzvp

>  <spin_multiplicity>  (5) 
2.0

>  <optical_isomers>  (5) 
1.0

>  <modes>  (5) 
IdealGasTranslation(mass=(70.9955, 'amu')),         NonlinearRotor(             inertia = ([14.9079, 166.925, 181.833

>  <frequency_value>  (5) 
unknown

>  <frequency_units>  (5) 
unknown

>  <frequency_list>  (5) 
unknown

>  <arkane_path>  (5) 
/home/calvin/Dropbox/PersonalFolders/Calvin/HAb_Converged/rxn_1511/output/Species/rxn_1511_S[CH]CtC/arkane/output.py

>  <path_exists>  (5) 
True

>  <E0_value>  (5) 
-1349941.413308029

>  <E0_units>  (5) 
kJ/mol

>  <thermo_class>  (5) 
NASA

>  <Cp0_value>  (5) 
33.257888

>  <Cp0_units>  (5) 
J/(mol*K)

>  <CpInf_value>  (5) 
157.97496800000002

>  <CpInf_units>  (5) 
J/(mol*K)

>  <Tmin_value>  (5) 
10.0

>  <Tmin_units>  (5) 
K

>  <Tmax_value>  (5) 
3000.0

>  <Tmax_units>  (5) 
K

>  <polynomials>  (5) 
[{"name": "polynomial1", "class": "NASAPolynomial", "Tmin_value": 10.0, "Tmin_units": "K", "Tmax_value": 486.65208178728574, "Tmax_units": "K", "coeffs": [3.8802951459672888, 0.007873604506352367, 9.419382974185595e-05, -2.421838422094103e-07, 1.77542717864309e-10, -162360446.73209924, 9.503452393902604]}, {"name": "polynomial2", "class": "NASAPolynomial", "Tmin_value": 486.65208178728574, "Tmin_units": "K", "Tmax_value": 3000.0, "Tmax_units": "K", "coeffs": [5.47913018219522, 0.01853455272341036, -1.203216244282249e-05, 3.83984951192902e-09, -4.735578092033837e-13, -162360884.20440963, 0.04560966254204442]}]

>  <H298_value>  (5) 
-322639.87448503025

>  <H298_units>  (5) 
kcal/mol

>  <S298_value>  (5) 
72.23945901825131

>  <S298_units>  (5) 
cal/(mol*K)

>  <Cp_T_value_list>  (5) 
[19.114846827611093, 22.14955743591332, 24.221562759830928, 25.905855360123407, 28.572496367656612, 30.499272110750873, 33.326843001689376, 34.89824152839212, 35.824105130276145]

>  <Cp_T_units>  (5) 
cal/(mol*K)

>  <T_list>  (5) 
[300.0, 400.0, 500.0, 600.0, 800.0, 1000.0, 1500.0, 2000.0, 2400.0]

>  <T_units>  (5) 
K

>  <yaml_path>  (5) 
/home/calvin/Dropbox/PersonalFolders/Calvin/HAb_Converged/rxn_1511/output/Species/rxn_1511_S[CH]CtC/rxn_1511_SCHCtC.yml

>  <frequencies_cm1>  (5) 
[185.14079121252, 248.73594226104, 394.82418795872, 492.5619900182799, 498.371459599, 555.60091525588, 690.8187231919999, 740.57689882072, 984.5334192990399, 1090.8961549205198, 1319.94445026912, 2052.8165915608, 2702.0831865814794, 3183.2253800126, 3431.48750028656]

>  <ZPE_kJmol>  (5) 
111.08297344706106

>  <E_elec_kJmol>  (5) 
-1350052.4962814762

>  <E0_minus_Eelec_plus_ZPE_kJmol>  (5) 
0.0

>  <rxn>  (5) 
rxn_1511

>  <species_type>  (5) 
r0

>  <species_folder>  (5) 
rxn_1511_S[CH]CtC

>  <frequencies_cm1_list>  (5) 
[185.14079121252, 248.73594226104, 394.82418795872, 492.5619900182799, 498.371459599, 555.60091525588, 690.8187231919999, 740.57689882072, 984.5334192990399, 1090.8961549205198, 1319.94445026912, 2052.8165915608, 2702.0831865814794, 3183.2253800126, 3431.48750028656]

>  <E0_kJmol>  (5) 
-1.34994e+06

>  <H298_kJmol>  (5) 
-1.34993e+06

$$$$
