
     RDKit          3D

  5  4  0  0  0  0  0  0  0  0999 V2000
   -0.0091   -0.0250   -0.0055 C   0  0  0  0  0  0  0  0  0  1  0  0
    0.2920    0.9960    0.2091 H   0  0  0  0  0  0  0  0  0  2  0  0
    0.2839   -0.5690    0.8876 H   0  0  0  0  0  0  0  0  0  3  0  0
   -1.0816   -0.0038   -0.1738 H   0  0  0  0  0  0  0  0  0  4  0  0
    0.5684   -0.2793   -0.8895 H   0  0  0  0  0  0  0  0  0  5  0  0
  1  3  1  0
  1  5  1  0
  1  4  1  0
  1  2  1  0
M  END
>  <rmg_smiles>  (1) 
C

>  <rmg_adjacency_list>  (1) 
1 C u0 p0 c0 {2,S} {3,S} {4,S} {5,S}
2 H u0 p0 c0 {1,S}
3 H u0 p0 c0 {1,S}
4 H u0 p0 c0 {1,S}
5 H u0 p0 c0 {1,S}


>  <multiplicity>  (1) 
1

>  <reaction>  (1) 
rxn_688

>  <type>  (1) 
r1h

>  <role_mapnums>  (1) 
{"r1h_a": 1, "r1h_h": 2}

>  <role_mapidx>  (1) 
{"r1h_a": 0, "r1h_h": 1}

>  <ordered_mapped_smiles>  (1) 
[C:1]([H:2])([H:3])([H:4])[H:5]

>  <mol_properties>  (1) 
{"0": {"label": "donator", "atom_type": "Cs"}, "1": {"label": "d_hydrogen", "atom_type": "H0"}}

>  <level_of_theory>  (1) 
wb97xd/def2tzvp

>  <lot_method>  (1) 
wb97xd

>  <lot_basis>  (1) 
def2tzvp

>  <spin_multiplicity>  (1) 
1.0

>  <optical_isomers>  (1) 
1.0

>  <modes>  (1) 
IdealGasTranslation(mass=(16.0313, 'amu')),         NonlinearRotor(             inertia = ([3.18679, 3.18679, 3.18679

>  <frequency_value>  (1) 
unknown

>  <frequency_units>  (1) 
unknown

>  <frequency_list>  (1) 
unknown

>  <arkane_path>  (1) 
/home/calvin/Dropbox/PersonalFolders/Calvin/HAb_Converged/rxn_688/output/Species/rxn_688_C/arkane/output.py

>  <path_exists>  (1) 
True

>  <E0_value>  (1) 
-106268.5262916272

>  <E0_units>  (1) 
kJ/mol

>  <thermo_class>  (1) 
NASA

>  <Cp0_value>  (1) 
33.257888

>  <Cp0_units>  (1) 
J/(mol*K)

>  <CpInf_value>  (1) 
108.088136

>  <CpInf_units>  (1) 
J/(mol*K)

>  <Tmin_value>  (1) 
10.0

>  <Tmin_units>  (1) 
K

>  <Tmax_value>  (1) 
3000.0

>  <Tmax_units>  (1) 
K

>  <polynomials>  (1) 
[{"name": "polynomial1", "class": "NASAPolynomial", "Tmin_value": 10.0, "Tmin_units": "K", "Tmax_value": 616.7595780986624, "Tmax_units": "K", "coeffs": [4.041420799946622, -0.002477807655966685, 1.1290457802459216e-05, 3.700688819348292e-09, -9.366412561864162e-12, -12781153.318458663, -0.42637433538586406]}, {"name": "polynomial2", "class": "NASAPolynomial", "Tmin_value": 616.7595780986624, "Tmin_units": "K", "Tmax_value": 3000.0, "Tmax_units": "K", "coeffs": [0.6800320423470843, 0.011684066325645743, -4.5749540261290126e-06, 7.694671628924811e-10, -3.8768177461555664e-14, -12780593.404419335, 15.343675764562182]}]

>  <H298_value>  (1) 
-25396.41264990868

>  <H298_units>  (1) 
kcal/mol

>  <S298_value>  (1) 
44.46392088520575

>  <S298_units>  (1) 
cal/(mol*K)

>  <Cp_T_value_list>  (1) 
[8.621039065772948, 9.645572285350525, 10.934239595808906, 12.330144838344452, 14.859142397339834, 16.9306880471269, 20.49440393107996, 22.423230884533538, 23.291918246513866]

>  <Cp_T_units>  (1) 
cal/(mol*K)

>  <T_list>  (1) 
[300.0, 400.0, 500.0, 600.0, 800.0, 1000.0, 1500.0, 2000.0, 2400.0]

>  <T_units>  (1) 
K

>  <yaml_path>  (1) 
/home/calvin/Dropbox/PersonalFolders/Calvin/HAb_Converged/rxn_688/output/Species/rxn_688_C/rxn_688_C.yml

>  <frequencies_cm1>  (1) 
[1326.5504901469599, 1326.5504901469599, 1326.5504901469599, 1542.24249904816, 1542.24249904816, 3008.8382878112, 3127.32125252248, 3127.32125252248, 3127.32125252248]

>  <ZPE_kJmol>  (1) 
116.36640738144024

>  <E_elec_kJmol>  (1) 
-106384.89269900863

>  <E0_minus_Eelec_plus_ZPE_kJmol>  (1) 
0.0

>  <rxn>  (1) 
rxn_688

>  <species_type>  (1) 
r0

>  <species_folder>  (1) 
rxn_688_C

>  <frequencies_cm1_list>  (1) 
[1326.5504901469599, 1326.5504901469599, 1326.5504901469599, 1542.24249904816, 1542.24249904816, 3008.8382878112, 3127.32125252248, 3127.32125252248, 3127.32125252248]

>  <E0_kJmol>  (1) 
-106269

>  <H298_kJmol>  (1) 
-106259

$$$$

     RDKit          3D

  4  3  0  0  0  0  0  0  0  0999 V2000
    0.9149   -1.5873   -0.1124 H   0  0  0  0  0  0  0  0  0  1  0  0
    1.0695   -0.5764    0.0772 N   0  0  0  0  0  0  0  0  0  2  0  0
   -0.0013    0.0056    0.0007 C   0  0  0  0  0  2  0  0  0  3  0  0
   -0.9903    0.6184   -0.0577 O   0  0  0  0  0  0  0  0  0  4  0  0
  1  2  1  0
  2  3  1  0
  3  4  1  0
M  RAD  1   3   3
M  END
>  <rmg_smiles>  (2) 
[NH][C][O]

>  <rmg_adjacency_list>  (2) 
1 O u0 p2 c0 {3,S}
2 N u0 p1 c0 {3,S} {4,S}
3 C u0 p1 c0 {1,S} {2,S}
4 H u0 p0 c0 {2,S}


>  <multiplicity>  (2) 
1

>  <reaction>  (2) 
rxn_688

>  <type>  (2) 
r2h

>  <role_mapnums>  (2) 
{"r2h_a": 2, "r2h_h": 1}

>  <role_mapidx>  (2) 
{"r2h_a": 1, "r2h_h": 0}

>  <ordered_mapped_smiles>  (2) 
[H:1][NH:2][C:3][OH:4]

>  <mol_properties>  (2) 
{"0": {"label": "a_hydrogen", "atom_type": "H0"}, "1": {"label": "acceptor", "atom_type": "N3s"}}

>  <level_of_theory>  (2) 
wb97xd/def2tzvp

>  <lot_method>  (2) 
wb97xd

>  <lot_basis>  (2) 
def2tzvp

>  <spin_multiplicity>  (2) 
1.0

>  <optical_isomers>  (2) 
1.0

>  <modes>  (2) 
IdealGasTranslation(mass=(43.0058, 'amu')),         NonlinearRotor(             inertia = ([0.564084, 45.2118, 45.7759

>  <frequency_value>  (2) 
unknown

>  <frequency_units>  (2) 
unknown

>  <frequency_list>  (2) 
unknown

>  <arkane_path>  (2) 
/home/calvin/Dropbox/PersonalFolders/Calvin/HAb_Converged/rxn_688/output/Species/rxn_688_N=C=O/arkane/output.py

>  <path_exists>  (2) 
True

>  <E0_value>  (2) 
-442856.9853546004

>  <E0_units>  (2) 
kJ/mol

>  <thermo_class>  (2) 
NASA

>  <Cp0_value>  (2) 
33.257888

>  <Cp0_units>  (2) 
J/(mol*K)

>  <CpInf_value>  (2) 
83.14472

>  <CpInf_units>  (2) 
J/(mol*K)

>  <Tmin_value>  (2) 
10.0

>  <Tmin_units>  (2) 
K

>  <Tmax_value>  (2) 
3000.0

>  <Tmax_units>  (2) 
K

>  <polynomials>  (2) 
[{"name": "polynomial1", "class": "NASAPolynomial", "Tmin_value": 10.0, "Tmin_units": "K", "Tmax_value": 586.7953975069514, "Tmax_units": "K", "coeffs": [3.9861243824619934, 0.0007827880145368438, 2.3661504316034482e-05, -4.088605031969492e-08, 2.1852250462916166e-11, -53263391.70891186, 4.984661763970984]}, {"name": "polynomial2", "class": "NASAPolynomial", "Tmin_value": 586.7953975069514, "Tmin_units": "K", "Tmax_value": 3000.0, "Tmax_units": "K", "coeffs": [3.1841325575337067, 0.009347855319993307, -6.152656230712687e-06, 1.9838673143302854e-09, -2.455455106902845e-13, -53263350.92685104, 7.9717899696808106]}]

>  <H298_value>  (2) 
-105842.65366355063

>  <H298_units>  (2) 
kcal/mol

>  <S298_value>  (2) 
56.95391973057583

>  <S298_units>  (2) 
cal/(mol*K)

>  <Cp_T_value_list>  (2) 
[10.77776557581646, 11.978464806287942, 13.012037063995042, 13.85993498632109, 15.18202208323925, 16.13145370925093, 17.51706047989655, 18.30501083331314, 18.79511127266518]

>  <Cp_T_units>  (2) 
cal/(mol*K)

>  <T_list>  (2) 
[300.0, 400.0, 500.0, 600.0, 800.0, 1000.0, 1500.0, 2000.0, 2400.0]

>  <T_units>  (2) 
K

>  <yaml_path>  (2) 
/home/calvin/Dropbox/PersonalFolders/Calvin/HAb_Converged/rxn_688/output/Species/rxn_688_N=C=O/rxn_688_N=C=O.yml

>  <frequencies_cm1>  (2) 
[565.13915786536, 643.5738641904001, 779.03201661272, 1344.81667109816, 2341.9990773566396, 3687.0148910290795]

>  <ZPE_kJmol>  (2) 
55.99467345100305

>  <E_elec_kJmol>  (2) 
-442912.98002805136

>  <E0_minus_Eelec_plus_ZPE_kJmol>  (2) 
0.0

>  <rxn>  (2) 
rxn_688

>  <species_type>  (2) 
p0

>  <species_folder>  (2) 
rxn_688_N=C=O

>  <frequencies_cm1_list>  (2) 
[565.13915786536, 643.5738641904001, 779.03201661272, 1344.81667109816, 2341.9990773566396, 3687.0148910290795]

>  <E0_kJmol>  (2) 
-442857

>  <H298_kJmol>  (2) 
-442846

$$$$

     RDKit          3D

  8  6  0  0  0  0  0  0  0  0999 V2000
    0.3535   -2.3680   -0.2568 C   0  0  0  0  0  0  0  0  0  1  0  0
    0.7002   -1.1926   -0.0097 H   0  0  0  0  0  0  0  0  0  2  0  0
    0.6465   -2.9120    0.6364 H   0  0  0  0  0  0  0  0  0  3  0  0
   -0.7190   -2.3468   -0.4250 H   0  0  0  0  0  0  0  0  0  4  0  0
    0.9310   -2.6223   -1.1407 H   0  0  0  0  0  0  0  0  0  5  0  0
    0.8982    0.1023    0.2332 N   0  0  0  0  0  0  0  0  0  6  0  0
   -0.1727    0.6843    0.1567 C   0  0  0  0  0  0  0  0  0  7  0  0
   -1.1616    1.2971    0.0983 O   0  0  0  0  0  1  0  0  0  8  0  0
  1  5  1  0
  1  4  1  0
  1  3  1  0
  1  2  1  0
  6  7  1  0
  7  8  1  0
M  RAD  1   8   2
M  END
>  <rmg_smiles>  (3) 
[N][C][O].C

>  <rmg_adjacency_list>  (3) 
multiplicity 2
1 O u1 p2 c0 {4,S}
2 N u0 p2 c0 {4,S}
3 C u0 p0 c0 {5,S} {6,S} {7,S} {8,S}
4 C u0 p1 c0 {1,S} {2,S}
5 H u0 p0 c0 {3,S}
6 H u0 p0 c0 {3,S}
7 H u0 p0 c0 {3,S}
8 H u0 p0 c0 {3,S}


>  <multiplicity>  (3) 
2

>  <reaction>  (3) 
rxn_688

>  <type>  (3) 
ts

>  <role_mapnums>  (3) 
{"*2": 2, "*1": 1, "*3": 6, "*0": 3, "*4": 7}

>  <role_mapidx>  (3) 
{"*2": 1, "*1": 0, "*3": 5, "*0": 2, "*4": 6}

>  <ordered_mapped_smiles>  (3) 
[C:1]([H:2])([H:3])([H:4])[H:5].[NH2:6][CH2:7][O:8]

>  <mol_properties>  (3) 
{"0": {"label": "*1", "atom_type": "Cs"}, "1": {"label": "*2", "atom_type": "H0"}, "2": {"label": "*0", "atom_type": "H0"}, "5": {"label": "*3", "atom_type": "N1s"}, "6": {"label": "*4", "atom_type": "C2s"}}

>  <level_of_theory>  (3) 
wb97xd/def2tzvp

>  <lot_method>  (3) 
wb97xd

>  <lot_basis>  (3) 
def2tzvp

>  <spin_multiplicity>  (3) 
2.0

>  <optical_isomers>  (3) 
1.0

>  <modes>  (3) 
IdealGasTranslation(mass=(58.0293, 'amu')),         NonlinearRotor(             inertia = ([24.9164, 139.034, 160.602

>  <frequency_value>  (3) 
-1340.71

>  <frequency_units>  (3) 
cm^-1

>  <frequency_list>  (3) 
unknown

>  <arkane_path>  (3) 
/home/calvin/Dropbox/PersonalFolders/Calvin/HAb_Converged/rxn_688/output/rxns/TS0/arkane/output.py

>  <path_exists>  (3) 
True

>  <E0_value>  (3) 
-547329.0

>  <E0_units>  (3) 
kJ/mol

>  <thermo_class>  (3) 
unknown

>  <Cp0_value>  (3) 
unknown

>  <Cp0_units>  (3) 
unknown

>  <CpInf_value>  (3) 
unknown

>  <CpInf_units>  (3) 
unknown

>  <Tmin_value>  (3) 
unknown

>  <Tmin_units>  (3) 
unknown

>  <Tmax_value>  (3) 
unknown

>  <Tmax_units>  (3) 
unknown

>  <polynomials>  (3) 
unknown

>  <H298_value>  (3) 
unknown

>  <H298_units>  (3) 
unknown

>  <S298_value>  (3) 
unknown

>  <S298_units>  (3) 
unknown

>  <Cp_T_value_list>  (3) 
unknown

>  <Cp_T_units>  (3) 
unknown

>  <T_list>  (3) 
unknown

>  <T_units>  (3) 
unknown

>  <yaml_path>  (3) 
unknown

>  <frequencies_cm1>  (3) 
unknown

>  <ZPE_kJmol>  (3) 
unknown

>  <E_elec_kJmol>  (3) 
unknown

>  <E0_minus_Eelec_plus_ZPE_kJmol>  (3) 
unknown

>  <rxn>  (3) 
unknown

>  <species_type>  (3) 
unknown

>  <species_folder>  (3) 
unknown

>  <frequencies_cm1_list>  (3) 
[]

>  <ts_imag_freq_cm1>  (3) 
-1356.9909

>  <ts_freq_out_path>  (3) 
/home/calvin/Dropbox/PersonalFolders/Calvin/HAb_Converged/rxn_688/output/rxns/TS0/geometry/freq.out

>  <E0_kJmol>  (3) 
-547329

>  <H298_kJmol>  (3) 
unknown

$$$$

     RDKit          3D

  4  3  0  0  0  0  0  0  0  0999 V2000
    0.0000    0.0000    0.0000 C   0  0  0  0  0  3  0  0  0  1  0  0
    1.0638   -0.1747    0.0540 H   0  0  0  0  0  0  0  0  0  2  0  0
   -0.6833   -0.8351   -0.0280 H   0  0  0  0  0  0  0  0  0  3  0  0
   -0.3805    1.0098   -0.0260 H   0  0  0  0  0  0  0  0  0  4  0  0
  1  3  1  0
  1  4  1  0
  1  2  1  0
M  RAD  1   1   2
M  END
>  <rmg_smiles>  (4) 
[CH3]

>  <rmg_adjacency_list>  (4) 
multiplicity 2
1 C u1 p0 c0 {2,S} {3,S} {4,S}
2 H u0 p0 c0 {1,S}
3 H u0 p0 c0 {1,S}
4 H u0 p0 c0 {1,S}


>  <multiplicity>  (4) 
2

>  <reaction>  (4) 
rxn_688

>  <type>  (4) 
r1

>  <role_mapnums>  (4) 
{}

>  <role_mapidx>  (4) 
{}

>  <ordered_mapped_smiles>  (4) 
[C:1]([H:2])([H:3])[H:4]

>  <level_of_theory>  (4) 
wb97xd/def2tzvp

>  <lot_method>  (4) 
wb97xd

>  <lot_basis>  (4) 
def2tzvp

>  <spin_multiplicity>  (4) 
2.0

>  <optical_isomers>  (4) 
1.0

>  <modes>  (4) 
IdealGasTranslation(mass=(15.0235, 'amu')),         NonlinearRotor(             inertia = ([1.76141, 1.76141, 3.52282

>  <frequency_value>  (4) 
unknown

>  <frequency_units>  (4) 
unknown

>  <frequency_list>  (4) 
unknown

>  <arkane_path>  (4) 
/home/calvin/Dropbox/PersonalFolders/Calvin/HAb_Converged/rxn_688/output/Species/rxn_688_[CH3]/arkane/output.py

>  <path_exists>  (4) 
True

>  <E0_value>  (4) 
-104520.13119505512

>  <E0_units>  (4) 
kJ/mol

>  <thermo_class>  (4) 
NASA

>  <Cp0_value>  (4) 
33.257888

>  <Cp0_units>  (4) 
J/(mol*K)

>  <CpInf_value>  (4) 
83.14472

>  <CpInf_units>  (4) 
J/(mol*K)

>  <Tmin_value>  (4) 
10.0

>  <Tmin_units>  (4) 
K

>  <Tmax_value>  (4) 
3000.0

>  <Tmax_units>  (4) 
K

>  <polynomials>  (4) 
[{"name": "polynomial1", "class": "NASAPolynomial", "Tmin_value": 10.0, "Tmin_units": "K", "Tmax_value": 646.6680568167106, "Tmax_units": "K", "coeffs": [3.9912271000461548, 0.0004274218009639198, 9.38132315134313e-06, -1.0944874554220949e-08, 4.263406085556096e-12, -12570867.748368958, 0.20527673099681187]}, {"name": "polynomial2", "class": "NASAPolynomial", "Tmin_value": 646.6680568167106, "Tmin_units": "K", "Tmax_value": 3000.0, "Tmax_units": "K", "coeffs": [3.2488827598675174, 0.0050187516265713635, -1.2675301815554908e-06, 3.215102013021586e-11, 2.0164394281080815e-14, -12570771.728238096, 3.4631324604304954]}]

>  <H298_value>  (4) 
-24978.383291331436

>  <H298_units>  (4) 
kcal/mol

>  <S298_value>  (4) 
46.49953999396709

>  <S298_units>  (4) 
cal/(mol*K)

>  <Cp_T_value_list>  (4) 
[9.345424201068383, 10.07887042200736, 10.827537754048599, 11.552428339520182, 12.871902382304132, 14.014614114932202, 16.167234911840477, 17.479674567657305, 18.096247059343543]

>  <Cp_T_units>  (4) 
cal/(mol*K)

>  <T_list>  (4) 
[300.0, 400.0, 500.0, 600.0, 800.0, 1000.0, 1500.0, 2000.0, 2400.0]

>  <T_units>  (4) 
K

>  <yaml_path>  (4) 
/home/calvin/Dropbox/PersonalFolders/Calvin/HAb_Converged/rxn_688/output/Species/rxn_688_[CH3]/rxn_688_CH3.yml

>  <frequencies_cm1>  (4) 
[520.22220688724, 1393.4280601784399, 1393.43492716376, 3088.8592677451597, 3268.6163424668, 3268.6232094521197]

>  <ZPE_kJmol>  (4) 
77.35764153782172

>  <E_elec_kJmol>  (4) 
-104597.48883659294

>  <E0_minus_Eelec_plus_ZPE_kJmol>  (4) 
0.0

>  <rxn>  (4) 
rxn_688

>  <species_type>  (4) 
p1

>  <species_folder>  (4) 
rxn_688_[CH3]

>  <frequencies_cm1_list>  (4) 
[520.22220688724, 1393.4280601784399, 1393.43492716376, 3088.8592677451597, 3268.6163424668, 3268.6232094521197]

>  <E0_kJmol>  (4) 
-104520

>  <H298_kJmol>  (4) 
-104510

$$$$

     RDKit          3D

  3  2  0  0  0  0  0  0  0  0999 V2000
   -1.2036   -0.0000    0.0000 N   0  0  0  0  0  0  0  0  0  1  0  0
    0.0175    0.0000    0.0000 C   0  0  0  0  0  0  0  0  0  2  0  0
    1.1862    0.0000    0.0000 O   0  0  0  0  0  1  0  0  0  3  0  0
  1  2  1  0
  2  3  1  0
M  RAD  1   3   2
M  END
>  <rmg_smiles>  (5) 
[N][C][O]

>  <rmg_adjacency_list>  (5) 
multiplicity 2
1 O u1 p2 c0 {3,S}
2 N u0 p2 c0 {3,S}
3 C u0 p1 c0 {1,S} {2,S}


>  <multiplicity>  (5) 
2

>  <reaction>  (5) 
rxn_688

>  <type>  (5) 
r2

>  <role_mapnums>  (5) 
{}

>  <role_mapidx>  (5) 
{}

>  <ordered_mapped_smiles>  (5) 
[NH2:1][CH2:2][O:3]

>  <level_of_theory>  (5) 
wb97xd/def2tzvp

>  <lot_method>  (5) 
wb97xd

>  <lot_basis>  (5) 
def2tzvp

>  <spin_multiplicity>  (5) 
2.0

>  <optical_isomers>  (5) 
1.0

>  <modes>  (5) 
IdealGasTranslation(mass=(41.998, 'amu')),         LinearRotor(inertia=(42.6659, 'amu*angstrom^2'), symmetry=1),         HarmonicOscillator(frequencies=([529.307, 610.23, 1319.32, 2044.58

>  <frequency_value>  (5) 
unknown

>  <frequency_units>  (5) 
unknown

>  <frequency_list>  (5) 
unknown

>  <arkane_path>  (5) 
/home/calvin/Dropbox/PersonalFolders/Calvin/HAb_Converged/rxn_688/output/Species/rxn_688_[N]=C=O/arkane/output.py

>  <path_exists>  (5) 
True

>  <E0_value>  (5) 
-441084.7107543191

>  <E0_units>  (5) 
kJ/mol

>  <thermo_class>  (5) 
NASA

>  <Cp0_value>  (5) 
29.100652

>  <Cp0_units>  (5) 
J/(mol*K)

>  <CpInf_value>  (5) 
62.358540000000005

>  <CpInf_units>  (5) 
J/(mol*K)

>  <Tmin_value>  (5) 
10.0

>  <Tmin_units>  (5) 
K

>  <Tmax_value>  (5) 
3000.0

>  <Tmax_units>  (5) 
K

>  <polynomials>  (5) 
[{"name": "polynomial1", "class": "NASAPolynomial", "Tmin_value": 10.0, "Tmin_units": "K", "Tmax_value": 573.9847914542285, "Tmax_units": "K", "coeffs": [3.4882679711995674, 0.0006716147381596314, 1.9630303031660352e-05, -3.509824514630013e-08, 1.9229750396915966e-11, -53050236.449783534, 6.507141142396753]}, {"name": "polynomial2", "class": "NASAPolynomial", "Tmin_value": 573.9847914542285, "Tmin_units": "K", "Tmax_value": 3000.0, "Tmax_units": "K", "coeffs": [2.8537648977460575, 0.007664112272961806, -5.36144025883004e-06, 1.7319121451018344e-09, -2.102814556362282e-13, -53050205.95863955, 8.847112067642346]}]

>  <H298_value>  (5) 
-105419.42521953672

>  <H298_units>  (5) 
kcal/mol

>  <S298_value>  (5) 
54.01266897878408

>  <S298_units>  (5) 
cal/(mol*K)

>  <Cp_T_value_list>  (5) 
[9.26949964708827, 10.221705903701368, 11.021504023084445, 11.66282416865318, 12.627387117583021, 13.270699351213457, 14.044276602049829, 14.36158565535208, 14.56832598406735]

>  <Cp_T_units>  (5) 
cal/(mol*K)

>  <T_list>  (5) 
[300.0, 400.0, 500.0, 600.0, 800.0, 1000.0, 1500.0, 2000.0, 2400.0]

>  <T_units>  (5) 
K

>  <yaml_path>  (5) 
/home/calvin/Dropbox/PersonalFolders/Calvin/HAb_Converged/rxn_688/output/Species/rxn_688_[N]=C=O/rxn_688_N=C=O.yml

>  <frequencies_cm1>  (5) 
[522.9552670446, 602.90757712536, 1303.4842864570799, 2020.0473376137597]

>  <ZPE_kJmol>  (5) 
26.613296614722746

>  <E_elec_kJmol>  (5) 
-441111.3240509338

>  <E0_minus_Eelec_plus_ZPE_kJmol>  (5) 
0.0

>  <rxn>  (5) 
rxn_688

>  <species_type>  (5) 
r1

>  <species_folder>  (5) 
rxn_688_[N]=C=O

>  <frequencies_cm1_list>  (5) 
[522.9552670446, 602.90757712536, 1303.4842864570799, 2020.0473376137597]

>  <E0_kJmol>  (5) 
-441085

>  <H298_kJmol>  (5) 
-441075

$$$$
