
     RDKit          3D

 12 11  0  0  0  0  0  0  0  0999 V2000
    0.5061   -1.1646   -1.0037 C   0  0  0  0  0  0  0  0  0  1  0  0
   -0.0141   -0.9528    0.2105 C   0  0  0  0  0  0  0  0  0  2  0  0
   -0.2642    0.3466    0.8176 C   0  0  0  0  0  0  0  0  0  3  0  0
   -0.2465    1.5843   -0.0403 C   0  0  0  0  0  0  0  0  0  4  0  0
    0.7449   -0.3497   -1.6763 H   0  0  0  0  0  0  0  0  0  5  0  0
    0.6909   -2.1683   -1.3637 H   0  0  0  0  0  0  0  0  0  6  0  0
   -0.2311   -1.8138    0.8361 H   0  0  0  0  0  0  0  0  0  7  0  0
    0.6004    0.4747    1.4676 H   0  0  0  0  0  0  0  0  0  8  0  0
   -1.0532    0.3276    1.5682 H   0  0  0  0  0  0  0  0  0  9  0  0
   -1.0179    1.5393   -0.8146 H   0  0  0  0  0  0  0  0  0 10  0  0
    0.7183    1.7074   -0.5370 H   0  0  0  0  0  0  0  0  0 11  0  0
   -0.4259    2.4752    0.5623 H   0  0  0  0  0  0  0  0  0 12  0  0
  1  5  1  0
  1  6  1  0
  1  2  1  0
  2  7  1  0
  2  3  1  0
  3  4  1  0
  3  9  1  0
  3  8  1  0
  4 12  1  0
  4 10  1  0
  4 11  1  0
M  END
>  <rmg_smiles>  (1) 
[CH2][CH]CC

>  <rmg_adjacency_list>  (1) 
1  C u0 p0 c0 {2,S} {3,S} {5,S} {6,S}
2  C u0 p0 c0 {1,S} {7,S} {8,S} {9,S}
3  C u0 p0 c0 {1,S} {4,S} {10,S}
4  C u0 p0 c0 {3,S} {11,S} {12,S}
5  H u0 p0 c0 {1,S}
6  H u0 p0 c0 {1,S}
7  H u0 p0 c0 {2,S}
8  H u0 p0 c0 {2,S}
9  H u0 p0 c0 {2,S}
10 H u0 p0 c0 {3,S}
11 H u0 p0 c0 {4,S}
12 H u0 p0 c0 {4,S}


>  <multiplicity>  (1) 
1

>  <reaction>  (1) 
rxn_1072

>  <type>  (1) 
r1h

>  <role_mapnums>  (1) 
{"r1h_a": 3, "r1h_h": 8}

>  <role_mapidx>  (1) 
{"r1h_a": 2, "r1h_h": 7}

>  <ordered_mapped_smiles>  (1) 
[CH:1]([CH:2]([C:3]([C:4]([H:10])([H:11])[H:12])([H:8])[H:9])[H:7])([H:5])[H:6]

>  <mol_properties>  (1) 
{"2": {"label": "donator", "atom_type": "Cs"}, "7": {"label": "d_hydrogen", "atom_type": "H0"}}

>  <level_of_theory>  (1) 
wb97xd/def2tzvp

>  <lot_method>  (1) 
wb97xd

>  <lot_basis>  (1) 
def2tzvp

>  <spin_multiplicity>  (1) 
1.0

>  <optical_isomers>  (1) 
1.0

>  <modes>  (1) 
IdealGasTranslation(mass=(56.0626, 'amu')),         NonlinearRotor(             inertia = ([32.5109, 90.3514, 116.676

>  <frequency_value>  (1) 
unknown

>  <frequency_units>  (1) 
unknown

>  <frequency_list>  (1) 
unknown

>  <arkane_path>  (1) 
/home/calvin/Dropbox/PersonalFolders/Calvin/HAb_Converged/rxn_1072/output/Species/rxn_1072_C=CCC/arkane/output.py

>  <path_exists>  (1) 
True

>  <E0_value>  (1) 
-412516.9632903335

>  <E0_units>  (1) 
kJ/mol

>  <thermo_class>  (1) 
NASA

>  <Cp0_value>  (1) 
33.257888

>  <Cp0_units>  (1) 
J/(mol*K)

>  <CpInf_value>  (1) 
282.692048

>  <CpInf_units>  (1) 
J/(mol*K)

>  <Tmin_value>  (1) 
10.0

>  <Tmin_units>  (1) 
K

>  <Tmax_value>  (1) 
3000.0

>  <Tmax_units>  (1) 
K

>  <polynomials>  (1) 
[{"name": "polynomial1", "class": "NASAPolynomial", "Tmin_value": 10.0, "Tmin_units": "K", "Tmax_value": 488.655875950425, "Tmax_units": "K", "coeffs": [3.9518334489867755, 0.002738214948316711, 0.00010027883330171994, -1.6337813639818567e-07, 8.627420085348335e-11, -49614327.71326204, 8.65572399544736]}, {"name": "polynomial2", "class": "NASAPolynomial", "Tmin_value": 488.655875950425, "Tmin_units": "K", "Tmax_value": 3000.0, "Tmax_units": "K", "coeffs": [-1.0177998638327943, 0.04340046679206265, -2.4485281954071822e-05, 6.761443222838627e-09, -7.324004262046576e-13, -49613841.81296031, 29.07476490076061]}]

>  <H298_value>  (1) 
-98590.13440490302

>  <H298_units>  (1) 
kcal/mol

>  <S298_value>  (1) 
69.88440789589453

>  <S298_units>  (1) 
cal/(mol*K)

>  <Cp_T_value_list>  (1) 
[20.042973263550383, 25.523981497089775, 30.524522062075274, 34.9218382998611, 42.11657803113529, 47.54675281077259, 55.846682187635814, 60.04373230790421, 62.15783038221664]

>  <Cp_T_units>  (1) 
cal/(mol*K)

>  <T_list>  (1) 
[300.0, 400.0, 500.0, 600.0, 800.0, 1000.0, 1500.0, 2000.0, 2400.0]

>  <T_units>  (1) 
K

>  <yaml_path>  (1) 
/home/calvin/Dropbox/PersonalFolders/Calvin/HAb_Converged/rxn_1072/output/Species/rxn_1072_C=CCC/rxn_1072_C=CCC.yml

>  <frequencies_cm1>  (1) 
[165.89949834588, 270.68969432907994, 288.28291071892, 546.5845635307201, 562.94858954828, 802.8192537611999, 842.75764038232, 950.1229558605198, 1001.7077495843599, 1030.7756984439197, 1035.6375240504801, 1103.34599930568, 1142.2200032022, 1284.9434260930798, 1326.2895447048, 1372.0442678919599, 1403.3508539658399, 1441.4282875652402, 1464.212944857, 1485.72034287924, 1496.3092342426798, 1714.90597793424, 3000.2545561612, 3017.2984137254402, 3025.2847176525997, 3087.5545405343596, 3095.4996425496, 3112.8387804825998, 3128.2208275993994, 3206.66926789508]

>  <ZPE_kJmol>  (1) 
283.55462469418285

>  <E_elec_kJmol>  (1) 
-412800.5179150276

>  <E0_minus_Eelec_plus_ZPE_kJmol>  (1) 
0.0

>  <rxn>  (1) 
rxn_1072

>  <species_type>  (1) 
r1

>  <species_folder>  (1) 
rxn_1072_C=CCC

>  <frequencies_cm1_list>  (1) 
[165.89949834588, 270.68969432907994, 288.28291071892, 546.5845635307201, 562.94858954828, 802.8192537611999, 842.75764038232, 950.1229558605198, 1001.7077495843599, 1030.7756984439197, 1035.6375240504801, 1103.34599930568, 1142.2200032022, 1284.9434260930798, 1326.2895447048, 1372.0442678919599, 1403.3508539658399, 1441.4282875652402, 1464.212944857, 1485.72034287924, 1496.3092342426798, 1714.90597793424, 3000.2545561612, 3017.2984137254402, 3025.2847176525997, 3087.5545405343596, 3095.4996425496, 3112.8387804825998, 3128.2208275993994, 3206.66926789508]

>  <E0_kJmol>  (1) 
-412517

>  <H298_kJmol>  (1) 
-412501

$$$$

     RDKit          3D

  8  7  0  0  0  0  0  0  0  0999 V2000
    0.7338    0.6387   -1.0894 S   0  0  0  0  0  0  0  0  0  1  0  0
   -0.5587    0.5384    0.1326 C   0  0  0  0  0  0  0  0  0  2  0  0
   -0.5584   -0.5812    1.0097 C   0  0  0  0  0  2  0  0  0  3  0  0
   -0.6266   -1.5661    1.6954 C   0  0  0  0  0  2  0  0  0  4  0  0
    0.5441   -0.5879   -1.5968 H   0  0  0  0  0  0  0  0  0  5  0  0
   -0.6742    1.5027    0.6213 H   0  0  0  0  0  0  0  0  0  6  0  0
   -0.6630   -2.4253    2.3207 H   0  0  0  0  0  0  0  0  0  7  0  0
   -1.4851    0.4334   -0.4269 H   0  0  0  0  0  0  0  0  0  8  0  0
  1  2  1  0
  1  5  1  0
  2  8  1  0
  2  6  1  0
  2  3  1  0
  3  4  1  0
  4  7  1  0
M  RAD  2   3   3   4   3
M  END
>  <rmg_smiles>  (2) 
[CH][C]CS

>  <rmg_adjacency_list>  (2) 
1 S u0 p2 c0 {2,S} {7,S}
2 C u0 p0 c0 {1,S} {3,S} {5,S} {6,S}
3 C u0 p1 c0 {2,S} {4,S}
4 C u0 p1 c0 {3,S} {8,S}
5 H u0 p0 c0 {2,S}
6 H u0 p0 c0 {2,S}
7 H u0 p0 c0 {1,S}
8 H u0 p0 c0 {4,S}


>  <multiplicity>  (2) 
1

>  <reaction>  (2) 
rxn_1072

>  <type>  (2) 
r2h

>  <role_mapnums>  (2) 
{"r2h_a": 2, "r2h_h": 8}

>  <role_mapidx>  (2) 
{"r2h_a": 1, "r2h_h": 7}

>  <ordered_mapped_smiles>  (2) 
[S:1]([C:2]([C:3][C:4][H:7])([H:6])[H:8])[H:5]

>  <mol_properties>  (2) 
{"1": {"label": "acceptor", "atom_type": "Cs"}, "7": {"label": "a_hydrogen", "atom_type": "H0"}}

>  <level_of_theory>  (2) 
wb97xd/def2tzvp

>  <lot_method>  (2) 
wb97xd

>  <lot_basis>  (2) 
def2tzvp

>  <spin_multiplicity>  (2) 
1.0

>  <optical_isomers>  (2) 
2.0

>  <modes>  (2) 
IdealGasTranslation(mass=(72.0034, 'amu')),         NonlinearRotor(             inertia = ([22.2085, 166.22, 182.902

>  <frequency_value>  (2) 
unknown

>  <frequency_units>  (2) 
unknown

>  <frequency_list>  (2) 
unknown

>  <arkane_path>  (2) 
/home/calvin/Dropbox/PersonalFolders/Calvin/HAb_Converged/rxn_1072/output/Species/rxn_1072_SCCtC/arkane/output.py

>  <path_exists>  (2) 
True

>  <E0_value>  (2) 
-1351591.9619272442

>  <E0_units>  (2) 
kJ/mol

>  <thermo_class>  (2) 
NASA

>  <Cp0_value>  (2) 
33.257888

>  <Cp0_units>  (2) 
J/(mol*K)

>  <CpInf_value>  (2) 
182.918384

>  <CpInf_units>  (2) 
J/(mol*K)

>  <Tmin_value>  (2) 
10.0

>  <Tmin_units>  (2) 
K

>  <Tmax_value>  (2) 
3000.0

>  <Tmax_units>  (2) 
K

>  <polynomials>  (2) 
[{"name": "polynomial1", "class": "NASAPolynomial", "Tmin_value": 10.0, "Tmin_units": "K", "Tmax_value": 475.2199189026072, "Tmax_units": "K", "coeffs": [3.9081729464366273, 0.006066515480213879, 9.858801916657192e-05, -2.3454588538714718e-07, 1.6729093969770136e-10, -162558962.7892696, 9.8761209629424]}, {"name": "polynomial2", "class": "NASAPolynomial", "Tmin_value": 475.2199189026072, "Tmin_units": "K", "Tmax_value": 3000.0, "Tmax_units": "K", "coeffs": [3.9292799211709246, 0.023944631257607943, -1.4834916665788379e-05, 4.522082984509358e-09, -5.363690563089036e-13, -162559168.67574582, 7.6448789699266015]}]

>  <H298_value>  (2) 
-323034.4124485172

>  <H298_units>  (2) 
kcal/mol

>  <S298_value>  (2) 
72.70695616719325

>  <S298_units>  (2) 
cal/(mol*K)

>  <Cp_T_value_list>  (2) 
[19.12361750639078, 22.6155498358861, 25.286415175994005, 27.548137324924326, 31.171813968930973, 33.831611291215516, 37.7853923074815, 39.89045746976903, 41.06584514735627]

>  <Cp_T_units>  (2) 
cal/(mol*K)

>  <T_list>  (2) 
[300.0, 400.0, 500.0, 600.0, 800.0, 1000.0, 1500.0, 2000.0, 2400.0]

>  <T_units>  (2) 
K

>  <yaml_path>  (2) 
/home/calvin/Dropbox/PersonalFolders/Calvin/HAb_Converged/rxn_1072/output/Species/rxn_1072_SCCtC/rxn_1072_SCCtC.yml

>  <frequencies_cm1>  (2) 
[173.19223675572, 229.15816711371997, 344.57158938696, 467.96444860203997, 686.8633396476799, 691.89683988724, 698.0771266752399, 793.7067642415599, 956.7495966943198, 1009.0760248327199, 1208.56881536404, 1272.7064582528399, 1449.8609455381998, 2225.7547498596796, 2705.54414718276, 3049.3603681845198, 3095.3691698285193, 3437.0291574397993]

>  <ZPE_kJmol>  (2) 
146.51536962244307

>  <E_elec_kJmol>  (2) 
-1351738.4772968667

>  <E0_minus_Eelec_plus_ZPE_kJmol>  (2) 
0.0

>  <rxn>  (2) 
rxn_1072

>  <species_type>  (2) 
p0

>  <species_folder>  (2) 
rxn_1072_SCCtC

>  <frequencies_cm1_list>  (2) 
[173.19223675572, 229.15816711371997, 344.57158938696, 467.96444860203997, 686.8633396476799, 691.89683988724, 698.0771266752399, 793.7067642415599, 956.7495966943198, 1009.0760248327199, 1208.56881536404, 1272.7064582528399, 1449.8609455381998, 2225.7547498596796, 2705.54414718276, 3049.3603681845198, 3095.3691698285193, 3437.0291574397993]

>  <E0_kJmol>  (2) 
-1.35159e+06

>  <H298_kJmol>  (2) 
-1.35158e+06

$$$$

     RDKit          3D

 19 17  0  0  0  0  0  0  0  0999 V2000
    1.8219    0.8961   -0.1306 S   0  0  0  0  0  0  0  0  0  1  0  0
    0.5294    0.7957    1.0914 C   0  0  0  0  0  3  0  0  0  2  0  0
    0.5297   -0.3238    1.9685 C   0  0  0  0  0  0  0  0  0  3  0  0
    0.4614   -1.3087    2.6541 C   0  0  0  0  0  0  0  0  0  4  0  0
    1.6321   -0.3305   -0.6380 H   0  0  0  0  0  0  0  0  0  5  0  0
    0.4138    1.7601    1.5801 H   0  0  0  0  0  0  0  0  0  6  0  0
    0.4251   -2.1680    3.2794 H   0  0  0  0  0  0  0  0  0  7  0  0
   -0.9259   -1.0046   -2.2306 C   0  0  0  0  0  0  0  0  0  8  0  0
   -1.4461   -0.7928   -1.0165 C   0  0  0  0  0  0  0  0  0  9  0  0
   -1.6962    0.5066   -0.4094 C   0  0  0  0  0  0  0  0  0 10  0  0
   -1.6785    1.7443   -1.2672 C   0  0  0  0  0  0  0  0  0 11  0  0
   -0.6871   -0.1897   -2.9033 H   0  0  0  0  0  0  0  0  0 12  0  0
   -0.7411   -2.0083   -2.5906 H   0  0  0  0  0  0  0  0  0 13  0  0
   -1.6631   -1.6537   -0.3909 H   0  0  0  0  0  0  0  0  0 14  0  0
   -0.6366    0.6636    0.3872 H   0  0  0  0  0  0  0  0  0 15  0  0
   -2.4852    0.4876    0.3412 H   0  0  0  0  0  0  0  0  0 16  0  0
   -2.4499    1.6993   -2.0416 H   0  0  0  0  0  0  0  0  0 17  0  0
   -0.7137    1.8674   -1.7640 H   0  0  0  0  0  0  0  0  0 18  0  0
   -1.8579    2.6352   -0.6647 H   0  0  0  0  0  0  0  0  0 19  0  0
  1  2  1  0
  1  5  1  0
  2  6  1  0
  2  3  1  0
  3  4  1  0
  4  7  1  0
  8  9  1  0
  8 13  1  0
  8 12  1  0
  9 10  1  0
  9 14  1  0
 10 16  1  0
 10 11  1  0
 10 15  1  0
 11 19  1  0
 11 17  1  0
 11 18  1  0
M  RAD  1   2   2
M  END
>  <rmg_smiles>  (3) 
[CH][C][CH]S.[CH2][CH]CC

>  <rmg_adjacency_list>  (3) 
multiplicity 2
1  S u0 p2 c0 {6,S} {18,S}
2  C u0 p0 c0 {3,S} {4,S} {9,S} {10,S}
3  C u0 p0 c0 {2,S} {11,S} {12,S} {13,S}
4  C u0 p0 c0 {2,S} {5,S} {14,S}
5  C u0 p0 c0 {4,S} {16,S} {17,S}
6  C u1 p0 c0 {1,S} {7,S} {15,S}
7  C u0 p1 c0 {6,S} {8,S}
8  C u0 p1 c0 {7,S} {19,S}
9  H u0 p0 c0 {2,S}
10 H u0 p0 c0 {2,S}
11 H u0 p0 c0 {3,S}
12 H u0 p0 c0 {3,S}
13 H u0 p0 c0 {3,S}
14 H u0 p0 c0 {4,S}
15 H u0 p0 c0 {6,S}
16 H u0 p0 c0 {5,S}
17 H u0 p0 c0 {5,S}
18 H u0 p0 c0 {1,S}
19 H u0 p0 c0 {8,S}


>  <multiplicity>  (3) 
2

>  <reaction>  (3) 
rxn_1072

>  <type>  (3) 
ts

>  <role_mapnums>  (3) 
{"*2": 15, "*1": 10, "*3": 2, "*0": 9, "*4": 1}

>  <role_mapidx>  (3) 
{"*2": 14, "*1": 9, "*3": 1, "*0": 8, "*4": 0}

>  <ordered_mapped_smiles>  (3) 
[S:1]([C:2]([CH2:3][CH2:4][H:7])[H:6])[H:5].[CH:8]([CH:9]([C:10]([C:11]([H:17])([H:18])[H:19])([H:15])[H:16])[H:14])([H:12])[H:13]

>  <mol_properties>  (3) 
{"0": {"label": "*4", "atom_type": "S2s"}, "1": {"label": "*3", "atom_type": "Cs"}, "8": {"label": "*0", "atom_type": "Cs"}, "9": {"label": "*1", "atom_type": "Cs"}, "14": {"label": "*2", "atom_type": "H0"}}

>  <level_of_theory>  (3) 
wb97xd/def2tzvp

>  <lot_method>  (3) 
wb97xd

>  <lot_basis>  (3) 
def2tzvp

>  <spin_multiplicity>  (3) 
2.0

>  <optical_isomers>  (3) 
2.0

>  <modes>  (3) 
IdealGasTranslation(mass=(127.058, 'amu')),         NonlinearRotor(             inertia = ([279.579, 475.588, 558.276

>  <frequency_value>  (3) 
-1796.45

>  <frequency_units>  (3) 
cm^-1

>  <frequency_list>  (3) 
unknown

>  <arkane_path>  (3) 
/home/calvin/Dropbox/PersonalFolders/Calvin/HAb_Converged/rxn_1072/output/rxns/TS0/arkane/output.py

>  <path_exists>  (3) 
True

>  <E0_value>  (3) 
-1762390.0

>  <E0_units>  (3) 
kJ/mol

>  <thermo_class>  (3) 
unknown

>  <Cp0_value>  (3) 
unknown

>  <Cp0_units>  (3) 
unknown

>  <CpInf_value>  (3) 
unknown

>  <CpInf_units>  (3) 
unknown

>  <Tmin_value>  (3) 
unknown

>  <Tmin_units>  (3) 
unknown

>  <Tmax_value>  (3) 
unknown

>  <Tmax_units>  (3) 
unknown

>  <polynomials>  (3) 
unknown

>  <H298_value>  (3) 
unknown

>  <H298_units>  (3) 
unknown

>  <S298_value>  (3) 
unknown

>  <S298_units>  (3) 
unknown

>  <Cp_T_value_list>  (3) 
unknown

>  <Cp_T_units>  (3) 
unknown

>  <T_list>  (3) 
unknown

>  <T_units>  (3) 
unknown

>  <yaml_path>  (3) 
unknown

>  <frequencies_cm1>  (3) 
unknown

>  <ZPE_kJmol>  (3) 
unknown

>  <E_elec_kJmol>  (3) 
unknown

>  <E0_minus_Eelec_plus_ZPE_kJmol>  (3) 
unknown

>  <rxn>  (3) 
unknown

>  <species_type>  (3) 
unknown

>  <species_folder>  (3) 
unknown

>  <frequencies_cm1_list>  (3) 
[]

>  <ts_imag_freq_cm1>  (3) 
-1818.2711

>  <ts_freq_out_path>  (3) 
/home/calvin/Dropbox/PersonalFolders/Calvin/HAb_Converged/rxn_1072/output/rxns/TS0/geometry/freq.out

>  <E0_kJmol>  (3) 
-1.76239e+06

>  <H298_kJmol>  (3) 
unknown

$$$$

     RDKit          3D

 11 10  0  0  0  0  0  0  0  0999 V2000
    2.0591    0.2533   -0.1061 C   0  0  0  0  0  0  0  0  0  1  0  0
    0.8045   -0.3111   -0.1535 C   0  0  0  0  0  0  0  0  0  2  0  0
   -0.3816    0.3942   -0.1885 C   0  0  0  0  0  3  0  0  0  3  0  0
   -1.7316   -0.2294   -0.2396 C   0  0  0  0  0  0  0  0  0  4  0  0
    2.9505   -0.3576   -0.0805 H   0  0  0  0  0  0  0  0  0  5  0  0
    2.1872    1.3290   -0.0933 H   0  0  0  0  0  0  0  0  0  6  0  0
    0.7385   -1.3970   -0.1643 H   0  0  0  0  0  0  0  0  0  7  0  0
   -0.3340    1.4795   -0.1783 H   0  0  0  0  0  0  0  0  0  8  0  0
   -1.6704   -1.3186   -0.2461 H   0  0  0  0  0  0  0  0  0  9  0  0
   -2.3404    0.0713    0.6191 H   0  0  0  0  0  0  0  0  0 10  0  0
   -2.2805    0.0851   -1.1331 H   0  0  0  0  0  0  0  0  0 11  0  0
  1  5  1  0
  1  6  1  0
  1  2  1  0
  2  7  1  0
  2  3  1  0
  3  4  1  0
  3  8  1  0
  4  9  1  0
  4 10  1  0
  4 11  1  0
M  RAD  1   3   2
M  END
>  <rmg_smiles>  (4) 
[CH2][CH][CH]C

>  <rmg_adjacency_list>  (4) 
multiplicity 2
1  C u0 p0 c0 {2,S} {5,S} {6,S} {7,S}
2  C u1 p0 c0 {1,S} {3,S} {8,S}
3  C u0 p0 c0 {2,S} {4,S} {9,S}
4  C u0 p0 c0 {3,S} {10,S} {11,S}
5  H u0 p0 c0 {1,S}
6  H u0 p0 c0 {1,S}
7  H u0 p0 c0 {1,S}
8  H u0 p0 c0 {2,S}
9  H u0 p0 c0 {3,S}
10 H u0 p0 c0 {4,S}
11 H u0 p0 c0 {4,S}


>  <multiplicity>  (4) 
2

>  <reaction>  (4) 
rxn_1072

>  <type>  (4) 
r1

>  <role_mapnums>  (4) 
{}

>  <role_mapidx>  (4) 
{}

>  <ordered_mapped_smiles>  (4) 
[CH:1]([CH:2]([C:3]([C:4]([H:9])([H:10])[H:11])[H:8])[H:7])([H:5])[H:6]

>  <level_of_theory>  (4) 
wb97xd/def2tzvp

>  <lot_method>  (4) 
wb97xd

>  <lot_basis>  (4) 
def2tzvp

>  <spin_multiplicity>  (4) 
2.0

>  <optical_isomers>  (4) 
1.0

>  <modes>  (4) 
IdealGasTranslation(mass=(55.0548, 'amu')),         NonlinearRotor(             inertia = ([13.1906, 125.273, 135.366

>  <frequency_value>  (4) 
unknown

>  <frequency_units>  (4) 
unknown

>  <frequency_list>  (4) 
unknown

>  <arkane_path>  (4) 
/home/calvin/Dropbox/PersonalFolders/Calvin/HAb_Converged/rxn_1072/output/Species/rxn_1072_C=C[CH]C/arkane/output.py

>  <path_exists>  (4) 
True

>  <E0_value>  (4) 
-410861.3152330692

>  <E0_units>  (4) 
kJ/mol

>  <thermo_class>  (4) 
NASA

>  <Cp0_value>  (4) 
33.257888

>  <Cp0_units>  (4) 
J/(mol*K)

>  <CpInf_value>  (4) 
257.748632

>  <CpInf_units>  (4) 
J/(mol*K)

>  <Tmin_value>  (4) 
10.0

>  <Tmin_units>  (4) 
K

>  <Tmax_value>  (4) 
3000.0

>  <Tmax_units>  (4) 
K

>  <polynomials>  (4) 
[{"name": "polynomial1", "class": "NASAPolynomial", "Tmin_value": 10.0, "Tmin_units": "K", "Tmax_value": 463.6393307218724, "Tmax_units": "K", "coeffs": [3.9040427866109826, 0.008185983411080414, 7.727991952880457e-05, -1.3744264793304484e-07, 7.688975074355223e-11, -49415200.70388584, 8.995587426851019]}, {"name": "polynomial2", "class": "NASAPolynomial", "Tmin_value": 463.6393307218724, "Tmin_units": "K", "Tmax_value": 3000.0, "Tmax_units": "K", "coeffs": [0.3179549217714686, 0.039124611253892716, -2.281509301051405e-05, 6.484032923156998e-09, -7.173482644836273e-13, -49414868.17391742, 23.539944648157388]}]

>  <H298_value>  (4) 
-98194.28584360852

>  <H298_units>  (4) 
kcal/mol

>  <S298_value>  (4) 
71.63337428638437

>  <S298_units>  (4) 
cal/(mol*K)

>  <Cp_T_value_list>  (4) 
[20.32293445175687, 25.26787004109902, 29.6931518167585, 33.55769976572619, 39.8275597158211, 44.50181601093726, 51.51425090015371, 55.048594012523054, 56.90855371865896]

>  <Cp_T_units>  (4) 
cal/(mol*K)

>  <T_list>  (4) 
[300.0, 400.0, 500.0, 600.0, 800.0, 1000.0, 1500.0, 2000.0, 2400.0]

>  <T_units>  (4) 
K

>  <yaml_path>  (4) 
/home/calvin/Dropbox/PersonalFolders/Calvin/HAb_Converged/rxn_1072/output/Species/rxn_1072_C=C[CH]C/rxn_1072_C=CCHC.yml

>  <frequencies_cm1>  (4) 
[145.86850216744, 217.17527773031998, 290.56274984515994, 508.82301125604, 544.53820190536, 739.89020028872, 798.30764440596, 881.33636391008, 988.4682018873999, 989.4158458615598, 1023.15334473872, 1138.3744914229999, 1188.9155033782, 1281.84641571376, 1335.3196304005999, 1400.47358711676, 1459.61893167792, 1463.37517264796, 1502.4895210306797, 1514.45180945812, 2991.0802637736797, 3039.3139686613595, 3086.1330745731198, 3108.55378164292, 3124.5401234678798, 3127.2937845812003, 3223.3011063401195]

>  <ZPE_kJmol>  (4) 
245.90815043438468

>  <E_elec_kJmol>  (4) 
-411107.2233835036

>  <E0_minus_Eelec_plus_ZPE_kJmol>  (4) 
0.0

>  <rxn>  (4) 
rxn_1072

>  <species_type>  (4) 
p1

>  <species_folder>  (4) 
rxn_1072_C=C[CH]C

>  <frequencies_cm1_list>  (4) 
[145.86850216744, 217.17527773031998, 290.56274984515994, 508.82301125604, 544.53820190536, 739.89020028872, 798.30764440596, 881.33636391008, 988.4682018873999, 989.4158458615598, 1023.15334473872, 1138.3744914229999, 1188.9155033782, 1281.84641571376, 1335.3196304005999, 1400.47358711676, 1459.61893167792, 1463.37517264796, 1502.4895210306797, 1514.45180945812, 2991.0802637736797, 3039.3139686613595, 3086.1330745731198, 3108.55378164292, 3124.5401234678798, 3127.2937845812003, 3223.3011063401195]

>  <E0_kJmol>  (4) 
-410861

>  <H298_kJmol>  (4) 
-410845

$$$$

     RDKit          3D

  7  6  0  0  0  0  0  0  0  0999 V2000
   -2.0652    0.3855   -0.2963 S   0  0  0  0  0  0  0  0  0  1  0  0
   -0.7169   -0.5853    0.1792 C   0  0  0  0  0  3  0  0  0  2  0  0
    0.5987   -0.2168    0.0254 C   0  0  0  0  0  0  0  0  0  3  0  0
    1.7547    0.1211   -0.1163 C   0  0  0  0  0  0  0  0  0  4  0  0
   -1.3643    1.4227   -0.7731 H   0  0  0  0  0  0  0  0  0  5  0  0
   -0.9781   -1.5363    0.6220 H   0  0  0  0  0  0  0  0  0  6  0  0
    2.7711    0.4089   -0.2366 H   0  0  0  0  0  0  0  0  0  7  0  0
  1  2  1  0
  1  5  1  0
  2  6  1  0
  2  3  1  0
  3  4  1  0
  4  7  1  0
M  RAD  1   2   2
M  END
>  <rmg_smiles>  (5) 
[CH][C][CH]S

>  <rmg_adjacency_list>  (5) 
multiplicity 2
1 S u0 p2 c0 {2,S} {6,S}
2 C u1 p0 c0 {1,S} {3,S} {5,S}
3 C u0 p1 c0 {2,S} {4,S}
4 C u0 p1 c0 {3,S} {7,S}
5 H u0 p0 c0 {2,S}
6 H u0 p0 c0 {1,S}
7 H u0 p0 c0 {4,S}


>  <multiplicity>  (5) 
2

>  <reaction>  (5) 
rxn_1072

>  <type>  (5) 
r2

>  <role_mapnums>  (5) 
{}

>  <role_mapidx>  (5) 
{}

>  <ordered_mapped_smiles>  (5) 
[S:1]([C:2]([CH2:3][CH2:4][H:7])[H:6])[H:5]

>  <level_of_theory>  (5) 
wb97xd/def2tzvp

>  <lot_method>  (5) 
wb97xd

>  <lot_basis>  (5) 
def2tzvp

>  <spin_multiplicity>  (5) 
2.0

>  <optical_isomers>  (5) 
1.0

>  <modes>  (5) 
IdealGasTranslation(mass=(70.9955, 'amu')),         NonlinearRotor(             inertia = ([14.9079, 166.925, 181.833

>  <frequency_value>  (5) 
unknown

>  <frequency_units>  (5) 
unknown

>  <frequency_list>  (5) 
unknown

>  <arkane_path>  (5) 
/home/calvin/Dropbox/PersonalFolders/Calvin/HAb_Converged/rxn_1072/output/Species/rxn_1072_S[CH]CtC/arkane/output.py

>  <path_exists>  (5) 
True

>  <E0_value>  (5) 
-1349941.413308029

>  <E0_units>  (5) 
kJ/mol

>  <thermo_class>  (5) 
NASA

>  <Cp0_value>  (5) 
33.257888

>  <Cp0_units>  (5) 
J/(mol*K)

>  <CpInf_value>  (5) 
157.97496800000002

>  <CpInf_units>  (5) 
J/(mol*K)

>  <Tmin_value>  (5) 
10.0

>  <Tmin_units>  (5) 
K

>  <Tmax_value>  (5) 
3000.0

>  <Tmax_units>  (5) 
K

>  <polynomials>  (5) 
[{"name": "polynomial1", "class": "NASAPolynomial", "Tmin_value": 10.0, "Tmin_units": "K", "Tmax_value": 486.65208178728574, "Tmax_units": "K", "coeffs": [3.8802951459672888, 0.007873604506352367, 9.419382974185595e-05, -2.421838422094103e-07, 1.77542717864309e-10, -162360446.73209924, 9.503452393902604]}, {"name": "polynomial2", "class": "NASAPolynomial", "Tmin_value": 486.65208178728574, "Tmin_units": "K", "Tmax_value": 3000.0, "Tmax_units": "K", "coeffs": [5.47913018219522, 0.01853455272341036, -1.203216244282249e-05, 3.83984951192902e-09, -4.735578092033837e-13, -162360884.20440963, 0.04560966254204442]}]

>  <H298_value>  (5) 
-322639.87448503025

>  <H298_units>  (5) 
kcal/mol

>  <S298_value>  (5) 
72.23945901825131

>  <S298_units>  (5) 
cal/(mol*K)

>  <Cp_T_value_list>  (5) 
[19.114846827611093, 22.14955743591332, 24.221562759830928, 25.905855360123407, 28.572496367656612, 30.499272110750873, 33.326843001689376, 34.89824152839212, 35.824105130276145]

>  <Cp_T_units>  (5) 
cal/(mol*K)

>  <T_list>  (5) 
[300.0, 400.0, 500.0, 600.0, 800.0, 1000.0, 1500.0, 2000.0, 2400.0]

>  <T_units>  (5) 
K

>  <yaml_path>  (5) 
/home/calvin/Dropbox/PersonalFolders/Calvin/HAb_Converged/rxn_1072/output/Species/rxn_1072_S[CH]CtC/rxn_1072_SCHCtC.yml

>  <frequencies_cm1>  (5) 
[185.14079121252, 248.73594226104, 394.82418795872, 492.5619900182799, 498.371459599, 555.60091525588, 690.8187231919999, 740.57689882072, 984.5334192990399, 1090.8961549205198, 1319.94445026912, 2052.8165915608, 2702.0831865814794, 3183.2253800126, 3431.48750028656]

>  <ZPE_kJmol>  (5) 
111.08297344706106

>  <E_elec_kJmol>  (5) 
-1350052.4962814762

>  <E0_minus_Eelec_plus_ZPE_kJmol>  (5) 
0.0

>  <rxn>  (5) 
rxn_1072

>  <species_type>  (5) 
r0

>  <species_folder>  (5) 
rxn_1072_S[CH]CtC

>  <frequencies_cm1_list>  (5) 
[185.14079121252, 248.73594226104, 394.82418795872, 492.5619900182799, 498.371459599, 555.60091525588, 690.8187231919999, 740.57689882072, 984.5334192990399, 1090.8961549205198, 1319.94445026912, 2052.8165915608, 2702.0831865814794, 3183.2253800126, 3431.48750028656]

>  <E0_kJmol>  (5) 
-1.34994e+06

>  <H298_kJmol>  (5) 
-1.34993e+06

$$$$
