
     RDKit          3D

  7  6  0  0  0  0  0  0  0  0999 V2000
   -0.9148    0.4249    1.2385 O   0  0  0  0  0  0  0  0  0  1  0  0
    0.2539   -0.1798    0.8206 C   0  0  0  0  0  0  0  0  0  2  0  0
    0.3886   -0.2226   -0.6495 C   0  0  0  0  0  2  0  0  0  3  0  0
    0.4749   -0.1871   -1.7927 N   0  0  0  0  0  0  0  0  0  4  0  0
   -1.0810    1.3041    0.8907 H   0  0  0  0  0  0  0  0  0  5  0  0
    1.1545    0.2977    1.2276 H   0  0  0  0  0  0  0  0  0  6  0  0
    0.2458   -1.2091    1.1980 H   0  0  0  0  0  0  0  0  0  7  0  0
  1  5  1  0
  1  2  1  0
  2  7  1  0
  2  6  1  0
  2  3  1  0
  3  4  1  0
M  RAD  1   3   3
M  END
>  <rmg_smiles>  (1) 
[N][C]CO

>  <rmg_adjacency_list>  (1) 
1 O u0 p2 c0 {3,S} {7,S}
2 N u0 p2 c0 {4,S}
3 C u0 p0 c0 {1,S} {4,S} {5,S} {6,S}
4 C u0 p1 c0 {2,S} {3,S}
5 H u0 p0 c0 {3,S}
6 H u0 p0 c0 {3,S}
7 H u0 p0 c0 {1,S}


>  <multiplicity>  (1) 
1

>  <reaction>  (1) 
rxn_3227

>  <type>  (1) 
r1h

>  <role_mapnums>  (1) 
{"r1h_a": 1, "r1h_h": 5}

>  <role_mapidx>  (1) 
{"r1h_a": 0, "r1h_h": 4}

>  <ordered_mapped_smiles>  (1) 
[O:1]([C:2]([C:3][NH2:4])([H:6])[H:7])[H:5]

>  <mol_properties>  (1) 
{"0": {"label": "donator", "atom_type": "O2s"}, "4": {"label": "d_hydrogen", "atom_type": "H0"}}

>  <level_of_theory>  (1) 
wb97xd/def2tzvp

>  <lot_method>  (1) 
wb97xd

>  <lot_basis>  (1) 
def2tzvp

>  <spin_multiplicity>  (1) 
1.0

>  <optical_isomers>  (1) 
2.0

>  <modes>  (1) 
IdealGasTranslation(mass=(57.0215, 'amu')),         NonlinearRotor(             inertia = ([14.7791, 103.904, 114.462

>  <frequency_value>  (1) 
unknown

>  <frequency_units>  (1) 
unknown

>  <frequency_list>  (1) 
unknown

>  <arkane_path>  (1) 
/home/calvin/Dropbox/PersonalFolders/Calvin/ATLAS_Converged/NonRMG/rxn_3227/output/Species/rxn_3227_r2_OCCtN/arkane/output.py

>  <path_exists>  (1) 
True

>  <E0_value>  (1) 
-545896.9318810775

>  <E0_units>  (1) 
kJ/mol

>  <thermo_class>  (1) 
NASA

>  <Cp0_value>  (1) 
33.257888

>  <Cp0_units>  (1) 
J/(mol*K)

>  <CpInf_value>  (1) 
157.97496800000002

>  <CpInf_units>  (1) 
J/(mol*K)

>  <Tmin_value>  (1) 
10.0

>  <Tmin_units>  (1) 
K

>  <Tmax_value>  (1) 
3000.0

>  <Tmax_units>  (1) 
K

>  <polynomials>  (1) 
[{"name": "polynomial1", "class": "NASAPolynomial", "Tmin_value": 10.0, "Tmin_units": "K", "Tmax_value": 269.90196424101583, "Tmax_units": "K", "coeffs": [3.974055049314674, 0.002148070571690678, 9.245781473231929e-05, -2.558540168997683e-07, 2.400019896634014e-10, -65656236.62659848, 8.776284355072299]}, {"name": "polynomial2", "class": "NASAPolynomial", "Tmin_value": 269.90196424101583, "Tmin_units": "K", "Tmax_value": 3000.0, "Tmax_units": "K", "coeffs": [2.6981216881960726, 0.021057449730340856, -1.2631319726119717e-05, 3.7167868512366187e-09, -4.260616024571291e-13, -65656167.750473954, 13.260853546923435]}]

>  <H298_value>  (1) 
-130469.11482098723

>  <H298_units>  (1) 
kcal/mol

>  <S298_value>  (1) 
68.31720992702782

>  <S298_units>  (1) 
cal/(mol*K)

>  <Cp_T_value_list>  (1) 
[15.848846172168868, 18.534789508658516, 20.879551139190387, 22.918303139954077, 26.208306488300764, 28.64553588867725, 32.29418358372448, 34.18999002112651, 35.222757163954185]

>  <Cp_T_units>  (1) 
cal/(mol*K)

>  <T_list>  (1) 
[300.0, 400.0, 500.0, 600.0, 800.0, 1000.0, 1500.0, 2000.0, 2400.0]

>  <T_units>  (1) 
K

>  <yaml_path>  (1) 
/home/calvin/Dropbox/PersonalFolders/Calvin/ATLAS_Converged/NonRMG/rxn_3227/output/Species/rxn_3227_r2_OCCtN/rxn_3227_r2_OCCtN.yml

>  <frequencies_cm1>  (1) 
[215.61647206268, 300.73275510407996, 381.57777327644, 587.3195204489599, 893.2849183668799, 985.67333886216, 1102.41208930216, 1221.3963439418, 1363.10345300532, 1405.5345552975998, 1474.98037783876, 2362.6549691991995, 3007.92497876364, 3091.29704753376, 3838.7546656451195]

>  <ZPE_kJmol>  (1) 
132.9785031968524

>  <E_elec_kJmol>  (1) 
-546029.9103842743

>  <E0_minus_Eelec_plus_ZPE_kJmol>  (1) 
0.0

>  <rxn>  (1) 
rxn_3227

>  <species_type>  (1) 
r1

>  <species_folder>  (1) 
rxn_3227_r2_OCCtN

>  <frequencies_cm1_list>  (1) 
[215.61647206268, 300.73275510407996, 381.57777327644, 587.3195204489599, 893.2849183668799, 985.67333886216, 1102.41208930216, 1221.3963439418, 1363.10345300532, 1405.5345552975998, 1474.98037783876, 2362.6549691991995, 3007.92497876364, 3091.29704753376, 3838.7546656451195]

>  <E0_kJmol>  (1) 
-545897

>  <H298_kJmol>  (1) 
-545883

$$$$

     RDKit          3D

  8  7  0  0  0  0  0  0  0  0999 V2000
   -1.6243   -0.1649    0.3098 N   0  0  0  0  0  0  0  0  0  1  0  0
   -0.5930    0.2115   -0.6308 C   0  0  0  0  0  0  0  0  0  2  0  0
    0.7689    0.0717   -0.0966 C   0  0  0  0  0  2  0  0  0  3  0  0
    1.8082   -0.0641    0.3688 N   0  0  0  0  0  0  0  0  0  4  0  0
   -1.4553    0.2582    1.2189 H   0  0  0  0  0  0  0  0  0  5  0  0
   -0.7441    1.2592   -0.9123 H   0  0  0  0  0  0  0  0  0  6  0  0
   -0.6822   -0.3895   -1.5362 H   0  0  0  0  0  0  0  0  0  7  0  0
   -1.7493   -1.1654    0.4422 H   0  0  0  0  0  0  0  0  0  8  0  0
  1  5  1  0
  1  2  1  0
  1  8  1  0
  2  7  1  0
  2  6  1  0
  2  3  1  0
  3  4  1  0
M  RAD  1   3   3
M  END
>  <rmg_smiles>  (2) 
[N][C]CN

>  <rmg_adjacency_list>  (2) 
1 N u0 p1 c0 {3,S} {7,S} {8,S}
2 N u0 p2 c0 {4,S}
3 C u0 p0 c0 {1,S} {4,S} {5,S} {6,S}
4 C u0 p1 c0 {2,S} {3,S}
5 H u0 p0 c0 {3,S}
6 H u0 p0 c0 {3,S}
7 H u0 p0 c0 {1,S}
8 H u0 p0 c0 {1,S}


>  <multiplicity>  (2) 
1

>  <reaction>  (2) 
rxn_3227

>  <type>  (2) 
r2h

>  <role_mapnums>  (2) 
{"r2h_a": 1, "r2h_h": 8}

>  <role_mapidx>  (2) 
{"r2h_a": 0, "r2h_h": 7}

>  <ordered_mapped_smiles>  (2) 
[N:1]([C:2]([C:3][NH2:4])([H:6])[H:7])([H:5])[H:8]

>  <mol_properties>  (2) 
{"0": {"label": "acceptor", "atom_type": "N3s"}, "7": {"label": "a_hydrogen", "atom_type": "H0"}}

>  <level_of_theory>  (2) 
wb97xd/def2tzvp

>  <lot_method>  (2) 
wb97xd

>  <lot_basis>  (2) 
def2tzvp

>  <spin_multiplicity>  (2) 
1.0

>  <optical_isomers>  (2) 
1.0

>  <modes>  (2) 
IdealGasTranslation(mass=(56.0374, 'amu')),         NonlinearRotor(             inertia = ([16.5185, 105.395, 116.141

>  <frequency_value>  (2) 
unknown

>  <frequency_units>  (2) 
unknown

>  <frequency_list>  (2) 
unknown

>  <arkane_path>  (2) 
/home/calvin/Dropbox/PersonalFolders/Calvin/ATLAS_Converged/NonRMG/rxn_3227/output/Species/rxn_3227_p1_NCCtN/arkane/output.py

>  <path_exists>  (2) 
True

>  <E0_value>  (2) 
-493707.24096395954

>  <E0_units>  (2) 
kJ/mol

>  <thermo_class>  (2) 
NASA

>  <Cp0_value>  (2) 
33.257888

>  <Cp0_units>  (2) 
J/(mol*K)

>  <CpInf_value>  (2) 
182.918384

>  <CpInf_units>  (2) 
J/(mol*K)

>  <Tmin_value>  (2) 
10.0

>  <Tmin_units>  (2) 
K

>  <Tmax_value>  (2) 
3000.0

>  <Tmax_units>  (2) 
K

>  <polynomials>  (2) 
[{"name": "polynomial1", "class": "NASAPolynomial", "Tmin_value": 10.0, "Tmin_units": "K", "Tmax_value": 310.3656944426032, "Tmax_units": "K", "coeffs": [3.9731943208296037, 0.002034998905401934, 9.475709370659397e-05, -2.3009470252826854e-07, 1.8817978896599532e-10, -59379266.29095806, 8.166466583720501]}, {"name": "polynomial2", "class": "NASAPolynomial", "Tmin_value": 310.3656944426032, "Tmin_units": "K", "Tmax_value": 3000.0, "Tmax_units": "K", "coeffs": [2.222751666825024, 0.024594558995586543, -1.4272560220765838e-05, 4.0994905264842876e-09, -4.624224001756621e-13, -59379157.63460226, 14.563329871704575]}]

>  <H298_value>  (2) 
-117995.39622498966

>  <H298_units>  (2) 
kcal/mol

>  <S298_value>  (2) 
67.48007386059012

>  <S298_units>  (2) 
cal/(mol*K)

>  <Cp_T_value_list>  (2) 
[16.739297051439777, 19.926703272151446, 22.72455293853158, 25.171796492782516, 29.159257216543025, 32.15661505552977, 36.755563782360284, 39.185316788338156, 40.47748472918174]

>  <Cp_T_units>  (2) 
cal/(mol*K)

>  <T_list>  (2) 
[300.0, 400.0, 500.0, 600.0, 800.0, 1000.0, 1500.0, 2000.0, 2400.0]

>  <T_units>  (2) 
K

>  <yaml_path>  (2) 
/home/calvin/Dropbox/PersonalFolders/Calvin/ATLAS_Converged/NonRMG/rxn_3227/output/Species/rxn_3227_p1_NCCtN/rxn_3227_p1_NCCtN.yml

>  <frequencies_cm1>  (2) 
[216.01475721123998, 261.31625936728, 391.90571919772, 575.1100205500001, 821.9438078774, 892.22053564228, 915.49274889176, 1117.7804024483198, 1189.6365368368, 1359.3815469618798, 1375.3816227574798, 1458.4996130707598, 1659.1529241211601, 2352.78024430904, 3046.929455381239, 3089.3536906882, 3509.5925913162396, 3590.1972650023995]

>  <ZPE_kJmol>  (2) 
166.41668883231094

>  <E_elec_kJmol>  (2) 
-493873.6576527919

>  <E0_minus_Eelec_plus_ZPE_kJmol>  (2) 
0.0

>  <rxn>  (2) 
rxn_3227

>  <species_type>  (2) 
p0

>  <species_folder>  (2) 
rxn_3227_p1_NCCtN

>  <frequencies_cm1_list>  (2) 
[216.01475721123998, 261.31625936728, 391.90571919772, 575.1100205500001, 821.9438078774, 892.22053564228, 915.49274889176, 1117.7804024483198, 1189.6365368368, 1359.3815469618798, 1375.3816227574798, 1458.4996130707598, 1659.1529241211601, 2352.78024430904, 3046.929455381239, 3089.3536906882, 3509.5925913162396, 3590.1972650023995]

>  <E0_kJmol>  (2) 
-493707

>  <H298_kJmol>  (2) 
-493693

$$$$

     RDKit          3D

 14 12  0  0  0  0  0  0  0  0999 V2000
   -1.2898    1.2886    0.4582 N   0  0  0  0  0  0  0  0  0  1  0  0
   -0.2586    1.6649   -0.4824 C   0  0  0  0  0  0  0  0  0  2  0  0
    1.1034    1.5252    0.0518 C   0  0  0  0  0  0  0  0  0  3  0  0
    2.1427    1.3894    0.5172 N   0  0  0  0  0  0  0  0  0  4  0  0
   -1.1208    1.7117    1.3674 H   0  0  0  0  0  0  0  0  0  5  0  0
   -0.4097    2.7127   -0.7638 H   0  0  0  0  0  0  0  0  0  6  0  0
   -0.3477    1.0640   -1.3878 H   0  0  0  0  0  0  0  0  0  7  0  0
   -1.2194   -0.9979    1.0594 O   0  0  0  0  0  1  0  0  0  8  0  0
   -0.0507   -1.6026    0.6414 C   0  0  0  0  0  0  0  0  0  9  0  0
    0.0840   -1.6454   -0.8286 C   0  0  0  0  0  0  0  0  0 10  0  0
    0.1702   -1.6099   -1.9719 N   0  0  0  0  0  0  0  0  0 11  0  0
   -1.4338    0.1362    0.6108 H   0  0  0  0  0  0  0  0  0 12  0  0
    0.8499   -1.1251    1.0484 H   0  0  0  0  0  0  0  0  0 13  0  0
   -0.0588   -2.6319    1.0188 H   0  0  0  0  0  0  0  0  0 14  0  0
  1  5  1  0
  1  2  1  0
  1 12  1  0
  2  7  1  0
  2  6  1  0
  2  3  1  0
  3  4  1  0
  8  9  1  0
  9 10  1  0
  9 14  1  0
  9 13  1  0
 10 11  1  0
M  RAD  1   8   2
M  END
>  <rmg_smiles>  (3) 
[N][C]C[O].[N][C]CN

>  <rmg_adjacency_list>  (3) 
multiplicity 2
1  O u1 p2 c0 {6,S}
2  N u0 p1 c0 {5,S} {13,S} {14,S}
3  N u0 p2 c0 {7,S}
4  N u0 p2 c0 {8,S}
5  C u0 p0 c0 {2,S} {7,S} {9,S} {10,S}
6  C u0 p0 c0 {1,S} {8,S} {11,S} {12,S}
7  C u0 p1 c0 {3,S} {5,S}
8  C u0 p1 c0 {4,S} {6,S}
9  H u0 p0 c0 {5,S}
10 H u0 p0 c0 {5,S}
11 H u0 p0 c0 {6,S}
12 H u0 p0 c0 {6,S}
13 H u0 p0 c0 {2,S}
14 H u0 p0 c0 {2,S}


>  <multiplicity>  (3) 
2

>  <reaction>  (3) 
rxn_3227

>  <type>  (3) 
ts

>  <role_mapnums>  (3) 
{"*2": 12, "*1": 8, "*3": 1, "*0": 2, "*4": 9}

>  <role_mapidx>  (3) 
{"*2": 11, "*1": 7, "*3": 0, "*0": 1, "*4": 8}

>  <ordered_mapped_smiles>  (3) 
[N:1]([C:2]([CH2:3][NH2:4])([H:6])[H:7])([H:5])[H:12].[O:8][C:9]([CH2:10][NH2:11])([H:13])[H:14]

>  <mol_properties>  (3) 
{"0": {"label": "*3", "atom_type": "N3s"}, "1": {"label": "*0", "atom_type": "Cs"}, "7": {"label": "*1", "atom_type": "O2s"}, "8": {"label": "*4", "atom_type": "Cs"}, "11": {"label": "*2", "atom_type": "H0"}}

>  <level_of_theory>  (3) 
wb97xd/def2tzvp

>  <lot_method>  (3) 
wb97xd

>  <lot_basis>  (3) 
def2tzvp

>  <spin_multiplicity>  (3) 
2.0

>  <optical_isomers>  (3) 
2.0

>  <modes>  (3) 
IdealGasTranslation(mass=(112.051, 'amu')),         NonlinearRotor(             inertia = ([213.592, 343.795, 403.3

>  <frequency_value>  (3) 
-1739.97

>  <frequency_units>  (3) 
cm^-1

>  <frequency_list>  (3) 
unknown

>  <arkane_path>  (3) 
/home/calvin/Dropbox/PersonalFolders/Calvin/ATLAS_Converged/NonRMG/rxn_3227/output/rxns/TS0/arkane/output.py

>  <path_exists>  (3) 
True

>  <E0_value>  (3) 
-1037850.0

>  <E0_units>  (3) 
kJ/mol

>  <thermo_class>  (3) 
unknown

>  <Cp0_value>  (3) 
unknown

>  <Cp0_units>  (3) 
unknown

>  <CpInf_value>  (3) 
unknown

>  <CpInf_units>  (3) 
unknown

>  <Tmin_value>  (3) 
unknown

>  <Tmin_units>  (3) 
unknown

>  <Tmax_value>  (3) 
unknown

>  <Tmax_units>  (3) 
unknown

>  <polynomials>  (3) 
unknown

>  <H298_value>  (3) 
unknown

>  <H298_units>  (3) 
unknown

>  <S298_value>  (3) 
unknown

>  <S298_units>  (3) 
unknown

>  <Cp_T_value_list>  (3) 
unknown

>  <Cp_T_units>  (3) 
unknown

>  <T_list>  (3) 
unknown

>  <T_units>  (3) 
unknown

>  <yaml_path>  (3) 
unknown

>  <frequencies_cm1>  (3) 
unknown

>  <ZPE_kJmol>  (3) 
unknown

>  <E_elec_kJmol>  (3) 
unknown

>  <E0_minus_Eelec_plus_ZPE_kJmol>  (3) 
unknown

>  <rxn>  (3) 
unknown

>  <species_type>  (3) 
unknown

>  <species_folder>  (3) 
unknown

>  <frequencies_cm1_list>  (3) 
[]

>  <ts_imag_freq_cm1>  (3) 
-1761.1041

>  <ts_freq_out_path>  (3) 
/home/calvin/Dropbox/PersonalFolders/Calvin/ATLAS_Converged/NonRMG/rxn_3227/output/rxns/TS0/geometry/freq.out

>  <E0_kJmol>  (3) 
-1.03785e+06

>  <H298_kJmol>  (3) 
unknown

$$$$

     RDKit          3D

  6  5  0  0  0  0  0  0  0  0999 V2000
   -1.0578    1.1910   -0.1492 O   0  0  0  0  0  1  0  0  0  1  0  0
   -0.4642   -0.0130    0.0051 C   0  0  0  0  0  0  0  0  0  2  0  0
    1.0136   -0.0026   -0.0071 C   0  0  0  0  0  0  0  0  0  3  0  0
    2.1596   -0.0104   -0.0146 N   0  0  0  0  0  0  0  0  0  4  0  0
   -0.8305   -0.6957   -0.7795 H   0  0  0  0  0  0  0  0  0  5  0  0
   -0.8178   -0.4685    0.9451 H   0  0  0  0  0  0  0  0  0  6  0  0
  1  2  1  0
  2  5  1  0
  2  6  1  0
  2  3  1  0
  3  4  1  0
M  RAD  1   1   2
M  END
>  <rmg_smiles>  (4) 
[N][C]C[O]

>  <rmg_adjacency_list>  (4) 
multiplicity 2
1 O u1 p2 c0 {3,S}
2 N u0 p2 c0 {4,S}
3 C u0 p0 c0 {1,S} {4,S} {5,S} {6,S}
4 C u0 p1 c0 {2,S} {3,S}
5 H u0 p0 c0 {3,S}
6 H u0 p0 c0 {3,S}


>  <multiplicity>  (4) 
2

>  <reaction>  (4) 
rxn_3227

>  <type>  (4) 
r1

>  <role_mapnums>  (4) 
{}

>  <role_mapidx>  (4) 
{}

>  <ordered_mapped_smiles>  (4) 
[O:1][C:2]([CH2:3][NH2:4])([H:5])[H:6]

>  <level_of_theory>  (4) 
wb97xd/def2tzvp

>  <lot_method>  (4) 
wb97xd

>  <lot_basis>  (4) 
def2tzvp

>  <spin_multiplicity>  (4) 
2.0

>  <optical_isomers>  (4) 
1.0

>  <modes>  (4) 
IdealGasTranslation(mass=(56.0136, 'amu')),         NonlinearRotor(             inertia = ([11.9623, 102.774, 111.687

>  <frequency_value>  (4) 
unknown

>  <frequency_units>  (4) 
unknown

>  <frequency_list>  (4) 
unknown

>  <arkane_path>  (4) 
/home/calvin/Dropbox/PersonalFolders/Calvin/ATLAS_Converged/NonRMG/rxn_3227/output/Species/rxn_3227_p2_sbr-O-sbrCCtN/arkane/output.py

>  <path_exists>  (4) 
True

>  <E0_value>  (4) 
-544152.1636597824

>  <E0_units>  (4) 
kJ/mol

>  <thermo_class>  (4) 
NASA

>  <Cp0_value>  (4) 
33.257888

>  <Cp0_units>  (4) 
J/(mol*K)

>  <CpInf_value>  (4) 
133.031552

>  <CpInf_units>  (4) 
J/(mol*K)

>  <Tmin_value>  (4) 
10.0

>  <Tmin_units>  (4) 
K

>  <Tmax_value>  (4) 
3000.0

>  <Tmax_units>  (4) 
K

>  <polynomials>  (4) 
[{"name": "polynomial1", "class": "NASAPolynomial", "Tmin_value": 10.0, "Tmin_units": "K", "Tmax_value": 478.14477606758436, "Tmax_units": "K", "coeffs": [3.958817344306924, 0.00267004139614544, 6.182308701771035e-05, -1.334306403999326e-07, 8.938733383596247e-11, -65446387.2962579, 8.646391394969218]}, {"name": "polynomial2", "class": "NASAPolynomial", "Tmin_value": 478.14477606758436, "Tmin_units": "K", "Tmax_value": 3000.0, "Tmax_units": "K", "coeffs": [3.076693359383603, 0.018019949269051466, -1.1335487608183842e-05, 3.4352521107574193e-09, -4.0158264087380557e-13, -65446394.04972732, 11.298516253306115]}]

>  <H298_value>  (4) 
-130052.26188532313

>  <H298_units>  (4) 
kcal/mol

>  <S298_value>  (4) 
67.04854095180045

>  <S298_units>  (4) 
cal/(mol*K)

>  <Cp_T_value_list>  (4) 
[14.795383751055578, 17.22368030092694, 19.190659234472914, 20.86140913506179, 23.513226534392118, 25.425958405387284, 28.144276875263554, 29.472927509483565, 30.200650157815875]

>  <Cp_T_units>  (4) 
cal/(mol*K)

>  <T_list>  (4) 
[300.0, 400.0, 500.0, 600.0, 800.0, 1000.0, 1500.0, 2000.0, 2400.0]

>  <T_units>  (4) 
K

>  <yaml_path>  (4) 
/home/calvin/Dropbox/PersonalFolders/Calvin/ATLAS_Converged/NonRMG/rxn_3227/output/Species/rxn_3227_p2_sbr-O-sbrCCtN/rxn_3227_p2_sbr-O-sbrCCtN.yml

>  <frequencies_cm1>  (4) 
[229.52211733567998, 333.76982147859997, 591.37104178776, 602.90757712536, 895.94930867104, 1087.65493784948, 1157.68445414284, 1317.602808275, 1369.43481347036, 2366.8438302443997, 2931.3649594309595, 2955.6466195224803]

>  <ZPE_kJmol>  (4) 
94.74278556076187

>  <E_elec_kJmol>  (4) 
-544246.9064453432

>  <E0_minus_Eelec_plus_ZPE_kJmol>  (4) 
0.0

>  <rxn>  (4) 
rxn_3227

>  <species_type>  (4) 
p1

>  <species_folder>  (4) 
rxn_3227_p2_sbr-O-sbrCCtN

>  <frequencies_cm1_list>  (4) 
[229.52211733567998, 333.76982147859997, 591.37104178776, 602.90757712536, 895.94930867104, 1087.65493784948, 1157.68445414284, 1317.602808275, 1369.43481347036, 2366.8438302443997, 2931.3649594309595, 2955.6466195224803]

>  <E0_kJmol>  (4) 
-544152

>  <H298_kJmol>  (4) 
-544139

$$$$

     RDKit          3D

  7  6  0  0  0  0  0  0  0  0999 V2000
   -1.3059    0.5497   -0.1304 N   0  0  0  0  0  2  0  0  0  1  0  0
   -0.2700   -0.4288    0.0448 C   0  0  0  0  0  0  0  0  0  2  0  0
    1.1109    0.0669    0.0401 C   0  0  0  0  0  0  0  0  0  3  0  0
    2.1758    0.4925    0.0308 N   0  0  0  0  0  0  0  0  0  4  0  0
   -0.8815    1.4733   -0.2339 H   0  0  0  0  0  0  0  0  0  5  0  0
   -0.3767   -1.1909   -0.7373 H   0  0  0  0  0  0  0  0  0  6  0  0
   -0.4527   -0.9628    0.9858 H   0  0  0  0  0  0  0  0  0  7  0  0
  1  5  1  0
  1  2  1  0
  2  7  1  0
  2  6  1  0
  2  3  1  0
  3  4  1  0
M  RAD  1   1   2
M  END
>  <rmg_smiles>  (5) 
[N][C]C[NH]

>  <rmg_adjacency_list>  (5) 
multiplicity 2
1 N u1 p1 c0 {3,S} {7,S}
2 N u0 p2 c0 {4,S}
3 C u0 p0 c0 {1,S} {4,S} {5,S} {6,S}
4 C u0 p1 c0 {2,S} {3,S}
5 H u0 p0 c0 {3,S}
6 H u0 p0 c0 {3,S}
7 H u0 p0 c0 {1,S}


>  <multiplicity>  (5) 
2

>  <reaction>  (5) 
rxn_3227

>  <type>  (5) 
r2

>  <role_mapnums>  (5) 
{}

>  <role_mapidx>  (5) 
{}

>  <ordered_mapped_smiles>  (5) 
[N:1]([C:2]([CH2:3][NH2:4])([H:6])[H:7])[H:5]

>  <level_of_theory>  (5) 
wb97xd/def2tzvp

>  <lot_method>  (5) 
wb97xd

>  <lot_basis>  (5) 
def2tzvp

>  <spin_multiplicity>  (5) 
2.0

>  <optical_isomers>  (5) 
1.0

>  <modes>  (5) 
IdealGasTranslation(mass=(55.0296, 'amu')),         NonlinearRotor(             inertia = ([14.3798, 101.116, 112.445

>  <frequency_value>  (5) 
unknown

>  <frequency_units>  (5) 
unknown

>  <frequency_list>  (5) 
unknown

>  <arkane_path>  (5) 
/home/calvin/Dropbox/PersonalFolders/Calvin/ATLAS_Converged/NonRMG/rxn_3227/output/Species/rxn_3227_r1_sbr-NH-sbrCCtN/arkane/output.py

>  <path_exists>  (5) 
True

>  <E0_value>  (5) 
-491973.9107065931

>  <E0_units>  (5) 
kJ/mol

>  <thermo_class>  (5) 
NASA

>  <Cp0_value>  (5) 
33.257888

>  <Cp0_units>  (5) 
J/(mol*K)

>  <CpInf_value>  (5) 
157.97496800000002

>  <CpInf_units>  (5) 
J/(mol*K)

>  <Tmin_value>  (5) 
10.0

>  <Tmin_units>  (5) 
K

>  <Tmax_value>  (5) 
3000.0

>  <Tmax_units>  (5) 
K

>  <polynomials>  (5) 
[{"name": "polynomial1", "class": "NASAPolynomial", "Tmin_value": 10.0, "Tmin_units": "K", "Tmax_value": 441.5888552627719, "Tmax_units": "K", "coeffs": [3.8074387231682363, 0.01890513209384672, -2.384570888732855e-05, 4.838233157000235e-08, -4.1393745668634286e-11, -59170793.396980785, 9.226799164772778]}, {"name": "polynomial2", "class": "NASAPolynomial", "Tmin_value": 441.5888552627719, "Tmin_units": "K", "Tmax_value": 3000.0, "Tmax_units": "K", "coeffs": [2.9869977814233555, 0.020949312305084667, -1.2488909357575524e-05, 3.6086756240984913e-09, -4.0428709073473696e-13, -59170668.40878062, 13.109112838271622]}]

>  <H298_value>  (5) 
-117580.92958719996

>  <H298_units>  (5) 
kcal/mol

>  <S298_value>  (5) 
71.21799638955733

>  <S298_units>  (5) 
cal/(mol*K)

>  <Cp_T_value_list>  (5) 
[16.50156041465201, 19.059232907035433, 21.392761081461902, 23.42450687983812, 26.69929489980552, 29.116130872672766, 32.67662417459433, 34.43987147616164, 35.37681819280643]

>  <Cp_T_units>  (5) 
cal/(mol*K)

>  <T_list>  (5) 
[300.0, 400.0, 500.0, 600.0, 800.0, 1000.0, 1500.0, 2000.0, 2400.0]

>  <T_units>  (5) 
K

>  <yaml_path>  (5) 
/home/calvin/Dropbox/PersonalFolders/Calvin/ATLAS_Converged/NonRMG/rxn_3227/output/Species/rxn_3227_r1_sbr-NH-sbrCCtN/rxn_3227_r1_sbr-NH-sbrCCtN.yml

>  <frequencies_cm1>  (5) 
[63.7942936228, 224.96930606852, 349.44028197883995, 587.4774611113199, 879.8668290515999, 884.95526517372, 1044.48906812796, 1212.8469472184, 1240.74064158824, 1356.4012753329998, 1409.47620487128, 2361.53565059204, 2988.3609375869596, 3014.2975411406, 3431.2265548443993]

>  <ZPE_kJmol>  (5) 
125.90626832277542

>  <E_elec_kJmol>  (5) 
-492099.8169749159

>  <E0_minus_Eelec_plus_ZPE_kJmol>  (5) 
0.0

>  <rxn>  (5) 
rxn_3227

>  <species_type>  (5) 
r0

>  <species_folder>  (5) 
rxn_3227_r1_sbr-NH-sbrCCtN

>  <frequencies_cm1_list>  (5) 
[63.7942936228, 224.96930606852, 349.44028197883995, 587.4774611113199, 879.8668290515999, 884.95526517372, 1044.48906812796, 1212.8469472184, 1240.74064158824, 1356.4012753329998, 1409.47620487128, 2361.53565059204, 2988.3609375869596, 3014.2975411406, 3431.2265548443993]

>  <E0_kJmol>  (5) 
-491974

>  <H298_kJmol>  (5) 
-491959

$$$$
