
     RDKit          3D

 15 14  0  0  0  0  0  0  0  0999 V2000
    0.7110   -1.3082   -1.3562 C   0  0  0  0  0  0  0  0  0  1  0  0
    0.9100   -0.3821   -0.4172 C   0  0  0  0  0  0  0  0  0  2  0  0
   -0.0934    0.5163    0.1703 C   0  0  0  0  0  0  0  0  0  3  0  0
    0.1630    0.8650    1.6233 C   0  0  0  0  0  0  0  0  0  4  0  0
   -1.5411    0.2055   -0.1356 C   0  0  0  0  0  0  0  0  0  5  0  0
    1.5348   -1.8929   -1.7447 H   0  0  0  0  0  0  0  0  0  6  0  0
   -0.2714   -1.5205   -1.7602 H   0  0  0  0  0  0  0  0  0  7  0  0
    1.9253   -0.2352   -0.0542 H   0  0  0  0  0  0  0  0  0  8  0  0
    0.0739    1.4635   -0.3424 H   0  0  0  0  0  0  0  0  0  9  0  0
    1.2024    1.1609    1.7815 H   0  0  0  0  0  0  0  0  0 10  0  0
   -0.0430    0.0114    2.2776 H   0  0  0  0  0  0  0  0  0 11  0  0
   -0.4759    1.6903    1.9446 H   0  0  0  0  0  0  0  0  0 12  0  0
   -1.8436   -0.7483    0.3090 H   0  0  0  0  0  0  0  0  0 13  0  0
   -1.7223    0.1443   -1.2099 H   0  0  0  0  0  0  0  0  0 14  0  0
   -2.1919    0.9839    0.2675 H   0  0  0  0  0  0  0  0  0 15  0  0
  1  7  1  0
  1  6  1  0
  1  2  1  0
  2  8  1  0
  2  3  1  0
  3  4  1  0
  3  5  1  0
  3  9  1  0
  4 12  1  0
  4 10  1  0
  4 11  1  0
  5 13  1  0
  5 14  1  0
  5 15  1  0
M  END
>  <rmg_smiles>  (1) 
[CH2][CH]C(C)C

>  <rmg_adjacency_list>  (1) 
1  C u0 p0 c0 {2,S} {3,S} {4,S} {6,S}
2  C u0 p0 c0 {1,S} {7,S} {8,S} {9,S}
3  C u0 p0 c0 {1,S} {10,S} {11,S} {12,S}
4  C u0 p0 c0 {1,S} {5,S} {13,S}
5  C u0 p0 c0 {4,S} {14,S} {15,S}
6  H u0 p0 c0 {1,S}
7  H u0 p0 c0 {2,S}
8  H u0 p0 c0 {2,S}
9  H u0 p0 c0 {2,S}
10 H u0 p0 c0 {3,S}
11 H u0 p0 c0 {3,S}
12 H u0 p0 c0 {3,S}
13 H u0 p0 c0 {4,S}
14 H u0 p0 c0 {5,S}
15 H u0 p0 c0 {5,S}


>  <multiplicity>  (1) 
1

>  <reaction>  (1) 
rxn_1085

>  <type>  (1) 
r1h

>  <role_mapnums>  (1) 
{"r1h_a": 3, "r1h_h": 9}

>  <role_mapidx>  (1) 
{"r1h_a": 2, "r1h_h": 8}

>  <ordered_mapped_smiles>  (1) 
[CH:1]([CH:2]([C:3]([C:4]([H:10])([H:11])[H:12])([C:5]([H:13])([H:14])[H:15])[H:9])[H:8])([H:6])[H:7]

>  <mol_properties>  (1) 
{"2": {"label": "donator", "atom_type": "Cs"}, "8": {"label": "d_hydrogen", "atom_type": "H0"}}

>  <level_of_theory>  (1) 
wb97xd/def2tzvp

>  <lot_method>  (1) 
wb97xd

>  <lot_basis>  (1) 
def2tzvp

>  <spin_multiplicity>  (1) 
1.0

>  <optical_isomers>  (1) 
1.0

>  <modes>  (1) 
IdealGasTranslation(mass=(70.0782, 'amu')),         NonlinearRotor(             inertia = ([66.6608, 141.472, 183.078

>  <frequency_value>  (1) 
unknown

>  <frequency_units>  (1) 
unknown

>  <frequency_list>  (1) 
unknown

>  <arkane_path>  (1) 
/home/calvin/Dropbox/PersonalFolders/Calvin/HAb_Converged/rxn_1085/output/Species/rxn_1085_C=CC[C]C/arkane/output.py

>  <path_exists>  (1) 
True

>  <E0_value>  (1) 
-515673.38052477705

>  <E0_units>  (1) 
kJ/mol

>  <thermo_class>  (1) 
NASA

>  <Cp0_value>  (1) 
33.257888

>  <Cp0_units>  (1) 
J/(mol*K)

>  <CpInf_value>  (1) 
357.522296

>  <CpInf_units>  (1) 
J/(mol*K)

>  <Tmin_value>  (1) 
10.0

>  <Tmin_units>  (1) 
K

>  <Tmax_value>  (1) 
3000.0

>  <Tmax_units>  (1) 
K

>  <polynomials>  (1) 
[{"name": "polynomial1", "class": "NASAPolynomial", "Tmin_value": 10.0, "Tmin_units": "K", "Tmax_value": 771.9142943776243, "Tmax_units": "K", "coeffs": [3.779458831960257, 0.020018734993344757, 5.732000924414448e-05, -8.642208919280512e-08, 3.603052216308801e-11, -62021180.35978402, 9.742915927956899]}, {"name": "polynomial2", "class": "NASAPolynomial", "Tmin_value": 771.9142943776243, "Tmin_units": "K", "Tmax_value": 3000.0, "Tmax_units": "K", "coeffs": [-0.3478948834965036, 0.05301654054790977, -2.9363158728726394e-05, 7.927167712612882e-09, -8.370007264752279e-13, -62020889.064341925, 26.345999473910833]}]

>  <H298_value>  (1) 
-123244.18843001623

>  <H298_units>  (1) 
kcal/mol

>  <S298_value>  (1) 
77.68833091262955

>  <S298_units>  (1) 
cal/(mol*K)

>  <Cp_T_value_list>  (1) 
[25.639596007404617, 32.489876341134234, 38.88560738045824, 44.569638849609326, 53.63229961607037, 60.40244107425912, 70.79757735881338, 76.02631058064169, 78.64468950836424]

>  <Cp_T_units>  (1) 
cal/(mol*K)

>  <T_list>  (1) 
[300.0, 400.0, 500.0, 600.0, 800.0, 1000.0, 1500.0, 2000.0, 2400.0]

>  <T_units>  (1) 
K

>  <yaml_path>  (1) 
/home/calvin/Dropbox/PersonalFolders/Calvin/HAb_Converged/rxn_1085/output/Species/rxn_1085_C=CC[C]C/rxn_1085_C=CCCC.yml

>  <frequencies_cm1>  (1) 
[94.05023094271999, 222.95727936976, 245.1857108506, 315.11222236416, 324.16290901592, 348.98019396239994, 507.51141705991995, 698.37927402932, 806.58236171656, 930.133161594, 937.87912103496, 953.39850785816, 966.50071584872, 1002.9300729713199, 1033.8109059553599, 1124.0362260748398, 1181.8493754839199, 1216.6581240709997, 1311.4499894282799, 1330.73248420684, 1336.23980643348, 1388.2022843499199, 1406.6264059634798, 1448.4326125916398, 1473.6344487160397, 1475.715145268, 1487.5263600183998, 1497.1744743929999, 1715.9428927175597, 3004.91037220816, 3007.1696103784398, 3014.14646746356, 3074.26005695484, 3079.52703469528, 3091.4275202548397, 3093.20606945272, 3095.44470666704, 3114.5280588713204, 3199.45893330908]

>  <ZPE_kJmol>  (1) 
356.22333310819664

>  <E_elec_kJmol>  (1) 
-516029.6038578852

>  <E0_minus_Eelec_plus_ZPE_kJmol>  (1) 
0.0

>  <rxn>  (1) 
rxn_1085

>  <species_type>  (1) 
r0

>  <species_folder>  (1) 
rxn_1085_C=CC[C]C

>  <frequencies_cm1_list>  (1) 
[94.05023094271999, 222.95727936976, 245.1857108506, 315.11222236416, 324.16290901592, 348.98019396239994, 507.51141705991995, 698.37927402932, 806.58236171656, 930.133161594, 937.87912103496, 953.39850785816, 966.50071584872, 1002.9300729713199, 1033.8109059553599, 1124.0362260748398, 1181.8493754839199, 1216.6581240709997, 1311.4499894282799, 1330.73248420684, 1336.23980643348, 1388.2022843499199, 1406.6264059634798, 1448.4326125916398, 1473.6344487160397, 1475.715145268, 1487.5263600183998, 1497.1744743929999, 1715.9428927175597, 3004.91037220816, 3007.1696103784398, 3014.14646746356, 3074.26005695484, 3079.52703469528, 3091.4275202548397, 3093.20606945272, 3095.44470666704, 3114.5280588713204, 3199.45893330908]

>  <E0_kJmol>  (1) 
-515673

>  <H298_kJmol>  (1) 
-515654

$$$$

     RDKit          3D

 14 13  0  0  0  0  0  0  0  0999 V2000
   -0.1932   -1.1576    0.6574 H   0  0  0  0  0  0  0  0  0  1  0  0
   -0.5709   -0.5247   -1.2448 C   0  0  0  0  0  0  0  0  0  2  0  0
   -0.0441   -0.2151    0.1305 C   0  0  0  0  0  0  0  0  0  3  0  0
    1.4502   -0.0561    0.2084 C   0  0  0  0  0  0  0  0  0  4  0  0
   -0.8381    0.8000    0.9074 C   0  0  0  0  0  0  0  0  0  5  0  0
   -0.0805   -1.4067   -1.6632 H   0  0  0  0  0  0  0  0  0  6  0  0
   -1.6472   -0.7085   -1.2275 H   0  0  0  0  0  0  0  0  0  7  0  0
   -0.3909    0.3120   -1.9326 H   0  0  0  0  0  0  0  0  0  8  0  0
    1.7807    0.8404   -0.3317 H   0  0  0  0  0  0  0  0  0  9  0  0
    1.9597   -0.9135   -0.2377 H   0  0  0  0  0  0  0  0  0 10  0  0
    1.7874    0.0418    1.2429 H   0  0  0  0  0  0  0  0  0 11  0  0
   -1.8967    0.5330    0.9453 H   0  0  0  0  0  0  0  0  0 12  0  0
   -0.4721    0.8940    1.9320 H   0  0  0  0  0  0  0  0  0 13  0  0
   -0.7689    1.7927    0.4429 H   0  0  0  0  0  0  0  0  0 14  0  0
  1  3  1  0
  2  8  1  0
  2  7  1  0
  2  6  1  0
  2  3  1  0
  3  4  1  0
  3  5  1  0
  4  9  1  0
  4 10  1  0
  4 11  1  0
  5 12  1  0
  5 14  1  0
  5 13  1  0
M  END
>  <rmg_smiles>  (2) 
CC(C)C

>  <rmg_adjacency_list>  (2) 
1  C u0 p0 c0 {2,S} {3,S} {4,S} {5,S}
2  C u0 p0 c0 {1,S} {6,S} {7,S} {8,S}
3  C u0 p0 c0 {1,S} {9,S} {10,S} {11,S}
4  C u0 p0 c0 {1,S} {12,S} {13,S} {14,S}
5  H u0 p0 c0 {1,S}
6  H u0 p0 c0 {2,S}
7  H u0 p0 c0 {2,S}
8  H u0 p0 c0 {2,S}
9  H u0 p0 c0 {3,S}
10 H u0 p0 c0 {3,S}
11 H u0 p0 c0 {3,S}
12 H u0 p0 c0 {4,S}
13 H u0 p0 c0 {4,S}
14 H u0 p0 c0 {4,S}


>  <multiplicity>  (2) 
1

>  <reaction>  (2) 
rxn_1085

>  <type>  (2) 
r2h

>  <role_mapnums>  (2) 
{"r2h_a": 3, "r2h_h": 1}

>  <role_mapidx>  (2) 
{"r2h_a": 2, "r2h_h": 0}

>  <ordered_mapped_smiles>  (2) 
[H:1][C:3]([C:2]([H:6])([H:7])[H:8])([C:4]([H:9])([H:10])[H:11])[C:5]([H:12])([H:13])[H:14]

>  <mol_properties>  (2) 
{"0": {"label": "a_hydrogen", "atom_type": "H0"}, "2": {"label": "acceptor", "atom_type": "Cs"}}

>  <level_of_theory>  (2) 
wb97xd/def2tzvp

>  <lot_method>  (2) 
wb97xd

>  <lot_basis>  (2) 
def2tzvp

>  <spin_multiplicity>  (2) 
1.0

>  <optical_isomers>  (2) 
1.0

>  <modes>  (2) 
IdealGasTranslation(mass=(58.0782, 'amu')),         NonlinearRotor(             inertia = ([64.4723, 64.4724, 111.216

>  <frequency_value>  (2) 
unknown

>  <frequency_units>  (2) 
unknown

>  <frequency_list>  (2) 
unknown

>  <arkane_path>  (2) 
/home/calvin/Dropbox/PersonalFolders/Calvin/HAb_Converged/rxn_1085/output/Species/rxn_1085_CC[C]C/arkane/output.py

>  <path_exists>  (2) 
True

>  <E0_value>  (2) 
-415716.8736112502

>  <E0_units>  (2) 
kJ/mol

>  <thermo_class>  (2) 
NASA

>  <Cp0_value>  (2) 
33.257888

>  <Cp0_units>  (2) 
J/(mol*K)

>  <CpInf_value>  (2) 
332.57888

>  <CpInf_units>  (2) 
J/(mol*K)

>  <Tmin_value>  (2) 
10.0

>  <Tmin_units>  (2) 
K

>  <Tmax_value>  (2) 
3000.0

>  <Tmax_units>  (2) 
K

>  <polynomials>  (2) 
[{"name": "polynomial1", "class": "NASAPolynomial", "Tmin_value": 10.0, "Tmin_units": "K", "Tmax_value": 541.2628773952014, "Tmax_units": "K", "coeffs": [3.859991527314166, 0.009813674646717648, 8.371853467871641e-05, -1.290150838266019e-07, 6.210042090745772e-11, -49999186.584870405, 7.560418264894917]}, {"name": "polynomial2", "class": "NASAPolynomial", "Tmin_value": 541.2628773952014, "Tmin_units": "K", "Tmax_value": 3000.0, "Tmax_units": "K", "coeffs": [-1.5313391809969032, 0.049656529788436064, -2.6698530583161866e-05, 6.985079338837062e-09, -7.161068290865754e-13, -49998602.96310531, 30.26096907755783]}]

>  <H298_value>  (2) 
-99354.5367780558

>  <H298_units>  (2) 
kcal/mol

>  <S298_value>  (2) 
69.90448388381938

>  <S298_units>  (2) 
cal/(mol*K)

>  <Cp_T_value_list>  (2) 
[22.571423104332162, 28.840789665718685, 34.67844922185219, 39.87742661332822, 48.46770492433714, 55.03694101970913, 65.24220245082141, 70.36802251842488, 72.85859536356799]

>  <Cp_T_units>  (2) 
cal/(mol*K)

>  <T_list>  (2) 
[300.0, 400.0, 500.0, 600.0, 800.0, 1000.0, 1500.0, 2000.0, 2400.0]

>  <T_units>  (2) 
K

>  <yaml_path>  (2) 
/home/calvin/Dropbox/PersonalFolders/Calvin/HAb_Converged/rxn_1085/output/Species/rxn_1085_CC[C]C/rxn_1085_CCCC.yml

>  <frequencies_cm1>  (2) 
[209.10656997931997, 260.83557039487994, 261.79008135436, 369.26526859768, 369.3751403627999, 434.46042722575993, 803.89737045644, 924.1588843655999, 924.9417206920799, 953.24743418112, 976.0458254435199, 976.23810103248, 1191.0442688274, 1191.1198056659198, 1204.02973806752, 1353.20126017388, 1353.4141367188001, 1393.1396467949999, 1393.1739817216, 1417.2084303416002, 1467.4816298693202, 1473.9983989379998, 1474.0739357765199, 1492.4499884928398, 1492.58046121392, 1500.79337565664, 2998.39360313948, 3000.1309504254396, 3000.185886308, 3005.65200662272, 3068.6909318603202, 3068.7870696547993, 3077.4738060846, 3080.1107284474797, 3083.73649669644, 3083.81890052028]

>  <ZPE_kJmol>  (2) 
342.8979962649219

>  <E_elec_kJmol>  (2) 
-416059.7716075151

>  <E0_minus_Eelec_plus_ZPE_kJmol>  (2) 
0.0

>  <rxn>  (2) 
rxn_1085

>  <species_type>  (2) 
p0

>  <species_folder>  (2) 
rxn_1085_CC[C]C

>  <frequencies_cm1_list>  (2) 
[209.10656997931997, 260.83557039487994, 261.79008135436, 369.26526859768, 369.3751403627999, 434.46042722575993, 803.89737045644, 924.1588843655999, 924.9417206920799, 953.24743418112, 976.0458254435199, 976.23810103248, 1191.0442688274, 1191.1198056659198, 1204.02973806752, 1353.20126017388, 1353.4141367188001, 1393.1396467949999, 1393.1739817216, 1417.2084303416002, 1467.4816298693202, 1473.9983989379998, 1474.0739357765199, 1492.4499884928398, 1492.58046121392, 1500.79337565664, 2998.39360313948, 3000.1309504254396, 3000.185886308, 3005.65200662272, 3068.6909318603202, 3068.7870696547993, 3077.4738060846, 3080.1107284474797, 3083.73649669644, 3083.81890052028]

>  <E0_kJmol>  (2) 
-415717

>  <H298_kJmol>  (2) 
-415699

$$$$

     RDKit          3D

 28 26  0  0  0  0  0  0  0  0999 V2000
    0.6186   -2.6885   -0.7703 C   0  0  0  0  0  0  0  0  0  1  0  0
    0.8175   -1.7624    0.1687 C   0  0  0  0  0  0  0  0  0  2  0  0
   -0.1859   -0.8641    0.7563 C   0  0  0  0  0  0  0  0  0  3  0  0
    0.0705   -0.5154    2.2092 C   0  0  0  0  0  0  0  0  0  4  0  0
   -1.6335   -1.1748    0.4503 C   0  0  0  0  0  0  0  0  0  5  0  0
    1.4423   -3.2732   -1.1588 H   0  0  0  0  0  0  0  0  0  6  0  0
   -0.3638   -2.9008   -1.1743 H   0  0  0  0  0  0  0  0  0  7  0  0
    1.8328   -1.6155    0.5318 H   0  0  0  0  0  0  0  0  0  8  0  0
    0.0124    0.2590    0.1484 H   0  0  0  0  0  0  0  0  0  9  0  0
    1.1099   -0.2195    2.3674 H   0  0  0  0  0  0  0  0  0 10  0  0
   -0.1355   -1.3689    2.8635 H   0  0  0  0  0  0  0  0  0 11  0  0
   -0.5684    0.3100    2.5305 H   0  0  0  0  0  0  0  0  0 12  0  0
   -1.9361   -2.1287    0.8949 H   0  0  0  0  0  0  0  0  0 13  0  0
   -1.8148   -1.2360   -0.6240 H   0  0  0  0  0  0  0  0  0 14  0  0
   -2.2843   -0.3964    0.8535 H   0  0  0  0  0  0  0  0  0 15  0  0
   -0.3216    1.1686   -1.9086 C   0  0  0  0  0  0  0  0  0 16  0  0
    0.2052    1.4782   -0.5332 C   0  0  0  0  0  3  0  0  0 17  0  0
    1.6996    1.6372   -0.4553 C   0  0  0  0  0  0  0  0  0 18  0  0
   -0.5887    2.4933    0.2437 C   0  0  0  0  0  0  0  0  0 19  0  0
    0.1688    0.2866   -2.3269 H   0  0  0  0  0  0  0  0  0 20  0  0
   -1.3978    0.9849   -1.8912 H   0  0  0  0  0  0  0  0  0 21  0  0
   -0.1415    2.0053   -2.5964 H   0  0  0  0  0  0  0  0  0 22  0  0
    2.0301    2.5338   -0.9954 H   0  0  0  0  0  0  0  0  0 23  0  0
    2.2090    0.7798   -0.9014 H   0  0  0  0  0  0  0  0  0 24  0  0
    2.0367    1.7351    0.5792 H   0  0  0  0  0  0  0  0  0 25  0  0
   -1.6473    2.2263    0.2816 H   0  0  0  0  0  0  0  0  0 26  0  0
   -0.2227    2.5873    1.2682 H   0  0  0  0  0  0  0  0  0 27  0  0
   -0.5195    3.4860   -0.2208 H   0  0  0  0  0  0  0  0  0 28  0  0
  1  7  1  0
  1  6  1  0
  1  2  1  0
  2  8  1  0
  2  3  1  0
  3  4  1  0
  3  5  1  0
  3  9  1  0
  4 10  1  0
  4 11  1  0
  4 12  1  0
  5 14  1  0
  5 13  1  0
  5 15  1  0
 16 21  1  0
 16 20  1  0
 16 22  1  0
 16 17  1  0
 17 18  1  0
 17 19  1  0
 18 23  1  0
 18 24  1  0
 18 25  1  0
 19 27  1  0
 19 28  1  0
 19 26  1  0
M  RAD  1  17   2
M  END
>  <rmg_smiles>  (3) 
C[C](C)C.[CH2][CH]C(C)C

>  <rmg_adjacency_list>  (3) 
multiplicity 2
1  C u0 p0 c0 {2,S} {3,S} {8,S} {10,S}
2  C u0 p0 c0 {1,S} {11,S} {12,S} {13,S}
3  C u0 p0 c0 {1,S} {14,S} {15,S} {16,S}
4  C u0 p0 c0 {7,S} {17,S} {18,S} {19,S}
5  C u0 p0 c0 {7,S} {20,S} {21,S} {22,S}
6  C u0 p0 c0 {7,S} {23,S} {24,S} {25,S}
7  C u1 p0 c0 {4,S} {5,S} {6,S}
8  C u0 p0 c0 {1,S} {9,S} {26,S}
9  C u0 p0 c0 {8,S} {27,S} {28,S}
10 H u0 p0 c0 {1,S}
11 H u0 p0 c0 {2,S}
12 H u0 p0 c0 {2,S}
13 H u0 p0 c0 {2,S}
14 H u0 p0 c0 {3,S}
15 H u0 p0 c0 {3,S}
16 H u0 p0 c0 {3,S}
17 H u0 p0 c0 {4,S}
18 H u0 p0 c0 {4,S}
19 H u0 p0 c0 {4,S}
20 H u0 p0 c0 {5,S}
21 H u0 p0 c0 {5,S}
22 H u0 p0 c0 {5,S}
23 H u0 p0 c0 {6,S}
24 H u0 p0 c0 {6,S}
25 H u0 p0 c0 {6,S}
26 H u0 p0 c0 {8,S}
27 H u0 p0 c0 {9,S}
28 H u0 p0 c0 {9,S}


>  <multiplicity>  (3) 
2

>  <reaction>  (3) 
rxn_1085

>  <type>  (3) 
ts

>  <role_mapnums>  (3) 
{"*2": 9, "*1": 3, "*3": 17, "*0": 2, "*4": 16}

>  <role_mapidx>  (3) 
{"*2": 8, "*1": 2, "*3": 16, "*0": 1, "*4": 15}

>  <ordered_mapped_smiles>  (3) 
[CH:1]([CH:2]([C:3]([C:4]([H:10])([H:11])[H:12])([C:5]([H:13])([H:14])[H:15])[H:9])[H:8])([H:6])[H:7].[C:16]([C:17]([C:18]([H:23])([H:24])[H:25])[C:19]([H:26])([H:27])[H:28])([H:20])([H:21])[H:22]

>  <mol_properties>  (3) 
{"1": {"label": "*0", "atom_type": "Cs"}, "2": {"label": "*1", "atom_type": "Cs"}, "8": {"label": "*2", "atom_type": "H0"}, "15": {"label": "*4", "atom_type": "Cs"}, "16": {"label": "*3", "atom_type": "Cs"}}

>  <level_of_theory>  (3) 
wb97xd/def2tzvp

>  <lot_method>  (3) 
wb97xd

>  <lot_basis>  (3) 
def2tzvp

>  <spin_multiplicity>  (3) 
2.0

>  <optical_isomers>  (3) 
2.0

>  <modes>  (3) 
IdealGasTranslation(mass=(127.149, 'amu')),         NonlinearRotor(             inertia = ([281.602, 498.347, 550.744

>  <frequency_value>  (3) 
-1628.58

>  <frequency_units>  (3) 
cm^-1

>  <frequency_list>  (3) 
unknown

>  <arkane_path>  (3) 
/home/calvin/Dropbox/PersonalFolders/Calvin/HAb_Converged/rxn_1085/output/rxns/TS0/arkane/output.py

>  <path_exists>  (3) 
True

>  <E0_value>  (3) 
-929653.0

>  <E0_units>  (3) 
kJ/mol

>  <thermo_class>  (3) 
unknown

>  <Cp0_value>  (3) 
unknown

>  <Cp0_units>  (3) 
unknown

>  <CpInf_value>  (3) 
unknown

>  <CpInf_units>  (3) 
unknown

>  <Tmin_value>  (3) 
unknown

>  <Tmin_units>  (3) 
unknown

>  <Tmax_value>  (3) 
unknown

>  <Tmax_units>  (3) 
unknown

>  <polynomials>  (3) 
unknown

>  <H298_value>  (3) 
unknown

>  <H298_units>  (3) 
unknown

>  <S298_value>  (3) 
unknown

>  <S298_units>  (3) 
unknown

>  <Cp_T_value_list>  (3) 
unknown

>  <Cp_T_units>  (3) 
unknown

>  <T_list>  (3) 
unknown

>  <T_units>  (3) 
unknown

>  <yaml_path>  (3) 
unknown

>  <frequencies_cm1>  (3) 
unknown

>  <ZPE_kJmol>  (3) 
unknown

>  <E_elec_kJmol>  (3) 
unknown

>  <E0_minus_Eelec_plus_ZPE_kJmol>  (3) 
unknown

>  <rxn>  (3) 
unknown

>  <species_type>  (3) 
unknown

>  <species_folder>  (3) 
unknown

>  <frequencies_cm1_list>  (3) 
[]

>  <ts_imag_freq_cm1>  (3) 
-1648.3653

>  <ts_freq_out_path>  (3) 
/home/calvin/Dropbox/PersonalFolders/Calvin/HAb_Converged/rxn_1085/output/rxns/TS0/geometry/freq.out

>  <E0_kJmol>  (3) 
-929653

>  <H298_kJmol>  (3) 
unknown

$$$$

     RDKit          3D

 14 13  0  0  0  0  0  0  0  0999 V2000
    1.0767   -1.6838    1.2931 C   0  0  0  0  0  0  0  0  0  1  0  0
    1.0020   -0.3665    0.9163 C   0  0  0  0  0  0  0  0  0  2  0  0
    1.3965    0.7260    1.6806 C   0  0  0  0  0  3  0  0  0  3  0  0
    1.2666    2.1197    1.1619 C   0  0  0  0  0  0  0  0  0  4  0  0
    1.9670    0.5479    3.0536 C   0  0  0  0  0  0  0  0  0  5  0  0
    0.7448   -2.4705    0.6300 H   0  0  0  0  0  0  0  0  0  6  0  0
    1.4663   -1.9826    2.2578 H   0  0  0  0  0  0  0  0  0  7  0  0
    0.5980   -0.1511   -0.0695 H   0  0  0  0  0  0  0  0  0  8  0  0
    0.6296    2.7241    1.8172 H   0  0  0  0  0  0  0  0  0  9  0  0
    2.2410    2.6200    1.1341 H   0  0  0  0  0  0  0  0  0 10  0  0
    0.8426    2.1448    0.1579 H   0  0  0  0  0  0  0  0  0 11  0  0
    2.8745   -0.0634    3.0328 H   0  0  0  0  0  0  0  0  0 12  0  0
    1.2599    0.0408    3.7173 H   0  0  0  0  0  0  0  0  0 13  0  0
    2.2205    1.5071    3.5054 H   0  0  0  0  0  0  0  0  0 14  0  0
  1  7  1  0
  1  6  1  0
  1  2  1  0
  2  8  1  0
  2  3  1  0
  3  4  1  0
  3  5  1  0
  4  9  1  0
  4 10  1  0
  4 11  1  0
  5 12  1  0
  5 14  1  0
  5 13  1  0
M  RAD  1   3   2
M  END
>  <rmg_smiles>  (4) 
[CH2][CH][C](C)C

>  <rmg_adjacency_list>  (4) 
multiplicity 2
1  C u0 p0 c0 {3,S} {6,S} {7,S} {8,S}
2  C u0 p0 c0 {3,S} {9,S} {10,S} {11,S}
3  C u1 p0 c0 {1,S} {2,S} {4,S}
4  C u0 p0 c0 {3,S} {5,S} {12,S}
5  C u0 p0 c0 {4,S} {13,S} {14,S}
6  H u0 p0 c0 {1,S}
7  H u0 p0 c0 {1,S}
8  H u0 p0 c0 {1,S}
9  H u0 p0 c0 {2,S}
10 H u0 p0 c0 {2,S}
11 H u0 p0 c0 {2,S}
12 H u0 p0 c0 {4,S}
13 H u0 p0 c0 {5,S}
14 H u0 p0 c0 {5,S}


>  <multiplicity>  (4) 
2

>  <reaction>  (4) 
rxn_1085

>  <type>  (4) 
r1

>  <role_mapnums>  (4) 
{}

>  <role_mapidx>  (4) 
{}

>  <ordered_mapped_smiles>  (4) 
[CH:1]([CH:2]([C:3]([C:4]([H:9])([H:10])[H:11])[C:5]([H:12])([H:13])[H:14])[H:8])([H:6])[H:7]

>  <level_of_theory>  (4) 
wb97xd/def2tzvp

>  <lot_method>  (4) 
wb97xd

>  <lot_basis>  (4) 
def2tzvp

>  <spin_multiplicity>  (4) 
2.0

>  <optical_isomers>  (4) 
1.0

>  <modes>  (4) 
IdealGasTranslation(mass=(69.0704, 'amu')),         NonlinearRotor(             inertia = ([61.3549, 130.413, 185.559

>  <frequency_value>  (4) 
unknown

>  <frequency_units>  (4) 
unknown

>  <frequency_list>  (4) 
unknown

>  <arkane_path>  (4) 
/home/calvin/Dropbox/PersonalFolders/Calvin/HAb_Converged/rxn_1085/output/Species/rxn_1085_C=C[C][C]C/arkane/output.py

>  <path_exists>  (4) 
True

>  <E0_value>  (4) 
-514025.9755079239

>  <E0_units>  (4) 
kJ/mol

>  <thermo_class>  (4) 
NASA

>  <Cp0_value>  (4) 
33.257888

>  <Cp0_units>  (4) 
J/(mol*K)

>  <CpInf_value>  (4) 
332.57888

>  <CpInf_units>  (4) 
J/(mol*K)

>  <Tmin_value>  (4) 
10.0

>  <Tmin_units>  (4) 
K

>  <Tmax_value>  (4) 
3000.0

>  <Tmax_units>  (4) 
K

>  <polynomials>  (4) 
[{"name": "polynomial1", "class": "NASAPolynomial", "Tmin_value": 10.0, "Tmin_units": "K", "Tmax_value": 869.6920679830255, "Tmax_units": "K", "coeffs": [3.7251534266099315, 0.026124983740037182, 2.9283649756322525e-05, -5.054120287970429e-08, 2.023244225001157e-11, -61823043.86817725, 10.74219344334208]}, {"name": "polynomial2", "class": "NASAPolynomial", "Tmin_value": 869.6920679830255, "Tmin_units": "K", "Tmax_value": 3000.0, "Tmax_units": "K", "coeffs": [2.049387595722733, 0.04566272803591952, -2.48184133745368e-05, 6.572064258076298e-09, -6.813784120606917e-13, -61823199.79068455, 16.020641566778316]}]

>  <H298_value>  (4) 
-122850.30931833542

>  <H298_units>  (4) 
kcal/mol

>  <S298_value>  (4) 
80.76860453620434

>  <S298_units>  (4) 
cal/(mol*K)

>  <Cp_T_value_list>  (4) 
[25.828611832321002, 32.0811525837059, 37.867084343079156, 43.01801750917861, 51.22380214574075, 57.20052316456338, 66.43884769284972, 71.0936035426273, 73.39069523043335]

>  <Cp_T_units>  (4) 
cal/(mol*K)

>  <T_list>  (4) 
[300.0, 400.0, 500.0, 600.0, 800.0, 1000.0, 1500.0, 2000.0, 2400.0]

>  <T_units>  (4) 
K

>  <yaml_path>  (4) 
/home/calvin/Dropbox/PersonalFolders/Calvin/HAb_Converged/rxn_1085/output/Species/rxn_1085_C=C[C][C]C/rxn_1085_C=CCCC.yml

>  <frequencies_cm1>  (4) 
[55.11442417832, 159.33466037996, 226.55557967744, 278.64853031495994, 356.053188842, 383.12971195875997, 537.2797984221199, 582.97958572672, 765.24311009016, 793.8921728451999, 933.2782408705599, 980.1316817089199, 985.8381465098398, 986.5797809243999, 1056.26594795176, 1065.45397430992, 1225.2624566769598, 1249.45484595932, 1354.32057878104, 1397.4040446787199, 1400.8306703534, 1443.5021171318801, 1461.08159955108, 1469.6378632598, 1480.13061682876, 1493.1229530541998, 1520.0758704352, 2982.7506105805196, 2995.00817937672, 3028.9585547987995, 3046.0710822162396, 3091.5030570933595, 3094.47646173692, 3117.3709907937996, 3132.2036790849997, 3223.1775006043595]

>  <ZPE_kJmol>  (4) 
319.1166494835046

>  <E_elec_kJmol>  (4) 
-514345.0921574074

>  <E0_minus_Eelec_plus_ZPE_kJmol>  (4) 
0.0

>  <rxn>  (4) 
rxn_1085

>  <species_type>  (4) 
p1

>  <species_folder>  (4) 
rxn_1085_C=C[C][C]C

>  <frequencies_cm1_list>  (4) 
[55.11442417832, 159.33466037996, 226.55557967744, 278.64853031495994, 356.053188842, 383.12971195875997, 537.2797984221199, 582.97958572672, 765.24311009016, 793.8921728451999, 933.2782408705599, 980.1316817089199, 985.8381465098398, 986.5797809243999, 1056.26594795176, 1065.45397430992, 1225.2624566769598, 1249.45484595932, 1354.32057878104, 1397.4040446787199, 1400.8306703534, 1443.5021171318801, 1461.08159955108, 1469.6378632598, 1480.13061682876, 1493.1229530541998, 1520.0758704352, 2982.7506105805196, 2995.00817937672, 3028.9585547987995, 3046.0710822162396, 3091.5030570933595, 3094.47646173692, 3117.3709907937996, 3132.2036790849997, 3223.1775006043595]

>  <E0_kJmol>  (4) 
-514026

>  <H298_kJmol>  (4) 
-514006

$$$$

     RDKit          3D

 13 12  0  0  0  0  0  0  0  0999 V2000
   -1.3650   -0.5967   -0.3476 C   0  0  0  0  0  0  0  0  0  1  0  0
   -0.1601   -0.2776    0.4668 C   0  0  0  0  0  3  0  0  0  2  0  0
    1.1241   -0.9572    0.1414 C   0  0  0  0  0  0  0  0  0  3  0  0
   -0.1186    1.0131    1.2080 C   0  0  0  0  0  0  0  0  0  4  0  0
   -1.4259   -1.6630   -0.5780 H   0  0  0  0  0  0  0  0  0  5  0  0
   -2.2860   -0.3016    0.1610 H   0  0  0  0  0  0  0  0  0  6  0  0
   -1.3542   -0.0656   -1.3131 H   0  0  0  0  0  0  0  0  0  7  0  0
    1.6174   -0.4967   -0.7298 H   0  0  0  0  0  0  0  0  0  8  0  0
    0.9721   -2.0106   -0.1062 H   0  0  0  0  0  0  0  0  0  9  0  0
    1.8338   -0.8977    0.9701 H   0  0  0  0  0  0  0  0  0 10  0  0
   -1.0851    1.2512    1.6587 H   0  0  0  0  0  0  0  0  0 11  0  0
    0.6357    1.0008    1.9984 H   0  0  0  0  0  0  0  0  0 12  0  0
    0.1351    1.8545    0.5432 H   0  0  0  0  0  0  0  0  0 13  0  0
  1  5  1  0
  1  7  1  0
  1  6  1  0
  1  2  1  0
  2  3  1  0
  2  4  1  0
  3  9  1  0
  3 10  1  0
  3  8  1  0
  4 13  1  0
  4 12  1  0
  4 11  1  0
M  RAD  1   2   2
M  END
>  <rmg_smiles>  (5) 
C[C](C)C

>  <rmg_adjacency_list>  (5) 
multiplicity 2
1  C u0 p0 c0 {4,S} {5,S} {6,S} {7,S}
2  C u0 p0 c0 {4,S} {8,S} {9,S} {10,S}
3  C u0 p0 c0 {4,S} {11,S} {12,S} {13,S}
4  C u1 p0 c0 {1,S} {2,S} {3,S}
5  H u0 p0 c0 {1,S}
6  H u0 p0 c0 {1,S}
7  H u0 p0 c0 {1,S}
8  H u0 p0 c0 {2,S}
9  H u0 p0 c0 {2,S}
10 H u0 p0 c0 {2,S}
11 H u0 p0 c0 {3,S}
12 H u0 p0 c0 {3,S}
13 H u0 p0 c0 {3,S}


>  <multiplicity>  (5) 
2

>  <reaction>  (5) 
rxn_1085

>  <type>  (5) 
r2

>  <role_mapnums>  (5) 
{}

>  <role_mapidx>  (5) 
{}

>  <ordered_mapped_smiles>  (5) 
[C:1]([C:2]([C:3]([H:8])([H:9])[H:10])[C:4]([H:11])([H:12])[H:13])([H:5])([H:6])[H:7]

>  <level_of_theory>  (5) 
wb97xd/def2tzvp

>  <lot_method>  (5) 
wb97xd

>  <lot_basis>  (5) 
def2tzvp

>  <spin_multiplicity>  (5) 
2.0

>  <optical_isomers>  (5) 
1.0

>  <modes>  (5) 
IdealGasTranslation(mass=(57.0704, 'amu')),         NonlinearRotor(             inertia = ([62.7472, 62.7528, 115.629

>  <frequency_value>  (5) 
unknown

>  <frequency_units>  (5) 
unknown

>  <frequency_list>  (5) 
unknown

>  <arkane_path>  (5) 
/home/calvin/Dropbox/PersonalFolders/Calvin/HAb_Converged/rxn_1085/output/Species/rxn_1085_C[C][C]C/arkane/output.py

>  <path_exists>  (5) 
True

>  <E0_value>  (5) 
-414011.847006733

>  <E0_units>  (5) 
kJ/mol

>  <thermo_class>  (5) 
NASA

>  <Cp0_value>  (5) 
33.257888

>  <Cp0_units>  (5) 
J/(mol*K)

>  <CpInf_value>  (5) 
307.635464

>  <CpInf_units>  (5) 
J/(mol*K)

>  <Tmin_value>  (5) 
10.0

>  <Tmin_units>  (5) 
K

>  <Tmax_value>  (5) 
3000.0

>  <Tmax_units>  (5) 
K

>  <polynomials>  (5) 
[{"name": "polynomial1", "class": "NASAPolynomial", "Tmin_value": 10.0, "Tmin_units": "K", "Tmax_value": 461.32748567660883, "Tmax_units": "K", "coeffs": [3.6298728439972536, 0.03756346241998915, -8.77195354628837e-05, 2.259238374216682e-07, -1.8931109627102589e-10, -49794123.108043484, 8.37233510278323]}, {"name": "polynomial2", "class": "NASAPolynomial", "Tmin_value": 461.32748567660883, "Tmin_units": "K", "Tmax_value": 3000.0, "Tmax_units": "K", "coeffs": [-0.4828474148419639, 0.045791842066171734, -2.528086383951127e-05, 6.799951600161256e-09, -7.15497442706234e-13, -49793451.74312722, 28.195764680737913]}]

>  <H298_value>  (5) 
-98946.57050324004

>  <H298_units>  (5) 
kcal/mol

>  <S298_value>  (5) 
75.45568912048749

>  <S298_units>  (5) 
cal/(mol*K)

>  <Cp_T_value_list>  (5) 
[22.993324771317205, 28.283698825220604, 33.58007978782065, 38.2879208332935, 46.02247217838426, 51.89109860770687, 60.90907732591769, 65.43679257611106, 67.69188587313755]

>  <Cp_T_units>  (5) 
cal/(mol*K)

>  <T_list>  (5) 
[300.0, 400.0, 500.0, 600.0, 800.0, 1000.0, 1500.0, 2000.0, 2400.0]

>  <T_units>  (5) 
K

>  <yaml_path>  (5) 
/home/calvin/Dropbox/PersonalFolders/Calvin/HAb_Converged/rxn_1085/output/Species/rxn_1085_C[C][C]C/rxn_1085_CCCC.yml

>  <frequencies_cm1>  (5) 
[125.77570312111999, 129.5800129884, 129.8546924012, 257.09993038079995, 382.58722011848, 382.90996842852, 764.06885560044, 930.39410703616, 930.4421759334, 963.99426620692, 1004.1798642995599, 1004.6193513600399, 1087.75107564396, 1293.5958275962798, 1293.81557112652, 1387.15163559596, 1387.60485662708, 1410.6779273022798, 1453.5347826844, 1456.6798619609601, 1456.74853181416, 1475.7494801946002, 1478.0018513795599, 1478.290264763, 2923.37178851848, 2923.71513778448, 2931.2207527392397, 3026.71991758448, 3027.0357989092, 3028.1345165603993, 3072.48837474228, 3076.3750884334, 3076.72530468472]

>  <ZPE_kJmol>  (5) 
303.5578477669102

>  <E_elec_kJmol>  (5) 
-414315.4048544999

>  <E0_minus_Eelec_plus_ZPE_kJmol>  (5) 
0.0

>  <rxn>  (5) 
rxn_1085

>  <species_type>  (5) 
r1

>  <species_folder>  (5) 
rxn_1085_C[C][C]C

>  <frequencies_cm1_list>  (5) 
[125.77570312111999, 129.5800129884, 129.8546924012, 257.09993038079995, 382.58722011848, 382.90996842852, 764.06885560044, 930.39410703616, 930.4421759334, 963.99426620692, 1004.1798642995599, 1004.6193513600399, 1087.75107564396, 1293.5958275962798, 1293.81557112652, 1387.15163559596, 1387.60485662708, 1410.6779273022798, 1453.5347826844, 1456.6798619609601, 1456.74853181416, 1475.7494801946002, 1478.0018513795599, 1478.290264763, 2923.37178851848, 2923.71513778448, 2931.2207527392397, 3026.71991758448, 3027.0357989092, 3028.1345165603993, 3072.48837474228, 3076.3750884334, 3076.72530468472]

>  <E0_kJmol>  (5) 
-414012

>  <H298_kJmol>  (5) 
-413992

$$$$
