
     RDKit          3D

  7  6  0  0  0  0  0  0  0  0999 V2000
    0.2147    0.1578    1.2493 C   0  0  0  0  0  0  0  0  0  1  0  0
    0.0442    0.0633    0.0020 C   0  0  0  0  0  2  0  0  0  2  0  0
   -0.2237   -0.1707   -1.2709 C   0  0  0  0  0  0  0  0  0  3  0  0
   -0.3061   -0.6403    1.7472 H   0  0  0  0  0  0  0  0  0  4  0  0
    0.7116    0.8079    1.9468 H   0  0  0  0  0  0  0  0  0  5  0  0
   -1.0996    0.2587   -1.7401 H   0  0  0  0  0  0  0  0  0  6  0  0
    0.4380   -0.7773   -1.8759 H   0  0  0  0  0  0  0  0  0  7  0  0
  1  5  1  0
  1  4  1  0
  1  2  1  0
  2  3  1  0
  3  6  1  0
  3  7  1  0
M  RAD  1   2   3
M  END
>  <rmg_smiles>  (1) 
[CH2][C][CH2]

>  <rmg_adjacency_list>  (1) 
1 C u0 p0 c0 {3,S} {4,S} {5,S}
2 C u0 p0 c0 {3,S} {6,S} {7,S}
3 C u0 p1 c0 {1,S} {2,S}
4 H u0 p0 c0 {1,S}
5 H u0 p0 c0 {1,S}
6 H u0 p0 c0 {2,S}
7 H u0 p0 c0 {2,S}


>  <multiplicity>  (1) 
1

>  <reaction>  (1) 
rxn_1806

>  <type>  (1) 
r1h

>  <role_mapnums>  (1) 
{"r1h_a": 1, "r1h_h": 4}

>  <role_mapidx>  (1) 
{"r1h_a": 0, "r1h_h": 3}

>  <ordered_mapped_smiles>  (1) 
[CH:1]([C:2][CH:3]([H:6])[H:7])([H:4])[H:5]

>  <mol_properties>  (1) 
{"0": {"label": "donator", "atom_type": "Cs"}, "3": {"label": "d_hydrogen", "atom_type": "H0"}}

>  <level_of_theory>  (1) 
wb97xd/def2tzvp

>  <lot_method>  (1) 
wb97xd

>  <lot_basis>  (1) 
def2tzvp

>  <spin_multiplicity>  (1) 
1.0

>  <optical_isomers>  (1) 
1.0

>  <modes>  (1) 
IdealGasTranslation(mass=(40.0313, 'amu')),         NonlinearRotor(             inertia = ([3.47492, 56.1175, 56.1175

>  <frequency_value>  (1) 
unknown

>  <frequency_units>  (1) 
unknown

>  <frequency_list>  (1) 
unknown

>  <arkane_path>  (1) 
/home/calvin/Dropbox/PersonalFolders/Calvin/HAb_Converged/rxn_1806/output/Species/rxn_1806_C=C=C/arkane/output.py

>  <path_exists>  (1) 
True

>  <E0_value>  (1) 
-306138.997842003

>  <E0_units>  (1) 
kJ/mol

>  <thermo_class>  (1) 
NASA

>  <Cp0_value>  (1) 
33.257888

>  <Cp0_units>  (1) 
J/(mol*K)

>  <CpInf_value>  (1) 
157.97496800000002

>  <CpInf_units>  (1) 
J/(mol*K)

>  <Tmin_value>  (1) 
10.0

>  <Tmin_units>  (1) 
K

>  <Tmax_value>  (1) 
3000.0

>  <Tmax_units>  (1) 
K

>  <polynomials>  (1) 
[{"name": "polynomial1", "class": "NASAPolynomial", "Tmin_value": 10.0, "Tmin_units": "K", "Tmax_value": 478.689340519761, "Tmax_units": "K", "coeffs": [4.059516161453229, -0.005912614580382805, 9.600646743971966e-05, -1.77788062123867e-07, 1.0996134921450719e-10, -36820016.27934644, 4.873728959152359]}, {"name": "polynomial2", "class": "NASAPolynomial", "Tmin_value": 478.689340519761, "Tmin_units": "K", "Tmax_value": 3000.0, "Tmax_units": "K", "coeffs": [1.5378315597470078, 0.021998336555596625, -1.2885639168275073e-05, 3.7126389769187168e-09, -4.1726814982831054e-13, -36819853.21856111, 14.36318164832194]}]

>  <H298_value>  (1) 
-73166.0043183083

>  <H298_units>  (1) 
kcal/mol

>  <S298_value>  (1) 
57.92822490187408

>  <S298_units>  (1) 
cal/(mol*K)

>  <Cp_T_value_list>  (1) 
[13.943677776035827, 16.87551595392454, 19.382398763692873, 21.552954477195343, 25.077850238681368, 27.71338269288983, 31.716580438515564, 33.81583480861908, 34.95918145570537]

>  <Cp_T_units>  (1) 
cal/(mol*K)

>  <T_list>  (1) 
[300.0, 400.0, 500.0, 600.0, 800.0, 1000.0, 1500.0, 2000.0, 2400.0]

>  <T_units>  (1) 
K

>  <yaml_path>  (1) 
/home/calvin/Dropbox/PersonalFolders/Calvin/HAb_Converged/rxn_1806/output/Species/rxn_1806_C=C=C/rxn_1806_C=C=C.yml

>  <frequencies_cm1>  (1) 
[373.07644545027995, 373.220652142, 876.8041535988799, 876.92775933464, 877.4153152923599, 1011.45886873876, 1011.6717452836799, 1107.69280101324, 1411.7835119388, 1473.7992563637201, 2053.1530738414795, 3116.3066080692, 3118.70318594588, 3198.73789985048, 3198.8546386009198]

>  <ZPE_kJmol>  (1) 
144.0280692503442

>  <E_elec_kJmol>  (1) 
-306283.0259112533

>  <E0_minus_Eelec_plus_ZPE_kJmol>  (1) 
0.0

>  <rxn>  (1) 
rxn_1806

>  <species_type>  (1) 
r0

>  <species_folder>  (1) 
rxn_1806_C=C=C

>  <frequencies_cm1_list>  (1) 
[373.07644545027995, 373.220652142, 876.8041535988799, 876.92775933464, 877.4153152923599, 1011.45886873876, 1011.6717452836799, 1107.69280101324, 1411.7835119388, 1473.7992563637201, 2053.1530738414795, 3116.3066080692, 3118.70318594588, 3198.73789985048, 3198.8546386009198]

>  <E0_kJmol>  (1) 
-306139

>  <H298_kJmol>  (1) 
-306127

$$$$

     RDKit          3D

  7  6  0  0  0  0  0  0  0  0999 V2000
    1.6542    1.2180    0.7992 H   0  0  0  0  0  0  0  0  0  1  0  0
    1.0575    0.4419    1.2721 C   0  0  0  0  0  0  0  0  0  2  0  0
    0.5980   -0.3389    0.1565 C   0  0  0  0  0  0  0  0  0  3  0  0
   -0.7825   -0.0772   -0.6699 S   0  0  0  0  0  0  0  0  0  4  0  0
    1.7783   -0.0392    1.9300 H   0  0  0  0  0  0  0  0  0  5  0  0
    0.2971    1.0268    1.7822 H   0  0  0  0  0  0  0  0  0  6  0  0
    1.2747   -1.1221   -0.1852 H   0  0  0  0  0  0  0  0  0  7  0  0
  1  2  1  0
  2  5  1  0
  2  6  1  0
  2  3  1  0
  3  7  1  0
  3  4  1  0
M  END
>  <rmg_smiles>  (2) 
C[CH][S]

>  <rmg_adjacency_list>  (2) 
1 S u0 p2 c0 {3,S}
2 C u0 p0 c0 {3,S} {4,S} {5,S} {6,S}
3 C u0 p0 c0 {1,S} {2,S} {7,S}
4 H u0 p0 c0 {2,S}
5 H u0 p0 c0 {2,S}
6 H u0 p0 c0 {2,S}
7 H u0 p0 c0 {3,S}


>  <multiplicity>  (2) 
1

>  <reaction>  (2) 
rxn_1806

>  <type>  (2) 
r2h

>  <role_mapnums>  (2) 
{"r2h_a": 2, "r2h_h": 1}

>  <role_mapidx>  (2) 
{"r2h_a": 1, "r2h_h": 0}

>  <ordered_mapped_smiles>  (2) 
[H:1][C:2]([CH:3]([SH:4])[H:7])([H:5])[H:6]

>  <mol_properties>  (2) 
{"0": {"label": "a_hydrogen", "atom_type": "H0"}, "1": {"label": "acceptor", "atom_type": "Cs"}}

>  <level_of_theory>  (2) 
wb97xd/def2tzvp

>  <lot_method>  (2) 
wb97xd

>  <lot_basis>  (2) 
def2tzvp

>  <spin_multiplicity>  (2) 
1.0

>  <optical_isomers>  (2) 
1.0

>  <modes>  (2) 
IdealGasTranslation(mass=(60.0034, 'amu')),         NonlinearRotor(             inertia = ([10.1821, 87.4169, 94.5043

>  <frequency_value>  (2) 
unknown

>  <frequency_units>  (2) 
unknown

>  <frequency_list>  (2) 
unknown

>  <arkane_path>  (2) 
/home/calvin/Dropbox/PersonalFolders/Calvin/HAb_Converged/rxn_1806/output/Species/rxn_1806_CC=S/arkane/output.py

>  <path_exists>  (2) 
True

>  <E0_value>  (2) 
-1251692.87971102

>  <E0_units>  (2) 
kJ/mol

>  <thermo_class>  (2) 
NASA

>  <Cp0_value>  (2) 
33.257888

>  <Cp0_units>  (2) 
J/(mol*K)

>  <CpInf_value>  (2) 
157.97496800000002

>  <CpInf_units>  (2) 
J/(mol*K)

>  <Tmin_value>  (2) 
10.0

>  <Tmin_units>  (2) 
K

>  <Tmax_value>  (2) 
3000.0

>  <Tmax_units>  (2) 
K

>  <polynomials>  (2) 
[{"name": "polynomial1", "class": "NASAPolynomial", "Tmin_value": 10.0, "Tmin_units": "K", "Tmax_value": 485.39622899743466, "Tmax_units": "K", "coeffs": [3.975940530572461, 0.0013748720414305338, 5.132788135128821e-05, -8.432386137464513e-08, 4.4867749425835864e-11, -150543879.09878448, 8.090912724756667]}, {"name": "polynomial2", "class": "NASAPolynomial", "Tmin_value": 485.39622899743466, "Tmin_units": "K", "Tmax_value": 3000.0, "Tmax_units": "K", "coeffs": [1.4651349812966712, 0.022068299956711855, -1.2628378415974456e-05, 3.5280372570941277e-09, -3.855767973354191e-13, -150543635.38297567, 18.3889911716905]}]

>  <H298_value>  (2) 
-299158.68811573734

>  <H298_units>  (2) 
kcal/mol

>  <S298_value>  (2) 
65.13190747939298

>  <S298_units>  (2) 
cal/(mol*K)

>  <Cp_T_value_list>  (2) 
[14.098427248842778, 16.871855394466547, 19.393339934655586, 21.604877323173096, 25.209772375709086, 27.915317068508738, 32.01166447471848, 34.0672583894089, 35.111294878115146]

>  <Cp_T_units>  (2) 
cal/(mol*K)

>  <T_list>  (2) 
[300.0, 400.0, 500.0, 600.0, 800.0, 1000.0, 1500.0, 2000.0, 2400.0]

>  <T_units>  (2) 
K

>  <yaml_path>  (2) 
/home/calvin/Dropbox/PersonalFolders/Calvin/HAb_Converged/rxn_1806/output/Species/rxn_1806_CC=S/rxn_1806_CC=S.yml

>  <frequencies_cm1>  (2) 
[170.46604358368, 396.01217641908, 770.63369356636, 837.4425937446399, 1045.2719044544401, 1080.9115582652398, 1167.33943550276, 1373.61680753024, 1381.75418513444, 1457.57943703788, 1469.4661886268, 3002.45885844892, 3059.70204807644, 3060.7801647716797, 3125.5770382512]

>  <ZPE_kJmol>  (2) 
139.95721324395197

>  <E_elec_kJmol>  (2) 
-1251832.836924264

>  <E0_minus_Eelec_plus_ZPE_kJmol>  (2) 
0.0

>  <rxn>  (2) 
rxn_1806

>  <species_type>  (2) 
p0

>  <species_folder>  (2) 
rxn_1806_CC=S

>  <frequencies_cm1_list>  (2) 
[170.46604358368, 396.01217641908, 770.63369356636, 837.4425937446399, 1045.2719044544401, 1080.9115582652398, 1167.33943550276, 1373.61680753024, 1381.75418513444, 1457.57943703788, 1469.4661886268, 3002.45885844892, 3059.70204807644, 3060.7801647716797, 3125.5770382512]

>  <E0_kJmol>  (2) 
-1.25169e+06

>  <H298_kJmol>  (2) 
-1.25168e+06

$$$$

     RDKit          3D

 13 11  0  0  0  0  0  0  0  0999 V2000
    1.7092    1.7155    0.2738 C   0  0  0  0  0  0  0  0  0  1  0  0
    1.5387    1.6209   -0.9735 C   0  0  0  0  0  0  0  0  0  2  0  0
    1.2708    1.3870   -2.2464 C   0  0  0  0  0  3  0  0  0  3  0  0
    1.0253    0.6674    0.9277 H   0  0  0  0  0  0  0  0  0  4  0  0
    2.2061    2.3656    0.9713 H   0  0  0  0  0  0  0  0  0  5  0  0
    0.3949    1.8163   -2.7156 H   0  0  0  0  0  0  0  0  0  6  0  0
    1.9325    0.7803   -2.8514 H   0  0  0  0  0  0  0  0  0  7  0  0
    0.3203   -0.2497    1.4866 C   0  0  0  0  0  0  0  0  0  8  0  0
   -0.1392   -1.0305    0.3709 C   0  0  0  0  0  0  0  0  0  9  0  0
   -1.5198   -0.7688   -0.4554 S   0  0  0  0  0  0  0  0  0 10  0  0
    1.0411   -0.7308    2.1445 H   0  0  0  0  0  0  0  0  0 11  0  0
   -0.4402    0.3352    1.9966 H   0  0  0  0  0  0  0  0  0 12  0  0
    0.5375   -1.8137    0.0292 H   0  0  0  0  0  0  0  0  0 13  0  0
  1  5  1  0
  1  2  1  0
  2  3  1  0
  3  6  1  0
  3  7  1  0
  4  8  1  0
  8  9  1  0
  8 11  1  0
  8 12  1  0
  9 10  1  0
  9 13  1  0
M  RAD  1   3   2
M  END
>  <rmg_smiles>  (3) 
[CH][C][CH2].C[CH][S]

>  <rmg_adjacency_list>  (3) 
multiplicity 2
1  S u0 p2 c0 {3,S}
2  C u0 p0 c0 {3,S} {7,S} {8,S} {9,S}
3  C u0 p0 c0 {1,S} {2,S} {10,S}
4  C u1 p0 c0 {5,S} {11,S} {12,S}
5  C u0 p1 c0 {4,S} {6,S}
6  C u0 p1 c0 {5,S} {13,S}
7  H u0 p0 c0 {2,S}
8  H u0 p0 c0 {2,S}
9  H u0 p0 c0 {2,S}
10 H u0 p0 c0 {3,S}
11 H u0 p0 c0 {4,S}
12 H u0 p0 c0 {4,S}
13 H u0 p0 c0 {6,S}


>  <multiplicity>  (3) 
2

>  <reaction>  (3) 
rxn_1806

>  <type>  (3) 
ts

>  <role_mapnums>  (3) 
{"*2": 4, "*1": 1, "*3": 8, "*0": 9, "*4": 2}

>  <role_mapidx>  (3) 
{"*2": 3, "*1": 0, "*3": 7, "*0": 8, "*4": 1}

>  <ordered_mapped_smiles>  (3) 
[CH2:1]([CH2:2][C:3]([H:6])[H:7])[H:5].[H:4][C:8]([CH:9]([SH:10])[H:13])([H:11])[H:12]

>  <mol_properties>  (3) 
{"0": {"label": "*1", "atom_type": "C2s"}, "1": {"label": "*4", "atom_type": "C2s"}, "3": {"label": "*2", "atom_type": "H0"}, "7": {"label": "*3", "atom_type": "Cs"}, "8": {"label": "*0", "atom_type": "Cs"}}

>  <level_of_theory>  (3) 
wb97xd/def2tzvp

>  <lot_method>  (3) 
wb97xd

>  <lot_basis>  (3) 
def2tzvp

>  <spin_multiplicity>  (3) 
2.0

>  <optical_isomers>  (3) 
2.0

>  <modes>  (3) 
IdealGasTranslation(mass=(99.0268, 'amu')),         NonlinearRotor(             inertia = ([134.805, 306.134, 411.014

>  <frequency_value>  (3) 
-1704.24

>  <frequency_units>  (3) 
cm^-1

>  <frequency_list>  (3) 
unknown

>  <arkane_path>  (3) 
/home/calvin/Dropbox/PersonalFolders/Calvin/HAb_Converged/rxn_1806/output/rxns/TS0/arkane/output.py

>  <path_exists>  (3) 
True

>  <E0_value>  (3) 
-1556080.0

>  <E0_units>  (3) 
kJ/mol

>  <thermo_class>  (3) 
unknown

>  <Cp0_value>  (3) 
unknown

>  <Cp0_units>  (3) 
unknown

>  <CpInf_value>  (3) 
unknown

>  <CpInf_units>  (3) 
unknown

>  <Tmin_value>  (3) 
unknown

>  <Tmin_units>  (3) 
unknown

>  <Tmax_value>  (3) 
unknown

>  <Tmax_units>  (3) 
unknown

>  <polynomials>  (3) 
unknown

>  <H298_value>  (3) 
unknown

>  <H298_units>  (3) 
unknown

>  <S298_value>  (3) 
unknown

>  <S298_units>  (3) 
unknown

>  <Cp_T_value_list>  (3) 
unknown

>  <Cp_T_units>  (3) 
unknown

>  <T_list>  (3) 
unknown

>  <T_units>  (3) 
unknown

>  <yaml_path>  (3) 
unknown

>  <frequencies_cm1>  (3) 
unknown

>  <ZPE_kJmol>  (3) 
unknown

>  <E_elec_kJmol>  (3) 
unknown

>  <E0_minus_Eelec_plus_ZPE_kJmol>  (3) 
unknown

>  <rxn>  (3) 
unknown

>  <species_type>  (3) 
unknown

>  <species_folder>  (3) 
unknown

>  <frequencies_cm1_list>  (3) 
[]

>  <ts_imag_freq_cm1>  (3) 
-1724.9404

>  <ts_freq_out_path>  (3) 
/home/calvin/Dropbox/PersonalFolders/Calvin/HAb_Converged/rxn_1806/output/rxns/TS0/geometry/freq.out

>  <E0_kJmol>  (3) 
-1.55608e+06

>  <H298_kJmol>  (3) 
unknown

$$$$

     RDKit          3D

  6  5  0  0  0  0  0  0  0  0999 V2000
    1.4968   -0.0097    0.1113 C   0  0  0  0  0  0  0  0  0  1  0  0
    0.2829   -0.0018    0.0210 C   0  0  0  0  0  0  0  0  0  2  0  0
   -1.0795    0.0070   -0.0803 C   0  0  0  0  0  3  0  0  0  3  0  0
    2.5571   -0.0165    0.1902 H   0  0  0  0  0  0  0  0  0  4  0  0
   -1.6181    0.9389   -0.1832 H   0  0  0  0  0  0  0  0  0  5  0  0
   -1.6393   -0.9179   -0.0591 H   0  0  0  0  0  0  0  0  0  6  0  0
  1  4  1  0
  1  2  1  0
  2  3  1  0
  3  6  1  0
  3  5  1  0
M  RAD  1   3   2
M  END
>  <rmg_smiles>  (4) 
[CH]C[CH2]

>  <rmg_adjacency_list>  (4) 
multiplicity 2
1 C u1 p0 c0 {2,S} {4,S} {5,S}
2 C u0 p1 c0 {1,S} {3,S}
3 C u0 p1 c0 {2,S} {6,S}
4 H u0 p0 c0 {1,S}
5 H u0 p0 c0 {1,S}
6 H u0 p0 c0 {3,S}


>  <multiplicity>  (4) 
2

>  <reaction>  (4) 
rxn_1806

>  <type>  (4) 
r1

>  <role_mapnums>  (4) 
{}

>  <role_mapidx>  (4) 
{}

>  <ordered_mapped_smiles>  (4) 
[CH2:1]([CH2:2][C:3]([H:5])[H:6])[H:4]

>  <level_of_theory>  (4) 
wb97xd/def2tzvp

>  <lot_method>  (4) 
wb97xd

>  <lot_basis>  (4) 
def2tzvp

>  <spin_multiplicity>  (4) 
2.0

>  <optical_isomers>  (4) 
1.0

>  <modes>  (4) 
IdealGasTranslation(mass=(39.0235, 'amu')),         NonlinearRotor(             inertia = ([1.74527, 52.5377, 54.2829

>  <frequency_value>  (4) 
unknown

>  <frequency_units>  (4) 
unknown

>  <frequency_list>  (4) 
unknown

>  <arkane_path>  (4) 
/home/calvin/Dropbox/PersonalFolders/Calvin/HAb_Converged/rxn_1806/output/Species/rxn_1806_[CH]=C=C/arkane/output.py

>  <path_exists>  (4) 
True

>  <E0_value>  (4) 
-304448.46556643327

>  <E0_units>  (4) 
kJ/mol

>  <thermo_class>  (4) 
NASA

>  <Cp0_value>  (4) 
33.257888

>  <Cp0_units>  (4) 
J/(mol*K)

>  <CpInf_value>  (4) 
133.031552

>  <CpInf_units>  (4) 
J/(mol*K)

>  <Tmin_value>  (4) 
10.0

>  <Tmin_units>  (4) 
K

>  <Tmax_value>  (4) 
3000.0

>  <Tmax_units>  (4) 
K

>  <polynomials>  (4) 
[{"name": "polynomial1", "class": "NASAPolynomial", "Tmin_value": 10.0, "Tmin_units": "K", "Tmax_value": 545.4322858033976, "Tmax_units": "K", "coeffs": [3.9499603218219184, 0.003017565134064686, 5.5663880593738125e-05, -1.145891938777454e-07, 7.087527216200762e-11, -36616690.41912999, 5.464661756584002]}, {"name": "polynomial2", "class": "NASAPolynomial", "Tmin_value": 545.4322858033976, "Tmin_units": "K", "Tmax_value": 3000.0, "Tmax_units": "K", "coeffs": [3.789373911177466, 0.015460066047789113, -9.533910331026645e-06, 2.9656464623318287e-09, -3.6191150968379614e-13, -36616840.46347278, 4.606005615672744]}]

>  <H298_value>  (4) 
-72761.72685205255

>  <H298_units>  (4) 
kcal/mol

>  <S298_value>  (4) 
60.54560432912815

>  <S298_units>  (4) 
cal/(mol*K)

>  <Cp_T_value_list>  (4) 
[14.596350865656005, 16.978505208172123, 18.840244425047544, 20.322925848209742, 22.70561515204646, 24.480922661541676, 27.23477345925829, 28.831290583038445, 29.744408163505042]

>  <Cp_T_units>  (4) 
cal/(mol*K)

>  <T_list>  (4) 
[300.0, 400.0, 500.0, 600.0, 800.0, 1000.0, 1500.0, 2000.0, 2400.0]

>  <T_units>  (4) 
K

>  <yaml_path>  (4) 
/home/calvin/Dropbox/PersonalFolders/Calvin/HAb_Converged/rxn_1806/output/Species/rxn_1806_[CH]=C=C/rxn_1806_CH=C=C.yml

>  <frequencies_cm1>  (4) 
[355.94331707688, 407.51437683008004, 504.51054447508, 653.44172209524, 683.5053838262, 1024.2589293752399, 1075.37676809732, 1445.76135530216, 1997.3313501752, 3133.58394313432, 3230.4359040876, 3427.03082681388]

>  <ZPE_kJmol>  (4) 
107.29725110288972

>  <E_elec_kJmol>  (4) 
-304555.76281753613

>  <E0_minus_Eelec_plus_ZPE_kJmol>  (4) 
0.0

>  <rxn>  (4) 
rxn_1806

>  <species_type>  (4) 
p1

>  <species_folder>  (4) 
rxn_1806_[CH]=C=C

>  <frequencies_cm1_list>  (4) 
[355.94331707688, 407.51437683008004, 504.51054447508, 653.44172209524, 683.5053838262, 1024.2589293752399, 1075.37676809732, 1445.76135530216, 1997.3313501752, 3133.58394313432, 3230.4359040876, 3427.03082681388]

>  <E0_kJmol>  (4) 
-304448

>  <H298_kJmol>  (4) 
-304435

$$$$

     RDKit          3D

  6  5  0  0  0  0  0  0  0  0999 V2000
   -0.7309   -0.0987    0.0327 C   0  0  0  0  0  0  0  0  0  1  0  0
    0.6208    0.0065   -0.0096 C   0  0  0  0  0  0  0  0  0  2  0  0
    1.6572   -1.2972    0.2837 S   0  0  0  0  0  1  0  0  0  3  0  0
   -1.3651    0.7588   -0.1608 H   0  0  0  0  0  0  0  0  0  4  0  0
   -1.2044   -1.0453    0.2616 H   0  0  0  0  0  0  0  0  0  5  0  0
    1.0609    0.9725   -0.2426 H   0  0  0  0  0  0  0  0  0  6  0  0
  1  5  1  0
  1  4  1  0
  1  2  1  0
  2  3  1  0
  2  6  1  0
M  RAD  1   3   2
M  END
>  <rmg_smiles>  (5) 
[CH2][CH][S]

>  <rmg_adjacency_list>  (5) 
multiplicity 2
1 S u1 p2 c0 {3,S}
2 C u0 p0 c0 {3,S} {4,S} {5,S}
3 C u0 p0 c0 {1,S} {2,S} {6,S}
4 H u0 p0 c0 {2,S}
5 H u0 p0 c0 {2,S}
6 H u0 p0 c0 {3,S}


>  <multiplicity>  (5) 
2

>  <reaction>  (5) 
rxn_1806

>  <type>  (5) 
r2

>  <role_mapnums>  (5) 
{}

>  <role_mapidx>  (5) 
{}

>  <ordered_mapped_smiles>  (5) 
[CH:1]([CH:2]([S:3])[H:6])([H:4])[H:5]

>  <level_of_theory>  (5) 
wb97xd/def2tzvp

>  <lot_method>  (5) 
wb97xd

>  <lot_basis>  (5) 
def2tzvp

>  <spin_multiplicity>  (5) 
2.0

>  <optical_isomers>  (5) 
1.0

>  <modes>  (5) 
IdealGasTranslation(mass=(58.9956, 'amu')),         NonlinearRotor(             inertia = ([8.83476, 79.9763, 88.811

>  <frequency_value>  (5) 
unknown

>  <frequency_units>  (5) 
unknown

>  <frequency_list>  (5) 
unknown

>  <arkane_path>  (5) 
/home/calvin/Dropbox/PersonalFolders/Calvin/HAb_Converged/rxn_1806/output/Species/rxn_1806_[CH2]C=S/arkane/output.py

>  <path_exists>  (5) 
True

>  <E0_value>  (5) 
-1250043.110807286

>  <E0_units>  (5) 
kJ/mol

>  <thermo_class>  (5) 
NASA

>  <Cp0_value>  (5) 
33.257888

>  <Cp0_units>  (5) 
J/(mol*K)

>  <CpInf_value>  (5) 
133.031552

>  <CpInf_units>  (5) 
J/(mol*K)

>  <Tmin_value>  (5) 
10.0

>  <Tmin_units>  (5) 
K

>  <Tmax_value>  (5) 
3000.0

>  <Tmax_units>  (5) 
K

>  <polynomials>  (5) 
[{"name": "polynomial1", "class": "NASAPolynomial", "Tmin_value": 10.0, "Tmin_units": "K", "Tmax_value": 532.7243167618623, "Tmax_units": "K", "coeffs": [4.067075979396691, -0.006403539850264782, 8.807291251076341e-05, -1.576667854691463e-07, 9.235973025607611e-11, -150345458.46382707, 8.421967934724249]}, {"name": "polynomial2", "class": "NASAPolynomial", "Tmin_value": 532.7243167618623, "Tmin_units": "K", "Tmax_value": 3000.0, "Tmax_units": "K", "coeffs": [2.1262272561499946, 0.018548778063449952, -1.1410896338021972e-05, 3.4033850580240633e-09, -3.915343193556974e-13, -150345398.95630276, 15.180861356183497]}]

>  <H298_value>  (5) 
-298764.61657121626

>  <H298_units>  (5) 
kcal/mol

>  <S298_value>  (5) 
64.35790710333508

>  <S298_units>  (5) 
cal/(mol*K)

>  <Cp_T_value_list>  (5) 
[13.043400995126946, 15.641423321427808, 17.780866282053577, 19.53813430705424, 22.345017795429637, 24.394866961547805, 27.38203567367369, 28.89940637643697, 29.75793587094202]

>  <Cp_T_units>  (5) 
cal/(mol*K)

>  <T_list>  (5) 
[300.0, 400.0, 500.0, 600.0, 800.0, 1000.0, 1500.0, 2000.0, 2400.0]

>  <T_units>  (5) 
K

>  <yaml_path>  (5) 
/home/calvin/Dropbox/PersonalFolders/Calvin/HAb_Converged/rxn_1806/output/Species/rxn_1806_[CH2]C=S/rxn_1806_CH2C=S.yml

>  <frequencies_cm1>  (5) 
[401.01820871736, 475.21598509996, 781.12644713532, 939.1495133191601, 974.6449604382399, 1045.93800203048, 1282.84212858516, 1350.7016775174, 1511.6912813594797, 3110.64821216552, 3122.0680087526794, 3219.55859934072]

>  <ZPE_kJmol>  (5) 
108.94755150830215

>  <E_elec_kJmol>  (5) 
-1250152.0583587943

>  <E0_minus_Eelec_plus_ZPE_kJmol>  (5) 
0.0

>  <rxn>  (5) 
rxn_1806

>  <species_type>  (5) 
r1

>  <species_folder>  (5) 
rxn_1806_[CH2]C=S

>  <frequencies_cm1_list>  (5) 
[401.01820871736, 475.21598509996, 781.12644713532, 939.1495133191601, 974.6449604382399, 1045.93800203048, 1282.84212858516, 1350.7016775174, 1511.6912813594797, 3110.64821216552, 3122.0680087526794, 3219.55859934072]

>  <E0_kJmol>  (5) 
-1.25004e+06

>  <H298_kJmol>  (5) 
-1.25003e+06

$$$$
