
     RDKit          3D

 12 11  0  0  0  0  0  0  0  0999 V2000
   -0.6179   -1.0229   -1.2309 C   0  0  0  0  0  0  0  0  0  1  0  0
   -0.5530    0.0144   -0.1352 C   0  0  0  0  0  0  0  0  0  2  0  0
    0.9106   -0.2232    0.8703 S   0  0  0  0  0  0  0  0  0  3  0  0
   -0.7966    1.4308   -0.5898 C   0  0  0  0  0  0  0  0  0  4  0  0
   -0.5049   -2.0348   -0.8379 H   0  0  0  0  0  0  0  0  0  5  0  0
    0.1621   -0.8593   -1.9813 H   0  0  0  0  0  0  0  0  0  6  0  0
   -1.5849   -0.9603   -1.7343 H   0  0  0  0  0  0  0  0  0  7  0  0
   -1.4237   -0.1999    0.4846 H   0  0  0  0  0  0  0  0  0  8  0  0
    0.6857    0.7777    1.7324 H   0  0  0  0  0  0  0  0  0  9  0  0
   -1.7576    1.4969   -1.1042 H   0  0  0  0  0  0  0  0  0 10  0  0
   -0.0109    1.7588   -1.2775 H   0  0  0  0  0  0  0  0  0 11  0  0
   -0.8235    2.1242    0.2522 H   0  0  0  0  0  0  0  0  0 12  0  0
  1  5  1  0
  1  7  1  0
  1  6  1  0
  1  2  1  0
  2  8  1  0
  2  3  1  0
  2  4  1  0
  3  9  1  0
  4 11  1  0
  4 12  1  0
  4 10  1  0
M  END
>  <rmg_smiles>  (1) 
CC(S)C

>  <rmg_adjacency_list>  (1) 
1  S u0 p2 c0 {2,S} {12,S}
2  C u0 p0 c0 {1,S} {3,S} {4,S} {5,S}
3  C u0 p0 c0 {2,S} {6,S} {7,S} {8,S}
4  C u0 p0 c0 {2,S} {9,S} {10,S} {11,S}
5  H u0 p0 c0 {2,S}
6  H u0 p0 c0 {3,S}
7  H u0 p0 c0 {3,S}
8  H u0 p0 c0 {3,S}
9  H u0 p0 c0 {4,S}
10 H u0 p0 c0 {4,S}
11 H u0 p0 c0 {4,S}
12 H u0 p0 c0 {1,S}


>  <multiplicity>  (1) 
1

>  <reaction>  (1) 
rxn_1948

>  <type>  (1) 
r1h

>  <role_mapnums>  (1) 
{"r1h_a": 2, "r1h_h": 8}

>  <role_mapidx>  (1) 
{"r1h_a": 1, "r1h_h": 7}

>  <ordered_mapped_smiles>  (1) 
[C:1]([C:2]([S:3][H:9])([C:4]([H:10])([H:11])[H:12])[H:8])([H:5])([H:6])[H:7]

>  <mol_properties>  (1) 
{"1": {"label": "donator", "atom_type": "Cs"}, "7": {"label": "d_hydrogen", "atom_type": "H0"}}

>  <level_of_theory>  (1) 
wb97xd/def2tzvp

>  <lot_method>  (1) 
wb97xd

>  <lot_basis>  (1) 
def2tzvp

>  <spin_multiplicity>  (1) 
1.0

>  <optical_isomers>  (1) 
1.0

>  <modes>  (1) 
IdealGasTranslation(mass=(76.0347, 'amu')),         NonlinearRotor(             inertia = ([63.6139, 114.441, 159.621

>  <frequency_value>  (1) 
unknown

>  <frequency_units>  (1) 
unknown

>  <frequency_list>  (1) 
unknown

>  <arkane_path>  (1) 
/home/calvin/Dropbox/PersonalFolders/Calvin/HAb_Converged/rxn_1948/output/Species/rxn_1948_CC[S]C/arkane/output.py

>  <path_exists>  (1) 
True

>  <E0_value>  (1) 
-1358037.5866518293

>  <E0_units>  (1) 
kJ/mol

>  <thermo_class>  (1) 
NASA

>  <Cp0_value>  (1) 
33.257888

>  <Cp0_units>  (1) 
J/(mol*K)

>  <CpInf_value>  (1) 
282.692048

>  <CpInf_units>  (1) 
J/(mol*K)

>  <Tmin_value>  (1) 
10.0

>  <Tmin_units>  (1) 
K

>  <Tmax_value>  (1) 
3000.0

>  <Tmax_units>  (1) 
K

>  <polynomials>  (1) 
[{"name": "polynomial1", "class": "NASAPolynomial", "Tmin_value": 10.0, "Tmin_units": "K", "Tmax_value": 321.0427973613408, "Tmax_units": "K", "coeffs": [3.8756047097418973, 0.009389250032259752, 0.00011815725900514658, -2.839097589188045e-07, 2.248653567403297e-10, -163334191.98612887, 9.447969360133794]}, {"name": "polynomial2", "class": "NASAPolynomial", "Tmin_value": 321.0427973613408, "Tmin_units": "K", "Tmax_value": 3000.0, "Tmax_units": "K", "coeffs": [1.4806840671397867, 0.03922843927194572, -2.12592416875342e-05, 5.597074365621278e-09, -5.765908627450798e-13, -163334038.21131045, 18.281020566317956]}]

>  <H298_value>  (1) 
-324574.47563528904

>  <H298_units>  (1) 
kcal/mol

>  <S298_value>  (1) 
74.54205005976131

>  <S298_units>  (1) 
cal/(mol*K)

>  <Cp_T_value_list>  (1) 
[22.81785805349738, 28.04749840897883, 32.6770089554356, 36.76066239877869, 43.494090555582204, 48.62766871564607, 56.55824970959882, 60.5138896959208, 62.43755375914227]

>  <Cp_T_units>  (1) 
cal/(mol*K)

>  <T_list>  (1) 
[300.0, 400.0, 500.0, 600.0, 800.0, 1000.0, 1500.0, 2000.0, 2400.0]

>  <T_units>  (1) 
K

>  <yaml_path>  (1) 
/home/calvin/Dropbox/PersonalFolders/Calvin/HAb_Converged/rxn_1948/output/Species/rxn_1948_CC[S]C/rxn_1948_CCSC.yml

>  <frequencies_cm1>  (1) 
[200.16575509268, 239.05349295983999, 267.56521600848, 330.00671352323997, 342.12007562772, 410.47404750299995, 623.63900580644, 869.4770802624399, 901.3261581766, 934.4387613896399, 956.6740598558, 1108.1048201324402, 1133.3272572128, 1186.15497527956, 1298.3065795258, 1327.5874049302797, 1394.18342856364, 1410.9869416416798, 1469.0885044341999, 1472.7280066537999, 1483.70144919516, 1489.7375292914398, 2685.0049940906397, 3006.5378477289996, 3009.8752025945196, 3034.84356121804, 3072.74932018444, 3080.10386146216, 3104.8387425847995, 3107.4138620797994]

>  <ZPE_kJmol>  (1) 
268.8620674224514

>  <E_elec_kJmol>  (1) 
-1358306.4487192517

>  <E0_minus_Eelec_plus_ZPE_kJmol>  (1) 
0.0

>  <rxn>  (1) 
rxn_1948

>  <species_type>  (1) 
r0

>  <species_folder>  (1) 
rxn_1948_CC[S]C

>  <frequencies_cm1_list>  (1) 
[200.16575509268, 239.05349295983999, 267.56521600848, 330.00671352323997, 342.12007562772, 410.47404750299995, 623.63900580644, 869.4770802624399, 901.3261581766, 934.4387613896399, 956.6740598558, 1108.1048201324402, 1133.3272572128, 1186.15497527956, 1298.3065795258, 1327.5874049302797, 1394.18342856364, 1410.9869416416798, 1469.0885044341999, 1472.7280066537999, 1483.70144919516, 1489.7375292914398, 2685.0049940906397, 3006.5378477289996, 3009.8752025945196, 3034.84356121804, 3072.74932018444, 3080.10386146216, 3104.8387425847995, 3107.4138620797994]

>  <E0_kJmol>  (1) 
-1.35804e+06

>  <H298_kJmol>  (1) 
-1.35802e+06

$$$$

     RDKit          3D

  8  7  0  0  0  0  0  0  0  0999 V2000
    1.3061    0.3645   -0.6078 H   0  0  0  0  0  0  0  0  0  1  0  0
    1.3312   -1.8212    0.8050 C   0  0  0  0  0  0  0  0  0  2  0  0
    0.2514   -1.0847    0.5438 C   0  0  0  0  0  0  0  0  0  3  0  0
    0.3256    0.1703   -0.1730 C   0  0  0  0  0  0  0  0  0  4  0  0
   -0.8548    1.1922   -0.5044 S   0  0  0  0  0  0  0  0  0  5  0  0
    1.2507   -2.7546    1.3480 H   0  0  0  0  0  0  0  0  0  6  0  0
    2.3211   -1.5023    0.4984 H   0  0  0  0  0  0  0  0  0  7  0  0
   -0.7328   -1.4064    0.8745 H   0  0  0  0  0  0  0  0  0  8  0  0
  1  4  1  0
  2  7  1  0
  2  6  1  0
  2  3  1  0
  3  4  1  0
  3  8  1  0
  4  5  1  0
M  END
>  <rmg_smiles>  (2) 
[CH2][CH][CH][S]

>  <rmg_adjacency_list>  (2) 
1 S u0 p2 c0 {4,S}
2 C u0 p0 c0 {3,S} {4,S} {5,S}
3 C u0 p0 c0 {2,S} {7,S} {8,S}
4 C u0 p0 c0 {1,S} {2,S} {6,S}
5 H u0 p0 c0 {2,S}
6 H u0 p0 c0 {4,S}
7 H u0 p0 c0 {3,S}
8 H u0 p0 c0 {3,S}


>  <multiplicity>  (2) 
1

>  <reaction>  (2) 
rxn_1948

>  <type>  (2) 
r2h

>  <role_mapnums>  (2) 
{"r2h_a": 4, "r2h_h": 1}

>  <role_mapidx>  (2) 
{"r2h_a": 3, "r2h_h": 0}

>  <ordered_mapped_smiles>  (2) 
[H:1][CH:4]([CH:3]([CH:2]([H:6])[H:7])[H:8])[SH:5]

>  <mol_properties>  (2) 
{"0": {"label": "a_hydrogen", "atom_type": "H0"}, "3": {"label": "acceptor", "atom_type": "Cs"}}

>  <level_of_theory>  (2) 
wb97xd/def2tzvp

>  <lot_method>  (2) 
wb97xd

>  <lot_basis>  (2) 
def2tzvp

>  <spin_multiplicity>  (2) 
1.0

>  <optical_isomers>  (2) 
1.0

>  <modes>  (2) 
IdealGasTranslation(mass=(72.0034, 'amu')),         NonlinearRotor(             inertia = ([10.8259, 179.445, 190.271

>  <frequency_value>  (2) 
unknown

>  <frequency_units>  (2) 
unknown

>  <frequency_list>  (2) 
unknown

>  <arkane_path>  (2) 
/home/calvin/Dropbox/PersonalFolders/Calvin/HAb_Converged/rxn_1948/output/Species/rxn_1948_C=CC=S/arkane/output.py

>  <path_exists>  (2) 
True

>  <E0_value>  (2) 
-1351663.0036055504

>  <E0_units>  (2) 
kJ/mol

>  <thermo_class>  (2) 
NASA

>  <Cp0_value>  (2) 
33.257888

>  <Cp0_units>  (2) 
J/(mol*K)

>  <CpInf_value>  (2) 
182.918384

>  <CpInf_units>  (2) 
J/(mol*K)

>  <Tmin_value>  (2) 
10.0

>  <Tmin_units>  (2) 
K

>  <Tmax_value>  (2) 
3000.0

>  <Tmax_units>  (2) 
K

>  <polynomials>  (2) 
[{"name": "polynomial1", "class": "NASAPolynomial", "Tmin_value": 10.0, "Tmin_units": "K", "Tmax_value": 379.2644192115922, "Tmax_units": "K", "coeffs": [3.9765643065430916, 0.0016004709541293095, 8.72904253733476e-05, -1.7911724885444054e-07, 1.2101661725986147e-10, -162567509.24915665, 9.120160110672158]}, {"name": "polynomial2", "class": "NASAPolynomial", "Tmin_value": 379.2644192115922, "Tmin_units": "K", "Tmax_value": 3000.0, "Tmax_units": "K", "coeffs": [1.464888744558327, 0.0281037867234722, -1.7583624528695405e-05, 5.321955350531072e-09, -6.214743427137124e-13, -162567318.8273217, 18.801153395762828]}]

>  <H298_value>  (2) 
-323051.77369567833

>  <H298_units>  (2) 
kcal/mol

>  <S298_value>  (2) 
69.12773786002882

>  <S298_units>  (2) 
cal/(mol*K)

>  <Cp_T_value_list>  (2) 
[16.805632008963112, 20.304717440143907, 23.344267700018552, 25.964949893337177, 30.135357981253517, 33.15759755729083, 37.504149039419545, 39.684548396616805, 40.90462524755872]

>  <Cp_T_units>  (2) 
cal/(mol*K)

>  <T_list>  (2) 
[300.0, 400.0, 500.0, 600.0, 800.0, 1000.0, 1500.0, 2000.0, 2400.0]

>  <T_units>  (2) 
K

>  <yaml_path>  (2) 
/home/calvin/Dropbox/PersonalFolders/Calvin/HAb_Converged/rxn_1948/output/Species/rxn_1948_C=CC=S/rxn_1948_C=CC=S.yml

>  <frequencies_cm1>  (2) 
[143.52686017332, 284.27945827736, 458.62534856684, 626.85962192152, 901.60770457472, 915.3554091853599, 995.0811087505599, 1035.17743603404, 1098.5734445082799, 1194.99965237172, 1299.26109048528, 1341.3969124088, 1455.1759921758799, 1675.0087932250397, 3064.563873683, 3123.0293866974803, 3158.3600261688803, 3216.07703778348]

>  <ZPE_kJmol>  (2) 
155.4365784144883

>  <E_elec_kJmol>  (2) 
-1351818.4401839648

>  <E0_minus_Eelec_plus_ZPE_kJmol>  (2) 
0.0

>  <rxn>  (2) 
rxn_1948

>  <species_type>  (2) 
p0

>  <species_folder>  (2) 
rxn_1948_C=CC=S

>  <frequencies_cm1_list>  (2) 
[143.52686017332, 284.27945827736, 458.62534856684, 626.85962192152, 901.60770457472, 915.3554091853599, 995.0811087505599, 1035.17743603404, 1098.5734445082799, 1194.99965237172, 1299.26109048528, 1341.3969124088, 1455.1759921758799, 1675.0087932250397, 3064.563873683, 3123.0293866974803, 3158.3600261688803, 3216.07703778348]

>  <E0_kJmol>  (2) 
-1.35166e+06

>  <H298_kJmol>  (2) 
-1.35165e+06

$$$$

     RDKit          3D

 19 17  0  0  0  0  0  0  0  0999 V2000
    0.9875    0.0826   -1.5498 C   0  0  0  0  0  0  0  0  0  1  0  0
    1.0524    1.1199   -0.4541 C   0  0  0  0  0  0  0  0  0  2  0  0
    2.5161    0.8823    0.5515 S   0  0  0  0  0  0  0  0  0  3  0  0
    0.8089    2.5363   -0.9086 C   0  0  0  0  0  0  0  0  0  4  0  0
    1.1005   -0.9293   -1.1567 H   0  0  0  0  0  0  0  0  0  5  0  0
    1.7675    0.2462   -2.3001 H   0  0  0  0  0  0  0  0  0  6  0  0
    0.0206    0.1452   -2.0532 H   0  0  0  0  0  0  0  0  0  7  0  0
   -0.0214    0.8556    0.3104 H   0  0  0  0  0  0  0  0  0  8  0  0
    2.2912    1.8832    1.4135 H   0  0  0  0  0  0  0  0  0  9  0  0
   -0.1521    2.6024   -1.4231 H   0  0  0  0  0  0  0  0  0 10  0  0
    1.5946    2.8643   -1.5964 H   0  0  0  0  0  0  0  0  0 11  0  0
    0.7820    3.2297   -0.0666 H   0  0  0  0  0  0  0  0  0 12  0  0
   -0.2480   -1.3800    1.8348 C   0  0  0  0  0  0  0  0  0 13  0  0
   -1.3279   -0.6435    1.5736 C   0  0  0  0  0  0  0  0  0 14  0  0
   -1.2537    0.6115    0.8568 C   0  0  0  0  0  3  0  0  0 15  0  0
   -2.4341    1.6335    0.5255 S   0  0  0  0  0  0  0  0  0 16  0  0
   -0.3286   -2.3134    2.3778 H   0  0  0  0  0  0  0  0  0 17  0  0
    0.7418   -1.0611    1.5283 H   0  0  0  0  0  0  0  0  0 18  0  0
   -2.3121   -0.9651    1.9043 H   0  0  0  0  0  0  0  0  0 19  0  0
  1  5  1  0
  1  7  1  0
  1  6  1  0
  1  2  1  0
  2  8  1  0
  2  3  1  0
  2  4  1  0
  3  9  1  0
  4 11  1  0
  4 12  1  0
  4 10  1  0
 13 17  1  0
 13 14  1  0
 13 18  1  0
 14 19  1  0
 14 15  1  0
 15 16  1  0
M  RAD  1  15   2
M  END
>  <rmg_smiles>  (3) 
CC(S)C.[CH2][CH][C][S]

>  <rmg_adjacency_list>  (3) 
multiplicity 2
1  S u0 p2 c0 {3,S} {19,S}
2  S u0 p2 c0 {8,S}
3  C u0 p0 c0 {1,S} {4,S} {5,S} {9,S}
4  C u0 p0 c0 {3,S} {10,S} {11,S} {12,S}
5  C u0 p0 c0 {3,S} {13,S} {14,S} {15,S}
6  C u0 p0 c0 {7,S} {8,S} {16,S}
7  C u0 p0 c0 {6,S} {17,S} {18,S}
8  C u1 p1 c0 {2,S} {6,S}
9  H u0 p0 c0 {3,S}
10 H u0 p0 c0 {4,S}
11 H u0 p0 c0 {4,S}
12 H u0 p0 c0 {4,S}
13 H u0 p0 c0 {5,S}
14 H u0 p0 c0 {5,S}
15 H u0 p0 c0 {5,S}
16 H u0 p0 c0 {6,S}
17 H u0 p0 c0 {7,S}
18 H u0 p0 c0 {7,S}
19 H u0 p0 c0 {1,S}


>  <multiplicity>  (3) 
2

>  <reaction>  (3) 
rxn_1948

>  <type>  (3) 
ts

>  <role_mapnums>  (3) 
{"*2": 8, "*1": 2, "*3": 15, "*0": 3, "*4": 16}

>  <role_mapidx>  (3) 
{"*2": 7, "*1": 1, "*3": 14, "*0": 2, "*4": 15}

>  <ordered_mapped_smiles>  (3) 
[C:1]([C:2]([S:3][H:9])([C:4]([H:10])([H:11])[H:12])[H:8])([H:5])([H:6])[H:7].[CH:13]([CH:14]([CH:15][SH:16])[H:19])([H:17])[H:18]

>  <mol_properties>  (3) 
{"1": {"label": "*1", "atom_type": "Cs"}, "2": {"label": "*0", "atom_type": "S2s"}, "7": {"label": "*2", "atom_type": "H0"}, "14": {"label": "*3", "atom_type": "C2s"}, "15": {"label": "*4", "atom_type": "S2s"}}

>  <level_of_theory>  (3) 
wb97xd/def2tzvp

>  <lot_method>  (3) 
wb97xd

>  <lot_basis>  (3) 
def2tzvp

>  <spin_multiplicity>  (3) 
2.0

>  <optical_isomers>  (3) 
2.0

>  <modes>  (3) 
IdealGasTranslation(mass=(147.03, 'amu')),         NonlinearRotor(             inertia = ([313.764, 576.95, 746.211

>  <frequency_value>  (3) 
-1813.23

>  <frequency_units>  (3) 
cm^-1

>  <frequency_list>  (3) 
unknown

>  <arkane_path>  (3) 
/home/calvin/Dropbox/PersonalFolders/Calvin/HAb_Converged/rxn_1948/output/rxns/TS0/arkane/output.py

>  <path_exists>  (3) 
True

>  <E0_value>  (3) 
-2707960.0

>  <E0_units>  (3) 
kJ/mol

>  <thermo_class>  (3) 
unknown

>  <Cp0_value>  (3) 
unknown

>  <Cp0_units>  (3) 
unknown

>  <CpInf_value>  (3) 
unknown

>  <CpInf_units>  (3) 
unknown

>  <Tmin_value>  (3) 
unknown

>  <Tmin_units>  (3) 
unknown

>  <Tmax_value>  (3) 
unknown

>  <Tmax_units>  (3) 
unknown

>  <polynomials>  (3) 
unknown

>  <H298_value>  (3) 
unknown

>  <H298_units>  (3) 
unknown

>  <S298_value>  (3) 
unknown

>  <S298_units>  (3) 
unknown

>  <Cp_T_value_list>  (3) 
unknown

>  <Cp_T_units>  (3) 
unknown

>  <T_list>  (3) 
unknown

>  <T_units>  (3) 
unknown

>  <yaml_path>  (3) 
unknown

>  <frequencies_cm1>  (3) 
unknown

>  <ZPE_kJmol>  (3) 
unknown

>  <E_elec_kJmol>  (3) 
unknown

>  <E0_minus_Eelec_plus_ZPE_kJmol>  (3) 
unknown

>  <rxn>  (3) 
unknown

>  <species_type>  (3) 
unknown

>  <species_folder>  (3) 
unknown

>  <frequencies_cm1_list>  (3) 
[]

>  <ts_imag_freq_cm1>  (3) 
-1835.2529

>  <ts_freq_out_path>  (3) 
/home/calvin/Dropbox/PersonalFolders/Calvin/HAb_Converged/rxn_1948/output/rxns/TS0/geometry/freq.out

>  <E0_kJmol>  (3) 
-2.70796e+06

>  <H298_kJmol>  (3) 
unknown

$$$$

     RDKit          3D

 11 10  0  0  0  0  0  0  0  0999 V2000
    1.0781   -1.0166   -0.1159 C   0  0  0  0  0  0  0  0  0  1  0  0
    0.2180    0.1942   -0.2297 C   0  0  0  0  0  3  0  0  0  2  0  0
    0.9343    1.7769   -0.3011 S   0  0  0  0  0  0  0  0  0  3  0  0
   -1.1949    0.1490    0.2439 C   0  0  0  0  0  0  0  0  0  4  0  0
    1.4718   -1.1461    0.9024 H   0  0  0  0  0  0  0  0  0  5  0  0
    1.9367   -0.9751   -0.7902 H   0  0  0  0  0  0  0  0  0  6  0  0
    0.5033   -1.9136   -0.3576 H   0  0  0  0  0  0  0  0  0  7  0  0
    2.1166    1.4195   -0.8209 H   0  0  0  0  0  0  0  0  0  8  0  0
   -1.2620    0.0939    1.3399 H   0  0  0  0  0  0  0  0  0  9  0  0
   -1.7600    1.0270   -0.0739 H   0  0  0  0  0  0  0  0  0 10  0  0
   -1.6972   -0.7380   -0.1506 H   0  0  0  0  0  0  0  0  0 11  0  0
  1  5  1  0
  1  7  1  0
  1  6  1  0
  1  2  1  0
  2  3  1  0
  2  4  1  0
  3  8  1  0
  4  9  1  0
  4 10  1  0
  4 11  1  0
M  RAD  1   2   2
M  END
>  <rmg_smiles>  (4) 
C[C](S)C

>  <rmg_adjacency_list>  (4) 
multiplicity 2
1  S u0 p2 c0 {4,S} {11,S}
2  C u0 p0 c0 {4,S} {5,S} {6,S} {7,S}
3  C u0 p0 c0 {4,S} {8,S} {9,S} {10,S}
4  C u1 p0 c0 {1,S} {2,S} {3,S}
5  H u0 p0 c0 {2,S}
6  H u0 p0 c0 {2,S}
7  H u0 p0 c0 {2,S}
8  H u0 p0 c0 {3,S}
9  H u0 p0 c0 {3,S}
10 H u0 p0 c0 {3,S}
11 H u0 p0 c0 {1,S}


>  <multiplicity>  (4) 
2

>  <reaction>  (4) 
rxn_1948

>  <type>  (4) 
r1

>  <role_mapnums>  (4) 
{}

>  <role_mapidx>  (4) 
{}

>  <ordered_mapped_smiles>  (4) 
[C:1]([C:2]([S:3][H:8])[C:4]([H:9])([H:10])[H:11])([H:5])([H:6])[H:7]

>  <level_of_theory>  (4) 
wb97xd/def2tzvp

>  <lot_method>  (4) 
wb97xd

>  <lot_basis>  (4) 
def2tzvp

>  <spin_multiplicity>  (4) 
2.0

>  <optical_isomers>  (4) 
2.0

>  <modes>  (4) 
IdealGasTranslation(mass=(75.0268, 'amu')),         NonlinearRotor(             inertia = ([61.999, 107.328, 162.226

>  <frequency_value>  (4) 
unknown

>  <frequency_units>  (4) 
unknown

>  <frequency_list>  (4) 
unknown

>  <arkane_path>  (4) 
/home/calvin/Dropbox/PersonalFolders/Calvin/HAb_Converged/rxn_1948/output/Species/rxn_1948_C[C][S]C/arkane/output.py

>  <path_exists>  (4) 
True

>  <E0_value>  (4) 
-1356347.4134395572

>  <E0_units>  (4) 
kJ/mol

>  <thermo_class>  (4) 
NASA

>  <Cp0_value>  (4) 
33.257888

>  <Cp0_units>  (4) 
J/(mol*K)

>  <CpInf_value>  (4) 
257.748632

>  <CpInf_units>  (4) 
J/(mol*K)

>  <Tmin_value>  (4) 
10.0

>  <Tmin_units>  (4) 
K

>  <Tmax_value>  (4) 
3000.0

>  <Tmax_units>  (4) 
K

>  <polynomials>  (4) 
[{"name": "polynomial1", "class": "NASAPolynomial", "Tmin_value": 10.0, "Tmin_units": "K", "Tmax_value": 631.511036458598, "Tmax_units": "K", "coeffs": [3.630144501923197, 0.030233799754007962, -1.5729865197854517e-05, 1.0342555122076897e-08, -6.278675853253594e-12, -163130908.91812575, 11.085422231430835]}, {"name": "polynomial2", "class": "NASAPolynomial", "Tmin_value": 631.511036458598, "Tmin_units": "K", "Tmax_value": 3000.0, "Tmax_units": "K", "coeffs": [2.121241242594707, 0.035971217312262126, -2.0284227742328106e-05, 5.57187370145946e-09, -5.981486451043817e-13, -163130642.16838282, 18.274548777693933]}]

>  <H298_value>  (4) 
-324170.22635589016

>  <H298_units>  (4) 
kcal/mol

>  <S298_value>  (4) 
79.79982372204114

>  <S298_units>  (4) 
cal/(mol*K)

>  <Cp_T_value_list>  (4) 
[22.878685143927463, 27.24077654618155, 31.22891087325513, 34.831653006690544, 40.78563883173169, 45.27245080713911, 52.09561404746616, 55.50541234106847, 57.22251846881106]

>  <Cp_T_units>  (4) 
cal/(mol*K)

>  <T_list>  (4) 
[300.0, 400.0, 500.0, 600.0, 800.0, 1000.0, 1500.0, 2000.0, 2400.0]

>  <T_units>  (4) 
K

>  <yaml_path>  (4) 
/home/calvin/Dropbox/PersonalFolders/Calvin/HAb_Converged/rxn_1948/output/Species/rxn_1948_C[C][S]C/rxn_1948_CCSC.yml

>  <frequencies_cm1>  (4) 
[136.00751124791998, 145.49081797484, 227.77790306439996, 252.01836124399998, 317.69420884448, 349.40594705224, 628.3497577359599, 911.91504954004, 945.1100565769199, 959.9015429561998, 985.2063838604, 1047.7989550522, 1210.77998463708, 1266.96565852532, 1390.69500002108, 1406.7156767726399, 1455.1279232786399, 1462.5374004389198, 1466.95287199968, 1477.52802939248, 2689.0427814587997, 2949.1641853804, 2953.29124355772, 3034.22553253924, 3035.0633047482797, 3077.07552093604, 3083.7982995643197]

>  <ZPE_kJmol>  (4) 
232.4682179533116

>  <E_elec_kJmol>  (4) 
-1356579.8816575103

>  <E0_minus_Eelec_plus_ZPE_kJmol>  (4) 
0.0

>  <rxn>  (4) 
rxn_1948

>  <species_type>  (4) 
p1

>  <species_folder>  (4) 
rxn_1948_C[C][S]C

>  <frequencies_cm1_list>  (4) 
[136.00751124791998, 145.49081797484, 227.77790306439996, 252.01836124399998, 317.69420884448, 349.40594705224, 628.3497577359599, 911.91504954004, 945.1100565769199, 959.9015429561998, 985.2063838604, 1047.7989550522, 1210.77998463708, 1266.96565852532, 1390.69500002108, 1406.7156767726399, 1455.1279232786399, 1462.5374004389198, 1466.95287199968, 1477.52802939248, 2689.0427814587997, 2949.1641853804, 2953.29124355772, 3034.22553253924, 3035.0633047482797, 3077.07552093604, 3083.7982995643197]

>  <E0_kJmol>  (4) 
-1.35635e+06

>  <H298_kJmol>  (4) 
-1.35633e+06

$$$$

     RDKit          3D

  7  6  0  0  0  0  0  0  0  0999 V2000
   -0.6904   -0.9066   -0.0346 C   0  0  0  0  0  0  0  0  0  1  0  0
    0.1413    0.0254   -0.6161 C   0  0  0  0  0  0  0  0  0  2  0  0
    0.4603    0.1105   -1.9267 C   0  0  0  0  0  3  0  0  0  3  0  0
    0.8318    0.2180   -3.4201 S   0  0  0  0  0  0  0  0  0  4  0  0
   -0.8731   -0.8770    1.0287 H   0  0  0  0  0  0  0  0  0  5  0  0
   -1.1718   -1.6767   -0.6199 H   0  0  0  0  0  0  0  0  0  6  0  0
    0.6090    0.7866    0.0044 H   0  0  0  0  0  0  0  0  0  7  0  0
  1  5  1  0
  1  6  1  0
  1  2  1  0
  2  7  1  0
  2  3  1  0
  3  4  1  0
M  RAD  1   3   2
M  END
>  <rmg_smiles>  (5) 
[CH2][CH][C][S]

>  <rmg_adjacency_list>  (5) 
multiplicity 2
1 S u0 p2 c0 {4,S}
2 C u0 p0 c0 {3,S} {4,S} {5,S}
3 C u0 p0 c0 {2,S} {6,S} {7,S}
4 C u1 p1 c0 {1,S} {2,S}
5 H u0 p0 c0 {2,S}
6 H u0 p0 c0 {3,S}
7 H u0 p0 c0 {3,S}


>  <multiplicity>  (5) 
2

>  <reaction>  (5) 
rxn_1948

>  <type>  (5) 
r2

>  <role_mapnums>  (5) 
{}

>  <role_mapidx>  (5) 
{}

>  <ordered_mapped_smiles>  (5) 
[CH:1]([CH:2]([CH:3][SH:4])[H:7])([H:5])[H:6]

>  <level_of_theory>  (5) 
wb97xd/def2tzvp

>  <lot_method>  (5) 
wb97xd

>  <lot_basis>  (5) 
def2tzvp

>  <spin_multiplicity>  (5) 
2.0

>  <optical_isomers>  (5) 
1.0

>  <modes>  (5) 
IdealGasTranslation(mass=(70.9955, 'amu')),         NonlinearRotor(             inertia = ([10.5411, 179.005, 189.545

>  <frequency_value>  (5) 
unknown

>  <frequency_units>  (5) 
unknown

>  <frequency_list>  (5) 
unknown

>  <arkane_path>  (5) 
/home/calvin/Dropbox/PersonalFolders/Calvin/HAb_Converged/rxn_1948/output/Species/rxn_1948_C=C[C]=S/arkane/output.py

>  <path_exists>  (5) 
True

>  <E0_value>  (5) 
-1349993.0265723662

>  <E0_units>  (5) 
kJ/mol

>  <thermo_class>  (5) 
NASA

>  <Cp0_value>  (5) 
33.257888

>  <Cp0_units>  (5) 
J/(mol*K)

>  <CpInf_value>  (5) 
157.97496800000002

>  <CpInf_units>  (5) 
J/(mol*K)

>  <Tmin_value>  (5) 
10.0

>  <Tmin_units>  (5) 
K

>  <Tmax_value>  (5) 
3000.0

>  <Tmax_units>  (5) 
K

>  <polynomials>  (5) 
[{"name": "polynomial1", "class": "NASAPolynomial", "Tmin_value": 10.0, "Tmin_units": "K", "Tmax_value": 482.1301665802275, "Tmax_units": "K", "coeffs": [3.9339607670145957, 0.004302096978520193, 8.035838855252611e-05, -1.8150147447629097e-07, 1.2462580155687268e-10, -162366655.6604501, 9.642320969940064]}, {"name": "polynomial2", "class": "NASAPolynomial", "Tmin_value": 482.1301665802275, "Tmin_units": "K", "Tmax_value": 3000.0, "Tmax_units": "K", "coeffs": [3.400427758770762, 0.021645224311717642, -1.37856590531485e-05, 4.244047020172045e-09, -5.028191493369426e-13, -162366754.33756855, 10.270196831946016]}]

>  <H298_value>  (5) 
-322652.55047265504

>  <H298_units>  (5) 
kcal/mol

>  <S298_value>  (5) 
70.64361213735101

>  <S298_units>  (5) 
cal/(mol*K)

>  <Cp_T_value_list>  (5) 
[17.02196180246356, 20.04389454321789, 22.40715394507206, 24.39549126437832, 27.544237618727635, 29.810523671258657, 33.04459736313007, 34.68770283344468, 35.63248721043395]

>  <Cp_T_units>  (5) 
cal/(mol*K)

>  <T_list>  (5) 
[300.0, 400.0, 500.0, 600.0, 800.0, 1000.0, 1500.0, 2000.0, 2400.0]

>  <T_units>  (5) 
K

>  <yaml_path>  (5) 
/home/calvin/Dropbox/PersonalFolders/Calvin/HAb_Converged/rxn_1948/output/Species/rxn_1948_C=C[C]=S/rxn_1948_C=CC=S.yml

>  <frequencies_cm1>  (5) 
[184.57083143095997, 214.92290654536, 515.6487946641199, 562.7082450620801, 730.0017414279199, 762.2216365493599, 843.0666547217199, 1034.47013654608, 1198.8726320921999, 1337.5170657029998, 1487.49889207712, 1626.2463304677199, 3117.87914770748, 3147.4895884073203, 3250.46690026604]

>  <ZPE_kJmol>  (5) 
119.7078354553374

>  <E_elec_kJmol>  (5) 
-1350112.7344078217

>  <E0_minus_Eelec_plus_ZPE_kJmol>  (5) 
0.0

>  <rxn>  (5) 
rxn_1948

>  <species_type>  (5) 
r1

>  <species_folder>  (5) 
rxn_1948_C=C[C]=S

>  <frequencies_cm1_list>  (5) 
[184.57083143095997, 214.92290654536, 515.6487946641199, 562.7082450620801, 730.0017414279199, 762.2216365493599, 843.0666547217199, 1034.47013654608, 1198.8726320921999, 1337.5170657029998, 1487.49889207712, 1626.2463304677199, 3117.87914770748, 3147.4895884073203, 3250.46690026604]

>  <E0_kJmol>  (5) 
-1.34999e+06

>  <H298_kJmol>  (5) 
-1.34998e+06

$$$$
