
     RDKit          3D

  9  8  0  0  0  0  0  0  0  0999 V2000
   -1.3775    1.8216   -0.4710 C   0  0  0  0  0  2  0  0  0  1  0  0
   -0.4799    1.0244   -0.4817 C   0  0  0  0  0  2  0  0  0  2  0  0
    0.6238    0.1229   -0.4804 C   0  0  0  0  0  0  0  0  0  3  0  0
    0.5537   -1.0368    0.3419 C   0  0  0  0  0  2  0  0  0  4  0  0
    0.5841   -1.9728    1.0934 C   0  0  0  0  0  2  0  0  0  5  0  0
   -2.1834    2.5157   -0.4611 H   0  0  0  0  0  0  0  0  0  6  0  0
    1.4355    0.6632    0.0036 H   0  0  0  0  0  0  0  0  0  7  0  0
    1.0760   -0.0381   -1.4574 H   0  0  0  0  0  0  0  0  0  8  0  0
    0.5850   -2.8076    1.7527 H   0  0  0  0  0  0  0  0  0  9  0  0
  1  6  1  0
  1  2  1  0
  2  3  1  0
  3  4  1  0
  3  7  1  0
  3  8  1  0
  4  5  1  0
  5  9  1  0
M  RAD  4   1   3   2   3   4   3   5   3
M  END
>  <rmg_smiles>  (1) 
[CH][C]C[C][CH]

>  <rmg_adjacency_list>  (1) 
1 C u0 p0 c0 {2,S} {3,S} {6,S} {7,S}
2 C u0 p1 c0 {1,S} {4,S}
3 C u0 p1 c0 {1,S} {5,S}
4 C u0 p1 c0 {2,S} {8,S}
5 C u0 p1 c0 {3,S} {9,S}
6 H u0 p0 c0 {1,S}
7 H u0 p0 c0 {1,S}
8 H u0 p0 c0 {4,S}
9 H u0 p0 c0 {5,S}


>  <multiplicity>  (1) 
1

>  <reaction>  (1) 
rxn_1371

>  <type>  (1) 
r1h

>  <role_mapnums>  (1) 
{"r1h_a": 3, "r1h_h": 7}

>  <role_mapidx>  (1) 
{"r1h_a": 2, "r1h_h": 6}

>  <ordered_mapped_smiles>  (1) 
[C:1]([C:2][C:3]([C:4][C:5][H:9])([H:7])[H:8])[H:6]

>  <mol_properties>  (1) 
{"2": {"label": "donator", "atom_type": "Cs"}, "6": {"label": "d_hydrogen", "atom_type": "H0"}}

>  <level_of_theory>  (1) 
wb97xd/def2tzvp

>  <lot_method>  (1) 
wb97xd

>  <lot_basis>  (1) 
def2tzvp

>  <spin_multiplicity>  (1) 
1.0

>  <optical_isomers>  (1) 
1.0

>  <modes>  (1) 
IdealGasTranslation(mass=(64.0313, 'amu')),         NonlinearRotor(             inertia = ([26.0751, 176.474, 199.453

>  <frequency_value>  (1) 
unknown

>  <frequency_units>  (1) 
unknown

>  <frequency_list>  (1) 
unknown

>  <arkane_path>  (1) 
/home/calvin/Dropbox/PersonalFolders/Calvin/HAb_Converged/rxn_1371/output/Species/rxn_1371_CtCCCtC/arkane/output.py

>  <path_exists>  (1) 
True

>  <E0_value>  (1) 
-505987.19351265096

>  <E0_units>  (1) 
kJ/mol

>  <thermo_class>  (1) 
NASA

>  <Cp0_value>  (1) 
33.257888

>  <Cp0_units>  (1) 
J/(mol*K)

>  <CpInf_value>  (1) 
207.8618

>  <CpInf_units>  (1) 
J/(mol*K)

>  <Tmin_value>  (1) 
10.0

>  <Tmin_units>  (1) 
K

>  <Tmax_value>  (1) 
3000.0

>  <Tmax_units>  (1) 
K

>  <polynomials>  (1) 
[{"name": "polynomial1", "class": "NASAPolynomial", "Tmin_value": 10.0, "Tmin_units": "K", "Tmax_value": 497.8513259912737, "Tmax_units": "K", "coeffs": [3.8915923857803536, 0.006957077216274673, 0.00011247108954423451, -2.58415972479989e-07, 1.7696354569532415e-10, -60856199.4251038, 8.432123404375208]}, {"name": "polynomial2", "class": "NASAPolynomial", "Tmin_value": 497.8513259912737, "Tmin_units": "K", "Tmax_value": 3000.0, "Tmax_units": "K", "coeffs": [4.075787334974484, 0.027762889535938477, -1.736147806652233e-05, 5.355292661241066e-09, -6.423462202508128e-13, -60856493.94799508, 4.89821145227154]}]

>  <H298_value>  (1) 
-120929.79228656254

>  <H298_units>  (1) 
kcal/mol

>  <S298_value>  (1) 
71.02155085771051

>  <S298_units>  (1) 
cal/(mol*K)

>  <Cp_T_value_list>  (1) 
[20.979509503559502, 25.16090011310623, 28.30999724146717, 30.91474121272046, 35.081264888538236, 38.134781385911204, 42.68326999943224, 45.150237682434486, 46.5496532279807]

>  <Cp_T_units>  (1) 
cal/(mol*K)

>  <T_list>  (1) 
[300.0, 400.0, 500.0, 600.0, 800.0, 1000.0, 1500.0, 2000.0, 2400.0]

>  <T_units>  (1) 
K

>  <yaml_path>  (1) 
/home/calvin/Dropbox/PersonalFolders/Calvin/HAb_Converged/rxn_1371/output/Species/rxn_1371_CtCCCtC/rxn_1371_CtCCCtC.yml

>  <frequencies_cm1>  (1) 
[136.57060404415998, 317.76287869768, 341.09689481504, 341.70805650852003, 565.30396551304, 688.26420465296, 689.33545436288, 698.59215057424, 701.977574337, 902.24633420948, 929.56320181244, 996.6124464769199, 1233.63331178204, 1332.80631377348, 1444.34675632624, 2232.8002767979997, 2237.0990096083196, 3019.1456327765195, 3054.0230512167996, 3436.67207420316, 3437.69525501584]

>  <ZPE_kJmol>  (1) 
171.88700812582363

>  <E_elec_kJmol>  (1) 
-506159.0805207768

>  <E0_minus_Eelec_plus_ZPE_kJmol>  (1) 
0.0

>  <rxn>  (1) 
rxn_1371

>  <species_type>  (1) 
r0

>  <species_folder>  (1) 
rxn_1371_CtCCCtC

>  <frequencies_cm1_list>  (1) 
[136.57060404415998, 317.76287869768, 341.09689481504, 341.70805650852003, 565.30396551304, 688.26420465296, 689.33545436288, 698.59215057424, 701.977574337, 902.24633420948, 929.56320181244, 996.6124464769199, 1233.63331178204, 1332.80631377348, 1444.34675632624, 2232.8002767979997, 2237.0990096083196, 3019.1456327765195, 3054.0230512167996, 3436.67207420316, 3437.69525501584]

>  <E0_kJmol>  (1) 
-505987

>  <H298_kJmol>  (1) 
-505970

$$$$

     RDKit          3D

 10  9  0  0  0  0  0  0  0  0999 V2000
   -0.5390   -0.4482   -1.8458 H   0  0  0  0  0  0  0  0  0  1  0  0
   -0.3916    1.4992   -1.2195 C   0  0  0  0  0  0  0  0  0  2  0  0
    0.2368    0.1398   -1.3543 C   0  0  0  0  0  0  0  0  0  3  0  0
    0.5025   -0.6766   -0.2003 C   0  0  0  0  0  0  0  0  0  4  0  0
   -0.1245   -0.4716    1.2935 S   0  0  0  0  0  0  0  0  0  5  0  0
   -1.2705    1.4614   -0.5770 H   0  0  0  0  0  0  0  0  0  6  0  0
    0.3167    2.2001   -0.7711 H   0  0  0  0  0  0  0  0  0  7  0  0
   -0.6854    1.8851   -2.1958 H   0  0  0  0  0  0  0  0  0  8  0  0
    1.0048    0.0612   -2.1246 H   0  0  0  0  0  0  0  0  0  9  0  0
    1.1510   -1.5325   -0.3824 H   0  0  0  0  0  0  0  0  0 10  0  0
  1  3  1  0
  2  8  1  0
  2  7  1  0
  2  6  1  0
  2  3  1  0
  3  4  1  0
  3  9  1  0
  4 10  1  0
  4  5  1  0
M  END
>  <rmg_smiles>  (2) 
CC[CH][S]

>  <rmg_adjacency_list>  (2) 
1  S u0 p2 c0 {4,S}
2  C u0 p0 c0 {3,S} {4,S} {5,S} {6,S}
3  C u0 p0 c0 {2,S} {7,S} {8,S} {9,S}
4  C u0 p0 c0 {1,S} {2,S} {10,S}
5  H u0 p0 c0 {2,S}
6  H u0 p0 c0 {2,S}
7  H u0 p0 c0 {3,S}
8  H u0 p0 c0 {3,S}
9  H u0 p0 c0 {3,S}
10 H u0 p0 c0 {4,S}


>  <multiplicity>  (2) 
1

>  <reaction>  (2) 
rxn_1371

>  <type>  (2) 
r2h

>  <role_mapnums>  (2) 
{"r2h_a": 3, "r2h_h": 1}

>  <role_mapidx>  (2) 
{"r2h_a": 2, "r2h_h": 0}

>  <ordered_mapped_smiles>  (2) 
[H:1][C:3]([C:2]([H:6])([H:7])[H:8])([CH:4]([SH:5])[H:10])[H:9]

>  <mol_properties>  (2) 
{"0": {"label": "a_hydrogen", "atom_type": "H0"}, "2": {"label": "acceptor", "atom_type": "Cs"}}

>  <level_of_theory>  (2) 
wb97xd/def2tzvp

>  <lot_method>  (2) 
wb97xd

>  <lot_basis>  (2) 
def2tzvp

>  <spin_multiplicity>  (2) 
1.0

>  <optical_isomers>  (2) 
2.0

>  <modes>  (2) 
IdealGasTranslation(mass=(74.019, 'amu')),         NonlinearRotor(             inertia = ([22.4966, 186.361, 188.795

>  <frequency_value>  (2) 
unknown

>  <frequency_units>  (2) 
unknown

>  <frequency_list>  (2) 
unknown

>  <arkane_path>  (2) 
/home/calvin/Dropbox/PersonalFolders/Calvin/HAb_Converged/rxn_1371/output/Species/rxn_1371_CCC=S/arkane/output.py

>  <path_exists>  (2) 
True

>  <E0_value>  (2) 
-1354842.217301763

>  <E0_units>  (2) 
kJ/mol

>  <thermo_class>  (2) 
NASA

>  <Cp0_value>  (2) 
33.257888

>  <Cp0_units>  (2) 
J/(mol*K)

>  <CpInf_value>  (2) 
232.805216

>  <CpInf_units>  (2) 
J/(mol*K)

>  <Tmin_value>  (2) 
10.0

>  <Tmin_units>  (2) 
K

>  <Tmax_value>  (2) 
3000.0

>  <Tmax_units>  (2) 
K

>  <polynomials>  (2) 
[{"name": "polynomial1", "class": "NASAPolynomial", "Tmin_value": 10.0, "Tmin_units": "K", "Tmax_value": 1013.5613876204479, "Tmax_units": "K", "coeffs": [3.938264474030978, 0.013958577362371608, 2.4928299834323208e-05, -3.437968169284249e-08, 1.1996855715308475e-11, -162949884.83258396, 10.036718283867241]}, {"name": "polynomial2", "class": "NASAPolynomial", "Tmin_value": 1013.5613876204479, "Tmin_units": "K", "Tmax_value": 3000.0, "Tmax_units": "K", "coeffs": [3.4971174702987913, 0.02812100302113746, -1.4413974403757785e-05, 3.5888447591702137e-09, -3.50645414543858e-13, -162950433.43848506, 9.023464985603324]}]

>  <H298_value>  (2) 
-323811.1931375839

>  <H298_units>  (2) 
kcal/mol

>  <S298_value>  (2) 
74.44131966579386

>  <S298_units>  (2) 
cal/(mol*K)

>  <Cp_T_value_list>  (2) 
[18.95458725520134, 23.085463908908388, 27.029925960895593, 30.63553072981776, 36.506480449108224, 40.62310264010602, 46.867049640781964, 50.04512758032496, 51.55141314203573]

>  <Cp_T_units>  (2) 
cal/(mol*K)

>  <T_list>  (2) 
[300.0, 400.0, 500.0, 600.0, 800.0, 1000.0, 1500.0, 2000.0, 2400.0]

>  <T_units>  (2) 
K

>  <yaml_path>  (2) 
/home/calvin/Dropbox/PersonalFolders/Calvin/HAb_Converged/rxn_1371/output/Species/rxn_1371_CCC=S/rxn_1371_CCC=S.yml

>  <frequencies_cm1>  (2) 
[74.28704719176, 221.72122201215998, 335.63077450031994, 396.89115054004003, 760.5804270578799, 844.8108689929999, 880.5466605982799, 995.2665173541999, 1070.3913367549999, 1106.71082211248, 1174.46736626492, 1258.5398675376798, 1308.6619933883599, 1395.2272103322798, 1411.9963884837198, 1463.1416951470799, 1484.2233400794798, 1490.93925172244, 3001.8614307260796, 3019.9765380002395, 3047.92516825264, 3080.3167380070795, 3099.9288480809996, 3104.5915311132794]

>  <ZPE_kJmol>  (2) 
215.4991505651017

>  <E_elec_kJmol>  (2) 
-1355057.716452328

>  <E0_minus_Eelec_plus_ZPE_kJmol>  (2) 
0.0

>  <rxn>  (2) 
rxn_1371

>  <species_type>  (2) 
p0

>  <species_folder>  (2) 
rxn_1371_CCC=S

>  <frequencies_cm1_list>  (2) 
[74.28704719176, 221.72122201215998, 335.63077450031994, 396.89115054004003, 760.5804270578799, 844.8108689929999, 880.5466605982799, 995.2665173541999, 1070.3913367549999, 1106.71082211248, 1174.46736626492, 1258.5398675376798, 1308.6619933883599, 1395.2272103322798, 1411.9963884837198, 1463.1416951470799, 1484.2233400794798, 1490.93925172244, 3001.8614307260796, 3019.9765380002395, 3047.92516825264, 3080.3167380070795, 3099.9288480809996, 3104.5915311132794]

>  <E0_kJmol>  (2) 
-1.35484e+06

>  <H298_kJmol>  (2) 
-1.35483e+06

$$$$

     RDKit          3D

 18 16  0  0  0  0  0  0  0  0999 V2000
   -2.9049    0.7292   -0.4981 C   0  0  0  0  0  0  0  0  0  1  0  0
   -2.0073   -0.0681   -0.5088 C   0  0  0  0  0  0  0  0  0  2  0  0
   -0.9035   -0.9695   -0.5075 C   0  0  0  0  0  3  0  0  0  3  0  0
   -0.9737   -2.1293    0.3148 C   0  0  0  0  0  0  0  0  0  4  0  0
   -0.9433   -3.0652    1.0663 C   0  0  0  0  0  0  0  0  0  5  0  0
   -3.7108    1.4233   -0.4882 H   0  0  0  0  0  0  0  0  0  6  0  0
    0.1352   -0.2781    0.1119 H   0  0  0  0  0  0  0  0  0  7  0  0
   -0.4514   -1.1306   -1.4845 H   0  0  0  0  0  0  0  0  0  8  0  0
   -0.9424   -3.9001    1.7256 H   0  0  0  0  0  0  0  0  0  9  0  0
    0.4495    1.7958    0.8439 C   0  0  0  0  0  0  0  0  0 10  0  0
    1.0779    0.4364    0.7091 C   0  0  0  0  0  0  0  0  0 11  0  0
    1.3435   -0.3800    1.8631 C   0  0  0  0  0  0  0  0  0 12  0  0
    0.7165   -0.1750    3.3569 S   0  0  0  0  0  0  0  0  0 13  0  0
   -0.4294    1.7580    1.4864 H   0  0  0  0  0  0  0  0  0 14  0  0
    1.1577    2.4967    1.2923 H   0  0  0  0  0  0  0  0  0 15  0  0
    0.1557    2.1817   -0.1324 H   0  0  0  0  0  0  0  0  0 16  0  0
    1.8459    0.3578   -0.0612 H   0  0  0  0  0  0  0  0  0 17  0  0
    1.9921   -1.2359    1.6810 H   0  0  0  0  0  0  0  0  0 18  0  0
  1  6  1  0
  1  2  1  0
  2  3  1  0
  3  4  1  0
  3  8  1  0
  4  5  1  0
  5  9  1  0
  7 11  1  0
 10 16  1  0
 10 14  1  0
 10 11  1  0
 10 15  1  0
 11 12  1  0
 11 17  1  0
 12 18  1  0
 12 13  1  0
M  RAD  1   3   2
M  END
>  <rmg_smiles>  (3) 
[CH][C][CH][C][CH].CC[CH][S]

>  <rmg_adjacency_list>  (3) 
multiplicity 2
1  S u0 p2 c0 {4,S}
2  C u0 p0 c0 {3,S} {4,S} {10,S} {11,S}
3  C u0 p0 c0 {2,S} {12,S} {13,S} {14,S}
4  C u0 p0 c0 {1,S} {2,S} {15,S}
5  C u1 p0 c0 {6,S} {7,S} {16,S}
6  C u0 p1 c0 {5,S} {8,S}
7  C u0 p1 c0 {5,S} {9,S}
8  C u0 p1 c0 {6,S} {17,S}
9  C u0 p1 c0 {7,S} {18,S}
10 H u0 p0 c0 {2,S}
11 H u0 p0 c0 {2,S}
12 H u0 p0 c0 {3,S}
13 H u0 p0 c0 {3,S}
14 H u0 p0 c0 {3,S}
15 H u0 p0 c0 {4,S}
16 H u0 p0 c0 {5,S}
17 H u0 p0 c0 {8,S}
18 H u0 p0 c0 {9,S}


>  <multiplicity>  (3) 
2

>  <reaction>  (3) 
rxn_1371

>  <type>  (3) 
ts

>  <role_mapnums>  (3) 
{"*2": 7, "*1": 3, "*3": 11, "*0": 12, "*4": 2}

>  <role_mapidx>  (3) 
{"*2": 6, "*1": 2, "*3": 10, "*0": 11, "*4": 1}

>  <ordered_mapped_smiles>  (3) 
[CH2:1]([CH2:2][C:3]([CH2:4][CH2:5][H:9])[H:8])[H:6].[H:7][C:11]([C:10]([H:14])([H:15])[H:16])([CH:12]([SH:13])[H:18])[H:17]

>  <mol_properties>  (3) 
{"1": {"label": "*4", "atom_type": "C2s"}, "2": {"label": "*1", "atom_type": "Cs"}, "6": {"label": "*2", "atom_type": "H0"}, "10": {"label": "*3", "atom_type": "Cs"}, "11": {"label": "*0", "atom_type": "Cs"}}

>  <level_of_theory>  (3) 
wb97xd/def2tzvp

>  <lot_method>  (3) 
wb97xd

>  <lot_basis>  (3) 
def2tzvp

>  <spin_multiplicity>  (3) 
2.0

>  <optical_isomers>  (3) 
2.0

>  <modes>  (3) 
IdealGasTranslation(mass=(137.042, 'amu')),         NonlinearRotor(             inertia = ([326.852, 535.37, 705.393

>  <frequency_value>  (3) 
-1786.86

>  <frequency_units>  (3) 
cm^-1

>  <frequency_list>  (3) 
unknown

>  <arkane_path>  (3) 
/home/calvin/Dropbox/PersonalFolders/Calvin/HAb_Converged/rxn_1371/output/rxns/TS0/arkane/output.py

>  <path_exists>  (3) 
True

>  <E0_value>  (3) 
-1859120.0

>  <E0_units>  (3) 
kJ/mol

>  <thermo_class>  (3) 
unknown

>  <Cp0_value>  (3) 
unknown

>  <Cp0_units>  (3) 
unknown

>  <CpInf_value>  (3) 
unknown

>  <CpInf_units>  (3) 
unknown

>  <Tmin_value>  (3) 
unknown

>  <Tmin_units>  (3) 
unknown

>  <Tmax_value>  (3) 
unknown

>  <Tmax_units>  (3) 
unknown

>  <polynomials>  (3) 
unknown

>  <H298_value>  (3) 
unknown

>  <H298_units>  (3) 
unknown

>  <S298_value>  (3) 
unknown

>  <S298_units>  (3) 
unknown

>  <Cp_T_value_list>  (3) 
unknown

>  <Cp_T_units>  (3) 
unknown

>  <T_list>  (3) 
unknown

>  <T_units>  (3) 
unknown

>  <yaml_path>  (3) 
unknown

>  <frequencies_cm1>  (3) 
unknown

>  <ZPE_kJmol>  (3) 
unknown

>  <E_elec_kJmol>  (3) 
unknown

>  <E0_minus_Eelec_plus_ZPE_kJmol>  (3) 
unknown

>  <rxn>  (3) 
unknown

>  <species_type>  (3) 
unknown

>  <species_folder>  (3) 
unknown

>  <frequencies_cm1_list>  (3) 
[]

>  <ts_imag_freq_cm1>  (3) 
-1808.5624

>  <ts_freq_out_path>  (3) 
/home/calvin/Dropbox/PersonalFolders/Calvin/HAb_Converged/rxn_1371/output/rxns/TS0/geometry/freq.out

>  <E0_kJmol>  (3) 
-1.85912e+06

>  <H298_kJmol>  (3) 
unknown

$$$$

     RDKit          3D

  8  7  0  0  0  0  0  0  0  0999 V2000
   -2.2129    0.4855    0.7390 C   0  0  0  0  0  0  0  0  0  1  0  0
   -1.2226    0.0526    0.1974 C   0  0  0  0  0  0  0  0  0  2  0  0
   -0.1006   -0.4575   -0.4419 C   0  0  0  0  0  3  0  0  0  3  0  0
    1.1960   -0.1737   -0.0342 C   0  0  0  0  0  0  0  0  0  4  0  0
    2.3329    0.0603    0.3036 C   0  0  0  0  0  0  0  0  0  5  0  0
   -3.0803    0.8696    1.2198 H   0  0  0  0  0  0  0  0  0  6  0  0
   -0.2433   -1.1067   -1.2980 H   0  0  0  0  0  0  0  0  0  7  0  0
    3.3308    0.2700    0.6058 H   0  0  0  0  0  0  0  0  0  8  0  0
  1  6  1  0
  1  2  1  0
  2  3  1  0
  3  4  1  0
  3  7  1  0
  4  5  1  0
  5  8  1  0
M  RAD  1   3   2
M  END
>  <rmg_smiles>  (4) 
[CH]C[CH]C[CH]

>  <rmg_adjacency_list>  (4) 
multiplicity 2
1 C u1 p0 c0 {2,S} {3,S} {6,S}
2 C u0 p1 c0 {1,S} {4,S}
3 C u0 p1 c0 {1,S} {5,S}
4 C u0 p1 c0 {2,S} {7,S}
5 C u0 p1 c0 {3,S} {8,S}
6 H u0 p0 c0 {1,S}
7 H u0 p0 c0 {4,S}
8 H u0 p0 c0 {5,S}


>  <multiplicity>  (4) 
2

>  <reaction>  (4) 
rxn_1371

>  <type>  (4) 
r1

>  <role_mapnums>  (4) 
{}

>  <role_mapidx>  (4) 
{}

>  <ordered_mapped_smiles>  (4) 
[CH2:1]([CH2:2][C:3]([CH2:4][CH2:5][H:8])[H:7])[H:6]

>  <level_of_theory>  (4) 
wb97xd/def2tzvp

>  <lot_method>  (4) 
wb97xd

>  <lot_basis>  (4) 
def2tzvp

>  <spin_multiplicity>  (4) 
2.0

>  <optical_isomers>  (4) 
1.0

>  <modes>  (4) 
IdealGasTranslation(mass=(63.0235, 'amu')),         NonlinearRotor(             inertia = ([17.4877, 183.017, 200.505

>  <frequency_value>  (4) 
unknown

>  <frequency_units>  (4) 
unknown

>  <frequency_list>  (4) 
unknown

>  <arkane_path>  (4) 
/home/calvin/Dropbox/PersonalFolders/Calvin/HAb_Converged/rxn_1371/output/Species/rxn_1371_CtC[CH]CtC/arkane/output.py

>  <path_exists>  (4) 
True

>  <E0_value>  (4) 
-504350.2602594301

>  <E0_units>  (4) 
kJ/mol

>  <thermo_class>  (4) 
NASA

>  <Cp0_value>  (4) 
33.257888

>  <Cp0_units>  (4) 
J/(mol*K)

>  <CpInf_value>  (4) 
182.918384

>  <CpInf_units>  (4) 
J/(mol*K)

>  <Tmin_value>  (4) 
10.0

>  <Tmin_units>  (4) 
K

>  <Tmax_value>  (4) 
3000.0

>  <Tmax_units>  (4) 
K

>  <polynomials>  (4) 
[{"name": "polynomial1", "class": "NASAPolynomial", "Tmin_value": 10.0, "Tmin_units": "K", "Tmax_value": 511.3919089489883, "Tmax_units": "K", "coeffs": [3.8659954757573973, 0.008525616172306112, 0.00010836986673963408, -2.626119315958765e-07, 1.8230598905311024e-10, -60659320.69120562, 8.776064020238547]}, {"name": "polynomial2", "class": "NASAPolynomial", "Tmin_value": 511.3919089489883, "Tmin_units": "K", "Tmax_value": 3000.0, "Tmax_units": "K", "coeffs": [5.628254952966442, 0.022649494843224656, -1.4916539685924306e-05, 4.8216558906608004e-09, -6.002662773476099e-13, -60659865.858327985, -2.111983316915381]}]

>  <H298_value>  (4) 
-120538.51368508991

>  <H298_units>  (4) 
kcal/mol

>  <S298_value>  (4) 
71.92961318485641

>  <S298_units>  (4) 
cal/(mol*K)

>  <Cp_T_value_list>  (4) 
[20.99111005886384, 24.790978026499133, 27.40139790751197, 29.433868246293493, 32.638046849521324, 34.940256474405714, 38.30245845445545, 40.20133175263048, 41.34770744760823]

>  <Cp_T_units>  (4) 
cal/(mol*K)

>  <T_list>  (4) 
[300.0, 400.0, 500.0, 600.0, 800.0, 1000.0, 1500.0, 2000.0, 2400.0]

>  <T_units>  (4) 
K

>  <yaml_path>  (4) 
/home/calvin/Dropbox/PersonalFolders/Calvin/HAb_Converged/rxn_1371/output/Species/rxn_1371_CtC[CH]CtC/rxn_1371_CtCCHCtC.yml

>  <frequencies_cm1>  (4) 
[140.92427273703998, 354.42571332116, 356.18366156308, 383.39752438624004, 580.9812929985999, 582.4370938864399, 598.9659275516799, 670.81519495484, 678.8701687352, 681.5894949219199, 955.0809192615599, 1115.22588390928, 1366.0425227222797, 2023.89971637828, 2119.4194821794795, 3149.0140591483596, 3426.6737435772397, 3430.6016591802795]

>  <ZPE_kJmol>  (4) 
135.26507637113028

>  <E_elec_kJmol>  (4) 
-504485.5253358012

>  <E0_minus_Eelec_plus_ZPE_kJmol>  (4) 
0.0

>  <rxn>  (4) 
rxn_1371

>  <species_type>  (4) 
p1

>  <species_folder>  (4) 
rxn_1371_CtC[CH]CtC

>  <frequencies_cm1_list>  (4) 
[140.92427273703998, 354.42571332116, 356.18366156308, 383.39752438624004, 580.9812929985999, 582.4370938864399, 598.9659275516799, 670.81519495484, 678.8701687352, 681.5894949219199, 955.0809192615599, 1115.22588390928, 1366.0425227222797, 2023.89971637828, 2119.4194821794795, 3149.0140591483596, 3426.6737435772397, 3430.6016591802795]

>  <E0_kJmol>  (4) 
-504350

>  <H298_kJmol>  (4) 
-504333

$$$$

     RDKit          3D

  9  8  0  0  0  0  0  0  0  0999 V2000
   -1.2704   -0.1236    0.1096 C   0  0  0  0  0  0  0  0  0  1  0  0
    0.0713   -0.5323    0.5887 C   0  0  0  0  0  0  0  0  0  2  0  0
    0.9521   -1.3639   -0.0464 C   0  0  0  0  0  0  0  0  0  3  0  0
    0.6900   -2.1109   -1.5335 S   0  0  0  0  0  1  0  0  0  4  0  0
   -1.3201    0.9657    0.0241 H   0  0  0  0  0  0  0  0  0  5  0  0
   -1.5103   -0.5706   -0.8526 H   0  0  0  0  0  0  0  0  0  6  0  0
   -2.0312   -0.4112    0.8411 H   0  0  0  0  0  0  0  0  0  7  0  0
    0.3863   -0.1265    1.5468 H   0  0  0  0  0  0  0  0  0  8  0  0
    1.8971   -1.5543    0.4552 H   0  0  0  0  0  0  0  0  0  9  0  0
  1  5  1  0
  1  7  1  0
  1  6  1  0
  1  2  1  0
  2  8  1  0
  2  3  1  0
  3  9  1  0
  3  4  1  0
M  RAD  1   4   2
M  END
>  <rmg_smiles>  (5) 
C[CH][CH][S]

>  <rmg_adjacency_list>  (5) 
multiplicity 2
1 S u1 p2 c0 {4,S}
2 C u0 p0 c0 {3,S} {5,S} {6,S} {7,S}
3 C u0 p0 c0 {2,S} {4,S} {8,S}
4 C u0 p0 c0 {1,S} {3,S} {9,S}
5 H u0 p0 c0 {2,S}
6 H u0 p0 c0 {2,S}
7 H u0 p0 c0 {2,S}
8 H u0 p0 c0 {3,S}
9 H u0 p0 c0 {4,S}


>  <multiplicity>  (5) 
2

>  <reaction>  (5) 
rxn_1371

>  <type>  (5) 
r2

>  <role_mapnums>  (5) 
{}

>  <role_mapidx>  (5) 
{}

>  <ordered_mapped_smiles>  (5) 
[C:1]([CH:2]([CH:3]([S:4])[H:9])[H:8])([H:5])([H:6])[H:7]

>  <level_of_theory>  (5) 
wb97xd/def2tzvp

>  <lot_method>  (5) 
wb97xd

>  <lot_basis>  (5) 
def2tzvp

>  <spin_multiplicity>  (5) 
2.0

>  <optical_isomers>  (5) 
1.0

>  <modes>  (5) 
IdealGasTranslation(mass=(73.0112, 'amu')),         NonlinearRotor(             inertia = ([33.6944, 136.887, 167.488

>  <frequency_value>  (5) 
unknown

>  <frequency_units>  (5) 
unknown

>  <frequency_list>  (5) 
unknown

>  <arkane_path>  (5) 
/home/calvin/Dropbox/PersonalFolders/Calvin/HAb_Converged/rxn_1371/output/Species/rxn_1371_C[CH]C=S/arkane/output.py

>  <path_exists>  (5) 
True

>  <E0_value>  (5) 
-1353215.6281101538

>  <E0_units>  (5) 
kJ/mol

>  <thermo_class>  (5) 
NASA

>  <Cp0_value>  (5) 
33.257888

>  <Cp0_units>  (5) 
J/(mol*K)

>  <CpInf_value>  (5) 
207.8618

>  <CpInf_units>  (5) 
J/(mol*K)

>  <Tmin_value>  (5) 
10.0

>  <Tmin_units>  (5) 
K

>  <Tmax_value>  (5) 
3000.0

>  <Tmax_units>  (5) 
K

>  <polynomials>  (5) 
[{"name": "polynomial1", "class": "NASAPolynomial", "Tmin_value": 10.0, "Tmin_units": "K", "Tmax_value": 725.9670831251275, "Tmax_units": "K", "coeffs": [3.8816748203713503, 0.011298408175925107, 3.675471007626225e-05, -5.977324289779361e-08, 2.695700402648573e-11, -162754245.86998293, 10.102760819727918]}, {"name": "polynomial2", "class": "NASAPolynomial", "Tmin_value": 725.9670831251275, "Tmin_units": "K", "Tmax_value": 3000.0, "Tmax_units": "K", "coeffs": [2.113334188366536, 0.02911249006728392, -1.6728703347228576e-05, 4.6550260025625346e-09, -5.035736545429853e-13, -162754201.7933275, 16.602901379195625]}]

>  <H298_value>  (5) 
-323422.5645571532

>  <H298_units>  (5) 
kcal/mol

>  <S298_value>  (5) 
73.01356091694491

>  <S298_units>  (5) 
cal/(mol*K)

>  <Cp_T_value_list>  (5) 
[18.249700390386565, 22.1502054191087, 25.699972971809594, 28.76485903066641, 33.53225294606782, 37.05856600875504, 42.33516489554981, 44.92384433755821, 46.24168569821556]

>  <Cp_T_units>  (5) 
cal/(mol*K)

>  <T_list>  (5) 
[300.0, 400.0, 500.0, 600.0, 800.0, 1000.0, 1500.0, 2000.0, 2400.0]

>  <T_units>  (5) 
K

>  <yaml_path>  (5) 
/home/calvin/Dropbox/PersonalFolders/Calvin/HAb_Converged/rxn_1371/output/Species/rxn_1371_C[CH]C=S/rxn_1371_CCHC=S.yml

>  <frequencies_cm1>  (5) 
[111.67778225915998, 241.84835598508, 328.91486285736, 569.66450119124, 701.4282155114, 825.4665713465598, 919.54427023056, 945.2817312099198, 1036.1937498614, 1093.82149066684, 1239.0307622435598, 1356.916299232, 1389.82289288544, 1434.05314533156, 1462.16658323164, 1523.85957934652, 3007.1696103784398, 3060.1209341809595, 3105.60097795532, 3123.1735933892, 3133.0620522499994]

>  <ZPE_kJmol>  (5) 
183.08144113792287

>  <E_elec_kJmol>  (5) 
-1353398.7095512918

>  <E0_minus_Eelec_plus_ZPE_kJmol>  (5) 
0.0

>  <rxn>  (5) 
rxn_1371

>  <species_type>  (5) 
r1

>  <species_folder>  (5) 
rxn_1371_C[CH]C=S

>  <frequencies_cm1_list>  (5) 
[111.67778225915998, 241.84835598508, 328.91486285736, 569.66450119124, 701.4282155114, 825.4665713465598, 919.54427023056, 945.2817312099198, 1036.1937498614, 1093.82149066684, 1239.0307622435598, 1356.916299232, 1389.82289288544, 1434.05314533156, 1462.16658323164, 1523.85957934652, 3007.1696103784398, 3060.1209341809595, 3105.60097795532, 3123.1735933892, 3133.0620522499994]

>  <E0_kJmol>  (5) 
-1.35322e+06

>  <H298_kJmol>  (5) 
-1.3532e+06

$$$$
