
     RDKit          3D

  9  8  0  0  0  0  0  0  0  0999 V2000
   -1.9008    1.2715    0.4744 C   0  0  0  0  0  2  0  0  0  1  0  0
   -0.8431    0.8942    0.0473 C   0  0  0  0  0  2  0  0  0  2  0  0
    0.4388    0.5000   -0.4270 C   0  0  0  0  0  0  0  0  0  3  0  0
    0.8890   -0.8260   -0.1728 C   0  0  0  0  0  2  0  0  0  4  0  0
    1.3376   -1.9120    0.0749 C   0  0  0  0  0  2  0  0  0  5  0  0
   -2.8486    1.5888    0.8383 H   0  0  0  0  0  0  0  0  0  6  0  0
    1.1470    1.0871    0.1554 H   0  0  0  0  0  0  0  0  0  7  0  0
    0.7140    0.8998   -1.4016 H   0  0  0  0  0  0  0  0  0  8  0  0
    1.7135   -2.8867    0.2751 H   0  0  0  0  0  0  0  0  0  9  0  0
  1  6  1  0
  1  2  1  0
  2  3  1  0
  3  4  1  0
  3  7  1  0
  3  8  1  0
  4  5  1  0
  5  9  1  0
M  RAD  4   1   3   2   3   4   3   5   3
M  END
>  <rmg_smiles>  (1) 
[CH][C]C[C][CH]

>  <rmg_adjacency_list>  (1) 
1 C u0 p0 c0 {2,S} {3,S} {6,S} {7,S}
2 C u0 p1 c0 {1,S} {4,S}
3 C u0 p1 c0 {1,S} {5,S}
4 C u0 p1 c0 {2,S} {8,S}
5 C u0 p1 c0 {3,S} {9,S}
6 H u0 p0 c0 {1,S}
7 H u0 p0 c0 {1,S}
8 H u0 p0 c0 {4,S}
9 H u0 p0 c0 {5,S}


>  <multiplicity>  (1) 
1

>  <reaction>  (1) 
rxn_1372

>  <type>  (1) 
r1h

>  <role_mapnums>  (1) 
{"r1h_a": 3, "r1h_h": 7}

>  <role_mapidx>  (1) 
{"r1h_a": 2, "r1h_h": 6}

>  <ordered_mapped_smiles>  (1) 
[C:1]([C:2][C:3]([C:4][C:5][H:9])([H:7])[H:8])[H:6]

>  <mol_properties>  (1) 
{"2": {"label": "donator", "atom_type": "Cs"}, "6": {"label": "d_hydrogen", "atom_type": "H0"}}

>  <level_of_theory>  (1) 
wb97xd/def2tzvp

>  <lot_method>  (1) 
wb97xd

>  <lot_basis>  (1) 
def2tzvp

>  <spin_multiplicity>  (1) 
1.0

>  <optical_isomers>  (1) 
1.0

>  <modes>  (1) 
IdealGasTranslation(mass=(64.0313, 'amu')),         NonlinearRotor(             inertia = ([26.0751, 176.474, 199.453

>  <frequency_value>  (1) 
unknown

>  <frequency_units>  (1) 
unknown

>  <frequency_list>  (1) 
unknown

>  <arkane_path>  (1) 
/home/calvin/Dropbox/PersonalFolders/Calvin/HAb_Converged/rxn_1372/output/Species/rxn_1372_CtCCCtC/arkane/output.py

>  <path_exists>  (1) 
True

>  <E0_value>  (1) 
-505987.19351265096

>  <E0_units>  (1) 
kJ/mol

>  <thermo_class>  (1) 
NASA

>  <Cp0_value>  (1) 
33.257888

>  <Cp0_units>  (1) 
J/(mol*K)

>  <CpInf_value>  (1) 
207.8618

>  <CpInf_units>  (1) 
J/(mol*K)

>  <Tmin_value>  (1) 
10.0

>  <Tmin_units>  (1) 
K

>  <Tmax_value>  (1) 
3000.0

>  <Tmax_units>  (1) 
K

>  <polynomials>  (1) 
[{"name": "polynomial1", "class": "NASAPolynomial", "Tmin_value": 10.0, "Tmin_units": "K", "Tmax_value": 497.8513259912737, "Tmax_units": "K", "coeffs": [3.8915923857803536, 0.006957077216274673, 0.00011247108954423451, -2.58415972479989e-07, 1.7696354569532415e-10, -60856199.4251038, 8.432123404375208]}, {"name": "polynomial2", "class": "NASAPolynomial", "Tmin_value": 497.8513259912737, "Tmin_units": "K", "Tmax_value": 3000.0, "Tmax_units": "K", "coeffs": [4.075787334974484, 0.027762889535938477, -1.736147806652233e-05, 5.355292661241066e-09, -6.423462202508128e-13, -60856493.94799508, 4.89821145227154]}]

>  <H298_value>  (1) 
-120929.79228656254

>  <H298_units>  (1) 
kcal/mol

>  <S298_value>  (1) 
71.02155085771051

>  <S298_units>  (1) 
cal/(mol*K)

>  <Cp_T_value_list>  (1) 
[20.979509503559502, 25.16090011310623, 28.30999724146717, 30.91474121272046, 35.081264888538236, 38.134781385911204, 42.68326999943224, 45.150237682434486, 46.5496532279807]

>  <Cp_T_units>  (1) 
cal/(mol*K)

>  <T_list>  (1) 
[300.0, 400.0, 500.0, 600.0, 800.0, 1000.0, 1500.0, 2000.0, 2400.0]

>  <T_units>  (1) 
K

>  <yaml_path>  (1) 
/home/calvin/Dropbox/PersonalFolders/Calvin/HAb_Converged/rxn_1372/output/Species/rxn_1372_CtCCCtC/rxn_1372_CtCCCtC.yml

>  <frequencies_cm1>  (1) 
[136.57060404415998, 317.76287869768, 341.09689481504, 341.70805650852003, 565.30396551304, 688.26420465296, 689.33545436288, 698.59215057424, 701.977574337, 902.24633420948, 929.56320181244, 996.6124464769199, 1233.63331178204, 1332.80631377348, 1444.34675632624, 2232.8002767979997, 2237.0990096083196, 3019.1456327765195, 3054.0230512167996, 3436.67207420316, 3437.69525501584]

>  <ZPE_kJmol>  (1) 
171.88700812582363

>  <E_elec_kJmol>  (1) 
-506159.0805207768

>  <E0_minus_Eelec_plus_ZPE_kJmol>  (1) 
0.0

>  <rxn>  (1) 
rxn_1372

>  <species_type>  (1) 
r0

>  <species_folder>  (1) 
rxn_1372_CtCCCtC

>  <frequencies_cm1_list>  (1) 
[136.57060404415998, 317.76287869768, 341.09689481504, 341.70805650852003, 565.30396551304, 688.26420465296, 689.33545436288, 698.59215057424, 701.977574337, 902.24633420948, 929.56320181244, 996.6124464769199, 1233.63331178204, 1332.80631377348, 1444.34675632624, 2232.8002767979997, 2237.0990096083196, 3019.1456327765195, 3054.0230512167996, 3436.67207420316, 3437.69525501584]

>  <E0_kJmol>  (1) 
-505987

>  <H298_kJmol>  (1) 
-505970

$$$$

     RDKit          3D

 13 12  0  0  0  0  0  0  0  0999 V2000
   -1.4454   -0.7979   -0.1730 H   0  0  0  0  0  0  0  0  0  1  0  0
    1.3949    0.0656   -1.1326 S   0  0  0  0  0  0  0  0  0  2  0  0
    0.4775   -0.5944    0.0392 C   0  0  0  0  0  0  0  0  0  3  0  0
   -0.8382   -0.1620    0.4712 C   0  0  0  0  0  0  0  0  0  4  0  0
   -1.2709   -0.6392    1.8403 C   0  0  0  0  0  0  0  0  0  5  0  0
   -1.3149    1.2177    0.0926 C   0  0  0  0  0  0  0  0  0  6  0  0
    0.8374   -1.4957    0.5371 H   0  0  0  0  0  0  0  0  0  7  0  0
   -0.8197   -0.0185    2.6193 H   0  0  0  0  0  0  0  0  0  8  0  0
   -2.3551   -0.5697    1.9442 H   0  0  0  0  0  0  0  0  0  9  0  0
   -0.9754   -1.6751    2.0130 H   0  0  0  0  0  0  0  0  0 10  0  0
   -2.3950    1.2932    0.2279 H   0  0  0  0  0  0  0  0  0 11  0  0
   -1.0622    1.4568   -0.9392 H   0  0  0  0  0  0  0  0  0 12  0  0
   -0.8386    1.9657    0.7323 H   0  0  0  0  0  0  0  0  0 13  0  0
  1  4  1  0
  2  3  1  0
  3  4  1  0
  3  7  1  0
  4  5  1  0
  4  6  1  0
  5  8  1  0
  5  9  1  0
  5 10  1  0
  6 13  1  0
  6 11  1  0
  6 12  1  0
M  END
>  <rmg_smiles>  (2) 
[S][CH]C(C)C

>  <rmg_adjacency_list>  (2) 
1  S u0 p2 c0 {5,S}
2  C u0 p0 c0 {3,S} {4,S} {5,S} {6,S}
3  C u0 p0 c0 {2,S} {7,S} {8,S} {9,S}
4  C u0 p0 c0 {2,S} {10,S} {11,S} {12,S}
5  C u0 p0 c0 {1,S} {2,S} {13,S}
6  H u0 p0 c0 {2,S}
7  H u0 p0 c0 {3,S}
8  H u0 p0 c0 {3,S}
9  H u0 p0 c0 {3,S}
10 H u0 p0 c0 {4,S}
11 H u0 p0 c0 {4,S}
12 H u0 p0 c0 {4,S}
13 H u0 p0 c0 {5,S}


>  <multiplicity>  (2) 
1

>  <reaction>  (2) 
rxn_1372

>  <type>  (2) 
r2h

>  <role_mapnums>  (2) 
{"r2h_a": 4, "r2h_h": 1}

>  <role_mapidx>  (2) 
{"r2h_a": 3, "r2h_h": 0}

>  <ordered_mapped_smiles>  (2) 
[H:1][C:4]([CH:3]([SH:2])[H:7])([C:5]([H:8])([H:9])[H:10])[C:6]([H:11])([H:12])[H:13]

>  <mol_properties>  (2) 
{"0": {"label": "a_hydrogen", "atom_type": "H0"}, "3": {"label": "acceptor", "atom_type": "Cs"}}

>  <level_of_theory>  (2) 
wb97xd/def2tzvp

>  <lot_method>  (2) 
wb97xd

>  <lot_basis>  (2) 
def2tzvp

>  <spin_multiplicity>  (2) 
1.0

>  <optical_isomers>  (2) 
2.0

>  <modes>  (2) 
IdealGasTranslation(mass=(88.0347, 'amu')),         NonlinearRotor(             inertia = ([69.6476, 205.177, 249.287

>  <frequency_value>  (2) 
unknown

>  <frequency_units>  (2) 
unknown

>  <frequency_list>  (2) 
unknown

>  <arkane_path>  (2) 
/home/calvin/Dropbox/PersonalFolders/Calvin/HAb_Converged/rxn_1372/output/Species/rxn_1372_S=CC[C]C/arkane/output.py

>  <path_exists>  (2) 
True

>  <E0_value>  (2) 
-1457998.5982336933

>  <E0_units>  (2) 
kJ/mol

>  <thermo_class>  (2) 
NASA

>  <Cp0_value>  (2) 
33.257888

>  <Cp0_units>  (2) 
J/(mol*K)

>  <CpInf_value>  (2) 
307.635464

>  <CpInf_units>  (2) 
J/(mol*K)

>  <Tmin_value>  (2) 
10.0

>  <Tmin_units>  (2) 
K

>  <Tmax_value>  (2) 
3000.0

>  <Tmax_units>  (2) 
K

>  <polynomials>  (2) 
[{"name": "polynomial1", "class": "NASAPolynomial", "Tmin_value": 10.0, "Tmin_units": "K", "Tmax_value": 850.5751909331584, "Tmax_units": "K", "coeffs": [3.763703885514242, 0.02277852482010402, 3.2299053490720314e-05, -5.360226294448367e-08, 2.1690872236821852e-11, -175356726.547155, 11.190919245660643]}, {"name": "polynomial2", "class": "NASAPolynomial", "Tmin_value": 850.5751909331584, "Tmin_units": "K", "Tmax_value": 3000.0, "Tmax_units": "K", "coeffs": [2.0035214740016922, 0.042738418303872316, -2.3502321935412024e-05, 6.281315111825424e-09, -6.560549792225942e-13, -175356849.7075047, 16.913744501828855]}]

>  <H298_value>  (2) 
-348465.4118362776

>  <H298_units>  (2) 
kcal/mol

>  <S298_value>  (2) 
80.33314738703915

>  <S298_units>  (2) 
cal/(mol*K)

>  <Cp_T_value_list>  (2) 
[24.30872432409684, 30.14135974077647, 35.53746487056036, 40.323452938173666, 47.88798169363404, 53.386060159439076, 61.820175444511975, 66.0243628186096, 68.0994235508572]

>  <Cp_T_units>  (2) 
cal/(mol*K)

>  <T_list>  (2) 
[300.0, 400.0, 500.0, 600.0, 800.0, 1000.0, 1500.0, 2000.0, 2400.0]

>  <T_units>  (2) 
K

>  <yaml_path>  (2) 
/home/calvin/Dropbox/PersonalFolders/Calvin/HAb_Converged/rxn_1372/output/Species/rxn_1372_S=CC[C]C/rxn_1372_S=CCCC.yml

>  <frequencies_cm1>  (2) 
[81.46304685115999, 222.10577319008, 235.83974383007998, 264.91455967495995, 354.02742817259997, 403.35985071147996, 541.5304623352, 773.7375709309999, 866.2358631914, 917.52537654648, 938.1331994918, 970.7857146884, 1070.15785925412, 1116.20099582472, 1141.9384568040798, 1213.79459119256, 1287.09965948356, 1347.93428243344, 1376.37046864356, 1392.88556833816, 1420.9509373409999, 1469.66533120108, 1474.71256541128, 1487.9727140641999, 1494.5100840888397, 2973.6037861342797, 3014.7782301129996, 3022.28384506776, 3048.6668026672, 3090.6240829723997, 3094.4352598250002, 3098.5897859436, 3105.48423920488]

>  <ZPE_kJmol>  (2) 
288.97191783414803

>  <E_elec_kJmol>  (2) 
-1458287.5701515274

>  <E0_minus_Eelec_plus_ZPE_kJmol>  (2) 
0.0

>  <rxn>  (2) 
rxn_1372

>  <species_type>  (2) 
p0

>  <species_folder>  (2) 
rxn_1372_S=CC[C]C

>  <frequencies_cm1_list>  (2) 
[81.46304685115999, 222.10577319008, 235.83974383007998, 264.91455967495995, 354.02742817259997, 403.35985071147996, 541.5304623352, 773.7375709309999, 866.2358631914, 917.52537654648, 938.1331994918, 970.7857146884, 1070.15785925412, 1116.20099582472, 1141.9384568040798, 1213.79459119256, 1287.09965948356, 1347.93428243344, 1376.37046864356, 1392.88556833816, 1420.9509373409999, 1469.66533120108, 1474.71256541128, 1487.9727140641999, 1494.5100840888397, 2973.6037861342797, 3014.7782301129996, 3022.28384506776, 3048.6668026672, 3090.6240829723997, 3094.4352598250002, 3098.5897859436, 3105.48423920488]

>  <E0_kJmol>  (2) 
-1.458e+06

>  <H298_kJmol>  (2) 
-1.45798e+06

$$$$

     RDKit          3D

 21 19  0  0  0  0  0  0  0  0999 V2000
   -2.7790   -0.4701   -0.1654 C   0  0  0  0  0  0  0  0  0  1  0  0
   -1.7213   -0.8474   -0.5926 C   0  0  0  0  0  0  0  0  0  2  0  0
   -0.4395   -1.2416   -1.0668 C   0  0  0  0  0  3  0  0  0  3  0  0
    0.0108   -2.5676   -0.8127 C   0  0  0  0  0  0  0  0  0  4  0  0
    0.4594   -3.6536   -0.5649 C   0  0  0  0  0  0  0  0  0  5  0  0
   -3.7268   -0.1528    0.1985 H   0  0  0  0  0  0  0  0  0  6  0  0
    0.4772   -0.4817   -0.3130 H   0  0  0  0  0  0  0  0  0  7  0  0
   -0.1642   -0.8418   -2.0414 H   0  0  0  0  0  0  0  0  0  8  0  0
    0.8353   -4.6283   -0.3647 H   0  0  0  0  0  0  0  0  0  9  0  0
    3.4331    0.5029   -1.1501 S   0  0  0  0  0  0  0  0  0 10  0  0
    2.5157   -0.1571    0.0218 C   0  0  0  0  0  0  0  0  0 11  0  0
    1.2000    0.2753    0.4537 C   0  0  0  0  0  0  0  0  0 12  0  0
    0.7673   -0.2019    1.8229 C   0  0  0  0  0  0  0  0  0 13  0  0
    0.7234    1.6550    0.0752 C   0  0  0  0  0  0  0  0  0 14  0  0
    2.8756   -1.0584    0.5197 H   0  0  0  0  0  0  0  0  0 15  0  0
    1.2185    0.4188    2.6018 H   0  0  0  0  0  0  0  0  0 16  0  0
   -0.3169   -0.1324    1.9268 H   0  0  0  0  0  0  0  0  0 17  0  0
    1.0628   -1.2378    1.9956 H   0  0  0  0  0  0  0  0  0 18  0  0
   -0.3568    1.7305    0.2105 H   0  0  0  0  0  0  0  0  0 19  0  0
    0.9761    1.8941   -0.9566 H   0  0  0  0  0  0  0  0  0 20  0  0
    1.1996    2.4030    0.7149 H   0  0  0  0  0  0  0  0  0 21  0  0
  1  6  1  0
  1  2  1  0
  2  3  1  0
  3  4  1  0
  3  8  1  0
  4  5  1  0
  5  9  1  0
  7 12  1  0
 10 11  1  0
 11 12  1  0
 11 15  1  0
 12 13  1  0
 12 14  1  0
 13 17  1  0
 13 18  1  0
 13 16  1  0
 14 19  1  0
 14 20  1  0
 14 21  1  0
M  RAD  1   3   2
M  END
>  <rmg_smiles>  (3) 
[S][CH]C(C)C.[CH][C][CH][C][CH]

>  <rmg_adjacency_list>  (3) 
multiplicity 2
1  S u0 p2 c0 {5,S}
2  C u0 p0 c0 {3,S} {4,S} {5,S} {11,S}
3  C u0 p0 c0 {2,S} {12,S} {13,S} {14,S}
4  C u0 p0 c0 {2,S} {15,S} {16,S} {17,S}
5  C u0 p0 c0 {1,S} {2,S} {18,S}
6  C u1 p0 c0 {7,S} {8,S} {19,S}
7  C u0 p1 c0 {6,S} {9,S}
8  C u0 p1 c0 {6,S} {10,S}
9  C u0 p1 c0 {7,S} {20,S}
10 C u0 p1 c0 {8,S} {21,S}
11 H u0 p0 c0 {2,S}
12 H u0 p0 c0 {3,S}
13 H u0 p0 c0 {3,S}
14 H u0 p0 c0 {3,S}
15 H u0 p0 c0 {4,S}
16 H u0 p0 c0 {4,S}
17 H u0 p0 c0 {4,S}
18 H u0 p0 c0 {5,S}
19 H u0 p0 c0 {6,S}
20 H u0 p0 c0 {9,S}
21 H u0 p0 c0 {10,S}


>  <multiplicity>  (3) 
2

>  <reaction>  (3) 
rxn_1372

>  <type>  (3) 
ts

>  <role_mapnums>  (3) 
{"*2": 7, "*1": 3, "*3": 12, "*0": 11, "*4": 2}

>  <role_mapidx>  (3) 
{"*2": 6, "*1": 2, "*3": 11, "*0": 10, "*4": 1}

>  <ordered_mapped_smiles>  (3) 
[CH2:1]([CH2:2][C:3]([CH2:4][CH2:5][H:9])[H:8])[H:6].[H:7][C:12]([CH:11]([SH:10])[H:15])([C:13]([H:16])([H:17])[H:18])[C:14]([H:19])([H:20])[H:21]

>  <mol_properties>  (3) 
{"1": {"label": "*4", "atom_type": "C2s"}, "2": {"label": "*1", "atom_type": "Cs"}, "6": {"label": "*2", "atom_type": "H0"}, "10": {"label": "*0", "atom_type": "Cs"}, "11": {"label": "*3", "atom_type": "Cs"}}

>  <level_of_theory>  (3) 
wb97xd/def2tzvp

>  <lot_method>  (3) 
wb97xd

>  <lot_basis>  (3) 
def2tzvp

>  <spin_multiplicity>  (3) 
2.0

>  <optical_isomers>  (3) 
2.0

>  <modes>  (3) 
IdealGasTranslation(mass=(151.058, 'amu')),         NonlinearRotor(             inertia = ([369.716, 719.872, 878.05

>  <frequency_value>  (3) 
-1727.04

>  <frequency_units>  (3) 
cm^-1

>  <frequency_list>  (3) 
unknown

>  <arkane_path>  (3) 
/home/calvin/Dropbox/PersonalFolders/Calvin/HAb_Converged/rxn_1372/output/rxns/TS0/arkane/output.py

>  <path_exists>  (3) 
True

>  <E0_value>  (3) 
-1962290.0

>  <E0_units>  (3) 
kJ/mol

>  <thermo_class>  (3) 
unknown

>  <Cp0_value>  (3) 
unknown

>  <Cp0_units>  (3) 
unknown

>  <CpInf_value>  (3) 
unknown

>  <CpInf_units>  (3) 
unknown

>  <Tmin_value>  (3) 
unknown

>  <Tmin_units>  (3) 
unknown

>  <Tmax_value>  (3) 
unknown

>  <Tmax_units>  (3) 
unknown

>  <polynomials>  (3) 
unknown

>  <H298_value>  (3) 
unknown

>  <H298_units>  (3) 
unknown

>  <S298_value>  (3) 
unknown

>  <S298_units>  (3) 
unknown

>  <Cp_T_value_list>  (3) 
unknown

>  <Cp_T_units>  (3) 
unknown

>  <T_list>  (3) 
unknown

>  <T_units>  (3) 
unknown

>  <yaml_path>  (3) 
unknown

>  <frequencies_cm1>  (3) 
unknown

>  <ZPE_kJmol>  (3) 
unknown

>  <E_elec_kJmol>  (3) 
unknown

>  <E0_minus_Eelec_plus_ZPE_kJmol>  (3) 
unknown

>  <rxn>  (3) 
unknown

>  <species_type>  (3) 
unknown

>  <species_folder>  (3) 
unknown

>  <frequencies_cm1_list>  (3) 
[]

>  <ts_imag_freq_cm1>  (3) 
-1748.0201

>  <ts_freq_out_path>  (3) 
/home/calvin/Dropbox/PersonalFolders/Calvin/HAb_Converged/rxn_1372/output/rxns/TS0/geometry/freq.out

>  <E0_kJmol>  (3) 
-1.96229e+06

>  <H298_kJmol>  (3) 
unknown

$$$$

     RDKit          3D

  8  7  0  0  0  0  0  0  0  0999 V2000
   -2.2129    0.4855    0.7390 C   0  0  0  0  0  0  0  0  0  1  0  0
   -1.2226    0.0526    0.1974 C   0  0  0  0  0  0  0  0  0  2  0  0
   -0.1006   -0.4575   -0.4419 C   0  0  0  0  0  3  0  0  0  3  0  0
    1.1960   -0.1737   -0.0342 C   0  0  0  0  0  0  0  0  0  4  0  0
    2.3329    0.0603    0.3036 C   0  0  0  0  0  0  0  0  0  5  0  0
   -3.0803    0.8696    1.2198 H   0  0  0  0  0  0  0  0  0  6  0  0
   -0.2433   -1.1067   -1.2980 H   0  0  0  0  0  0  0  0  0  7  0  0
    3.3308    0.2700    0.6058 H   0  0  0  0  0  0  0  0  0  8  0  0
  1  6  1  0
  1  2  1  0
  2  3  1  0
  3  4  1  0
  3  7  1  0
  4  5  1  0
  5  8  1  0
M  RAD  1   3   2
M  END
>  <rmg_smiles>  (4) 
[CH]C[CH]C[CH]

>  <rmg_adjacency_list>  (4) 
multiplicity 2
1 C u1 p0 c0 {2,S} {3,S} {6,S}
2 C u0 p1 c0 {1,S} {4,S}
3 C u0 p1 c0 {1,S} {5,S}
4 C u0 p1 c0 {2,S} {7,S}
5 C u0 p1 c0 {3,S} {8,S}
6 H u0 p0 c0 {1,S}
7 H u0 p0 c0 {4,S}
8 H u0 p0 c0 {5,S}


>  <multiplicity>  (4) 
2

>  <reaction>  (4) 
rxn_1372

>  <type>  (4) 
r1

>  <role_mapnums>  (4) 
{}

>  <role_mapidx>  (4) 
{}

>  <ordered_mapped_smiles>  (4) 
[CH2:1]([CH2:2][C:3]([CH2:4][CH2:5][H:8])[H:7])[H:6]

>  <level_of_theory>  (4) 
wb97xd/def2tzvp

>  <lot_method>  (4) 
wb97xd

>  <lot_basis>  (4) 
def2tzvp

>  <spin_multiplicity>  (4) 
2.0

>  <optical_isomers>  (4) 
1.0

>  <modes>  (4) 
IdealGasTranslation(mass=(63.0235, 'amu')),         NonlinearRotor(             inertia = ([17.4877, 183.017, 200.505

>  <frequency_value>  (4) 
unknown

>  <frequency_units>  (4) 
unknown

>  <frequency_list>  (4) 
unknown

>  <arkane_path>  (4) 
/home/calvin/Dropbox/PersonalFolders/Calvin/HAb_Converged/rxn_1372/output/Species/rxn_1372_CtC[CH]CtC/arkane/output.py

>  <path_exists>  (4) 
True

>  <E0_value>  (4) 
-504350.2602594301

>  <E0_units>  (4) 
kJ/mol

>  <thermo_class>  (4) 
NASA

>  <Cp0_value>  (4) 
33.257888

>  <Cp0_units>  (4) 
J/(mol*K)

>  <CpInf_value>  (4) 
182.918384

>  <CpInf_units>  (4) 
J/(mol*K)

>  <Tmin_value>  (4) 
10.0

>  <Tmin_units>  (4) 
K

>  <Tmax_value>  (4) 
3000.0

>  <Tmax_units>  (4) 
K

>  <polynomials>  (4) 
[{"name": "polynomial1", "class": "NASAPolynomial", "Tmin_value": 10.0, "Tmin_units": "K", "Tmax_value": 511.3919089489883, "Tmax_units": "K", "coeffs": [3.8659954757573973, 0.008525616172306112, 0.00010836986673963408, -2.626119315958765e-07, 1.8230598905311024e-10, -60659320.69120562, 8.776064020238547]}, {"name": "polynomial2", "class": "NASAPolynomial", "Tmin_value": 511.3919089489883, "Tmin_units": "K", "Tmax_value": 3000.0, "Tmax_units": "K", "coeffs": [5.628254952966442, 0.022649494843224656, -1.4916539685924306e-05, 4.8216558906608004e-09, -6.002662773476099e-13, -60659865.858327985, -2.111983316915381]}]

>  <H298_value>  (4) 
-120538.51368508991

>  <H298_units>  (4) 
kcal/mol

>  <S298_value>  (4) 
71.92961318485641

>  <S298_units>  (4) 
cal/(mol*K)

>  <Cp_T_value_list>  (4) 
[20.99111005886384, 24.790978026499133, 27.40139790751197, 29.433868246293493, 32.638046849521324, 34.940256474405714, 38.30245845445545, 40.20133175263048, 41.34770744760823]

>  <Cp_T_units>  (4) 
cal/(mol*K)

>  <T_list>  (4) 
[300.0, 400.0, 500.0, 600.0, 800.0, 1000.0, 1500.0, 2000.0, 2400.0]

>  <T_units>  (4) 
K

>  <yaml_path>  (4) 
/home/calvin/Dropbox/PersonalFolders/Calvin/HAb_Converged/rxn_1372/output/Species/rxn_1372_CtC[CH]CtC/rxn_1372_CtCCHCtC.yml

>  <frequencies_cm1>  (4) 
[140.92427273703998, 354.42571332116, 356.18366156308, 383.39752438624004, 580.9812929985999, 582.4370938864399, 598.9659275516799, 670.81519495484, 678.8701687352, 681.5894949219199, 955.0809192615599, 1115.22588390928, 1366.0425227222797, 2023.89971637828, 2119.4194821794795, 3149.0140591483596, 3426.6737435772397, 3430.6016591802795]

>  <ZPE_kJmol>  (4) 
135.26507637113028

>  <E_elec_kJmol>  (4) 
-504485.5253358012

>  <E0_minus_Eelec_plus_ZPE_kJmol>  (4) 
0.0

>  <rxn>  (4) 
rxn_1372

>  <species_type>  (4) 
p1

>  <species_folder>  (4) 
rxn_1372_CtC[CH]CtC

>  <frequencies_cm1_list>  (4) 
[140.92427273703998, 354.42571332116, 356.18366156308, 383.39752438624004, 580.9812929985999, 582.4370938864399, 598.9659275516799, 670.81519495484, 678.8701687352, 681.5894949219199, 955.0809192615599, 1115.22588390928, 1366.0425227222797, 2023.89971637828, 2119.4194821794795, 3149.0140591483596, 3426.6737435772397, 3430.6016591802795]

>  <E0_kJmol>  (4) 
-504350

>  <H298_kJmol>  (4) 
-504333

$$$$

     RDKit          3D

 12 11  0  0  0  0  0  0  0  0999 V2000
    2.7049    0.9350   -0.4404 S   0  0  0  0  0  1  0  0  0  1  0  0
    1.0313    1.0813   -0.4080 C   0  0  0  0  0  0  0  0  0  2  0  0
    0.1364    0.1019   -0.0473 C   0  0  0  0  0  0  0  0  0  3  0  0
    0.5360   -1.2679    0.3784 C   0  0  0  0  0  0  0  0  0  4  0  0
   -1.3304    0.3842   -0.0689 C   0  0  0  0  0  0  0  0  0  5  0  0
    0.6069    2.0398   -0.6990 H   0  0  0  0  0  0  0  0  0  6  0  0
    0.1578   -1.4699    1.3849 H   0  0  0  0  0  0  0  0  0  7  0  0
    0.0783   -2.0109   -0.2814 H   0  0  0  0  0  0  0  0  0  8  0  0
    1.6154   -1.3973    0.3689 H   0  0  0  0  0  0  0  0  0  9  0  0
   -1.8406   -0.3126   -0.7406 H   0  0  0  0  0  0  0  0  0 10  0  0
   -1.5514    1.4016   -0.3887 H   0  0  0  0  0  0  0  0  0 11  0  0
   -1.7610    0.2281    0.9247 H   0  0  0  0  0  0  0  0  0 12  0  0
  1  2  1  0
  2  6  1  0
  2  3  1  0
  3  4  1  0
  3  5  1  0
  4  8  1  0
  4  9  1  0
  4  7  1  0
  5 11  1  0
  5 12  1  0
  5 10  1  0
M  RAD  1   1   2
M  END
>  <rmg_smiles>  (5) 
[S][CH][C](C)C

>  <rmg_adjacency_list>  (5) 
multiplicity 2
1  S u1 p2 c0 {5,S}
2  C u0 p0 c0 {4,S} {6,S} {7,S} {8,S}
3  C u0 p0 c0 {4,S} {9,S} {10,S} {11,S}
4  C u0 p0 c0 {2,S} {3,S} {5,S}
5  C u0 p0 c0 {1,S} {4,S} {12,S}
6  H u0 p0 c0 {2,S}
7  H u0 p0 c0 {2,S}
8  H u0 p0 c0 {2,S}
9  H u0 p0 c0 {3,S}
10 H u0 p0 c0 {3,S}
11 H u0 p0 c0 {3,S}
12 H u0 p0 c0 {5,S}


>  <multiplicity>  (5) 
2

>  <reaction>  (5) 
rxn_1372

>  <type>  (5) 
r2

>  <role_mapnums>  (5) 
{}

>  <role_mapidx>  (5) 
{}

>  <ordered_mapped_smiles>  (5) 
[S:1][CH:2]([CH:3]([C:4]([H:7])([H:8])[H:9])[C:5]([H:10])([H:11])[H:12])[H:6]

>  <level_of_theory>  (5) 
wb97xd/def2tzvp

>  <lot_method>  (5) 
wb97xd

>  <lot_basis>  (5) 
def2tzvp

>  <spin_multiplicity>  (5) 
2.0

>  <optical_isomers>  (5) 
1.0

>  <modes>  (5) 
IdealGasTranslation(mass=(87.0269, 'amu')),         NonlinearRotor(             inertia = ([59.4375, 215.284, 268.526

>  <frequency_value>  (5) 
unknown

>  <frequency_units>  (5) 
unknown

>  <frequency_list>  (5) 
unknown

>  <arkane_path>  (5) 
/home/calvin/Dropbox/PersonalFolders/Calvin/HAb_Converged/rxn_1372/output/Species/rxn_1372_S=C[C][C]C/arkane/output.py

>  <path_exists>  (5) 
True

>  <E0_value>  (5) 
-1456389.4058014078

>  <E0_units>  (5) 
kJ/mol

>  <thermo_class>  (5) 
NASA

>  <Cp0_value>  (5) 
33.257888

>  <Cp0_units>  (5) 
J/(mol*K)

>  <CpInf_value>  (5) 
282.692048

>  <CpInf_units>  (5) 
J/(mol*K)

>  <Tmin_value>  (5) 
10.0

>  <Tmin_units>  (5) 
K

>  <Tmax_value>  (5) 
3000.0

>  <Tmax_units>  (5) 
K

>  <polynomials>  (5) 
[{"name": "polynomial1", "class": "NASAPolynomial", "Tmin_value": 10.0, "Tmin_units": "K", "Tmax_value": 1069.7138576217342, "Tmax_units": "K", "coeffs": [3.7450953721106606, 0.02804067236145847, 4.837339460243766e-06, -1.862188975324303e-08, 7.102529060370391e-12, -175163186.63125047, 11.115318698362758]}, {"name": "polynomial2", "class": "NASAPolynomial", "Tmin_value": 1069.7138576217342, "Tmin_units": "K", "Tmax_value": 3000.0, "Tmax_units": "K", "coeffs": [5.373134457780288, 0.03266246334031504, -1.6660938713927265e-05, 4.135396675163868e-09, -4.033155674080627e-13, -175164147.67857578, 0.2872181639058632]}]

>  <H298_value>  (5) 
-348080.71273541875

>  <H298_units>  (5) 
kcal/mol

>  <S298_value>  (5) 
81.22134376115285

>  <S298_units>  (5) 
cal/(mol*K)

>  <Cp_T_value_list>  (5) 
[24.139386474933982, 29.26233594997063, 33.96322362768302, 38.17244953856237, 45.00688648485055, 49.886328245020486, 57.22140468570403, 60.97629997735028, 62.76138759591628]

>  <Cp_T_units>  (5) 
cal/(mol*K)

>  <T_list>  (5) 
[300.0, 400.0, 500.0, 600.0, 800.0, 1000.0, 1500.0, 2000.0, 2400.0]

>  <T_units>  (5) 
K

>  <yaml_path>  (5) 
/home/calvin/Dropbox/PersonalFolders/Calvin/HAb_Converged/rxn_1372/output/Species/rxn_1372_S=C[C][C]C/rxn_1372_S=CCCC.yml

>  <frequencies_cm1>  (5) 
[87.46479202084001, 132.99290469244, 210.48683402863998, 250.26041300207999, 372.11506750548, 441.34801350172, 490.53622934888, 795.65012108712, 848.51217408048, 924.6601742939599, 952.54013469316, 965.5393379039199, 1058.3672454596801, 1073.62568684072, 1212.6752725854, 1351.19610046044, 1396.66927724948, 1403.6667352905597, 1418.3002810074797, 1452.5665377542798, 1454.3588209227999, 1474.34861518932, 1518.6063355767199, 3001.0991953555595, 3006.29063625748, 3055.78786644404, 3059.9835944745596, 3097.51166924836, 3108.51944671632, 3128.82512230756]

>  <ZPE_kJmol>  (5) 
255.66898791025585

>  <E_elec_kJmol>  (5) 
-1456645.074789318

>  <E0_minus_Eelec_plus_ZPE_kJmol>  (5) 
0.0

>  <rxn>  (5) 
rxn_1372

>  <species_type>  (5) 
r1

>  <species_folder>  (5) 
rxn_1372_S=C[C][C]C

>  <frequencies_cm1_list>  (5) 
[87.46479202084001, 132.99290469244, 210.48683402863998, 250.26041300207999, 372.11506750548, 441.34801350172, 490.53622934888, 795.65012108712, 848.51217408048, 924.6601742939599, 952.54013469316, 965.5393379039199, 1058.3672454596801, 1073.62568684072, 1212.6752725854, 1351.19610046044, 1396.66927724948, 1403.6667352905597, 1418.3002810074797, 1452.5665377542798, 1454.3588209227999, 1474.34861518932, 1518.6063355767199, 3001.0991953555595, 3006.29063625748, 3055.78786644404, 3059.9835944745596, 3097.51166924836, 3108.51944671632, 3128.82512230756]

>  <E0_kJmol>  (5) 
-1.45639e+06

>  <H298_kJmol>  (5) 
-1.45637e+06

$$$$
