
     RDKit          3D

 12 11  0  0  0  0  0  0  0  0999 V2000
   -0.7642    0.1204   -1.5611 C   0  0  0  0  0  0  0  0  0  1  0  0
   -0.5380    0.1348   -0.0709 C   0  0  0  0  0  0  0  0  0  2  0  0
    0.8942   -0.7631    0.4975 S   0  0  0  0  0  0  0  0  0  3  0  0
   -0.6319    1.4902    0.5868 C   0  0  0  0  0  0  0  0  0  4  0  0
   -0.8243   -0.9006   -1.9427 H   0  0  0  0  0  0  0  0  0  5  0  0
    0.0491    0.6310   -2.0851 H   0  0  0  0  0  0  0  0  0  6  0  0
   -1.7005    0.6284   -1.8050 H   0  0  0  0  0  0  0  0  0  7  0  0
   -1.3581   -0.4460    0.3512 H   0  0  0  0  0  0  0  0  0  8  0  0
    0.6594   -1.8854   -0.1976 H   0  0  0  0  0  0  0  0  0  9  0  0
   -1.5891    1.9554    0.3429 H   0  0  0  0  0  0  0  0  0 10  0  0
    0.1605    2.1574    0.2328 H   0  0  0  0  0  0  0  0  0 11  0  0
   -0.5524    1.4158    1.6722 H   0  0  0  0  0  0  0  0  0 12  0  0
  1  5  1  0
  1  7  1  0
  1  6  1  0
  1  2  1  0
  2  8  1  0
  2  3  1  0
  2  4  1  0
  3  9  1  0
  4 11  1  0
  4 12  1  0
  4 10  1  0
M  END
>  <rmg_smiles>  (1) 
CC(S)C

>  <rmg_adjacency_list>  (1) 
1  S u0 p2 c0 {2,S} {12,S}
2  C u0 p0 c0 {1,S} {3,S} {4,S} {5,S}
3  C u0 p0 c0 {2,S} {6,S} {7,S} {8,S}
4  C u0 p0 c0 {2,S} {9,S} {10,S} {11,S}
5  H u0 p0 c0 {2,S}
6  H u0 p0 c0 {3,S}
7  H u0 p0 c0 {3,S}
8  H u0 p0 c0 {3,S}
9  H u0 p0 c0 {4,S}
10 H u0 p0 c0 {4,S}
11 H u0 p0 c0 {4,S}
12 H u0 p0 c0 {1,S}


>  <multiplicity>  (1) 
1

>  <reaction>  (1) 
rxn_1945

>  <type>  (1) 
r1h

>  <role_mapnums>  (1) 
{"r1h_a": 2, "r1h_h": 8}

>  <role_mapidx>  (1) 
{"r1h_a": 1, "r1h_h": 7}

>  <ordered_mapped_smiles>  (1) 
[C:1]([C:2]([S:3][H:9])([C:4]([H:10])([H:11])[H:12])[H:8])([H:5])([H:6])[H:7]

>  <mol_properties>  (1) 
{"1": {"label": "donator", "atom_type": "Cs"}, "7": {"label": "d_hydrogen", "atom_type": "H0"}}

>  <level_of_theory>  (1) 
wb97xd/def2tzvp

>  <lot_method>  (1) 
wb97xd

>  <lot_basis>  (1) 
def2tzvp

>  <spin_multiplicity>  (1) 
1.0

>  <optical_isomers>  (1) 
1.0

>  <modes>  (1) 
IdealGasTranslation(mass=(76.0347, 'amu')),         NonlinearRotor(             inertia = ([63.6143, 114.445, 159.626

>  <frequency_value>  (1) 
unknown

>  <frequency_units>  (1) 
unknown

>  <frequency_list>  (1) 
unknown

>  <arkane_path>  (1) 
/home/calvin/Dropbox/PersonalFolders/Calvin/HAb_Converged/rxn_1945/output/Species/rxn_1945_CC[S]C/arkane/output.py

>  <path_exists>  (1) 
True

>  <E0_value>  (1) 
-1358037.5822550058

>  <E0_units>  (1) 
kJ/mol

>  <thermo_class>  (1) 
NASA

>  <Cp0_value>  (1) 
33.257888

>  <Cp0_units>  (1) 
J/(mol*K)

>  <CpInf_value>  (1) 
282.692048

>  <CpInf_units>  (1) 
J/(mol*K)

>  <Tmin_value>  (1) 
10.0

>  <Tmin_units>  (1) 
K

>  <Tmax_value>  (1) 
3000.0

>  <Tmax_units>  (1) 
K

>  <polynomials>  (1) 
[{"name": "polynomial1", "class": "NASAPolynomial", "Tmin_value": 10.0, "Tmin_units": "K", "Tmax_value": 320.9959568783199, "Tmax_units": "K", "coeffs": [3.875707707258065, 0.009381393221698805, 0.00011821761563925809, -2.840791683127776e-07, 2.2503054199897307e-10, -163334191.46119478, 9.447715656882277]}, {"name": "polynomial2", "class": "NASAPolynomial", "Tmin_value": 320.9959568783199, "Tmin_units": "K", "Tmax_value": 3000.0, "Tmax_units": "K", "coeffs": [1.4804313687165462, 0.0392293738339864, -2.1260332941863044e-05, 5.597575733417067e-09, -5.766692868203356e-13, -163334037.68600142, 18.28172887429199]}]

>  <H298_value>  (1) 
-324574.4746758071

>  <H298_units>  (1) 
kcal/mol

>  <S298_value>  (1) 
74.54106238673705

>  <S298_units>  (1) 
cal/(mol*K)

>  <Cp_T_value_list>  (1) 
[22.817742792292417, 28.047451919441322, 32.67700803830931, 36.76068886623605, 43.494132537801676, 48.62769564827391, 56.55822768504675, 60.513904730141455, 62.43762055183555]

>  <Cp_T_units>  (1) 
cal/(mol*K)

>  <T_list>  (1) 
[300.0, 400.0, 500.0, 600.0, 800.0, 1000.0, 1500.0, 2000.0, 2400.0]

>  <T_units>  (1) 
K

>  <yaml_path>  (1) 
/home/calvin/Dropbox/PersonalFolders/Calvin/HAb_Converged/rxn_1945/output/Species/rxn_1945_CC[S]C/rxn_1945_CCSC.yml

>  <frequencies_cm1>  (1) 
[200.30996178439997, 239.06722693047996, 267.56521600848, 329.97237859663994, 342.10634165708, 410.44657956172, 623.61153786516, 869.4496123211601, 901.3398921472399, 934.4387613896399, 956.6946608117601, 1108.0979531471198, 1133.34785816876, 1186.1618422648799, 1298.32031349644, 1327.60113890092, 1394.17656157832, 1410.9800746563599, 1469.09537141952, 1472.7211396684797, 1483.6945822098398, 1489.7375292914398, 2684.9363242374397, 3006.5378477289996, 3009.88206957984, 3034.84356121804, 3072.7630541550793, 3080.1175954327996, 3104.83187559948, 3107.40699509448]

>  <ZPE_kJmol>  (1) 
268.8623138646832

>  <E_elec_kJmol>  (1) 
-1358306.4445688706

>  <E0_minus_Eelec_plus_ZPE_kJmol>  (1) 
0.0

>  <rxn>  (1) 
rxn_1945

>  <species_type>  (1) 
r1

>  <species_folder>  (1) 
rxn_1945_CC[S]C

>  <frequencies_cm1_list>  (1) 
[200.30996178439997, 239.06722693047996, 267.56521600848, 329.97237859663994, 342.10634165708, 410.44657956172, 623.61153786516, 869.4496123211601, 901.3398921472399, 934.4387613896399, 956.6946608117601, 1108.0979531471198, 1133.34785816876, 1186.1618422648799, 1298.32031349644, 1327.60113890092, 1394.17656157832, 1410.9800746563599, 1469.09537141952, 1472.7211396684797, 1483.6945822098398, 1489.7375292914398, 2684.9363242374397, 3006.5378477289996, 3009.88206957984, 3034.84356121804, 3072.7630541550793, 3080.1175954327996, 3104.83187559948, 3107.40699509448]

>  <E0_kJmol>  (1) 
-1.35804e+06

>  <H298_kJmol>  (1) 
-1.35802e+06

$$$$

     RDKit          3D

  4  3  0  0  0  0  0  0  0  0999 V2000
   -0.0378    1.0092    0.3628 C   0  0  0  0  0  0  0  0  0  1  0  0
    0.0118   -0.4848   -0.1603 S   0  0  0  0  0  0  0  0  0  2  0  0
   -0.9466    1.5544    0.6252 H   0  0  0  0  0  0  0  0  0  3  0  0
    0.8227    1.6568    0.1832 H   0  0  0  0  0  0  0  0  0  4  0  0
  1  3  1  0
  1  2  1  0
  1  4  1  0
M  END
>  <rmg_smiles>  (2) 
[CH2][S]

>  <rmg_adjacency_list>  (2) 
1 S u0 p2 c0 {2,S}
2 C u0 p0 c0 {1,S} {3,S} {4,S}
3 H u0 p0 c0 {2,S}
4 H u0 p0 c0 {2,S}


>  <multiplicity>  (2) 
1

>  <reaction>  (2) 
rxn_1945

>  <type>  (2) 
r2h

>  <role_mapnums>  (2) 
{"r2h_a": 1, "r2h_h": 4}

>  <role_mapidx>  (2) 
{"r2h_a": 0, "r2h_h": 3}

>  <ordered_mapped_smiles>  (2) 
[CH:1]([SH:2])([H:3])[H:4]

>  <mol_properties>  (2) 
{"0": {"label": "acceptor", "atom_type": "Cs"}, "3": {"label": "a_hydrogen", "atom_type": "H0"}}

>  <level_of_theory>  (2) 
wb97xd/def2tzvp

>  <lot_method>  (2) 
wb97xd

>  <lot_basis>  (2) 
def2tzvp

>  <spin_multiplicity>  (2) 
1.0

>  <optical_isomers>  (2) 
1.0

>  <modes>  (2) 
IdealGasTranslation(mass=(45.9877, 'amu')),         NonlinearRotor(             inertia = ([1.71338, 28.1219, 29.8353

>  <frequency_value>  (2) 
unknown

>  <frequency_units>  (2) 
unknown

>  <frequency_list>  (2) 
unknown

>  <arkane_path>  (2) 
/home/calvin/Dropbox/PersonalFolders/Calvin/HAb_Converged/rxn_1945/output/Species/rxn_1945_C=S/arkane/output.py

>  <path_exists>  (2) 
True

>  <E0_value>  (2) 
-1148515.0119791944

>  <E0_units>  (2) 
kJ/mol

>  <thermo_class>  (2) 
NASA

>  <Cp0_value>  (2) 
33.257888

>  <Cp0_units>  (2) 
J/(mol*K)

>  <CpInf_value>  (2) 
83.14472

>  <CpInf_units>  (2) 
J/(mol*K)

>  <Tmin_value>  (2) 
10.0

>  <Tmin_units>  (2) 
K

>  <Tmax_value>  (2) 
3000.0

>  <Tmax_units>  (2) 
K

>  <polynomials>  (2) 
[{"name": "polynomial1", "class": "NASAPolynomial", "Tmin_value": 10.0, "Tmin_units": "K", "Tmax_value": 771.1023982895529, "Tmax_units": "K", "coeffs": [4.057918470915095, -0.0038971951394704777, 2.7865481527840122e-05, -3.339907350842199e-08, 1.3156005151123656e-11, -138134450.93834215, 4.796909249678014]}, {"name": "polynomial2", "class": "NASAPolynomial", "Tmin_value": 771.1023982895529, "Tmin_units": "K", "Tmax_value": 3000.0, "Tmax_units": "K", "coeffs": [2.2195861263721026, 0.009353304799713729, -5.135727341319228e-06, 1.3794102179004984e-09, -1.4486794484554268e-13, -138134277.85799038, 12.471914163193425]}]

>  <H298_value>  (2) 
-274499.24983023386

>  <H298_units>  (2) 
kcal/mol

>  <S298_value>  (2) 
55.09030606920983

>  <S298_units>  (2) 
cal/(mol*K)

>  <Cp_T_value_list>  (2) 
[9.144015304302352, 10.247567835527857, 11.3728969034777, 12.404129320940395, 14.034217846971831, 15.245263754085405, 17.122312373494182, 18.08493241889944, 18.57705079226723]

>  <Cp_T_units>  (2) 
cal/(mol*K)

>  <T_list>  (2) 
[300.0, 400.0, 500.0, 600.0, 800.0, 1000.0, 1500.0, 2000.0, 2400.0]

>  <T_units>  (2) 
K

>  <yaml_path>  (2) 
/home/calvin/Dropbox/PersonalFolders/Calvin/HAb_Converged/rxn_1945/output/Species/rxn_1945_C=S/rxn_1945_C=S.yml

>  <frequencies_cm1>  (2) 
[998.78241383804, 1035.3697116229998, 1105.88678387408, 1486.7572576625598, 3052.0178915033594, 3137.7316022676]

>  <ZPE_kJmol>  (2) 
64.69732905712529

>  <E_elec_kJmol>  (2) 
-1148579.7093082515

>  <E0_minus_Eelec_plus_ZPE_kJmol>  (2) 
0.0

>  <rxn>  (2) 
rxn_1945

>  <species_type>  (2) 
p0

>  <species_folder>  (2) 
rxn_1945_C=S

>  <frequencies_cm1_list>  (2) 
[998.78241383804, 1035.3697116229998, 1105.88678387408, 1486.7572576625598, 3052.0178915033594, 3137.7316022676]

>  <E0_kJmol>  (2) 
-1.14852e+06

>  <H298_kJmol>  (2) 
-1.1485e+06

$$$$

     RDKit          3D

 15 13  0  0  0  0  0  0  0  0999 V2000
   -1.2213   -0.5800    0.6483 C   0  0  0  0  0  3  0  0  0  1  0  0
   -1.1718   -2.0740    0.1253 S   0  0  0  0  0  0  0  0  0  2  0  0
   -2.1301   -0.0349    0.9108 H   0  0  0  0  0  0  0  0  0  3  0  0
    0.6179    0.9155   -1.5801 C   0  0  0  0  0  0  0  0  0  4  0  0
    0.8441    0.9298   -0.0898 C   0  0  0  0  0  0  0  0  0  5  0  0
    2.2763    0.0319    0.4785 S   0  0  0  0  0  0  0  0  0  6  0  0
    0.7502    2.2853    0.5678 C   0  0  0  0  0  0  0  0  0  7  0  0
    0.5579   -0.1055   -1.9616 H   0  0  0  0  0  0  0  0  0  8  0  0
    1.4312    1.4260   -2.1041 H   0  0  0  0  0  0  0  0  0  9  0  0
   -0.3184    1.4234   -1.8240 H   0  0  0  0  0  0  0  0  0 10  0  0
   -0.1599    0.2188    0.4269 H   0  0  0  0  0  0  0  0  0 11  0  0
    2.0415   -1.0904   -0.2165 H   0  0  0  0  0  0  0  0  0 12  0  0
   -0.2070    2.7504    0.3239 H   0  0  0  0  0  0  0  0  0 13  0  0
    1.5426    2.9524    0.2138 H   0  0  0  0  0  0  0  0  0 14  0  0
    0.8297    2.2109    1.6533 H   0  0  0  0  0  0  0  0  0 15  0  0
  1  3  1  0
  1  2  1  0
  4  8  1  0
  4  5  1  0
  4  9  1  0
  4 10  1  0
  5 11  1  0
  5  6  1  0
  5  7  1  0
  6 12  1  0
  7 13  1  0
  7 14  1  0
  7 15  1  0
M  RAD  1   1   2
M  END
>  <rmg_smiles>  (3) 
CC(S)C.[CH][S]

>  <rmg_adjacency_list>  (3) 
multiplicity 2
1  S u0 p2 c0 {3,S} {14,S}
2  S u0 p2 c0 {6,S}
3  C u0 p0 c0 {1,S} {4,S} {5,S} {7,S}
4  C u0 p0 c0 {3,S} {8,S} {9,S} {10,S}
5  C u0 p0 c0 {3,S} {11,S} {12,S} {13,S}
6  C u1 p1 c0 {2,S} {15,S}
7  H u0 p0 c0 {3,S}
8  H u0 p0 c0 {4,S}
9  H u0 p0 c0 {4,S}
10 H u0 p0 c0 {4,S}
11 H u0 p0 c0 {5,S}
12 H u0 p0 c0 {5,S}
13 H u0 p0 c0 {5,S}
14 H u0 p0 c0 {1,S}
15 H u0 p0 c0 {6,S}


>  <multiplicity>  (3) 
2

>  <reaction>  (3) 
rxn_1945

>  <type>  (3) 
ts

>  <role_mapnums>  (3) 
{"*2": 11, "*1": 5, "*3": 1, "*0": 6, "*4": 2}

>  <role_mapidx>  (3) 
{"*2": 10, "*1": 4, "*3": 0, "*0": 5, "*4": 1}

>  <ordered_mapped_smiles>  (3) 
[CH:1]([SH:2])[H:3].[C:4]([C:5]([S:6][H:12])([C:7]([H:13])([H:14])[H:15])[H:11])([H:8])([H:9])[H:10]

>  <mol_properties>  (3) 
{"0": {"label": "*3", "atom_type": "C2s"}, "1": {"label": "*4", "atom_type": "S2s"}, "4": {"label": "*1", "atom_type": "Cs"}, "5": {"label": "*0", "atom_type": "S2s"}, "10": {"label": "*2", "atom_type": "H0"}}

>  <level_of_theory>  (3) 
wb97xd/def2tzvp

>  <lot_method>  (3) 
wb97xd

>  <lot_basis>  (3) 
def2tzvp

>  <spin_multiplicity>  (3) 
2.0

>  <optical_isomers>  (3) 
2.0

>  <modes>  (3) 
IdealGasTranslation(mass=(121.015, 'amu')),         NonlinearRotor(             inertia = ([170.48, 439.567, 493.664

>  <frequency_value>  (3) 
-1702.91

>  <frequency_units>  (3) 
cm^-1

>  <frequency_list>  (3) 
unknown

>  <arkane_path>  (3) 
/home/calvin/Dropbox/PersonalFolders/Calvin/HAb_Converged/rxn_1945/output/rxns/TS0/arkane/output.py

>  <path_exists>  (3) 
True

>  <E0_value>  (3) 
-2504810.0

>  <E0_units>  (3) 
kJ/mol

>  <thermo_class>  (3) 
unknown

>  <Cp0_value>  (3) 
unknown

>  <Cp0_units>  (3) 
unknown

>  <CpInf_value>  (3) 
unknown

>  <CpInf_units>  (3) 
unknown

>  <Tmin_value>  (3) 
unknown

>  <Tmin_units>  (3) 
unknown

>  <Tmax_value>  (3) 
unknown

>  <Tmax_units>  (3) 
unknown

>  <polynomials>  (3) 
unknown

>  <H298_value>  (3) 
unknown

>  <H298_units>  (3) 
unknown

>  <S298_value>  (3) 
unknown

>  <S298_units>  (3) 
unknown

>  <Cp_T_value_list>  (3) 
unknown

>  <Cp_T_units>  (3) 
unknown

>  <T_list>  (3) 
unknown

>  <T_units>  (3) 
unknown

>  <yaml_path>  (3) 
unknown

>  <frequencies_cm1>  (3) 
unknown

>  <ZPE_kJmol>  (3) 
unknown

>  <E_elec_kJmol>  (3) 
unknown

>  <E0_minus_Eelec_plus_ZPE_kJmol>  (3) 
unknown

>  <rxn>  (3) 
unknown

>  <species_type>  (3) 
unknown

>  <species_folder>  (3) 
unknown

>  <frequencies_cm1_list>  (3) 
[]

>  <ts_imag_freq_cm1>  (3) 
-1723.5953

>  <ts_freq_out_path>  (3) 
/home/calvin/Dropbox/PersonalFolders/Calvin/HAb_Converged/rxn_1945/output/rxns/TS0/geometry/freq.out

>  <E0_kJmol>  (3) 
-2.50481e+06

>  <H298_kJmol>  (3) 
unknown

$$$$

     RDKit          3D

 11 10  0  0  0  0  0  0  0  0999 V2000
    1.0781   -1.0166   -0.1159 C   0  0  0  0  0  0  0  0  0  1  0  0
    0.2180    0.1942   -0.2297 C   0  0  0  0  0  3  0  0  0  2  0  0
    0.9343    1.7769   -0.3011 S   0  0  0  0  0  0  0  0  0  3  0  0
   -1.1949    0.1490    0.2439 C   0  0  0  0  0  0  0  0  0  4  0  0
    1.4718   -1.1461    0.9024 H   0  0  0  0  0  0  0  0  0  5  0  0
    1.9367   -0.9751   -0.7902 H   0  0  0  0  0  0  0  0  0  6  0  0
    0.5033   -1.9136   -0.3576 H   0  0  0  0  0  0  0  0  0  7  0  0
    2.1166    1.4195   -0.8209 H   0  0  0  0  0  0  0  0  0  8  0  0
   -1.2620    0.0939    1.3399 H   0  0  0  0  0  0  0  0  0  9  0  0
   -1.7600    1.0270   -0.0739 H   0  0  0  0  0  0  0  0  0 10  0  0
   -1.6972   -0.7380   -0.1506 H   0  0  0  0  0  0  0  0  0 11  0  0
  1  5  1  0
  1  7  1  0
  1  6  1  0
  1  2  1  0
  2  3  1  0
  2  4  1  0
  3  8  1  0
  4  9  1  0
  4 10  1  0
  4 11  1  0
M  RAD  1   2   2
M  END
>  <rmg_smiles>  (4) 
C[C](S)C

>  <rmg_adjacency_list>  (4) 
multiplicity 2
1  S u0 p2 c0 {4,S} {11,S}
2  C u0 p0 c0 {4,S} {5,S} {6,S} {7,S}
3  C u0 p0 c0 {4,S} {8,S} {9,S} {10,S}
4  C u1 p0 c0 {1,S} {2,S} {3,S}
5  H u0 p0 c0 {2,S}
6  H u0 p0 c0 {2,S}
7  H u0 p0 c0 {2,S}
8  H u0 p0 c0 {3,S}
9  H u0 p0 c0 {3,S}
10 H u0 p0 c0 {3,S}
11 H u0 p0 c0 {1,S}


>  <multiplicity>  (4) 
2

>  <reaction>  (4) 
rxn_1945

>  <type>  (4) 
r1

>  <role_mapnums>  (4) 
{}

>  <role_mapidx>  (4) 
{}

>  <ordered_mapped_smiles>  (4) 
[C:1]([C:2]([S:3][H:8])[C:4]([H:9])([H:10])[H:11])([H:5])([H:6])[H:7]

>  <level_of_theory>  (4) 
wb97xd/def2tzvp

>  <lot_method>  (4) 
wb97xd

>  <lot_basis>  (4) 
def2tzvp

>  <spin_multiplicity>  (4) 
2.0

>  <optical_isomers>  (4) 
2.0

>  <modes>  (4) 
IdealGasTranslation(mass=(75.0268, 'amu')),         NonlinearRotor(             inertia = ([61.999, 107.328, 162.226

>  <frequency_value>  (4) 
unknown

>  <frequency_units>  (4) 
unknown

>  <frequency_list>  (4) 
unknown

>  <arkane_path>  (4) 
/home/calvin/Dropbox/PersonalFolders/Calvin/HAb_Converged/rxn_1945/output/Species/rxn_1945_C[C][S]C/arkane/output.py

>  <path_exists>  (4) 
True

>  <E0_value>  (4) 
-1356347.4134395572

>  <E0_units>  (4) 
kJ/mol

>  <thermo_class>  (4) 
NASA

>  <Cp0_value>  (4) 
33.257888

>  <Cp0_units>  (4) 
J/(mol*K)

>  <CpInf_value>  (4) 
257.748632

>  <CpInf_units>  (4) 
J/(mol*K)

>  <Tmin_value>  (4) 
10.0

>  <Tmin_units>  (4) 
K

>  <Tmax_value>  (4) 
3000.0

>  <Tmax_units>  (4) 
K

>  <polynomials>  (4) 
[{"name": "polynomial1", "class": "NASAPolynomial", "Tmin_value": 10.0, "Tmin_units": "K", "Tmax_value": 631.511036458598, "Tmax_units": "K", "coeffs": [3.630144501923197, 0.030233799754007962, -1.5729865197854517e-05, 1.0342555122076897e-08, -6.278675853253594e-12, -163130908.91812575, 11.085422231430835]}, {"name": "polynomial2", "class": "NASAPolynomial", "Tmin_value": 631.511036458598, "Tmin_units": "K", "Tmax_value": 3000.0, "Tmax_units": "K", "coeffs": [2.121241242594707, 0.035971217312262126, -2.0284227742328106e-05, 5.57187370145946e-09, -5.981486451043817e-13, -163130642.16838282, 18.274548777693933]}]

>  <H298_value>  (4) 
-324170.22635589016

>  <H298_units>  (4) 
kcal/mol

>  <S298_value>  (4) 
79.79982372204114

>  <S298_units>  (4) 
cal/(mol*K)

>  <Cp_T_value_list>  (4) 
[22.878685143927463, 27.24077654618155, 31.22891087325513, 34.831653006690544, 40.78563883173169, 45.27245080713911, 52.09561404746616, 55.50541234106847, 57.22251846881106]

>  <Cp_T_units>  (4) 
cal/(mol*K)

>  <T_list>  (4) 
[300.0, 400.0, 500.0, 600.0, 800.0, 1000.0, 1500.0, 2000.0, 2400.0]

>  <T_units>  (4) 
K

>  <yaml_path>  (4) 
/home/calvin/Dropbox/PersonalFolders/Calvin/HAb_Converged/rxn_1945/output/Species/rxn_1945_C[C][S]C/rxn_1945_CCSC.yml

>  <frequencies_cm1>  (4) 
[136.00751124791998, 145.49081797484, 227.77790306439996, 252.01836124399998, 317.69420884448, 349.40594705224, 628.3497577359599, 911.91504954004, 945.1100565769199, 959.9015429561998, 985.2063838604, 1047.7989550522, 1210.77998463708, 1266.96565852532, 1390.69500002108, 1406.7156767726399, 1455.1279232786399, 1462.5374004389198, 1466.95287199968, 1477.52802939248, 2689.0427814587997, 2949.1641853804, 2953.29124355772, 3034.22553253924, 3035.0633047482797, 3077.07552093604, 3083.7982995643197]

>  <ZPE_kJmol>  (4) 
232.4682179533116

>  <E_elec_kJmol>  (4) 
-1356579.8816575103

>  <E0_minus_Eelec_plus_ZPE_kJmol>  (4) 
0.0

>  <rxn>  (4) 
rxn_1945

>  <species_type>  (4) 
p1

>  <species_folder>  (4) 
rxn_1945_C[C][S]C

>  <frequencies_cm1_list>  (4) 
[136.00751124791998, 145.49081797484, 227.77790306439996, 252.01836124399998, 317.69420884448, 349.40594705224, 628.3497577359599, 911.91504954004, 945.1100565769199, 959.9015429561998, 985.2063838604, 1047.7989550522, 1210.77998463708, 1266.96565852532, 1390.69500002108, 1406.7156767726399, 1455.1279232786399, 1462.5374004389198, 1466.95287199968, 1477.52802939248, 2689.0427814587997, 2949.1641853804, 2953.29124355772, 3034.22553253924, 3035.0633047482797, 3077.07552093604, 3083.7982995643197]

>  <E0_kJmol>  (4) 
-1.35635e+06

>  <H298_kJmol>  (4) 
-1.35633e+06

$$$$

     RDKit          3D

  3  2  0  0  0  0  0  0  0  0999 V2000
   -0.2614    0.0642    0.2600 C   0  0  0  0  0  3  0  0  0  1  0  0
    1.1418    0.6115   -0.1062 S   0  0  0  0  0  0  0  0  0  2  0  0
   -0.8805   -0.7296   -0.1538 H   0  0  0  0  0  0  0  0  0  3  0  0
  1  3  1  0
  1  2  1  0
M  RAD  1   1   2
M  END
>  <rmg_smiles>  (5) 
[CH][S]

>  <rmg_adjacency_list>  (5) 
multiplicity 2
1 S u0 p2 c0 {2,S}
2 C u1 p1 c0 {1,S} {3,S}
3 H u0 p0 c0 {2,S}


>  <multiplicity>  (5) 
2

>  <reaction>  (5) 
rxn_1945

>  <type>  (5) 
r2

>  <role_mapnums>  (5) 
{}

>  <role_mapidx>  (5) 
{}

>  <ordered_mapped_smiles>  (5) 
[CH:1]([SH:2])[H:3]

>  <level_of_theory>  (5) 
wb97xd/def2tzvp

>  <lot_method>  (5) 
wb97xd

>  <lot_basis>  (5) 
def2tzvp

>  <spin_multiplicity>  (5) 
2.0

>  <optical_isomers>  (5) 
1.0

>  <modes>  (5) 
IdealGasTranslation(mass=(44.9799, 'amu')),         NonlinearRotor(             inertia = ([0.533372, 24.498, 25.0314

>  <frequency_value>  (5) 
unknown

>  <frequency_units>  (5) 
unknown

>  <frequency_list>  (5) 
unknown

>  <arkane_path>  (5) 
/home/calvin/Dropbox/PersonalFolders/Calvin/HAb_Converged/rxn_1945/output/Species/rxn_1945_[CH]=S/arkane/output.py

>  <path_exists>  (5) 
True

>  <E0_value>  (5) 
-1146820.641656096

>  <E0_units>  (5) 
kJ/mol

>  <thermo_class>  (5) 
NASA

>  <Cp0_value>  (5) 
33.257888

>  <Cp0_units>  (5) 
J/(mol*K)

>  <CpInf_value>  (5) 
58.201304

>  <CpInf_units>  (5) 
J/(mol*K)

>  <Tmin_value>  (5) 
10.0

>  <Tmin_units>  (5) 
K

>  <Tmax_value>  (5) 
3000.0

>  <Tmax_units>  (5) 
K

>  <polynomials>  (5) 
[{"name": "polynomial1", "class": "NASAPolynomial", "Tmin_value": 10.0, "Tmin_units": "K", "Tmax_value": 632.9812525138785, "Tmax_units": "K", "coeffs": [4.028693200520103, -0.0022522456819699006, 1.905161846865873e-05, -2.792723349126303e-08, 1.3547368315866746e-11, -137930664.01594502, 5.4186804186451605]}, {"name": "polynomial2", "class": "NASAPolynomial", "Tmin_value": 632.9812525138785, "Tmin_units": "K", "Tmax_value": 3000.0, "Tmax_units": "K", "coeffs": [3.3202001556463316, 0.004562510851563032, -2.637012530709088e-06, 7.498365242825091e-10, -8.309201643011921e-14, -137930621.152631, 8.14283545174306]}]

>  <H298_value>  (5) 
-274094.2879959811

>  <H298_units>  (5) 
kcal/mol

>  <S298_value>  (5) 
56.288896883629846

>  <S298_units>  (5) 
cal/(mol*K)

>  <Cp_T_value_list>  (5) 
[8.790136777221308, 9.410463220083766, 9.978322862427802, 10.451483943159955, 11.192747117858257, 11.749245135037446, 12.600346186528174, 13.048776209110255, 13.294372641275691]

>  <Cp_T_units>  (5) 
cal/(mol*K)

>  <T_list>  (5) 
[300.0, 400.0, 500.0, 600.0, 800.0, 1000.0, 1500.0, 2000.0, 2400.0]

>  <T_units>  (5) 
K

>  <yaml_path>  (5) 
/home/calvin/Dropbox/PersonalFolders/Calvin/HAb_Converged/rxn_1945/output/Species/rxn_1945_[CH]=S/rxn_1945_CH=S.yml

>  <frequencies_cm1>  (5) 
[818.2768377165199, 1232.30798361528, 3110.3323308407994]

>  <ZPE_kJmol>  (5) 
30.86914858980453

>  <E_elec_kJmol>  (5) 
-1146851.510804686

>  <E0_minus_Eelec_plus_ZPE_kJmol>  (5) 
0.0

>  <rxn>  (5) 
rxn_1945

>  <species_type>  (5) 
r0

>  <species_folder>  (5) 
rxn_1945_[CH]=S

>  <frequencies_cm1_list>  (5) 
[818.2768377165199, 1232.30798361528, 3110.3323308407994]

>  <E0_kJmol>  (5) 
-1.14682e+06

>  <H298_kJmol>  (5) 
-1.14681e+06

$$$$
