
     RDKit          3D

  7  6  0  0  0  0  0  0  0  0999 V2000
   -0.0972    1.7162    0.0796 C   0  0  0  0  0  0  0  0  0  1  0  0
    0.4999    0.4108    0.2752 C   0  0  0  0  0  0  0  0  0  2  0  0
   -0.1619   -1.0058   -0.1720 S   0  0  0  0  0  0  0  0  0  3  0  0
   -0.8230    1.8186    0.8834 H   0  0  0  0  0  0  0  0  0  4  0  0
    0.5777    2.5619    0.1932 H   0  0  0  0  0  0  0  0  0  5  0  0
   -0.7503    1.7921   -0.7870 H   0  0  0  0  0  0  0  0  0  6  0  0
    1.4405    0.3946    0.8263 H   0  0  0  0  0  0  0  0  0  7  0  0
  1  5  1  0
  1  4  1  0
  1  6  1  0
  1  2  1  0
  2  7  1  0
  2  3  1  0
M  END
>  <rmg_smiles>  (1) 
C[CH][S]

>  <rmg_adjacency_list>  (1) 
1 S u0 p2 c0 {3,S}
2 C u0 p0 c0 {3,S} {4,S} {5,S} {6,S}
3 C u0 p0 c0 {1,S} {2,S} {7,S}
4 H u0 p0 c0 {2,S}
5 H u0 p0 c0 {2,S}
6 H u0 p0 c0 {2,S}
7 H u0 p0 c0 {3,S}


>  <multiplicity>  (1) 
1

>  <reaction>  (1) 
rxn_1979

>  <type>  (1) 
r1h

>  <role_mapnums>  (1) 
{"r1h_a": 1, "r1h_h": 4}

>  <role_mapidx>  (1) 
{"r1h_a": 0, "r1h_h": 3}

>  <ordered_mapped_smiles>  (1) 
[C:1]([CH:2]([SH:3])[H:7])([H:4])([H:5])[H:6]

>  <mol_properties>  (1) 
{"0": {"label": "donator", "atom_type": "Cs"}, "3": {"label": "d_hydrogen", "atom_type": "H0"}}

>  <level_of_theory>  (1) 
wb97xd/def2tzvp

>  <lot_method>  (1) 
wb97xd

>  <lot_basis>  (1) 
def2tzvp

>  <spin_multiplicity>  (1) 
1.0

>  <optical_isomers>  (1) 
1.0

>  <modes>  (1) 
IdealGasTranslation(mass=(60.0034, 'amu')),         NonlinearRotor(             inertia = ([10.1821, 87.4169, 94.5043

>  <frequency_value>  (1) 
unknown

>  <frequency_units>  (1) 
unknown

>  <frequency_list>  (1) 
unknown

>  <arkane_path>  (1) 
/home/calvin/Dropbox/PersonalFolders/Calvin/HAb_Converged/rxn_1979/output/Species/rxn_1979_CC=S/arkane/output.py

>  <path_exists>  (1) 
True

>  <E0_value>  (1) 
-1251692.87971102

>  <E0_units>  (1) 
kJ/mol

>  <thermo_class>  (1) 
NASA

>  <Cp0_value>  (1) 
33.257888

>  <Cp0_units>  (1) 
J/(mol*K)

>  <CpInf_value>  (1) 
157.97496800000002

>  <CpInf_units>  (1) 
J/(mol*K)

>  <Tmin_value>  (1) 
10.0

>  <Tmin_units>  (1) 
K

>  <Tmax_value>  (1) 
3000.0

>  <Tmax_units>  (1) 
K

>  <polynomials>  (1) 
[{"name": "polynomial1", "class": "NASAPolynomial", "Tmin_value": 10.0, "Tmin_units": "K", "Tmax_value": 485.39622899743466, "Tmax_units": "K", "coeffs": [3.975940530572461, 0.0013748720414305338, 5.132788135128821e-05, -8.432386137464513e-08, 4.4867749425835864e-11, -150543879.09878448, 8.090912724756667]}, {"name": "polynomial2", "class": "NASAPolynomial", "Tmin_value": 485.39622899743466, "Tmin_units": "K", "Tmax_value": 3000.0, "Tmax_units": "K", "coeffs": [1.4651349812966712, 0.022068299956711855, -1.2628378415974456e-05, 3.5280372570941277e-09, -3.855767973354191e-13, -150543635.38297567, 18.3889911716905]}]

>  <H298_value>  (1) 
-299158.68811573734

>  <H298_units>  (1) 
kcal/mol

>  <S298_value>  (1) 
65.13190747939298

>  <S298_units>  (1) 
cal/(mol*K)

>  <Cp_T_value_list>  (1) 
[14.098427248842778, 16.871855394466547, 19.393339934655586, 21.604877323173096, 25.209772375709086, 27.915317068508738, 32.01166447471848, 34.0672583894089, 35.111294878115146]

>  <Cp_T_units>  (1) 
cal/(mol*K)

>  <T_list>  (1) 
[300.0, 400.0, 500.0, 600.0, 800.0, 1000.0, 1500.0, 2000.0, 2400.0]

>  <T_units>  (1) 
K

>  <yaml_path>  (1) 
/home/calvin/Dropbox/PersonalFolders/Calvin/HAb_Converged/rxn_1979/output/Species/rxn_1979_CC=S/rxn_1979_CC=S.yml

>  <frequencies_cm1>  (1) 
[170.46604358368, 396.01217641908, 770.63369356636, 837.4425937446399, 1045.2719044544401, 1080.9115582652398, 1167.33943550276, 1373.61680753024, 1381.75418513444, 1457.57943703788, 1469.4661886268, 3002.45885844892, 3059.70204807644, 3060.7801647716797, 3125.5770382512]

>  <ZPE_kJmol>  (1) 
139.95721324395197

>  <E_elec_kJmol>  (1) 
-1251832.836924264

>  <E0_minus_Eelec_plus_ZPE_kJmol>  (1) 
0.0

>  <rxn>  (1) 
rxn_1979

>  <species_type>  (1) 
r1

>  <species_folder>  (1) 
rxn_1979_CC=S

>  <frequencies_cm1_list>  (1) 
[170.46604358368, 396.01217641908, 770.63369356636, 837.4425937446399, 1045.2719044544401, 1080.9115582652398, 1167.33943550276, 1373.61680753024, 1381.75418513444, 1457.57943703788, 1469.4661886268, 3002.45885844892, 3059.70204807644, 3060.7801647716797, 3125.5770382512]

>  <E0_kJmol>  (1) 
-1.25169e+06

>  <H298_kJmol>  (1) 
-1.25168e+06

$$$$

     RDKit          3D

  7  6  0  0  0  0  0  0  0  0999 V2000
   -0.6984   -0.5002   -0.5537 S   0  0  0  0  0  0  0  0  0  1  0  0
    0.6671    0.2969    0.1117 C   0  0  0  0  0  0  0  0  0  2  0  0
    0.8796    0.9337    1.2410 C   0  0  0  0  0  0  0  0  0  3  0  0
   -0.0087   -1.4854   -1.1594 H   0  0  0  0  0  0  0  0  0  4  0  0
    1.7936    1.4951    1.3977 H   0  0  0  0  0  0  0  0  0  5  0  0
    0.1596    0.9154    2.0546 H   0  0  0  0  0  0  0  0  0  6  0  0
    1.5029    0.2925   -0.5880 H   0  0  0  0  0  0  0  0  0  7  0  0
  1  2  1  0
  1  4  1  0
  2  7  1  0
  2  3  1  0
  3  6  1  0
  3  5  1  0
M  END
>  <rmg_smiles>  (2) 
[CH2][CH]S

>  <rmg_adjacency_list>  (2) 
1 S u0 p2 c0 {2,S} {7,S}
2 C u0 p0 c0 {1,S} {3,S} {4,S}
3 C u0 p0 c0 {2,S} {5,S} {6,S}
4 H u0 p0 c0 {2,S}
5 H u0 p0 c0 {3,S}
6 H u0 p0 c0 {3,S}
7 H u0 p0 c0 {1,S}


>  <multiplicity>  (2) 
1

>  <reaction>  (2) 
rxn_1979

>  <type>  (2) 
r2h

>  <role_mapnums>  (2) 
{"r2h_a": 2, "r2h_h": 7}

>  <role_mapidx>  (2) 
{"r2h_a": 1, "r2h_h": 6}

>  <ordered_mapped_smiles>  (2) 
[S:1]([CH:2]([CH:3]([H:5])[H:6])[H:7])[H:4]

>  <mol_properties>  (2) 
{"1": {"label": "acceptor", "atom_type": "Cs"}, "6": {"label": "a_hydrogen", "atom_type": "H0"}}

>  <level_of_theory>  (2) 
wb97xd/def2tzvp

>  <lot_method>  (2) 
wb97xd

>  <lot_basis>  (2) 
def2tzvp

>  <spin_multiplicity>  (2) 
1.0

>  <optical_isomers>  (2) 
1.0

>  <modes>  (2) 
IdealGasTranslation(mass=(60.0034, 'amu')),         NonlinearRotor(             inertia = ([9.90955, 86.3379, 96.2475

>  <frequency_value>  (2) 
unknown

>  <frequency_units>  (2) 
unknown

>  <frequency_list>  (2) 
unknown

>  <arkane_path>  (2) 
/home/calvin/Dropbox/PersonalFolders/Calvin/HAb_Converged/rxn_1979/output/Species/rxn_1979_SC=C/arkane/output.py

>  <path_exists>  (2) 
True

>  <E0_value>  (2) 
-1251689.3396330692

>  <E0_units>  (2) 
kJ/mol

>  <thermo_class>  (2) 
NASA

>  <Cp0_value>  (2) 
33.257888

>  <Cp0_units>  (2) 
J/(mol*K)

>  <CpInf_value>  (2) 
157.97496800000002

>  <CpInf_units>  (2) 
J/(mol*K)

>  <Tmin_value>  (2) 
10.0

>  <Tmin_units>  (2) 
K

>  <Tmax_value>  (2) 
3000.0

>  <Tmax_units>  (2) 
K

>  <polynomials>  (2) 
[{"name": "polynomial1", "class": "NASAPolynomial", "Tmin_value": 10.0, "Tmin_units": "K", "Tmax_value": 517.9166369575638, "Tmax_units": "K", "coeffs": [3.970943528627265, 0.0017549859518896475, 6.263179217986445e-05, -1.1501034860932816e-07, 6.695717033236293e-11, -150543453.52865788, 7.609177655228488]}, {"name": "polynomial2", "class": "NASAPolynomial", "Tmin_value": 517.9166369575638, "Tmin_units": "K", "Tmax_value": 3000.0, "Tmax_units": "K", "coeffs": [1.9532719942310368, 0.022815867595288735, -1.4230327364071134e-05, 4.349032259418721e-09, -5.156538233631825e-13, -150543318.00045806, 15.30649398017564]}]

>  <H298_value>  (2) 
-299157.71328035666

>  <H298_units>  (2) 
kcal/mol

>  <S298_value>  (2) 
64.88916086894581

>  <S298_units>  (2) 
cal/(mol*K)

>  <Cp_T_value_list>  (2) 
[15.045884185662125, 17.97918306890562, 20.497864394367745, 22.639124734721307, 26.060323959682886, 28.560510715520543, 32.24505497502253, 34.19087078102478, 35.28788754242124]

>  <Cp_T_units>  (2) 
cal/(mol*K)

>  <T_list>  (2) 
[300.0, 400.0, 500.0, 600.0, 800.0, 1000.0, 1500.0, 2000.0, 2400.0]

>  <T_units>  (2) 
K

>  <yaml_path>  (2) 
/home/calvin/Dropbox/PersonalFolders/Calvin/HAb_Converged/rxn_1979/output/Species/rxn_1979_SC=C/rxn_1979_SC=C.yml

>  <frequencies_cm1>  (2) 
[266.77551269668, 385.11427071624, 606.4990104477199, 704.1475416981201, 905.32961061816, 907.6437846709999, 996.58497853564, 1086.5218852716798, 1302.9417946168, 1424.11661757352, 1666.45252951632, 2699.0823139966396, 3125.3092258237198, 3153.3059249733597, 3215.54827991384]

>  <ZPE_kJmol>  (2) 
134.2531845672591

>  <E_elec_kJmol>  (2) 
-1251823.5928176364

>  <E0_minus_Eelec_plus_ZPE_kJmol>  (2) 
0.0

>  <rxn>  (2) 
rxn_1979

>  <species_type>  (2) 
p0

>  <species_folder>  (2) 
rxn_1979_SC=C

>  <frequencies_cm1_list>  (2) 
[266.77551269668, 385.11427071624, 606.4990104477199, 704.1475416981201, 905.32961061816, 907.6437846709999, 996.58497853564, 1086.5218852716798, 1302.9417946168, 1424.11661757352, 1666.45252951632, 2699.0823139966396, 3125.3092258237198, 3153.3059249733597, 3215.54827991384]

>  <E0_kJmol>  (2) 
-1.25169e+06

>  <H298_kJmol>  (2) 
-1.25168e+06

$$$$

     RDKit          3D

 13 11  0  0  0  0  0  0  0  0999 V2000
   -2.4113    0.1941    0.7078 S   0  0  0  0  0  0  0  0  0  1  0  0
   -1.0458    0.9912    1.3732 C   0  0  0  0  0  3  0  0  0  2  0  0
   -0.8333    1.6281    2.5025 C   0  0  0  0  0  0  0  0  0  3  0  0
   -1.7216   -0.7911    0.1021 H   0  0  0  0  0  0  0  0  0  4  0  0
    0.0807    2.1894    2.6592 H   0  0  0  0  0  0  0  0  0  5  0  0
   -1.5533    1.6097    3.3161 H   0  0  0  0  0  0  0  0  0  6  0  0
    0.9129    0.8681   -0.4910 C   0  0  0  0  0  0  0  0  0  7  0  0
    1.5100   -0.4373   -0.2954 C   0  0  0  0  0  0  0  0  0  8  0  0
    0.8482   -1.8539   -0.7426 S   0  0  0  0  0  0  0  0  0  9  0  0
    0.0821    0.9853    0.4290 H   0  0  0  0  0  0  0  0  0 10  0  0
    1.5877    1.7138   -0.3774 H   0  0  0  0  0  0  0  0  0 11  0  0
    0.2597    0.9440   -1.3576 H   0  0  0  0  0  0  0  0  0 12  0  0
    2.4505   -0.4535    0.2556 H   0  0  0  0  0  0  0  0  0 13  0  0
  1  2  1  0
  1  4  1  0
  2  3  1  0
  3  6  1  0
  3  5  1  0
  7 12  1  0
  7  8  1  0
  7 11  1  0
  7 10  1  0
  8  9  1  0
  8 13  1  0
M  RAD  1   2   2
M  END
>  <rmg_smiles>  (3) 
[CH2][C]S.C[CH][S]

>  <rmg_adjacency_list>  (3) 
multiplicity 2
1  S u0 p2 c0 {6,S} {13,S}
2  S u0 p2 c0 {4,S}
3  C u0 p0 c0 {4,S} {7,S} {8,S} {9,S}
4  C u0 p0 c0 {2,S} {3,S} {10,S}
5  C u0 p0 c0 {6,S} {11,S} {12,S}
6  C u1 p1 c0 {1,S} {5,S}
7  H u0 p0 c0 {3,S}
8  H u0 p0 c0 {3,S}
9  H u0 p0 c0 {3,S}
10 H u0 p0 c0 {4,S}
11 H u0 p0 c0 {5,S}
12 H u0 p0 c0 {5,S}
13 H u0 p0 c0 {1,S}


>  <multiplicity>  (3) 
2

>  <reaction>  (3) 
rxn_1979

>  <type>  (3) 
ts

>  <role_mapnums>  (3) 
{"*2": 10, "*1": 7, "*3": 2, "*0": 8, "*4": 1}

>  <role_mapidx>  (3) 
{"*2": 9, "*1": 6, "*3": 1, "*0": 7, "*4": 0}

>  <ordered_mapped_smiles>  (3) 
[S:1]([CH:2][CH:3]([H:5])[H:6])[H:4].[C:7]([CH:8]([SH:9])[H:13])([H:10])([H:11])[H:12]

>  <mol_properties>  (3) 
{"0": {"label": "*4", "atom_type": "S2s"}, "1": {"label": "*3", "atom_type": "C2s"}, "6": {"label": "*1", "atom_type": "Cs"}, "7": {"label": "*0", "atom_type": "Cs"}, "9": {"label": "*2", "atom_type": "H0"}}

>  <level_of_theory>  (3) 
wb97xd/def2tzvp

>  <lot_method>  (3) 
wb97xd

>  <lot_basis>  (3) 
def2tzvp

>  <spin_multiplicity>  (3) 
2.0

>  <optical_isomers>  (3) 
2.0

>  <modes>  (3) 
IdealGasTranslation(mass=(118.999, 'amu')),         NonlinearRotor(             inertia = ([160.549, 456.539, 556.425

>  <frequency_value>  (3) 
-1368.09

>  <frequency_units>  (3) 
cm^-1

>  <frequency_list>  (3) 
unknown

>  <arkane_path>  (3) 
/home/calvin/Dropbox/PersonalFolders/Calvin/HAb_Converged/rxn_1979/output/rxns/TS0/arkane/output.py

>  <path_exists>  (3) 
True

>  <E0_value>  (3) 
-2501620.0

>  <E0_units>  (3) 
kJ/mol

>  <thermo_class>  (3) 
unknown

>  <Cp0_value>  (3) 
unknown

>  <Cp0_units>  (3) 
unknown

>  <CpInf_value>  (3) 
unknown

>  <CpInf_units>  (3) 
unknown

>  <Tmin_value>  (3) 
unknown

>  <Tmin_units>  (3) 
unknown

>  <Tmax_value>  (3) 
unknown

>  <Tmax_units>  (3) 
unknown

>  <polynomials>  (3) 
unknown

>  <H298_value>  (3) 
unknown

>  <H298_units>  (3) 
unknown

>  <S298_value>  (3) 
unknown

>  <S298_units>  (3) 
unknown

>  <Cp_T_value_list>  (3) 
unknown

>  <Cp_T_units>  (3) 
unknown

>  <T_list>  (3) 
unknown

>  <T_units>  (3) 
unknown

>  <yaml_path>  (3) 
unknown

>  <frequencies_cm1>  (3) 
unknown

>  <ZPE_kJmol>  (3) 
unknown

>  <E_elec_kJmol>  (3) 
unknown

>  <E0_minus_Eelec_plus_ZPE_kJmol>  (3) 
unknown

>  <rxn>  (3) 
unknown

>  <species_type>  (3) 
unknown

>  <species_folder>  (3) 
unknown

>  <frequencies_cm1_list>  (3) 
[]

>  <ts_imag_freq_cm1>  (3) 
-1384.7043

>  <ts_freq_out_path>  (3) 
/home/calvin/Dropbox/PersonalFolders/Calvin/HAb_Converged/rxn_1979/output/rxns/TS0/geometry/freq.out

>  <E0_kJmol>  (3) 
-2.50162e+06

>  <H298_kJmol>  (3) 
unknown

$$$$

     RDKit          3D

  6  5  0  0  0  0  0  0  0  0999 V2000
   -0.7309   -0.0987    0.0327 C   0  0  0  0  0  0  0  0  0  1  0  0
    0.6208    0.0065   -0.0096 C   0  0  0  0  0  0  0  0  0  2  0  0
    1.6572   -1.2972    0.2837 S   0  0  0  0  0  1  0  0  0  3  0  0
   -1.3651    0.7588   -0.1608 H   0  0  0  0  0  0  0  0  0  4  0  0
   -1.2044   -1.0453    0.2616 H   0  0  0  0  0  0  0  0  0  5  0  0
    1.0609    0.9725   -0.2426 H   0  0  0  0  0  0  0  0  0  6  0  0
  1  5  1  0
  1  4  1  0
  1  2  1  0
  2  3  1  0
  2  6  1  0
M  RAD  1   3   2
M  END
>  <rmg_smiles>  (4) 
[CH2][CH][S]

>  <rmg_adjacency_list>  (4) 
multiplicity 2
1 S u1 p2 c0 {3,S}
2 C u0 p0 c0 {3,S} {4,S} {5,S}
3 C u0 p0 c0 {1,S} {2,S} {6,S}
4 H u0 p0 c0 {2,S}
5 H u0 p0 c0 {2,S}
6 H u0 p0 c0 {3,S}


>  <multiplicity>  (4) 
2

>  <reaction>  (4) 
rxn_1979

>  <type>  (4) 
r1

>  <role_mapnums>  (4) 
{}

>  <role_mapidx>  (4) 
{}

>  <ordered_mapped_smiles>  (4) 
[CH:1]([CH:2]([S:3])[H:6])([H:4])[H:5]

>  <level_of_theory>  (4) 
wb97xd/def2tzvp

>  <lot_method>  (4) 
wb97xd

>  <lot_basis>  (4) 
def2tzvp

>  <spin_multiplicity>  (4) 
2.0

>  <optical_isomers>  (4) 
1.0

>  <modes>  (4) 
IdealGasTranslation(mass=(58.9956, 'amu')),         NonlinearRotor(             inertia = ([8.83476, 79.9763, 88.811

>  <frequency_value>  (4) 
unknown

>  <frequency_units>  (4) 
unknown

>  <frequency_list>  (4) 
unknown

>  <arkane_path>  (4) 
/home/calvin/Dropbox/PersonalFolders/Calvin/HAb_Converged/rxn_1979/output/Species/rxn_1979_[CH2]C=S/arkane/output.py

>  <path_exists>  (4) 
True

>  <E0_value>  (4) 
-1250043.110807286

>  <E0_units>  (4) 
kJ/mol

>  <thermo_class>  (4) 
NASA

>  <Cp0_value>  (4) 
33.257888

>  <Cp0_units>  (4) 
J/(mol*K)

>  <CpInf_value>  (4) 
133.031552

>  <CpInf_units>  (4) 
J/(mol*K)

>  <Tmin_value>  (4) 
10.0

>  <Tmin_units>  (4) 
K

>  <Tmax_value>  (4) 
3000.0

>  <Tmax_units>  (4) 
K

>  <polynomials>  (4) 
[{"name": "polynomial1", "class": "NASAPolynomial", "Tmin_value": 10.0, "Tmin_units": "K", "Tmax_value": 532.7243167618623, "Tmax_units": "K", "coeffs": [4.067075979396691, -0.006403539850264782, 8.807291251076341e-05, -1.576667854691463e-07, 9.235973025607611e-11, -150345458.46382707, 8.421967934724249]}, {"name": "polynomial2", "class": "NASAPolynomial", "Tmin_value": 532.7243167618623, "Tmin_units": "K", "Tmax_value": 3000.0, "Tmax_units": "K", "coeffs": [2.1262272561499946, 0.018548778063449952, -1.1410896338021972e-05, 3.4033850580240633e-09, -3.915343193556974e-13, -150345398.95630276, 15.180861356183497]}]

>  <H298_value>  (4) 
-298764.61657121626

>  <H298_units>  (4) 
kcal/mol

>  <S298_value>  (4) 
64.35790710333508

>  <S298_units>  (4) 
cal/(mol*K)

>  <Cp_T_value_list>  (4) 
[13.043400995126946, 15.641423321427808, 17.780866282053577, 19.53813430705424, 22.345017795429637, 24.394866961547805, 27.38203567367369, 28.89940637643697, 29.75793587094202]

>  <Cp_T_units>  (4) 
cal/(mol*K)

>  <T_list>  (4) 
[300.0, 400.0, 500.0, 600.0, 800.0, 1000.0, 1500.0, 2000.0, 2400.0]

>  <T_units>  (4) 
K

>  <yaml_path>  (4) 
/home/calvin/Dropbox/PersonalFolders/Calvin/HAb_Converged/rxn_1979/output/Species/rxn_1979_[CH2]C=S/rxn_1979_CH2C=S.yml

>  <frequencies_cm1>  (4) 
[401.01820871736, 475.21598509996, 781.12644713532, 939.1495133191601, 974.6449604382399, 1045.93800203048, 1282.84212858516, 1350.7016775174, 1511.6912813594797, 3110.64821216552, 3122.0680087526794, 3219.55859934072]

>  <ZPE_kJmol>  (4) 
108.94755150830215

>  <E_elec_kJmol>  (4) 
-1250152.0583587943

>  <E0_minus_Eelec_plus_ZPE_kJmol>  (4) 
0.0

>  <rxn>  (4) 
rxn_1979

>  <species_type>  (4) 
p1

>  <species_folder>  (4) 
rxn_1979_[CH2]C=S

>  <frequencies_cm1_list>  (4) 
[401.01820871736, 475.21598509996, 781.12644713532, 939.1495133191601, 974.6449604382399, 1045.93800203048, 1282.84212858516, 1350.7016775174, 1511.6912813594797, 3110.64821216552, 3122.0680087526794, 3219.55859934072]

>  <E0_kJmol>  (4) 
-1.25004e+06

>  <H298_kJmol>  (4) 
-1.25003e+06

$$$$

     RDKit          3D

  6  5  0  0  0  0  0  0  0  0999 V2000
    1.7035    0.4954    0.0162 S   0  0  0  0  0  0  0  0  0  1  0  0
    0.1927   -0.1841   -0.3584 C   0  0  0  0  0  3  0  0  0  2  0  0
   -1.0558    0.0577   -0.0460 C   0  0  0  0  0  0  0  0  0  3  0  0
    2.3611   -0.6557    0.2254 H   0  0  0  0  0  0  0  0  0  4  0  0
   -1.8677   -0.4245   -0.5802 H   0  0  0  0  0  0  0  0  0  5  0  0
   -1.3294    0.7333    0.7635 H   0  0  0  0  0  0  0  0  0  6  0  0
  1  2  1  0
  1  4  1  0
  2  3  1  0
  3  6  1  0
  3  5  1  0
M  RAD  1   2   2
M  END
>  <rmg_smiles>  (5) 
[CH2][C]S

>  <rmg_adjacency_list>  (5) 
multiplicity 2
1 S u0 p2 c0 {3,S} {6,S}
2 C u0 p0 c0 {3,S} {4,S} {5,S}
3 C u1 p1 c0 {1,S} {2,S}
4 H u0 p0 c0 {2,S}
5 H u0 p0 c0 {2,S}
6 H u0 p0 c0 {1,S}


>  <multiplicity>  (5) 
2

>  <reaction>  (5) 
rxn_1979

>  <type>  (5) 
r2

>  <role_mapnums>  (5) 
{}

>  <role_mapidx>  (5) 
{}

>  <ordered_mapped_smiles>  (5) 
[S:1]([CH:2][CH:3]([H:5])[H:6])[H:4]

>  <level_of_theory>  (5) 
wb97xd/def2tzvp

>  <lot_method>  (5) 
wb97xd

>  <lot_basis>  (5) 
def2tzvp

>  <spin_multiplicity>  (5) 
2.0

>  <optical_isomers>  (5) 
2.0

>  <modes>  (5) 
IdealGasTranslation(mass=(58.9956, 'amu')),         NonlinearRotor(             inertia = ([5.86277, 89.2142, 93.3691

>  <frequency_value>  (5) 
unknown

>  <frequency_units>  (5) 
unknown

>  <frequency_list>  (5) 
unknown

>  <arkane_path>  (5) 
/home/calvin/Dropbox/PersonalFolders/Calvin/HAb_Converged/rxn_1979/output/Species/rxn_1979_S[C]=C/arkane/output.py

>  <path_exists>  (5) 
True

>  <E0_value>  (5) 
-1249945.7399661627

>  <E0_units>  (5) 
kJ/mol

>  <thermo_class>  (5) 
NASA

>  <Cp0_value>  (5) 
33.257888

>  <Cp0_units>  (5) 
J/(mol*K)

>  <CpInf_value>  (5) 
133.031552

>  <CpInf_units>  (5) 
J/(mol*K)

>  <Tmin_value>  (5) 
10.0

>  <Tmin_units>  (5) 
K

>  <Tmax_value>  (5) 
3000.0

>  <Tmax_units>  (5) 
K

>  <polynomials>  (5) 
[{"name": "polynomial1", "class": "NASAPolynomial", "Tmin_value": 10.0, "Tmin_units": "K", "Tmax_value": 500.3914625545621, "Tmax_units": "K", "coeffs": [3.9544650685049887, 0.0028846781197034324, 5.950897819991564e-05, -1.2753281725110462e-07, 8.369166023665105e-11, -150333746.6952712, 8.836073423601682]}, {"name": "polynomial2", "class": "NASAPolynomial", "Tmin_value": 500.3914625545621, "Tmin_units": "K", "Tmax_value": 3000.0, "Tmax_units": "K", "coeffs": [3.392909366574306, 0.01678384937195946, -1.0364550218080234e-05, 3.141092957259568e-09, -3.7052525921064655e-13, -150333808.307997, 9.97925285234729]}]

>  <H298_value>  (5) 
-298740.9807490372

>  <H298_units>  (5) 
kcal/mol

>  <S298_value>  (5) 
67.38019382845464

>  <S298_units>  (5) 
cal/(mol*K)

>  <Cp_T_value_list>  (5) 
[14.725583552995092, 17.110203735578658, 19.004004099588183, 20.592302006047493, 23.137341727222037, 25.00457470148292, 27.76892564253498, 29.21739392128137, 30.01410883619956]

>  <Cp_T_units>  (5) 
cal/(mol*K)

>  <T_list>  (5) 
[300.0, 400.0, 500.0, 600.0, 800.0, 1000.0, 1500.0, 2000.0, 2400.0]

>  <T_units>  (5) 
K

>  <yaml_path>  (5) 
/home/calvin/Dropbox/PersonalFolders/Calvin/HAb_Converged/rxn_1979/output/Species/rxn_1979_S[C]=C/rxn_1979_SC=C.yml

>  <frequencies_cm1>  (5) 
[267.83302843596, 308.40317770651995, 554.8455468706799, 716.0205593164001, 907.1287607719999, 954.35988580296, 1012.9078026412799, 1396.3671298954, 1687.9187256266398, 2665.5714256350398, 3064.4952038297997, 3160.31024999976]

>  <ZPE_kJmol>  (5) 
99.86525164405435

>  <E_elec_kJmol>  (5) 
-1250045.6052178068

>  <E0_minus_Eelec_plus_ZPE_kJmol>  (5) 
0.0

>  <rxn>  (5) 
rxn_1979

>  <species_type>  (5) 
r0

>  <species_folder>  (5) 
rxn_1979_S[C]=C

>  <frequencies_cm1_list>  (5) 
[267.83302843596, 308.40317770651995, 554.8455468706799, 716.0205593164001, 907.1287607719999, 954.35988580296, 1012.9078026412799, 1396.3671298954, 1687.9187256266398, 2665.5714256350398, 3064.4952038297997, 3160.31024999976]

>  <E0_kJmol>  (5) 
-1.24995e+06

>  <H298_kJmol>  (5) 
-1.24993e+06

$$$$
