
     RDKit          3D

 10  9  0  0  0  0  0  0  0  0999 V2000
   -0.0415   -0.7866   -1.4438 C   0  0  0  0  0  0  0  0  0  1  0  0
    0.2038   -0.9018    0.0466 C   0  0  0  0  0  0  0  0  0  2  0  0
    0.5148    0.3367    0.6684 O   0  0  0  0  0  0  0  0  0  3  0  0
   -0.6126    1.1371    0.6876 O   0  0  0  0  0  0  0  0  0  4  0  0
    0.8130   -0.3286   -1.9448 H   0  0  0  0  0  0  0  0  0  5  0  0
   -0.1971   -1.7795   -1.8693 H   0  0  0  0  0  0  0  0  0  6  0  0
   -0.9307   -0.1899   -1.6455 H   0  0  0  0  0  0  0  0  0  7  0  0
    1.0840   -1.5143    0.2529 H   0  0  0  0  0  0  0  0  0  8  0  0
   -0.6570   -1.3462    0.5538 H   0  0  0  0  0  0  0  0  0  9  0  0
   -0.5151    1.7334   -0.0584 H   0  0  0  0  0  0  0  0  0 10  0  0
  1  5  1  0
  1  7  1  0
  1  6  1  0
  1  2  1  0
  2  9  1  0
  2  8  1  0
  2  3  1  0
  3  4  1  0
  4 10  1  0
M  END
>  <rmg_smiles>  (1) 
CCOO

>  <rmg_adjacency_list>  (1) 
1  O u0 p2 c0 {2,S} {3,S}
2  O u0 p2 c0 {1,S} {10,S}
3  C u0 p0 c0 {1,S} {4,S} {5,S} {6,S}
4  C u0 p0 c0 {3,S} {7,S} {8,S} {9,S}
5  H u0 p0 c0 {3,S}
6  H u0 p0 c0 {3,S}
7  H u0 p0 c0 {4,S}
8  H u0 p0 c0 {4,S}
9  H u0 p0 c0 {4,S}
10 H u0 p0 c0 {2,S}


>  <multiplicity>  (1) 
1

>  <reaction>  (1) 
rxn_450

>  <type>  (1) 
r1h

>  <role_mapnums>  (1) 
{"r1h_a": 4, "r1h_h": 10}

>  <role_mapidx>  (1) 
{"r1h_a": 3, "r1h_h": 9}

>  <ordered_mapped_smiles>  (1) 
[C:1]([C:2]([O:3][O:4][H:10])([H:8])[H:9])([H:5])([H:6])[H:7]

>  <mol_properties>  (1) 
{"3": {"label": "donator", "atom_type": "O2s"}, "9": {"label": "d_hydrogen", "atom_type": "H0"}}

>  <level_of_theory>  (1) 
wb97xd/def2tzvp

>  <lot_method>  (1) 
wb97xd

>  <lot_basis>  (1) 
def2tzvp

>  <spin_multiplicity>  (1) 
1.0

>  <optical_isomers>  (1) 
2.0

>  <modes>  (1) 
IdealGasTranslation(mass=(62.0368, 'amu')),         NonlinearRotor(             inertia = ([31.901, 90.8076, 107.715

>  <frequency_value>  (1) 
unknown

>  <frequency_units>  (1) 
unknown

>  <frequency_list>  (1) 
unknown

>  <arkane_path>  (1) 
/home/calvin/Dropbox/PersonalFolders/Calvin/HAb_Converged/rxn_450/output/Species/rxn_450_CCOO/arkane/output.py

>  <path_exists>  (1) 
True

>  <E0_value>  (1) 
-604159.1399942553

>  <E0_units>  (1) 
kJ/mol

>  <thermo_class>  (1) 
NASA

>  <Cp0_value>  (1) 
33.257888

>  <Cp0_units>  (1) 
J/(mol*K)

>  <CpInf_value>  (1) 
232.805216

>  <CpInf_units>  (1) 
J/(mol*K)

>  <Tmin_value>  (1) 
10.0

>  <Tmin_units>  (1) 
K

>  <Tmax_value>  (1) 
3000.0

>  <Tmax_units>  (1) 
K

>  <polynomials>  (1) 
[{"name": "polynomial1", "class": "NASAPolynomial", "Tmin_value": 10.0, "Tmin_units": "K", "Tmax_value": 514.1724528691229, "Tmax_units": "K", "coeffs": [3.8336344453475952, 0.01409920805556482, 3.6898200657499844e-05, -6.719543334122714e-08, 3.4675594662751285e-11, -72663558.31922284, 9.308822818089814]}, {"name": "polynomial2", "class": "NASAPolynomial", "Tmin_value": 514.1724528691229, "Tmin_units": "K", "Tmax_value": 3000.0, "Tmax_units": "K", "coeffs": [1.3693904641168975, 0.03326945732933675, -1.9026424691886852e-05, 5.314229938719563e-09, -5.793438015673505e-13, -72663304.90578787, 19.558209403678077]}]

>  <H298_value>  (1) 
-144393.56525281267

>  <H298_units>  (1) 
kcal/mol

>  <S298_value>  (1) 
72.46335512166218

>  <S298_units>  (1) 
cal/(mol*K)

>  <Cp_T_value_list>  (1) 
[19.57563448442731, 23.775370322495604, 27.573651000165018, 30.909690897198878, 36.349248100438004, 40.434305196144955, 46.63321645179998, 49.77345201242097, 51.402195377068814]

>  <Cp_T_units>  (1) 
cal/(mol*K)

>  <T_list>  (1) 
[300.0, 400.0, 500.0, 600.0, 800.0, 1000.0, 1500.0, 2000.0, 2400.0]

>  <T_units>  (1) 
K

>  <yaml_path>  (1) 
/home/calvin/Dropbox/PersonalFolders/Calvin/HAb_Converged/rxn_450/output/Species/rxn_450_CCOO/rxn_450_CCOO.yml

>  <frequencies_cm1>  (1) 
[154.28742616975998, 228.43026666979998, 261.43299811772, 369.51934705452, 514.6187468661199, 797.28446359328, 876.7972866135599, 960.7324481799199, 1074.19564662228, 1109.30654256344, 1184.9807207898398, 1309.68517420104, 1375.6013662877199, 1383.9378864661999, 1404.4289706610798, 1467.1588815592797, 1474.3280142333601, 1493.5349721733999, 3013.8580540801195, 3020.84177815056, 3069.0136801703593, 3096.50908939164, 3107.0911137697603, 3784.1071964685593]

>  <ZPE_kJmol>  (1) 
218.50804592085709

>  <E_elec_kJmol>  (1) 
-604377.6480401761

>  <E0_minus_Eelec_plus_ZPE_kJmol>  (1) 
0.0

>  <rxn>  (1) 
rxn_450

>  <species_type>  (1) 
r0

>  <species_folder>  (1) 
rxn_450_CCOO

>  <frequencies_cm1_list>  (1) 
[154.28742616975998, 228.43026666979998, 261.43299811772, 369.51934705452, 514.6187468661199, 797.28446359328, 876.7972866135599, 960.7324481799199, 1074.19564662228, 1109.30654256344, 1184.9807207898398, 1309.68517420104, 1375.6013662877199, 1383.9378864661999, 1404.4289706610798, 1467.1588815592797, 1474.3280142333601, 1493.5349721733999, 3013.8580540801195, 3020.84177815056, 3069.0136801703593, 3096.50908939164, 3107.0911137697603, 3784.1071964685593]

>  <E0_kJmol>  (1) 
-604159

>  <H298_kJmol>  (1) 
-604143

$$$$

     RDKit          3D

 11 10  0  0  0  0  0  0  0  0999 V2000
   -0.4022   -1.1824    0.6466 H   0  0  0  0  0  0  0  0  0  1  0  0
    1.2579   -0.3011   -0.1756 C   0  0  0  0  0  0  0  0  0  2  0  0
   -0.2352   -0.4522   -0.1459 C   0  0  0  0  0  0  0  0  0  3  0  0
   -1.0347    0.7447    0.2849 C   0  0  0  0  0  0  0  0  0  4  0  0
    1.6299    0.0912    0.7728 H   0  0  0  0  0  0  0  0  0  5  0  0
    1.7549   -1.2529   -0.3650 H   0  0  0  0  0  0  0  0  0  6  0  0
    1.5574    0.3971   -0.9662 H   0  0  0  0  0  0  0  0  0  7  0  0
   -0.6454   -0.9712   -1.0130 H   0  0  0  0  0  0  0  0  0  8  0  0
   -0.9260    1.5599   -0.4401 H   0  0  0  0  0  0  0  0  0  9  0  0
   -2.0972    0.5128    0.3652 H   0  0  0  0  0  0  0  0  0 10  0  0
   -0.6899    1.1172    1.2517 H   0  0  0  0  0  0  0  0  0 11  0  0
  1  3  1  0
  2  7  1  0
  2  5  1  0
  2  6  1  0
  2  3  1  0
  3  4  1  0
  3  8  1  0
  4  9  1  0
  4 10  1  0
  4 11  1  0
M  END
>  <rmg_smiles>  (2) 
CCC

>  <rmg_adjacency_list>  (2) 
1  H u0 p0 c0 {3,S}
2  C u0 p0 c0 {3,S} {5,S} {6,S} {7,S}
3  C u0 p0 c0 {1,S} {2,S} {4,S} {8,S}
4  C u0 p0 c0 {3,S} {9,S} {10,S} {11,S}
5  H u0 p0 c0 {2,S}
6  H u0 p0 c0 {2,S}
7  H u0 p0 c0 {2,S}
8  H u0 p0 c0 {3,S}
9  H u0 p0 c0 {4,S}
10 H u0 p0 c0 {4,S}
11 H u0 p0 c0 {4,S}


>  <multiplicity>  (2) 
1

>  <reaction>  (2) 
rxn_450

>  <type>  (2) 
r2h

>  <role_mapnums>  (2) 
{"r2h_a": 3, "r2h_h": 1}

>  <role_mapidx>  (2) 
{"r2h_a": 2, "r2h_h": 0}

>  <ordered_mapped_smiles>  (2) 
[H:1][C:3]([C:2]([H:5])([H:6])[H:7])([C:4]([H:9])([H:10])[H:11])[H:8]

>  <mol_properties>  (2) 
{"0": {"label": "a_hydrogen", "atom_type": "H0"}, "2": {"label": "acceptor", "atom_type": "Cs"}}

>  <level_of_theory>  (2) 
wb97xd/def2tzvp

>  <lot_method>  (2) 
wb97xd

>  <lot_basis>  (2) 
def2tzvp

>  <spin_multiplicity>  (2) 
1.0

>  <optical_isomers>  (2) 
1.0

>  <modes>  (2) 
IdealGasTranslation(mass=(44.0626, 'amu')),         NonlinearRotor(             inertia = ([17.0625, 59.5808, 67.2958

>  <frequency_value>  (2) 
unknown

>  <frequency_units>  (2) 
unknown

>  <frequency_list>  (2) 
unknown

>  <arkane_path>  (2) 
/home/calvin/Dropbox/PersonalFolders/Calvin/HAb_Converged/rxn_450/output/Species/rxn_450_CCC/arkane/output.py

>  <path_exists>  (2) 
True

>  <E0_value>  (2) 
-312559.7664121831

>  <E0_units>  (2) 
kJ/mol

>  <thermo_class>  (2) 
NASA

>  <Cp0_value>  (2) 
33.257888

>  <Cp0_units>  (2) 
J/(mol*K)

>  <CpInf_value>  (2) 
257.748632

>  <CpInf_units>  (2) 
J/(mol*K)

>  <Tmin_value>  (2) 
10.0

>  <Tmin_units>  (2) 
K

>  <Tmax_value>  (2) 
3000.0

>  <Tmax_units>  (2) 
K

>  <polynomials>  (2) 
[{"name": "polynomial1", "class": "NASAPolynomial", "Tmin_value": 10.0, "Tmin_units": "K", "Tmax_value": 577.4310568776192, "Tmax_units": "K", "coeffs": [3.9747269033817734, 0.0011347804367172543, 7.533889062875609e-05, -1.0470498139729524e-07, 4.699078499553375e-11, -37592254.8773633, 6.773591698117238]}, {"name": "polynomial2", "class": "NASAPolynomial", "Tmin_value": 577.4310568776192, "Tmin_units": "K", "Tmax_value": 3000.0, "Tmax_units": "K", "coeffs": [-1.3041055241664254, 0.03770227026025092, -1.9652378532074013e-05, 4.9654907444475164e-09, -4.909963524622396e-13, -37591645.24138486, 29.34198158192454]}]

>  <H298_value>  (2) 
-74700.16503809701

>  <H298_units>  (2) 
kcal/mol

>  <S298_value>  (2) 
64.12787959081382

>  <S298_units>  (2) 
cal/(mol*K)

>  <Cp_T_value_list>  (2) 
[17.187849905588877, 21.82888089347945, 26.282080105357306, 30.30750880664003, 37.00458219733553, 42.16907955247373, 50.28489012355217, 54.3677942411287, 56.31048938168173]

>  <Cp_T_units>  (2) 
cal/(mol*K)

>  <T_list>  (2) 
[300.0, 400.0, 500.0, 600.0, 800.0, 1000.0, 1500.0, 2000.0, 2400.0]

>  <T_units>  (2) 
K

>  <yaml_path>  (2) 
/home/calvin/Dropbox/PersonalFolders/Calvin/HAb_Converged/rxn_450/output/Species/rxn_450_CCC/rxn_450_CCC.yml

>  <frequencies_cm1>  (2) 
[219.27657523823999, 274.69314677064, 369.88329727648, 749.53831466332, 878.21188558948, 908.3991530561998, 929.9271520343999, 1065.0968910732797, 1172.11199030016, 1205.9799618984, 1309.06714552224, 1359.46395078572, 1398.3379546822398, 1410.31397708032, 1476.4087107853202, 1480.39842925624, 1483.440503753, 1494.09119798432, 1498.5410044716796, 3005.39792816588, 3007.40308787932, 3010.35589156692, 3037.8787687294803, 3071.65746951856, 3081.94421352792, 3083.3450785332, 3086.08500567588]

>  <ZPE_kJmol>  (2) 
269.5620865819488

>  <E_elec_kJmol>  (2) 
-312829.32849876507

>  <E0_minus_Eelec_plus_ZPE_kJmol>  (2) 
0.0

>  <rxn>  (2) 
rxn_450

>  <species_type>  (2) 
p0

>  <species_folder>  (2) 
rxn_450_CCC

>  <frequencies_cm1_list>  (2) 
[219.27657523823999, 274.69314677064, 369.88329727648, 749.53831466332, 878.21188558948, 908.3991530561998, 929.9271520343999, 1065.0968910732797, 1172.11199030016, 1205.9799618984, 1309.06714552224, 1359.46395078572, 1398.3379546822398, 1410.31397708032, 1476.4087107853202, 1480.39842925624, 1483.440503753, 1494.09119798432, 1498.5410044716796, 3005.39792816588, 3007.40308787932, 3010.35589156692, 3037.8787687294803, 3071.65746951856, 3081.94421352792, 3083.3450785332, 3086.08500567588]

>  <E0_kJmol>  (2) 
-312560

>  <H298_kJmol>  (2) 
-312545

$$$$

     RDKit          3D

 20 18  0  0  0  0  0  0  0  0999 V2000
    0.0692   -2.1134   -0.9850 C   0  0  0  0  0  0  0  0  0  1  0  0
    0.3145   -2.2286    0.5054 C   0  0  0  0  0  0  0  0  0  2  0  0
    0.6255   -0.9901    1.1272 O   0  0  0  0  0  0  0  0  0  3  0  0
   -0.5019   -0.1898    1.1464 O   0  0  0  0  0  0  0  0  0  4  0  0
    0.9237   -1.6555   -1.4860 H   0  0  0  0  0  0  0  0  0  5  0  0
   -0.0864   -3.1063   -1.4105 H   0  0  0  0  0  0  0  0  0  6  0  0
   -0.8200   -1.5168   -1.1867 H   0  0  0  0  0  0  0  0  0  7  0  0
    1.1947   -2.8411    0.7116 H   0  0  0  0  0  0  0  0  0  8  0  0
   -0.5463   -2.6730    1.0126 H   0  0  0  0  0  0  0  0  0  9  0  0
   -0.3818    0.5447    0.2276 H   0  0  0  0  0  0  0  0  0 10  0  0
    1.3169    1.5947   -0.7777 C   0  0  0  0  0  0  0  0  0 11  0  0
   -0.1762    1.4437   -0.7481 C   0  0  0  0  0  3  0  0  0 12  0  0
   -0.9757    2.6406   -0.3172 C   0  0  0  0  0  0  0  0  0 13  0  0
    1.6889    1.9871    0.1707 H   0  0  0  0  0  0  0  0  0 14  0  0
    1.8139    0.6430   -0.9671 H   0  0  0  0  0  0  0  0  0 15  0  0
    1.6164    2.2930   -1.5683 H   0  0  0  0  0  0  0  0  0 16  0  0
   -0.5864    0.9247   -1.6151 H   0  0  0  0  0  0  0  0  0 17  0  0
   -0.8670    3.4558   -1.0422 H   0  0  0  0  0  0  0  0  0 18  0  0
   -2.0382    2.4087   -0.2370 H   0  0  0  0  0  0  0  0  0 19  0  0
   -0.6309    3.0131    0.6495 H   0  0  0  0  0  0  0  0  0 20  0  0
  1  5  1  0
  1  7  1  0
  1  6  1  0
  1  2  1  0
  2  9  1  0
  2  8  1  0
  2  3  1  0
  3  4  1  0
  4 10  1  0
 11 14  1  0
 11 12  1  0
 11 16  1  0
 11 15  1  0
 12 17  1  0
 12 13  1  0
 13 19  1  0
 13 18  1  0
 13 20  1  0
M  RAD  1  12   2
M  END
>  <rmg_smiles>  (3) 
CCOO.C[CH]C

>  <rmg_adjacency_list>  (3) 
multiplicity 2
1  O u0 p2 c0 {2,S} {3,S}
2  O u0 p2 c0 {1,S} {20,S}
3  C u0 p0 c0 {1,S} {4,S} {8,S} {9,S}
4  C u0 p0 c0 {3,S} {10,S} {11,S} {12,S}
5  C u0 p0 c0 {7,S} {13,S} {14,S} {15,S}
6  C u0 p0 c0 {7,S} {16,S} {17,S} {18,S}
7  C u1 p0 c0 {5,S} {6,S} {19,S}
8  H u0 p0 c0 {3,S}
9  H u0 p0 c0 {3,S}
10 H u0 p0 c0 {4,S}
11 H u0 p0 c0 {4,S}
12 H u0 p0 c0 {4,S}
13 H u0 p0 c0 {5,S}
14 H u0 p0 c0 {5,S}
15 H u0 p0 c0 {5,S}
16 H u0 p0 c0 {6,S}
17 H u0 p0 c0 {6,S}
18 H u0 p0 c0 {6,S}
19 H u0 p0 c0 {7,S}
20 H u0 p0 c0 {2,S}


>  <multiplicity>  (3) 
2

>  <reaction>  (3) 
rxn_450

>  <type>  (3) 
ts

>  <role_mapnums>  (3) 
{"*2": 10, "*1": 4, "*3": 12, "*0": 3, "*4": 11}

>  <role_mapidx>  (3) 
{"*2": 9, "*1": 3, "*3": 11, "*0": 2, "*4": 10}

>  <ordered_mapped_smiles>  (3) 
[C:1]([C:2]([O:3][O:4][H:10])([H:8])[H:9])([H:5])([H:6])[H:7].[C:11]([C:12]([C:13]([H:18])([H:19])[H:20])[H:17])([H:14])([H:15])[H:16]

>  <mol_properties>  (3) 
{"2": {"label": "*0", "atom_type": "O2s"}, "3": {"label": "*1", "atom_type": "O2s"}, "9": {"label": "*2", "atom_type": "H0"}, "10": {"label": "*4", "atom_type": "Cs"}, "11": {"label": "*3", "atom_type": "Cs"}}

>  <level_of_theory>  (3) 
wb97xd/def2tzvp

>  <lot_method>  (3) 
wb97xd

>  <lot_basis>  (3) 
def2tzvp

>  <spin_multiplicity>  (3) 
2.0

>  <optical_isomers>  (3) 
2.0

>  <modes>  (3) 
IdealGasTranslation(mass=(105.092, 'amu')),         NonlinearRotor(             inertia = ([134.051, 401.869, 431.977

>  <frequency_value>  (3) 
-1906.15

>  <frequency_units>  (3) 
cm^-1

>  <frequency_list>  (3) 
unknown

>  <arkane_path>  (3) 
/home/calvin/Dropbox/PersonalFolders/Calvin/HAb_Converged/rxn_450/output/rxns/TS0/arkane/output.py

>  <path_exists>  (3) 
True

>  <E0_value>  (3) 
-914993.0

>  <E0_units>  (3) 
kJ/mol

>  <thermo_class>  (3) 
unknown

>  <Cp0_value>  (3) 
unknown

>  <Cp0_units>  (3) 
unknown

>  <CpInf_value>  (3) 
unknown

>  <CpInf_units>  (3) 
unknown

>  <Tmin_value>  (3) 
unknown

>  <Tmin_units>  (3) 
unknown

>  <Tmax_value>  (3) 
unknown

>  <Tmax_units>  (3) 
unknown

>  <polynomials>  (3) 
unknown

>  <H298_value>  (3) 
unknown

>  <H298_units>  (3) 
unknown

>  <S298_value>  (3) 
unknown

>  <S298_units>  (3) 
unknown

>  <Cp_T_value_list>  (3) 
unknown

>  <Cp_T_units>  (3) 
unknown

>  <T_list>  (3) 
unknown

>  <T_units>  (3) 
unknown

>  <yaml_path>  (3) 
unknown

>  <frequencies_cm1>  (3) 
unknown

>  <ZPE_kJmol>  (3) 
unknown

>  <E_elec_kJmol>  (3) 
unknown

>  <E0_minus_Eelec_plus_ZPE_kJmol>  (3) 
unknown

>  <rxn>  (3) 
unknown

>  <species_type>  (3) 
unknown

>  <species_folder>  (3) 
unknown

>  <frequencies_cm1_list>  (3) 
[]

>  <ts_imag_freq_cm1>  (3) 
-1929.2979

>  <ts_freq_out_path>  (3) 
/home/calvin/Dropbox/PersonalFolders/Calvin/HAb_Converged/rxn_450/output/rxns/TS0/geometry/freq.out

>  <E0_kJmol>  (3) 
-914993

>  <H298_kJmol>  (3) 
unknown

$$$$

     RDKit          3D

  9  8  0  0  0  0  0  0  0  0999 V2000
   -1.0711   -0.0249   -0.1013 C   0  0  0  0  0  0  0  0  0  1  0  0
    0.3810    0.2227    0.2319 C   0  0  0  0  0  0  0  0  0  2  0  0
    1.2537   -0.5858   -0.5916 O   0  0  0  0  0  0  0  0  0  3  0  0
    1.2869   -0.1577   -1.8179 O   0  0  0  0  0  1  0  0  0  4  0  0
   -1.3307   -1.0736    0.0458 H   0  0  0  0  0  0  0  0  0  5  0  0
   -1.2739    0.2494   -1.1360 H   0  0  0  0  0  0  0  0  0  6  0  0
   -1.7027    0.5823    0.5487 H   0  0  0  0  0  0  0  0  0  7  0  0
    0.6282   -0.0825    1.2487 H   0  0  0  0  0  0  0  0  0  8  0  0
    0.6664    1.2642    0.0812 H   0  0  0  0  0  0  0  0  0  9  0  0
  1  5  1  0
  1  7  1  0
  1  6  1  0
  1  2  1  0
  2  9  1  0
  2  8  1  0
  2  3  1  0
  3  4  1  0
M  RAD  1   4   2
M  END
>  <rmg_smiles>  (4) 
CCO[O]

>  <rmg_adjacency_list>  (4) 
multiplicity 2
1 O u0 p2 c0 {2,S} {3,S}
2 O u1 p2 c0 {1,S}
3 C u0 p0 c0 {1,S} {4,S} {5,S} {6,S}
4 C u0 p0 c0 {3,S} {7,S} {8,S} {9,S}
5 H u0 p0 c0 {3,S}
6 H u0 p0 c0 {3,S}
7 H u0 p0 c0 {4,S}
8 H u0 p0 c0 {4,S}
9 H u0 p0 c0 {4,S}


>  <multiplicity>  (4) 
2

>  <reaction>  (4) 
rxn_450

>  <type>  (4) 
r1

>  <role_mapnums>  (4) 
{}

>  <role_mapidx>  (4) 
{}

>  <ordered_mapped_smiles>  (4) 
[C:1]([C:2]([O:3][O:4])([H:8])[H:9])([H:5])([H:6])[H:7]

>  <level_of_theory>  (4) 
wb97xd/def2tzvp

>  <lot_method>  (4) 
wb97xd

>  <lot_basis>  (4) 
def2tzvp

>  <spin_multiplicity>  (4) 
2.0

>  <optical_isomers>  (4) 
2.0

>  <modes>  (4) 
IdealGasTranslation(mass=(61.029, 'amu')),         NonlinearRotor(             inertia = ([27.7829, 88.8965, 102.663

>  <frequency_value>  (4) 
unknown

>  <frequency_units>  (4) 
unknown

>  <frequency_list>  (4) 
unknown

>  <arkane_path>  (4) 
/home/calvin/Dropbox/PersonalFolders/Calvin/HAb_Converged/rxn_450/output/Species/rxn_450_CCO[O]/arkane/output.py

>  <path_exists>  (4) 
True

>  <E0_value>  (4) 
-602511.8781085239

>  <E0_units>  (4) 
kJ/mol

>  <thermo_class>  (4) 
NASA

>  <Cp0_value>  (4) 
33.257888

>  <Cp0_units>  (4) 
J/(mol*K)

>  <CpInf_value>  (4) 
207.8618

>  <CpInf_units>  (4) 
J/(mol*K)

>  <Tmin_value>  (4) 
10.0

>  <Tmin_units>  (4) 
K

>  <Tmax_value>  (4) 
3000.0

>  <Tmax_units>  (4) 
K

>  <polynomials>  (4) 
[{"name": "polynomial1", "class": "NASAPolynomial", "Tmin_value": 10.0, "Tmin_units": "K", "Tmax_value": 950.1424237548658, "Tmax_units": "K", "coeffs": [3.93765922994912, 0.011329033147355935, 2.6199527613739717e-05, -3.625004179756809e-08, 1.3200953900360137e-11, -72465444.0478557, 9.740040064378418]}, {"name": "polynomial2", "class": "NASAPolynomial", "Tmin_value": 950.1424237548658, "Tmin_units": "K", "Tmax_value": 3000.0, "Tmax_units": "K", "coeffs": [2.95347382330703, 0.02606524844560525, -1.3787814137392651e-05, 3.5408088403417233e-09, -3.5612287092533147e-13, -72465735.1724477, 11.921640741267124]}]

>  <H298_value>  (4) 
-144000.14047264186

>  <H298_units>  (4) 
kcal/mol

>  <S298_value>  (4) 
72.37182222319979

>  <S298_units>  (4) 
cal/(mol*K)

>  <Cp_T_value_list>  (4) 
[17.532135827912423, 21.221653753655907, 24.732498077384648, 27.915767518002156, 33.018772882433026, 36.595588316347445, 42.0813282665877, 44.83380097264623, 46.15306952223199]

>  <Cp_T_units>  (4) 
cal/(mol*K)

>  <T_list>  (4) 
[300.0, 400.0, 500.0, 600.0, 800.0, 1000.0, 1500.0, 2000.0, 2400.0]

>  <T_units>  (4) 
K

>  <yaml_path>  (4) 
/home/calvin/Dropbox/PersonalFolders/Calvin/HAb_Converged/rxn_450/output/Species/rxn_450_CCO[O]/rxn_450_CCOO.yml

>  <frequencies_cm1>  (4) 
[114.46577829907999, 233.80024919004, 364.78799416904, 536.9776510680399, 803.4578833959599, 860.8315457445599, 1009.6734525555598, 1096.83609722232, 1176.59613171412, 1240.8367793827201, 1309.47916464144, 1373.64427547152, 1402.22466837336, 1470.393231645, 1475.7906821065199, 1490.9804536343597, 3028.4572648704398, 3049.84105715692, 3100.7803542606794, 3107.8808170815596, 3123.9358287597197]

>  <ZPE_kJmol>  (4) 
187.64431906015267

>  <E_elec_kJmol>  (4) 
-602699.522427584

>  <E0_minus_Eelec_plus_ZPE_kJmol>  (4) 
0.0

>  <rxn>  (4) 
rxn_450

>  <species_type>  (4) 
p1

>  <species_folder>  (4) 
rxn_450_CCO[O]

>  <frequencies_cm1_list>  (4) 
[114.46577829907999, 233.80024919004, 364.78799416904, 536.9776510680399, 803.4578833959599, 860.8315457445599, 1009.6734525555598, 1096.83609722232, 1176.59613171412, 1240.8367793827201, 1309.47916464144, 1373.64427547152, 1402.22466837336, 1470.393231645, 1475.7906821065199, 1490.9804536343597, 3028.4572648704398, 3049.84105715692, 3100.7803542606794, 3107.8808170815596, 3123.9358287597197]

>  <E0_kJmol>  (4) 
-602512

>  <H298_kJmol>  (4) 
-602497

$$$$

     RDKit          3D

 10  9  0  0  0  0  0  0  0  0999 V2000
    1.2930    0.1441    0.3288 C   0  0  0  0  0  0  0  0  0  1  0  0
   -0.0374   -0.1647    0.9100 C   0  0  0  0  0  3  0  0  0  2  0  0
   -1.2664    0.4569    0.3567 C   0  0  0  0  0  0  0  0  0  3  0  0
    1.4384    1.2242    0.2174 H   0  0  0  0  0  0  0  0  0  4  0  0
    2.1077   -0.2477    0.9385 H   0  0  0  0  0  0  0  0  0  5  0  0
    1.4057   -0.2836   -0.6789 H   0  0  0  0  0  0  0  0  0  6  0  0
   -0.1309   -0.9912    1.6030 H   0  0  0  0  0  0  0  0  0  7  0  0
   -1.5005    0.0716   -0.6471 H   0  0  0  0  0  0  0  0  0  8  0  0
   -2.1382    0.2713    0.9849 H   0  0  0  0  0  0  0  0  0  9  0  0
   -1.1497    1.5406    0.2456 H   0  0  0  0  0  0  0  0  0 10  0  0
  1  5  1  0
  1  4  1  0
  1  6  1  0
  1  2  1  0
  2  7  1  0
  2  3  1  0
  3  9  1  0
  3 10  1  0
  3  8  1  0
M  RAD  1   2   2
M  END
>  <rmg_smiles>  (5) 
C[CH]C

>  <rmg_adjacency_list>  (5) 
multiplicity 2
1  C u0 p0 c0 {3,S} {4,S} {5,S} {6,S}
2  C u0 p0 c0 {3,S} {7,S} {8,S} {9,S}
3  C u1 p0 c0 {1,S} {2,S} {10,S}
4  H u0 p0 c0 {1,S}
5  H u0 p0 c0 {1,S}
6  H u0 p0 c0 {1,S}
7  H u0 p0 c0 {2,S}
8  H u0 p0 c0 {2,S}
9  H u0 p0 c0 {2,S}
10 H u0 p0 c0 {3,S}


>  <multiplicity>  (5) 
2

>  <reaction>  (5) 
rxn_450

>  <type>  (5) 
r2

>  <role_mapnums>  (5) 
{}

>  <role_mapidx>  (5) 
{}

>  <ordered_mapped_smiles>  (5) 
[C:1]([C:2]([C:3]([H:8])([H:9])[H:10])[H:7])([H:4])([H:5])[H:6]

>  <level_of_theory>  (5) 
wb97xd/def2tzvp

>  <lot_method>  (5) 
wb97xd

>  <lot_basis>  (5) 
def2tzvp

>  <spin_multiplicity>  (5) 
2.0

>  <optical_isomers>  (5) 
1.0

>  <modes>  (5) 
IdealGasTranslation(mass=(43.0548, 'amu')),         NonlinearRotor(             inertia = ([13.4945, 59.9891, 67.2321

>  <frequency_value>  (5) 
unknown

>  <frequency_units>  (5) 
unknown

>  <frequency_list>  (5) 
unknown

>  <arkane_path>  (5) 
/home/calvin/Dropbox/PersonalFolders/Calvin/HAb_Converged/rxn_450/output/Species/rxn_450_C[CH]C/arkane/output.py

>  <path_exists>  (5) 
True

>  <E0_value>  (5) 
-310845.2184059608

>  <E0_units>  (5) 
kJ/mol

>  <thermo_class>  (5) 
NASA

>  <Cp0_value>  (5) 
33.257888

>  <Cp0_units>  (5) 
J/(mol*K)

>  <CpInf_value>  (5) 
232.805216

>  <CpInf_units>  (5) 
J/(mol*K)

>  <Tmin_value>  (5) 
10.0

>  <Tmin_units>  (5) 
K

>  <Tmax_value>  (5) 
3000.0

>  <Tmax_units>  (5) 
K

>  <polynomials>  (5) 
[{"name": "polynomial1", "class": "NASAPolynomial", "Tmin_value": 10.0, "Tmin_units": "K", "Tmax_value": 447.8128792552529, "Tmax_units": "K", "coeffs": [3.752012635379411, 0.026641862649172638, -7.746058003612534e-05, 2.1389576411497674e-07, -1.844633782932518e-10, -37386043.96321184, 8.05688024181999]}, {"name": "polynomial2", "class": "NASAPolynomial", "Tmin_value": 447.8128792552529, "Tmin_units": "K", "Tmax_value": 3000.0, "Tmax_units": "K", "coeffs": [0.3456331898922003, 0.0329396549778818, -1.7732866616299737e-05, 4.6556958792141865e-09, -4.78902486015414e-13, -37385496.94179907, 24.455396824893292]}]

>  <H298_value>  (5) 
-74289.9090718394

>  <H298_units>  (5) 
kcal/mol

>  <S298_value>  (5) 
70.4573159165227

>  <S298_units>  (5) 
cal/(mol*K)

>  <Cp_T_value_list>  (5) 
[17.99246870913784, 21.823762730245537, 25.70307457878351, 29.150647616604275, 34.84741547055869, 39.20602419681299, 45.99328941377369, 49.43494906715023, 51.132806782188474]

>  <Cp_T_units>  (5) 
cal/(mol*K)

>  <T_list>  (5) 
[300.0, 400.0, 500.0, 600.0, 800.0, 1000.0, 1500.0, 2000.0, 2400.0]

>  <T_units>  (5) 
K

>  <yaml_path>  (5) 
/home/calvin/Dropbox/PersonalFolders/Calvin/HAb_Converged/rxn_450/output/Species/rxn_450_C[CH]C/rxn_450_CCHC.yml

>  <frequencies_cm1>  (5) 
[105.22281605836, 112.68722910119999, 345.60850417028, 388.99411742204, 888.91751570336, 934.4593623456, 940.8456586931999, 1017.3988110405598, 1144.8637925504, 1173.26564383392, 1356.01672415508, 1400.16457277736, 1405.7130969159198, 1454.7502390860398, 1462.58546933616, 1465.42840125864, 1476.53231652108, 2938.8637074004, 2942.7366871208797, 3008.0211165581195, 3008.4194017066793, 3085.04122390724, 3085.8858631016, 3161.75918390228]

>  <ZPE_kJmol>  (5) 
229.10994966023972

>  <E_elec_kJmol>  (5) 
-311074.328355621

>  <E0_minus_Eelec_plus_ZPE_kJmol>  (5) 
0.0

>  <rxn>  (5) 
rxn_450

>  <species_type>  (5) 
r1

>  <species_folder>  (5) 
rxn_450_C[CH]C

>  <frequencies_cm1_list>  (5) 
[105.22281605836, 112.68722910119999, 345.60850417028, 388.99411742204, 888.91751570336, 934.4593623456, 940.8456586931999, 1017.3988110405598, 1144.8637925504, 1173.26564383392, 1356.01672415508, 1400.16457277736, 1405.7130969159198, 1454.7502390860398, 1462.58546933616, 1465.42840125864, 1476.53231652108, 2938.8637074004, 2942.7366871208797, 3008.0211165581195, 3008.4194017066793, 3085.04122390724, 3085.8858631016, 3161.75918390228]

>  <E0_kJmol>  (5) 
-310845

>  <H298_kJmol>  (5) 
-310829

$$$$
