
     RDKit          3D

  6  5  0  0  0  0  0  0  0  0999 V2000
    0.0765    0.1286    1.1775 C   0  0  0  0  0  0  0  0  0  1  0  0
   -0.0590   -0.1049   -0.5633 S   0  0  0  0  0  0  0  0  0  2  0  0
   -0.2611    1.1305    1.4280 H   0  0  0  0  0  0  0  0  0  3  0  0
   -0.6149   -0.5248    1.7025 H   0  0  0  0  0  0  0  0  0  4  0  0
    1.0882    0.0884    1.5722 H   0  0  0  0  0  0  0  0  0  5  0  0
    0.8460    0.8138   -0.9271 H   0  0  0  0  0  0  0  0  0  6  0  0
  1  5  1  0
  1  4  1  0
  1  3  1  0
  1  2  1  0
  2  6  1  0
M  END
>  <rmg_smiles>  (1) 
CS

>  <rmg_adjacency_list>  (1) 
1 S u0 p2 c0 {2,S} {6,S}
2 C u0 p0 c0 {1,S} {3,S} {4,S} {5,S}
3 H u0 p0 c0 {2,S}
4 H u0 p0 c0 {2,S}
5 H u0 p0 c0 {2,S}
6 H u0 p0 c0 {1,S}


>  <multiplicity>  (1) 
1

>  <reaction>  (1) 
rxn_1857

>  <type>  (1) 
r1h

>  <role_mapnums>  (1) 
{"r1h_a": 1, "r1h_h": 3}

>  <role_mapidx>  (1) 
{"r1h_a": 0, "r1h_h": 2}

>  <ordered_mapped_smiles>  (1) 
[C:1]([S:2][H:6])([H:3])([H:4])[H:5]

>  <mol_properties>  (1) 
{"0": {"label": "donator", "atom_type": "Cs"}, "2": {"label": "d_hydrogen", "atom_type": "H0"}}

>  <level_of_theory>  (1) 
wb97xd/def2tzvp

>  <lot_method>  (1) 
wb97xd

>  <lot_basis>  (1) 
def2tzvp

>  <spin_multiplicity>  (1) 
1.0

>  <optical_isomers>  (1) 
1.0

>  <modes>  (1) 
IdealGasTranslation(mass=(48.0034, 'amu')),         NonlinearRotor(             inertia = ([4.88218, 38.8439, 40.5133

>  <frequency_value>  (1) 
unknown

>  <frequency_units>  (1) 
unknown

>  <frequency_list>  (1) 
unknown

>  <arkane_path>  (1) 
/home/calvin/Dropbox/PersonalFolders/Calvin/HAb_Converged/rxn_1857/output/Species/rxn_1857_CS/arkane/output.py

>  <path_exists>  (1) 
True

>  <E0_value>  (1) 
-1151727.0074722518

>  <E0_units>  (1) 
kJ/mol

>  <thermo_class>  (1) 
NASA

>  <Cp0_value>  (1) 
33.257888

>  <Cp0_units>  (1) 
J/(mol*K)

>  <CpInf_value>  (1) 
133.031552

>  <CpInf_units>  (1) 
J/(mol*K)

>  <Tmin_value>  (1) 
10.0

>  <Tmin_units>  (1) 
K

>  <Tmax_value>  (1) 
3000.0

>  <Tmax_units>  (1) 
K

>  <polynomials>  (1) 
[{"name": "polynomial1", "class": "NASAPolynomial", "Tmin_value": 10.0, "Tmin_units": "K", "Tmax_value": 512.0046987811082, "Tmax_units": "K", "coeffs": [3.9928587497669135, 0.0002559754074249204, 3.857280640825913e-05, -5.9282603001709694e-08, 2.982147399711347e-11, -138520762.43019888, 6.388595841908656]}, {"name": "polynomial2", "class": "NASAPolynomial", "Tmin_value": 512.0046987811082, "Tmin_units": "K", "Tmax_value": 3000.0, "Tmax_units": "K", "coeffs": [1.9274442242810899, 0.01639190572497184, -8.700073442106705e-06, 2.2701656845537463e-09, -2.333640907578926e-13, -138520550.93016994, 14.970390653960273]}]

>  <H298_value>  (1) 
-275266.5007544268

>  <H298_units>  (1) 
kcal/mol

>  <S298_value>  (1) 
60.53254852214023

>  <S298_units>  (1) 
cal/(mol*K)

>  <Cp_T_value_list>  (1) 
[12.285164170505567, 14.379905317207566, 16.329998202821564, 18.065044527000737, 20.944482261362513, 23.163034177843237, 26.669386406809583, 28.493484761208425, 29.402518411604955]

>  <Cp_T_units>  (1) 
cal/(mol*K)

>  <T_list>  (1) 
[300.0, 400.0, 500.0, 600.0, 800.0, 1000.0, 1500.0, 2000.0, 2400.0]

>  <T_units>  (1) 
K

>  <yaml_path>  (1) 
/home/calvin/Dropbox/PersonalFolders/Calvin/HAb_Converged/rxn_1857/output/Species/rxn_1857_CS/rxn_1857_CS.yml

>  <frequencies_cm1>  (1) 
[239.23203457815995, 718.5407429288399, 797.72395065376, 969.0552343877599, 1092.82577779544, 1352.90597980512, 1462.0155095546, 1475.7082782826799, 2706.3887863771197, 3036.2032243114, 3126.3324066364, 3127.7195376710397]

>  <ZPE_kJmol>  (1) 
120.25255493508004

>  <E_elec_kJmol>  (1) 
-1151847.260027187

>  <E0_minus_Eelec_plus_ZPE_kJmol>  (1) 
0.0

>  <rxn>  (1) 
rxn_1857

>  <species_type>  (1) 
r1

>  <species_folder>  (1) 
rxn_1857_CS

>  <frequencies_cm1_list>  (1) 
[239.23203457815995, 718.5407429288399, 797.72395065376, 969.0552343877599, 1092.82577779544, 1352.90597980512, 1462.0155095546, 1475.7082782826799, 2706.3887863771197, 3036.2032243114, 3126.3324066364, 3127.7195376710397]

>  <E0_kJmol>  (1) 
-1.15173e+06

>  <H298_kJmol>  (1) 
-1.15172e+06

$$$$

     RDKit          3D

 19 19  0  0  0  0  0  0  0  0999 V2000
    2.2542    0.1838    1.1761 C   0  0  0  0  0  0  0  0  0  1  0  0
    1.3954   -0.1531   -0.0226 C   0  0  0  0  0  0  0  0  0  2  0  0
   -0.0801   -0.2317    0.1926 C   0  0  0  0  0  0  0  0  0  3  0  0
   -0.6896    0.2760    1.3371 C   0  0  0  0  0  0  0  0  0  4  0  0
   -2.0600    0.1638    1.5213 C   0  0  0  0  0  0  0  0  0  5  0  0
   -2.8453   -0.4650    0.5696 C   0  0  0  0  0  0  0  0  0  6  0  0
   -2.2487   -0.9858   -0.5703 C   0  0  0  0  0  0  0  0  0  7  0  0
   -0.8826   -0.8713   -0.7547 C   0  0  0  0  0  0  0  0  0  8  0  0
    1.9249    0.8469   -1.4242 S   0  0  0  0  0  0  0  0  0  9  0  0
    3.3115    0.0785    0.9269 H   0  0  0  0  0  0  0  0  0 10  0  0
    2.0958    1.2083    1.5230 H   0  0  0  0  0  0  0  0  0 11  0  0
    2.0309   -0.4962    1.9998 H   0  0  0  0  0  0  0  0  0 12  0  0
   -0.0961    0.7731    2.0930 H   0  0  0  0  0  0  0  0  0 13  0  0
   -2.5141    0.5725    2.4154 H   0  0  0  0  0  0  0  0  0 14  0  0
   -3.9143   -0.5531    0.7152 H   0  0  0  0  0  0  0  0  0 15  0  0
   -2.8502   -1.4893   -1.3167 H   0  0  0  0  0  0  0  0  0 16  0  0
   -0.4242   -1.2995   -1.6397 H   0  0  0  0  0  0  0  0  0 17  0  0
    0.9452    0.5045   -2.2689 H   0  0  0  0  0  0  0  0  0 18  0  0
    1.6932   -1.1682   -0.2852 H   0  0  0  0  0  0  0  0  0 19  0  0
  1 11  1  0
  1 10  1  0
  1 12  1  0
  1  2  1  0
  2  9  1  0
  2  3  1  0
  2 19  1  0
  3  4  1  0
  3  8  1  0
  4  5  1  0
  4 13  1  0
  5 14  1  0
  5  6  1  0
  6  7  1  0
  6 15  1  0
  7  8  1  0
  7 16  1  0
  8 17  1  0
  9 18  1  0
M  END
>  <rmg_smiles>  (2) 
CC([C]1[CH][CH][CH][CH][CH]1)S

>  <rmg_adjacency_list>  (2) 
1  S u0 p2 c0 {2,S} {19,S}
2  C u0 p0 c0 {1,S} {3,S} {4,S} {10,S}
3  C u0 p0 c0 {2,S} {11,S} {12,S} {13,S}
4  C u0 p0 c0 {2,S} {5,S} {6,S}
5  C u0 p0 c0 {4,S} {7,S} {14,S}
6  C u0 p0 c0 {4,S} {9,S} {18,S}
7  C u0 p0 c0 {5,S} {8,S} {15,S}
8  C u0 p0 c0 {7,S} {9,S} {16,S}
9  C u0 p0 c0 {6,S} {8,S} {17,S}
10 H u0 p0 c0 {2,S}
11 H u0 p0 c0 {3,S}
12 H u0 p0 c0 {3,S}
13 H u0 p0 c0 {3,S}
14 H u0 p0 c0 {5,S}
15 H u0 p0 c0 {7,S}
16 H u0 p0 c0 {8,S}
17 H u0 p0 c0 {9,S}
18 H u0 p0 c0 {6,S}
19 H u0 p0 c0 {1,S}


>  <multiplicity>  (2) 
1

>  <reaction>  (2) 
rxn_1857

>  <type>  (2) 
r2h

>  <role_mapnums>  (2) 
{"r2h_a": 2, "r2h_h": 19}

>  <role_mapidx>  (2) 
{"r2h_a": 1, "r2h_h": 18}

>  <ordered_mapped_smiles>  (2) 
[C:1]([C:2]([CH:3]1[CH:4]([H:13])[CH:5]([H:14])[CH:6]([H:15])[CH:7]([H:16])[CH:8]1[H:17])([S:9][H:18])[H:19])([H:10])([H:11])[H:12]

>  <mol_properties>  (2) 
{"1": {"label": "acceptor", "atom_type": "Cs"}, "18": {"label": "a_hydrogen", "atom_type": "H0"}}

>  <level_of_theory>  (2) 
wb97xd/def2tzvp

>  <lot_method>  (2) 
wb97xd

>  <lot_basis>  (2) 
def2tzvp

>  <spin_multiplicity>  (2) 
1.0

>  <optical_isomers>  (2) 
2.0

>  <modes>  (2) 
IdealGasTranslation(mass=(138.05, 'amu')),         NonlinearRotor(             inertia = ([178.651, 604.969, 626.407

>  <frequency_value>  (2) 
unknown

>  <frequency_units>  (2) 
unknown

>  <frequency_list>  (2) 
unknown

>  <arkane_path>  (2) 
/home/calvin/Dropbox/PersonalFolders/Calvin/HAb_Converged/rxn_1857/output/Species/rxn_1857_CC[c1ccccc1]S/arkane/output.py

>  <path_exists>  (2) 
True

>  <E0_value>  (2) 
-1861292.4343676984

>  <E0_units>  (2) 
kJ/mol

>  <thermo_class>  (2) 
NASA

>  <Cp0_value>  (2) 
33.257888

>  <Cp0_units>  (2) 
J/(mol*K)

>  <CpInf_value>  (2) 
457.29596

>  <CpInf_units>  (2) 
J/(mol*K)

>  <Tmin_value>  (2) 
10.0

>  <Tmin_units>  (2) 
K

>  <Tmax_value>  (2) 
3000.0

>  <Tmax_units>  (2) 
K

>  <polynomials>  (2) 
[{"name": "polynomial1", "class": "NASAPolynomial", "Tmin_value": 10.0, "Tmin_units": "K", "Tmax_value": 722.758394872234, "Tmax_units": "K", "coeffs": [3.660854698446483, 0.03429926797736181, 8.821931306902672e-05, -1.5845535362879026e-07, 7.5004381355476e-11, -223861769.3872363, 13.927801476085207]}, {"name": "polynomial2", "class": "NASAPolynomial", "Tmin_value": 722.758394872234, "Tmin_units": "K", "Tmax_value": 3000.0, "Tmax_units": "K", "coeffs": [1.7719291190065967, 0.07095940147953034, -4.225226652243977e-05, 1.2057473606982652e-08, -1.3280748931699859e-12, -223862180.81798056, 17.69229937156957]}]

>  <H298_value>  (2) 
-444853.3734063983

>  <H298_units>  (2) 
kcal/mol

>  <S298_value>  (2) 
94.73497621650904

>  <S298_units>  (2) 
cal/(mol*K)

>  <Cp_T_value_list>  (2) 
[36.2061358007761, 46.25147917373764, 55.137372551351916, 62.584246178246104, 73.77990352324603, 81.88972515051314, 93.62529863359448, 99.14621657038083, 101.98664710252923]

>  <Cp_T_units>  (2) 
cal/(mol*K)

>  <T_list>  (2) 
[300.0, 400.0, 500.0, 600.0, 800.0, 1000.0, 1500.0, 2000.0, 2400.0]

>  <T_units>  (2) 
K

>  <yaml_path>  (2) 
/home/calvin/Dropbox/PersonalFolders/Calvin/HAb_Converged/rxn_1857/output/Species/rxn_1857_CC[c1ccccc1]S/rxn_1857_CCc1ccccc1S.yml

>  <frequencies_cm1>  (2) 
[38.619925439679996, 113.133583147, 200.19322303395995, 216.24136772679998, 249.58744844071998, 264.58494437959996, 299.67523936479995, 404.45856836267996, 414.23028847304, 539.0240126934, 577.57526827988, 629.64075097612, 697.3217582900401, 715.539870344, 784.2097235439999, 800.5325476496399, 862.09507104344, 870.4384582072399, 934.92631734736, 982.8922098075599, 986.64158379228, 999.0158913389199, 1015.9910790499598, 1051.4521912424398, 1079.23601384716, 1092.59230029456, 1120.4928616497198, 1175.6004188427198, 1201.4614855578398, 1220.57917268872, 1250.5123616985998, 1304.7272107999997, 1341.2664396877199, 1372.07860281856, 1401.9293880046, 1478.2421958657599, 1482.9872827218799, 1485.9538203801196, 1528.5771982613599, 1640.6257977278, 1660.5537891264398, 2704.47289747284, 3020.3404882222, 3056.7767123301196, 3100.1005227139995, 3101.6112594843994, 3145.2166162663993, 3154.1093622557996, 3163.29052162864, 3171.9360561465196, 3182.54554846592]

>  <ZPE_kJmol>  (2) 
408.4401292927415

>  <E_elec_kJmol>  (2) 
-1861700.8744969915

>  <E0_minus_Eelec_plus_ZPE_kJmol>  (2) 
0.0

>  <rxn>  (2) 
rxn_1857

>  <species_type>  (2) 
p0

>  <species_folder>  (2) 
rxn_1857_CC[c1ccccc1]S

>  <frequencies_cm1_list>  (2) 
[38.619925439679996, 113.133583147, 200.19322303395995, 216.24136772679998, 249.58744844071998, 264.58494437959996, 299.67523936479995, 404.45856836267996, 414.23028847304, 539.0240126934, 577.57526827988, 629.64075097612, 697.3217582900401, 715.539870344, 784.2097235439999, 800.5325476496399, 862.09507104344, 870.4384582072399, 934.92631734736, 982.8922098075599, 986.64158379228, 999.0158913389199, 1015.9910790499598, 1051.4521912424398, 1079.23601384716, 1092.59230029456, 1120.4928616497198, 1175.6004188427198, 1201.4614855578398, 1220.57917268872, 1250.5123616985998, 1304.7272107999997, 1341.2664396877199, 1372.07860281856, 1401.9293880046, 1478.2421958657599, 1482.9872827218799, 1485.9538203801196, 1528.5771982613599, 1640.6257977278, 1660.5537891264398, 2704.47289747284, 3020.3404882222, 3056.7767123301196, 3100.1005227139995, 3101.6112594843994, 3145.2166162663993, 3154.1093622557996, 3163.29052162864, 3171.9360561465196, 3182.54554846592]

>  <E0_kJmol>  (2) 
-1.86129e+06

>  <H298_kJmol>  (2) 
-1.86127e+06

$$$$

     RDKit          3D

 24 23  0  0  0  0  0  0  0  0999 V2000
    1.7209    0.7509    1.6121 C   0  0  0  0  0  0  0  0  0  1  0  0
    0.8621    0.4139    0.4135 C   0  0  0  0  0  0  0  0  0  2  0  0
   -0.6134    0.3353    0.6286 C   0  0  0  0  0  0  0  0  0  3  0  0
   -1.2228    0.8431    1.7731 C   0  0  0  0  0  0  0  0  0  4  0  0
   -2.5933    0.7308    1.9573 C   0  0  0  0  0  0  0  0  0  5  0  0
   -3.3785    0.1021    1.0056 C   0  0  0  0  0  0  0  0  0  6  0  0
   -2.7820   -0.4187   -0.1343 C   0  0  0  0  0  0  0  0  0  7  0  0
   -1.4159   -0.3043   -0.3187 C   0  0  0  0  0  0  0  0  0  8  0  0
    1.3917    1.4140   -0.9881 S   0  0  0  0  0  0  0  0  0  9  0  0
    2.7782    0.6455    1.3629 H   0  0  0  0  0  0  0  0  0 10  0  0
    1.5625    1.7753    1.9590 H   0  0  0  0  0  0  0  0  0 11  0  0
    1.4977    0.0708    2.4358 H   0  0  0  0  0  0  0  0  0 12  0  0
   -0.6293    1.3402    2.5290 H   0  0  0  0  0  0  0  0  0 13  0  0
   -3.0474    1.1396    2.8514 H   0  0  0  0  0  0  0  0  0 14  0  0
   -4.4476    0.0139    1.1512 H   0  0  0  0  0  0  0  0  0 15  0  0
   -3.3835   -0.9223   -0.8807 H   0  0  0  0  0  0  0  0  0 16  0  0
   -0.9575   -0.7325   -1.2037 H   0  0  0  0  0  0  0  0  0 17  0  0
    0.4119    1.0715   -1.8329 H   0  0  0  0  0  0  0  0  0 18  0  0
    1.6527   -2.0887   -0.2228 C   0  0  0  0  0  3  0  0  0 19  0  0
    1.5172   -2.3222   -1.9636 S   0  0  0  0  0  0  0  0  0 20  0  0
    1.2171   -0.7960    0.1004 H   0  0  0  0  0  0  0  0  0 21  0  0
    0.9613   -2.7421    0.3022 H   0  0  0  0  0  0  0  0  0 22  0  0
    2.6644   -2.1288    0.1719 H   0  0  0  0  0  0  0  0  0 23  0  0
    2.4222   -1.4034   -2.3274 H   0  0  0  0  0  0  0  0  0 24  0  0
  1 11  1  0
  1 10  1  0
  1 12  1  0
  1  2  1  0
  2  9  1  0
  2  3  1  0
  2 21  1  0
  3  4  1  0
  3  8  1  0
  4  5  1  0
  4 13  1  0
  5 14  1  0
  5  6  1  0
  6  7  1  0
  6 15  1  0
  7  8  1  0
  7 16  1  0
  8 17  1  0
  9 18  1  0
 19 20  1  0
 19 23  1  0
 19 22  1  0
 20 24  1  0
M  RAD  1  19   2
M  END
>  <rmg_smiles>  (3) 
CC([C]1[CH][CH][CH][CH][CH]1)S.[CH2]S

>  <rmg_adjacency_list>  (3) 
multiplicity 2
1  S u0 p2 c0 {3,S} {23,S}
2  S u0 p2 c0 {11,S} {24,S}
3  C u0 p0 c0 {1,S} {4,S} {5,S} {12,S}
4  C u0 p0 c0 {3,S} {13,S} {14,S} {15,S}
5  C u0 p0 c0 {3,S} {6,S} {7,S}
6  C u0 p0 c0 {5,S} {8,S} {16,S}
7  C u0 p0 c0 {5,S} {10,S} {20,S}
8  C u0 p0 c0 {6,S} {9,S} {17,S}
9  C u0 p0 c0 {8,S} {10,S} {18,S}
10 C u0 p0 c0 {7,S} {9,S} {19,S}
11 C u1 p0 c0 {2,S} {21,S} {22,S}
12 H u0 p0 c0 {3,S}
13 H u0 p0 c0 {4,S}
14 H u0 p0 c0 {4,S}
15 H u0 p0 c0 {4,S}
16 H u0 p0 c0 {6,S}
17 H u0 p0 c0 {8,S}
18 H u0 p0 c0 {9,S}
19 H u0 p0 c0 {10,S}
20 H u0 p0 c0 {7,S}
21 H u0 p0 c0 {11,S}
22 H u0 p0 c0 {11,S}
23 H u0 p0 c0 {1,S}
24 H u0 p0 c0 {2,S}


>  <multiplicity>  (3) 
2

>  <reaction>  (3) 
rxn_1857

>  <type>  (3) 
ts

>  <role_mapnums>  (3) 
{"*2": 21, "*1": 19, "*3": 2, "*0": 3, "*4": 20}

>  <role_mapidx>  (3) 
{"*2": 20, "*1": 18, "*3": 1, "*0": 2, "*4": 19}

>  <ordered_mapped_smiles>  (3) 
[C:1]([C:2]([CH:3]1[CH:4]([H:13])[CH:5]([H:14])[CH:6]([H:15])[CH:7]([H:16])[CH:8]1[H:17])([S:9][H:18])[H:21])([H:10])([H:11])[H:12].[C:19]([S:20][H:24])([H:22])[H:23]

>  <mol_properties>  (3) 
{"1": {"label": "*3", "atom_type": "Cs"}, "2": {"label": "*0", "atom_type": "Cs"}, "18": {"label": "*1", "atom_type": "Cs"}, "19": {"label": "*4", "atom_type": "S2s"}, "20": {"label": "*2", "atom_type": "H0"}}

>  <level_of_theory>  (3) 
wb97xd/def2tzvp

>  <lot_method>  (3) 
wb97xd

>  <lot_basis>  (3) 
def2tzvp

>  <spin_multiplicity>  (3) 
2.0

>  <optical_isomers>  (3) 
2.0

>  <modes>  (3) 
IdealGasTranslation(mass=(185.046, 'amu')),         NonlinearRotor(             inertia = ([476.813, 960.559, 1175.08

>  <frequency_value>  (3) 
-1708.79

>  <frequency_units>  (3) 
cm^-1

>  <frequency_list>  (3) 
unknown

>  <arkane_path>  (3) 
/home/calvin/Dropbox/PersonalFolders/Calvin/HAb_Converged/rxn_1857/output/rxns/TS0/arkane/output.py

>  <path_exists>  (3) 
True

>  <E0_value>  (3) 
-3011270.0

>  <E0_units>  (3) 
kJ/mol

>  <thermo_class>  (3) 
unknown

>  <Cp0_value>  (3) 
unknown

>  <Cp0_units>  (3) 
unknown

>  <CpInf_value>  (3) 
unknown

>  <CpInf_units>  (3) 
unknown

>  <Tmin_value>  (3) 
unknown

>  <Tmin_units>  (3) 
unknown

>  <Tmax_value>  (3) 
unknown

>  <Tmax_units>  (3) 
unknown

>  <polynomials>  (3) 
unknown

>  <H298_value>  (3) 
unknown

>  <H298_units>  (3) 
unknown

>  <S298_value>  (3) 
unknown

>  <S298_units>  (3) 
unknown

>  <Cp_T_value_list>  (3) 
unknown

>  <Cp_T_units>  (3) 
unknown

>  <T_list>  (3) 
unknown

>  <T_units>  (3) 
unknown

>  <yaml_path>  (3) 
unknown

>  <frequencies_cm1>  (3) 
unknown

>  <ZPE_kJmol>  (3) 
unknown

>  <E_elec_kJmol>  (3) 
unknown

>  <E0_minus_Eelec_plus_ZPE_kJmol>  (3) 
unknown

>  <rxn>  (3) 
unknown

>  <species_type>  (3) 
unknown

>  <species_folder>  (3) 
unknown

>  <frequencies_cm1_list>  (3) 
[]

>  <ts_imag_freq_cm1>  (3) 
-1729.5411

>  <ts_freq_out_path>  (3) 
/home/calvin/Dropbox/PersonalFolders/Calvin/HAb_Converged/rxn_1857/output/rxns/TS0/geometry/freq.out

>  <E0_kJmol>  (3) 
-3.01127e+06

>  <H298_kJmol>  (3) 
unknown

$$$$

     RDKit          3D

  5  4  0  0  0  0  0  0  0  0999 V2000
   -0.5642    0.0794    0.0348 C   0  0  0  0  0  3  0  0  0  1  0  0
    1.0624    0.5420    0.2853 S   0  0  0  0  0  0  0  0  0  2  0  0
   -1.3257    0.7631    0.3741 H   0  0  0  0  0  0  0  0  0  3  0  0
   -0.8236   -0.8519   -0.4401 H   0  0  0  0  0  0  0  0  0  4  0  0
    1.6511   -0.5325   -0.2540 H   0  0  0  0  0  0  0  0  0  5  0  0
  1  3  1  0
  1  2  1  0
  1  4  1  0
  2  5  1  0
M  RAD  1   1   2
M  END
>  <rmg_smiles>  (4) 
[CH2]S

>  <rmg_adjacency_list>  (4) 
multiplicity 2
1 S u0 p2 c0 {2,S} {5,S}
2 C u1 p0 c0 {1,S} {3,S} {4,S}
3 H u0 p0 c0 {2,S}
4 H u0 p0 c0 {2,S}
5 H u0 p0 c0 {1,S}


>  <multiplicity>  (4) 
2

>  <reaction>  (4) 
rxn_1857

>  <type>  (4) 
r1

>  <role_mapnums>  (4) 
{}

>  <role_mapidx>  (4) 
{}

>  <ordered_mapped_smiles>  (4) 
[C:1]([S:2][H:5])([H:3])[H:4]

>  <level_of_theory>  (4) 
wb97xd/def2tzvp

>  <lot_method>  (4) 
wb97xd

>  <lot_basis>  (4) 
def2tzvp

>  <spin_multiplicity>  (4) 
2.0

>  <optical_isomers>  (4) 
1.0

>  <modes>  (4) 
IdealGasTranslation(mass=(46.9956, 'amu')),         NonlinearRotor(             inertia = ([3.47508, 32.1188, 35.5939

>  <frequency_value>  (4) 
unknown

>  <frequency_units>  (4) 
unknown

>  <frequency_list>  (4) 
unknown

>  <arkane_path>  (4) 
/home/calvin/Dropbox/PersonalFolders/Calvin/HAb_Converged/rxn_1857/output/Species/rxn_1857_[CH2]S/arkane/output.py

>  <path_exists>  (4) 
True

>  <E0_value>  (4) 
-1150024.3332710424

>  <E0_units>  (4) 
kJ/mol

>  <thermo_class>  (4) 
NASA

>  <Cp0_value>  (4) 
33.257888

>  <Cp0_units>  (4) 
J/(mol*K)

>  <CpInf_value>  (4) 
108.088136

>  <CpInf_units>  (4) 
J/(mol*K)

>  <Tmin_value>  (4) 
10.0

>  <Tmin_units>  (4) 
K

>  <Tmax_value>  (4) 
3000.0

>  <Tmax_units>  (4) 
K

>  <polynomials>  (4) 
[{"name": "polynomial1", "class": "NASAPolynomial", "Tmin_value": 10.0, "Tmin_units": "K", "Tmax_value": 228.7632631011955, "Tmax_units": "K", "coeffs": [3.952412159768893, 0.004869189743453995, 7.700507410130638e-05, -3.7784535832034173e-07, 5.662383077803353e-10, -138315979.8249789, 6.828268654504248]}, {"name": "polynomial2", "class": "NASAPolynomial", "Tmin_value": 228.7632631011955, "Tmin_units": "K", "Tmax_value": 3000.0, "Tmax_units": "K", "coeffs": [4.0647189913044315, 0.010177206447780005, -5.480339108667681e-06, 1.4876276440090965e-09, -1.6083284592339647e-13, -138316003.99077362, 6.036236642771031]}]

>  <H298_value>  (4) 
-274859.2476351292

>  <H298_units>  (4) 
kcal/mol

>  <S298_value>  (4) 
63.58185598753384

>  <S298_units>  (4) 
cal/(mol*K)

>  <Cp_T_value_list>  (4) 
[13.241777557438835, 14.605646175289959, 15.816452446168032, 16.888481942792666, 18.669517607236212, 20.047696562682138, 22.269217674285446, 23.499652986162165, 24.148886967222168]

>  <Cp_T_units>  (4) 
cal/(mol*K)

>  <T_list>  (4) 
[300.0, 400.0, 500.0, 600.0, 800.0, 1000.0, 1500.0, 2000.0, 2400.0]

>  <T_units>  (4) 
K

>  <yaml_path>  (4) 
/home/calvin/Dropbox/PersonalFolders/Calvin/HAb_Converged/rxn_1857/output/Species/rxn_1857_[CH2]S/rxn_1857_CH2S.yml

>  <frequencies_cm1>  (4) 
[112.26147601135997, 339.84023650148, 784.39513214764, 853.62121115856, 1068.3930440268798, 1401.38689616432, 2708.6686255033596, 3159.5548816145597, 3285.6189981191196]

>  <ZPE_kJmol>  (4) 
82.02640747232539

>  <E_elec_kJmol>  (4) 
-1150106.3596785148

>  <E0_minus_Eelec_plus_ZPE_kJmol>  (4) 
0.0

>  <rxn>  (4) 
rxn_1857

>  <species_type>  (4) 
p1

>  <species_folder>  (4) 
rxn_1857_[CH2]S

>  <frequencies_cm1_list>  (4) 
[112.26147601135997, 339.84023650148, 784.39513214764, 853.62121115856, 1068.3930440268798, 1401.38689616432, 2708.6686255033596, 3159.5548816145597, 3285.6189981191196]

>  <E0_kJmol>  (4) 
-1.15002e+06

>  <H298_kJmol>  (4) 
-1.15001e+06

$$$$

     RDKit          3D

 18 18  0  0  0  0  0  0  0  0999 V2000
    2.7512    0.0489   -0.5734 C   0  0  0  0  0  0  0  0  0  1  0  0
    1.4277   -0.4568   -0.0957 C   0  0  0  0  0  3  0  0  0  2  0  0
    0.5787   -1.2468   -0.9255 C   0  0  0  0  0  0  0  0  0  3  0  0
    0.9949   -1.6342   -2.2194 C   0  0  0  0  0  0  0  0  0  4  0  0
    0.1850   -2.4001   -3.0330 C   0  0  0  0  0  0  0  0  0  5  0  0
   -1.0677   -2.8151   -2.5986 C   0  0  0  0  0  0  0  0  0  6  0  0
   -1.4988   -2.4481   -1.3288 C   0  0  0  0  0  0  0  0  0  7  0  0
   -0.6986   -1.6827   -0.5072 C   0  0  0  0  0  0  0  0  0  8  0  0
    0.9655   -0.2084    1.5666 S   0  0  0  0  0  0  0  0  0  9  0  0
    3.1739    0.7873    0.1063 H   0  0  0  0  0  0  0  0  0 10  0  0
    3.4796   -0.7649   -0.6651 H   0  0  0  0  0  0  0  0  0 11  0  0
    2.6603    0.5178   -1.5558 H   0  0  0  0  0  0  0  0  0 12  0  0
    1.9693   -1.3375   -2.5829 H   0  0  0  0  0  0  0  0  0 13  0  0
    0.5357   -2.6808   -4.0185 H   0  0  0  0  0  0  0  0  0 14  0  0
   -1.6995   -3.4158   -3.2398 H   0  0  0  0  0  0  0  0  0 15  0  0
   -2.4742   -2.7614   -0.9778 H   0  0  0  0  0  0  0  0  0 16  0  0
   -1.0689   -1.4003    0.4702 H   0  0  0  0  0  0  0  0  0 17  0  0
    1.8478    0.7580    1.8433 H   0  0  0  0  0  0  0  0  0 18  0  0
  1 10  1  0
  1 11  1  0
  1 12  1  0
  1  2  1  0
  2  9  1  0
  2  3  1  0
  3  4  1  0
  3  8  1  0
  4  5  1  0
  4 13  1  0
  5 14  1  0
  5  6  1  0
  6 15  1  0
  6  7  1  0
  7  8  1  0
  7 16  1  0
  8 17  1  0
  9 18  1  0
M  RAD  1   2   2
M  END
>  <rmg_smiles>  (5) 
C[C]([C]1[CH][CH][CH][CH][CH]1)S

>  <rmg_adjacency_list>  (5) 
multiplicity 2
1  S u0 p2 c0 {4,S} {18,S}
2  C u0 p0 c0 {4,S} {10,S} {11,S} {12,S}
3  C u0 p0 c0 {4,S} {5,S} {6,S}
4  C u1 p0 c0 {1,S} {2,S} {3,S}
5  C u0 p0 c0 {3,S} {7,S} {13,S}
6  C u0 p0 c0 {3,S} {9,S} {17,S}
7  C u0 p0 c0 {5,S} {8,S} {14,S}
8  C u0 p0 c0 {7,S} {9,S} {15,S}
9  C u0 p0 c0 {6,S} {8,S} {16,S}
10 H u0 p0 c0 {2,S}
11 H u0 p0 c0 {2,S}
12 H u0 p0 c0 {2,S}
13 H u0 p0 c0 {5,S}
14 H u0 p0 c0 {7,S}
15 H u0 p0 c0 {8,S}
16 H u0 p0 c0 {9,S}
17 H u0 p0 c0 {6,S}
18 H u0 p0 c0 {1,S}


>  <multiplicity>  (5) 
2

>  <reaction>  (5) 
rxn_1857

>  <type>  (5) 
r2

>  <role_mapnums>  (5) 
{}

>  <role_mapidx>  (5) 
{}

>  <ordered_mapped_smiles>  (5) 
[C:1]([C:2]([CH:3]1[CH:4]([H:13])[CH:5]([H:14])[CH:6]([H:15])[CH:7]([H:16])[CH:8]1[H:17])[S:9][H:18])([H:10])([H:11])[H:12]

>  <level_of_theory>  (5) 
wb97xd/def2tzvp

>  <lot_method>  (5) 
wb97xd

>  <lot_basis>  (5) 
def2tzvp

>  <spin_multiplicity>  (5) 
2.0

>  <optical_isomers>  (5) 
2.0

>  <modes>  (5) 
IdealGasTranslation(mass=(137.042, 'amu')),         NonlinearRotor(             inertia = ([173.921, 537.489, 706.933

>  <frequency_value>  (5) 
unknown

>  <frequency_units>  (5) 
unknown

>  <frequency_list>  (5) 
unknown

>  <arkane_path>  (5) 
/home/calvin/Dropbox/PersonalFolders/Calvin/HAb_Converged/rxn_1857/output/Species/rxn_1857_C[C][c1ccccc1]S/arkane/output.py

>  <path_exists>  (5) 
True

>  <E0_value>  (5) 
-1859635.999590636

>  <E0_units>  (5) 
kJ/mol

>  <thermo_class>  (5) 
NASA

>  <Cp0_value>  (5) 
33.257888

>  <Cp0_units>  (5) 
J/(mol*K)

>  <CpInf_value>  (5) 
432.352544

>  <CpInf_units>  (5) 
J/(mol*K)

>  <Tmin_value>  (5) 
10.0

>  <Tmin_units>  (5) 
K

>  <Tmax_value>  (5) 
3000.0

>  <Tmax_units>  (5) 
K

>  <polynomials>  (5) 
[{"name": "polynomial1", "class": "NASAPolynomial", "Tmin_value": 10.0, "Tmin_units": "K", "Tmax_value": 772.0295036970148, "Tmax_units": "K", "coeffs": [3.5929422818437096, 0.04140702300232924, 5.219148012962769e-05, -1.0698478782351069e-07, 4.9895198024629436e-11, -223662546.9277343, 14.551201455978017]}, {"name": "polynomial2", "class": "NASAPolynomial", "Tmin_value": 772.0295036970148, "Tmin_units": "K", "Tmax_value": 3000.0, "Tmax_units": "K", "coeffs": [3.877316089975616, 0.06379654613973394, -3.7673795416994426e-05, 1.0652559346798017e-08, -1.1630174914439727e-12, -223663301.9865974, 8.647122048037788]}]

>  <H298_value>  (5) 
-444457.343646824

>  <H298_units>  (5) 
kcal/mol

>  <S298_value>  (5) 
97.03899921770716

>  <S298_units>  (5) 
cal/(mol*K)

>  <Cp_T_value_list>  (5) 
[36.22249054625582, 45.57991752423582, 53.83277869407935, 60.77631112890387, 71.10435972485959, 78.47400706539639, 89.16736136102854, 94.16859229239351, 96.70306532241592]

>  <Cp_T_units>  (5) 
cal/(mol*K)

>  <T_list>  (5) 
[300.0, 400.0, 500.0, 600.0, 800.0, 1000.0, 1500.0, 2000.0, 2400.0]

>  <T_units>  (5) 
K

>  <yaml_path>  (5) 
/home/calvin/Dropbox/PersonalFolders/Calvin/HAb_Converged/rxn_1857/output/Species/rxn_1857_C[C][c1ccccc1]S/rxn_1857_CCc1ccccc1S.yml

>  <frequencies_cm1>  (5) 
[47.334129810760004, 109.61768666315999, 132.75256020623996, 175.60941558835998, 206.74432702924, 311.73366558671995, 334.74493339404, 395.42161568156, 413.13843780715996, 485.55766499188, 517.1183295225999, 627.03129655452, 669.59287156788, 690.35176819024, 766.4173645798799, 829.1610094487199, 857.4461219818, 896.8763516892399, 944.6225006191999, 969.9273415234001, 981.2029314188399, 993.137751905, 1007.50348519444, 1043.7062318014798, 1085.7115810039197, 1096.829230237, 1165.47161549572, 1172.00211853504, 1199.9988176846798, 1307.7143494142, 1334.1797108374801, 1349.9119742055998, 1400.8993402065998, 1464.6867668440798, 1468.6490173737197, 1482.5477956614, 1507.35821362256, 1596.8625002834399, 1620.78707713832, 2710.3647708773997, 2988.74548876488, 3053.7346378333596, 3101.6387274256795, 3153.40206276784, 3159.3900739668798, 3171.11888489344, 3180.01849786816, 3186.80994634964]

>  <ZPE_kJmol>  (5) 
373.0291325178228

>  <E_elec_kJmol>  (5) 
-1860009.0287231535

>  <E0_minus_Eelec_plus_ZPE_kJmol>  (5) 
0.0

>  <rxn>  (5) 
rxn_1857

>  <species_type>  (5) 
r0

>  <species_folder>  (5) 
rxn_1857_C[C][c1ccccc1]S

>  <frequencies_cm1_list>  (5) 
[47.334129810760004, 109.61768666315999, 132.75256020623996, 175.60941558835998, 206.74432702924, 311.73366558671995, 334.74493339404, 395.42161568156, 413.13843780715996, 485.55766499188, 517.1183295225999, 627.03129655452, 669.59287156788, 690.35176819024, 766.4173645798799, 829.1610094487199, 857.4461219818, 896.8763516892399, 944.6225006191999, 969.9273415234001, 981.2029314188399, 993.137751905, 1007.50348519444, 1043.7062318014798, 1085.7115810039197, 1096.829230237, 1165.47161549572, 1172.00211853504, 1199.9988176846798, 1307.7143494142, 1334.1797108374801, 1349.9119742055998, 1400.8993402065998, 1464.6867668440798, 1468.6490173737197, 1482.5477956614, 1507.35821362256, 1596.8625002834399, 1620.78707713832, 2710.3647708773997, 2988.74548876488, 3053.7346378333596, 3101.6387274256795, 3153.40206276784, 3159.3900739668798, 3171.11888489344, 3180.01849786816, 3186.80994634964]

>  <E0_kJmol>  (5) 
-1.85964e+06

>  <H298_kJmol>  (5) 
-1.85961e+06

$$$$
