
     RDKit          3D

 10  9  0  0  0  0  0  0  0  0999 V2000
   -0.2150   -1.1599   -1.5822 C   0  0  0  0  0  0  0  0  0  1  0  0
    0.2919   -1.3429   -0.1756 C   0  0  0  0  0  0  0  0  0  2  0  0
    0.4536   -0.2191    0.7003 C   0  0  0  0  0  0  0  0  0  3  0  0
   -0.2137    1.2689    0.5191 S   0  0  0  0  0  0  0  0  0  4  0  0
    0.5554   -0.7024   -2.2072 H   0  0  0  0  0  0  0  0  0  5  0  0
   -0.4834   -2.1200   -2.0250 H   0  0  0  0  0  0  0  0  0  6  0  0
   -1.0823   -0.5015   -1.6021 H   0  0  0  0  0  0  0  0  0  7  0  0
   -0.4947   -1.9048    0.3301 H   0  0  0  0  0  0  0  0  0  8  0  0
    1.0830   -2.0867   -0.0712 H   0  0  0  0  0  0  0  0  0  9  0  0
    1.0463   -0.4144    1.5927 H   0  0  0  0  0  0  0  0  0 10  0  0
  1  5  1  0
  1  7  1  0
  1  6  1  0
  1  2  1  0
  2  9  1  0
  2  8  1  0
  2  3  1  0
  3 10  1  0
  3  4  1  0
M  END
>  <rmg_smiles>  (1) 
CC[CH][S]

>  <rmg_adjacency_list>  (1) 
1  S u0 p2 c0 {4,S}
2  C u0 p0 c0 {3,S} {4,S} {5,S} {6,S}
3  C u0 p0 c0 {2,S} {7,S} {8,S} {9,S}
4  C u0 p0 c0 {1,S} {2,S} {10,S}
5  H u0 p0 c0 {2,S}
6  H u0 p0 c0 {2,S}
7  H u0 p0 c0 {3,S}
8  H u0 p0 c0 {3,S}
9  H u0 p0 c0 {3,S}
10 H u0 p0 c0 {4,S}


>  <multiplicity>  (1) 
1

>  <reaction>  (1) 
rxn_2002

>  <type>  (1) 
r1h

>  <role_mapnums>  (1) 
{"r1h_a": 2, "r1h_h": 8}

>  <role_mapidx>  (1) 
{"r1h_a": 1, "r1h_h": 7}

>  <ordered_mapped_smiles>  (1) 
[C:1]([C:2]([CH:3]([SH:4])[H:10])([H:8])[H:9])([H:5])([H:6])[H:7]

>  <mol_properties>  (1) 
{"1": {"label": "donator", "atom_type": "Cs"}, "7": {"label": "d_hydrogen", "atom_type": "H0"}}

>  <level_of_theory>  (1) 
wb97xd/def2tzvp

>  <lot_method>  (1) 
wb97xd

>  <lot_basis>  (1) 
def2tzvp

>  <spin_multiplicity>  (1) 
1.0

>  <optical_isomers>  (1) 
2.0

>  <modes>  (1) 
IdealGasTranslation(mass=(74.019, 'amu')),         NonlinearRotor(             inertia = ([22.4966, 186.361, 188.795

>  <frequency_value>  (1) 
unknown

>  <frequency_units>  (1) 
unknown

>  <frequency_list>  (1) 
unknown

>  <arkane_path>  (1) 
/home/calvin/Dropbox/PersonalFolders/Calvin/HAb_Converged/rxn_2002/output/Species/rxn_2002_CCC=S/arkane/output.py

>  <path_exists>  (1) 
True

>  <E0_value>  (1) 
-1354842.217301763

>  <E0_units>  (1) 
kJ/mol

>  <thermo_class>  (1) 
NASA

>  <Cp0_value>  (1) 
33.257888

>  <Cp0_units>  (1) 
J/(mol*K)

>  <CpInf_value>  (1) 
232.805216

>  <CpInf_units>  (1) 
J/(mol*K)

>  <Tmin_value>  (1) 
10.0

>  <Tmin_units>  (1) 
K

>  <Tmax_value>  (1) 
3000.0

>  <Tmax_units>  (1) 
K

>  <polynomials>  (1) 
[{"name": "polynomial1", "class": "NASAPolynomial", "Tmin_value": 10.0, "Tmin_units": "K", "Tmax_value": 1013.5613876204479, "Tmax_units": "K", "coeffs": [3.938264474030978, 0.013958577362371608, 2.4928299834323208e-05, -3.437968169284249e-08, 1.1996855715308475e-11, -162949884.83258396, 10.036718283867241]}, {"name": "polynomial2", "class": "NASAPolynomial", "Tmin_value": 1013.5613876204479, "Tmin_units": "K", "Tmax_value": 3000.0, "Tmax_units": "K", "coeffs": [3.4971174702987913, 0.02812100302113746, -1.4413974403757785e-05, 3.5888447591702137e-09, -3.50645414543858e-13, -162950433.43848506, 9.023464985603324]}]

>  <H298_value>  (1) 
-323811.1931375839

>  <H298_units>  (1) 
kcal/mol

>  <S298_value>  (1) 
74.44131966579386

>  <S298_units>  (1) 
cal/(mol*K)

>  <Cp_T_value_list>  (1) 
[18.95458725520134, 23.085463908908388, 27.029925960895593, 30.63553072981776, 36.506480449108224, 40.62310264010602, 46.867049640781964, 50.04512758032496, 51.55141314203573]

>  <Cp_T_units>  (1) 
cal/(mol*K)

>  <T_list>  (1) 
[300.0, 400.0, 500.0, 600.0, 800.0, 1000.0, 1500.0, 2000.0, 2400.0]

>  <T_units>  (1) 
K

>  <yaml_path>  (1) 
/home/calvin/Dropbox/PersonalFolders/Calvin/HAb_Converged/rxn_2002/output/Species/rxn_2002_CCC=S/rxn_2002_CCC=S.yml

>  <frequencies_cm1>  (1) 
[74.28704719176, 221.72122201215998, 335.63077450031994, 396.89115054004003, 760.5804270578799, 844.8108689929999, 880.5466605982799, 995.2665173541999, 1070.3913367549999, 1106.71082211248, 1174.46736626492, 1258.5398675376798, 1308.6619933883599, 1395.2272103322798, 1411.9963884837198, 1463.1416951470799, 1484.2233400794798, 1490.93925172244, 3001.8614307260796, 3019.9765380002395, 3047.92516825264, 3080.3167380070795, 3099.9288480809996, 3104.5915311132794]

>  <ZPE_kJmol>  (1) 
215.4991505651017

>  <E_elec_kJmol>  (1) 
-1355057.716452328

>  <E0_minus_Eelec_plus_ZPE_kJmol>  (1) 
0.0

>  <rxn>  (1) 
rxn_2002

>  <species_type>  (1) 
r1

>  <species_folder>  (1) 
rxn_2002_CCC=S

>  <frequencies_cm1_list>  (1) 
[74.28704719176, 221.72122201215998, 335.63077450031994, 396.89115054004003, 760.5804270578799, 844.8108689929999, 880.5466605982799, 995.2665173541999, 1070.3913367549999, 1106.71082211248, 1174.46736626492, 1258.5398675376798, 1308.6619933883599, 1395.2272103322798, 1411.9963884837198, 1463.1416951470799, 1484.2233400794798, 1490.93925172244, 3001.8614307260796, 3019.9765380002395, 3047.92516825264, 3080.3167380070795, 3099.9288480809996, 3104.5915311132794]

>  <E0_kJmol>  (1) 
-1.35484e+06

>  <H298_kJmol>  (1) 
-1.35483e+06

$$$$

     RDKit          3D

 15 14  0  0  0  0  0  0  0  0999 V2000
    0.2609    0.9644    1.7623 C   0  0  0  0  0  0  0  0  0  1  0  0
    0.4993   -0.0639    0.9427 C   0  0  0  0  0  0  0  0  0  2  0  0
    0.1202   -0.1402   -0.4615 C   0  0  0  0  0  0  0  0  0  3  0  0
   -0.9797    0.7680   -0.9491 C   0  0  0  0  0  0  0  0  0  4  0  0
    0.1580   -1.5104   -1.0896 C   0  0  0  0  0  0  0  0  0  5  0  0
    0.6274    0.9588    2.7804 H   0  0  0  0  0  0  0  0  0  6  0  0
   -0.3052    1.8332    1.4517 H   0  0  0  0  0  0  0  0  0  7  0  0
    1.0890   -0.8965    1.3179 H   0  0  0  0  0  0  0  0  0  8  0  0
   -0.7502    1.8185   -0.7635 H   0  0  0  0  0  0  0  0  0  9  0  0
   -1.1341    0.6455   -2.0213 H   0  0  0  0  0  0  0  0  0 10  0  0
   -1.9200    0.5339   -0.4406 H   0  0  0  0  0  0  0  0  0 11  0  0
   -0.7283   -2.0865   -0.8033 H   0  0  0  0  0  0  0  0  0 12  0  0
    1.0373   -2.0730   -0.7717 H   0  0  0  0  0  0  0  0  0 13  0  0
    0.1657   -1.4444   -2.1789 H   0  0  0  0  0  0  0  0  0 14  0  0
    0.9860    0.3626   -0.8923 H   0  0  0  0  0  0  0  0  0 15  0  0
  1  7  1  0
  1  6  1  0
  1  2  1  0
  2  8  1  0
  2  3  1  0
  3  4  1  0
  3  5  1  0
  3 15  1  0
  4  9  1  0
  4 10  1  0
  4 11  1  0
  5 12  1  0
  5 14  1  0
  5 13  1  0
M  END
>  <rmg_smiles>  (2) 
[CH2][CH]C(C)C

>  <rmg_adjacency_list>  (2) 
1  C u0 p0 c0 {2,S} {3,S} {4,S} {6,S}
2  C u0 p0 c0 {1,S} {7,S} {8,S} {9,S}
3  C u0 p0 c0 {1,S} {10,S} {11,S} {12,S}
4  C u0 p0 c0 {1,S} {5,S} {13,S}
5  C u0 p0 c0 {4,S} {14,S} {15,S}
6  H u0 p0 c0 {1,S}
7  H u0 p0 c0 {2,S}
8  H u0 p0 c0 {2,S}
9  H u0 p0 c0 {2,S}
10 H u0 p0 c0 {3,S}
11 H u0 p0 c0 {3,S}
12 H u0 p0 c0 {3,S}
13 H u0 p0 c0 {4,S}
14 H u0 p0 c0 {5,S}
15 H u0 p0 c0 {5,S}


>  <multiplicity>  (2) 
1

>  <reaction>  (2) 
rxn_2002

>  <type>  (2) 
r2h

>  <role_mapnums>  (2) 
{"r2h_a": 3, "r2h_h": 15}

>  <role_mapidx>  (2) 
{"r2h_a": 2, "r2h_h": 14}

>  <ordered_mapped_smiles>  (2) 
[CH:1]([CH:2]([C:3]([C:4]([H:9])([H:10])[H:11])([C:5]([H:12])([H:13])[H:14])[H:15])[H:8])([H:6])[H:7]

>  <mol_properties>  (2) 
{"2": {"label": "acceptor", "atom_type": "Cs"}, "14": {"label": "a_hydrogen", "atom_type": "H0"}}

>  <level_of_theory>  (2) 
wb97xd/def2tzvp

>  <lot_method>  (2) 
wb97xd

>  <lot_basis>  (2) 
def2tzvp

>  <spin_multiplicity>  (2) 
1.0

>  <optical_isomers>  (2) 
1.0

>  <modes>  (2) 
IdealGasTranslation(mass=(70.0782, 'amu')),         NonlinearRotor(             inertia = ([66.6607, 141.472, 183.078

>  <frequency_value>  (2) 
unknown

>  <frequency_units>  (2) 
unknown

>  <frequency_list>  (2) 
unknown

>  <arkane_path>  (2) 
/home/calvin/Dropbox/PersonalFolders/Calvin/HAb_Converged/rxn_2002/output/Species/rxn_2002_C=CC[C]C/arkane/output.py

>  <path_exists>  (2) 
True

>  <E0_value>  (2) 
-515673.39324585546

>  <E0_units>  (2) 
kJ/mol

>  <thermo_class>  (2) 
NASA

>  <Cp0_value>  (2) 
33.257888

>  <Cp0_units>  (2) 
J/(mol*K)

>  <CpInf_value>  (2) 
357.522296

>  <CpInf_units>  (2) 
J/(mol*K)

>  <Tmin_value>  (2) 
10.0

>  <Tmin_units>  (2) 
K

>  <Tmax_value>  (2) 
3000.0

>  <Tmax_units>  (2) 
K

>  <polynomials>  (2) 
[{"name": "polynomial1", "class": "NASAPolynomial", "Tmin_value": 10.0, "Tmin_units": "K", "Tmax_value": 762.6259256662777, "Tmax_units": "K", "coeffs": [3.7805630066461116, 0.019797986670776584, 5.857266645022857e-05, -8.86131018261695e-08, 3.7243189367650955e-11, -62021181.75094403, 9.748211811202758]}, {"name": "polynomial2", "class": "NASAPolynomial", "Tmin_value": 762.6259256662777, "Tmin_units": "K", "Tmax_value": 3000.0, "Tmax_units": "K", "coeffs": [-0.4157030903016456, 0.0531989962048097, -2.952908804328555e-05, 7.989483937703187e-09, -8.452857033515653e-13, -62020872.97693975, 26.683780974058042]}]

>  <H298_value>  (2) 
-123244.19551150435

>  <H298_units>  (2) 
kcal/mol

>  <S298_value>  (2) 
77.6575042108039

>  <S298_units>  (2) 
cal/(mol*K)

>  <Cp_T_value_list>  (2) 
[25.636186139339337, 32.49792347530389, 38.8971519295187, 44.57662331657021, 53.633241428972816, 60.407904667519965, 70.79938350105355, 76.0250308583244, 78.64651051431285]

>  <Cp_T_units>  (2) 
cal/(mol*K)

>  <T_list>  (2) 
[300.0, 400.0, 500.0, 600.0, 800.0, 1000.0, 1500.0, 2000.0, 2400.0]

>  <T_units>  (2) 
K

>  <yaml_path>  (2) 
/home/calvin/Dropbox/PersonalFolders/Calvin/HAb_Converged/rxn_2002/output/Species/rxn_2002_C=CC[C]C/rxn_2002_C=CCCC.yml

>  <frequencies_cm1>  (2) 
[93.77555152992, 225.48432996752, 247.28700835851998, 315.42810368887996, 324.58866210575997, 349.19307050732, 507.29854051499996, 697.7200434385999, 806.34888421568, 929.2473204877199, 937.7005794166399, 952.3409921188799, 965.8071503314, 1001.86569024672, 1033.4400887480801, 1123.83021651524, 1181.8562424692398, 1216.2804398783999, 1311.19591097144, 1330.56767655916, 1335.24409356208, 1388.0924125848, 1406.48906625708, 1448.35707575312, 1473.26363150876, 1475.5846725469198, 1487.4233552386, 1496.81739115636, 1715.9840946294798, 3005.1781846356403, 3007.41682184996, 3013.4735029022, 3074.4317315878397, 3079.6025715337996, 3091.8944752566, 3093.5974876159594, 3095.41723872576, 3114.39071916492, 3199.6031400007996]

>  <ZPE_kJmol>  (2) 
356.20924482727736

>  <E_elec_kJmol>  (2) 
-516029.60249068274

>  <E0_minus_Eelec_plus_ZPE_kJmol>  (2) 
0.0

>  <rxn>  (2) 
rxn_2002

>  <species_type>  (2) 
p0

>  <species_folder>  (2) 
rxn_2002_C=CC[C]C

>  <frequencies_cm1_list>  (2) 
[93.77555152992, 225.48432996752, 247.28700835851998, 315.42810368887996, 324.58866210575997, 349.19307050732, 507.29854051499996, 697.7200434385999, 806.34888421568, 929.2473204877199, 937.7005794166399, 952.3409921188799, 965.8071503314, 1001.86569024672, 1033.4400887480801, 1123.83021651524, 1181.8562424692398, 1216.2804398783999, 1311.19591097144, 1330.56767655916, 1335.24409356208, 1388.0924125848, 1406.48906625708, 1448.35707575312, 1473.26363150876, 1475.5846725469198, 1487.4233552386, 1496.81739115636, 1715.9840946294798, 3005.1781846356403, 3007.41682184996, 3013.4735029022, 3074.4317315878397, 3079.6025715337996, 3091.8944752566, 3093.5974876159594, 3095.41723872576, 3114.39071916492, 3199.6031400007996]

>  <E0_kJmol>  (2) 
-515673

>  <H298_kJmol>  (2) 
-515654

$$$$

     RDKit          3D

 24 22  0  0  0  0  0  0  0  0999 V2000
   -0.5337   -0.2542    2.2996 C   0  0  0  0  0  0  0  0  0  1  0  0
   -0.2952   -1.2825    1.4800 C   0  0  0  0  0  0  0  0  0  2  0  0
   -0.6744   -1.3588    0.0758 C   0  0  0  0  0  3  0  0  0  3  0  0
   -1.7742   -0.4506   -0.4118 C   0  0  0  0  0  0  0  0  0  4  0  0
   -0.6365   -2.7289   -0.5523 C   0  0  0  0  0  0  0  0  0  5  0  0
   -0.1672   -0.2598    3.3177 H   0  0  0  0  0  0  0  0  0  6  0  0
   -1.0997    0.6146    1.9890 H   0  0  0  0  0  0  0  0  0  7  0  0
    0.2945   -2.1151    1.8552 H   0  0  0  0  0  0  0  0  0  8  0  0
   -1.5448    0.6000   -0.2262 H   0  0  0  0  0  0  0  0  0  9  0  0
   -1.9287   -0.5731   -1.4840 H   0  0  0  0  0  0  0  0  0 10  0  0
   -2.7146   -0.6847    0.0967 H   0  0  0  0  0  0  0  0  0 11  0  0
   -1.5228   -3.3050   -0.2660 H   0  0  0  0  0  0  0  0  0 12  0  0
    0.2427   -3.2916   -0.2344 H   0  0  0  0  0  0  0  0  0 13  0  0
   -0.6289   -2.6629   -1.6416 H   0  0  0  0  0  0  0  0  0 14  0  0
    0.8671    0.1406   -2.4878 C   0  0  0  0  0  0  0  0  0 15  0  0
    1.3739   -0.0425   -1.0812 C   0  0  0  0  0  0  0  0  0 16  0  0
    1.5357    1.0814   -0.2053 C   0  0  0  0  0  0  0  0  0 17  0  0
    0.8684    2.5693   -0.3865 S   0  0  0  0  0  0  0  0  0 18  0  0
    1.6375    0.5981   -3.1129 H   0  0  0  0  0  0  0  0  0 19  0  0
    0.5987   -0.8196   -2.9307 H   0  0  0  0  0  0  0  0  0 20  0  0
   -0.0002    0.7989   -2.5077 H   0  0  0  0  0  0  0  0  0 21  0  0
    0.4250   -0.7204   -0.4712 H   0  0  0  0  0  0  0  0  0 22  0  0
    2.1651   -0.7862   -0.9769 H   0  0  0  0  0  0  0  0  0 23  0  0
    2.1284    0.8860    0.6870 H   0  0  0  0  0  0  0  0  0 24  0  0
  1  7  1  0
  1  6  1  0
  1  2  1  0
  2  8  1  0
  2  3  1  0
  3  4  1  0
  3  5  1  0
  4 10  1  0
  4 11  1  0
  4  9  1  0
  5 12  1  0
  5 14  1  0
  5 13  1  0
 15 20  1  0
 15 16  1  0
 15 19  1  0
 15 21  1  0
 16 22  1  0
 16 17  1  0
 16 23  1  0
 17 24  1  0
 17 18  1  0
M  RAD  1   3   2
M  END
>  <rmg_smiles>  (3) 
[CH2][CH][C](C)C.CC[CH][S]

>  <rmg_adjacency_list>  (3) 
multiplicity 2
1  S u0 p2 c0 {8,S}
2  C u0 p0 c0 {3,S} {8,S} {10,S} {11,S}
3  C u0 p0 c0 {2,S} {12,S} {13,S} {14,S}
4  C u0 p0 c0 {6,S} {15,S} {16,S} {17,S}
5  C u0 p0 c0 {6,S} {18,S} {19,S} {20,S}
6  C u1 p0 c0 {4,S} {5,S} {7,S}
7  C u0 p0 c0 {6,S} {9,S} {21,S}
8  C u0 p0 c0 {1,S} {2,S} {22,S}
9  C u0 p0 c0 {7,S} {23,S} {24,S}
10 H u0 p0 c0 {2,S}
11 H u0 p0 c0 {2,S}
12 H u0 p0 c0 {3,S}
13 H u0 p0 c0 {3,S}
14 H u0 p0 c0 {3,S}
15 H u0 p0 c0 {4,S}
16 H u0 p0 c0 {4,S}
17 H u0 p0 c0 {4,S}
18 H u0 p0 c0 {5,S}
19 H u0 p0 c0 {5,S}
20 H u0 p0 c0 {5,S}
21 H u0 p0 c0 {7,S}
22 H u0 p0 c0 {8,S}
23 H u0 p0 c0 {9,S}
24 H u0 p0 c0 {9,S}


>  <multiplicity>  (3) 
2

>  <reaction>  (3) 
rxn_2002

>  <type>  (3) 
ts

>  <role_mapnums>  (3) 
{"*2": 22, "*1": 16, "*3": 3, "*0": 17, "*4": 2}

>  <role_mapidx>  (3) 
{"*2": 21, "*1": 15, "*3": 2, "*0": 16, "*4": 1}

>  <ordered_mapped_smiles>  (3) 
[CH:1]([CH:2]([C:3]([C:4]([H:9])([H:10])[H:11])[C:5]([H:12])([H:13])[H:14])[H:8])([H:6])[H:7].[C:15]([C:16]([CH:17]([SH:18])[H:24])([H:22])[H:23])([H:19])([H:20])[H:21]

>  <mol_properties>  (3) 
{"1": {"label": "*4", "atom_type": "Cs"}, "2": {"label": "*3", "atom_type": "Cs"}, "15": {"label": "*1", "atom_type": "Cs"}, "16": {"label": "*0", "atom_type": "Cs"}, "21": {"label": "*2", "atom_type": "H0"}}

>  <level_of_theory>  (3) 
wb97xd/def2tzvp

>  <lot_method>  (3) 
wb97xd

>  <lot_basis>  (3) 
def2tzvp

>  <spin_multiplicity>  (3) 
2.0

>  <optical_isomers>  (3) 
2.0

>  <modes>  (3) 
IdealGasTranslation(mass=(143.089, 'amu')),         NonlinearRotor(             inertia = ([308.783, 566.638, 712.413

>  <frequency_value>  (3) 
-1561.2

>  <frequency_units>  (3) 
cm^-1

>  <frequency_list>  (3) 
unknown

>  <arkane_path>  (3) 
/home/calvin/Dropbox/PersonalFolders/Calvin/HAb_Converged/rxn_2002/output/rxns/TS0/arkane/output.py

>  <path_exists>  (3) 
True

>  <E0_value>  (3) 
-1868820.0

>  <E0_units>  (3) 
kJ/mol

>  <thermo_class>  (3) 
unknown

>  <Cp0_value>  (3) 
unknown

>  <Cp0_units>  (3) 
unknown

>  <CpInf_value>  (3) 
unknown

>  <CpInf_units>  (3) 
unknown

>  <Tmin_value>  (3) 
unknown

>  <Tmin_units>  (3) 
unknown

>  <Tmax_value>  (3) 
unknown

>  <Tmax_units>  (3) 
unknown

>  <polynomials>  (3) 
unknown

>  <H298_value>  (3) 
unknown

>  <H298_units>  (3) 
unknown

>  <S298_value>  (3) 
unknown

>  <S298_units>  (3) 
unknown

>  <Cp_T_value_list>  (3) 
unknown

>  <Cp_T_units>  (3) 
unknown

>  <T_list>  (3) 
unknown

>  <T_units>  (3) 
unknown

>  <yaml_path>  (3) 
unknown

>  <frequencies_cm1>  (3) 
unknown

>  <ZPE_kJmol>  (3) 
unknown

>  <E_elec_kJmol>  (3) 
unknown

>  <E0_minus_Eelec_plus_ZPE_kJmol>  (3) 
unknown

>  <rxn>  (3) 
unknown

>  <species_type>  (3) 
unknown

>  <species_folder>  (3) 
unknown

>  <frequencies_cm1_list>  (3) 
[]

>  <ts_imag_freq_cm1>  (3) 
-1580.1581

>  <ts_freq_out_path>  (3) 
/home/calvin/Dropbox/PersonalFolders/Calvin/HAb_Converged/rxn_2002/output/rxns/TS0/geometry/freq.out

>  <E0_kJmol>  (3) 
-1.86882e+06

>  <H298_kJmol>  (3) 
unknown

$$$$

     RDKit          3D

  9  8  0  0  0  0  0  0  0  0999 V2000
   -1.2704   -0.1236    0.1096 C   0  0  0  0  0  0  0  0  0  1  0  0
    0.0713   -0.5323    0.5887 C   0  0  0  0  0  0  0  0  0  2  0  0
    0.9521   -1.3639   -0.0464 C   0  0  0  0  0  0  0  0  0  3  0  0
    0.6900   -2.1109   -1.5335 S   0  0  0  0  0  1  0  0  0  4  0  0
   -1.3201    0.9657    0.0241 H   0  0  0  0  0  0  0  0  0  5  0  0
   -1.5103   -0.5706   -0.8526 H   0  0  0  0  0  0  0  0  0  6  0  0
   -2.0312   -0.4112    0.8411 H   0  0  0  0  0  0  0  0  0  7  0  0
    0.3863   -0.1265    1.5468 H   0  0  0  0  0  0  0  0  0  8  0  0
    1.8971   -1.5543    0.4552 H   0  0  0  0  0  0  0  0  0  9  0  0
  1  5  1  0
  1  7  1  0
  1  6  1  0
  1  2  1  0
  2  8  1  0
  2  3  1  0
  3  9  1  0
  3  4  1  0
M  RAD  1   4   2
M  END
>  <rmg_smiles>  (4) 
C[CH][CH][S]

>  <rmg_adjacency_list>  (4) 
multiplicity 2
1 S u1 p2 c0 {4,S}
2 C u0 p0 c0 {3,S} {5,S} {6,S} {7,S}
3 C u0 p0 c0 {2,S} {4,S} {8,S}
4 C u0 p0 c0 {1,S} {3,S} {9,S}
5 H u0 p0 c0 {2,S}
6 H u0 p0 c0 {2,S}
7 H u0 p0 c0 {2,S}
8 H u0 p0 c0 {3,S}
9 H u0 p0 c0 {4,S}


>  <multiplicity>  (4) 
2

>  <reaction>  (4) 
rxn_2002

>  <type>  (4) 
r1

>  <role_mapnums>  (4) 
{}

>  <role_mapidx>  (4) 
{}

>  <ordered_mapped_smiles>  (4) 
[C:1]([CH:2]([CH:3]([S:4])[H:9])[H:8])([H:5])([H:6])[H:7]

>  <level_of_theory>  (4) 
wb97xd/def2tzvp

>  <lot_method>  (4) 
wb97xd

>  <lot_basis>  (4) 
def2tzvp

>  <spin_multiplicity>  (4) 
2.0

>  <optical_isomers>  (4) 
1.0

>  <modes>  (4) 
IdealGasTranslation(mass=(73.0112, 'amu')),         NonlinearRotor(             inertia = ([33.6944, 136.887, 167.488

>  <frequency_value>  (4) 
unknown

>  <frequency_units>  (4) 
unknown

>  <frequency_list>  (4) 
unknown

>  <arkane_path>  (4) 
/home/calvin/Dropbox/PersonalFolders/Calvin/HAb_Converged/rxn_2002/output/Species/rxn_2002_C[CH]C=S/arkane/output.py

>  <path_exists>  (4) 
True

>  <E0_value>  (4) 
-1353215.6281101538

>  <E0_units>  (4) 
kJ/mol

>  <thermo_class>  (4) 
NASA

>  <Cp0_value>  (4) 
33.257888

>  <Cp0_units>  (4) 
J/(mol*K)

>  <CpInf_value>  (4) 
207.8618

>  <CpInf_units>  (4) 
J/(mol*K)

>  <Tmin_value>  (4) 
10.0

>  <Tmin_units>  (4) 
K

>  <Tmax_value>  (4) 
3000.0

>  <Tmax_units>  (4) 
K

>  <polynomials>  (4) 
[{"name": "polynomial1", "class": "NASAPolynomial", "Tmin_value": 10.0, "Tmin_units": "K", "Tmax_value": 725.9670831251275, "Tmax_units": "K", "coeffs": [3.8816748203713503, 0.011298408175925107, 3.675471007626225e-05, -5.977324289779361e-08, 2.695700402648573e-11, -162754245.86998293, 10.102760819727918]}, {"name": "polynomial2", "class": "NASAPolynomial", "Tmin_value": 725.9670831251275, "Tmin_units": "K", "Tmax_value": 3000.0, "Tmax_units": "K", "coeffs": [2.113334188366536, 0.02911249006728392, -1.6728703347228576e-05, 4.6550260025625346e-09, -5.035736545429853e-13, -162754201.7933275, 16.602901379195625]}]

>  <H298_value>  (4) 
-323422.5645571532

>  <H298_units>  (4) 
kcal/mol

>  <S298_value>  (4) 
73.01356091694491

>  <S298_units>  (4) 
cal/(mol*K)

>  <Cp_T_value_list>  (4) 
[18.249700390386565, 22.1502054191087, 25.699972971809594, 28.76485903066641, 33.53225294606782, 37.05856600875504, 42.33516489554981, 44.92384433755821, 46.24168569821556]

>  <Cp_T_units>  (4) 
cal/(mol*K)

>  <T_list>  (4) 
[300.0, 400.0, 500.0, 600.0, 800.0, 1000.0, 1500.0, 2000.0, 2400.0]

>  <T_units>  (4) 
K

>  <yaml_path>  (4) 
/home/calvin/Dropbox/PersonalFolders/Calvin/HAb_Converged/rxn_2002/output/Species/rxn_2002_C[CH]C=S/rxn_2002_CCHC=S.yml

>  <frequencies_cm1>  (4) 
[111.67778225915998, 241.84835598508, 328.91486285736, 569.66450119124, 701.4282155114, 825.4665713465598, 919.54427023056, 945.2817312099198, 1036.1937498614, 1093.82149066684, 1239.0307622435598, 1356.916299232, 1389.82289288544, 1434.05314533156, 1462.16658323164, 1523.85957934652, 3007.1696103784398, 3060.1209341809595, 3105.60097795532, 3123.1735933892, 3133.0620522499994]

>  <ZPE_kJmol>  (4) 
183.08144113792287

>  <E_elec_kJmol>  (4) 
-1353398.7095512918

>  <E0_minus_Eelec_plus_ZPE_kJmol>  (4) 
0.0

>  <rxn>  (4) 
rxn_2002

>  <species_type>  (4) 
p1

>  <species_folder>  (4) 
rxn_2002_C[CH]C=S

>  <frequencies_cm1_list>  (4) 
[111.67778225915998, 241.84835598508, 328.91486285736, 569.66450119124, 701.4282155114, 825.4665713465598, 919.54427023056, 945.2817312099198, 1036.1937498614, 1093.82149066684, 1239.0307622435598, 1356.916299232, 1389.82289288544, 1434.05314533156, 1462.16658323164, 1523.85957934652, 3007.1696103784398, 3060.1209341809595, 3105.60097795532, 3123.1735933892, 3133.0620522499994]

>  <E0_kJmol>  (4) 
-1.35322e+06

>  <H298_kJmol>  (4) 
-1.3532e+06

$$$$

     RDKit          3D

 14 13  0  0  0  0  0  0  0  0999 V2000
    0.7079   -1.6438    1.4652 C   0  0  0  0  0  0  0  0  0  1  0  0
    0.6983   -0.3170    1.1153 C   0  0  0  0  0  0  0  0  0  2  0  0
    1.4436    0.6920    1.7151 C   0  0  0  0  0  3  0  0  0  3  0  0
    2.3699    0.4004    2.8550 C   0  0  0  0  0  0  0  0  0  4  0  0
    1.3495    2.1059    1.2457 C   0  0  0  0  0  0  0  0  0  5  0  0
    0.0923   -2.3608    0.9401 H   0  0  0  0  0  0  0  0  0  6  0  0
    1.3252   -2.0194    2.2712 H   0  0  0  0  0  0  0  0  0  7  0  0
    0.0502   -0.0216    0.2943 H   0  0  0  0  0  0  0  0  0  8  0  0
    3.1408   -0.3217    2.5687 H   0  0  0  0  0  0  0  0  0  9  0  0
    2.8709    1.3048    3.2004 H   0  0  0  0  0  0  0  0  0 10  0  0
    1.8331   -0.0314    3.7054 H   0  0  0  0  0  0  0  0  0 11  0  0
    1.0230    2.7670    2.0562 H   0  0  0  0  0  0  0  0  0 12  0  0
    0.6519    2.2158    0.4152 H   0  0  0  0  0  0  0  0  0 13  0  0
    2.3281    2.4773    0.9217 H   0  0  0  0  0  0  0  0  0 14  0  0
  1  7  1  0
  1  6  1  0
  1  2  1  0
  2  8  1  0
  2  3  1  0
  3  4  1  0
  3  5  1  0
  4  9  1  0
  4 10  1  0
  4 11  1  0
  5 12  1  0
  5 14  1  0
  5 13  1  0
M  RAD  1   3   2
M  END
>  <rmg_smiles>  (5) 
[CH2][CH][C](C)C

>  <rmg_adjacency_list>  (5) 
multiplicity 2
1  C u0 p0 c0 {3,S} {6,S} {7,S} {8,S}
2  C u0 p0 c0 {3,S} {9,S} {10,S} {11,S}
3  C u1 p0 c0 {1,S} {2,S} {4,S}
4  C u0 p0 c0 {3,S} {5,S} {12,S}
5  C u0 p0 c0 {4,S} {13,S} {14,S}
6  H u0 p0 c0 {1,S}
7  H u0 p0 c0 {1,S}
8  H u0 p0 c0 {1,S}
9  H u0 p0 c0 {2,S}
10 H u0 p0 c0 {2,S}
11 H u0 p0 c0 {2,S}
12 H u0 p0 c0 {4,S}
13 H u0 p0 c0 {5,S}
14 H u0 p0 c0 {5,S}


>  <multiplicity>  (5) 
2

>  <reaction>  (5) 
rxn_2002

>  <type>  (5) 
r2

>  <role_mapnums>  (5) 
{}

>  <role_mapidx>  (5) 
{}

>  <ordered_mapped_smiles>  (5) 
[CH:1]([CH:2]([C:3]([C:4]([H:9])([H:10])[H:11])[C:5]([H:12])([H:13])[H:14])[H:8])([H:6])[H:7]

>  <level_of_theory>  (5) 
wb97xd/def2tzvp

>  <lot_method>  (5) 
wb97xd

>  <lot_basis>  (5) 
def2tzvp

>  <spin_multiplicity>  (5) 
2.0

>  <optical_isomers>  (5) 
1.0

>  <modes>  (5) 
IdealGasTranslation(mass=(69.0704, 'amu')),         NonlinearRotor(             inertia = ([61.3549, 130.413, 185.559

>  <frequency_value>  (5) 
unknown

>  <frequency_units>  (5) 
unknown

>  <frequency_list>  (5) 
unknown

>  <arkane_path>  (5) 
/home/calvin/Dropbox/PersonalFolders/Calvin/HAb_Converged/rxn_2002/output/Species/rxn_2002_C=C[C][C]C/arkane/output.py

>  <path_exists>  (5) 
True

>  <E0_value>  (5) 
-514025.9754987453

>  <E0_units>  (5) 
kJ/mol

>  <thermo_class>  (5) 
NASA

>  <Cp0_value>  (5) 
33.257888

>  <Cp0_units>  (5) 
J/(mol*K)

>  <CpInf_value>  (5) 
332.57888

>  <CpInf_units>  (5) 
J/(mol*K)

>  <Tmin_value>  (5) 
10.0

>  <Tmin_units>  (5) 
K

>  <Tmax_value>  (5) 
3000.0

>  <Tmax_units>  (5) 
K

>  <polynomials>  (5) 
[{"name": "polynomial1", "class": "NASAPolynomial", "Tmin_value": 10.0, "Tmin_units": "K", "Tmax_value": 869.7443095606467, "Tmax_units": "K", "coeffs": [3.7251570264208937, 0.026125835034367963, 2.9279171277059886e-05, -5.0533992193476346e-08, 2.0228807016282127e-11, -61823043.86802099, 10.742269426368708]}, {"name": "polynomial2", "class": "NASAPolynomial", "Tmin_value": 869.7443095606467, "Tmin_units": "K", "Tmax_value": 3000.0, "Tmax_units": "K", "coeffs": [2.0499149502727954, 0.04566148097350016, -2.4817357053146225e-05, 6.571684862922192e-09, -6.813295379532066e-13, -61823199.9471285, 16.018041820783967]}]

>  <H298_value>  (5) 
-122850.30929442904

>  <H298_units>  (5) 
kcal/mol

>  <S298_value>  (5) 
80.76901740547369

>  <S298_units>  (5) 
cal/(mol*K)

>  <Cp_T_value_list>  (5) 
[25.828653897729797, 32.08114460069274, 37.86705207249714, 43.017994667847105, 51.22384444971194, 57.20053527156862, 66.43884858823301, 71.09361415383418, 73.390686452806]

>  <Cp_T_units>  (5) 
cal/(mol*K)

>  <T_list>  (5) 
[300.0, 400.0, 500.0, 600.0, 800.0, 1000.0, 1500.0, 2000.0, 2400.0]

>  <T_units>  (5) 
K

>  <yaml_path>  (5) 
/home/calvin/Dropbox/PersonalFolders/Calvin/HAb_Converged/rxn_2002/output/Species/rxn_2002_C=C[C][C]C/rxn_2002_C=CCCC.yml

>  <frequencies_cm1>  (5) 
[55.107557193, 159.32092640931998, 226.55557967744, 278.64853031495994, 356.053188842, 383.12971195875997, 537.2797984221199, 582.97958572672, 765.24311009016, 793.8921728451999, 933.2782408705599, 980.1316817089199, 985.8381465098398, 986.5797809243999, 1056.26594795176, 1065.45397430992, 1225.25558969164, 1249.45484595932, 1354.32057878104, 1397.4040446787199, 1400.8306703534, 1443.5021171318801, 1461.08159955108, 1469.6378632598, 1480.13061682876, 1493.1229530541998, 1520.0758704352, 2982.7574775658395, 2995.00817937672, 3028.9654217841194, 3046.0710822162396, 3091.5030570933595, 3094.4695947516, 3117.3709907937996, 3132.2036790849997, 3223.1775006043595]

>  <ZPE_kJmol>  (5) 
319.1165262623887

>  <E_elec_kJmol>  (5) 
-514345.0920250077

>  <E0_minus_Eelec_plus_ZPE_kJmol>  (5) 
0.0

>  <rxn>  (5) 
rxn_2002

>  <species_type>  (5) 
r0

>  <species_folder>  (5) 
rxn_2002_C=C[C][C]C

>  <frequencies_cm1_list>  (5) 
[55.107557193, 159.32092640931998, 226.55557967744, 278.64853031495994, 356.053188842, 383.12971195875997, 537.2797984221199, 582.97958572672, 765.24311009016, 793.8921728451999, 933.2782408705599, 980.1316817089199, 985.8381465098398, 986.5797809243999, 1056.26594795176, 1065.45397430992, 1225.25558969164, 1249.45484595932, 1354.32057878104, 1397.4040446787199, 1400.8306703534, 1443.5021171318801, 1461.08159955108, 1469.6378632598, 1480.13061682876, 1493.1229530541998, 1520.0758704352, 2982.7574775658395, 2995.00817937672, 3028.9654217841194, 3046.0710822162396, 3091.5030570933595, 3094.4695947516, 3117.3709907937996, 3132.2036790849997, 3223.1775006043595]

>  <E0_kJmol>  (5) 
-514026

>  <H298_kJmol>  (5) 
-514006

$$$$
