
     RDKit          3D

  9  8  0  0  0  0  0  0  0  0999 V2000
    0.9209    0.0318   -2.1457 C   0  0  0  0  0  2  0  0  0  1  0  0
    0.7247   -0.1533   -0.9757 C   0  0  0  0  0  2  0  0  0  2  0  0
    0.6004   -0.2782    0.4371 C   0  0  0  0  0  0  0  0  0  3  0  0
   -0.6540    0.0351    1.0445 C   0  0  0  0  0  2  0  0  0  4  0  0
   -1.6788    0.3374    1.5902 C   0  0  0  0  0  2  0  0  0  5  0  0
    1.0807    0.1710   -3.1882 H   0  0  0  0  0  0  0  0  0  6  0  0
    1.2751    0.5079    0.7718 H   0  0  0  0  0  0  0  0  0  7  0  0
    1.1014   -1.1478    0.8588 H   0  0  0  0  0  0  0  0  0  8  0  0
   -2.5983    0.5896    2.0618 H   0  0  0  0  0  0  0  0  0  9  0  0
  1  6  1  0
  1  2  1  0
  2  3  1  0
  3  4  1  0
  3  7  1  0
  3  8  1  0
  4  5  1  0
  5  9  1  0
M  RAD  4   1   3   2   3   4   3   5   3
M  END
>  <rmg_smiles>  (1) 
[CH][C]C[C][CH]

>  <rmg_adjacency_list>  (1) 
1 C u0 p0 c0 {2,S} {3,S} {6,S} {7,S}
2 C u0 p1 c0 {1,S} {4,S}
3 C u0 p1 c0 {1,S} {5,S}
4 C u0 p1 c0 {2,S} {8,S}
5 C u0 p1 c0 {3,S} {9,S}
6 H u0 p0 c0 {1,S}
7 H u0 p0 c0 {1,S}
8 H u0 p0 c0 {4,S}
9 H u0 p0 c0 {5,S}


>  <multiplicity>  (1) 
1

>  <reaction>  (1) 
rxn_1370

>  <type>  (1) 
r1h

>  <role_mapnums>  (1) 
{"r1h_a": 3, "r1h_h": 7}

>  <role_mapidx>  (1) 
{"r1h_a": 2, "r1h_h": 6}

>  <ordered_mapped_smiles>  (1) 
[C:1]([C:2][C:3]([C:4][C:5][H:9])([H:7])[H:8])[H:6]

>  <mol_properties>  (1) 
{"2": {"label": "donator", "atom_type": "Cs"}, "6": {"label": "d_hydrogen", "atom_type": "H0"}}

>  <level_of_theory>  (1) 
wb97xd/def2tzvp

>  <lot_method>  (1) 
wb97xd

>  <lot_basis>  (1) 
def2tzvp

>  <spin_multiplicity>  (1) 
1.0

>  <optical_isomers>  (1) 
1.0

>  <modes>  (1) 
IdealGasTranslation(mass=(64.0313, 'amu')),         NonlinearRotor(             inertia = ([26.0751, 176.474, 199.453

>  <frequency_value>  (1) 
unknown

>  <frequency_units>  (1) 
unknown

>  <frequency_list>  (1) 
unknown

>  <arkane_path>  (1) 
/home/calvin/Dropbox/PersonalFolders/Calvin/HAb_Converged/rxn_1370/output/Species/rxn_1370_CtCCCtC/arkane/output.py

>  <path_exists>  (1) 
True

>  <E0_value>  (1) 
-505987.19351265096

>  <E0_units>  (1) 
kJ/mol

>  <thermo_class>  (1) 
NASA

>  <Cp0_value>  (1) 
33.257888

>  <Cp0_units>  (1) 
J/(mol*K)

>  <CpInf_value>  (1) 
207.8618

>  <CpInf_units>  (1) 
J/(mol*K)

>  <Tmin_value>  (1) 
10.0

>  <Tmin_units>  (1) 
K

>  <Tmax_value>  (1) 
3000.0

>  <Tmax_units>  (1) 
K

>  <polynomials>  (1) 
[{"name": "polynomial1", "class": "NASAPolynomial", "Tmin_value": 10.0, "Tmin_units": "K", "Tmax_value": 497.8513259912737, "Tmax_units": "K", "coeffs": [3.8915923857803536, 0.006957077216274673, 0.00011247108954423451, -2.58415972479989e-07, 1.7696354569532415e-10, -60856199.4251038, 8.432123404375208]}, {"name": "polynomial2", "class": "NASAPolynomial", "Tmin_value": 497.8513259912737, "Tmin_units": "K", "Tmax_value": 3000.0, "Tmax_units": "K", "coeffs": [4.075787334974484, 0.027762889535938477, -1.736147806652233e-05, 5.355292661241066e-09, -6.423462202508128e-13, -60856493.94799508, 4.89821145227154]}]

>  <H298_value>  (1) 
-120929.79228656254

>  <H298_units>  (1) 
kcal/mol

>  <S298_value>  (1) 
71.02155085771051

>  <S298_units>  (1) 
cal/(mol*K)

>  <Cp_T_value_list>  (1) 
[20.979509503559502, 25.16090011310623, 28.30999724146717, 30.91474121272046, 35.081264888538236, 38.134781385911204, 42.68326999943224, 45.150237682434486, 46.5496532279807]

>  <Cp_T_units>  (1) 
cal/(mol*K)

>  <T_list>  (1) 
[300.0, 400.0, 500.0, 600.0, 800.0, 1000.0, 1500.0, 2000.0, 2400.0]

>  <T_units>  (1) 
K

>  <yaml_path>  (1) 
/home/calvin/Dropbox/PersonalFolders/Calvin/HAb_Converged/rxn_1370/output/Species/rxn_1370_CtCCCtC/rxn_1370_CtCCCtC.yml

>  <frequencies_cm1>  (1) 
[136.57060404415998, 317.76287869768, 341.09689481504, 341.70805650852003, 565.30396551304, 688.26420465296, 689.33545436288, 698.59215057424, 701.977574337, 902.24633420948, 929.56320181244, 996.6124464769199, 1233.63331178204, 1332.80631377348, 1444.34675632624, 2232.8002767979997, 2237.0990096083196, 3019.1456327765195, 3054.0230512167996, 3436.67207420316, 3437.69525501584]

>  <ZPE_kJmol>  (1) 
171.88700812582363

>  <E_elec_kJmol>  (1) 
-506159.0805207768

>  <E0_minus_Eelec_plus_ZPE_kJmol>  (1) 
0.0

>  <rxn>  (1) 
rxn_1370

>  <species_type>  (1) 
r0

>  <species_folder>  (1) 
rxn_1370_CtCCCtC

>  <frequencies_cm1_list>  (1) 
[136.57060404415998, 317.76287869768, 341.09689481504, 341.70805650852003, 565.30396551304, 688.26420465296, 689.33545436288, 698.59215057424, 701.977574337, 902.24633420948, 929.56320181244, 996.6124464769199, 1233.63331178204, 1332.80631377348, 1444.34675632624, 2232.8002767979997, 2237.0990096083196, 3019.1456327765195, 3054.0230512167996, 3436.67207420316, 3437.69525501584]

>  <E0_kJmol>  (1) 
-505987

>  <H298_kJmol>  (1) 
-505970

$$$$

     RDKit          3D

  7  6  0  0  0  0  0  0  0  0999 V2000
   -1.8187   -0.8775    0.9286 H   0  0  0  0  0  0  0  0  0  1  0  0
   -1.1447   -0.0910    1.2589 C   0  0  0  0  0  0  0  0  0  2  0  0
   -0.5806    0.4070    0.0470 C   0  0  0  0  0  0  0  0  0  3  0  0
    0.8205   -0.1182   -0.6177 S   0  0  0  0  0  0  0  0  0  4  0  0
   -1.8698    0.5407    1.7676 H   0  0  0  0  0  0  0  0  0  5  0  0
   -0.4807   -0.6553    1.9075 H   0  0  0  0  0  0  0  0  0  6  0  0
   -1.1659    1.1582   -0.4812 H   0  0  0  0  0  0  0  0  0  7  0  0
  1  2  1  0
  2  5  1  0
  2  6  1  0
  2  3  1  0
  3  7  1  0
  3  4  1  0
M  END
>  <rmg_smiles>  (2) 
C[CH][S]

>  <rmg_adjacency_list>  (2) 
1 S u0 p2 c0 {3,S}
2 C u0 p0 c0 {3,S} {4,S} {5,S} {6,S}
3 C u0 p0 c0 {1,S} {2,S} {7,S}
4 H u0 p0 c0 {2,S}
5 H u0 p0 c0 {2,S}
6 H u0 p0 c0 {2,S}
7 H u0 p0 c0 {3,S}


>  <multiplicity>  (2) 
1

>  <reaction>  (2) 
rxn_1370

>  <type>  (2) 
r2h

>  <role_mapnums>  (2) 
{"r2h_a": 2, "r2h_h": 1}

>  <role_mapidx>  (2) 
{"r2h_a": 1, "r2h_h": 0}

>  <ordered_mapped_smiles>  (2) 
[H:1][C:2]([CH:3]([SH:4])[H:7])([H:5])[H:6]

>  <mol_properties>  (2) 
{"0": {"label": "a_hydrogen", "atom_type": "H0"}, "1": {"label": "acceptor", "atom_type": "Cs"}}

>  <level_of_theory>  (2) 
wb97xd/def2tzvp

>  <lot_method>  (2) 
wb97xd

>  <lot_basis>  (2) 
def2tzvp

>  <spin_multiplicity>  (2) 
1.0

>  <optical_isomers>  (2) 
1.0

>  <modes>  (2) 
IdealGasTranslation(mass=(60.0034, 'amu')),         NonlinearRotor(             inertia = ([10.1821, 87.4169, 94.5043

>  <frequency_value>  (2) 
unknown

>  <frequency_units>  (2) 
unknown

>  <frequency_list>  (2) 
unknown

>  <arkane_path>  (2) 
/home/calvin/Dropbox/PersonalFolders/Calvin/HAb_Converged/rxn_1370/output/Species/rxn_1370_CC=S/arkane/output.py

>  <path_exists>  (2) 
True

>  <E0_value>  (2) 
-1251692.87971102

>  <E0_units>  (2) 
kJ/mol

>  <thermo_class>  (2) 
NASA

>  <Cp0_value>  (2) 
33.257888

>  <Cp0_units>  (2) 
J/(mol*K)

>  <CpInf_value>  (2) 
157.97496800000002

>  <CpInf_units>  (2) 
J/(mol*K)

>  <Tmin_value>  (2) 
10.0

>  <Tmin_units>  (2) 
K

>  <Tmax_value>  (2) 
3000.0

>  <Tmax_units>  (2) 
K

>  <polynomials>  (2) 
[{"name": "polynomial1", "class": "NASAPolynomial", "Tmin_value": 10.0, "Tmin_units": "K", "Tmax_value": 485.39622899743466, "Tmax_units": "K", "coeffs": [3.975940530572461, 0.0013748720414305338, 5.132788135128821e-05, -8.432386137464513e-08, 4.4867749425835864e-11, -150543879.09878448, 8.090912724756667]}, {"name": "polynomial2", "class": "NASAPolynomial", "Tmin_value": 485.39622899743466, "Tmin_units": "K", "Tmax_value": 3000.0, "Tmax_units": "K", "coeffs": [1.4651349812966712, 0.022068299956711855, -1.2628378415974456e-05, 3.5280372570941277e-09, -3.855767973354191e-13, -150543635.38297567, 18.3889911716905]}]

>  <H298_value>  (2) 
-299158.68811573734

>  <H298_units>  (2) 
kcal/mol

>  <S298_value>  (2) 
65.13190747939298

>  <S298_units>  (2) 
cal/(mol*K)

>  <Cp_T_value_list>  (2) 
[14.098427248842778, 16.871855394466547, 19.393339934655586, 21.604877323173096, 25.209772375709086, 27.915317068508738, 32.01166447471848, 34.0672583894089, 35.111294878115146]

>  <Cp_T_units>  (2) 
cal/(mol*K)

>  <T_list>  (2) 
[300.0, 400.0, 500.0, 600.0, 800.0, 1000.0, 1500.0, 2000.0, 2400.0]

>  <T_units>  (2) 
K

>  <yaml_path>  (2) 
/home/calvin/Dropbox/PersonalFolders/Calvin/HAb_Converged/rxn_1370/output/Species/rxn_1370_CC=S/rxn_1370_CC=S.yml

>  <frequencies_cm1>  (2) 
[170.46604358368, 396.01217641908, 770.63369356636, 837.4425937446399, 1045.2719044544401, 1080.9115582652398, 1167.33943550276, 1373.61680753024, 1381.75418513444, 1457.57943703788, 1469.4661886268, 3002.45885844892, 3059.70204807644, 3060.7801647716797, 3125.5770382512]

>  <ZPE_kJmol>  (2) 
139.95721324395197

>  <E_elec_kJmol>  (2) 
-1251832.836924264

>  <E0_minus_Eelec_plus_ZPE_kJmol>  (2) 
0.0

>  <rxn>  (2) 
rxn_1370

>  <species_type>  (2) 
p0

>  <species_folder>  (2) 
rxn_1370_CC=S

>  <frequencies_cm1_list>  (2) 
[170.46604358368, 396.01217641908, 770.63369356636, 837.4425937446399, 1045.2719044544401, 1080.9115582652398, 1167.33943550276, 1373.61680753024, 1381.75418513444, 1457.57943703788, 1469.4661886268, 3002.45885844892, 3059.70204807644, 3060.7801647716797, 3125.5770382512]

>  <E0_kJmol>  (2) 
-1.25169e+06

>  <H298_kJmol>  (2) 
-1.25168e+06

$$$$

     RDKit          3D

 15 13  0  0  0  0  0  0  0  0999 V2000
   -0.8052   -0.9848   -2.2346 C   0  0  0  0  0  0  0  0  0  1  0  0
   -1.0014   -1.1699   -1.0646 C   0  0  0  0  0  0  0  0  0  2  0  0
   -1.1256   -1.2948    0.3482 C   0  0  0  0  0  3  0  0  0  3  0  0
   -2.3800   -0.9816    0.9556 C   0  0  0  0  0  0  0  0  0  4  0  0
   -3.4049   -0.6792    1.5013 C   0  0  0  0  0  0  0  0  0  5  0  0
   -0.6454   -0.8456   -3.2771 H   0  0  0  0  0  0  0  0  0  6  0  0
   -0.2769   -0.3060    0.7693 H   0  0  0  0  0  0  0  0  0  7  0  0
   -0.6247   -2.1645    0.7699 H   0  0  0  0  0  0  0  0  0  8  0  0
   -4.3244   -0.4271    1.9729 H   0  0  0  0  0  0  0  0  0  9  0  0
    0.5501    0.6591    1.1746 C   0  0  0  0  0  0  0  0  0 10  0  0
    1.1142    1.1571   -0.0373 C   0  0  0  0  0  0  0  0  0 11  0  0
    2.5154    0.6320   -0.7020 S   0  0  0  0  0  0  0  0  0 12  0  0
   -0.1750    1.2908    1.6833 H   0  0  0  0  0  0  0  0  0 13  0  0
    1.2141    0.0948    1.8232 H   0  0  0  0  0  0  0  0  0 14  0  0
    0.5290    1.9083   -0.5656 H   0  0  0  0  0  0  0  0  0 15  0  0
  1  6  1  0
  1  2  1  0
  2  3  1  0
  3  4  1  0
  3  8  1  0
  4  5  1  0
  5  9  1  0
  7 10  1  0
 10 13  1  0
 10 14  1  0
 10 11  1  0
 11 15  1  0
 11 12  1  0
M  RAD  1   3   2
M  END
>  <rmg_smiles>  (3) 
[CH][C][CH][C][CH].C[CH][S]

>  <rmg_adjacency_list>  (3) 
multiplicity 2
1  S u0 p2 c0 {3,S}
2  C u0 p0 c0 {3,S} {9,S} {10,S} {11,S}
3  C u0 p0 c0 {1,S} {2,S} {12,S}
4  C u1 p0 c0 {5,S} {6,S} {13,S}
5  C u0 p1 c0 {4,S} {7,S}
6  C u0 p1 c0 {4,S} {8,S}
7  C u0 p1 c0 {5,S} {14,S}
8  C u0 p1 c0 {6,S} {15,S}
9  H u0 p0 c0 {2,S}
10 H u0 p0 c0 {2,S}
11 H u0 p0 c0 {2,S}
12 H u0 p0 c0 {3,S}
13 H u0 p0 c0 {4,S}
14 H u0 p0 c0 {7,S}
15 H u0 p0 c0 {8,S}


>  <multiplicity>  (3) 
2

>  <reaction>  (3) 
rxn_1370

>  <type>  (3) 
ts

>  <role_mapnums>  (3) 
{"*2": 7, "*1": 3, "*3": 10, "*0": 11, "*4": 2}

>  <role_mapidx>  (3) 
{"*2": 6, "*1": 2, "*3": 9, "*0": 10, "*4": 1}

>  <ordered_mapped_smiles>  (3) 
[CH2:1]([CH2:2][C:3]([CH2:4][CH2:5][H:9])[H:8])[H:6].[H:7][C:10]([CH:11]([SH:12])[H:15])([H:13])[H:14]

>  <mol_properties>  (3) 
{"1": {"label": "*4", "atom_type": "C2s"}, "2": {"label": "*1", "atom_type": "Cs"}, "6": {"label": "*2", "atom_type": "H0"}, "9": {"label": "*3", "atom_type": "Cs"}, "10": {"label": "*0", "atom_type": "Cs"}}

>  <level_of_theory>  (3) 
wb97xd/def2tzvp

>  <lot_method>  (3) 
wb97xd

>  <lot_basis>  (3) 
def2tzvp

>  <spin_multiplicity>  (3) 
2.0

>  <optical_isomers>  (3) 
2.0

>  <modes>  (3) 
IdealGasTranslation(mass=(123.027, 'amu')),         NonlinearRotor(             inertia = ([181.061, 599.799, 734.744

>  <frequency_value>  (3) 
-1810.35

>  <frequency_units>  (3) 
cm^-1

>  <frequency_list>  (3) 
unknown

>  <arkane_path>  (3) 
/home/calvin/Dropbox/PersonalFolders/Calvin/HAb_Converged/rxn_1370/output/rxns/TS0/arkane/output.py

>  <path_exists>  (3) 
True

>  <E0_value>  (3) 
-1755960.0

>  <E0_units>  (3) 
kJ/mol

>  <thermo_class>  (3) 
unknown

>  <Cp0_value>  (3) 
unknown

>  <Cp0_units>  (3) 
unknown

>  <CpInf_value>  (3) 
unknown

>  <CpInf_units>  (3) 
unknown

>  <Tmin_value>  (3) 
unknown

>  <Tmin_units>  (3) 
unknown

>  <Tmax_value>  (3) 
unknown

>  <Tmax_units>  (3) 
unknown

>  <polynomials>  (3) 
unknown

>  <H298_value>  (3) 
unknown

>  <H298_units>  (3) 
unknown

>  <S298_value>  (3) 
unknown

>  <S298_units>  (3) 
unknown

>  <Cp_T_value_list>  (3) 
unknown

>  <Cp_T_units>  (3) 
unknown

>  <T_list>  (3) 
unknown

>  <T_units>  (3) 
unknown

>  <yaml_path>  (3) 
unknown

>  <frequencies_cm1>  (3) 
unknown

>  <ZPE_kJmol>  (3) 
unknown

>  <E_elec_kJmol>  (3) 
unknown

>  <E0_minus_Eelec_plus_ZPE_kJmol>  (3) 
unknown

>  <rxn>  (3) 
unknown

>  <species_type>  (3) 
unknown

>  <species_folder>  (3) 
unknown

>  <frequencies_cm1_list>  (3) 
[]

>  <ts_imag_freq_cm1>  (3) 
-1832.335

>  <ts_freq_out_path>  (3) 
/home/calvin/Dropbox/PersonalFolders/Calvin/HAb_Converged/rxn_1370/output/rxns/TS0/geometry/freq.out

>  <E0_kJmol>  (3) 
-1.75596e+06

>  <H298_kJmol>  (3) 
unknown

$$$$

     RDKit          3D

  8  7  0  0  0  0  0  0  0  0999 V2000
   -2.2129    0.4855    0.7390 C   0  0  0  0  0  0  0  0  0  1  0  0
   -1.2226    0.0526    0.1974 C   0  0  0  0  0  0  0  0  0  2  0  0
   -0.1006   -0.4575   -0.4419 C   0  0  0  0  0  3  0  0  0  3  0  0
    1.1960   -0.1737   -0.0342 C   0  0  0  0  0  0  0  0  0  4  0  0
    2.3329    0.0603    0.3036 C   0  0  0  0  0  0  0  0  0  5  0  0
   -3.0803    0.8696    1.2198 H   0  0  0  0  0  0  0  0  0  6  0  0
   -0.2433   -1.1067   -1.2980 H   0  0  0  0  0  0  0  0  0  7  0  0
    3.3308    0.2700    0.6058 H   0  0  0  0  0  0  0  0  0  8  0  0
  1  6  1  0
  1  2  1  0
  2  3  1  0
  3  4  1  0
  3  7  1  0
  4  5  1  0
  5  8  1  0
M  RAD  1   3   2
M  END
>  <rmg_smiles>  (4) 
[CH]C[CH]C[CH]

>  <rmg_adjacency_list>  (4) 
multiplicity 2
1 C u1 p0 c0 {2,S} {3,S} {6,S}
2 C u0 p1 c0 {1,S} {4,S}
3 C u0 p1 c0 {1,S} {5,S}
4 C u0 p1 c0 {2,S} {7,S}
5 C u0 p1 c0 {3,S} {8,S}
6 H u0 p0 c0 {1,S}
7 H u0 p0 c0 {4,S}
8 H u0 p0 c0 {5,S}


>  <multiplicity>  (4) 
2

>  <reaction>  (4) 
rxn_1370

>  <type>  (4) 
r1

>  <role_mapnums>  (4) 
{}

>  <role_mapidx>  (4) 
{}

>  <ordered_mapped_smiles>  (4) 
[CH2:1]([CH2:2][C:3]([CH2:4][CH2:5][H:8])[H:7])[H:6]

>  <level_of_theory>  (4) 
wb97xd/def2tzvp

>  <lot_method>  (4) 
wb97xd

>  <lot_basis>  (4) 
def2tzvp

>  <spin_multiplicity>  (4) 
2.0

>  <optical_isomers>  (4) 
1.0

>  <modes>  (4) 
IdealGasTranslation(mass=(63.0235, 'amu')),         NonlinearRotor(             inertia = ([17.4877, 183.017, 200.505

>  <frequency_value>  (4) 
unknown

>  <frequency_units>  (4) 
unknown

>  <frequency_list>  (4) 
unknown

>  <arkane_path>  (4) 
/home/calvin/Dropbox/PersonalFolders/Calvin/HAb_Converged/rxn_1370/output/Species/rxn_1370_CtC[CH]CtC/arkane/output.py

>  <path_exists>  (4) 
True

>  <E0_value>  (4) 
-504350.2602594301

>  <E0_units>  (4) 
kJ/mol

>  <thermo_class>  (4) 
NASA

>  <Cp0_value>  (4) 
33.257888

>  <Cp0_units>  (4) 
J/(mol*K)

>  <CpInf_value>  (4) 
182.918384

>  <CpInf_units>  (4) 
J/(mol*K)

>  <Tmin_value>  (4) 
10.0

>  <Tmin_units>  (4) 
K

>  <Tmax_value>  (4) 
3000.0

>  <Tmax_units>  (4) 
K

>  <polynomials>  (4) 
[{"name": "polynomial1", "class": "NASAPolynomial", "Tmin_value": 10.0, "Tmin_units": "K", "Tmax_value": 511.3919089489883, "Tmax_units": "K", "coeffs": [3.8659954757573973, 0.008525616172306112, 0.00010836986673963408, -2.626119315958765e-07, 1.8230598905311024e-10, -60659320.69120562, 8.776064020238547]}, {"name": "polynomial2", "class": "NASAPolynomial", "Tmin_value": 511.3919089489883, "Tmin_units": "K", "Tmax_value": 3000.0, "Tmax_units": "K", "coeffs": [5.628254952966442, 0.022649494843224656, -1.4916539685924306e-05, 4.8216558906608004e-09, -6.002662773476099e-13, -60659865.858327985, -2.111983316915381]}]

>  <H298_value>  (4) 
-120538.51368508991

>  <H298_units>  (4) 
kcal/mol

>  <S298_value>  (4) 
71.92961318485641

>  <S298_units>  (4) 
cal/(mol*K)

>  <Cp_T_value_list>  (4) 
[20.99111005886384, 24.790978026499133, 27.40139790751197, 29.433868246293493, 32.638046849521324, 34.940256474405714, 38.30245845445545, 40.20133175263048, 41.34770744760823]

>  <Cp_T_units>  (4) 
cal/(mol*K)

>  <T_list>  (4) 
[300.0, 400.0, 500.0, 600.0, 800.0, 1000.0, 1500.0, 2000.0, 2400.0]

>  <T_units>  (4) 
K

>  <yaml_path>  (4) 
/home/calvin/Dropbox/PersonalFolders/Calvin/HAb_Converged/rxn_1370/output/Species/rxn_1370_CtC[CH]CtC/rxn_1370_CtCCHCtC.yml

>  <frequencies_cm1>  (4) 
[140.92427273703998, 354.42571332116, 356.18366156308, 383.39752438624004, 580.9812929985999, 582.4370938864399, 598.9659275516799, 670.81519495484, 678.8701687352, 681.5894949219199, 955.0809192615599, 1115.22588390928, 1366.0425227222797, 2023.89971637828, 2119.4194821794795, 3149.0140591483596, 3426.6737435772397, 3430.6016591802795]

>  <ZPE_kJmol>  (4) 
135.26507637113028

>  <E_elec_kJmol>  (4) 
-504485.5253358012

>  <E0_minus_Eelec_plus_ZPE_kJmol>  (4) 
0.0

>  <rxn>  (4) 
rxn_1370

>  <species_type>  (4) 
p1

>  <species_folder>  (4) 
rxn_1370_CtC[CH]CtC

>  <frequencies_cm1_list>  (4) 
[140.92427273703998, 354.42571332116, 356.18366156308, 383.39752438624004, 580.9812929985999, 582.4370938864399, 598.9659275516799, 670.81519495484, 678.8701687352, 681.5894949219199, 955.0809192615599, 1115.22588390928, 1366.0425227222797, 2023.89971637828, 2119.4194821794795, 3149.0140591483596, 3426.6737435772397, 3430.6016591802795]

>  <E0_kJmol>  (4) 
-504350

>  <H298_kJmol>  (4) 
-504333

$$$$

     RDKit          3D

  6  5  0  0  0  0  0  0  0  0999 V2000
   -0.7309   -0.0987    0.0327 C   0  0  0  0  0  0  0  0  0  1  0  0
    0.6208    0.0065   -0.0096 C   0  0  0  0  0  0  0  0  0  2  0  0
    1.6572   -1.2972    0.2837 S   0  0  0  0  0  1  0  0  0  3  0  0
   -1.3651    0.7588   -0.1608 H   0  0  0  0  0  0  0  0  0  4  0  0
   -1.2044   -1.0453    0.2616 H   0  0  0  0  0  0  0  0  0  5  0  0
    1.0609    0.9725   -0.2426 H   0  0  0  0  0  0  0  0  0  6  0  0
  1  5  1  0
  1  4  1  0
  1  2  1  0
  2  3  1  0
  2  6  1  0
M  RAD  1   3   2
M  END
>  <rmg_smiles>  (5) 
[CH2][CH][S]

>  <rmg_adjacency_list>  (5) 
multiplicity 2
1 S u1 p2 c0 {3,S}
2 C u0 p0 c0 {3,S} {4,S} {5,S}
3 C u0 p0 c0 {1,S} {2,S} {6,S}
4 H u0 p0 c0 {2,S}
5 H u0 p0 c0 {2,S}
6 H u0 p0 c0 {3,S}


>  <multiplicity>  (5) 
2

>  <reaction>  (5) 
rxn_1370

>  <type>  (5) 
r2

>  <role_mapnums>  (5) 
{}

>  <role_mapidx>  (5) 
{}

>  <ordered_mapped_smiles>  (5) 
[CH:1]([CH:2]([S:3])[H:6])([H:4])[H:5]

>  <level_of_theory>  (5) 
wb97xd/def2tzvp

>  <lot_method>  (5) 
wb97xd

>  <lot_basis>  (5) 
def2tzvp

>  <spin_multiplicity>  (5) 
2.0

>  <optical_isomers>  (5) 
1.0

>  <modes>  (5) 
IdealGasTranslation(mass=(58.9956, 'amu')),         NonlinearRotor(             inertia = ([8.83476, 79.9763, 88.811

>  <frequency_value>  (5) 
unknown

>  <frequency_units>  (5) 
unknown

>  <frequency_list>  (5) 
unknown

>  <arkane_path>  (5) 
/home/calvin/Dropbox/PersonalFolders/Calvin/HAb_Converged/rxn_1370/output/Species/rxn_1370_[CH2]C=S/arkane/output.py

>  <path_exists>  (5) 
True

>  <E0_value>  (5) 
-1250043.110807286

>  <E0_units>  (5) 
kJ/mol

>  <thermo_class>  (5) 
NASA

>  <Cp0_value>  (5) 
33.257888

>  <Cp0_units>  (5) 
J/(mol*K)

>  <CpInf_value>  (5) 
133.031552

>  <CpInf_units>  (5) 
J/(mol*K)

>  <Tmin_value>  (5) 
10.0

>  <Tmin_units>  (5) 
K

>  <Tmax_value>  (5) 
3000.0

>  <Tmax_units>  (5) 
K

>  <polynomials>  (5) 
[{"name": "polynomial1", "class": "NASAPolynomial", "Tmin_value": 10.0, "Tmin_units": "K", "Tmax_value": 532.7243167618623, "Tmax_units": "K", "coeffs": [4.067075979396691, -0.006403539850264782, 8.807291251076341e-05, -1.576667854691463e-07, 9.235973025607611e-11, -150345458.46382707, 8.421967934724249]}, {"name": "polynomial2", "class": "NASAPolynomial", "Tmin_value": 532.7243167618623, "Tmin_units": "K", "Tmax_value": 3000.0, "Tmax_units": "K", "coeffs": [2.1262272561499946, 0.018548778063449952, -1.1410896338021972e-05, 3.4033850580240633e-09, -3.915343193556974e-13, -150345398.95630276, 15.180861356183497]}]

>  <H298_value>  (5) 
-298764.61657121626

>  <H298_units>  (5) 
kcal/mol

>  <S298_value>  (5) 
64.35790710333508

>  <S298_units>  (5) 
cal/(mol*K)

>  <Cp_T_value_list>  (5) 
[13.043400995126946, 15.641423321427808, 17.780866282053577, 19.53813430705424, 22.345017795429637, 24.394866961547805, 27.38203567367369, 28.89940637643697, 29.75793587094202]

>  <Cp_T_units>  (5) 
cal/(mol*K)

>  <T_list>  (5) 
[300.0, 400.0, 500.0, 600.0, 800.0, 1000.0, 1500.0, 2000.0, 2400.0]

>  <T_units>  (5) 
K

>  <yaml_path>  (5) 
/home/calvin/Dropbox/PersonalFolders/Calvin/HAb_Converged/rxn_1370/output/Species/rxn_1370_[CH2]C=S/rxn_1370_CH2C=S.yml

>  <frequencies_cm1>  (5) 
[401.01820871736, 475.21598509996, 781.12644713532, 939.1495133191601, 974.6449604382399, 1045.93800203048, 1282.84212858516, 1350.7016775174, 1511.6912813594797, 3110.64821216552, 3122.0680087526794, 3219.55859934072]

>  <ZPE_kJmol>  (5) 
108.94755150830215

>  <E_elec_kJmol>  (5) 
-1250152.0583587943

>  <E0_minus_Eelec_plus_ZPE_kJmol>  (5) 
0.0

>  <rxn>  (5) 
rxn_1370

>  <species_type>  (5) 
r1

>  <species_folder>  (5) 
rxn_1370_[CH2]C=S

>  <frequencies_cm1_list>  (5) 
[401.01820871736, 475.21598509996, 781.12644713532, 939.1495133191601, 974.6449604382399, 1045.93800203048, 1282.84212858516, 1350.7016775174, 1511.6912813594797, 3110.64821216552, 3122.0680087526794, 3219.55859934072]

>  <E0_kJmol>  (5) 
-1.25004e+06

>  <H298_kJmol>  (5) 
-1.25003e+06

$$$$
