
     RDKit          3D

 25 26  0  0  0  0  0  0  0  0999 V2000
    0.1578    0.3738   -0.6929 C   0  0  0  0  0  0  0  0  0  1  0  0
    0.1880   -0.0466    0.7758 C   0  0  0  0  0  0  0  0  0  2  0  0
    1.4883    1.0714   -0.8686 C   0  0  0  0  0  0  0  0  0  3  0  0
   -0.1762   -0.8017   -1.6171 C   0  0  0  0  0  0  0  0  0  4  0  0
    0.8188    1.1556    1.4830 C   0  0  0  0  0  0  0  0  0  5  0  0
   -1.1889   -0.5023    1.2601 C   0  0  0  0  0  0  0  0  0  6  0  0
    1.7830    1.7858    0.4470 C   0  0  0  0  0  0  0  0  0  7  0  0
   -1.0715   -1.8312   -0.9020 C   0  0  0  0  0  0  0  0  0  8  0  0
   -1.9899   -1.1656    0.1216 C   0  0  0  0  0  0  0  0  0  9  0  0
   -0.6315    1.1348   -0.7941 H   0  0  0  0  0  0  0  0  0 10  0  0
    0.8816   -0.8930    0.8441 H   0  0  0  0  0  0  0  0  0 11  0  0
    1.6124    1.6664   -1.7733 H   0  0  0  0  0  0  0  0  0 12  0  0
    2.2468    0.2979   -0.9865 H   0  0  0  0  0  0  0  0  0 13  0  0
    2.8310    1.6667    0.7323 H   0  0  0  0  0  0  0  0  0 14  0  0
    1.6124    2.8609    0.3586 H   0  0  0  0  0  0  0  0  0 15  0  0
   -0.6772   -0.4322   -2.5153 H   0  0  0  0  0  0  0  0  0 16  0  0
    0.7440   -1.2873   -1.9483 H   0  0  0  0  0  0  0  0  0 17  0  0
    1.3211    0.8815    2.4125 H   0  0  0  0  0  0  0  0  0 18  0  0
    0.0352    1.8705    1.7472 H   0  0  0  0  0  0  0  0  0 19  0  0
   -1.0757   -1.1988    2.0945 H   0  0  0  0  0  0  0  0  0 20  0  0
   -1.7472    0.3554    1.6465 H   0  0  0  0  0  0  0  0  0 21  0  0
   -0.4457   -2.5677   -0.3893 H   0  0  0  0  0  0  0  0  0 22  0  0
   -1.6595   -2.3871   -1.6345 H   0  0  0  0  0  0  0  0  0 23  0  0
   -2.6931   -1.8927    0.5319 H   0  0  0  0  0  0  0  0  0 24  0  0
   -2.5947   -0.4107   -0.3901 H   0  0  0  0  0  0  0  0  0 25  0  0
  1  3  1  0
  1  4  1  0
  1 10  1  0
  1  2  1  0
  2 11  1  0
  2  6  1  0
  2  5  1  0
  3 13  1  0
  3 12  1  0
  3  7  1  0
  4 17  1  0
  4  8  1  0
  4 16  1  0
  5 18  1  0
  5  7  1  0
  5 19  1  0
  6  9  1  0
  6 20  1  0
  6 21  1  0
  7 15  1  0
  7 14  1  0
  8 23  1  0
  8  9  1  0
  8 22  1  0
  9 24  1  0
  9 25  1  0
M  END
>  <rmg_smiles>  (1) 
C1CCC2CCCC2C1

>  <rmg_adjacency_list>  (1) 
1  C u0 p0 c0 {2,S} {3,S} {4,S} {10,S}
2  C u0 p0 c0 {1,S} {5,S} {6,S} {11,S}
3  C u0 p0 c0 {1,S} {7,S} {12,S} {13,S}
4  C u0 p0 c0 {1,S} {8,S} {16,S} {17,S}
5  C u0 p0 c0 {2,S} {7,S} {18,S} {19,S}
6  C u0 p0 c0 {2,S} {9,S} {20,S} {21,S}
7  C u0 p0 c0 {3,S} {5,S} {14,S} {15,S}
8  C u0 p0 c0 {4,S} {9,S} {22,S} {23,S}
9  C u0 p0 c0 {6,S} {8,S} {24,S} {25,S}
10 H u0 p0 c0 {1,S}
11 H u0 p0 c0 {2,S}
12 H u0 p0 c0 {3,S}
13 H u0 p0 c0 {3,S}
14 H u0 p0 c0 {7,S}
15 H u0 p0 c0 {7,S}
16 H u0 p0 c0 {4,S}
17 H u0 p0 c0 {4,S}
18 H u0 p0 c0 {5,S}
19 H u0 p0 c0 {5,S}
20 H u0 p0 c0 {6,S}
21 H u0 p0 c0 {6,S}
22 H u0 p0 c0 {8,S}
23 H u0 p0 c0 {8,S}
24 H u0 p0 c0 {9,S}
25 H u0 p0 c0 {9,S}


>  <multiplicity>  (1) 
1

>  <reaction>  (1) 
rxn_596

>  <type>  (1) 
r1h

>  <role_mapnums>  (1) 
{"r1h_a": 3, "r1h_h": 13}

>  <role_mapidx>  (1) 
{"r1h_a": 2, "r1h_h": 12}

>  <ordered_mapped_smiles>  (1) 
[C:1]12([H:10])[C:2]([H:11])([C:5]([H:18])([H:19])[C:7]([H:14])([H:15])[C:3]1([H:12])[H:13])[C:6]([H:20])([H:21])[C:9]([H:24])([H:25])[C:8]([H:22])([H:23])[C:4]2([H:16])[H:17]

>  <mol_properties>  (1) 
{"2": {"label": "donator", "atom_type": "Cs"}, "12": {"label": "d_hydrogen", "atom_type": "H0"}}

>  <level_of_theory>  (1) 
wb97xd/def2tzvp

>  <lot_method>  (1) 
wb97xd

>  <lot_basis>  (1) 
def2tzvp

>  <spin_multiplicity>  (1) 
1.0

>  <optical_isomers>  (1) 
2.0

>  <modes>  (1) 
IdealGasTranslation(mass=(124.125, 'amu')),         NonlinearRotor(             inertia = ([170.024, 375.242, 505.424

>  <frequency_value>  (1) 
unknown

>  <frequency_units>  (1) 
unknown

>  <frequency_list>  (1) 
unknown

>  <arkane_path>  (1) 
/home/calvin/Dropbox/PersonalFolders/Calvin/HAb_Converged/rxn_596/output/Species/rxn_596_C1CCC2CCCC2C1/arkane/output.py

>  <path_exists>  (1) 
True

>  <E0_value>  (1) 
-925233.0049241188

>  <E0_units>  (1) 
kJ/mol

>  <thermo_class>  (1) 
NASA

>  <Cp0_value>  (1) 
33.257888

>  <Cp0_units>  (1) 
J/(mol*K)

>  <CpInf_value>  (1) 
606.956456

>  <CpInf_units>  (1) 
J/(mol*K)

>  <Tmin_value>  (1) 
10.0

>  <Tmin_units>  (1) 
K

>  <Tmax_value>  (1) 
3000.0

>  <Tmax_units>  (1) 
K

>  <polynomials>  (1) 
[{"name": "polynomial1", "class": "NASAPolynomial", "Tmin_value": 10.0, "Tmin_units": "K", "Tmax_value": 492.86414085374884, "Tmax_units": "K", "coeffs": [4.007994789865864, -0.0014434969438387518, 0.0002774235318770471, -4.47143959124011e-07, 2.345687014006794e-10, -111279824.80461533, 12.742603075803766]}, {"name": "polynomial2", "class": "NASAPolynomial", "Tmin_value": 492.86414085374884, "Tmin_units": "K", "Tmax_value": 3000.0, "Tmax_units": "K", "coeffs": [-9.95853370242537, 0.11191389639895702, -6.759505783925652e-05, 1.9571966588871765e-08, -2.183492026273649e-12, -111278448.17509678, 70.24048730977755]}]

>  <H298_value>  (1) 
-221130.41480672767

>  <H298_units>  (1) 
kcal/mol

>  <S298_value>  (1) 
87.40258332007863

>  <S298_units>  (1) 
cal/(mol*K)

>  <Cp_T_value_list>  (1) 
[36.50534740058796, 50.089738669944325, 62.417515537946755, 73.12949241055418, 90.29515590280347, 102.83551087971135, 120.87161605712708, 129.42454969138163, 133.951878152645]

>  <Cp_T_units>  (1) 
cal/(mol*K)

>  <T_list>  (1) 
[300.0, 400.0, 500.0, 600.0, 800.0, 1000.0, 1500.0, 2000.0, 2400.0]

>  <T_units>  (1) 
K

>  <yaml_path>  (1) 
/home/calvin/Dropbox/PersonalFolders/Calvin/HAb_Converged/rxn_596/output/Species/rxn_596_C1CCC2CCCC2C1/rxn_596_C1CCC2CCCC2C1.yml

>  <frequencies_cm1>  (1) 
[79.74630052116, 161.44969185852, 192.46099756363998, 319.95344701476, 325.08995203411996, 337.32691987436, 425.16252910247994, 470.50523317043996, 497.06673238819997, 579.3538174777599, 623.59780389452, 769.3495673115199, 782.1839628746, 837.42199278868, 848.74565158136, 873.0204446875598, 907.5545138618398, 921.7142375916799, 922.5451428153999, 945.43967187228, 987.1978096031999, 1015.3867843418, 1044.03584709684, 1066.28487953364, 1072.4857672776, 1096.98030391404, 1116.2696656779199, 1122.75209982, 1142.3985448205199, 1202.0657802659998, 1207.82031396416, 1217.5508321625998, 1256.61711164808, 1262.63945777372, 1284.5314069738797, 1286.2687542598399, 1313.97704002604, 1316.9847795961998, 1320.6311488011202, 1339.9411115209598, 1339.9754464475598, 1365.2322184545199, 1368.74811493836, 1376.8580246012798, 1398.55083122716, 1401.5036349147601, 1472.50826312356, 1476.82072990452, 1478.06365424744, 1478.81215564732, 1486.92206531024, 1491.0628574582, 1506.3831017071197, 2950.4551786205598, 2962.34193020948, 2991.31374127456, 2991.7532283350397, 2996.8759993837602, 3001.07172741428, 3015.06664349644, 3015.65720423396, 3043.90798184044, 3044.3474689009204, 3044.821290888, 3053.3088847435192, 3057.07199269888, 3062.7784574998, 3072.117557535, 3090.8781614292393]

>  <ZPE_kJmol>  (1) 
613.2521071062491

>  <E_elec_kJmol>  (1) 
-925846.257031225

>  <E0_minus_Eelec_plus_ZPE_kJmol>  (1) 
0.0

>  <rxn>  (1) 
rxn_596

>  <species_type>  (1) 
r1

>  <species_folder>  (1) 
rxn_596_C1CCC2CCCC2C1

>  <frequencies_cm1_list>  (1) 
[79.74630052116, 161.44969185852, 192.46099756363998, 319.95344701476, 325.08995203411996, 337.32691987436, 425.16252910247994, 470.50523317043996, 497.06673238819997, 579.3538174777599, 623.59780389452, 769.3495673115199, 782.1839628746, 837.42199278868, 848.74565158136, 873.0204446875598, 907.5545138618398, 921.7142375916799, 922.5451428153999, 945.43967187228, 987.1978096031999, 1015.3867843418, 1044.03584709684, 1066.28487953364, 1072.4857672776, 1096.98030391404, 1116.2696656779199, 1122.75209982, 1142.3985448205199, 1202.0657802659998, 1207.82031396416, 1217.5508321625998, 1256.61711164808, 1262.63945777372, 1284.5314069738797, 1286.2687542598399, 1313.97704002604, 1316.9847795961998, 1320.6311488011202, 1339.9411115209598, 1339.9754464475598, 1365.2322184545199, 1368.74811493836, 1376.8580246012798, 1398.55083122716, 1401.5036349147601, 1472.50826312356, 1476.82072990452, 1478.06365424744, 1478.81215564732, 1486.92206531024, 1491.0628574582, 1506.3831017071197, 2950.4551786205598, 2962.34193020948, 2991.31374127456, 2991.7532283350397, 2996.8759993837602, 3001.07172741428, 3015.06664349644, 3015.65720423396, 3043.90798184044, 3044.3474689009204, 3044.821290888, 3053.3088847435192, 3057.07199269888, 3062.7784574998, 3072.117557535, 3090.8781614292393]

>  <E0_kJmol>  (1) 
-925233

>  <H298_kJmol>  (1) 
-925210

$$$$

     RDKit          3D

 10  9  0  0  0  0  0  0  0  0999 V2000
    0.3210   -0.3848    0.5449 C   0  0  0  0  0  0  0  0  0  1  0  0
    0.0827   -0.1910    1.8385 C   0  0  0  0  0  0  0  0  0  2  0  0
   -0.0699    0.2266   -1.8383 C   0  0  0  0  0  0  0  0  0  3  0  0
   -0.3133    0.3259   -0.5444 C   0  0  0  0  0  0  0  0  0  4  0  0
   -1.0987    1.0456   -0.3137 H   0  0  0  0  0  0  0  0  0  5  0  0
    1.0540   -1.1371    0.2511 H   0  0  0  0  0  0  0  0  0  6  0  0
   -0.6335    0.5453    2.1803 H   0  0  0  0  0  0  0  0  0  7  0  0
    0.6028   -0.7637    2.5950 H   0  0  0  0  0  0  0  0  0  8  0  0
    0.6935   -0.4454   -2.2268 H   0  0  0  0  0  0  0  0  0  9  0  0
   -0.6212    0.8121   -2.5659 H   0  0  0  0  0  0  0  0  0 10  0  0
  1  4  1  0
  1  6  1  0
  1  2  1  0
  2  7  1  0
  2  8  1  0
  3  4  1  0
  3  9  1  0
  3 10  1  0
  4  5  1  0
M  END
>  <rmg_smiles>  (2) 
[CH2][CH][CH][CH2]

>  <rmg_adjacency_list>  (2) 
1  C u0 p0 c0 {2,S} {3,S} {6,S}
2  C u0 p0 c0 {1,S} {4,S} {5,S}
3  C u0 p0 c0 {1,S} {7,S} {8,S}
4  C u0 p0 c0 {2,S} {9,S} {10,S}
5  H u0 p0 c0 {2,S}
6  H u0 p0 c0 {1,S}
7  H u0 p0 c0 {3,S}
8  H u0 p0 c0 {3,S}
9  H u0 p0 c0 {4,S}
10 H u0 p0 c0 {4,S}


>  <multiplicity>  (2) 
1

>  <reaction>  (2) 
rxn_596

>  <type>  (2) 
r2h

>  <role_mapnums>  (2) 
{"r2h_a": 4, "r2h_h": 5}

>  <role_mapidx>  (2) 
{"r2h_a": 3, "r2h_h": 4}

>  <ordered_mapped_smiles>  (2) 
[CH:1]([CH:2]([H:7])[H:8])([CH:4]([CH:3]([H:9])[H:10])[H:5])[H:6]

>  <mol_properties>  (2) 
{"3": {"label": "acceptor", "atom_type": "Cs"}, "4": {"label": "a_hydrogen", "atom_type": "H0"}}

>  <level_of_theory>  (2) 
wb97xd/def2tzvp

>  <lot_method>  (2) 
wb97xd

>  <lot_basis>  (2) 
def2tzvp

>  <spin_multiplicity>  (2) 
1.0

>  <optical_isomers>  (2) 
1.0

>  <modes>  (2) 
IdealGasTranslation(mass=(54.047, 'amu')),         NonlinearRotor(             inertia = ([11.9182, 113.061, 124.979

>  <frequency_value>  (2) 
unknown

>  <frequency_units>  (2) 
unknown

>  <frequency_list>  (2) 
unknown

>  <arkane_path>  (2) 
/home/calvin/Dropbox/PersonalFolders/Calvin/HAb_Converged/rxn_596/output/Species/rxn_596_C=CC=C/arkane/output.py

>  <path_exists>  (2) 
True

>  <E0_value>  (2) 
-409338.1696024378

>  <E0_units>  (2) 
kJ/mol

>  <thermo_class>  (2) 
NASA

>  <Cp0_value>  (2) 
33.257888

>  <Cp0_units>  (2) 
J/(mol*K)

>  <CpInf_value>  (2) 
232.805216

>  <CpInf_units>  (2) 
J/(mol*K)

>  <Tmin_value>  (2) 
10.0

>  <Tmin_units>  (2) 
K

>  <Tmax_value>  (2) 
3000.0

>  <Tmax_units>  (2) 
K

>  <polynomials>  (2) 
[{"name": "polynomial1", "class": "NASAPolynomial", "Tmin_value": 10.0, "Tmin_units": "K", "Tmax_value": 477.25150837589547, "Tmax_units": "K", "coeffs": [3.9644918263777202, 0.0020596769963902215, 8.674853780374631e-05, -1.450839919461119e-07, 7.838009270341474e-11, -49232008.066253, 7.365433669817705]}, {"name": "polynomial2", "class": "NASAPolynomial", "Tmin_value": 477.25150837589547, "Tmin_units": "K", "Tmax_value": 3000.0, "Tmax_units": "K", "coeffs": [-0.2016346126607574, 0.03684948174336166, -2.2193862153022103e-05, 6.534948821102615e-09, -7.488372760157006e-13, -49231608.95215794, 24.398107945208505]}]

>  <H298_value>  (2) 
-97830.61157155824

>  <H298_units>  (2) 
kcal/mol

>  <S298_value>  (2) 
66.15772377359508

>  <S298_units>  (2) 
cal/(mol*K)

>  <Cp_T_value_list>  (2) 
[18.098233407620363, 22.632858336014493, 26.717409141232952, 30.270647037570512, 35.994368828752485, 40.221251390017414, 46.50234453691136, 49.720054530985024, 51.45868146938158]

>  <Cp_T_units>  (2) 
cal/(mol*K)

>  <T_list>  (2) 
[300.0, 400.0, 500.0, 600.0, 800.0, 1000.0, 1500.0, 2000.0, 2400.0]

>  <T_units>  (2) 
K

>  <yaml_path>  (2) 
/home/calvin/Dropbox/PersonalFolders/Calvin/HAb_Converged/rxn_596/output/Species/rxn_596_C=CC=C/rxn_596_C=CC=C.yml

>  <frequencies_cm1>  (2) 
[162.86429083444, 299.37995899604, 518.85567680856, 535.67292385724, 782.5273121405999, 895.6128263903599, 951.29034336492, 952.5882035904, 1000.9317802431998, 1006.4047675432399, 1052.23502756892, 1221.82209703164, 1311.4568564135998, 1314.3066553213998, 1409.56547568044, 1464.2884816955202, 1663.07397273888, 1726.1678338590398, 3116.4851496875194, 3119.6920318319594, 3127.2663166399198, 3132.3341518060793, 3211.3044829860796, 3211.503625560359]

>  <ZPE_kJmol>  (2) 
222.43148839891296

>  <E_elec_kJmol>  (2) 
-409560.6010908368

>  <E0_minus_Eelec_plus_ZPE_kJmol>  (2) 
0.0

>  <rxn>  (2) 
rxn_596

>  <species_type>  (2) 
p0

>  <species_folder>  (2) 
rxn_596_C=CC=C

>  <frequencies_cm1_list>  (2) 
[162.86429083444, 299.37995899604, 518.85567680856, 535.67292385724, 782.5273121405999, 895.6128263903599, 951.29034336492, 952.5882035904, 1000.9317802431998, 1006.4047675432399, 1052.23502756892, 1221.82209703164, 1311.4568564135998, 1314.3066553213998, 1409.56547568044, 1464.2884816955202, 1663.07397273888, 1726.1678338590398, 3116.4851496875194, 3119.6920318319594, 3127.2663166399198, 3132.3341518060793, 3211.3044829860796, 3211.503625560359]

>  <E0_kJmol>  (2) 
-409338

>  <H298_kJmol>  (2) 
-409323

$$$$

     RDKit          3D

 34 34  0  0  0  0  0  0  0  0999 V2000
   -0.8554    0.7072   -0.4955 C   0  0  0  0  0  0  0  0  0  1  0  0
   -0.8251    0.2867    0.9733 C   0  0  0  0  0  0  0  0  0  2  0  0
    0.4752    1.4048   -0.6712 C   0  0  0  0  0  0  0  0  0  3  0  0
   -1.1894   -0.4684   -1.4196 C   0  0  0  0  0  0  0  0  0  4  0  0
   -0.1943    1.4890    1.6805 C   0  0  0  0  0  0  0  0  0  5  0  0
   -2.2021   -0.1689    1.4576 C   0  0  0  0  0  0  0  0  0  6  0  0
    0.7699    2.1192    0.6445 C   0  0  0  0  0  0  0  0  0  7  0  0
   -2.0846   -1.4978   -0.7045 C   0  0  0  0  0  0  0  0  0  8  0  0
   -3.0031   -0.8322    0.3191 C   0  0  0  0  0  0  0  0  0  9  0  0
    3.0227   -1.1510   -0.0211 C   0  0  0  0  0  0  0  0  0 10  0  0
    2.7844   -0.9571    1.2724 C   0  0  0  0  0  0  0  0  0 11  0  0
    2.6319   -0.5396   -2.4043 C   0  0  0  0  0  0  0  0  0 12  0  0
    2.3884   -0.4403   -1.1104 C   0  0  0  0  0  3  0  0  0 13  0  0
   -1.6447    1.4682   -0.5966 H   0  0  0  0  0  0  0  0  0 14  0  0
   -0.1315   -0.5597    1.0416 H   0  0  0  0  0  0  0  0  0 15  0  0
    0.5992    1.9998   -1.5758 H   0  0  0  0  0  0  0  0  0 16  0  0
    1.3620    0.5003   -0.8090 H   0  0  0  0  0  0  0  0  0 17  0  0
    1.8178    2.0001    0.9298 H   0  0  0  0  0  0  0  0  0 18  0  0
    0.5992    3.1943    0.5561 H   0  0  0  0  0  0  0  0  0 19  0  0
   -1.6903   -0.0988   -2.3179 H   0  0  0  0  0  0  0  0  0 20  0  0
   -0.2692   -0.9540   -1.7508 H   0  0  0  0  0  0  0  0  0 21  0  0
    0.3079    1.2149    2.6100 H   0  0  0  0  0  0  0  0  0 22  0  0
   -0.9780    2.2039    1.9446 H   0  0  0  0  0  0  0  0  0 23  0  0
   -2.0888   -0.8654    2.2919 H   0  0  0  0  0  0  0  0  0 24  0  0
   -2.7604    0.6888    1.8439 H   0  0  0  0  0  0  0  0  0 25  0  0
   -1.4589   -2.2343   -0.1918 H   0  0  0  0  0  0  0  0  0 26  0  0
   -2.6727   -2.0537   -1.4371 H   0  0  0  0  0  0  0  0  0 27  0  0
   -3.7062   -1.5593    0.7294 H   0  0  0  0  0  0  0  0  0 28  0  0
   -3.6079   -0.0773   -0.1926 H   0  0  0  0  0  0  0  0  0 29  0  0
    3.7557   -1.9033   -0.3150 H   0  0  0  0  0  0  0  0  0 30  0  0
    2.0683   -0.2208    1.6143 H   0  0  0  0  0  0  0  0  0 31  0  0
    3.3046   -1.5299    2.0289 H   0  0  0  0  0  0  0  0  0 32  0  0
    3.3953   -1.2115   -2.7929 H   0  0  0  0  0  0  0  0  0 33  0  0
    2.0806    0.0459   -3.1319 H   0  0  0  0  0  0  0  0  0 34  0  0
  1  3  1  0
  1  4  1  0
  1 14  1  0
  1  2  1  0
  2 15  1  0
  2  6  1  0
  2  5  1  0
  3 17  1  0
  3 16  1  0
  3  7  1  0
  4 21  1  0
  4 20  1  0
  4  8  1  0
  5 23  1  0
  5  7  1  0
  5 22  1  0
  6 24  1  0
  6 25  1  0
  6  9  1  0
  7 18  1  0
  7 19  1  0
  8 26  1  0
  8  9  1  0
  8 27  1  0
  9 29  1  0
  9 28  1  0
 10 13  1  0
 10 11  1  0
 10 30  1  0
 11 32  1  0
 11 31  1  0
 12 34  1  0
 12 33  1  0
 12 13  1  0
M  RAD  1  13   2
M  END
>  <rmg_smiles>  (3) 
C1CCC2CCCC2C1.[CH2][C][CH][CH2]

>  <rmg_adjacency_list>  (3) 
multiplicity 2
1  C u0 p0 c0 {2,S} {3,S} {4,S} {14,S}
2  C u0 p0 c0 {1,S} {5,S} {6,S} {15,S}
3  C u0 p0 c0 {1,S} {7,S} {16,S} {17,S}
4  C u0 p0 c0 {1,S} {8,S} {20,S} {21,S}
5  C u0 p0 c0 {2,S} {7,S} {22,S} {23,S}
6  C u0 p0 c0 {2,S} {9,S} {24,S} {25,S}
7  C u0 p0 c0 {3,S} {5,S} {18,S} {19,S}
8  C u0 p0 c0 {4,S} {9,S} {26,S} {27,S}
9  C u0 p0 c0 {6,S} {8,S} {28,S} {29,S}
10 C u0 p0 c0 {11,S} {13,S} {30,S}
11 C u0 p0 c0 {10,S} {31,S} {32,S}
12 C u0 p0 c0 {13,S} {33,S} {34,S}
13 C u1 p1 c0 {10,S} {12,S}
14 H u0 p0 c0 {1,S}
15 H u0 p0 c0 {2,S}
16 H u0 p0 c0 {3,S}
17 H u0 p0 c0 {3,S}
18 H u0 p0 c0 {7,S}
19 H u0 p0 c0 {7,S}
20 H u0 p0 c0 {4,S}
21 H u0 p0 c0 {4,S}
22 H u0 p0 c0 {5,S}
23 H u0 p0 c0 {5,S}
24 H u0 p0 c0 {6,S}
25 H u0 p0 c0 {6,S}
26 H u0 p0 c0 {8,S}
27 H u0 p0 c0 {8,S}
28 H u0 p0 c0 {9,S}
29 H u0 p0 c0 {9,S}
30 H u0 p0 c0 {10,S}
31 H u0 p0 c0 {11,S}
32 H u0 p0 c0 {11,S}
33 H u0 p0 c0 {12,S}
34 H u0 p0 c0 {12,S}


>  <multiplicity>  (3) 
2

>  <reaction>  (3) 
rxn_596

>  <type>  (3) 
ts

>  <role_mapnums>  (3) 
{"*2": 17, "*1": 3, "*3": 13, "*0": 1, "*4": 10}

>  <role_mapidx>  (3) 
{"*2": 16, "*1": 2, "*3": 12, "*0": 0, "*4": 9}

>  <ordered_mapped_smiles>  (3) 
[C:1]12([H:14])[C:2]([H:15])([C:5]([H:22])([H:23])[C:7]([H:18])([H:19])[C:3]1([H:16])[H:17])[C:6]([H:24])([H:25])[C:9]([H:28])([H:29])[C:8]([H:26])([H:27])[C:4]2([H:20])[H:21].[CH:10]([CH:11]([H:31])[H:32])([CH:13][CH:12]([H:33])[H:34])[H:30]

>  <mol_properties>  (3) 
{"0": {"label": "*0", "atom_type": "Cs"}, "2": {"label": "*1", "atom_type": "Cs"}, "9": {"label": "*4", "atom_type": "Cs"}, "12": {"label": "*3", "atom_type": "C2s"}, "16": {"label": "*2", "atom_type": "H0"}}

>  <level_of_theory>  (3) 
wb97xd/def2tzvp

>  <lot_method>  (3) 
wb97xd

>  <lot_basis>  (3) 
def2tzvp

>  <spin_multiplicity>  (3) 
2.0

>  <optical_isomers>  (3) 
2.0

>  <modes>  (3) 
IdealGasTranslation(mass=(177.164, 'amu')),         NonlinearRotor(             inertia = ([490.445, 922.814, 1051.69

>  <frequency_value>  (3) 
-1528.04

>  <frequency_units>  (3) 
cm^-1

>  <frequency_list>  (3) 
unknown

>  <arkane_path>  (3) 
/home/calvin/Dropbox/PersonalFolders/Calvin/HAb_Converged/rxn_596/output/rxns/TS0/arkane/output.py

>  <path_exists>  (3) 
True

>  <E0_value>  (3) 
-1332760.0

>  <E0_units>  (3) 
kJ/mol

>  <thermo_class>  (3) 
unknown

>  <Cp0_value>  (3) 
unknown

>  <Cp0_units>  (3) 
unknown

>  <CpInf_value>  (3) 
unknown

>  <CpInf_units>  (3) 
unknown

>  <Tmin_value>  (3) 
unknown

>  <Tmin_units>  (3) 
unknown

>  <Tmax_value>  (3) 
unknown

>  <Tmax_units>  (3) 
unknown

>  <polynomials>  (3) 
unknown

>  <H298_value>  (3) 
unknown

>  <H298_units>  (3) 
unknown

>  <S298_value>  (3) 
unknown

>  <S298_units>  (3) 
unknown

>  <Cp_T_value_list>  (3) 
unknown

>  <Cp_T_units>  (3) 
unknown

>  <T_list>  (3) 
unknown

>  <T_units>  (3) 
unknown

>  <yaml_path>  (3) 
unknown

>  <frequencies_cm1>  (3) 
unknown

>  <ZPE_kJmol>  (3) 
unknown

>  <E_elec_kJmol>  (3) 
unknown

>  <E0_minus_Eelec_plus_ZPE_kJmol>  (3) 
unknown

>  <rxn>  (3) 
unknown

>  <species_type>  (3) 
unknown

>  <species_folder>  (3) 
unknown

>  <frequencies_cm1_list>  (3) 
[]

>  <ts_imag_freq_cm1>  (3) 
-1546.6005

>  <ts_freq_out_path>  (3) 
/home/calvin/Dropbox/PersonalFolders/Calvin/HAb_Converged/rxn_596/output/rxns/TS0/geometry/freq.out

>  <E0_kJmol>  (3) 
-1.33276e+06

>  <H298_kJmol>  (3) 
unknown

$$$$

     RDKit          3D

 24 25  0  0  0  0  0  0  0  0999 V2000
   -1.3137    1.2076    0.0526 C   0  0  0  0  0  3  0  0  0  1  0  0
   -2.3065    0.1196    0.2833 C   0  0  0  0  0  0  0  0  0  2  0  0
   -1.7836   -1.0394   -0.5898 C   0  0  0  0  0  0  0  0  0  3  0  0
   -0.2749   -0.7855   -0.6984 C   0  0  0  0  0  0  0  0  0  4  0  0
    0.4655   -1.2917    0.5434 C   0  0  0  0  0  0  0  0  0  5  0  0
    1.8694   -0.7131    0.6745 C   0  0  0  0  0  0  0  0  0  6  0  0
    1.8184    0.8105    0.7119 C   0  0  0  0  0  0  0  0  0  7  0  0
    1.1779    1.3572   -0.5588 C   0  0  0  0  0  0  0  0  0  8  0  0
   -0.2011    0.7528   -0.8316 C   0  0  0  0  0  0  0  0  0  9  0  0
   -1.4277    2.2231    0.4082 H   0  0  0  0  0  0  0  0  0 10  0  0
   -2.3438   -0.1691    1.3425 H   0  0  0  0  0  0  0  0  0 11  0  0
   -3.3295    0.4088    0.0212 H   0  0  0  0  0  0  0  0  0 12  0  0
   -2.2393   -0.9859   -1.5815 H   0  0  0  0  0  0  0  0  0 13  0  0
   -2.0144   -2.0220   -0.1744 H   0  0  0  0  0  0  0  0  0 14  0  0
    0.1520   -1.2674   -1.5825 H   0  0  0  0  0  0  0  0  0 15  0  0
   -0.1033   -1.0202    1.4396 H   0  0  0  0  0  0  0  0  0 16  0  0
    0.4983   -2.3841    0.5177 H   0  0  0  0  0  0  0  0  0 17  0  0
    2.4827   -1.0338   -0.1757 H   0  0  0  0  0  0  0  0  0 18  0  0
    2.3514   -1.1019    1.5744 H   0  0  0  0  0  0  0  0  0 19  0  0
    1.2359    1.1286    1.5834 H   0  0  0  0  0  0  0  0  0 20  0  0
    2.8216    1.2258    0.8314 H   0  0  0  0  0  0  0  0  0 21  0  0
    1.0952    2.4462   -0.5109 H   0  0  0  0  0  0  0  0  0 22  0  0
    1.8331    1.1314   -1.4069 H   0  0  0  0  0  0  0  0  0 23  0  0
   -0.4636    1.0027   -1.8738 H   0  0  0  0  0  0  0  0  0 24  0  0
  1 10  1  0
  1  9  1  0
  1  2  1  0
  2 12  1  0
  2 11  1  0
  2  3  1  0
  3  4  1  0
  3 13  1  0
  3 14  1  0
  4  9  1  0
  4  5  1  0
  4 15  1  0
  5 16  1  0
  5 17  1  0
  5  6  1  0
  6  7  1  0
  6 19  1  0
  6 18  1  0
  7 20  1  0
  7 21  1  0
  7  8  1  0
  8 23  1  0
  8  9  1  0
  8 22  1  0
  9 24  1  0
M  RAD  1   1   2
M  END
>  <rmg_smiles>  (4) 
[CH]1CCC2CCCCC12

>  <rmg_adjacency_list>  (4) 
multiplicity 2
1  C u0 p0 c0 {2,S} {3,S} {4,S} {10,S}
2  C u0 p0 c0 {1,S} {5,S} {9,S} {11,S}
3  C u0 p0 c0 {1,S} {6,S} {14,S} {15,S}
4  C u0 p0 c0 {1,S} {8,S} {12,S} {13,S}
5  C u0 p0 c0 {2,S} {7,S} {20,S} {21,S}
6  C u0 p0 c0 {3,S} {7,S} {16,S} {17,S}
7  C u0 p0 c0 {5,S} {6,S} {18,S} {19,S}
8  C u0 p0 c0 {4,S} {9,S} {22,S} {23,S}
9  C u1 p0 c0 {2,S} {8,S} {24,S}
10 H u0 p0 c0 {1,S}
11 H u0 p0 c0 {2,S}
12 H u0 p0 c0 {4,S}
13 H u0 p0 c0 {4,S}
14 H u0 p0 c0 {3,S}
15 H u0 p0 c0 {3,S}
16 H u0 p0 c0 {6,S}
17 H u0 p0 c0 {6,S}
18 H u0 p0 c0 {7,S}
19 H u0 p0 c0 {7,S}
20 H u0 p0 c0 {5,S}
21 H u0 p0 c0 {5,S}
22 H u0 p0 c0 {8,S}
23 H u0 p0 c0 {8,S}
24 H u0 p0 c0 {9,S}


>  <multiplicity>  (4) 
2

>  <reaction>  (4) 
rxn_596

>  <type>  (4) 
r1

>  <role_mapnums>  (4) 
{}

>  <role_mapidx>  (4) 
{}

>  <ordered_mapped_smiles>  (4) 
[C:1]1([H:10])[C:2]([H:11])([H:12])[C:3]([H:13])([H:14])[C:4]2([H:15])[C:5]([H:16])([H:17])[C:6]([H:18])([H:19])[C:7]([H:20])([H:21])[C:8]([H:22])([H:23])[C:9]12[H:24]

>  <level_of_theory>  (4) 
wb97xd/def2tzvp

>  <lot_method>  (4) 
wb97xd

>  <lot_basis>  (4) 
def2tzvp

>  <spin_multiplicity>  (4) 
2.0

>  <optical_isomers>  (4) 
2.0

>  <modes>  (4) 
IdealGasTranslation(mass=(123.117, 'amu')),         NonlinearRotor(             inertia = ([183.116, 337.78, 420.862

>  <frequency_value>  (4) 
unknown

>  <frequency_units>  (4) 
unknown

>  <frequency_list>  (4) 
unknown

>  <arkane_path>  (4) 
/home/calvin/Dropbox/PersonalFolders/Calvin/HAb_Converged/rxn_596/output/Species/rxn_596_[CH]1CCC2CCCCC12/arkane/output.py

>  <path_exists>  (4) 
True

>  <E0_value>  (4) 
-923521.4034742753

>  <E0_units>  (4) 
kJ/mol

>  <thermo_class>  (4) 
NASA

>  <Cp0_value>  (4) 
33.257888

>  <Cp0_units>  (4) 
J/(mol*K)

>  <CpInf_value>  (4) 
582.01304

>  <CpInf_units>  (4) 
J/(mol*K)

>  <Tmin_value>  (4) 
10.0

>  <Tmin_units>  (4) 
K

>  <Tmax_value>  (4) 
3000.0

>  <Tmax_units>  (4) 
K

>  <polynomials>  (4) 
[{"name": "polynomial1", "class": "NASAPolynomial", "Tmin_value": 10.0, "Tmin_units": "K", "Tmax_value": 528.972455779128, "Tmax_units": "K", "coeffs": [3.9868218800267257, -0.0002706572745000309, 0.00028187632893371514, -4.741050184034835e-07, 2.5734956335824994e-10, -111073965.68706591, 13.539897637614564]}, {"name": "polynomial2", "class": "NASAPolynomial", "Tmin_value": 528.972455779128, "Tmin_units": "K", "Tmax_value": 3000.0, "Tmax_units": "K", "coeffs": [-8.057241794330608, 0.1064450955450352, -6.508787704379979e-05, 1.907252295638734e-08, -2.1508745349439294e-12, -111072910.31254905, 61.90729537273606]}]

>  <H298_value>  (4) 
-220721.245578044

>  <H298_units>  (4) 
kcal/mol

>  <S298_value>  (4) 
89.45134221739195

>  <S298_units>  (4) 
cal/(mol*K)

>  <Cp_T_value_list>  (4) 
[36.878956346585845, 50.12569271862853, 61.88517923543043, 71.97481392014562, 88.08635981771188, 99.80073994362994, 116.53702427589523, 124.49378200225445, 128.77598528640422]

>  <Cp_T_units>  (4) 
cal/(mol*K)

>  <T_list>  (4) 
[300.0, 400.0, 500.0, 600.0, 800.0, 1000.0, 1500.0, 2000.0, 2400.0]

>  <T_units>  (4) 
K

>  <yaml_path>  (4) 
/home/calvin/Dropbox/PersonalFolders/Calvin/HAb_Converged/rxn_596/output/Species/rxn_596_[CH]1CCC2CCCCC12/rxn_596_CH1CCC2CCCCC12.yml

>  <frequencies_cm1>  (4) 
[136.62553992672, 157.51490927016, 211.37954212023996, 286.18848019632, 322.06847849332, 355.62056876684, 367.5897241795999, 411.11954412308, 476.10869319156, 586.10406404732, 659.1619208667998, 679.4263945461199, 776.27148851408, 816.29914594436, 831.37217872176, 862.80923751672, 874.6891221203199, 908.0695377608398, 920.8901993532799, 936.1829756609199, 978.41493537892, 1007.2974756348399, 1019.2666310475998, 1048.87020476212, 1054.7002752987999, 1059.7475095089999, 1090.01031381424, 1111.6207166162799, 1132.16673669372, 1153.45439118572, 1197.1009498796398, 1215.60747531704, 1249.276304341, 1269.96653111016, 1285.0532978581998, 1290.7322947178397, 1302.2482290994799, 1317.86375371716, 1334.75653760436, 1341.808931528, 1361.1738301304, 1369.2082029548, 1377.33871357368, 1391.0452162724, 1392.73449466112, 1461.8919038188399, 1471.2378708393599, 1474.8361711470397, 1479.64992785636, 1487.40275428264, 1490.6165034123997, 2897.1467715814, 2960.3367704960397, 2992.7077392945193, 2999.801335130079, 3001.73782499032, 3002.8296756562, 3006.4005080225998, 3019.7155925580796, 3032.0555651781197, 3045.94747648048, 3049.81358921564, 3053.18527900776, 3057.6694204217197, 3072.8935268761597, 3173.233916372]

>  <ZPE_kJmol>  (4) 
575.1531238351159

>  <E_elec_kJmol>  (4) 
-924096.5565981104

>  <E0_minus_Eelec_plus_ZPE_kJmol>  (4) 
0.0

>  <rxn>  (4) 
rxn_596

>  <species_type>  (4) 
p1

>  <species_folder>  (4) 
rxn_596_[CH]1CCC2CCCCC12

>  <frequencies_cm1_list>  (4) 
[136.62553992672, 157.51490927016, 211.37954212023996, 286.18848019632, 322.06847849332, 355.62056876684, 367.5897241795999, 411.11954412308, 476.10869319156, 586.10406404732, 659.1619208667998, 679.4263945461199, 776.27148851408, 816.29914594436, 831.37217872176, 862.80923751672, 874.6891221203199, 908.0695377608398, 920.8901993532799, 936.1829756609199, 978.41493537892, 1007.2974756348399, 1019.2666310475998, 1048.87020476212, 1054.7002752987999, 1059.7475095089999, 1090.01031381424, 1111.6207166162799, 1132.16673669372, 1153.45439118572, 1197.1009498796398, 1215.60747531704, 1249.276304341, 1269.96653111016, 1285.0532978581998, 1290.7322947178397, 1302.2482290994799, 1317.86375371716, 1334.75653760436, 1341.808931528, 1361.1738301304, 1369.2082029548, 1377.33871357368, 1391.0452162724, 1392.73449466112, 1461.8919038188399, 1471.2378708393599, 1474.8361711470397, 1479.64992785636, 1487.40275428264, 1490.6165034123997, 2897.1467715814, 2960.3367704960397, 2992.7077392945193, 2999.801335130079, 3001.73782499032, 3002.8296756562, 3006.4005080225998, 3019.7155925580796, 3032.0555651781197, 3045.94747648048, 3049.81358921564, 3053.18527900776, 3057.6694204217197, 3072.8935268761597, 3173.233916372]

>  <E0_kJmol>  (4) 
-923521

>  <H298_kJmol>  (4) 
-923498

$$$$

     RDKit          3D

  9  8  0  0  0  0  0  0  0  0999 V2000
    1.8963   -0.1405   -0.2150 C   0  0  0  0  0  0  0  0  0  1  0  0
    0.6340    0.1486   -0.2254 C   0  0  0  0  0  3  0  0  0  2  0  0
   -0.6770    0.4501   -0.2373 C   0  0  0  0  0  0  0  0  0  3  0  0
   -1.6600   -0.2303    0.4662 C   0  0  0  0  0  0  0  0  0  4  0  0
    2.3274   -0.8354   -0.9313 H   0  0  0  0  0  0  0  0  0  5  0  0
    2.5751    0.2988    0.5117 H   0  0  0  0  0  0  0  0  0  6  0  0
   -0.9723    1.2966   -0.8520 H   0  0  0  0  0  0  0  0  0  7  0  0
   -2.6934    0.0777    0.4015 H   0  0  0  0  0  0  0  0  0  8  0  0
   -1.4140   -1.0782    1.0904 H   0  0  0  0  0  0  0  0  0  9  0  0
  1  5  1  0
  1  6  1  0
  1  2  1  0
  2  3  1  0
  3  4  1  0
  3  7  1  0
  4  8  1  0
  4  9  1  0
M  RAD  1   2   2
M  END
>  <rmg_smiles>  (5) 
[CH2][C][CH][CH2]

>  <rmg_adjacency_list>  (5) 
multiplicity 2
1 C u0 p0 c0 {2,S} {4,S} {5,S}
2 C u0 p0 c0 {1,S} {6,S} {7,S}
3 C u0 p0 c0 {4,S} {8,S} {9,S}
4 C u1 p1 c0 {1,S} {3,S}
5 H u0 p0 c0 {1,S}
6 H u0 p0 c0 {2,S}
7 H u0 p0 c0 {2,S}
8 H u0 p0 c0 {3,S}
9 H u0 p0 c0 {3,S}


>  <multiplicity>  (5) 
2

>  <reaction>  (5) 
rxn_596

>  <type>  (5) 
r2

>  <role_mapnums>  (5) 
{}

>  <role_mapidx>  (5) 
{}

>  <ordered_mapped_smiles>  (5) 
[CH:1]([CH:2][CH:3]([CH:4]([H:8])[H:9])[H:7])([H:5])[H:6]

>  <level_of_theory>  (5) 
wb97xd/def2tzvp

>  <lot_method>  (5) 
wb97xd

>  <lot_basis>  (5) 
def2tzvp

>  <spin_multiplicity>  (5) 
2.0

>  <optical_isomers>  (5) 
1.0

>  <modes>  (5) 
IdealGasTranslation(mass=(53.0391, 'amu')),         NonlinearRotor(             inertia = ([12.0347, 113.266, 121.844

>  <frequency_value>  (5) 
unknown

>  <frequency_units>  (5) 
unknown

>  <frequency_list>  (5) 
unknown

>  <arkane_path>  (5) 
/home/calvin/Dropbox/PersonalFolders/Calvin/HAb_Converged/rxn_596/output/Species/rxn_596_C=[C]C=C/arkane/output.py

>  <path_exists>  (5) 
True

>  <E0_value>  (5) 
-407618.73102202936

>  <E0_units>  (5) 
kJ/mol

>  <thermo_class>  (5) 
NASA

>  <Cp0_value>  (5) 
33.257888

>  <Cp0_units>  (5) 
J/(mol*K)

>  <CpInf_value>  (5) 
207.8618

>  <CpInf_units>  (5) 
J/(mol*K)

>  <Tmin_value>  (5) 
10.0

>  <Tmin_units>  (5) 
K

>  <Tmax_value>  (5) 
3000.0

>  <Tmax_units>  (5) 
K

>  <polynomials>  (5) 
[{"name": "polynomial1", "class": "NASAPolynomial", "Tmin_value": 10.0, "Tmin_units": "K", "Tmax_value": 513.96992949071, "Tmax_units": "K", "coeffs": [3.9420802999541826, 0.0035685760014192327, 9.465791812405604e-05, -1.8686526671215408e-07, 1.1507173469765572e-10, -49025207.15718319, 8.65621190884103]}, {"name": "polynomial2", "class": "NASAPolynomial", "Tmin_value": 513.96992949071, "Tmin_units": "K", "Tmax_value": 3000.0, "Tmax_units": "K", "coeffs": [2.0283894812979866, 0.030453216730392172, -1.8799715383868938e-05, 5.69276117666148e-09, -6.699501956082314e-13, -49025168.8245439, 15.074146021629948]}]

>  <H298_value>  (5) 
-97419.52636783152

>  <H298_units>  (5) 
kcal/mol

>  <S298_value>  (5) 
69.47182773714773

>  <S298_units>  (5) 
cal/(mol*K)

>  <Cp_T_value_list>  (5) 
[18.71667250989835, 22.85533281432161, 26.28015598227693, 29.162718122858536, 33.78137212963757, 37.17010503303923, 42.188992301862434, 44.829088783976054, 46.30020231473576]

>  <Cp_T_units>  (5) 
cal/(mol*K)

>  <T_list>  (5) 
[300.0, 400.0, 500.0, 600.0, 800.0, 1000.0, 1500.0, 2000.0, 2400.0]

>  <T_units>  (5) 
K

>  <yaml_path>  (5) 
/home/calvin/Dropbox/PersonalFolders/Calvin/HAb_Converged/rxn_596/output/Species/rxn_596_C=[C]C=C/rxn_596_C=CC=C.yml

>  <frequencies_cm1>  (5) 
[209.82760343791998, 213.04821955299997, 498.83154761543994, 525.2763080827599, 574.87654304912, 748.94088694048, 893.75874035396, 905.4944182658398, 936.5057239709599, 975.15311735192, 1080.3828003955998, 1184.87084902472, 1365.78157728012, 1440.54244645896, 1485.45939743708, 1902.75236136284, 3071.21111547276, 3118.0645563111198, 3138.67237925644, 3141.51531117892, 3241.1690021427603]

>  <ZPE_kJmol>  (5) 
183.34053407098105

>  <E_elec_kJmol>  (5) 
-407802.07155610033

>  <E0_minus_Eelec_plus_ZPE_kJmol>  (5) 
0.0

>  <rxn>  (5) 
rxn_596

>  <species_type>  (5) 
r0

>  <species_folder>  (5) 
rxn_596_C=[C]C=C

>  <frequencies_cm1_list>  (5) 
[209.82760343791998, 213.04821955299997, 498.83154761543994, 525.2763080827599, 574.87654304912, 748.94088694048, 893.75874035396, 905.4944182658398, 936.5057239709599, 975.15311735192, 1080.3828003955998, 1184.87084902472, 1365.78157728012, 1440.54244645896, 1485.45939743708, 1902.75236136284, 3071.21111547276, 3118.0645563111198, 3138.67237925644, 3141.51531117892, 3241.1690021427603]

>  <E0_kJmol>  (5) 
-407619

>  <H298_kJmol>  (5) 
-407603

$$$$
