
     RDKit          3D

 10  9  0  0  0  0  0  0  0  0999 V2000
    0.4385   -0.8237   -1.3905 C   0  0  0  0  0  0  0  0  0  1  0  0
    0.2289   -0.8790    0.1062 C   0  0  0  0  0  0  0  0  0  2  0  0
    0.2958    0.4034    0.7352 O   0  0  0  0  0  0  0  0  0  3  0  0
   -0.8655    1.0877    0.5253 O   0  0  0  0  0  0  0  0  0  4  0  0
    1.4166   -0.4067   -1.6308 H   0  0  0  0  0  0  0  0  0  5  0  0
    0.3881   -1.8341   -1.7997 H   0  0  0  0  0  0  0  0  0  6  0  0
   -0.3285   -0.2261   -1.8822 H   0  0  0  0  0  0  0  0  0  7  0  0
    1.0271   -1.4378    0.5979 H   0  0  0  0  0  0  0  0  0  8  0  0
   -0.7298   -1.3333    0.3638 H   0  0  0  0  0  0  0  0  0  9  0  0
   -0.7134    1.7046   -0.1944 H   0  0  0  0  0  0  0  0  0 10  0  0
  1  5  1  0
  1  7  1  0
  1  6  1  0
  1  2  1  0
  2  9  1  0
  2  8  1  0
  2  3  1  0
  3  4  1  0
  4 10  1  0
M  END
>  <rmg_smiles>  (1) 
CCOO

>  <rmg_adjacency_list>  (1) 
1  O u0 p2 c0 {2,S} {3,S}
2  O u0 p2 c0 {1,S} {10,S}
3  C u0 p0 c0 {1,S} {4,S} {5,S} {6,S}
4  C u0 p0 c0 {3,S} {7,S} {8,S} {9,S}
5  H u0 p0 c0 {3,S}
6  H u0 p0 c0 {3,S}
7  H u0 p0 c0 {4,S}
8  H u0 p0 c0 {4,S}
9  H u0 p0 c0 {4,S}
10 H u0 p0 c0 {2,S}


>  <multiplicity>  (1) 
1

>  <reaction>  (1) 
rxn_458

>  <type>  (1) 
r1h

>  <role_mapnums>  (1) 
{"r1h_a": 4, "r1h_h": 10}

>  <role_mapidx>  (1) 
{"r1h_a": 3, "r1h_h": 9}

>  <ordered_mapped_smiles>  (1) 
[C:1]([C:2]([O:3][O:4][H:10])([H:8])[H:9])([H:5])([H:6])[H:7]

>  <mol_properties>  (1) 
{"3": {"label": "donator", "atom_type": "O2s"}, "9": {"label": "d_hydrogen", "atom_type": "H0"}}

>  <level_of_theory>  (1) 
wb97xd/def2tzvp

>  <lot_method>  (1) 
wb97xd

>  <lot_basis>  (1) 
def2tzvp

>  <spin_multiplicity>  (1) 
1.0

>  <optical_isomers>  (1) 
2.0

>  <modes>  (1) 
IdealGasTranslation(mass=(62.0368, 'amu')),         NonlinearRotor(             inertia = ([31.901, 90.8076, 107.715

>  <frequency_value>  (1) 
unknown

>  <frequency_units>  (1) 
unknown

>  <frequency_list>  (1) 
unknown

>  <arkane_path>  (1) 
/home/calvin/Dropbox/PersonalFolders/Calvin/HAb_Converged/rxn_458/output/Species/rxn_458_CCOO/arkane/output.py

>  <path_exists>  (1) 
True

>  <E0_value>  (1) 
-604159.1399942553

>  <E0_units>  (1) 
kJ/mol

>  <thermo_class>  (1) 
NASA

>  <Cp0_value>  (1) 
33.257888

>  <Cp0_units>  (1) 
J/(mol*K)

>  <CpInf_value>  (1) 
232.805216

>  <CpInf_units>  (1) 
J/(mol*K)

>  <Tmin_value>  (1) 
10.0

>  <Tmin_units>  (1) 
K

>  <Tmax_value>  (1) 
3000.0

>  <Tmax_units>  (1) 
K

>  <polynomials>  (1) 
[{"name": "polynomial1", "class": "NASAPolynomial", "Tmin_value": 10.0, "Tmin_units": "K", "Tmax_value": 514.1724528691229, "Tmax_units": "K", "coeffs": [3.8336344453475952, 0.01409920805556482, 3.6898200657499844e-05, -6.719543334122714e-08, 3.4675594662751285e-11, -72663558.31922284, 9.308822818089814]}, {"name": "polynomial2", "class": "NASAPolynomial", "Tmin_value": 514.1724528691229, "Tmin_units": "K", "Tmax_value": 3000.0, "Tmax_units": "K", "coeffs": [1.3693904641168975, 0.03326945732933675, -1.9026424691886852e-05, 5.314229938719563e-09, -5.793438015673505e-13, -72663304.90578787, 19.558209403678077]}]

>  <H298_value>  (1) 
-144393.56525281267

>  <H298_units>  (1) 
kcal/mol

>  <S298_value>  (1) 
72.46335512166218

>  <S298_units>  (1) 
cal/(mol*K)

>  <Cp_T_value_list>  (1) 
[19.57563448442731, 23.775370322495604, 27.573651000165018, 30.909690897198878, 36.349248100438004, 40.434305196144955, 46.63321645179998, 49.77345201242097, 51.402195377068814]

>  <Cp_T_units>  (1) 
cal/(mol*K)

>  <T_list>  (1) 
[300.0, 400.0, 500.0, 600.0, 800.0, 1000.0, 1500.0, 2000.0, 2400.0]

>  <T_units>  (1) 
K

>  <yaml_path>  (1) 
/home/calvin/Dropbox/PersonalFolders/Calvin/HAb_Converged/rxn_458/output/Species/rxn_458_CCOO/rxn_458_CCOO.yml

>  <frequencies_cm1>  (1) 
[154.28742616975998, 228.43026666979998, 261.43299811772, 369.51934705452, 514.6187468661199, 797.28446359328, 876.7972866135599, 960.7324481799199, 1074.19564662228, 1109.30654256344, 1184.9807207898398, 1309.68517420104, 1375.6013662877199, 1383.9378864661999, 1404.4289706610798, 1467.1588815592797, 1474.3280142333601, 1493.5349721733999, 3013.8580540801195, 3020.84177815056, 3069.0136801703593, 3096.50908939164, 3107.0911137697603, 3784.1071964685593]

>  <ZPE_kJmol>  (1) 
218.50804592085709

>  <E_elec_kJmol>  (1) 
-604377.6480401761

>  <E0_minus_Eelec_plus_ZPE_kJmol>  (1) 
0.0

>  <rxn>  (1) 
rxn_458

>  <species_type>  (1) 
r0

>  <species_folder>  (1) 
rxn_458_CCOO

>  <frequencies_cm1_list>  (1) 
[154.28742616975998, 228.43026666979998, 261.43299811772, 369.51934705452, 514.6187468661199, 797.28446359328, 876.7972866135599, 960.7324481799199, 1074.19564662228, 1109.30654256344, 1184.9807207898398, 1309.68517420104, 1375.6013662877199, 1383.9378864661999, 1404.4289706610798, 1467.1588815592797, 1474.3280142333601, 1493.5349721733999, 3013.8580540801195, 3020.84177815056, 3069.0136801703593, 3096.50908939164, 3107.0911137697603, 3784.1071964685593]

>  <E0_kJmol>  (1) 
-604159

>  <H298_kJmol>  (1) 
-604143

$$$$

     RDKit          3D

 10  9  0  0  0  0  0  0  0  0999 V2000
   -0.2099   -0.3999    1.5805 H   0  0  0  0  0  0  0  0  0  1  0  0
    1.4943    0.2419    0.5902 C   0  0  0  0  0  0  0  0  0  2  0  0
    0.0259    0.3723    0.8491 C   0  0  0  0  0  0  0  0  0  3  0  0
   -0.9279    0.0256   -0.2143 C   0  0  0  0  0  0  0  0  0  4  0  0
   -0.6390   -0.5820   -1.2186 O   0  0  0  0  0  0  0  0  0  5  0  0
    2.0316   -0.0065    1.5081 H   0  0  0  0  0  0  0  0  0  6  0  0
    1.9013    1.1856    0.2158 H   0  0  0  0  0  0  0  0  0  7  0  0
    1.6855   -0.5278   -0.1551 H   0  0  0  0  0  0  0  0  0  8  0  0
   -0.2863    1.2218    1.4555 H   0  0  0  0  0  0  0  0  0  9  0  0
   -1.9751    0.3316   -0.0268 H   0  0  0  0  0  0  0  0  0 10  0  0
  1  3  1  0
  2  8  1  0
  2  7  1  0
  2  6  1  0
  2  3  1  0
  3  4  1  0
  3  9  1  0
  4 10  1  0
  4  5  1  0
M  END
>  <rmg_smiles>  (2) 
CC[CH]O

>  <rmg_adjacency_list>  (2) 
1  O u0 p2 c0 {4,S}
2  C u0 p0 c0 {3,S} {4,S} {5,S} {6,S}
3  C u0 p0 c0 {2,S} {7,S} {8,S} {9,S}
4  C u0 p0 c0 {1,S} {2,S} {10,S}
5  H u0 p0 c0 {2,S}
6  H u0 p0 c0 {2,S}
7  H u0 p0 c0 {3,S}
8  H u0 p0 c0 {3,S}
9  H u0 p0 c0 {3,S}
10 H u0 p0 c0 {4,S}


>  <multiplicity>  (2) 
1

>  <reaction>  (2) 
rxn_458

>  <type>  (2) 
r2h

>  <role_mapnums>  (2) 
{"r2h_a": 3, "r2h_h": 1}

>  <role_mapidx>  (2) 
{"r2h_a": 2, "r2h_h": 0}

>  <ordered_mapped_smiles>  (2) 
[H:1][C:3]([C:2]([H:6])([H:7])[H:8])([CH:4]([OH:5])[H:10])[H:9]

>  <mol_properties>  (2) 
{"0": {"label": "a_hydrogen", "atom_type": "H0"}, "2": {"label": "acceptor", "atom_type": "Cs"}}

>  <level_of_theory>  (2) 
wb97xd/def2tzvp

>  <lot_method>  (2) 
wb97xd

>  <lot_basis>  (2) 
def2tzvp

>  <spin_multiplicity>  (2) 
1.0

>  <optical_isomers>  (2) 
1.0

>  <modes>  (2) 
IdealGasTranslation(mass=(58.0419, 'amu')),         NonlinearRotor(             inertia = ([29.7984, 86.0094, 109.654

>  <frequency_value>  (2) 
unknown

>  <frequency_units>  (2) 
unknown

>  <frequency_list>  (2) 
unknown

>  <arkane_path>  (2) 
/home/calvin/Dropbox/PersonalFolders/Calvin/HAb_Converged/rxn_458/output/Species/rxn_458_CCC=O/arkane/output.py

>  <path_exists>  (2) 
True

>  <E0_value>  (2) 
-506922.5969828313

>  <E0_units>  (2) 
kJ/mol

>  <thermo_class>  (2) 
NASA

>  <Cp0_value>  (2) 
33.257888

>  <Cp0_units>  (2) 
J/(mol*K)

>  <CpInf_value>  (2) 
232.805216

>  <CpInf_units>  (2) 
J/(mol*K)

>  <Tmin_value>  (2) 
10.0

>  <Tmin_units>  (2) 
K

>  <Tmax_value>  (2) 
3000.0

>  <Tmax_units>  (2) 
K

>  <polynomials>  (2) 
[{"name": "polynomial1", "class": "NASAPolynomial", "Tmin_value": 10.0, "Tmin_units": "K", "Tmax_value": 995.1900345283002, "Tmax_units": "K", "coeffs": [3.919274873618, 0.011902867620044834, 2.8741372072273123e-05, -3.719966986204588e-08, 1.282064508278687e-11, -60968708.45376264, 8.29819490310581]}, {"name": "polynomial2", "class": "NASAPolynomial", "Tmin_value": 995.1900345283002, "Tmin_units": "K", "Tmax_value": 3000.0, "Tmax_units": "K", "coeffs": [2.274357153517518, 0.029876843471332987, -1.547603192060147e-05, 3.8936784756348765e-09, -3.843586769722641e-13, -60968943.725637905, 13.399078271939683]}]

>  <H298_value>  (2) 
-121153.67253279968

>  <H298_units>  (2) 
kcal/mol

>  <S298_value>  (2) 
69.84440643822006

>  <S298_units>  (2) 
cal/(mol*K)

>  <Cp_T_value_list>  (2) 
[18.2352323956332, 22.309316345060275, 26.24579792780338, 29.876291097116475, 35.851495239528035, 40.110746771458125, 46.62761380751709, 49.92579195309712, 51.49040913669691]

>  <Cp_T_units>  (2) 
cal/(mol*K)

>  <T_list>  (2) 
[300.0, 400.0, 500.0, 600.0, 800.0, 1000.0, 1500.0, 2000.0, 2400.0]

>  <T_units>  (2) 
K

>  <yaml_path>  (2) 
/home/calvin/Dropbox/PersonalFolders/Calvin/HAb_Converged/rxn_458/output/Species/rxn_458_CCC=O/rxn_458_CCC=O.yml

>  <frequencies_cm1>  (2) 
[140.17577133716, 231.1427258712, 255.91194192044003, 664.53877037236, 671.2684159859599, 853.7722848356, 903.24204708088, 1002.8064672355599, 1110.1649157284398, 1142.5152835709598, 1274.43007156816, 1362.5060252824799, 1401.2701574138798, 1414.07021805036, 1440.4257077085201, 1481.0027239643998, 1486.2284997929198, 1826.3777506338001, 2861.6925263742396, 3000.3781618969597, 3029.63151936016, 3031.0529853214, 3106.8301683276, 3108.0730926705196]

>  <ZPE_kJmol>  (2) 
220.11000257512663

>  <E_elec_kJmol>  (2) 
-507142.70698540646

>  <E0_minus_Eelec_plus_ZPE_kJmol>  (2) 
0.0

>  <rxn>  (2) 
rxn_458

>  <species_type>  (2) 
p0

>  <species_folder>  (2) 
rxn_458_CCC=O

>  <frequencies_cm1_list>  (2) 
[140.17577133716, 231.1427258712, 255.91194192044003, 664.53877037236, 671.2684159859599, 853.7722848356, 903.24204708088, 1002.8064672355599, 1110.1649157284398, 1142.5152835709598, 1274.43007156816, 1362.5060252824799, 1401.2701574138798, 1414.07021805036, 1440.4257077085201, 1481.0027239643998, 1486.2284997929198, 1826.3777506338001, 2861.6925263742396, 3000.3781618969597, 3029.63151936016, 3031.0529853214, 3106.8301683276, 3108.0730926705196]

>  <E0_kJmol>  (2) 
-506923

>  <H298_kJmol>  (2) 
-506907

$$$$

     RDKit          3D

 19 17  0  0  0  0  0  0  0  0999 V2000
    0.6190   -2.0387   -0.3355 C   0  0  0  0  0  0  0  0  0  1  0  0
    0.4094   -2.0940    1.1611 C   0  0  0  0  0  0  0  0  0  2  0  0
    0.4763   -0.8116    1.7902 O   0  0  0  0  0  0  0  0  0  3  0  0
   -0.6850   -0.1273    1.5802 O   0  0  0  0  0  0  0  0  0  4  0  0
    1.5971   -1.6217   -0.5759 H   0  0  0  0  0  0  0  0  0  5  0  0
    0.5686   -3.0491   -0.7448 H   0  0  0  0  0  0  0  0  0  6  0  0
   -0.1480   -1.4411   -0.8273 H   0  0  0  0  0  0  0  0  0  7  0  0
    1.2076   -2.6528    1.6528 H   0  0  0  0  0  0  0  0  0  8  0  0
   -0.5493   -2.5483    1.4188 H   0  0  0  0  0  0  0  0  0  9  0  0
   -0.4975    0.6332    0.6931 H   0  0  0  0  0  0  0  0  0 10  0  0
    1.2636    1.4612   -0.4737 C   0  0  0  0  0  0  0  0  0 11  0  0
   -0.2048    1.5916   -0.2148 C   0  0  0  0  0  0  0  0  0 12  0  0
   -1.1586    1.2449   -1.2782 C   0  0  0  0  0  0  0  0  0 13  0  0
   -0.8697    0.6373   -2.2825 O   0  0  0  0  0  1  0  0  0 14  0  0
    1.8009    1.2128    0.4442 H   0  0  0  0  0  0  0  0  0 15  0  0
    1.6706    2.4049   -0.8480 H   0  0  0  0  0  0  0  0  0 16  0  0
    1.4548    0.6915   -1.2190 H   0  0  0  0  0  0  0  0  0 17  0  0
   -0.5170    2.4411    0.3916 H   0  0  0  0  0  0  0  0  0 18  0  0
   -2.2058    1.5509   -1.0907 H   0  0  0  0  0  0  0  0  0 19  0  0
  1  5  1  0
  1  7  1  0
  1  6  1  0
  1  2  1  0
  2  9  1  0
  2  8  1  0
  2  3  1  0
  3  4  1  0
  4 10  1  0
 11 12  1  0
 11 16  1  0
 11 15  1  0
 11 17  1  0
 12 18  1  0
 12 13  1  0
 13 19  1  0
 13 14  1  0
M  RAD  1  14   2
M  END
>  <rmg_smiles>  (3) 
CCOO.C[CH][CH][O]

>  <rmg_adjacency_list>  (3) 
multiplicity 2
1  O u0 p2 c0 {2,S} {4,S}
2  O u0 p2 c0 {1,S} {19,S}
3  O u1 p2 c0 {8,S}
4  C u0 p0 c0 {1,S} {5,S} {9,S} {10,S}
5  C u0 p0 c0 {4,S} {11,S} {12,S} {13,S}
6  C u0 p0 c0 {7,S} {14,S} {15,S} {16,S}
7  C u0 p0 c0 {6,S} {8,S} {17,S}
8  C u0 p0 c0 {3,S} {7,S} {18,S}
9  H u0 p0 c0 {4,S}
10 H u0 p0 c0 {4,S}
11 H u0 p0 c0 {5,S}
12 H u0 p0 c0 {5,S}
13 H u0 p0 c0 {5,S}
14 H u0 p0 c0 {6,S}
15 H u0 p0 c0 {6,S}
16 H u0 p0 c0 {6,S}
17 H u0 p0 c0 {7,S}
18 H u0 p0 c0 {8,S}
19 H u0 p0 c0 {2,S}


>  <multiplicity>  (3) 
2

>  <reaction>  (3) 
rxn_458

>  <type>  (3) 
ts

>  <role_mapnums>  (3) 
{"*2": 10, "*1": 4, "*3": 12, "*0": 3, "*4": 13}

>  <role_mapidx>  (3) 
{"*2": 9, "*1": 3, "*3": 11, "*0": 2, "*4": 12}

>  <ordered_mapped_smiles>  (3) 
[C:1]([C:2]([O:3][O:4][H:10])([H:8])[H:9])([H:5])([H:6])[H:7].[C:11]([CH:12]([CH:13]([O:14])[H:19])[H:18])([H:15])([H:16])[H:17]

>  <mol_properties>  (3) 
{"2": {"label": "*0", "atom_type": "O2s"}, "3": {"label": "*1", "atom_type": "O2s"}, "9": {"label": "*2", "atom_type": "H0"}, "11": {"label": "*3", "atom_type": "Cs"}, "12": {"label": "*4", "atom_type": "Cs"}}

>  <level_of_theory>  (3) 
wb97xd/def2tzvp

>  <lot_method>  (3) 
wb97xd

>  <lot_basis>  (3) 
def2tzvp

>  <spin_multiplicity>  (3) 
2.0

>  <optical_isomers>  (3) 
2.0

>  <modes>  (3) 
IdealGasTranslation(mass=(119.071, 'amu')),         NonlinearRotor(             inertia = ([194.342, 424.424, 477.097

>  <frequency_value>  (3) 
-2034.75

>  <frequency_units>  (3) 
cm^-1

>  <frequency_list>  (3) 
unknown

>  <arkane_path>  (3) 
/home/calvin/Dropbox/PersonalFolders/Calvin/HAb_Converged/rxn_458/output/rxns/TS0/arkane/output.py

>  <path_exists>  (3) 
True

>  <E0_value>  (3) 
-1109360.0

>  <E0_units>  (3) 
kJ/mol

>  <thermo_class>  (3) 
unknown

>  <Cp0_value>  (3) 
unknown

>  <Cp0_units>  (3) 
unknown

>  <CpInf_value>  (3) 
unknown

>  <CpInf_units>  (3) 
unknown

>  <Tmin_value>  (3) 
unknown

>  <Tmin_units>  (3) 
unknown

>  <Tmax_value>  (3) 
unknown

>  <Tmax_units>  (3) 
unknown

>  <polynomials>  (3) 
unknown

>  <H298_value>  (3) 
unknown

>  <H298_units>  (3) 
unknown

>  <S298_value>  (3) 
unknown

>  <S298_units>  (3) 
unknown

>  <Cp_T_value_list>  (3) 
unknown

>  <Cp_T_units>  (3) 
unknown

>  <T_list>  (3) 
unknown

>  <T_units>  (3) 
unknown

>  <yaml_path>  (3) 
unknown

>  <frequencies_cm1>  (3) 
unknown

>  <ZPE_kJmol>  (3) 
unknown

>  <E_elec_kJmol>  (3) 
unknown

>  <E0_minus_Eelec_plus_ZPE_kJmol>  (3) 
unknown

>  <rxn>  (3) 
unknown

>  <species_type>  (3) 
unknown

>  <species_folder>  (3) 
unknown

>  <frequencies_cm1_list>  (3) 
[]

>  <ts_imag_freq_cm1>  (3) 
-2059.4672

>  <ts_freq_out_path>  (3) 
/home/calvin/Dropbox/PersonalFolders/Calvin/HAb_Converged/rxn_458/output/rxns/TS0/geometry/freq.out

>  <E0_kJmol>  (3) 
-1.10936e+06

>  <H298_kJmol>  (3) 
unknown

$$$$

     RDKit          3D

  9  8  0  0  0  0  0  0  0  0999 V2000
   -1.0711   -0.0249   -0.1013 C   0  0  0  0  0  0  0  0  0  1  0  0
    0.3810    0.2227    0.2319 C   0  0  0  0  0  0  0  0  0  2  0  0
    1.2537   -0.5858   -0.5916 O   0  0  0  0  0  0  0  0  0  3  0  0
    1.2869   -0.1577   -1.8179 O   0  0  0  0  0  1  0  0  0  4  0  0
   -1.3307   -1.0736    0.0458 H   0  0  0  0  0  0  0  0  0  5  0  0
   -1.2739    0.2494   -1.1360 H   0  0  0  0  0  0  0  0  0  6  0  0
   -1.7027    0.5823    0.5487 H   0  0  0  0  0  0  0  0  0  7  0  0
    0.6282   -0.0825    1.2487 H   0  0  0  0  0  0  0  0  0  8  0  0
    0.6664    1.2642    0.0812 H   0  0  0  0  0  0  0  0  0  9  0  0
  1  5  1  0
  1  7  1  0
  1  6  1  0
  1  2  1  0
  2  9  1  0
  2  8  1  0
  2  3  1  0
  3  4  1  0
M  RAD  1   4   2
M  END
>  <rmg_smiles>  (4) 
CCO[O]

>  <rmg_adjacency_list>  (4) 
multiplicity 2
1 O u0 p2 c0 {2,S} {3,S}
2 O u1 p2 c0 {1,S}
3 C u0 p0 c0 {1,S} {4,S} {5,S} {6,S}
4 C u0 p0 c0 {3,S} {7,S} {8,S} {9,S}
5 H u0 p0 c0 {3,S}
6 H u0 p0 c0 {3,S}
7 H u0 p0 c0 {4,S}
8 H u0 p0 c0 {4,S}
9 H u0 p0 c0 {4,S}


>  <multiplicity>  (4) 
2

>  <reaction>  (4) 
rxn_458

>  <type>  (4) 
r1

>  <role_mapnums>  (4) 
{}

>  <role_mapidx>  (4) 
{}

>  <ordered_mapped_smiles>  (4) 
[C:1]([C:2]([O:3][O:4])([H:8])[H:9])([H:5])([H:6])[H:7]

>  <level_of_theory>  (4) 
wb97xd/def2tzvp

>  <lot_method>  (4) 
wb97xd

>  <lot_basis>  (4) 
def2tzvp

>  <spin_multiplicity>  (4) 
2.0

>  <optical_isomers>  (4) 
2.0

>  <modes>  (4) 
IdealGasTranslation(mass=(61.029, 'amu')),         NonlinearRotor(             inertia = ([27.7829, 88.8965, 102.663

>  <frequency_value>  (4) 
unknown

>  <frequency_units>  (4) 
unknown

>  <frequency_list>  (4) 
unknown

>  <arkane_path>  (4) 
/home/calvin/Dropbox/PersonalFolders/Calvin/HAb_Converged/rxn_458/output/Species/rxn_458_CCO[O]/arkane/output.py

>  <path_exists>  (4) 
True

>  <E0_value>  (4) 
-602511.8781085239

>  <E0_units>  (4) 
kJ/mol

>  <thermo_class>  (4) 
NASA

>  <Cp0_value>  (4) 
33.257888

>  <Cp0_units>  (4) 
J/(mol*K)

>  <CpInf_value>  (4) 
207.8618

>  <CpInf_units>  (4) 
J/(mol*K)

>  <Tmin_value>  (4) 
10.0

>  <Tmin_units>  (4) 
K

>  <Tmax_value>  (4) 
3000.0

>  <Tmax_units>  (4) 
K

>  <polynomials>  (4) 
[{"name": "polynomial1", "class": "NASAPolynomial", "Tmin_value": 10.0, "Tmin_units": "K", "Tmax_value": 950.1424237548658, "Tmax_units": "K", "coeffs": [3.93765922994912, 0.011329033147355935, 2.6199527613739717e-05, -3.625004179756809e-08, 1.3200953900360137e-11, -72465444.0478557, 9.740040064378418]}, {"name": "polynomial2", "class": "NASAPolynomial", "Tmin_value": 950.1424237548658, "Tmin_units": "K", "Tmax_value": 3000.0, "Tmax_units": "K", "coeffs": [2.95347382330703, 0.02606524844560525, -1.3787814137392651e-05, 3.5408088403417233e-09, -3.5612287092533147e-13, -72465735.1724477, 11.921640741267124]}]

>  <H298_value>  (4) 
-144000.14047264186

>  <H298_units>  (4) 
kcal/mol

>  <S298_value>  (4) 
72.37182222319979

>  <S298_units>  (4) 
cal/(mol*K)

>  <Cp_T_value_list>  (4) 
[17.532135827912423, 21.221653753655907, 24.732498077384648, 27.915767518002156, 33.018772882433026, 36.595588316347445, 42.0813282665877, 44.83380097264623, 46.15306952223199]

>  <Cp_T_units>  (4) 
cal/(mol*K)

>  <T_list>  (4) 
[300.0, 400.0, 500.0, 600.0, 800.0, 1000.0, 1500.0, 2000.0, 2400.0]

>  <T_units>  (4) 
K

>  <yaml_path>  (4) 
/home/calvin/Dropbox/PersonalFolders/Calvin/HAb_Converged/rxn_458/output/Species/rxn_458_CCO[O]/rxn_458_CCOO.yml

>  <frequencies_cm1>  (4) 
[114.46577829907999, 233.80024919004, 364.78799416904, 536.9776510680399, 803.4578833959599, 860.8315457445599, 1009.6734525555598, 1096.83609722232, 1176.59613171412, 1240.8367793827201, 1309.47916464144, 1373.64427547152, 1402.22466837336, 1470.393231645, 1475.7906821065199, 1490.9804536343597, 3028.4572648704398, 3049.84105715692, 3100.7803542606794, 3107.8808170815596, 3123.9358287597197]

>  <ZPE_kJmol>  (4) 
187.64431906015267

>  <E_elec_kJmol>  (4) 
-602699.522427584

>  <E0_minus_Eelec_plus_ZPE_kJmol>  (4) 
0.0

>  <rxn>  (4) 
rxn_458

>  <species_type>  (4) 
p1

>  <species_folder>  (4) 
rxn_458_CCO[O]

>  <frequencies_cm1_list>  (4) 
[114.46577829907999, 233.80024919004, 364.78799416904, 536.9776510680399, 803.4578833959599, 860.8315457445599, 1009.6734525555598, 1096.83609722232, 1176.59613171412, 1240.8367793827201, 1309.47916464144, 1373.64427547152, 1402.22466837336, 1470.393231645, 1475.7906821065199, 1490.9804536343597, 3028.4572648704398, 3049.84105715692, 3100.7803542606794, 3107.8808170815596, 3123.9358287597197]

>  <E0_kJmol>  (4) 
-602512

>  <H298_kJmol>  (4) 
-602497

$$$$

     RDKit          3D

  9  8  0  0  0  0  0  0  0  0999 V2000
   -1.1429   -0.0056    0.0357 C   0  0  0  0  0  0  0  0  0  1  0  0
    0.2348   -0.4846   -0.1988 C   0  0  0  0  0  0  0  0  0  2  0  0
    1.3889    0.3067    0.0768 C   0  0  0  0  0  0  0  0  0  3  0  0
    1.3416    1.4450    0.5289 O   0  0  0  0  0  1  0  0  0  4  0  0
   -1.7198   -0.0230   -0.8945 H   0  0  0  0  0  0  0  0  0  5  0  0
   -1.1399    1.0063    0.4362 H   0  0  0  0  0  0  0  0  0  6  0  0
   -1.6667   -0.6673    0.7330 H   0  0  0  0  0  0  0  0  0  7  0  0
    0.3900   -1.4812   -0.5984 H   0  0  0  0  0  0  0  0  0  8  0  0
    2.3646   -0.1624   -0.1407 H   0  0  0  0  0  0  0  0  0  9  0  0
  1  5  1  0
  1  7  1  0
  1  6  1  0
  1  2  1  0
  2  8  1  0
  2  3  1  0
  3  4  1  0
  3  9  1  0
M  RAD  1   4   2
M  END
>  <rmg_smiles>  (5) 
C[CH][CH][O]

>  <rmg_adjacency_list>  (5) 
multiplicity 2
1 O u1 p2 c0 {4,S}
2 C u0 p0 c0 {3,S} {5,S} {6,S} {7,S}
3 C u0 p0 c0 {2,S} {4,S} {8,S}
4 C u0 p0 c0 {1,S} {3,S} {9,S}
5 H u0 p0 c0 {2,S}
6 H u0 p0 c0 {2,S}
7 H u0 p0 c0 {2,S}
8 H u0 p0 c0 {3,S}
9 H u0 p0 c0 {4,S}


>  <multiplicity>  (5) 
2

>  <reaction>  (5) 
rxn_458

>  <type>  (5) 
r2

>  <role_mapnums>  (5) 
{}

>  <role_mapidx>  (5) 
{}

>  <ordered_mapped_smiles>  (5) 
[C:1]([CH:2]([CH:3]([O:4])[H:9])[H:8])([H:5])([H:6])[H:7]

>  <level_of_theory>  (5) 
wb97xd/def2tzvp

>  <lot_method>  (5) 
wb97xd

>  <lot_basis>  (5) 
def2tzvp

>  <spin_multiplicity>  (5) 
2.0

>  <optical_isomers>  (5) 
1.0

>  <modes>  (5) 
IdealGasTranslation(mass=(57.034, 'amu')),         NonlinearRotor(             inertia = ([25.424, 86.3649, 108.698

>  <frequency_value>  (5) 
unknown

>  <frequency_units>  (5) 
unknown

>  <frequency_list>  (5) 
unknown

>  <arkane_path>  (5) 
/home/calvin/Dropbox/PersonalFolders/Calvin/HAb_Converged/rxn_458/output/Species/rxn_458_C[CH]C=O/arkane/output.py

>  <path_exists>  (5) 
True

>  <E0_value>  (5) 
-505242.8208271292

>  <E0_units>  (5) 
kJ/mol

>  <thermo_class>  (5) 
NASA

>  <Cp0_value>  (5) 
33.257888

>  <Cp0_units>  (5) 
J/(mol*K)

>  <CpInf_value>  (5) 
207.8618

>  <CpInf_units>  (5) 
J/(mol*K)

>  <Tmin_value>  (5) 
10.0

>  <Tmin_units>  (5) 
K

>  <Tmax_value>  (5) 
3000.0

>  <Tmax_units>  (5) 
K

>  <polynomials>  (5) 
[{"name": "polynomial1", "class": "NASAPolynomial", "Tmin_value": 10.0, "Tmin_units": "K", "Tmax_value": 938.2630084142831, "Tmax_units": "K", "coeffs": [3.9259098530255714, 0.011960173973246408, 2.5341600530598885e-05, -3.607709397227657e-08, 1.3343688742505425e-11, -60766678.29780432, 9.01307682718271]}, {"name": "polynomial2", "class": "NASAPolynomial", "Tmin_value": 938.2630084142831, "Tmin_units": "K", "Tmax_value": 3000.0, "Tmax_units": "K", "coeffs": [3.018178350943707, 0.026186156747678206, -1.3957818427452722e-05, 3.610268029367448e-09, -3.6547285163770123e-13, -60766963.80473464, 10.905314591117884]}]

>  <H298_value>  (5) 
-120752.24261767376

>  <H298_units>  (5) 
kcal/mol

>  <S298_value>  (5) 
71.0958225531589

>  <S298_units>  (5) 
cal/(mol*K)

>  <Cp_T_value_list>  (5) 
[17.743187445814065, 21.456464643083425, 24.9707217517854, 28.142182940027215, 33.19981420774931, 36.74605511733711, 42.18197593126414, 44.898539773391356, 46.20404862402338]

>  <Cp_T_units>  (5) 
cal/(mol*K)

>  <T_list>  (5) 
[300.0, 400.0, 500.0, 600.0, 800.0, 1000.0, 1500.0, 2000.0, 2400.0]

>  <T_units>  (5) 
K

>  <yaml_path>  (5) 
/home/calvin/Dropbox/PersonalFolders/Calvin/HAb_Converged/rxn_458/output/Species/rxn_458_C[CH]C=O/rxn_458_CCHC=O.yml

>  <frequencies_cm1>  (5) 
[96.35753801023998, 270.0098627823999, 301.66666510759995, 649.52067347752, 695.1929928408399, 884.1930298031999, 940.261964941, 1007.2562737229199, 1061.03850274916, 1168.4793550658799, 1375.1962141538397, 1396.95769063292, 1416.5285987949198, 1458.63008579184, 1479.0112982216, 1603.31746648424, 2929.05078537812, 2997.5970328423596, 3046.4006975116, 3120.79074948316, 3151.94626188]

>  <ZPE_kJmol>  (5) 
185.7167300702324

>  <E_elec_kJmol>  (5) 
-505428.5375571994

>  <E0_minus_Eelec_plus_ZPE_kJmol>  (5) 
0.0

>  <rxn>  (5) 
rxn_458

>  <species_type>  (5) 
r1

>  <species_folder>  (5) 
rxn_458_C[CH]C=O

>  <frequencies_cm1_list>  (5) 
[96.35753801023998, 270.0098627823999, 301.66666510759995, 649.52067347752, 695.1929928408399, 884.1930298031999, 940.261964941, 1007.2562737229199, 1061.03850274916, 1168.4793550658799, 1375.1962141538397, 1396.95769063292, 1416.5285987949198, 1458.63008579184, 1479.0112982216, 1603.31746648424, 2929.05078537812, 2997.5970328423596, 3046.4006975116, 3120.79074948316, 3151.94626188]

>  <E0_kJmol>  (5) 
-505243

>  <H298_kJmol>  (5) 
-505227

$$$$
