
     RDKit          3D

 15 14  0  0  0  0  0  0  0  0999 V2000
    1.4139   -1.2395   -0.7340 C   0  0  0  0  0  0  0  0  0  1  0  0
    1.0609   -0.1815   -0.0005 C   0  0  0  0  0  0  0  0  0  2  0  0
   -0.2561    0.4535    0.0356 C   0  0  0  0  0  0  0  0  0  3  0  0
   -0.6233    1.1133    1.3441 C   0  0  0  0  0  0  0  0  0  4  0  0
   -1.3971   -0.2338   -0.6712 C   0  0  0  0  0  0  0  0  0  5  0  0
    2.4279   -1.6168   -0.7121 H   0  0  0  0  0  0  0  0  0  6  0  0
    0.7094   -1.7685   -1.3639 H   0  0  0  0  0  0  0  0  0  7  0  0
    1.8191    0.2954    0.6154 H   0  0  0  0  0  0  0  0  0  8  0  0
   -0.1018    1.3341   -0.5880 H   0  0  0  0  0  0  0  0  0  9  0  0
    0.2154    1.6835    1.7472 H   0  0  0  0  0  0  0  0  0 10  0  0
   -0.9113    0.3618    2.0864 H   0  0  0  0  0  0  0  0  0 11  0  0
   -1.4662    1.7943    1.2115 H   0  0  0  0  0  0  0  0  0 12  0  0
   -1.6791   -1.1527   -0.1472 H   0  0  0  0  0  0  0  0  0 13  0  0
   -1.1394   -0.4999   -1.6974 H   0  0  0  0  0  0  0  0  0 14  0  0
   -2.2706    0.4189   -0.7032 H   0  0  0  0  0  0  0  0  0 15  0  0
  1  7  1  0
  1  6  1  0
  1  2  1  0
  2  8  1  0
  2  3  1  0
  3  4  1  0
  3  5  1  0
  3  9  1  0
  4 12  1  0
  4 10  1  0
  4 11  1  0
  5 13  1  0
  5 14  1  0
  5 15  1  0
M  END
>  <rmg_smiles>  (1) 
[CH2][CH]C(C)C

>  <rmg_adjacency_list>  (1) 
1  C u0 p0 c0 {2,S} {3,S} {4,S} {6,S}
2  C u0 p0 c0 {1,S} {7,S} {8,S} {9,S}
3  C u0 p0 c0 {1,S} {10,S} {11,S} {12,S}
4  C u0 p0 c0 {1,S} {5,S} {13,S}
5  C u0 p0 c0 {4,S} {14,S} {15,S}
6  H u0 p0 c0 {1,S}
7  H u0 p0 c0 {2,S}
8  H u0 p0 c0 {2,S}
9  H u0 p0 c0 {2,S}
10 H u0 p0 c0 {3,S}
11 H u0 p0 c0 {3,S}
12 H u0 p0 c0 {3,S}
13 H u0 p0 c0 {4,S}
14 H u0 p0 c0 {5,S}
15 H u0 p0 c0 {5,S}


>  <multiplicity>  (1) 
1

>  <reaction>  (1) 
rxn_1093

>  <type>  (1) 
r1h

>  <role_mapnums>  (1) 
{"r1h_a": 3, "r1h_h": 9}

>  <role_mapidx>  (1) 
{"r1h_a": 2, "r1h_h": 8}

>  <ordered_mapped_smiles>  (1) 
[CH:1]([CH:2]([C:3]([C:4]([H:10])([H:11])[H:12])([C:5]([H:13])([H:14])[H:15])[H:9])[H:8])([H:6])[H:7]

>  <mol_properties>  (1) 
{"2": {"label": "donator", "atom_type": "Cs"}, "8": {"label": "d_hydrogen", "atom_type": "H0"}}

>  <level_of_theory>  (1) 
wb97xd/def2tzvp

>  <lot_method>  (1) 
wb97xd

>  <lot_basis>  (1) 
def2tzvp

>  <spin_multiplicity>  (1) 
1.0

>  <optical_isomers>  (1) 
1.0

>  <modes>  (1) 
IdealGasTranslation(mass=(70.0782, 'amu')),         NonlinearRotor(             inertia = ([66.6608, 141.472, 183.078

>  <frequency_value>  (1) 
unknown

>  <frequency_units>  (1) 
unknown

>  <frequency_list>  (1) 
unknown

>  <arkane_path>  (1) 
/home/calvin/Dropbox/PersonalFolders/Calvin/HAb_Converged/rxn_1093/output/Species/rxn_1093_C=CC[C]C/arkane/output.py

>  <path_exists>  (1) 
True

>  <E0_value>  (1) 
-515673.38052477705

>  <E0_units>  (1) 
kJ/mol

>  <thermo_class>  (1) 
NASA

>  <Cp0_value>  (1) 
33.257888

>  <Cp0_units>  (1) 
J/(mol*K)

>  <CpInf_value>  (1) 
357.522296

>  <CpInf_units>  (1) 
J/(mol*K)

>  <Tmin_value>  (1) 
10.0

>  <Tmin_units>  (1) 
K

>  <Tmax_value>  (1) 
3000.0

>  <Tmax_units>  (1) 
K

>  <polynomials>  (1) 
[{"name": "polynomial1", "class": "NASAPolynomial", "Tmin_value": 10.0, "Tmin_units": "K", "Tmax_value": 771.9142943776243, "Tmax_units": "K", "coeffs": [3.779458831960257, 0.020018734993344757, 5.732000924414448e-05, -8.642208919280512e-08, 3.603052216308801e-11, -62021180.35978402, 9.742915927956899]}, {"name": "polynomial2", "class": "NASAPolynomial", "Tmin_value": 771.9142943776243, "Tmin_units": "K", "Tmax_value": 3000.0, "Tmax_units": "K", "coeffs": [-0.3478948834965036, 0.05301654054790977, -2.9363158728726394e-05, 7.927167712612882e-09, -8.370007264752279e-13, -62020889.064341925, 26.345999473910833]}]

>  <H298_value>  (1) 
-123244.18843001623

>  <H298_units>  (1) 
kcal/mol

>  <S298_value>  (1) 
77.68833091262955

>  <S298_units>  (1) 
cal/(mol*K)

>  <Cp_T_value_list>  (1) 
[25.639596007404617, 32.489876341134234, 38.88560738045824, 44.569638849609326, 53.63229961607037, 60.40244107425912, 70.79757735881338, 76.02631058064169, 78.64468950836424]

>  <Cp_T_units>  (1) 
cal/(mol*K)

>  <T_list>  (1) 
[300.0, 400.0, 500.0, 600.0, 800.0, 1000.0, 1500.0, 2000.0, 2400.0]

>  <T_units>  (1) 
K

>  <yaml_path>  (1) 
/home/calvin/Dropbox/PersonalFolders/Calvin/HAb_Converged/rxn_1093/output/Species/rxn_1093_C=CC[C]C/rxn_1093_C=CCCC.yml

>  <frequencies_cm1>  (1) 
[94.05023094271999, 222.95727936976, 245.1857108506, 315.11222236416, 324.16290901592, 348.98019396239994, 507.51141705991995, 698.37927402932, 806.58236171656, 930.133161594, 937.87912103496, 953.39850785816, 966.50071584872, 1002.9300729713199, 1033.8109059553599, 1124.0362260748398, 1181.8493754839199, 1216.6581240709997, 1311.4499894282799, 1330.73248420684, 1336.23980643348, 1388.2022843499199, 1406.6264059634798, 1448.4326125916398, 1473.6344487160397, 1475.715145268, 1487.5263600183998, 1497.1744743929999, 1715.9428927175597, 3004.91037220816, 3007.1696103784398, 3014.14646746356, 3074.26005695484, 3079.52703469528, 3091.4275202548397, 3093.20606945272, 3095.44470666704, 3114.5280588713204, 3199.45893330908]

>  <ZPE_kJmol>  (1) 
356.22333310819664

>  <E_elec_kJmol>  (1) 
-516029.6038578852

>  <E0_minus_Eelec_plus_ZPE_kJmol>  (1) 
0.0

>  <rxn>  (1) 
rxn_1093

>  <species_type>  (1) 
r1

>  <species_folder>  (1) 
rxn_1093_C=CC[C]C

>  <frequencies_cm1_list>  (1) 
[94.05023094271999, 222.95727936976, 245.1857108506, 315.11222236416, 324.16290901592, 348.98019396239994, 507.51141705991995, 698.37927402932, 806.58236171656, 930.133161594, 937.87912103496, 953.39850785816, 966.50071584872, 1002.9300729713199, 1033.8109059553599, 1124.0362260748398, 1181.8493754839199, 1216.6581240709997, 1311.4499894282799, 1330.73248420684, 1336.23980643348, 1388.2022843499199, 1406.6264059634798, 1448.4326125916398, 1473.6344487160397, 1475.715145268, 1487.5263600183998, 1497.1744743929999, 1715.9428927175597, 3004.91037220816, 3007.1696103784398, 3014.14646746356, 3074.26005695484, 3079.52703469528, 3091.4275202548397, 3093.20606945272, 3095.44470666704, 3114.5280588713204, 3199.45893330908]

>  <E0_kJmol>  (1) 
-515673

>  <H298_kJmol>  (1) 
-515654

$$$$

     RDKit          3D

  9  8  0  0  0  0  0  0  0  0999 V2000
    2.0999    0.5561    0.8449 C   0  0  0  0  0  2  0  0  0  1  0  0
    1.1989    0.0238    0.2563 C   0  0  0  0  0  2  0  0  0  2  0  0
    0.1440   -0.6855   -0.3972 C   0  0  0  0  0  0  0  0  0  3  0  0
   -1.1644   -0.1110   -0.3745 C   0  0  0  0  0  2  0  0  0  4  0  0
   -2.2861    0.3157   -0.3306 C   0  0  0  0  0  2  0  0  0  5  0  0
    2.8944    1.0521    1.3481 H   0  0  0  0  0  0  0  0  0  6  0  0
    0.4265   -1.1108   -1.3592 H   0  0  0  0  0  0  0  0  0  7  0  0
   -3.2708    0.7162   -0.3038 H   0  0  0  0  0  0  0  0  0  8  0  0
    0.0627   -1.6047    0.1813 H   0  0  0  0  0  0  0  0  0  9  0  0
  1  6  1  0
  1  2  1  0
  2  3  1  0
  3  4  1  0
  3  7  1  0
  3  9  1  0
  4  5  1  0
  5  8  1  0
M  RAD  4   1   3   2   3   4   3   5   3
M  END
>  <rmg_smiles>  (2) 
[CH][C]C[C][CH]

>  <rmg_adjacency_list>  (2) 
1 C u0 p0 c0 {2,S} {3,S} {6,S} {7,S}
2 C u0 p1 c0 {1,S} {4,S}
3 C u0 p1 c0 {1,S} {5,S}
4 C u0 p1 c0 {2,S} {8,S}
5 C u0 p1 c0 {3,S} {9,S}
6 H u0 p0 c0 {1,S}
7 H u0 p0 c0 {1,S}
8 H u0 p0 c0 {4,S}
9 H u0 p0 c0 {5,S}


>  <multiplicity>  (2) 
1

>  <reaction>  (2) 
rxn_1093

>  <type>  (2) 
r2h

>  <role_mapnums>  (2) 
{"r2h_a": 3, "r2h_h": 9}

>  <role_mapidx>  (2) 
{"r2h_a": 2, "r2h_h": 8}

>  <ordered_mapped_smiles>  (2) 
[C:1]([C:2][C:3]([C:4][C:5][H:8])([H:7])[H:9])[H:6]

>  <mol_properties>  (2) 
{"2": {"label": "acceptor", "atom_type": "Cs"}, "8": {"label": "a_hydrogen", "atom_type": "H0"}}

>  <level_of_theory>  (2) 
wb97xd/def2tzvp

>  <lot_method>  (2) 
wb97xd

>  <lot_basis>  (2) 
def2tzvp

>  <spin_multiplicity>  (2) 
1.0

>  <optical_isomers>  (2) 
1.0

>  <modes>  (2) 
IdealGasTranslation(mass=(64.0313, 'amu')),         NonlinearRotor(             inertia = ([26.0751, 176.474, 199.453

>  <frequency_value>  (2) 
unknown

>  <frequency_units>  (2) 
unknown

>  <frequency_list>  (2) 
unknown

>  <arkane_path>  (2) 
/home/calvin/Dropbox/PersonalFolders/Calvin/HAb_Converged/rxn_1093/output/Species/rxn_1093_CtCCCtC/arkane/output.py

>  <path_exists>  (2) 
True

>  <E0_value>  (2) 
-505987.1937681529

>  <E0_units>  (2) 
kJ/mol

>  <thermo_class>  (2) 
NASA

>  <Cp0_value>  (2) 
33.257888

>  <Cp0_units>  (2) 
J/(mol*K)

>  <CpInf_value>  (2) 
207.8618

>  <CpInf_units>  (2) 
J/(mol*K)

>  <Tmin_value>  (2) 
10.0

>  <Tmin_units>  (2) 
K

>  <Tmax_value>  (2) 
3000.0

>  <Tmax_units>  (2) 
K

>  <polynomials>  (2) 
[{"name": "polynomial1", "class": "NASAPolynomial", "Tmin_value": 10.0, "Tmin_units": "K", "Tmax_value": 497.8593658816142, "Tmax_units": "K", "coeffs": [3.8915864576213126, 0.006957367241061819, 0.0001124682099447706, -2.5840703133431377e-07, 1.7695513704603586e-10, -60856199.45525289, 8.432136330915357]}, {"name": "polynomial2", "class": "NASAPolynomial", "Tmin_value": 497.8593658816142, "Tmin_units": "K", "Tmax_value": 3000.0, "Tmax_units": "K", "coeffs": [4.075884062024102, 0.02776260095654963, -1.736118740993935e-05, 5.3551737520056605e-09, -6.423292730160111e-13, -60856494.00033687, 4.897725289359391]}]

>  <H298_value>  (2) 
-120929.7923476968

>  <H298_units>  (2) 
kcal/mol

>  <S298_value>  (2) 
71.02155088616169

>  <S298_units>  (2) 
cal/(mol*K)

>  <Cp_T_value_list>  (2) 
[20.979499997159746, 25.160912667766237, 28.310019691035766, 30.91475060774189, 35.08126080246509, 38.13477511079626, 42.68327459382335, 45.15024180882392, 46.54964684058525]

>  <Cp_T_units>  (2) 
cal/(mol*K)

>  <T_list>  (2) 
[300.0, 400.0, 500.0, 600.0, 800.0, 1000.0, 1500.0, 2000.0, 2400.0]

>  <T_units>  (2) 
K

>  <yaml_path>  (2) 
/home/calvin/Dropbox/PersonalFolders/Calvin/HAb_Converged/rxn_1093/output/Species/rxn_1093_CtCCCtC/rxn_1093_CtCCCtC.yml

>  <frequencies_cm1>  (2) 
[136.57060404415998, 317.76287869768, 341.09689481504, 341.70805650852003, 565.30396551304, 688.26420465296, 689.33545436288, 698.59215057424, 701.977574337, 902.24633420948, 929.56320181244, 996.6124464769199, 1233.63331178204, 1332.80631377348, 1444.34675632624, 2232.79340981268, 2237.0921426229997, 3019.1524997618394, 3054.0299182021195, 3436.67207420316, 3437.69525501584]

>  <ZPE_kJmol>  (2) 
171.88700812582363

>  <E_elec_kJmol>  (2) 
-506159.08077627874

>  <E0_minus_Eelec_plus_ZPE_kJmol>  (2) 
0.0

>  <rxn>  (2) 
rxn_1093

>  <species_type>  (2) 
p0

>  <species_folder>  (2) 
rxn_1093_CtCCCtC

>  <frequencies_cm1_list>  (2) 
[136.57060404415998, 317.76287869768, 341.09689481504, 341.70805650852003, 565.30396551304, 688.26420465296, 689.33545436288, 698.59215057424, 701.977574337, 902.24633420948, 929.56320181244, 996.6124464769199, 1233.63331178204, 1332.80631377348, 1444.34675632624, 2232.79340981268, 2237.0921426229997, 3019.1524997618394, 3054.0299182021195, 3436.67207420316, 3437.69525501584]

>  <E0_kJmol>  (2) 
-505987

>  <H298_kJmol>  (2) 
-505970

$$$$

     RDKit          3D

 23 21  0  0  0  0  0  0  0  0999 V2000
    2.1915    2.3611    0.4538 C   0  0  0  0  0  0  0  0  0  1  0  0
    1.2906    1.8288   -0.1348 C   0  0  0  0  0  0  0  0  0  2  0  0
    0.2356    1.1194   -0.7883 C   0  0  0  0  0  3  0  0  0  3  0  0
   -1.0727    1.6939   -0.7656 C   0  0  0  0  0  0  0  0  0  4  0  0
   -2.1945    2.1207   -0.7217 C   0  0  0  0  0  0  0  0  0  5  0  0
    2.9861    2.8571    0.9570 H   0  0  0  0  0  0  0  0  0  6  0  0
    0.5182    0.6941   -1.7503 H   0  0  0  0  0  0  0  0  0  7  0  0
   -3.1791    2.5212   -0.6949 H   0  0  0  0  0  0  0  0  0  8  0  0
    1.6149   -2.8035   -0.0694 C   0  0  0  0  0  0  0  0  0  9  0  0
    1.2619   -1.7456    0.6640 C   0  0  0  0  0  0  0  0  0 10  0  0
   -0.0551   -1.1105    0.7001 C   0  0  0  0  0  0  0  0  0 11  0  0
   -0.4223   -0.4507    2.0087 C   0  0  0  0  0  0  0  0  0 12  0  0
   -1.1961   -1.7978   -0.0066 C   0  0  0  0  0  0  0  0  0 13  0  0
    2.6289   -3.1808   -0.0475 H   0  0  0  0  0  0  0  0  0 14  0  0
    0.9104   -3.3325   -0.6994 H   0  0  0  0  0  0  0  0  0 15  0  0
    2.0201   -1.2686    1.2799 H   0  0  0  0  0  0  0  0  0 16  0  0
    0.1338   -0.0324   -0.0634 H   0  0  0  0  0  0  0  0  0 17  0  0
    0.4164    0.1194    2.4118 H   0  0  0  0  0  0  0  0  0 18  0  0
   -0.7103   -1.2022    2.7509 H   0  0  0  0  0  0  0  0  0 19  0  0
   -1.2652    0.2303    1.8761 H   0  0  0  0  0  0  0  0  0 20  0  0
   -1.4781   -2.7167    0.5173 H   0  0  0  0  0  0  0  0  0 21  0  0
   -0.9384   -2.0639   -1.0329 H   0  0  0  0  0  0  0  0  0 22  0  0
   -2.0696   -1.1451   -0.0386 H   0  0  0  0  0  0  0  0  0 23  0  0
  1  6  1  0
  1  2  1  0
  2  3  1  0
  3  4  1  0
  3  7  1  0
  4  5  1  0
  5  8  1  0
  9 15  1  0
  9 14  1  0
  9 10  1  0
 10 16  1  0
 10 11  1  0
 11 13  1  0
 11 17  1  0
 11 12  1  0
 12 19  1  0
 12 18  1  0
 12 20  1  0
 13 23  1  0
 13 21  1  0
 13 22  1  0
M  RAD  1   3   2
M  END
>  <rmg_smiles>  (3) 
[CH2][CH]C(C)C.[CH]C[CH]C[CH]

>  <rmg_adjacency_list>  (3) 
multiplicity 2
1  C u0 p0 c0 {2,S} {3,S} {4,S} {11,S}
2  C u0 p0 c0 {1,S} {12,S} {13,S} {14,S}
3  C u0 p0 c0 {1,S} {15,S} {16,S} {17,S}
4  C u0 p0 c0 {1,S} {5,S} {18,S}
5  C u0 p0 c0 {4,S} {20,S} {21,S}
6  C u1 p0 c0 {7,S} {8,S} {19,S}
7  C u0 p1 c0 {6,S} {9,S}
8  C u0 p1 c0 {6,S} {10,S}
9  C u0 p1 c0 {7,S} {22,S}
10 C u0 p1 c0 {8,S} {23,S}
11 H u0 p0 c0 {1,S}
12 H u0 p0 c0 {2,S}
13 H u0 p0 c0 {2,S}
14 H u0 p0 c0 {2,S}
15 H u0 p0 c0 {3,S}
16 H u0 p0 c0 {3,S}
17 H u0 p0 c0 {3,S}
18 H u0 p0 c0 {4,S}
19 H u0 p0 c0 {6,S}
20 H u0 p0 c0 {5,S}
21 H u0 p0 c0 {5,S}
22 H u0 p0 c0 {9,S}
23 H u0 p0 c0 {10,S}


>  <multiplicity>  (3) 
2

>  <reaction>  (3) 
rxn_1093

>  <type>  (3) 
ts

>  <role_mapnums>  (3) 
{"*2": 17, "*1": 11, "*3": 3, "*0": 10, "*4": 2}

>  <role_mapidx>  (3) 
{"*2": 16, "*1": 10, "*3": 2, "*0": 9, "*4": 1}

>  <ordered_mapped_smiles>  (3) 
[CH2:1]([CH2:2][C:3]([CH2:4][CH2:5][H:8])[H:7])[H:6].[CH:9]([CH:10]([C:11]([C:12]([H:18])([H:19])[H:20])([C:13]([H:21])([H:22])[H:23])[H:17])[H:16])([H:14])[H:15]

>  <mol_properties>  (3) 
{"1": {"label": "*4", "atom_type": "C2s"}, "2": {"label": "*3", "atom_type": "Cs"}, "9": {"label": "*0", "atom_type": "Cs"}, "10": {"label": "*1", "atom_type": "Cs"}, "16": {"label": "*2", "atom_type": "H0"}}

>  <level_of_theory>  (3) 
wb97xd/def2tzvp

>  <lot_method>  (3) 
wb97xd

>  <lot_basis>  (3) 
def2tzvp

>  <spin_multiplicity>  (3) 
2.0

>  <optical_isomers>  (3) 
2.0

>  <modes>  (3) 
IdealGasTranslation(mass=(133.102, 'amu')),         NonlinearRotor(             inertia = ([339.042, 560.542, 724.766

>  <frequency_value>  (3) 
-1705.65

>  <frequency_units>  (3) 
cm^-1

>  <frequency_list>  (3) 
unknown

>  <arkane_path>  (3) 
/home/calvin/Dropbox/PersonalFolders/Calvin/HAb_Converged/rxn_1093/output/rxns/TS0/arkane/output.py

>  <path_exists>  (3) 
True

>  <E0_value>  (3) 
-1019950.0

>  <E0_units>  (3) 
kJ/mol

>  <thermo_class>  (3) 
unknown

>  <Cp0_value>  (3) 
unknown

>  <Cp0_units>  (3) 
unknown

>  <CpInf_value>  (3) 
unknown

>  <CpInf_units>  (3) 
unknown

>  <Tmin_value>  (3) 
unknown

>  <Tmin_units>  (3) 
unknown

>  <Tmax_value>  (3) 
unknown

>  <Tmax_units>  (3) 
unknown

>  <polynomials>  (3) 
unknown

>  <H298_value>  (3) 
unknown

>  <H298_units>  (3) 
unknown

>  <S298_value>  (3) 
unknown

>  <S298_units>  (3) 
unknown

>  <Cp_T_value_list>  (3) 
unknown

>  <Cp_T_units>  (3) 
unknown

>  <T_list>  (3) 
unknown

>  <T_units>  (3) 
unknown

>  <yaml_path>  (3) 
unknown

>  <frequencies_cm1>  (3) 
unknown

>  <ZPE_kJmol>  (3) 
unknown

>  <E_elec_kJmol>  (3) 
unknown

>  <E0_minus_Eelec_plus_ZPE_kJmol>  (3) 
unknown

>  <rxn>  (3) 
unknown

>  <species_type>  (3) 
unknown

>  <species_folder>  (3) 
unknown

>  <frequencies_cm1_list>  (3) 
[]

>  <ts_imag_freq_cm1>  (3) 
-1726.3693

>  <ts_freq_out_path>  (3) 
/home/calvin/Dropbox/PersonalFolders/Calvin/HAb_Converged/rxn_1093/output/rxns/TS0/geometry/freq.out

>  <E0_kJmol>  (3) 
-1.01995e+06

>  <H298_kJmol>  (3) 
unknown

$$$$

     RDKit          3D

 14 13  0  0  0  0  0  0  0  0999 V2000
    1.0767   -1.6838    1.2931 C   0  0  0  0  0  0  0  0  0  1  0  0
    1.0020   -0.3665    0.9163 C   0  0  0  0  0  0  0  0  0  2  0  0
    1.3965    0.7260    1.6806 C   0  0  0  0  0  3  0  0  0  3  0  0
    1.2666    2.1197    1.1619 C   0  0  0  0  0  0  0  0  0  4  0  0
    1.9670    0.5479    3.0536 C   0  0  0  0  0  0  0  0  0  5  0  0
    0.7448   -2.4705    0.6300 H   0  0  0  0  0  0  0  0  0  6  0  0
    1.4663   -1.9826    2.2578 H   0  0  0  0  0  0  0  0  0  7  0  0
    0.5980   -0.1511   -0.0695 H   0  0  0  0  0  0  0  0  0  8  0  0
    0.6296    2.7241    1.8172 H   0  0  0  0  0  0  0  0  0  9  0  0
    2.2410    2.6200    1.1341 H   0  0  0  0  0  0  0  0  0 10  0  0
    0.8426    2.1448    0.1579 H   0  0  0  0  0  0  0  0  0 11  0  0
    2.8745   -0.0634    3.0328 H   0  0  0  0  0  0  0  0  0 12  0  0
    1.2599    0.0408    3.7173 H   0  0  0  0  0  0  0  0  0 13  0  0
    2.2205    1.5071    3.5054 H   0  0  0  0  0  0  0  0  0 14  0  0
  1  7  1  0
  1  6  1  0
  1  2  1  0
  2  8  1  0
  2  3  1  0
  3  4  1  0
  3  5  1  0
  4  9  1  0
  4 10  1  0
  4 11  1  0
  5 12  1  0
  5 14  1  0
  5 13  1  0
M  RAD  1   3   2
M  END
>  <rmg_smiles>  (4) 
[CH2][CH][C](C)C

>  <rmg_adjacency_list>  (4) 
multiplicity 2
1  C u0 p0 c0 {3,S} {6,S} {7,S} {8,S}
2  C u0 p0 c0 {3,S} {9,S} {10,S} {11,S}
3  C u1 p0 c0 {1,S} {2,S} {4,S}
4  C u0 p0 c0 {3,S} {5,S} {12,S}
5  C u0 p0 c0 {4,S} {13,S} {14,S}
6  H u0 p0 c0 {1,S}
7  H u0 p0 c0 {1,S}
8  H u0 p0 c0 {1,S}
9  H u0 p0 c0 {2,S}
10 H u0 p0 c0 {2,S}
11 H u0 p0 c0 {2,S}
12 H u0 p0 c0 {4,S}
13 H u0 p0 c0 {5,S}
14 H u0 p0 c0 {5,S}


>  <multiplicity>  (4) 
2

>  <reaction>  (4) 
rxn_1093

>  <type>  (4) 
r1

>  <role_mapnums>  (4) 
{}

>  <role_mapidx>  (4) 
{}

>  <ordered_mapped_smiles>  (4) 
[CH:1]([CH:2]([C:3]([C:4]([H:9])([H:10])[H:11])[C:5]([H:12])([H:13])[H:14])[H:8])([H:6])[H:7]

>  <level_of_theory>  (4) 
wb97xd/def2tzvp

>  <lot_method>  (4) 
wb97xd

>  <lot_basis>  (4) 
def2tzvp

>  <spin_multiplicity>  (4) 
2.0

>  <optical_isomers>  (4) 
1.0

>  <modes>  (4) 
IdealGasTranslation(mass=(69.0704, 'amu')),         NonlinearRotor(             inertia = ([61.3549, 130.413, 185.559

>  <frequency_value>  (4) 
unknown

>  <frequency_units>  (4) 
unknown

>  <frequency_list>  (4) 
unknown

>  <arkane_path>  (4) 
/home/calvin/Dropbox/PersonalFolders/Calvin/HAb_Converged/rxn_1093/output/Species/rxn_1093_C=C[C][C]C/arkane/output.py

>  <path_exists>  (4) 
True

>  <E0_value>  (4) 
-514025.9755079239

>  <E0_units>  (4) 
kJ/mol

>  <thermo_class>  (4) 
NASA

>  <Cp0_value>  (4) 
33.257888

>  <Cp0_units>  (4) 
J/(mol*K)

>  <CpInf_value>  (4) 
332.57888

>  <CpInf_units>  (4) 
J/(mol*K)

>  <Tmin_value>  (4) 
10.0

>  <Tmin_units>  (4) 
K

>  <Tmax_value>  (4) 
3000.0

>  <Tmax_units>  (4) 
K

>  <polynomials>  (4) 
[{"name": "polynomial1", "class": "NASAPolynomial", "Tmin_value": 10.0, "Tmin_units": "K", "Tmax_value": 869.6920679830255, "Tmax_units": "K", "coeffs": [3.7251534266099315, 0.026124983740037182, 2.9283649756322525e-05, -5.054120287970429e-08, 2.023244225001157e-11, -61823043.86817725, 10.74219344334208]}, {"name": "polynomial2", "class": "NASAPolynomial", "Tmin_value": 869.6920679830255, "Tmin_units": "K", "Tmax_value": 3000.0, "Tmax_units": "K", "coeffs": [2.049387595722733, 0.04566272803591952, -2.48184133745368e-05, 6.572064258076298e-09, -6.813784120606917e-13, -61823199.79068455, 16.020641566778316]}]

>  <H298_value>  (4) 
-122850.30931833542

>  <H298_units>  (4) 
kcal/mol

>  <S298_value>  (4) 
80.76860453620434

>  <S298_units>  (4) 
cal/(mol*K)

>  <Cp_T_value_list>  (4) 
[25.828611832321002, 32.0811525837059, 37.867084343079156, 43.01801750917861, 51.22380214574075, 57.20052316456338, 66.43884769284972, 71.0936035426273, 73.39069523043335]

>  <Cp_T_units>  (4) 
cal/(mol*K)

>  <T_list>  (4) 
[300.0, 400.0, 500.0, 600.0, 800.0, 1000.0, 1500.0, 2000.0, 2400.0]

>  <T_units>  (4) 
K

>  <yaml_path>  (4) 
/home/calvin/Dropbox/PersonalFolders/Calvin/HAb_Converged/rxn_1093/output/Species/rxn_1093_C=C[C][C]C/rxn_1093_C=CCCC.yml

>  <frequencies_cm1>  (4) 
[55.11442417832, 159.33466037996, 226.55557967744, 278.64853031495994, 356.053188842, 383.12971195875997, 537.2797984221199, 582.97958572672, 765.24311009016, 793.8921728451999, 933.2782408705599, 980.1316817089199, 985.8381465098398, 986.5797809243999, 1056.26594795176, 1065.45397430992, 1225.2624566769598, 1249.45484595932, 1354.32057878104, 1397.4040446787199, 1400.8306703534, 1443.5021171318801, 1461.08159955108, 1469.6378632598, 1480.13061682876, 1493.1229530541998, 1520.0758704352, 2982.7506105805196, 2995.00817937672, 3028.9585547987995, 3046.0710822162396, 3091.5030570933595, 3094.47646173692, 3117.3709907937996, 3132.2036790849997, 3223.1775006043595]

>  <ZPE_kJmol>  (4) 
319.1166494835046

>  <E_elec_kJmol>  (4) 
-514345.0921574074

>  <E0_minus_Eelec_plus_ZPE_kJmol>  (4) 
0.0

>  <rxn>  (4) 
rxn_1093

>  <species_type>  (4) 
p1

>  <species_folder>  (4) 
rxn_1093_C=C[C][C]C

>  <frequencies_cm1_list>  (4) 
[55.11442417832, 159.33466037996, 226.55557967744, 278.64853031495994, 356.053188842, 383.12971195875997, 537.2797984221199, 582.97958572672, 765.24311009016, 793.8921728451999, 933.2782408705599, 980.1316817089199, 985.8381465098398, 986.5797809243999, 1056.26594795176, 1065.45397430992, 1225.2624566769598, 1249.45484595932, 1354.32057878104, 1397.4040446787199, 1400.8306703534, 1443.5021171318801, 1461.08159955108, 1469.6378632598, 1480.13061682876, 1493.1229530541998, 1520.0758704352, 2982.7506105805196, 2995.00817937672, 3028.9585547987995, 3046.0710822162396, 3091.5030570933595, 3094.47646173692, 3117.3709907937996, 3132.2036790849997, 3223.1775006043595]

>  <E0_kJmol>  (4) 
-514026

>  <H298_kJmol>  (4) 
-514006

$$$$

     RDKit          3D

  8  7  0  0  0  0  0  0  0  0999 V2000
   -2.2129    0.4855    0.7390 C   0  0  0  0  0  0  0  0  0  1  0  0
   -1.2226    0.0526    0.1974 C   0  0  0  0  0  0  0  0  0  2  0  0
   -0.1006   -0.4575   -0.4419 C   0  0  0  0  0  3  0  0  0  3  0  0
    1.1960   -0.1737   -0.0342 C   0  0  0  0  0  0  0  0  0  4  0  0
    2.3329    0.0603    0.3036 C   0  0  0  0  0  0  0  0  0  5  0  0
   -3.0803    0.8696    1.2198 H   0  0  0  0  0  0  0  0  0  6  0  0
   -0.2433   -1.1067   -1.2980 H   0  0  0  0  0  0  0  0  0  7  0  0
    3.3308    0.2700    0.6058 H   0  0  0  0  0  0  0  0  0  8  0  0
  1  6  1  0
  1  2  1  0
  2  3  1  0
  3  4  1  0
  3  7  1  0
  4  5  1  0
  5  8  1  0
M  RAD  1   3   2
M  END
>  <rmg_smiles>  (5) 
[CH]C[CH]C[CH]

>  <rmg_adjacency_list>  (5) 
multiplicity 2
1 C u1 p0 c0 {2,S} {3,S} {6,S}
2 C u0 p1 c0 {1,S} {4,S}
3 C u0 p1 c0 {1,S} {5,S}
4 C u0 p1 c0 {2,S} {7,S}
5 C u0 p1 c0 {3,S} {8,S}
6 H u0 p0 c0 {1,S}
7 H u0 p0 c0 {4,S}
8 H u0 p0 c0 {5,S}


>  <multiplicity>  (5) 
2

>  <reaction>  (5) 
rxn_1093

>  <type>  (5) 
r2

>  <role_mapnums>  (5) 
{}

>  <role_mapidx>  (5) 
{}

>  <ordered_mapped_smiles>  (5) 
[CH2:1]([CH2:2][C:3]([CH2:4][CH2:5][H:8])[H:7])[H:6]

>  <level_of_theory>  (5) 
wb97xd/def2tzvp

>  <lot_method>  (5) 
wb97xd

>  <lot_basis>  (5) 
def2tzvp

>  <spin_multiplicity>  (5) 
2.0

>  <optical_isomers>  (5) 
1.0

>  <modes>  (5) 
IdealGasTranslation(mass=(63.0235, 'amu')),         NonlinearRotor(             inertia = ([17.4877, 183.017, 200.505

>  <frequency_value>  (5) 
unknown

>  <frequency_units>  (5) 
unknown

>  <frequency_list>  (5) 
unknown

>  <arkane_path>  (5) 
/home/calvin/Dropbox/PersonalFolders/Calvin/HAb_Converged/rxn_1093/output/Species/rxn_1093_CtC[CH]CtC/arkane/output.py

>  <path_exists>  (5) 
True

>  <E0_value>  (5) 
-504350.2602594301

>  <E0_units>  (5) 
kJ/mol

>  <thermo_class>  (5) 
NASA

>  <Cp0_value>  (5) 
33.257888

>  <Cp0_units>  (5) 
J/(mol*K)

>  <CpInf_value>  (5) 
182.918384

>  <CpInf_units>  (5) 
J/(mol*K)

>  <Tmin_value>  (5) 
10.0

>  <Tmin_units>  (5) 
K

>  <Tmax_value>  (5) 
3000.0

>  <Tmax_units>  (5) 
K

>  <polynomials>  (5) 
[{"name": "polynomial1", "class": "NASAPolynomial", "Tmin_value": 10.0, "Tmin_units": "K", "Tmax_value": 511.3919089489883, "Tmax_units": "K", "coeffs": [3.8659954757573973, 0.008525616172306112, 0.00010836986673963408, -2.626119315958765e-07, 1.8230598905311024e-10, -60659320.69120562, 8.776064020238547]}, {"name": "polynomial2", "class": "NASAPolynomial", "Tmin_value": 511.3919089489883, "Tmin_units": "K", "Tmax_value": 3000.0, "Tmax_units": "K", "coeffs": [5.628254952966442, 0.022649494843224656, -1.4916539685924306e-05, 4.8216558906608004e-09, -6.002662773476099e-13, -60659865.858327985, -2.111983316915381]}]

>  <H298_value>  (5) 
-120538.51368508991

>  <H298_units>  (5) 
kcal/mol

>  <S298_value>  (5) 
71.92961318485641

>  <S298_units>  (5) 
cal/(mol*K)

>  <Cp_T_value_list>  (5) 
[20.99111005886384, 24.790978026499133, 27.40139790751197, 29.433868246293493, 32.638046849521324, 34.940256474405714, 38.30245845445545, 40.20133175263048, 41.34770744760823]

>  <Cp_T_units>  (5) 
cal/(mol*K)

>  <T_list>  (5) 
[300.0, 400.0, 500.0, 600.0, 800.0, 1000.0, 1500.0, 2000.0, 2400.0]

>  <T_units>  (5) 
K

>  <yaml_path>  (5) 
/home/calvin/Dropbox/PersonalFolders/Calvin/HAb_Converged/rxn_1093/output/Species/rxn_1093_CtC[CH]CtC/rxn_1093_CtCCHCtC.yml

>  <frequencies_cm1>  (5) 
[140.92427273703998, 354.42571332116, 356.18366156308, 383.39752438624004, 580.9812929985999, 582.4370938864399, 598.9659275516799, 670.81519495484, 678.8701687352, 681.5894949219199, 955.0809192615599, 1115.22588390928, 1366.0425227222797, 2023.89971637828, 2119.4194821794795, 3149.0140591483596, 3426.6737435772397, 3430.6016591802795]

>  <ZPE_kJmol>  (5) 
135.26507637113028

>  <E_elec_kJmol>  (5) 
-504485.5253358012

>  <E0_minus_Eelec_plus_ZPE_kJmol>  (5) 
0.0

>  <rxn>  (5) 
rxn_1093

>  <species_type>  (5) 
r0

>  <species_folder>  (5) 
rxn_1093_CtC[CH]CtC

>  <frequencies_cm1_list>  (5) 
[140.92427273703998, 354.42571332116, 356.18366156308, 383.39752438624004, 580.9812929985999, 582.4370938864399, 598.9659275516799, 670.81519495484, 678.8701687352, 681.5894949219199, 955.0809192615599, 1115.22588390928, 1366.0425227222797, 2023.89971637828, 2119.4194821794795, 3149.0140591483596, 3426.6737435772397, 3430.6016591802795]

>  <E0_kJmol>  (5) 
-504350

>  <H298_kJmol>  (5) 
-504333

$$$$
