
     RDKit          3D

 10  9  0  0  0  0  0  0  0  0999 V2000
    0.0030   -0.5585   -1.1582 C   0  0  0  0  0  0  0  0  0  1  0  0
   -0.1486   -0.4108    0.3341 C   0  0  0  0  0  0  0  0  0  2  0  0
    0.1693    0.9044    0.7953 N   0  0  0  0  0  0  0  0  0  3  0  0
    1.0015   -0.2474   -1.4727 H   0  0  0  0  0  0  0  0  0  4  0  0
   -0.7280    0.0553   -1.6946 H   0  0  0  0  0  0  0  0  0  5  0  0
   -0.1460   -1.5949   -1.4617 H   0  0  0  0  0  0  0  0  0  6  0  0
    0.5608   -1.0998    0.8076 H   0  0  0  0  0  0  0  0  0  7  0  0
   -1.1058   -0.8038    0.6967 H   0  0  0  0  0  0  0  0  0  8  0  0
   -0.2306    1.1226    1.6941 H   0  0  0  0  0  0  0  0  0  9  0  0
   -0.0617    1.6295    0.1317 H   0  0  0  0  0  0  0  0  0 10  0  0
  1  5  1  0
  1  4  1  0
  1  6  1  0
  1  2  1  0
  2  3  1  0
  2  8  1  0
  2  7  1  0
  3  9  1  0
  3 10  1  0
M  END
>  <rmg_smiles>  (1) 
CCN

>  <rmg_adjacency_list>  (1) 
1  N u0 p1 c0 {2,S} {9,S} {10,S}
2  C u0 p0 c0 {1,S} {3,S} {4,S} {5,S}
3  C u0 p0 c0 {2,S} {6,S} {7,S} {8,S}
4  H u0 p0 c0 {2,S}
5  H u0 p0 c0 {2,S}
6  H u0 p0 c0 {3,S}
7  H u0 p0 c0 {3,S}
8  H u0 p0 c0 {3,S}
9  H u0 p0 c0 {1,S}
10 H u0 p0 c0 {1,S}


>  <multiplicity>  (1) 
1

>  <reaction>  (1) 
rxn_118

>  <type>  (1) 
r1h

>  <role_mapnums>  (1) 
{"r1h_a": 2, "r1h_h": 7}

>  <role_mapidx>  (1) 
{"r1h_a": 1, "r1h_h": 6}

>  <ordered_mapped_smiles>  (1) 
[C:1]([C:2]([N:3]([H:9])[H:10])([H:7])[H:8])([H:4])([H:5])[H:6]

>  <mol_properties>  (1) 
{"1": {"label": "donator", "atom_type": "Cs"}, "6": {"label": "d_hydrogen", "atom_type": "H0"}}

>  <level_of_theory>  (1) 
wb97xd/def2tzvp

>  <lot_method>  (1) 
wb97xd

>  <lot_basis>  (1) 
def2tzvp

>  <spin_multiplicity>  (1) 
1.0

>  <optical_isomers>  (1) 
1.0

>  <modes>  (1) 
IdealGasTranslation(mass=(45.0579, 'amu')),         NonlinearRotor(             inertia = ([15.7277, 57.3635, 64.2089

>  <frequency_value>  (1) 
unknown

>  <frequency_units>  (1) 
unknown

>  <frequency_list>  (1) 
unknown

>  <arkane_path>  (1) 
/home/calvin/Dropbox/PersonalFolders/Calvin/HAb_Converged/rxn_118/output/Species/rxn_118_CCN/arkane/output.py

>  <path_exists>  (1) 
True

>  <E0_value>  (1) 
-354689.84818470286

>  <E0_units>  (1) 
kJ/mol

>  <thermo_class>  (1) 
NASA

>  <Cp0_value>  (1) 
33.257888

>  <Cp0_units>  (1) 
J/(mol*K)

>  <CpInf_value>  (1) 
232.805216

>  <CpInf_units>  (1) 
J/(mol*K)

>  <Tmin_value>  (1) 
10.0

>  <Tmin_units>  (1) 
K

>  <Tmax_value>  (1) 
3000.0

>  <Tmax_units>  (1) 
K

>  <polynomials>  (1) 
[{"name": "polynomial1", "class": "NASAPolynomial", "Tmin_value": 10.0, "Tmin_units": "K", "Tmax_value": 549.7769733558987, "Tmax_units": "K", "coeffs": [3.978502637787712, 0.0017919643352501413, 6.861727884324767e-05, -1.0050224262377416e-07, 4.7413949587236435e-11, -42659334.4958342, 7.218737236497344]}, {"name": "polynomial2", "class": "NASAPolynomial", "Tmin_value": 549.7769733558987, "Tmin_units": "K", "Tmax_value": 3000.0, "Tmax_units": "K", "coeffs": [-0.4004249279364886, 0.033651417390805606, -1.8306808195141843e-05, 4.902327657624583e-09, -5.163356805599726e-13, -42658853.00592058, 25.724899679540332]}]

>  <H298_value>  (1) 
-84769.53933941506

>  <H298_units>  (1) 
kcal/mol

>  <S298_value>  (1) 
64.92664026144718

>  <S298_units>  (1) 
cal/(mol*K)

>  <Cp_T_value_list>  (1) 
[16.61729792675961, 20.777648064652308, 24.699776608588017, 28.202355622698988, 33.98689948562485, 38.41305189827611, 45.34365899763087, 48.94971995331861, 50.782586135633935]

>  <Cp_T_units>  (1) 
cal/(mol*K)

>  <T_list>  (1) 
[300.0, 400.0, 500.0, 600.0, 800.0, 1000.0, 1500.0, 2000.0, 2400.0]

>  <T_units>  (1) 
K

>  <yaml_path>  (1) 
/home/calvin/Dropbox/PersonalFolders/Calvin/HAb_Converged/rxn_118/output/Species/rxn_118_CCN/rxn_118_CCN.yml

>  <frequencies_cm1>  (1) 
[246.98486100443998, 284.44426592504, 404.4929032892799, 777.63801859276, 840.63574191844, 892.5364169669999, 1003.2871562079599, 1071.39391661172, 1149.12819043412, 1262.16563578664, 1372.6691635560799, 1379.0485929183599, 1398.4134915207599, 1475.28939217816, 1479.96580918108, 1492.8894755533202, 1650.9880785756798, 3000.7489791042394, 3017.20227593096, 3048.6874036231598, 3078.2154404991597, 3080.0832605062, 3485.1873254889597, 3564.0683858597995]

>  <ZPE_kJmol>  (1) 
241.98166850213624

>  <E_elec_kJmol>  (1) 
-354931.829853205

>  <E0_minus_Eelec_plus_ZPE_kJmol>  (1) 
0.0

>  <rxn>  (1) 
rxn_118

>  <species_type>  (1) 
r0

>  <species_folder>  (1) 
rxn_118_CCN

>  <frequencies_cm1_list>  (1) 
[246.98486100443998, 284.44426592504, 404.4929032892799, 777.63801859276, 840.63574191844, 892.5364169669999, 1003.2871562079599, 1071.39391661172, 1149.12819043412, 1262.16563578664, 1372.6691635560799, 1379.0485929183599, 1398.4134915207599, 1475.28939217816, 1479.96580918108, 1492.8894755533202, 1650.9880785756798, 3000.7489791042394, 3017.20227593096, 3048.6874036231598, 3078.2154404991597, 3080.0832605062, 3485.1873254889597, 3564.0683858597995]

>  <E0_kJmol>  (1) 
-354690

>  <H298_kJmol>  (1) 
-354676

$$$$

     RDKit          3D

  4  3  0  0  0  0  0  0  0  0999 V2000
   -0.7876    0.4577   -0.2950 H   0  0  0  0  0  0  0  0  0  1  0  0
    0.0100   -0.0636    0.0764 N   0  0  0  0  0  0  0  0  0  2  0  0
    0.3167   -0.5151   -0.7884 H   0  0  0  0  0  0  0  0  0  3  0  0
    0.6220    0.7518    0.1571 H   0  0  0  0  0  0  0  0  0  4  0  0
  1  2  1  0
  2  4  1  0
  2  3  1  0
M  END
>  <rmg_smiles>  (2) 
N

>  <rmg_adjacency_list>  (2) 
1 N u0 p1 c0 {2,S} {3,S} {4,S}
2 H u0 p0 c0 {1,S}
3 H u0 p0 c0 {1,S}
4 H u0 p0 c0 {1,S}


>  <multiplicity>  (2) 
1

>  <reaction>  (2) 
rxn_118

>  <type>  (2) 
r2h

>  <role_mapnums>  (2) 
{"r2h_a": 2, "r2h_h": 1}

>  <role_mapidx>  (2) 
{"r2h_a": 1, "r2h_h": 0}

>  <ordered_mapped_smiles>  (2) 
[H:1][N:2]([H:3])[H:4]

>  <mol_properties>  (2) 
{"0": {"label": "a_hydrogen", "atom_type": "H0"}, "1": {"label": "acceptor", "atom_type": "N3s"}}

>  <level_of_theory>  (2) 
wb97xd/def2tzvp

>  <lot_method>  (2) 
wb97xd

>  <lot_basis>  (2) 
def2tzvp

>  <spin_multiplicity>  (2) 
1.0

>  <optical_isomers>  (2) 
1.0

>  <modes>  (2) 
IdealGasTranslation(mass=(17.0266, 'amu')),         NonlinearRotor(             inertia = ([1.67808, 1.67808, 2.6816

>  <frequency_value>  (2) 
unknown

>  <frequency_units>  (2) 
unknown

>  <frequency_list>  (2) 
unknown

>  <arkane_path>  (2) 
/home/calvin/Dropbox/PersonalFolders/Calvin/HAb_Converged/rxn_118/output/Species/rxn_118_N/arkane/output.py

>  <path_exists>  (2) 
True

>  <E0_value>  (2) 
-148421.26364269105

>  <E0_units>  (2) 
kJ/mol

>  <thermo_class>  (2) 
NASA

>  <Cp0_value>  (2) 
33.257888

>  <Cp0_units>  (2) 
J/(mol*K)

>  <CpInf_value>  (2) 
83.14472

>  <CpInf_units>  (2) 
J/(mol*K)

>  <Tmin_value>  (2) 
10.0

>  <Tmin_units>  (2) 
K

>  <Tmax_value>  (2) 
3000.0

>  <Tmax_units>  (2) 
K

>  <polynomials>  (2) 
[{"name": "polynomial1", "class": "NASAPolynomial", "Tmin_value": 10.0, "Tmin_units": "K", "Tmax_value": 661.0804506617714, "Tmax_units": "K", "coeffs": [4.018065952450781, -0.0010594462951532533, 7.0068770418278475e-06, -1.9448375260802637e-09, -1.6903909714968277e-12, -17850955.574744247, 0.2630280077390306]}, {"name": "polynomial2", "class": "NASAPolynomial", "Tmin_value": 661.0804506617714, "Tmin_units": "K", "Tmax_value": 3000.0, "Tmax_units": "K", "coeffs": [2.4516557563251014, 0.005556461768624229, -1.5108534204519605e-06, 9.614541938565228e-11, 1.4295840769984746e-14, -17850685.932123393, 7.644744620409682]}]

>  <H298_value>  (2) 
-35471.13537017314

>  <H298_units>  (2) 
kcal/mol

>  <S298_value>  (2) 
45.962578608532034

>  <S298_units>  (2) 
cal/(mol*K)

>  <Cp_T_value_list>  (2) 
[8.474736662297328, 9.037108019992646, 9.720038934265556, 10.464061758445943, 11.893353433479012, 13.130875057040445, 15.468001463496948, 16.92913622142614, 17.662419085416545]

>  <Cp_T_units>  (2) 
cal/(mol*K)

>  <T_list>  (2) 
[300.0, 400.0, 500.0, 600.0, 800.0, 1000.0, 1500.0, 2000.0, 2400.0]

>  <T_units>  (2) 
K

>  <yaml_path>  (2) 
/home/calvin/Dropbox/PersonalFolders/Calvin/HAb_Converged/rxn_118/output/Species/rxn_118_N/rxn_118_N.yml

>  <frequencies_cm1>  (2) 
[1006.65197901476, 1653.7074047623996, 1654.02328608712, 3472.52460455888, 3599.6737047439997, 3600.5252109236794]

>  <ZPE_kJmol>  (2) 
89.64282786797604

>  <E_elec_kJmol>  (2) 
-148510.906470559

>  <E0_minus_Eelec_plus_ZPE_kJmol>  (2) 
0.0

>  <rxn>  (2) 
rxn_118

>  <species_type>  (2) 
p1

>  <species_folder>  (2) 
rxn_118_N

>  <frequencies_cm1_list>  (2) 
[1006.65197901476, 1653.7074047623996, 1654.02328608712, 3472.52460455888, 3599.6737047439997, 3600.5252109236794]

>  <E0_kJmol>  (2) 
-148421

>  <H298_kJmol>  (2) 
-148411

$$$$

     RDKit          3D

 13 11  0  0  0  0  0  0  0  0999 V2000
   -0.4236   -0.1071   -1.5356 C   0  0  0  0  0  0  0  0  0  1  0  0
   -0.5752    0.0406   -0.0433 C   0  0  0  0  0  0  0  0  0  2  0  0
   -0.2573    1.3558    0.4179 N   0  0  0  0  0  0  0  0  0  3  0  0
    0.5749    0.2040   -1.8501 H   0  0  0  0  0  0  0  0  0  4  0  0
   -1.1546    0.5066   -2.0721 H   0  0  0  0  0  0  0  0  0  5  0  0
   -0.5726   -1.1436   -1.8391 H   0  0  0  0  0  0  0  0  0  6  0  0
    0.2239   -0.7355    0.4900 H   0  0  0  0  0  0  0  0  0  7  0  0
   -1.5324   -0.3525    0.3192 H   0  0  0  0  0  0  0  0  0  8  0  0
   -0.6572    1.5739    1.3166 H   0  0  0  0  0  0  0  0  0  9  0  0
   -0.4883    2.0809   -0.2457 H   0  0  0  0  0  0  0  0  0 10  0  0
    1.3118   -1.4465    0.9966 N   0  0  0  0  0  2  0  0  0 11  0  0
    1.6184   -1.8980    0.1318 H   0  0  0  0  0  0  0  0  0 12  0  0
    1.9237   -0.6310    1.0773 H   0  0  0  0  0  0  0  0  0 13  0  0
  1  5  1  0
  1  4  1  0
  1  6  1  0
  1  2  1  0
  2  3  1  0
  2  8  1  0
  2  7  1  0
  3  9  1  0
  3 10  1  0
 11 12  1  0
 11 13  1  0
M  RAD  1  11   2
M  END
>  <rmg_smiles>  (3) 
CCN.[NH2]

>  <rmg_adjacency_list>  (3) 
multiplicity 2
1  N u0 p1 c0 {3,S} {10,S} {11,S}
2  N u1 p1 c0 {12,S} {13,S}
3  C u0 p0 c0 {1,S} {4,S} {5,S} {6,S}
4  C u0 p0 c0 {3,S} {7,S} {8,S} {9,S}
5  H u0 p0 c0 {3,S}
6  H u0 p0 c0 {3,S}
7  H u0 p0 c0 {4,S}
8  H u0 p0 c0 {4,S}
9  H u0 p0 c0 {4,S}
10 H u0 p0 c0 {1,S}
11 H u0 p0 c0 {1,S}
12 H u0 p0 c0 {2,S}
13 H u0 p0 c0 {2,S}


>  <multiplicity>  (3) 
2

>  <reaction>  (3) 
rxn_118

>  <type>  (3) 
ts

>  <role_mapnums>  (3) 
{"*2": 7, "*1": 2, "*3": 11, "*0": 3, "*4": 12}

>  <role_mapidx>  (3) 
{"*2": 6, "*1": 1, "*3": 10, "*0": 2, "*4": 11}

>  <ordered_mapped_smiles>  (3) 
[C:1]([C:2]([N:3]([H:9])[H:10])([H:7])[H:8])([H:4])([H:5])[H:6].[N:11]([H:12])[H:13]

>  <mol_properties>  (3) 
{"1": {"label": "*1", "atom_type": "Cs"}, "2": {"label": "*0", "atom_type": "N3s"}, "6": {"label": "*2", "atom_type": "H0"}, "10": {"label": "*3", "atom_type": "N3s"}, "11": {"label": "*4", "atom_type": "H0"}}

>  <level_of_theory>  (3) 
wb97xd/def2tzvp

>  <lot_method>  (3) 
wb97xd

>  <lot_basis>  (3) 
def2tzvp

>  <spin_multiplicity>  (3) 
2.0

>  <optical_isomers>  (3) 
2.0

>  <modes>  (3) 
IdealGasTranslation(mass=(61.0766, 'amu')),         NonlinearRotor(             inertia = ([62.3148, 116.599, 160.919

>  <frequency_value>  (3) 
-1400.85

>  <frequency_units>  (3) 
cm^-1

>  <frequency_list>  (3) 
unknown

>  <arkane_path>  (3) 
/home/calvin/Dropbox/PersonalFolders/Calvin/HAb_Converged/rxn_118/output/rxns/TS0/arkane/output.py

>  <path_exists>  (3) 
True

>  <E0_value>  (3) 
-501334.0

>  <E0_units>  (3) 
kJ/mol

>  <thermo_class>  (3) 
unknown

>  <Cp0_value>  (3) 
unknown

>  <Cp0_units>  (3) 
unknown

>  <CpInf_value>  (3) 
unknown

>  <CpInf_units>  (3) 
unknown

>  <Tmin_value>  (3) 
unknown

>  <Tmin_units>  (3) 
unknown

>  <Tmax_value>  (3) 
unknown

>  <Tmax_units>  (3) 
unknown

>  <polynomials>  (3) 
unknown

>  <H298_value>  (3) 
unknown

>  <H298_units>  (3) 
unknown

>  <S298_value>  (3) 
unknown

>  <S298_units>  (3) 
unknown

>  <Cp_T_value_list>  (3) 
unknown

>  <Cp_T_units>  (3) 
unknown

>  <T_list>  (3) 
unknown

>  <T_units>  (3) 
unknown

>  <yaml_path>  (3) 
unknown

>  <frequencies_cm1>  (3) 
unknown

>  <ZPE_kJmol>  (3) 
unknown

>  <E_elec_kJmol>  (3) 
unknown

>  <E0_minus_Eelec_plus_ZPE_kJmol>  (3) 
unknown

>  <rxn>  (3) 
unknown

>  <species_type>  (3) 
unknown

>  <species_folder>  (3) 
unknown

>  <frequencies_cm1_list>  (3) 
[]

>  <ts_imag_freq_cm1>  (3) 
-1417.8663

>  <ts_freq_out_path>  (3) 
/home/calvin/Dropbox/PersonalFolders/Calvin/HAb_Converged/rxn_118/output/rxns/TS0/geometry/freq.out

>  <E0_kJmol>  (3) 
-501334

>  <H298_kJmol>  (3) 
unknown

$$$$

     RDKit          3D

  9  8  0  0  0  0  0  0  0  0999 V2000
   -1.1169    0.0984    0.1960 C   0  0  0  0  0  0  0  0  0  1  0  0
    0.2461    0.6091    0.4945 C   0  0  0  0  0  3  0  0  0  2  0  0
    0.8360    1.4588   -0.4414 N   0  0  0  0  0  0  0  0  0  3  0  0
   -1.1390   -0.5493   -0.6933 H   0  0  0  0  0  0  0  0  0  4  0  0
   -1.5047   -0.4792    1.0350 H   0  0  0  0  0  0  0  0  0  5  0  0
   -1.8183    0.9190    0.0077 H   0  0  0  0  0  0  0  0  0  6  0  0
    0.9405   -0.0153    1.0433 H   0  0  0  0  0  0  0  0  0  7  0  0
    1.6989    1.8854   -0.1450 H   0  0  0  0  0  0  0  0  0  8  0  0
    0.2106    2.1422   -0.8415 H   0  0  0  0  0  0  0  0  0  9  0  0
  1  5  1  0
  1  4  1  0
  1  6  1  0
  1  2  1  0
  2  3  1  0
  2  7  1  0
  3  9  1  0
  3  8  1  0
M  RAD  1   2   2
M  END
>  <rmg_smiles>  (4) 
C[CH]N

>  <rmg_adjacency_list>  (4) 
multiplicity 2
1 N u0 p1 c0 {3,S} {8,S} {9,S}
2 C u0 p0 c0 {3,S} {4,S} {5,S} {6,S}
3 C u1 p0 c0 {1,S} {2,S} {7,S}
4 H u0 p0 c0 {2,S}
5 H u0 p0 c0 {2,S}
6 H u0 p0 c0 {2,S}
7 H u0 p0 c0 {3,S}
8 H u0 p0 c0 {1,S}
9 H u0 p0 c0 {1,S}


>  <multiplicity>  (4) 
2

>  <reaction>  (4) 
rxn_118

>  <type>  (4) 
r1

>  <role_mapnums>  (4) 
{}

>  <role_mapidx>  (4) 
{}

>  <ordered_mapped_smiles>  (4) 
[C:1]([C:2]([N:3]([H:8])[H:9])[H:7])([H:4])([H:5])[H:6]

>  <level_of_theory>  (4) 
wb97xd/def2tzvp

>  <lot_method>  (4) 
wb97xd

>  <lot_basis>  (4) 
def2tzvp

>  <spin_multiplicity>  (4) 
2.0

>  <optical_isomers>  (4) 
2.0

>  <modes>  (4) 
IdealGasTranslation(mass=(44.05, 'amu')),         NonlinearRotor(             inertia = ([11.8668, 55.1792, 63.1245

>  <frequency_value>  (4) 
unknown

>  <frequency_units>  (4) 
unknown

>  <frequency_list>  (4) 
unknown

>  <arkane_path>  (4) 
/home/calvin/Dropbox/PersonalFolders/Calvin/HAb_Converged/rxn_118/output/Species/rxn_118_C[CH]N/arkane/output.py

>  <path_exists>  (4) 
True

>  <E0_value>  (4) 
-353003.2481102576

>  <E0_units>  (4) 
kJ/mol

>  <thermo_class>  (4) 
NASA

>  <Cp0_value>  (4) 
33.257888

>  <Cp0_units>  (4) 
J/(mol*K)

>  <CpInf_value>  (4) 
207.8618

>  <CpInf_units>  (4) 
J/(mol*K)

>  <Tmin_value>  (4) 
10.0

>  <Tmin_units>  (4) 
K

>  <Tmax_value>  (4) 
3000.0

>  <Tmax_units>  (4) 
K

>  <polynomials>  (4) 
[{"name": "polynomial1", "class": "NASAPolynomial", "Tmin_value": 10.0, "Tmin_units": "K", "Tmax_value": 379.0726693551117, "Tmax_units": "K", "coeffs": [3.9674508252462535, 0.0021628883194807795, 8.551729684216417e-05, -1.7289187421241572e-07, 1.1630655479156417e-10, -42456483.243215874, 8.467337362605864]}, {"name": "polynomial2", "class": "NASAPolynomial", "Tmin_value": 379.0726693551117, "Tmin_units": "K", "Tmax_value": 3000.0, "Tmax_units": "K", "coeffs": [1.55651542923694, 0.02760305133240903, -1.5149320224879303e-05, 4.146959767843464e-09, -4.5043097207075987e-13, -42456300.45792538, 17.760051487754144]}]

>  <H298_value>  (4) 
-84366.32884294214

>  <H298_units>  (4) 
kcal/mol

>  <S298_value>  (4) 
67.9945452994454

>  <S298_units>  (4) 
cal/(mol*K)

>  <Cp_T_value_list>  (4) 
[17.063896857284984, 20.722031222380576, 23.96755666431186, 26.83117951527098, 31.561088729662043, 35.18701905178999, 40.918180248803935, 43.985066728008846, 45.560896760935016]

>  <Cp_T_units>  (4) 
cal/(mol*K)

>  <T_list>  (4) 
[300.0, 400.0, 500.0, 600.0, 800.0, 1000.0, 1500.0, 2000.0, 2400.0]

>  <T_units>  (4) 
K

>  <yaml_path>  (4) 
/home/calvin/Dropbox/PersonalFolders/Calvin/HAb_Converged/rxn_118/output/Species/rxn_118_C[CH]N/rxn_118_CCHN.yml

>  <frequencies_cm1>  (4) 
[183.54078363295997, 327.040175865, 393.52632773324, 574.6224645922799, 689.29425245096, 929.8653491665199, 989.7042592449999, 1019.3353009008001, 1195.14385906344, 1280.5760234295599, 1386.10785382732, 1440.81025888644, 1459.56399579536, 1478.5306092491999, 1636.8489558018, 2937.24309886488, 3006.82626111244, 3091.5030570933595, 3153.7316780632, 3523.4158327654, 3627.6292019817197]

>  <ZPE_kJmol>  (4) 
205.30831246840225

>  <E_elec_kJmol>  (4) 
-353208.556422726

>  <E0_minus_Eelec_plus_ZPE_kJmol>  (4) 
0.0

>  <rxn>  (4) 
rxn_118

>  <species_type>  (4) 
p0

>  <species_folder>  (4) 
rxn_118_C[CH]N

>  <frequencies_cm1_list>  (4) 
[183.54078363295997, 327.040175865, 393.52632773324, 574.6224645922799, 689.29425245096, 929.8653491665199, 989.7042592449999, 1019.3353009008001, 1195.14385906344, 1280.5760234295599, 1386.10785382732, 1440.81025888644, 1459.56399579536, 1478.5306092491999, 1636.8489558018, 2937.24309886488, 3006.82626111244, 3091.5030570933595, 3153.7316780632, 3523.4158327654, 3627.6292019817197]

>  <E0_kJmol>  (4) 
-353003

>  <H298_kJmol>  (4) 
-352989

$$$$

     RDKit          3D

  3  2  0  0  0  0  0  0  0  0999 V2000
    0.0002    0.4233    0.0000 N   0  0  0  0  0  2  0  0  0  1  0  0
   -0.8051   -0.2112    0.0000 H   0  0  0  0  0  0  0  0  0  2  0  0
    0.8049   -0.2121    0.0000 H   0  0  0  0  0  0  0  0  0  3  0  0
  1  3  1  0
  1  2  1  0
M  RAD  1   1   2
M  END
>  <rmg_smiles>  (5) 
[NH2]

>  <rmg_adjacency_list>  (5) 
multiplicity 2
1 N u1 p1 c0 {2,S} {3,S}
2 H u0 p0 c0 {1,S}
3 H u0 p0 c0 {1,S}


>  <multiplicity>  (5) 
2

>  <reaction>  (5) 
rxn_118

>  <type>  (5) 
r2

>  <role_mapnums>  (5) 
{}

>  <role_mapidx>  (5) 
{}

>  <ordered_mapped_smiles>  (5) 
[N:1]([H:2])[H:3]

>  <level_of_theory>  (5) 
wb97xd/def2tzvp

>  <lot_method>  (5) 
wb97xd

>  <lot_basis>  (5) 
def2tzvp

>  <spin_multiplicity>  (5) 
2.0

>  <optical_isomers>  (5) 
1.0

>  <modes>  (5) 
IdealGasTranslation(mass=(16.0187, 'amu')),         NonlinearRotor(             inertia = ([0.710442, 1.30616, 2.0166

>  <frequency_value>  (5) 
unknown

>  <frequency_units>  (5) 
unknown

>  <frequency_list>  (5) 
unknown

>  <arkane_path>  (5) 
/home/calvin/Dropbox/PersonalFolders/Calvin/HAb_Converged/rxn_118/output/Species/rxn_118_[NH2]/arkane/output.py

>  <path_exists>  (5) 
True

>  <E0_value>  (5) 
-146665.82219964045

>  <E0_units>  (5) 
kJ/mol

>  <thermo_class>  (5) 
NASA

>  <Cp0_value>  (5) 
33.257888

>  <Cp0_units>  (5) 
J/(mol*K)

>  <CpInf_value>  (5) 
58.201304

>  <CpInf_units>  (5) 
J/(mol*K)

>  <Tmin_value>  (5) 
10.0

>  <Tmin_units>  (5) 
K

>  <Tmax_value>  (5) 
3000.0

>  <Tmax_units>  (5) 
K

>  <polynomials>  (5) 
[{"name": "polynomial1", "class": "NASAPolynomial", "Tmin_value": 10.0, "Tmin_units": "K", "Tmax_value": 785.762025652844, "Tmax_units": "K", "coeffs": [4.006150952110655, -0.0003084550413445115, 1.1919167642356156e-06, 1.4835268864917173e-09, -1.3501682773251204e-12, -17639824.212471265, 0.5976393950121619]}, {"name": "polynomial2", "class": "NASAPolynomial", "Tmin_value": 785.762025652844, "Tmin_units": "K", "Tmax_value": 3000.0, "Tmax_units": "K", "coeffs": [3.2706683171239272, 0.0018199930208633956, 2.1290206946552888e-07, -3.0253090271967345e-10, 5.0619779589579903e-14, -17639658.754270043, 4.285961361161453]}]

>  <H298_value>  (5) 
-35051.60272998557

>  <H298_units>  (5) 
kcal/mol

>  <S298_value>  (5) 
46.48569697774424

>  <S298_units>  (5) 
cal/(mol*K)

>  <Cp_T_value_list>  (5) 
[8.048197877278941, 8.214827565402967, 8.447531305278195, 8.735020460220388, 9.397018833396599, 10.038676259975528, 11.356703010007145, 12.225159042044737, 12.643051079877377]

>  <Cp_T_units>  (5) 
cal/(mol*K)

>  <T_list>  (5) 
[300.0, 400.0, 500.0, 600.0, 800.0, 1000.0, 1500.0, 2000.0, 2400.0]

>  <T_units>  (5) 
K

>  <yaml_path>  (5) 
/home/calvin/Dropbox/PersonalFolders/Calvin/HAb_Converged/rxn_118/output/Species/rxn_118_[NH2]/rxn_118_NH2.yml

>  <frequencies_cm1>  (5) 
[1514.64408504708, 3360.6064778135196, 3454.89705324244]

>  <ZPE_kJmol>  (5) 
49.8253618406256

>  <E_elec_kJmol>  (5) 
-146715.64756148108

>  <E0_minus_Eelec_plus_ZPE_kJmol>  (5) 
0.0

>  <rxn>  (5) 
rxn_118

>  <species_type>  (5) 
r1

>  <species_folder>  (5) 
rxn_118_[NH2]

>  <frequencies_cm1_list>  (5) 
[1514.64408504708, 3360.6064778135196, 3454.89705324244]

>  <E0_kJmol>  (5) 
-146666

>  <H298_kJmol>  (5) 
-146656

$$$$
