
     RDKit          3D

 12 11  0  0  0  0  0  0  0  0999 V2000
    0.3060   -1.0051   -1.2355 C   0  0  0  0  0  0  0  0  0  1  0  0
   -0.1164   -0.9684    0.0310 C   0  0  0  0  0  0  0  0  0  2  0  0
   -0.1824    0.2133    0.8877 C   0  0  0  0  0  0  0  0  0  3  0  0
   -0.0432    1.5798    0.2673 C   0  0  0  0  0  0  0  0  0  4  0  0
    0.6033   -0.1104   -1.7690 H   0  0  0  0  0  0  0  0  0  5  0  0
    0.3483   -1.9377   -1.7829 H   0  0  0  0  0  0  0  0  0  6  0  0
   -0.4110   -1.9045    0.4988 H   0  0  0  0  0  0  0  0  0  7  0  0
    0.6873    0.1516    1.5421 H   0  0  0  0  0  0  0  0  0  8  0  0
   -0.9714    0.1518    1.6375 H   0  0  0  0  0  0  0  0  0  9  0  0
   -0.8696    1.7911   -0.4175 H   0  0  0  0  0  0  0  0  0 10  0  0
    0.8867    1.6682   -0.2987 H   0  0  0  0  0  0  0  0  0 11  0  0
   -0.0321    2.3510    1.0379 H   0  0  0  0  0  0  0  0  0 12  0  0
  1  5  1  0
  1  6  1  0
  1  2  1  0
  2  7  1  0
  2  3  1  0
  3  4  1  0
  3  9  1  0
  3  8  1  0
  4 12  1  0
  4 10  1  0
  4 11  1  0
M  END
>  <rmg_smiles>  (1) 
[CH2][CH]CC

>  <rmg_adjacency_list>  (1) 
1  C u0 p0 c0 {2,S} {3,S} {5,S} {6,S}
2  C u0 p0 c0 {1,S} {7,S} {8,S} {9,S}
3  C u0 p0 c0 {1,S} {4,S} {10,S}
4  C u0 p0 c0 {3,S} {11,S} {12,S}
5  H u0 p0 c0 {1,S}
6  H u0 p0 c0 {1,S}
7  H u0 p0 c0 {2,S}
8  H u0 p0 c0 {2,S}
9  H u0 p0 c0 {2,S}
10 H u0 p0 c0 {3,S}
11 H u0 p0 c0 {4,S}
12 H u0 p0 c0 {4,S}


>  <multiplicity>  (1) 
1

>  <reaction>  (1) 
rxn_1077

>  <type>  (1) 
r1h

>  <role_mapnums>  (1) 
{"r1h_a": 3, "r1h_h": 8}

>  <role_mapidx>  (1) 
{"r1h_a": 2, "r1h_h": 7}

>  <ordered_mapped_smiles>  (1) 
[CH:1]([CH:2]([C:3]([C:4]([H:10])([H:11])[H:12])([H:8])[H:9])[H:7])([H:5])[H:6]

>  <mol_properties>  (1) 
{"2": {"label": "donator", "atom_type": "Cs"}, "7": {"label": "d_hydrogen", "atom_type": "H0"}}

>  <level_of_theory>  (1) 
wb97xd/def2tzvp

>  <lot_method>  (1) 
wb97xd

>  <lot_basis>  (1) 
def2tzvp

>  <spin_multiplicity>  (1) 
1.0

>  <optical_isomers>  (1) 
1.0

>  <modes>  (1) 
IdealGasTranslation(mass=(56.0626, 'amu')),         NonlinearRotor(             inertia = ([32.5109, 90.3514, 116.676

>  <frequency_value>  (1) 
unknown

>  <frequency_units>  (1) 
unknown

>  <frequency_list>  (1) 
unknown

>  <arkane_path>  (1) 
/home/calvin/Dropbox/PersonalFolders/Calvin/HAb_Converged/rxn_1077/output/Species/rxn_1077_C=CCC/arkane/output.py

>  <path_exists>  (1) 
True

>  <E0_value>  (1) 
-412516.9632903335

>  <E0_units>  (1) 
kJ/mol

>  <thermo_class>  (1) 
NASA

>  <Cp0_value>  (1) 
33.257888

>  <Cp0_units>  (1) 
J/(mol*K)

>  <CpInf_value>  (1) 
282.692048

>  <CpInf_units>  (1) 
J/(mol*K)

>  <Tmin_value>  (1) 
10.0

>  <Tmin_units>  (1) 
K

>  <Tmax_value>  (1) 
3000.0

>  <Tmax_units>  (1) 
K

>  <polynomials>  (1) 
[{"name": "polynomial1", "class": "NASAPolynomial", "Tmin_value": 10.0, "Tmin_units": "K", "Tmax_value": 488.655875950425, "Tmax_units": "K", "coeffs": [3.9518334489867755, 0.002738214948316711, 0.00010027883330171994, -1.6337813639818567e-07, 8.627420085348335e-11, -49614327.71326204, 8.65572399544736]}, {"name": "polynomial2", "class": "NASAPolynomial", "Tmin_value": 488.655875950425, "Tmin_units": "K", "Tmax_value": 3000.0, "Tmax_units": "K", "coeffs": [-1.0177998638327943, 0.04340046679206265, -2.4485281954071822e-05, 6.761443222838627e-09, -7.324004262046576e-13, -49613841.81296031, 29.07476490076061]}]

>  <H298_value>  (1) 
-98590.13440490302

>  <H298_units>  (1) 
kcal/mol

>  <S298_value>  (1) 
69.88440789589453

>  <S298_units>  (1) 
cal/(mol*K)

>  <Cp_T_value_list>  (1) 
[20.042973263550383, 25.523981497089775, 30.524522062075274, 34.9218382998611, 42.11657803113529, 47.54675281077259, 55.846682187635814, 60.04373230790421, 62.15783038221664]

>  <Cp_T_units>  (1) 
cal/(mol*K)

>  <T_list>  (1) 
[300.0, 400.0, 500.0, 600.0, 800.0, 1000.0, 1500.0, 2000.0, 2400.0]

>  <T_units>  (1) 
K

>  <yaml_path>  (1) 
/home/calvin/Dropbox/PersonalFolders/Calvin/HAb_Converged/rxn_1077/output/Species/rxn_1077_C=CCC/rxn_1077_C=CCC.yml

>  <frequencies_cm1>  (1) 
[165.89949834588, 270.68969432907994, 288.28291071892, 546.5845635307201, 562.94858954828, 802.8192537611999, 842.75764038232, 950.1229558605198, 1001.7077495843599, 1030.7756984439197, 1035.6375240504801, 1103.34599930568, 1142.2200032022, 1284.9434260930798, 1326.2895447048, 1372.0442678919599, 1403.3508539658399, 1441.4282875652402, 1464.212944857, 1485.72034287924, 1496.3092342426798, 1714.90597793424, 3000.2545561612, 3017.2984137254402, 3025.2847176525997, 3087.5545405343596, 3095.4996425496, 3112.8387804825998, 3128.2208275993994, 3206.66926789508]

>  <ZPE_kJmol>  (1) 
283.55462469418285

>  <E_elec_kJmol>  (1) 
-412800.5179150276

>  <E0_minus_Eelec_plus_ZPE_kJmol>  (1) 
0.0

>  <rxn>  (1) 
rxn_1077

>  <species_type>  (1) 
r0

>  <species_folder>  (1) 
rxn_1077_C=CCC

>  <frequencies_cm1_list>  (1) 
[165.89949834588, 270.68969432907994, 288.28291071892, 546.5845635307201, 562.94858954828, 802.8192537611999, 842.75764038232, 950.1229558605198, 1001.7077495843599, 1030.7756984439197, 1035.6375240504801, 1103.34599930568, 1142.2200032022, 1284.9434260930798, 1326.2895447048, 1372.0442678919599, 1403.3508539658399, 1441.4282875652402, 1464.212944857, 1485.72034287924, 1496.3092342426798, 1714.90597793424, 3000.2545561612, 3017.2984137254402, 3025.2847176525997, 3087.5545405343596, 3095.4996425496, 3112.8387804825998, 3128.2208275993994, 3206.66926789508]

>  <E0_kJmol>  (1) 
-412517

>  <H298_kJmol>  (1) 
-412501

$$$$

     RDKit          3D

  7  6  0  0  0  0  0  0  0  0999 V2000
   -1.3623   -0.3705   -0.8358 H   0  0  0  0  0  0  0  0  0  1  0  0
    0.2985   -1.6226   -0.6404 C   0  0  0  0  0  0  0  0  0  2  0  0
   -0.4015   -0.3599   -0.3212 C   0  0  0  0  0  0  0  0  0  3  0  0
    0.0474    0.9409    0.4616 S   0  0  0  0  0  0  0  0  0  4  0  0
   -0.2766   -2.4625   -0.2395 H   0  0  0  0  0  0  0  0  0  5  0  0
    1.3164   -1.6516   -0.2504 H   0  0  0  0  0  0  0  0  0  6  0  0
    0.3070   -1.7553   -1.7264 H   0  0  0  0  0  0  0  0  0  7  0  0
  1  3  1  0
  2  7  1  0
  2  5  1  0
  2  6  1  0
  2  3  1  0
  3  4  1  0
M  END
>  <rmg_smiles>  (2) 
C[CH][S]

>  <rmg_adjacency_list>  (2) 
1 S u0 p2 c0 {3,S}
2 C u0 p0 c0 {3,S} {4,S} {5,S} {6,S}
3 C u0 p0 c0 {1,S} {2,S} {7,S}
4 H u0 p0 c0 {2,S}
5 H u0 p0 c0 {2,S}
6 H u0 p0 c0 {2,S}
7 H u0 p0 c0 {3,S}


>  <multiplicity>  (2) 
1

>  <reaction>  (2) 
rxn_1077

>  <type>  (2) 
r2h

>  <role_mapnums>  (2) 
{"r2h_a": 3, "r2h_h": 1}

>  <role_mapidx>  (2) 
{"r2h_a": 2, "r2h_h": 0}

>  <ordered_mapped_smiles>  (2) 
[H:1][CH:3]([C:2]([H:5])([H:6])[H:7])[SH:4]

>  <mol_properties>  (2) 
{"0": {"label": "a_hydrogen", "atom_type": "H0"}, "2": {"label": "acceptor", "atom_type": "Cs"}}

>  <level_of_theory>  (2) 
wb97xd/def2tzvp

>  <lot_method>  (2) 
wb97xd

>  <lot_basis>  (2) 
def2tzvp

>  <spin_multiplicity>  (2) 
1.0

>  <optical_isomers>  (2) 
1.0

>  <modes>  (2) 
IdealGasTranslation(mass=(60.0034, 'amu')),         NonlinearRotor(             inertia = ([10.1821, 87.4169, 94.5043

>  <frequency_value>  (2) 
unknown

>  <frequency_units>  (2) 
unknown

>  <frequency_list>  (2) 
unknown

>  <arkane_path>  (2) 
/home/calvin/Dropbox/PersonalFolders/Calvin/HAb_Converged/rxn_1077/output/Species/rxn_1077_CC=S/arkane/output.py

>  <path_exists>  (2) 
True

>  <E0_value>  (2) 
-1251692.87971102

>  <E0_units>  (2) 
kJ/mol

>  <thermo_class>  (2) 
NASA

>  <Cp0_value>  (2) 
33.257888

>  <Cp0_units>  (2) 
J/(mol*K)

>  <CpInf_value>  (2) 
157.97496800000002

>  <CpInf_units>  (2) 
J/(mol*K)

>  <Tmin_value>  (2) 
10.0

>  <Tmin_units>  (2) 
K

>  <Tmax_value>  (2) 
3000.0

>  <Tmax_units>  (2) 
K

>  <polynomials>  (2) 
[{"name": "polynomial1", "class": "NASAPolynomial", "Tmin_value": 10.0, "Tmin_units": "K", "Tmax_value": 485.39622899743466, "Tmax_units": "K", "coeffs": [3.975940530572461, 0.0013748720414305338, 5.132788135128821e-05, -8.432386137464513e-08, 4.4867749425835864e-11, -150543879.09878448, 8.090912724756667]}, {"name": "polynomial2", "class": "NASAPolynomial", "Tmin_value": 485.39622899743466, "Tmin_units": "K", "Tmax_value": 3000.0, "Tmax_units": "K", "coeffs": [1.4651349812966712, 0.022068299956711855, -1.2628378415974456e-05, 3.5280372570941277e-09, -3.855767973354191e-13, -150543635.38297567, 18.3889911716905]}]

>  <H298_value>  (2) 
-299158.68811573734

>  <H298_units>  (2) 
kcal/mol

>  <S298_value>  (2) 
65.13190747939298

>  <S298_units>  (2) 
cal/(mol*K)

>  <Cp_T_value_list>  (2) 
[14.098427248842778, 16.871855394466547, 19.393339934655586, 21.604877323173096, 25.209772375709086, 27.915317068508738, 32.01166447471848, 34.0672583894089, 35.111294878115146]

>  <Cp_T_units>  (2) 
cal/(mol*K)

>  <T_list>  (2) 
[300.0, 400.0, 500.0, 600.0, 800.0, 1000.0, 1500.0, 2000.0, 2400.0]

>  <T_units>  (2) 
K

>  <yaml_path>  (2) 
/home/calvin/Dropbox/PersonalFolders/Calvin/HAb_Converged/rxn_1077/output/Species/rxn_1077_CC=S/rxn_1077_CC=S.yml

>  <frequencies_cm1>  (2) 
[170.46604358368, 396.01217641908, 770.63369356636, 837.4425937446399, 1045.2719044544401, 1080.9115582652398, 1167.33943550276, 1373.61680753024, 1381.75418513444, 1457.57943703788, 1469.4661886268, 3002.45885844892, 3059.70204807644, 3060.7801647716797, 3125.5770382512]

>  <ZPE_kJmol>  (2) 
139.95721324395197

>  <E_elec_kJmol>  (2) 
-1251832.836924264

>  <E0_minus_Eelec_plus_ZPE_kJmol>  (2) 
0.0

>  <rxn>  (2) 
rxn_1077

>  <species_type>  (2) 
p0

>  <species_folder>  (2) 
rxn_1077_CC=S

>  <frequencies_cm1_list>  (2) 
[170.46604358368, 396.01217641908, 770.63369356636, 837.4425937446399, 1045.2719044544401, 1080.9115582652398, 1167.33943550276, 1373.61680753024, 1381.75418513444, 1457.57943703788, 1469.4661886268, 3002.45885844892, 3059.70204807644, 3060.7801647716797, 3125.5770382512]

>  <E0_kJmol>  (2) 
-1.25169e+06

>  <H298_kJmol>  (2) 
-1.25168e+06

$$$$

     RDKit          3D

 18 16  0  0  0  0  0  0  0  0999 V2000
   -0.9370   -1.2181   -2.7018 C   0  0  0  0  0  0  0  0  0  1  0  0
   -1.3594   -1.1814   -1.4353 C   0  0  0  0  0  0  0  0  0  2  0  0
   -1.4254    0.0003   -0.5786 C   0  0  0  0  0  0  0  0  0  3  0  0
   -1.2862    1.3668   -1.1990 C   0  0  0  0  0  0  0  0  0  4  0  0
   -0.6397   -0.3233   -3.2354 H   0  0  0  0  0  0  0  0  0  5  0  0
   -0.8947   -2.1507   -3.2492 H   0  0  0  0  0  0  0  0  0  6  0  0
   -1.6540   -2.1175   -0.9675 H   0  0  0  0  0  0  0  0  0  7  0  0
   -0.3687   -0.0747    0.2164 H   0  0  0  0  0  0  0  0  0  8  0  0
   -2.2144   -0.0612    0.1712 H   0  0  0  0  0  0  0  0  0  9  0  0
   -2.1127    1.5782   -1.8838 H   0  0  0  0  0  0  0  0  0 10  0  0
   -0.3563    1.4552   -1.7650 H   0  0  0  0  0  0  0  0  0 11  0  0
   -1.2751    2.1381   -0.4284 H   0  0  0  0  0  0  0  0  0 12  0  0
    1.5530   -1.3239    0.5515 C   0  0  0  0  0  0  0  0  0 13  0  0
    0.8531   -0.0613    0.8707 C   0  0  0  0  0  3  0  0  0 14  0  0
    1.3019    1.2395    1.6535 S   0  0  0  0  0  0  0  0  0 15  0  0
    0.9779   -2.1638    0.9524 H   0  0  0  0  0  0  0  0  0 16  0  0
    2.5709   -1.3530    0.9415 H   0  0  0  0  0  0  0  0  0 17  0  0
    1.5616   -1.4567   -0.5345 H   0  0  0  0  0  0  0  0  0 18  0  0
  1  5  1  0
  1  6  1  0
  1  2  1  0
  2  7  1  0
  2  3  1  0
  3  4  1  0
  3  9  1  0
  3  8  1  0
  4 12  1  0
  4 10  1  0
  4 11  1  0
 13 17  1  0
 13 14  1  0
 13 16  1  0
 13 18  1  0
 14 15  1  0
M  RAD  1  14   2
M  END
>  <rmg_smiles>  (3) 
[CH2][CH]CC.C[C][S]

>  <rmg_adjacency_list>  (3) 
multiplicity 2
1  S u0 p2 c0 {7,S}
2  C u0 p0 c0 {3,S} {5,S} {8,S} {9,S}
3  C u0 p0 c0 {2,S} {10,S} {11,S} {12,S}
4  C u0 p0 c0 {7,S} {13,S} {14,S} {15,S}
5  C u0 p0 c0 {2,S} {6,S} {16,S}
6  C u0 p0 c0 {5,S} {17,S} {18,S}
7  C u1 p1 c0 {1,S} {4,S}
8  H u0 p0 c0 {2,S}
9  H u0 p0 c0 {2,S}
10 H u0 p0 c0 {3,S}
11 H u0 p0 c0 {3,S}
12 H u0 p0 c0 {3,S}
13 H u0 p0 c0 {4,S}
14 H u0 p0 c0 {4,S}
15 H u0 p0 c0 {4,S}
16 H u0 p0 c0 {5,S}
17 H u0 p0 c0 {6,S}
18 H u0 p0 c0 {6,S}


>  <multiplicity>  (3) 
2

>  <reaction>  (3) 
rxn_1077

>  <type>  (3) 
ts

>  <role_mapnums>  (3) 
{"*2": 8, "*1": 3, "*3": 14, "*0": 2, "*4": 15}

>  <role_mapidx>  (3) 
{"*2": 7, "*1": 2, "*3": 13, "*0": 1, "*4": 14}

>  <ordered_mapped_smiles>  (3) 
[CH:1]([CH:2]([C:3]([C:4]([H:10])([H:11])[H:12])([H:8])[H:9])[H:7])([H:5])[H:6].[C:13]([CH:14][SH:15])([H:16])([H:17])[H:18]

>  <mol_properties>  (3) 
{"1": {"label": "*0", "atom_type": "Cs"}, "2": {"label": "*1", "atom_type": "Cs"}, "7": {"label": "*2", "atom_type": "H0"}, "13": {"label": "*3", "atom_type": "C2s"}, "14": {"label": "*4", "atom_type": "S2s"}}

>  <level_of_theory>  (3) 
wb97xd/def2tzvp

>  <lot_method>  (3) 
wb97xd

>  <lot_basis>  (3) 
def2tzvp

>  <spin_multiplicity>  (3) 
2.0

>  <optical_isomers>  (3) 
2.0

>  <modes>  (3) 
IdealGasTranslation(mass=(115.058, 'amu')),         NonlinearRotor(             inertia = ([164.518, 473.21, 586.144

>  <frequency_value>  (3) 
-1798.56

>  <frequency_units>  (3) 
cm^-1

>  <frequency_list>  (3) 
unknown

>  <arkane_path>  (3) 
/home/calvin/Dropbox/PersonalFolders/Calvin/HAb_Converged/rxn_1077/output/rxns/TS0/arkane/output.py

>  <path_exists>  (3) 
True

>  <E0_value>  (3) 
-1662470.0

>  <E0_units>  (3) 
kJ/mol

>  <thermo_class>  (3) 
unknown

>  <Cp0_value>  (3) 
unknown

>  <Cp0_units>  (3) 
unknown

>  <CpInf_value>  (3) 
unknown

>  <CpInf_units>  (3) 
unknown

>  <Tmin_value>  (3) 
unknown

>  <Tmin_units>  (3) 
unknown

>  <Tmax_value>  (3) 
unknown

>  <Tmax_units>  (3) 
unknown

>  <polynomials>  (3) 
unknown

>  <H298_value>  (3) 
unknown

>  <H298_units>  (3) 
unknown

>  <S298_value>  (3) 
unknown

>  <S298_units>  (3) 
unknown

>  <Cp_T_value_list>  (3) 
unknown

>  <Cp_T_units>  (3) 
unknown

>  <T_list>  (3) 
unknown

>  <T_units>  (3) 
unknown

>  <yaml_path>  (3) 
unknown

>  <frequencies_cm1>  (3) 
unknown

>  <ZPE_kJmol>  (3) 
unknown

>  <E_elec_kJmol>  (3) 
unknown

>  <E0_minus_Eelec_plus_ZPE_kJmol>  (3) 
unknown

>  <rxn>  (3) 
unknown

>  <species_type>  (3) 
unknown

>  <species_folder>  (3) 
unknown

>  <frequencies_cm1_list>  (3) 
[]

>  <ts_imag_freq_cm1>  (3) 
-1820.4027

>  <ts_freq_out_path>  (3) 
/home/calvin/Dropbox/PersonalFolders/Calvin/HAb_Converged/rxn_1077/output/rxns/TS0/geometry/freq.out

>  <E0_kJmol>  (3) 
-1.66247e+06

>  <H298_kJmol>  (3) 
unknown

$$$$

     RDKit          3D

 11 10  0  0  0  0  0  0  0  0999 V2000
    2.0591    0.2533   -0.1061 C   0  0  0  0  0  0  0  0  0  1  0  0
    0.8045   -0.3111   -0.1535 C   0  0  0  0  0  0  0  0  0  2  0  0
   -0.3816    0.3942   -0.1885 C   0  0  0  0  0  3  0  0  0  3  0  0
   -1.7316   -0.2294   -0.2396 C   0  0  0  0  0  0  0  0  0  4  0  0
    2.9505   -0.3576   -0.0805 H   0  0  0  0  0  0  0  0  0  5  0  0
    2.1872    1.3290   -0.0933 H   0  0  0  0  0  0  0  0  0  6  0  0
    0.7385   -1.3970   -0.1643 H   0  0  0  0  0  0  0  0  0  7  0  0
   -0.3340    1.4795   -0.1783 H   0  0  0  0  0  0  0  0  0  8  0  0
   -1.6704   -1.3186   -0.2461 H   0  0  0  0  0  0  0  0  0  9  0  0
   -2.3404    0.0713    0.6191 H   0  0  0  0  0  0  0  0  0 10  0  0
   -2.2805    0.0851   -1.1331 H   0  0  0  0  0  0  0  0  0 11  0  0
  1  5  1  0
  1  6  1  0
  1  2  1  0
  2  7  1  0
  2  3  1  0
  3  4  1  0
  3  8  1  0
  4  9  1  0
  4 10  1  0
  4 11  1  0
M  RAD  1   3   2
M  END
>  <rmg_smiles>  (4) 
[CH2][CH][CH]C

>  <rmg_adjacency_list>  (4) 
multiplicity 2
1  C u0 p0 c0 {2,S} {5,S} {6,S} {7,S}
2  C u1 p0 c0 {1,S} {3,S} {8,S}
3  C u0 p0 c0 {2,S} {4,S} {9,S}
4  C u0 p0 c0 {3,S} {10,S} {11,S}
5  H u0 p0 c0 {1,S}
6  H u0 p0 c0 {1,S}
7  H u0 p0 c0 {1,S}
8  H u0 p0 c0 {2,S}
9  H u0 p0 c0 {3,S}
10 H u0 p0 c0 {4,S}
11 H u0 p0 c0 {4,S}


>  <multiplicity>  (4) 
2

>  <reaction>  (4) 
rxn_1077

>  <type>  (4) 
r1

>  <role_mapnums>  (4) 
{}

>  <role_mapidx>  (4) 
{}

>  <ordered_mapped_smiles>  (4) 
[CH:1]([CH:2]([C:3]([C:4]([H:9])([H:10])[H:11])[H:8])[H:7])([H:5])[H:6]

>  <level_of_theory>  (4) 
wb97xd/def2tzvp

>  <lot_method>  (4) 
wb97xd

>  <lot_basis>  (4) 
def2tzvp

>  <spin_multiplicity>  (4) 
2.0

>  <optical_isomers>  (4) 
1.0

>  <modes>  (4) 
IdealGasTranslation(mass=(55.0548, 'amu')),         NonlinearRotor(             inertia = ([13.1906, 125.273, 135.366

>  <frequency_value>  (4) 
unknown

>  <frequency_units>  (4) 
unknown

>  <frequency_list>  (4) 
unknown

>  <arkane_path>  (4) 
/home/calvin/Dropbox/PersonalFolders/Calvin/HAb_Converged/rxn_1077/output/Species/rxn_1077_C=C[CH]C/arkane/output.py

>  <path_exists>  (4) 
True

>  <E0_value>  (4) 
-410861.3152330692

>  <E0_units>  (4) 
kJ/mol

>  <thermo_class>  (4) 
NASA

>  <Cp0_value>  (4) 
33.257888

>  <Cp0_units>  (4) 
J/(mol*K)

>  <CpInf_value>  (4) 
257.748632

>  <CpInf_units>  (4) 
J/(mol*K)

>  <Tmin_value>  (4) 
10.0

>  <Tmin_units>  (4) 
K

>  <Tmax_value>  (4) 
3000.0

>  <Tmax_units>  (4) 
K

>  <polynomials>  (4) 
[{"name": "polynomial1", "class": "NASAPolynomial", "Tmin_value": 10.0, "Tmin_units": "K", "Tmax_value": 463.6393307218724, "Tmax_units": "K", "coeffs": [3.9040427866109826, 0.008185983411080414, 7.727991952880457e-05, -1.3744264793304484e-07, 7.688975074355223e-11, -49415200.70388584, 8.995587426851019]}, {"name": "polynomial2", "class": "NASAPolynomial", "Tmin_value": 463.6393307218724, "Tmin_units": "K", "Tmax_value": 3000.0, "Tmax_units": "K", "coeffs": [0.3179549217714686, 0.039124611253892716, -2.281509301051405e-05, 6.484032923156998e-09, -7.173482644836273e-13, -49414868.17391742, 23.539944648157388]}]

>  <H298_value>  (4) 
-98194.28584360852

>  <H298_units>  (4) 
kcal/mol

>  <S298_value>  (4) 
71.63337428638437

>  <S298_units>  (4) 
cal/(mol*K)

>  <Cp_T_value_list>  (4) 
[20.32293445175687, 25.26787004109902, 29.6931518167585, 33.55769976572619, 39.8275597158211, 44.50181601093726, 51.51425090015371, 55.048594012523054, 56.90855371865896]

>  <Cp_T_units>  (4) 
cal/(mol*K)

>  <T_list>  (4) 
[300.0, 400.0, 500.0, 600.0, 800.0, 1000.0, 1500.0, 2000.0, 2400.0]

>  <T_units>  (4) 
K

>  <yaml_path>  (4) 
/home/calvin/Dropbox/PersonalFolders/Calvin/HAb_Converged/rxn_1077/output/Species/rxn_1077_C=C[CH]C/rxn_1077_C=CCHC.yml

>  <frequencies_cm1>  (4) 
[145.86850216744, 217.17527773031998, 290.56274984515994, 508.82301125604, 544.53820190536, 739.89020028872, 798.30764440596, 881.33636391008, 988.4682018873999, 989.4158458615598, 1023.15334473872, 1138.3744914229999, 1188.9155033782, 1281.84641571376, 1335.3196304005999, 1400.47358711676, 1459.61893167792, 1463.37517264796, 1502.4895210306797, 1514.45180945812, 2991.0802637736797, 3039.3139686613595, 3086.1330745731198, 3108.55378164292, 3124.5401234678798, 3127.2937845812003, 3223.3011063401195]

>  <ZPE_kJmol>  (4) 
245.90815043438468

>  <E_elec_kJmol>  (4) 
-411107.2233835036

>  <E0_minus_Eelec_plus_ZPE_kJmol>  (4) 
0.0

>  <rxn>  (4) 
rxn_1077

>  <species_type>  (4) 
p1

>  <species_folder>  (4) 
rxn_1077_C=C[CH]C

>  <frequencies_cm1_list>  (4) 
[145.86850216744, 217.17527773031998, 290.56274984515994, 508.82301125604, 544.53820190536, 739.89020028872, 798.30764440596, 881.33636391008, 988.4682018873999, 989.4158458615598, 1023.15334473872, 1138.3744914229999, 1188.9155033782, 1281.84641571376, 1335.3196304005999, 1400.47358711676, 1459.61893167792, 1463.37517264796, 1502.4895210306797, 1514.45180945812, 2991.0802637736797, 3039.3139686613595, 3086.1330745731198, 3108.55378164292, 3124.5401234678798, 3127.2937845812003, 3223.3011063401195]

>  <E0_kJmol>  (4) 
-410861

>  <H298_kJmol>  (4) 
-410845

$$$$

     RDKit          3D

  6  5  0  0  0  0  0  0  0  0999 V2000
   -0.5122    0.0768    0.0308 C   0  0  0  0  0  0  0  0  0  1  0  0
    0.8187   -0.5412    0.0796 C   0  0  0  0  0  3  0  0  0  2  0  0
    2.3075   -0.1693   -0.1934 S   0  0  0  0  0  0  0  0  0  3  0  0
   -1.1499   -0.5003   -0.6435 H   0  0  0  0  0  0  0  0  0  4  0  0
   -0.4913    1.1218   -0.2933 H   0  0  0  0  0  0  0  0  0  5  0  0
   -0.9729    0.0121    1.0198 H   0  0  0  0  0  0  0  0  0  6  0  0
  1  5  1  0
  1  4  1  0
  1  6  1  0
  1  2  1  0
  2  3  1  0
M  RAD  1   2   2
M  END
>  <rmg_smiles>  (5) 
C[C][S]

>  <rmg_adjacency_list>  (5) 
multiplicity 2
1 S u0 p2 c0 {3,S}
2 C u0 p0 c0 {3,S} {4,S} {5,S} {6,S}
3 C u1 p1 c0 {1,S} {2,S}
4 H u0 p0 c0 {2,S}
5 H u0 p0 c0 {2,S}
6 H u0 p0 c0 {2,S}


>  <multiplicity>  (5) 
2

>  <reaction>  (5) 
rxn_1077

>  <type>  (5) 
r2

>  <role_mapnums>  (5) 
{}

>  <role_mapidx>  (5) 
{}

>  <ordered_mapped_smiles>  (5) 
[C:1]([CH:2][SH:3])([H:4])([H:5])[H:6]

>  <level_of_theory>  (5) 
wb97xd/def2tzvp

>  <lot_method>  (5) 
wb97xd

>  <lot_basis>  (5) 
def2tzvp

>  <spin_multiplicity>  (5) 
2.0

>  <optical_isomers>  (5) 
1.0

>  <modes>  (5) 
IdealGasTranslation(mass=(58.9956, 'amu')),         NonlinearRotor(             inertia = ([5.66956, 91.6028, 94.188

>  <frequency_value>  (5) 
unknown

>  <frequency_units>  (5) 
unknown

>  <frequency_list>  (5) 
unknown

>  <arkane_path>  (5) 
/home/calvin/Dropbox/PersonalFolders/Calvin/HAb_Converged/rxn_1077/output/Species/rxn_1077_C[C]=S/arkane/output.py

>  <path_exists>  (5) 
True

>  <E0_value>  (5) 
-1250003.2064697412

>  <E0_units>  (5) 
kJ/mol

>  <thermo_class>  (5) 
NASA

>  <Cp0_value>  (5) 
33.257888

>  <Cp0_units>  (5) 
J/(mol*K)

>  <CpInf_value>  (5) 
133.031552

>  <CpInf_units>  (5) 
J/(mol*K)

>  <Tmin_value>  (5) 
10.0

>  <Tmin_units>  (5) 
K

>  <Tmax_value>  (5) 
3000.0

>  <Tmax_units>  (5) 
K

>  <polynomials>  (5) 
[{"name": "polynomial1", "class": "NASAPolynomial", "Tmin_value": 10.0, "Tmin_units": "K", "Tmax_value": 414.44677525934173, "Tmax_units": "K", "coeffs": [3.872219547927293, 0.01417582799361342, -4.2454878795341005e-05, 1.2618868438038093e-07, -1.176848396805122e-10, -150340659.2522728, 8.372915621098704]}, {"name": "polynomial2", "class": "NASAPolynomial", "Tmin_value": 414.44677525934173, "Tmin_units": "K", "Tmax_value": 3000.0, "Tmax_units": "K", "coeffs": [2.268359583677218, 0.017428993813110416, -9.978350674385302e-06, 2.7676369353202912e-09, -2.986417988306334e-13, -150340421.30562183, 15.964709724322582]}]

>  <H298_value>  (5) 
-298754.7512718367

>  <H298_units>  (5) 
kcal/mol

>  <S298_value>  (5) 
66.87693647175914

>  <S298_units>  (5) 
cal/(mol*K)

>  <Cp_T_value_list>  (5) 
[13.42929538075257, 15.526271018247717, 17.51833481523105, 19.26130748391666, 22.097968063775216, 24.22006857882825, 27.4025082053865, 28.965067312171282, 29.756906478052738]

>  <Cp_T_units>  (5) 
cal/(mol*K)

>  <T_list>  (5) 
[300.0, 400.0, 500.0, 600.0, 800.0, 1000.0, 1500.0, 2000.0, 2400.0]

>  <T_units>  (5) 
K

>  <yaml_path>  (5) 
/home/calvin/Dropbox/PersonalFolders/Calvin/HAb_Converged/rxn_1077/output/Species/rxn_1077_C[C]=S/rxn_1077_CC=S.yml

>  <frequencies_cm1>  (5) 
[110.24258232727999, 320.62641157612, 796.9823162391999, 970.2912917453599, 1043.01953326948, 1358.45450394368, 1382.55075543156, 1440.90639668092, 1457.8953183626, 2987.6124361870793, 3069.2540246565595, 3079.1768184439593]

>  <ZPE_kJmol>  (5) 
107.7656967118827

>  <E_elec_kJmol>  (5) 
-1250110.972166453

>  <E0_minus_Eelec_plus_ZPE_kJmol>  (5) 
0.0

>  <rxn>  (5) 
rxn_1077

>  <species_type>  (5) 
r1

>  <species_folder>  (5) 
rxn_1077_C[C]=S

>  <frequencies_cm1_list>  (5) 
[110.24258232727999, 320.62641157612, 796.9823162391999, 970.2912917453599, 1043.01953326948, 1358.45450394368, 1382.55075543156, 1440.90639668092, 1457.8953183626, 2987.6124361870793, 3069.2540246565595, 3079.1768184439593]

>  <E0_kJmol>  (5) 
-1.25e+06

>  <H298_kJmol>  (5) 
-1.24999e+06

$$$$
