
     RDKit          3D

 10  9  0  0  0  0  0  0  0  0999 V2000
    0.8059   -0.2212   -1.2889 S   0  0  0  0  0  0  0  0  0  1  0  0
   -0.2611   -0.5475    0.0862 C   0  0  0  0  0  0  0  0  0  2  0  0
   -0.2871    0.5004    1.0970 C   0  0  0  0  0  0  0  0  0  3  0  0
   -1.3354    0.7453    1.8841 C   0  0  0  0  0  0  0  0  0  4  0  0
    0.7738   -1.4569   -1.8066 H   0  0  0  0  0  0  0  0  0  5  0  0
    0.1480   -1.4318    0.5713 H   0  0  0  0  0  0  0  0  0  6  0  0
   -1.2331   -0.9572   -0.1821 H   0  0  0  0  0  0  0  0  0  7  0  0
    0.6282    1.0696    1.2310 H   0  0  0  0  0  0  0  0  0  8  0  0
   -1.2940    1.5059    2.6521 H   0  0  0  0  0  0  0  0  0  9  0  0
   -2.2610    0.1902    1.7845 H   0  0  0  0  0  0  0  0  0 10  0  0
  1  2  1  0
  1  5  1  0
  2  7  1  0
  2  6  1  0
  2  3  1  0
  3  4  1  0
  3  8  1  0
  4  9  1  0
  4 10  1  0
M  END
>  <rmg_smiles>  (1) 
[CH2][CH]CS

>  <rmg_adjacency_list>  (1) 
1  S u0 p2 c0 {2,S} {10,S}
2  C u0 p0 c0 {1,S} {3,S} {5,S} {6,S}
3  C u0 p0 c0 {2,S} {4,S} {7,S}
4  C u0 p0 c0 {3,S} {8,S} {9,S}
5  H u0 p0 c0 {2,S}
6  H u0 p0 c0 {2,S}
7  H u0 p0 c0 {3,S}
8  H u0 p0 c0 {4,S}
9  H u0 p0 c0 {4,S}
10 H u0 p0 c0 {1,S}


>  <multiplicity>  (1) 
1

>  <reaction>  (1) 
rxn_466

>  <type>  (1) 
r1h

>  <role_mapnums>  (1) 
{"r1h_a": 2, "r1h_h": 6}

>  <role_mapidx>  (1) 
{"r1h_a": 1, "r1h_h": 5}

>  <ordered_mapped_smiles>  (1) 
[S:1]([C:2]([CH:3]([CH:4]([H:9])[H:10])[H:8])([H:6])[H:7])[H:5]

>  <mol_properties>  (1) 
{"1": {"label": "donator", "atom_type": "Cs"}, "5": {"label": "d_hydrogen", "atom_type": "H0"}}

>  <level_of_theory>  (1) 
wb97xd/def2tzvp

>  <lot_method>  (1) 
wb97xd

>  <lot_basis>  (1) 
def2tzvp

>  <spin_multiplicity>  (1) 
1.0

>  <optical_isomers>  (1) 
2.0

>  <modes>  (1) 
IdealGasTranslation(mass=(74.019, 'amu')),         NonlinearRotor(             inertia = ([24.9739, 180.25, 186.44

>  <frequency_value>  (1) 
unknown

>  <frequency_units>  (1) 
unknown

>  <frequency_list>  (1) 
unknown

>  <arkane_path>  (1) 
/home/calvin/Dropbox/PersonalFolders/Calvin/HAb_Converged/rxn_466/output/Species/rxn_466_SCC=C/arkane/output.py

>  <path_exists>  (1) 
True

>  <E0_value>  (1) 
-1354838.6258243525

>  <E0_units>  (1) 
kJ/mol

>  <thermo_class>  (1) 
NASA

>  <Cp0_value>  (1) 
33.257888

>  <Cp0_units>  (1) 
J/(mol*K)

>  <CpInf_value>  (1) 
232.805216

>  <CpInf_units>  (1) 
J/(mol*K)

>  <Tmin_value>  (1) 
10.0

>  <Tmin_units>  (1) 
K

>  <Tmax_value>  (1) 
3000.0

>  <Tmax_units>  (1) 
K

>  <polynomials>  (1) 
[{"name": "polynomial1", "class": "NASAPolynomial", "Tmin_value": 10.0, "Tmin_units": "K", "Tmax_value": 400.65806020409946, "Tmax_units": "K", "coeffs": [3.883268576252178, 0.009872966694517036, 7.267081741219709e-05, -1.4952606927169204e-07, 9.638969446192109e-11, -162949446.9996889, 10.213451719731799]}, {"name": "polynomial2", "class": "NASAPolynomial", "Tmin_value": 400.65806020409946, "Tmin_units": "K", "Tmax_value": 3000.0, "Tmax_units": "K", "coeffs": [1.381946217098182, 0.03484518856752169, -2.0821510203899097e-05, 6.039055448516005e-09, -6.791318499482445e-13, -162949246.56534788, 19.9930512432755]}]

>  <H298_value>  (1) 
-323810.2515366824

>  <H298_units>  (1) 
kcal/mol

>  <S298_value>  (1) 
74.2752341119096

>  <S298_units>  (1) 
cal/(mol*K)

>  <Cp_T_value_list>  (1) 
[20.12858317623335, 24.557289426072625, 28.44010285073442, 31.814651802239496, 37.252480139055294, 41.26543233779768, 47.186294391719805, 50.14241959560657, 51.7278549409484]

>  <Cp_T_units>  (1) 
cal/(mol*K)

>  <T_list>  (1) 
[300.0, 400.0, 500.0, 600.0, 800.0, 1000.0, 1500.0, 2000.0, 2400.0]

>  <T_units>  (1) 
K

>  <yaml_path>  (1) 
/home/calvin/Dropbox/PersonalFolders/Calvin/HAb_Converged/rxn_466/output/Species/rxn_466_SCC=C/rxn_466_SCC=C.yml

>  <frequencies_cm1>  (1) 
[109.00652496968, 245.3917204102, 290.63828668367995, 415.01999178484, 607.7556687612799, 738.8738864613599, 795.00462446704, 935.2971345546399, 957.23715265204, 997.0931354493199, 1031.7164754327598, 1111.56578073372, 1232.59639699872, 1263.93045101388, 1318.41311254276, 1435.2480007772401, 1465.33226346416, 1711.0192642431198, 2696.8986126648797, 3040.5500260189597, 3094.0163737204803, 3115.6885793903994, 3138.1779563133996, 3206.45639135016]

>  <ZPE_kJmol>  (1) 
209.0649957029236

>  <E_elec_kJmol>  (1) 
-1355047.6908200553

>  <E0_minus_Eelec_plus_ZPE_kJmol>  (1) 
0.0

>  <rxn>  (1) 
rxn_466

>  <species_type>  (1) 
r0

>  <species_folder>  (1) 
rxn_466_SCC=C

>  <frequencies_cm1_list>  (1) 
[109.00652496968, 245.3917204102, 290.63828668367995, 415.01999178484, 607.7556687612799, 738.8738864613599, 795.00462446704, 935.2971345546399, 957.23715265204, 997.0931354493199, 1031.7164754327598, 1111.56578073372, 1232.59639699872, 1263.93045101388, 1318.41311254276, 1435.2480007772401, 1465.33226346416, 1711.0192642431198, 2696.8986126648797, 3040.5500260189597, 3094.0163737204803, 3115.6885793903994, 3138.1779563133996, 3206.45639135016]

>  <E0_kJmol>  (1) 
-1.35484e+06

>  <H298_kJmol>  (1) 
-1.35482e+06

$$$$

     RDKit          3D

  6  5  0  0  0  0  0  0  0  0999 V2000
   -1.0589    0.6815   -0.7173 H   0  0  0  0  0  0  0  0  0  1  0  0
    0.9610    0.6688    0.3346 C   0  0  0  0  0  0  0  0  0  2  0  0
   -0.4433   -0.3597   -0.1406 S   0  0  0  0  0  0  0  0  0  3  0  0
    0.7091    1.3293    1.1632 H   0  0  0  0  0  0  0  0  0  4  0  0
    1.7669    0.0044    0.6465 H   0  0  0  0  0  0  0  0  0  5  0  0
    1.3109    1.2536   -0.5172 H   0  0  0  0  0  0  0  0  0  6  0  0
  1  3  1  0
  2  3  1  0
  2  5  1  0
  2  6  1  0
  2  4  1  0
M  END
>  <rmg_smiles>  (2) 
CS

>  <rmg_adjacency_list>  (2) 
1 S u0 p2 c0 {2,S} {6,S}
2 C u0 p0 c0 {1,S} {3,S} {4,S} {5,S}
3 H u0 p0 c0 {2,S}
4 H u0 p0 c0 {2,S}
5 H u0 p0 c0 {2,S}
6 H u0 p0 c0 {1,S}


>  <multiplicity>  (2) 
1

>  <reaction>  (2) 
rxn_466

>  <type>  (2) 
r2h

>  <role_mapnums>  (2) 
{"r2h_a": 3, "r2h_h": 1}

>  <role_mapidx>  (2) 
{"r2h_a": 2, "r2h_h": 0}

>  <ordered_mapped_smiles>  (2) 
[H:1][S:3][C:2]([H:4])([H:5])[H:6]

>  <mol_properties>  (2) 
{"0": {"label": "a_hydrogen", "atom_type": "H0"}, "2": {"label": "acceptor", "atom_type": "S2s"}}

>  <level_of_theory>  (2) 
wb97xd/def2tzvp

>  <lot_method>  (2) 
wb97xd

>  <lot_basis>  (2) 
def2tzvp

>  <spin_multiplicity>  (2) 
1.0

>  <optical_isomers>  (2) 
1.0

>  <modes>  (2) 
IdealGasTranslation(mass=(48.0034, 'amu')),         NonlinearRotor(             inertia = ([4.88218, 38.8439, 40.5133

>  <frequency_value>  (2) 
unknown

>  <frequency_units>  (2) 
unknown

>  <frequency_list>  (2) 
unknown

>  <arkane_path>  (2) 
/home/calvin/Dropbox/PersonalFolders/Calvin/HAb_Converged/rxn_466/output/Species/rxn_466_CS/arkane/output.py

>  <path_exists>  (2) 
True

>  <E0_value>  (2) 
-1151727.0074722518

>  <E0_units>  (2) 
kJ/mol

>  <thermo_class>  (2) 
NASA

>  <Cp0_value>  (2) 
33.257888

>  <Cp0_units>  (2) 
J/(mol*K)

>  <CpInf_value>  (2) 
133.031552

>  <CpInf_units>  (2) 
J/(mol*K)

>  <Tmin_value>  (2) 
10.0

>  <Tmin_units>  (2) 
K

>  <Tmax_value>  (2) 
3000.0

>  <Tmax_units>  (2) 
K

>  <polynomials>  (2) 
[{"name": "polynomial1", "class": "NASAPolynomial", "Tmin_value": 10.0, "Tmin_units": "K", "Tmax_value": 512.0046987811082, "Tmax_units": "K", "coeffs": [3.9928587497669135, 0.0002559754074249204, 3.857280640825913e-05, -5.9282603001709694e-08, 2.982147399711347e-11, -138520762.43019888, 6.388595841908656]}, {"name": "polynomial2", "class": "NASAPolynomial", "Tmin_value": 512.0046987811082, "Tmin_units": "K", "Tmax_value": 3000.0, "Tmax_units": "K", "coeffs": [1.9274442242810899, 0.01639190572497184, -8.700073442106705e-06, 2.2701656845537463e-09, -2.333640907578926e-13, -138520550.93016994, 14.970390653960273]}]

>  <H298_value>  (2) 
-275266.5007544268

>  <H298_units>  (2) 
kcal/mol

>  <S298_value>  (2) 
60.53254852214023

>  <S298_units>  (2) 
cal/(mol*K)

>  <Cp_T_value_list>  (2) 
[12.285164170505567, 14.379905317207566, 16.329998202821564, 18.065044527000737, 20.944482261362513, 23.163034177843237, 26.669386406809583, 28.493484761208425, 29.402518411604955]

>  <Cp_T_units>  (2) 
cal/(mol*K)

>  <T_list>  (2) 
[300.0, 400.0, 500.0, 600.0, 800.0, 1000.0, 1500.0, 2000.0, 2400.0]

>  <T_units>  (2) 
K

>  <yaml_path>  (2) 
/home/calvin/Dropbox/PersonalFolders/Calvin/HAb_Converged/rxn_466/output/Species/rxn_466_CS/rxn_466_CS.yml

>  <frequencies_cm1>  (2) 
[239.23203457815995, 718.5407429288399, 797.72395065376, 969.0552343877599, 1092.82577779544, 1352.90597980512, 1462.0155095546, 1475.7082782826799, 2706.3887863771197, 3036.2032243114, 3126.3324066364, 3127.7195376710397]

>  <ZPE_kJmol>  (2) 
120.25255493508004

>  <E_elec_kJmol>  (2) 
-1151847.260027187

>  <E0_minus_Eelec_plus_ZPE_kJmol>  (2) 
0.0

>  <rxn>  (2) 
rxn_466

>  <species_type>  (2) 
p0

>  <species_folder>  (2) 
rxn_466_CS

>  <frequencies_cm1_list>  (2) 
[239.23203457815995, 718.5407429288399, 797.72395065376, 969.0552343877599, 1092.82577779544, 1352.90597980512, 1462.0155095546, 1475.7082782826799, 2706.3887863771197, 3036.2032243114, 3126.3324066364, 3127.7195376710397]

>  <E0_kJmol>  (2) 
-1.15173e+06

>  <H298_kJmol>  (2) 
-1.15172e+06

$$$$

     RDKit          3D

 15 13  0  0  0  0  0  0  0  0999 V2000
    0.0352    0.7929   -1.5811 S   0  0  0  0  0  0  0  0  0  1  0  0
   -1.0319    0.4665   -0.2061 C   0  0  0  0  0  0  0  0  0  2  0  0
   -1.0578    1.5145    0.8048 C   0  0  0  0  0  0  0  0  0  3  0  0
   -2.1062    1.7594    1.5918 C   0  0  0  0  0  0  0  0  0  4  0  0
    0.0030   -0.4428   -2.0988 H   0  0  0  0  0  0  0  0  0  5  0  0
   -0.5234   -0.6323    0.3968 H   0  0  0  0  0  0  0  0  0  6  0  0
   -2.0039    0.0568   -0.4743 H   0  0  0  0  0  0  0  0  0  7  0  0
   -0.1426    2.0837    0.9388 H   0  0  0  0  0  0  0  0  0  8  0  0
   -2.0647    2.5200    2.3599 H   0  0  0  0  0  0  0  0  0  9  0  0
   -3.0317    1.2043    1.4922 H   0  0  0  0  0  0  0  0  0 10  0  0
    1.6033   -0.8258    1.5489 C   0  0  0  0  0  0  0  0  0 11  0  0
    0.1990   -1.8543    1.0737 S   0  0  0  0  0  1  0  0  0 12  0  0
    1.3514   -0.1653    2.3775 H   0  0  0  0  0  0  0  0  0 13  0  0
    2.4092   -1.4902    1.8607 H   0  0  0  0  0  0  0  0  0 14  0  0
    1.9532   -0.2410    0.6971 H   0  0  0  0  0  0  0  0  0 15  0  0
  1  2  1  0
  1  5  1  0
  2  7  1  0
  2  6  1  0
  2  3  1  0
  3  4  1  0
  3  8  1  0
  4  9  1  0
  4 10  1  0
 11 14  1  0
 11 15  1  0
 11 12  1  0
 11 13  1  0
M  RAD  1  12   2
M  END
>  <rmg_smiles>  (3) 
[CH2][CH]CS.C[S]

>  <rmg_adjacency_list>  (3) 
multiplicity 2
1  S u0 p2 c0 {3,S} {15,S}
2  S u1 p2 c0 {4,S}
3  C u0 p0 c0 {1,S} {5,S} {7,S} {8,S}
4  C u0 p0 c0 {2,S} {9,S} {10,S} {11,S}
5  C u0 p0 c0 {3,S} {6,S} {12,S}
6  C u0 p0 c0 {5,S} {13,S} {14,S}
7  H u0 p0 c0 {3,S}
8  H u0 p0 c0 {3,S}
9  H u0 p0 c0 {4,S}
10 H u0 p0 c0 {4,S}
11 H u0 p0 c0 {4,S}
12 H u0 p0 c0 {5,S}
13 H u0 p0 c0 {6,S}
14 H u0 p0 c0 {6,S}
15 H u0 p0 c0 {1,S}


>  <multiplicity>  (3) 
2

>  <reaction>  (3) 
rxn_466

>  <type>  (3) 
ts

>  <role_mapnums>  (3) 
{"*2": 6, "*1": 2, "*3": 12, "*0": 1, "*4": 11}

>  <role_mapidx>  (3) 
{"*2": 5, "*1": 1, "*3": 11, "*0": 0, "*4": 10}

>  <ordered_mapped_smiles>  (3) 
[S:1]([C:2]([CH:3]([CH:4]([H:9])[H:10])[H:8])([H:6])[H:7])[H:5].[C:11]([S:12])([H:13])([H:14])[H:15]

>  <mol_properties>  (3) 
{"0": {"label": "*0", "atom_type": "S2s"}, "1": {"label": "*1", "atom_type": "Cs"}, "5": {"label": "*2", "atom_type": "H0"}, "10": {"label": "*4", "atom_type": "Cs"}, "11": {"label": "*3", "atom_type": "S2s"}}

>  <level_of_theory>  (3) 
wb97xd/def2tzvp

>  <lot_method>  (3) 
wb97xd

>  <lot_basis>  (3) 
def2tzvp

>  <spin_multiplicity>  (3) 
2.0

>  <optical_isomers>  (3) 
2.0

>  <modes>  (3) 
IdealGasTranslation(mass=(121.015, 'amu')),         NonlinearRotor(             inertia = ([234.634, 366.863, 504.003

>  <frequency_value>  (3) 
-1427.11

>  <frequency_units>  (3) 
cm^-1

>  <frequency_list>  (3) 
unknown

>  <arkane_path>  (3) 
/home/calvin/Dropbox/PersonalFolders/Calvin/HAb_Converged/rxn_466/output/rxns/TS0/arkane/output.py

>  <path_exists>  (3) 
True

>  <E0_value>  (3) 
-2504870.0

>  <E0_units>  (3) 
kJ/mol

>  <thermo_class>  (3) 
unknown

>  <Cp0_value>  (3) 
unknown

>  <Cp0_units>  (3) 
unknown

>  <CpInf_value>  (3) 
unknown

>  <CpInf_units>  (3) 
unknown

>  <Tmin_value>  (3) 
unknown

>  <Tmin_units>  (3) 
unknown

>  <Tmax_value>  (3) 
unknown

>  <Tmax_units>  (3) 
unknown

>  <polynomials>  (3) 
unknown

>  <H298_value>  (3) 
unknown

>  <H298_units>  (3) 
unknown

>  <S298_value>  (3) 
unknown

>  <S298_units>  (3) 
unknown

>  <Cp_T_value_list>  (3) 
unknown

>  <Cp_T_units>  (3) 
unknown

>  <T_list>  (3) 
unknown

>  <T_units>  (3) 
unknown

>  <yaml_path>  (3) 
unknown

>  <frequencies_cm1>  (3) 
unknown

>  <ZPE_kJmol>  (3) 
unknown

>  <E_elec_kJmol>  (3) 
unknown

>  <E0_minus_Eelec_plus_ZPE_kJmol>  (3) 
unknown

>  <rxn>  (3) 
unknown

>  <species_type>  (3) 
unknown

>  <species_folder>  (3) 
unknown

>  <frequencies_cm1_list>  (3) 
[]

>  <ts_imag_freq_cm1>  (3) 
-1444.4446

>  <ts_freq_out_path>  (3) 
/home/calvin/Dropbox/PersonalFolders/Calvin/HAb_Converged/rxn_466/output/rxns/TS0/geometry/freq.out

>  <E0_kJmol>  (3) 
-2.50487e+06

>  <H298_kJmol>  (3) 
unknown

$$$$

     RDKit          3D

  9  8  0  0  0  0  0  0  0  0999 V2000
    2.3991   -0.1292   -0.2384 S   0  0  0  0  0  0  0  0  0  1  0  0
    0.7460    0.2807    0.0931 C   0  0  0  0  0  3  0  0  0  2  0  0
   -0.3131   -0.5719   -0.2043 C   0  0  0  0  0  0  0  0  0  3  0  0
   -0.2286   -1.8095   -0.7775 C   0  0  0  0  0  0  0  0  0  4  0  0
    2.9373    1.0009    0.2312 H   0  0  0  0  0  0  0  0  0  5  0  0
    0.5618    1.2421    0.5487 H   0  0  0  0  0  0  0  0  0  6  0  0
   -1.2978   -0.1954    0.0537 H   0  0  0  0  0  0  0  0  0  7  0  0
    0.7207   -2.2479   -1.0607 H   0  0  0  0  0  0  0  0  0  8  0  0
   -1.1177   -2.3938   -0.9670 H   0  0  0  0  0  0  0  0  0  9  0  0
  1  2  1  0
  1  5  1  0
  2  6  1  0
  2  3  1  0
  3  4  1  0
  3  7  1  0
  4  8  1  0
  4  9  1  0
M  RAD  1   2   2
M  END
>  <rmg_smiles>  (4) 
[CH2][CH][CH]S

>  <rmg_adjacency_list>  (4) 
multiplicity 2
1 S u0 p2 c0 {3,S} {9,S}
2 C u0 p0 c0 {3,S} {4,S} {5,S}
3 C u1 p0 c0 {1,S} {2,S} {6,S}
4 C u0 p0 c0 {2,S} {7,S} {8,S}
5 H u0 p0 c0 {2,S}
6 H u0 p0 c0 {3,S}
7 H u0 p0 c0 {4,S}
8 H u0 p0 c0 {4,S}
9 H u0 p0 c0 {1,S}


>  <multiplicity>  (4) 
2

>  <reaction>  (4) 
rxn_466

>  <type>  (4) 
r1

>  <role_mapnums>  (4) 
{}

>  <role_mapidx>  (4) 
{}

>  <ordered_mapped_smiles>  (4) 
[S:1]([C:2]([CH:3]([CH:4]([H:8])[H:9])[H:7])[H:6])[H:5]

>  <level_of_theory>  (4) 
wb97xd/def2tzvp

>  <lot_method>  (4) 
wb97xd

>  <lot_basis>  (4) 
def2tzvp

>  <spin_multiplicity>  (4) 
2.0

>  <optical_isomers>  (4) 
1.0

>  <modes>  (4) 
IdealGasTranslation(mass=(73.0112, 'amu')),         NonlinearRotor(             inertia = ([31.363, 134.913, 166.276

>  <frequency_value>  (4) 
unknown

>  <frequency_units>  (4) 
unknown

>  <frequency_list>  (4) 
unknown

>  <arkane_path>  (4) 
/home/calvin/Dropbox/PersonalFolders/Calvin/HAb_Converged/rxn_466/output/Species/rxn_466_S[CH]C=C/arkane/output.py

>  <path_exists>  (4) 
True

>  <E0_value>  (4) 
-1353189.912902829

>  <E0_units>  (4) 
kJ/mol

>  <thermo_class>  (4) 
NASA

>  <Cp0_value>  (4) 
33.257888

>  <Cp0_units>  (4) 
J/(mol*K)

>  <CpInf_value>  (4) 
207.8618

>  <CpInf_units>  (4) 
J/(mol*K)

>  <Tmin_value>  (4) 
10.0

>  <Tmin_units>  (4) 
K

>  <Tmax_value>  (4) 
3000.0

>  <Tmax_units>  (4) 
K

>  <polynomials>  (4) 
[{"name": "polynomial1", "class": "NASAPolynomial", "Tmin_value": 10.0, "Tmin_units": "K", "Tmax_value": 494.182421916781, "Tmax_units": "K", "coeffs": [3.9171373588949456, 0.005296732981537435, 0.00010660061491766757, -2.3200753792228283e-07, 1.5435566423865143e-10, -162751151.45822766, 10.011870120637145]}, {"name": "polynomial2", "class": "NASAPolynomial", "Tmin_value": 494.182421916781, "Tmin_units": "K", "Tmax_value": 3000.0, "Tmax_units": "K", "coeffs": [2.9684844905613335, 0.02976556892789463, -1.8633830366542493e-05, 5.689075317713255e-09, -6.722422089020262e-13, -162751262.7195864, 11.845549052817699]}]

>  <H298_value>  (4) 
-323416.2553145126

>  <H298_units>  (4) 
kcal/mol

>  <S298_value>  (4) 
73.32316749567646

>  <S298_units>  (4) 
cal/(mol*K)

>  <Cp_T_value_list>  (4) 
[20.043540963892376, 24.233886931081226, 27.5465186826771, 30.32748293405113, 34.761695296239196, 37.98953828173351, 42.701336869209946, 45.151374707895805, 46.535171933883085]

>  <Cp_T_units>  (4) 
cal/(mol*K)

>  <T_list>  (4) 
[300.0, 400.0, 500.0, 600.0, 800.0, 1000.0, 1500.0, 2000.0, 2400.0]

>  <T_units>  (4) 
K

>  <yaml_path>  (4) 
/home/calvin/Dropbox/PersonalFolders/Calvin/HAb_Converged/rxn_466/output/Species/rxn_466_S[CH]C=C/rxn_466_SCHC=C.yml

>  <frequencies_cm1>  (4) 
[163.62652620496, 213.33663293644, 322.76891099595997, 534.6497430445601, 548.4317825817999, 640.07856866252, 767.52981620172, 810.9222964388, 939.69200515944, 969.4329185803599, 1056.3483517756, 1131.90579125156, 1228.8126880874, 1369.48974935292, 1427.04882030516, 1524.36086927488, 2717.97339061196, 3127.7744735536003, 3135.08094593408, 3196.4305927829596, 3224.57836560964]

>  <ZPE_kJmol>  (4) 
173.75927083469932

>  <E_elec_kJmol>  (4) 
-1353363.6721736635

>  <E0_minus_Eelec_plus_ZPE_kJmol>  (4) 
0.0

>  <rxn>  (4) 
rxn_466

>  <species_type>  (4) 
p1

>  <species_folder>  (4) 
rxn_466_S[CH]C=C

>  <frequencies_cm1_list>  (4) 
[163.62652620496, 213.33663293644, 322.76891099595997, 534.6497430445601, 548.4317825817999, 640.07856866252, 767.52981620172, 810.9222964388, 939.69200515944, 969.4329185803599, 1056.3483517756, 1131.90579125156, 1228.8126880874, 1369.48974935292, 1427.04882030516, 1524.36086927488, 2717.97339061196, 3127.7744735536003, 3135.08094593408, 3196.4305927829596, 3224.57836560964]

>  <E0_kJmol>  (4) 
-1.35319e+06

>  <H298_kJmol>  (4) 
-1.35317e+06

$$$$

     RDKit          3D

  5  4  0  0  0  0  0  0  0  0999 V2000
   -0.1322   -0.0293    0.0034 C   0  0  0  0  0  0  0  0  0  1  0  0
    1.6514    0.0533   -0.0278 S   0  0  0  0  0  1  0  0  0  2  0  0
   -0.5276   -0.5578   -0.8632 H   0  0  0  0  0  0  0  0  0  3  0  0
   -0.5002   -0.4706    0.9289 H   0  0  0  0  0  0  0  0  0  4  0  0
   -0.4913    1.0044   -0.0413 H   0  0  0  0  0  0  0  0  0  5  0  0
  1  3  1  0
  1  5  1  0
  1  2  1  0
  1  4  1  0
M  RAD  1   2   2
M  END
>  <rmg_smiles>  (5) 
C[S]

>  <rmg_adjacency_list>  (5) 
multiplicity 2
1 S u1 p2 c0 {2,S}
2 C u0 p0 c0 {1,S} {3,S} {4,S} {5,S}
3 H u0 p0 c0 {2,S}
4 H u0 p0 c0 {2,S}
5 H u0 p0 c0 {2,S}


>  <multiplicity>  (5) 
2

>  <reaction>  (5) 
rxn_466

>  <type>  (5) 
r2

>  <role_mapnums>  (5) 
{}

>  <role_mapidx>  (5) 
{}

>  <ordered_mapped_smiles>  (5) 
[C:1]([S:2])([H:3])([H:4])[H:5]

>  <level_of_theory>  (5) 
wb97xd/def2tzvp

>  <lot_method>  (5) 
wb97xd

>  <lot_basis>  (5) 
def2tzvp

>  <spin_multiplicity>  (5) 
2.0

>  <optical_isomers>  (5) 
1.0

>  <modes>  (5) 
IdealGasTranslation(mass=(46.9956, 'amu')),         NonlinearRotor(             inertia = ([3.17407, 37.2839, 37.355

>  <frequency_value>  (5) 
unknown

>  <frequency_units>  (5) 
unknown

>  <frequency_list>  (5) 
unknown

>  <arkane_path>  (5) 
/home/calvin/Dropbox/PersonalFolders/Calvin/HAb_Converged/rxn_466/output/Species/rxn_466_C[S]/arkane/output.py

>  <path_exists>  (5) 
True

>  <E0_value>  (5) 
-1150056.1526011876

>  <E0_units>  (5) 
kJ/mol

>  <thermo_class>  (5) 
NASA

>  <Cp0_value>  (5) 
33.257888

>  <Cp0_units>  (5) 
J/(mol*K)

>  <CpInf_value>  (5) 
108.088136

>  <CpInf_units>  (5) 
J/(mol*K)

>  <Tmin_value>  (5) 
10.0

>  <Tmin_units>  (5) 
K

>  <Tmax_value>  (5) 
3000.0

>  <Tmax_units>  (5) 
K

>  <polynomials>  (5) 
[{"name": "polynomial1", "class": "NASAPolynomial", "Tmin_value": 10.0, "Tmin_units": "K", "Tmax_value": 566.3360976597459, "Tmax_units": "K", "coeffs": [4.0652899812801655, -0.005451480411037478, 5.2368725288434126e-05, -8.022998340238296e-08, 4.1344570161532364e-11, -138319806.13053706, 6.769037209336151]}, {"name": "polynomial2", "class": "NASAPolynomial", "Tmin_value": 566.3360976597459, "Tmin_units": "K", "Tmax_value": 3000.0, "Tmax_units": "K", "coeffs": [1.9471505648612775, 0.01331921911167488, -7.4396630281974114e-06, 2.0540511843576837e-09, -2.227028662992441e-13, -138319627.32150677, 15.244038360657584]}]

>  <H298_value>  (5) 
-274867.44926907064

>  <H298_units>  (5) 
kcal/mol

>  <S298_value>  (5) 
59.62393940961413

>  <S298_units>  (5) 
cal/(mol*K)

>  <Cp_T_value_list>  (5) 
[10.55546981066939, 12.295633398989601, 13.884649196899572, 15.252239342212782, 17.490590038967294, 19.192549615815086, 21.842831163336232, 23.242566531118, 23.980166029379262]

>  <Cp_T_units>  (5) 
cal/(mol*K)

>  <T_list>  (5) 
[300.0, 400.0, 500.0, 600.0, 800.0, 1000.0, 1500.0, 2000.0, 2400.0]

>  <T_units>  (5) 
K

>  <yaml_path>  (5) 
/home/calvin/Dropbox/PersonalFolders/Calvin/HAb_Converged/rxn_466/output/Species/rxn_466_C[S]/rxn_466_CS.yml

>  <frequencies_cm1>  (5) 
[662.60914749744, 732.1717087890399, 858.67531235408, 1327.08611500192, 1368.75498192368, 1459.4884589568398, 2999.842537042, 3077.3158654222398, 3102.56577044388]

>  <ZPE_kJmol>  (5) 
93.24002190480168

>  <E_elec_kJmol>  (5) 
-1150149.3926230925

>  <E0_minus_Eelec_plus_ZPE_kJmol>  (5) 
0.0

>  <rxn>  (5) 
rxn_466

>  <species_type>  (5) 
r1

>  <species_folder>  (5) 
rxn_466_C[S]

>  <frequencies_cm1_list>  (5) 
[662.60914749744, 732.1717087890399, 858.67531235408, 1327.08611500192, 1368.75498192368, 1459.4884589568398, 2999.842537042, 3077.3158654222398, 3102.56577044388]

>  <E0_kJmol>  (5) 
-1.15006e+06

>  <H298_kJmol>  (5) 
-1.15005e+06

$$$$
