
     RDKit          3D

  6  5  0  0  0  0  0  0  0  0999 V2000
    0.4879   -0.0759   -1.1154 C   0  0  0  0  0  0  0  0  0  1  0  0
   -0.2466   -0.0034    0.5305 S   0  0  0  0  0  0  0  0  0  2  0  0
    1.5603    0.1016   -1.0766 H   0  0  0  0  0  0  0  0  0  3  0  0
    0.3072   -1.0803   -1.4981 H   0  0  0  0  0  0  0  0  0  4  0  0
    0.0141    0.6380   -1.7880 H   0  0  0  0  0  0  0  0  0  5  0  0
    0.1068    1.2617    0.7957 H   0  0  0  0  0  0  0  0  0  6  0  0
  1  5  1  0
  1  4  1  0
  1  3  1  0
  1  2  1  0
  2  6  1  0
M  END
>  <rmg_smiles>  (1) 
CS

>  <rmg_adjacency_list>  (1) 
1 S u0 p2 c0 {2,S} {6,S}
2 C u0 p0 c0 {1,S} {3,S} {4,S} {5,S}
3 H u0 p0 c0 {2,S}
4 H u0 p0 c0 {2,S}
5 H u0 p0 c0 {2,S}
6 H u0 p0 c0 {1,S}


>  <multiplicity>  (1) 
1

>  <reaction>  (1) 
rxn_473

>  <type>  (1) 
r1h

>  <role_mapnums>  (1) 
{"r1h_a": 2, "r1h_h": 6}

>  <role_mapidx>  (1) 
{"r1h_a": 1, "r1h_h": 5}

>  <ordered_mapped_smiles>  (1) 
[C:1]([S:2][H:6])([H:3])([H:4])[H:5]

>  <mol_properties>  (1) 
{"1": {"label": "donator", "atom_type": "S2s"}, "5": {"label": "d_hydrogen", "atom_type": "H0"}}

>  <level_of_theory>  (1) 
wb97xd/def2tzvp

>  <lot_method>  (1) 
wb97xd

>  <lot_basis>  (1) 
def2tzvp

>  <spin_multiplicity>  (1) 
1.0

>  <optical_isomers>  (1) 
1.0

>  <modes>  (1) 
IdealGasTranslation(mass=(48.0034, 'amu')),         NonlinearRotor(             inertia = ([4.88218, 38.8439, 40.5133

>  <frequency_value>  (1) 
unknown

>  <frequency_units>  (1) 
unknown

>  <frequency_list>  (1) 
unknown

>  <arkane_path>  (1) 
/home/calvin/Dropbox/PersonalFolders/Calvin/HAb_Converged/rxn_473/output/Species/rxn_473_CS/arkane/output.py

>  <path_exists>  (1) 
True

>  <E0_value>  (1) 
-1151727.0074722518

>  <E0_units>  (1) 
kJ/mol

>  <thermo_class>  (1) 
NASA

>  <Cp0_value>  (1) 
33.257888

>  <Cp0_units>  (1) 
J/(mol*K)

>  <CpInf_value>  (1) 
133.031552

>  <CpInf_units>  (1) 
J/(mol*K)

>  <Tmin_value>  (1) 
10.0

>  <Tmin_units>  (1) 
K

>  <Tmax_value>  (1) 
3000.0

>  <Tmax_units>  (1) 
K

>  <polynomials>  (1) 
[{"name": "polynomial1", "class": "NASAPolynomial", "Tmin_value": 10.0, "Tmin_units": "K", "Tmax_value": 512.0046987811082, "Tmax_units": "K", "coeffs": [3.9928587497669135, 0.0002559754074249204, 3.857280640825913e-05, -5.9282603001709694e-08, 2.982147399711347e-11, -138520762.43019888, 6.388595841908656]}, {"name": "polynomial2", "class": "NASAPolynomial", "Tmin_value": 512.0046987811082, "Tmin_units": "K", "Tmax_value": 3000.0, "Tmax_units": "K", "coeffs": [1.9274442242810899, 0.01639190572497184, -8.700073442106705e-06, 2.2701656845537463e-09, -2.333640907578926e-13, -138520550.93016994, 14.970390653960273]}]

>  <H298_value>  (1) 
-275266.5007544268

>  <H298_units>  (1) 
kcal/mol

>  <S298_value>  (1) 
60.53254852214023

>  <S298_units>  (1) 
cal/(mol*K)

>  <Cp_T_value_list>  (1) 
[12.285164170505567, 14.379905317207566, 16.329998202821564, 18.065044527000737, 20.944482261362513, 23.163034177843237, 26.669386406809583, 28.493484761208425, 29.402518411604955]

>  <Cp_T_units>  (1) 
cal/(mol*K)

>  <T_list>  (1) 
[300.0, 400.0, 500.0, 600.0, 800.0, 1000.0, 1500.0, 2000.0, 2400.0]

>  <T_units>  (1) 
K

>  <yaml_path>  (1) 
/home/calvin/Dropbox/PersonalFolders/Calvin/HAb_Converged/rxn_473/output/Species/rxn_473_CS/rxn_473_CS.yml

>  <frequencies_cm1>  (1) 
[239.23203457815995, 718.5407429288399, 797.72395065376, 969.0552343877599, 1092.82577779544, 1352.90597980512, 1462.0155095546, 1475.7082782826799, 2706.3887863771197, 3036.2032243114, 3126.3324066364, 3127.7195376710397]

>  <ZPE_kJmol>  (1) 
120.25255493508004

>  <E_elec_kJmol>  (1) 
-1151847.260027187

>  <E0_minus_Eelec_plus_ZPE_kJmol>  (1) 
0.0

>  <rxn>  (1) 
rxn_473

>  <species_type>  (1) 
r0

>  <species_folder>  (1) 
rxn_473_CS

>  <frequencies_cm1_list>  (1) 
[239.23203457815995, 718.5407429288399, 797.72395065376, 969.0552343877599, 1092.82577779544, 1352.90597980512, 1462.0155095546, 1475.7082782826799, 2706.3887863771197, 3036.2032243114, 3126.3324066364, 3127.7195376710397]

>  <E0_kJmol>  (1) 
-1.15173e+06

>  <H298_kJmol>  (1) 
-1.15172e+06

$$$$

     RDKit          3D

  6  5  0  0  0  0  0  0  0  0999 V2000
    0.4487   -1.1929    0.4095 H   0  0  0  0  0  0  0  0  0  1  0  0
   -0.5515    0.3276   -0.3154 C   0  0  0  0  0  0  0  0  0  2  0  0
    0.5451   -0.2442    0.2989 O   0  0  0  0  0  0  0  0  0  3  0  0
   -0.3409    1.4070   -0.3298 H   0  0  0  0  0  0  0  0  0  4  0  0
   -1.4821    0.1730    0.2399 H   0  0  0  0  0  0  0  0  0  5  0  0
   -0.6682    0.0059   -1.3571 H   0  0  0  0  0  0  0  0  0  6  0  0
  1  3  1  0
  2  5  1  0
  2  3  1  0
  2  6  1  0
  2  4  1  0
M  END
>  <rmg_smiles>  (2) 
CO

>  <rmg_adjacency_list>  (2) 
1 H u0 p0 c0 {3,S}
2 C u0 p0 c0 {3,S} {4,S} {5,S} {6,S}
3 O u0 p2 c0 {1,S} {2,S}
4 H u0 p0 c0 {2,S}
5 H u0 p0 c0 {2,S}
6 H u0 p0 c0 {2,S}


>  <multiplicity>  (2) 
1

>  <reaction>  (2) 
rxn_473

>  <type>  (2) 
r2h

>  <role_mapnums>  (2) 
{"r2h_a": 3, "r2h_h": 1}

>  <role_mapidx>  (2) 
{"r2h_a": 2, "r2h_h": 0}

>  <ordered_mapped_smiles>  (2) 
[H:1][O:3][C:2]([H:4])([H:5])[H:6]

>  <mol_properties>  (2) 
{"0": {"label": "a_hydrogen", "atom_type": "H0"}, "2": {"label": "acceptor", "atom_type": "O2s"}}

>  <level_of_theory>  (2) 
wb97xd/def2tzvp

>  <lot_method>  (2) 
wb97xd

>  <lot_basis>  (2) 
def2tzvp

>  <spin_multiplicity>  (2) 
1.0

>  <optical_isomers>  (2) 
1.0

>  <modes>  (2) 
IdealGasTranslation(mass=(32.0262, 'amu')),         NonlinearRotor(             inertia = ([3.92427, 20.1792, 20.9046

>  <frequency_value>  (2) 
unknown

>  <frequency_units>  (2) 
unknown

>  <frequency_list>  (2) 
unknown

>  <arkane_path>  (2) 
/home/calvin/Dropbox/PersonalFolders/Calvin/HAb_Converged/rxn_473/output/Species/rxn_473_CO/arkane/output.py

>  <path_exists>  (2) 
True

>  <E0_value>  (2) 
-303729.7991258424

>  <E0_units>  (2) 
kJ/mol

>  <thermo_class>  (2) 
NASA

>  <Cp0_value>  (2) 
33.257888

>  <Cp0_units>  (2) 
J/(mol*K)

>  <CpInf_value>  (2) 
133.031552

>  <CpInf_units>  (2) 
J/(mol*K)

>  <Tmin_value>  (2) 
10.0

>  <Tmin_units>  (2) 
K

>  <Tmax_value>  (2) 
3000.0

>  <Tmax_units>  (2) 
K

>  <polynomials>  (2) 
[{"name": "polynomial1", "class": "NASAPolynomial", "Tmin_value": 10.0, "Tmin_units": "K", "Tmax_value": 698.3341813253346, "Tmax_units": "K", "coeffs": [4.0215567421085705, -0.0013918275597151857, 3.088654492877698e-05, -3.5619840730823004e-08, 1.3319640500111606e-11, -36530257.7067979, 5.049565126331713]}, {"name": "polynomial2", "class": "NASAPolynomial", "Tmin_value": 698.3341813253346, "Tmin_units": "K", "Tmax_value": 3000.0, "Tmax_units": "K", "coeffs": [0.8030292187352491, 0.017044670475023747, -8.716711867271086e-06, 2.1896521783613246e-09, -2.167249261470434e-13, -36529808.21061414, 19.421281761974193]}]

>  <H298_value>  (2) 
-72590.49257555492

>  <H298_units>  (2) 
kcal/mol

>  <S298_value>  (2) 
56.892649290373726

>  <S298_units>  (2) 
cal/(mol*K)

>  <Cp_T_value_list>  (2) 
[10.989154390574786, 12.853223622326096, 14.759532412177741, 16.569240748625823, 19.65824435082755, 22.065772230460606, 25.93371928197072, 27.970212309601845, 28.976087551849815]

>  <Cp_T_units>  (2) 
cal/(mol*K)

>  <T_list>  (2) 
[300.0, 400.0, 500.0, 600.0, 800.0, 1000.0, 1500.0, 2000.0, 2400.0]

>  <T_units>  (2) 
K

>  <yaml_path>  (2) 
/home/calvin/Dropbox/PersonalFolders/Calvin/HAb_Converged/rxn_473/output/Species/rxn_473_CO/rxn_473_CO.yml

>  <frequencies_cm1>  (2) 
[308.3894437358799, 1061.07283767576, 1096.6987575159199, 1170.2098353665199, 1363.8038855079599, 1472.6044009180396, 1484.93063956744, 1497.8268379983997, 2973.4595794425595, 3026.27356353868, 3097.9030874116, 3862.39082911656]

>  <ZPE_kJmol>  (2) 
134.07488361253408

>  <E_elec_kJmol>  (2) 
-303863.8740094549

>  <E0_minus_Eelec_plus_ZPE_kJmol>  (2) 
0.0

>  <rxn>  (2) 
rxn_473

>  <species_type>  (2) 
p0

>  <species_folder>  (2) 
rxn_473_CO

>  <frequencies_cm1_list>  (2) 
[308.3894437358799, 1061.07283767576, 1096.6987575159199, 1170.2098353665199, 1363.8038855079599, 1472.6044009180396, 1484.93063956744, 1497.8268379983997, 2973.4595794425595, 3026.27356353868, 3097.9030874116, 3862.39082911656]

>  <E0_kJmol>  (2) 
-303730

>  <H298_kJmol>  (2) 
-303719

$$$$

     RDKit          3D

 11  9  0  0  0  0  0  0  0  0999 V2000
    0.4756   -1.2260   -1.3875 C   0  0  0  0  0  0  0  0  0  1  0  0
   -0.2589   -1.1535    0.2584 S   0  0  0  0  0  1  0  0  0  2  0  0
    1.5479   -1.0485   -1.3487 H   0  0  0  0  0  0  0  0  0  3  0  0
    0.2948   -2.2305   -1.7702 H   0  0  0  0  0  0  0  0  0  4  0  0
    0.0018   -0.5121   -2.0601 H   0  0  0  0  0  0  0  0  0  5  0  0
    0.1193    0.2003    0.5422 H   0  0  0  0  0  0  0  0  0  6  0  0
   -0.8383    2.1394   -0.2316 C   0  0  0  0  0  0  0  0  0  7  0  0
    0.2583    1.5677    0.3827 O   0  0  0  0  0  0  0  0  0  8  0  0
   -0.6277    3.2188   -0.2460 H   0  0  0  0  0  0  0  0  0  9  0  0
   -1.7689    1.9848    0.3237 H   0  0  0  0  0  0  0  0  0 10  0  0
   -0.9551    1.8178   -1.2733 H   0  0  0  0  0  0  0  0  0 11  0  0
  1  5  1  0
  1  4  1  0
  1  3  1  0
  1  2  1  0
  6  8  1  0
  7 10  1  0
  7 11  1  0
  7  8  1  0
  7  9  1  0
M  RAD  1   2   2
M  END
>  <rmg_smiles>  (3) 
C[S].CO

>  <rmg_adjacency_list>  (3) 
multiplicity 2
1  S u1 p2 c0 {4,S}
2  O u0 p2 c0 {3,S} {11,S}
3  C u0 p0 c0 {2,S} {5,S} {6,S} {7,S}
4  C u0 p0 c0 {1,S} {8,S} {9,S} {10,S}
5  H u0 p0 c0 {3,S}
6  H u0 p0 c0 {3,S}
7  H u0 p0 c0 {3,S}
8  H u0 p0 c0 {4,S}
9  H u0 p0 c0 {4,S}
10 H u0 p0 c0 {4,S}
11 H u0 p0 c0 {2,S}


>  <multiplicity>  (3) 
2

>  <reaction>  (3) 
rxn_473

>  <type>  (3) 
ts

>  <role_mapnums>  (3) 
{"*2": 6, "*1": 2, "*3": 8, "*0": 7, "*4": 1}

>  <role_mapidx>  (3) 
{"*2": 5, "*1": 1, "*3": 7, "*0": 6, "*4": 0}

>  <ordered_mapped_smiles>  (3) 
[C:1]([S:2])([H:3])([H:4])[H:5].[H:6][O:8][C:7]([H:9])([H:10])[H:11]

>  <mol_properties>  (3) 
{"0": {"label": "*4", "atom_type": "Cs"}, "1": {"label": "*1", "atom_type": "S2s"}, "5": {"label": "*2", "atom_type": "H0"}, "6": {"label": "*0", "atom_type": "Cs"}, "7": {"label": "*3", "atom_type": "O2s"}}

>  <level_of_theory>  (3) 
wb97xd/def2tzvp

>  <lot_method>  (3) 
wb97xd

>  <lot_basis>  (3) 
def2tzvp

>  <spin_multiplicity>  (3) 
2.0

>  <optical_isomers>  (3) 
2.0

>  <modes>  (3) 
IdealGasTranslation(mass=(79.0218, 'amu')),         NonlinearRotor(             inertia = ([52.5033, 199.599, 222.054

>  <frequency_value>  (3) 
-1074.05

>  <frequency_units>  (3) 
cm^-1

>  <frequency_list>  (3) 
unknown

>  <arkane_path>  (3) 
/home/calvin/Dropbox/PersonalFolders/Calvin/HAb_Converged/rxn_473/output/rxns/TS0/arkane/output.py

>  <path_exists>  (3) 
True

>  <E0_value>  (3) 
-1453710.0

>  <E0_units>  (3) 
kJ/mol

>  <thermo_class>  (3) 
unknown

>  <Cp0_value>  (3) 
unknown

>  <Cp0_units>  (3) 
unknown

>  <CpInf_value>  (3) 
unknown

>  <CpInf_units>  (3) 
unknown

>  <Tmin_value>  (3) 
unknown

>  <Tmin_units>  (3) 
unknown

>  <Tmax_value>  (3) 
unknown

>  <Tmax_units>  (3) 
unknown

>  <polynomials>  (3) 
unknown

>  <H298_value>  (3) 
unknown

>  <H298_units>  (3) 
unknown

>  <S298_value>  (3) 
unknown

>  <S298_units>  (3) 
unknown

>  <Cp_T_value_list>  (3) 
unknown

>  <Cp_T_units>  (3) 
unknown

>  <T_list>  (3) 
unknown

>  <T_units>  (3) 
unknown

>  <yaml_path>  (3) 
unknown

>  <frequencies_cm1>  (3) 
unknown

>  <ZPE_kJmol>  (3) 
unknown

>  <E_elec_kJmol>  (3) 
unknown

>  <E0_minus_Eelec_plus_ZPE_kJmol>  (3) 
unknown

>  <rxn>  (3) 
unknown

>  <species_type>  (3) 
unknown

>  <species_folder>  (3) 
unknown

>  <frequencies_cm1_list>  (3) 
[]

>  <ts_imag_freq_cm1>  (3) 
-1087.0936

>  <ts_freq_out_path>  (3) 
/home/calvin/Dropbox/PersonalFolders/Calvin/HAb_Converged/rxn_473/output/rxns/TS0/geometry/freq.out

>  <E0_kJmol>  (3) 
-1.45371e+06

>  <H298_kJmol>  (3) 
unknown

$$$$

     RDKit          3D

  5  4  0  0  0  0  0  0  0  0999 V2000
   -0.1322   -0.0293    0.0035 C   0  0  0  0  0  0  0  0  0  1  0  0
    1.6514    0.0533   -0.0278 S   0  0  0  0  0  1  0  0  0  2  0  0
   -0.5276   -0.5578   -0.8632 H   0  0  0  0  0  0  0  0  0  3  0  0
   -0.5002   -0.4706    0.9289 H   0  0  0  0  0  0  0  0  0  4  0  0
   -0.4913    1.0044   -0.0413 H   0  0  0  0  0  0  0  0  0  5  0  0
  1  3  1  0
  1  5  1  0
  1  2  1  0
  1  4  1  0
M  RAD  1   2   2
M  END
>  <rmg_smiles>  (4) 
C[S]

>  <rmg_adjacency_list>  (4) 
multiplicity 2
1 S u1 p2 c0 {2,S}
2 C u0 p0 c0 {1,S} {3,S} {4,S} {5,S}
3 H u0 p0 c0 {2,S}
4 H u0 p0 c0 {2,S}
5 H u0 p0 c0 {2,S}


>  <multiplicity>  (4) 
2

>  <reaction>  (4) 
rxn_473

>  <type>  (4) 
r1

>  <role_mapnums>  (4) 
{}

>  <role_mapidx>  (4) 
{}

>  <ordered_mapped_smiles>  (4) 
[C:1]([S:2])([H:3])([H:4])[H:5]

>  <level_of_theory>  (4) 
wb97xd/def2tzvp

>  <lot_method>  (4) 
wb97xd

>  <lot_basis>  (4) 
def2tzvp

>  <spin_multiplicity>  (4) 
2.0

>  <optical_isomers>  (4) 
1.0

>  <modes>  (4) 
IdealGasTranslation(mass=(46.9956, 'amu')),         NonlinearRotor(             inertia = ([3.17407, 37.284, 37.355

>  <frequency_value>  (4) 
unknown

>  <frequency_units>  (4) 
unknown

>  <frequency_list>  (4) 
unknown

>  <arkane_path>  (4) 
/home/calvin/Dropbox/PersonalFolders/Calvin/HAb_Converged/rxn_473/output/Species/rxn_473_C[S]/arkane/output.py

>  <path_exists>  (4) 
True

>  <E0_value>  (4) 
-1150056.152601263

>  <E0_units>  (4) 
kJ/mol

>  <thermo_class>  (4) 
NASA

>  <Cp0_value>  (4) 
33.257888

>  <Cp0_units>  (4) 
J/(mol*K)

>  <CpInf_value>  (4) 
108.088136

>  <CpInf_units>  (4) 
J/(mol*K)

>  <Tmin_value>  (4) 
10.0

>  <Tmin_units>  (4) 
K

>  <Tmax_value>  (4) 
3000.0

>  <Tmax_units>  (4) 
K

>  <polynomials>  (4) 
[{"name": "polynomial1", "class": "NASAPolynomial", "Tmin_value": 10.0, "Tmin_units": "K", "Tmax_value": 566.328464183237, "Tmax_units": "K", "coeffs": [4.065288565440239, -0.00545144318673637, 5.236921943422982e-05, -8.023170759796043e-08, 4.1345991622261683e-11, -138319806.13045177, 6.769039315589027]}, {"name": "polynomial2", "class": "NASAPolynomial", "Tmin_value": 566.328464183237, "Tmin_units": "K", "Tmax_value": 3000.0, "Tmax_units": "K", "coeffs": [1.9471896932365398, 0.013319145354693402, -7.4396115193261524e-06, 2.0540353906034204e-09, -2.2270107141394292e-13, -138319627.32717904, 15.243850357388032]}]

>  <H298_value>  (4) 
-274867.4492632204

>  <H298_units>  (4) 
kcal/mol

>  <S298_value>  (4) 
59.62396855592747

>  <S298_units>  (4) 
cal/(mol*K)

>  <Cp_T_value_list>  (4) 
[10.555507935471203, 12.295670317481965, 13.884677116371828, 15.252259688318437, 17.49060144006883, 19.192555341744114, 21.84283150225346, 23.24256656694347, 23.980166068816967]

>  <Cp_T_units>  (4) 
cal/(mol*K)

>  <T_list>  (4) 
[300.0, 400.0, 500.0, 600.0, 800.0, 1000.0, 1500.0, 2000.0, 2400.0]

>  <T_units>  (4) 
K

>  <yaml_path>  (4) 
/home/calvin/Dropbox/PersonalFolders/Calvin/HAb_Converged/rxn_473/output/Species/rxn_473_C[S]/rxn_473_CS.yml

>  <frequencies_cm1>  (4) 
[662.5885465414799, 732.1717087890399, 858.67531235408, 1327.08611500192, 1368.75498192368, 1459.4884589568398, 2999.842537042, 3077.3158654222398, 3102.5726374292]

>  <ZPE_kJmol>  (4) 
93.23993975739106

>  <E_elec_kJmol>  (4) 
-1150149.3925410204

>  <E0_minus_Eelec_plus_ZPE_kJmol>  (4) 
0.0

>  <rxn>  (4) 
rxn_473

>  <species_type>  (4) 
p1

>  <species_folder>  (4) 
rxn_473_C[S]

>  <frequencies_cm1_list>  (4) 
[662.5885465414799, 732.1717087890399, 858.67531235408, 1327.08611500192, 1368.75498192368, 1459.4884589568398, 2999.842537042, 3077.3158654222398, 3102.5726374292]

>  <E0_kJmol>  (4) 
-1.15006e+06

>  <H298_kJmol>  (4) 
-1.15005e+06

$$$$

     RDKit          3D

  5  4  0  0  0  0  0  0  0  0999 V2000
   -0.0419    0.0056   -0.0340 C   0  0  0  0  0  0  0  0  0  1  0  0
    1.3118    0.0049   -0.1263 O   0  0  0  0  0  1  0  0  0  2  0  0
   -0.2615   -0.1535    1.0387 H   0  0  0  0  0  0  0  0  0  3  0  0
   -0.4946    0.9694   -0.3042 H   0  0  0  0  0  0  0  0  0  4  0  0
   -0.5138   -0.8264   -0.5743 H   0  0  0  0  0  0  0  0  0  5  0  0
  1  3  1  0
  1  5  1  0
  1  2  1  0
  1  4  1  0
M  RAD  1   2   2
M  END
>  <rmg_smiles>  (5) 
C[O]

>  <rmg_adjacency_list>  (5) 
multiplicity 2
1 O u1 p2 c0 {2,S}
2 C u0 p0 c0 {1,S} {3,S} {4,S} {5,S}
3 H u0 p0 c0 {2,S}
4 H u0 p0 c0 {2,S}
5 H u0 p0 c0 {2,S}


>  <multiplicity>  (5) 
2

>  <reaction>  (5) 
rxn_473

>  <type>  (5) 
r2

>  <role_mapnums>  (5) 
{}

>  <role_mapidx>  (5) 
{}

>  <ordered_mapped_smiles>  (5) 
[C:1]([O:2])([H:3])([H:4])[H:5]

>  <level_of_theory>  (5) 
wb97xd/def2tzvp

>  <lot_method>  (5) 
wb97xd

>  <lot_basis>  (5) 
def2tzvp

>  <spin_multiplicity>  (5) 
2.0

>  <optical_isomers>  (5) 
1.0

>  <modes>  (5) 
IdealGasTranslation(mass=(31.0184, 'amu')),         NonlinearRotor(             inertia = ([3.20006, 17.856, 17.9799

>  <frequency_value>  (5) 
unknown

>  <frequency_units>  (5) 
unknown

>  <frequency_list>  (5) 
unknown

>  <arkane_path>  (5) 
/home/calvin/Dropbox/PersonalFolders/Calvin/HAb_Converged/rxn_473/output/Species/rxn_473_C[O]/arkane/output.py

>  <path_exists>  (5) 
True

>  <E0_value>  (5) 
-301997.4592851554

>  <E0_units>  (5) 
kJ/mol

>  <thermo_class>  (5) 
NASA

>  <Cp0_value>  (5) 
33.257888

>  <Cp0_units>  (5) 
J/(mol*K)

>  <CpInf_value>  (5) 
108.088136

>  <CpInf_units>  (5) 
J/(mol*K)

>  <Tmin_value>  (5) 
10.0

>  <Tmin_units>  (5) 
K

>  <Tmax_value>  (5) 
3000.0

>  <Tmax_units>  (5) 
K

>  <polynomials>  (5) 
[{"name": "polynomial1", "class": "NASAPolynomial", "Tmin_value": 10.0, "Tmin_units": "K", "Tmax_value": 768.059590281463, "Tmax_units": "K", "coeffs": [4.071530595134961, -0.004788435354785924, 3.764586588049544e-05, -4.4570288841214996e-08, 1.7325262676984235e-11, -36321906.564560294, 5.398160150516401]}, {"name": "polynomial2", "class": "NASAPolynomial", "Tmin_value": 768.059590281463, "Tmin_units": "K", "Tmax_value": 3000.0, "Tmax_units": "K", "coeffs": [1.2714120993677158, 0.01409244407723046, -7.621988648338685e-06, 2.0075663098769435e-09, -2.071485756081707e-13, -36321603.20761829, 17.34290408736705]}]

>  <H298_value>  (5) 
-72176.63877764504

>  <H298_units>  (5) 
kcal/mol

>  <S298_value>  (5) 
56.594931076735904

>  <S298_units>  (5) 
cal/(mol*K)

>  <Cp_T_value_list>  (5) 
[9.856672910231365, 11.467221282123814, 13.116203184295033, 14.644028256259237, 17.110484913261594, 18.96249130767302, 21.834332840501297, 23.279128428658893, 23.986630431674044]

>  <Cp_T_units>  (5) 
cal/(mol*K)

>  <T_list>  (5) 
[300.0, 400.0, 500.0, 600.0, 800.0, 1000.0, 1500.0, 2000.0, 2400.0]

>  <T_units>  (5) 
K

>  <yaml_path>  (5) 
/home/calvin/Dropbox/PersonalFolders/Calvin/HAb_Converged/rxn_473/output/Species/rxn_473_C[O]/rxn_473_CO.yml

>  <frequencies_cm1>  (5) 
[717.9227142500399, 959.00196787928, 1127.7649991035998, 1355.17895194604, 1359.9103048315199, 1501.9607631610397, 2892.6488961967993, 2963.9144698477603, 3005.7618783878397]

>  <ZPE_kJmol>  (5) 
95.00783418108908

>  <E_elec_kJmol>  (5) 
-302092.4671193365

>  <E0_minus_Eelec_plus_ZPE_kJmol>  (5) 
0.0

>  <rxn>  (5) 
rxn_473

>  <species_type>  (5) 
r1

>  <species_folder>  (5) 
rxn_473_C[O]

>  <frequencies_cm1_list>  (5) 
[717.9227142500399, 959.00196787928, 1127.7649991035998, 1355.17895194604, 1359.9103048315199, 1501.9607631610397, 2892.6488961967993, 2963.9144698477603, 3005.7618783878397]

>  <E0_kJmol>  (5) 
-301997

>  <H298_kJmol>  (5) 
-301987

$$$$
