
     RDKit          3D

  4  3  0  0  0  0  0  0  0  0999 V2000
    0.6377   -0.2444   -0.0372 O   0  0  0  0  0  0  0  0  0  1  0  0
   -0.6406    0.2272   -0.0296 O   0  0  0  0  0  0  0  0  0  2  0  0
    0.5927   -1.0390    0.5124 H   0  0  0  0  0  0  0  0  0  3  0  0
   -0.5674    1.0721    0.4203 H   0  0  0  0  0  0  0  0  0  4  0  0
  1  2  1  0
  1  3  1  0
  2  4  1  0
M  END
>  <rmg_smiles>  (1) 
OO

>  <rmg_adjacency_list>  (1) 
1 O u0 p2 c0 {2,S} {3,S}
2 O u0 p2 c0 {1,S} {4,S}
3 H u0 p0 c0 {1,S}
4 H u0 p0 c0 {2,S}


>  <multiplicity>  (1) 
1

>  <reaction>  (1) 
rxn_438

>  <type>  (1) 
r1h

>  <role_mapnums>  (1) 
{"r1h_a": 2, "r1h_h": 4}

>  <role_mapidx>  (1) 
{"r1h_a": 1, "r1h_h": 3}

>  <ordered_mapped_smiles>  (1) 
[O:1]([O:2][H:4])[H:3]

>  <mol_properties>  (1) 
{"1": {"label": "donator", "atom_type": "O2s"}, "3": {"label": "d_hydrogen", "atom_type": "H0"}}

>  <level_of_theory>  (1) 
wb97xd/def2tzvp

>  <lot_method>  (1) 
wb97xd

>  <lot_basis>  (1) 
def2tzvp

>  <spin_multiplicity>  (1) 
1.0

>  <optical_isomers>  (1) 
2.0

>  <modes>  (1) 
IdealGasTranslation(mass=(34.0055, 'amu')),         NonlinearRotor(             inertia = ([1.6422, 18.4839, 19.1306

>  <frequency_value>  (1) 
unknown

>  <frequency_units>  (1) 
unknown

>  <frequency_list>  (1) 
unknown

>  <arkane_path>  (1) 
/home/calvin/Dropbox/PersonalFolders/Calvin/HAb_Converged/rxn_438/output/Species/rxn_438_OO/arkane/output.py

>  <path_exists>  (1) 
True

>  <E0_value>  (1) 
-397869.6784032715

>  <E0_units>  (1) 
kJ/mol

>  <thermo_class>  (1) 
NASA

>  <Cp0_value>  (1) 
33.257888

>  <Cp0_units>  (1) 
J/(mol*K)

>  <CpInf_value>  (1) 
83.14472

>  <CpInf_units>  (1) 
J/(mol*K)

>  <Tmin_value>  (1) 
10.0

>  <Tmin_units>  (1) 
K

>  <Tmax_value>  (1) 
3000.0

>  <Tmax_units>  (1) 
K

>  <polynomials>  (1) 
[{"name": "polynomial1", "class": "NASAPolynomial", "Tmin_value": 10.0, "Tmin_units": "K", "Tmax_value": 455.78106288096404, "Tmax_units": "K", "coeffs": [3.993411036033662, 0.00039597769380578143, 1.891318343950514e-05, -3.2458663273975925e-08, 1.830389461818306e-11, -47852668.906908266, 4.504010200645888]}, {"name": "polynomial2", "class": "NASAPolynomial", "Tmin_value": 455.78106288096404, "Tmin_units": "K", "Tmax_value": 3000.0, "Tmax_units": "K", "coeffs": [3.1932894099772424, 0.0074090928900088, -4.13817425256861e-06, 1.2156565940750795e-09, -1.433593106081876e-13, -47852595.87875142, 7.736455149271243]}]

>  <H298_value>  (1) 
-95090.51348489316

>  <H298_units>  (1) 
kcal/mol

>  <S298_value>  (1) 
55.5670496873013

>  <S298_units>  (1) 
cal/(mol*K)

>  <Cp_T_value_list>  (1) 
[10.107465812395086, 11.06702468787646, 11.935737360557455, 12.7042208397447, 13.981643941817545, 14.976592388023054, 16.639120825815006, 17.666826111390996, 18.25874653130484]

>  <Cp_T_units>  (1) 
cal/(mol*K)

>  <T_list>  (1) 
[300.0, 400.0, 500.0, 600.0, 800.0, 1000.0, 1500.0, 2000.0, 2400.0]

>  <T_units>  (1) 
K

>  <yaml_path>  (1) 
/home/calvin/Dropbox/PersonalFolders/Calvin/HAb_Converged/rxn_438/output/Species/rxn_438_OO/rxn_438_OO.yml

>  <frequencies_cm1>  (1) 
[384.68165064108, 1007.86056843108, 1337.5514006295998, 1458.46527814416, 3787.7329647175193, 3788.3509933963196]

>  <ZPE_kJmol>  (1) 
70.36821125363778

>  <E_elec_kJmol>  (1) 
-397940.04661452514

>  <E0_minus_Eelec_plus_ZPE_kJmol>  (1) 
0.0

>  <rxn>  (1) 
rxn_438

>  <species_type>  (1) 
r0

>  <species_folder>  (1) 
rxn_438_OO

>  <frequencies_cm1_list>  (1) 
[384.68165064108, 1007.86056843108, 1337.5514006295998, 1458.46527814416, 3787.7329647175193, 3788.3509933963196]

>  <E0_kJmol>  (1) 
-397870

>  <H298_kJmol>  (1) 
-397859

$$$$

     RDKit          3D

  7  6  0  0  0  0  0  0  0  0999 V2000
   -1.2083   -0.5862   -0.8118 H   0  0  0  0  0  0  0  0  0  1  0  0
    1.2342   -0.0829   -0.2334 C   0  0  0  0  0  0  0  0  0  2  0  0
    0.0567    0.0497    0.4343 C   0  0  0  0  0  0  0  0  0  3  0  0
   -1.1110    0.0773   -0.1249 O   0  0  0  0  0  0  0  0  0  4  0  0
    2.1627   -0.1293    0.3184 H   0  0  0  0  0  0  0  0  0  5  0  0
    1.2673   -0.1249   -1.3119 H   0  0  0  0  0  0  0  0  0  6  0  0
    0.0573    0.1309    1.5224 H   0  0  0  0  0  0  0  0  0  7  0  0
  1  4  1  0
  2  5  1  0
  2  6  1  0
  2  3  1  0
  3  4  1  0
  3  7  1  0
M  END
>  <rmg_smiles>  (2) 
[CH2][CH]O

>  <rmg_adjacency_list>  (2) 
1 O u0 p2 c0 {2,S} {7,S}
2 C u0 p0 c0 {1,S} {3,S} {4,S}
3 C u0 p0 c0 {2,S} {5,S} {6,S}
4 H u0 p0 c0 {2,S}
5 H u0 p0 c0 {3,S}
6 H u0 p0 c0 {3,S}
7 H u0 p0 c0 {1,S}


>  <multiplicity>  (2) 
1

>  <reaction>  (2) 
rxn_438

>  <type>  (2) 
r2h

>  <role_mapnums>  (2) 
{"r2h_a": 4, "r2h_h": 1}

>  <role_mapidx>  (2) 
{"r2h_a": 3, "r2h_h": 0}

>  <ordered_mapped_smiles>  (2) 
[H:1][O:4][CH:3]([CH:2]([H:5])[H:6])[H:7]

>  <mol_properties>  (2) 
{"0": {"label": "a_hydrogen", "atom_type": "H0"}, "3": {"label": "acceptor", "atom_type": "O2s"}}

>  <level_of_theory>  (2) 
wb97xd/def2tzvp

>  <lot_method>  (2) 
wb97xd

>  <lot_basis>  (2) 
def2tzvp

>  <spin_multiplicity>  (2) 
1.0

>  <optical_isomers>  (2) 
1.0

>  <modes>  (2) 
IdealGasTranslation(mass=(44.0262, 'amu')),         NonlinearRotor(             inertia = ([8.2807, 47.382, 55.6627

>  <frequency_value>  (2) 
unknown

>  <frequency_units>  (2) 
unknown

>  <frequency_list>  (2) 
unknown

>  <arkane_path>  (2) 
/home/calvin/Dropbox/PersonalFolders/Calvin/HAb_Converged/rxn_438/output/Species/rxn_438_C=CO/arkane/output.py

>  <path_exists>  (2) 
True

>  <E0_value>  (2) 
-403721.5747116701

>  <E0_units>  (2) 
kJ/mol

>  <thermo_class>  (2) 
NASA

>  <Cp0_value>  (2) 
33.257888

>  <Cp0_units>  (2) 
J/(mol*K)

>  <CpInf_value>  (2) 
157.97496800000002

>  <CpInf_units>  (2) 
J/(mol*K)

>  <Tmin_value>  (2) 
10.0

>  <Tmin_units>  (2) 
K

>  <Tmax_value>  (2) 
3000.0

>  <Tmax_units>  (2) 
K

>  <polynomials>  (2) 
[{"name": "polynomial1", "class": "NASAPolynomial", "Tmin_value": 10.0, "Tmin_units": "K", "Tmax_value": 555.2056569165115, "Tmax_units": "K", "coeffs": [4.097338498876175, -0.00864469935446395, 0.00010145195156182729, -1.7128067915122144e-07, 9.529325863832859e-11, -48556489.371090114, 6.758025660711023]}, {"name": "polynomial2", "class": "NASAPolynomial", "Tmin_value": 555.2056569165115, "Tmin_units": "K", "Tmax_value": 3000.0, "Tmax_units": "K", "coeffs": [1.4147655229747191, 0.022233618372519234, -1.3181078214137359e-05, 3.84008672844003e-09, -4.348743997465106e-13, -48556369.536413625, 16.518037716160666]}]

>  <H298_value>  (2) 
-96488.9113631066

>  <H298_units>  (2) 
kcal/mol

>  <S298_value>  (2) 
61.02009452592069

>  <S298_units>  (2) 
cal/(mol*K)

>  <Cp_T_value_list>  (2) 
[13.477038533015893, 16.591812971902087, 19.243552297445156, 21.42774445315535, 24.946933384852407, 27.567557974201097, 31.530028162453263, 33.624314656418505, 34.79540785772666]

>  <Cp_T_units>  (2) 
cal/(mol*K)

>  <T_list>  (2) 
[300.0, 400.0, 500.0, 600.0, 800.0, 1000.0, 1500.0, 2000.0, 2400.0]

>  <T_units>  (2) 
K

>  <yaml_path>  (2) 
/home/calvin/Dropbox/PersonalFolders/Calvin/HAb_Converged/rxn_438/output/Species/rxn_438_C=CO/rxn_438_C=CO.yml

>  <frequencies_cm1>  (2) 
[455.30172767195995, 498.1036471715199, 716.6317210098798, 841.3430414064, 964.0904040014, 1001.73521752564, 1127.5727235146398, 1324.1539122702798, 1349.32141346808, 1440.0754914571999, 1708.66388827836, 3129.0998017203597, 3174.0098857131597, 3232.0839805644, 3817.6661537273994]

>  <ZPE_kJmol>  (2) 
148.2164782013167

>  <E_elec_kJmol>  (2) 
-403869.7911898714

>  <E0_minus_Eelec_plus_ZPE_kJmol>  (2) 
0.0

>  <rxn>  (2) 
rxn_438

>  <species_type>  (2) 
p0

>  <species_folder>  (2) 
rxn_438_C=CO

>  <frequencies_cm1_list>  (2) 
[455.30172767195995, 498.1036471715199, 716.6317210098798, 841.3430414064, 964.0904040014, 1001.73521752564, 1127.5727235146398, 1324.1539122702798, 1349.32141346808, 1440.0754914571999, 1708.66388827836, 3129.0998017203597, 3174.0098857131597, 3232.0839805644, 3817.6661537273994]

>  <E0_kJmol>  (2) 
-403722

>  <H298_kJmol>  (2) 
-403710

$$$$

     RDKit          3D

 10  8  0  0  0  0  0  0  0  0999 V2000
    0.3135   -1.2900   -0.9005 O   0  0  0  0  0  0  0  0  0  1  0  0
   -0.9647   -0.8184   -0.8929 O   0  0  0  0  0  1  0  0  0  2  0  0
    0.2685   -2.0846   -0.3509 H   0  0  0  0  0  0  0  0  0  3  0  0
   -0.8708    0.2661   -0.3154 H   0  0  0  0  0  0  0  0  0  4  0  0
    1.5897    0.8920    0.3898 C   0  0  0  0  0  0  0  0  0  5  0  0
    0.4122    1.0246    1.0575 C   0  0  0  0  0  0  0  0  0  6  0  0
   -0.7554    1.0522    0.4984 O   0  0  0  0  0  0  0  0  0  7  0  0
    2.5182    0.8456    0.9416 H   0  0  0  0  0  0  0  0  0  8  0  0
    1.6228    0.8500   -0.6887 H   0  0  0  0  0  0  0  0  0  9  0  0
    0.4128    1.1058    2.1457 H   0  0  0  0  0  0  0  0  0 10  0  0
  1  2  1  0
  1  3  1  0
  4  7  1  0
  5  8  1  0
  5  6  1  0
  5  9  1  0
  6  7  1  0
  6 10  1  0
M  RAD  1   2   2
M  END
>  <rmg_smiles>  (3) 
[CH2][CH]O.[O]O

>  <rmg_adjacency_list>  (3) 
multiplicity 2
1  O u0 p2 c0 {4,S} {9,S}
2  O u0 p2 c0 {3,S} {10,S}
3  O u1 p2 c0 {2,S}
4  C u0 p0 c0 {1,S} {5,S} {6,S}
5  C u0 p0 c0 {4,S} {7,S} {8,S}
6  H u0 p0 c0 {4,S}
7  H u0 p0 c0 {5,S}
8  H u0 p0 c0 {5,S}
9  H u0 p0 c0 {1,S}
10 H u0 p0 c0 {2,S}


>  <multiplicity>  (3) 
2

>  <reaction>  (3) 
rxn_438

>  <type>  (3) 
ts

>  <role_mapnums>  (3) 
{"*2": 4, "*1": 7, "*3": 2, "*0": 6, "*4": 1}

>  <role_mapidx>  (3) 
{"*2": 3, "*1": 6, "*3": 1, "*0": 5, "*4": 0}

>  <ordered_mapped_smiles>  (3) 
[O:1]([O:2])[H:3].[H:4][O:7][CH:6]([CH:5]([H:8])[H:9])[H:10]

>  <mol_properties>  (3) 
{"0": {"label": "*4", "atom_type": "O2s"}, "1": {"label": "*3", "atom_type": "O2s"}, "3": {"label": "*2", "atom_type": "H0"}, "5": {"label": "*0", "atom_type": "Cs"}, "6": {"label": "*1", "atom_type": "O2s"}}

>  <level_of_theory>  (3) 
wb97xd/def2tzvp

>  <lot_method>  (3) 
wb97xd

>  <lot_basis>  (3) 
def2tzvp

>  <spin_multiplicity>  (3) 
2.0

>  <optical_isomers>  (3) 
2.0

>  <modes>  (3) 
IdealGasTranslation(mass=(77.0239, 'amu')),         NonlinearRotor(             inertia = ([64.2696, 143.901, 196.665

>  <frequency_value>  (3) 
-2070.68

>  <frequency_units>  (3) 
cm^-1

>  <frequency_list>  (3) 
unknown

>  <arkane_path>  (3) 
/home/calvin/Dropbox/PersonalFolders/Calvin/HAb_Converged/rxn_438/output/rxns/TS0/arkane/output.py

>  <path_exists>  (3) 
True

>  <E0_value>  (3) 
-799897.0

>  <E0_units>  (3) 
kJ/mol

>  <thermo_class>  (3) 
unknown

>  <Cp0_value>  (3) 
unknown

>  <Cp0_units>  (3) 
unknown

>  <CpInf_value>  (3) 
unknown

>  <CpInf_units>  (3) 
unknown

>  <Tmin_value>  (3) 
unknown

>  <Tmin_units>  (3) 
unknown

>  <Tmax_value>  (3) 
unknown

>  <Tmax_units>  (3) 
unknown

>  <polynomials>  (3) 
unknown

>  <H298_value>  (3) 
unknown

>  <H298_units>  (3) 
unknown

>  <S298_value>  (3) 
unknown

>  <S298_units>  (3) 
unknown

>  <Cp_T_value_list>  (3) 
unknown

>  <Cp_T_units>  (3) 
unknown

>  <T_list>  (3) 
unknown

>  <T_units>  (3) 
unknown

>  <yaml_path>  (3) 
unknown

>  <frequencies_cm1>  (3) 
unknown

>  <ZPE_kJmol>  (3) 
unknown

>  <E_elec_kJmol>  (3) 
unknown

>  <E0_minus_Eelec_plus_ZPE_kJmol>  (3) 
unknown

>  <rxn>  (3) 
unknown

>  <species_type>  (3) 
unknown

>  <species_folder>  (3) 
unknown

>  <frequencies_cm1_list>  (3) 
[]

>  <ts_imag_freq_cm1>  (3) 
-2095.8315

>  <ts_freq_out_path>  (3) 
/home/calvin/Dropbox/PersonalFolders/Calvin/HAb_Converged/rxn_438/output/rxns/TS0/geometry/freq.out

>  <E0_kJmol>  (3) 
-799897

>  <H298_kJmol>  (3) 
unknown

$$$$

     RDKit          3D

  3  2  0  0  0  0  0  0  0  0999 V2000
    0.9943   -0.1797    0.0000 O   0  0  0  0  0  1  0  0  0  1  0  0
   -0.1595    0.4394    0.0000 O   0  0  0  0  0  0  0  0  0  2  0  0
   -0.8348   -0.2597    0.0000 H   0  0  0  0  0  0  0  0  0  3  0  0
  1  2  1  0
  2  3  1  0
M  RAD  1   1   2
M  END
>  <rmg_smiles>  (4) 
[O]O

>  <rmg_adjacency_list>  (4) 
multiplicity 2
1 O u1 p2 c0 {2,S}
2 O u0 p2 c0 {1,S} {3,S}
3 H u0 p0 c0 {2,S}


>  <multiplicity>  (4) 
2

>  <reaction>  (4) 
rxn_438

>  <type>  (4) 
r1

>  <role_mapnums>  (4) 
{}

>  <role_mapidx>  (4) 
{}

>  <ordered_mapped_smiles>  (4) 
[O:1][O:2][H:3]

>  <level_of_theory>  (4) 
wb97xd/def2tzvp

>  <lot_method>  (4) 
wb97xd

>  <lot_basis>  (4) 
def2tzvp

>  <spin_multiplicity>  (4) 
2.0

>  <optical_isomers>  (4) 
1.0

>  <modes>  (4) 
IdealGasTranslation(mass=(32.9977, 'amu')),         NonlinearRotor(             inertia = ([0.803517, 14.5889, 15.3924

>  <frequency_value>  (4) 
unknown

>  <frequency_units>  (4) 
unknown

>  <frequency_list>  (4) 
unknown

>  <arkane_path>  (4) 
/home/calvin/Dropbox/PersonalFolders/Calvin/HAb_Converged/rxn_438/output/Species/rxn_438_[O]O/arkane/output.py

>  <path_exists>  (4) 
True

>  <E0_value>  (4) 
-396214.7927695905

>  <E0_units>  (4) 
kJ/mol

>  <thermo_class>  (4) 
NASA

>  <Cp0_value>  (4) 
33.257888

>  <Cp0_units>  (4) 
J/(mol*K)

>  <CpInf_value>  (4) 
58.201304

>  <CpInf_units>  (4) 
J/(mol*K)

>  <Tmin_value>  (4) 
10.0

>  <Tmin_units>  (4) 
K

>  <Tmax_value>  (4) 
3000.0

>  <Tmax_units>  (4) 
K

>  <polynomials>  (4) 
[{"name": "polynomial1", "class": "NASAPolynomial", "Tmin_value": 10.0, "Tmin_units": "K", "Tmax_value": 938.1901641883775, "Tmax_units": "K", "coeffs": [4.028900763568748, -0.0017001850192041605, 1.0116513729421136e-05, -1.0102502975955476e-08, 3.2943616799556636e-12, -47653633.38795187, 4.661311963627797]}, {"name": "polynomial2", "class": "NASAPolynomial", "Tmin_value": 938.1901641883775, "Tmin_units": "K", "Tmax_value": 3000.0, "Tmax_units": "K", "coeffs": [3.0224709900106443, 0.00428209217697721, -2.152234978217665e-06, 5.370565329041951e-10, -5.2799153043016775e-14, -47653518.97920004, 9.055842364041489]}]

>  <H298_value>  (4) 
-94695.23338060976

>  <H298_units>  (4) 
kcal/mol

>  <S298_value>  (4) 
54.59701487407024

>  <S298_units>  (4) 
cal/(mol*K)

>  <Cp_T_value_list>  (4) 
[8.312978103030632, 8.754130351990018, 9.242540000567846, 9.728455522252242, 10.572357002256187, 11.201059485179156, 12.218042363471625, 12.776508208459937, 13.066159106759592]

>  <Cp_T_units>  (4) 
cal/(mol*K)

>  <T_list>  (4) 
[300.0, 400.0, 500.0, 600.0, 800.0, 1000.0, 1500.0, 2000.0, 2400.0]

>  <T_units>  (4) 
K

>  <yaml_path>  (4) 
/home/calvin/Dropbox/PersonalFolders/Calvin/HAb_Converged/rxn_438/output/Species/rxn_438_[O]O/rxn_438_OO.yml

>  <frequencies_cm1>  (4) 
[1229.25217514788, 1446.77766912952, 3624.6283293968795]

>  <ZPE_kJmol>  (4) 
37.68631575394318

>  <E_elec_kJmol>  (4) 
-396252.4790853445

>  <E0_minus_Eelec_plus_ZPE_kJmol>  (4) 
0.0

>  <rxn>  (4) 
rxn_438

>  <species_type>  (4) 
p1

>  <species_folder>  (4) 
rxn_438_[O]O

>  <frequencies_cm1_list>  (4) 
[1229.25217514788, 1446.77766912952, 3624.6283293968795]

>  <E0_kJmol>  (4) 
-396215

>  <H298_kJmol>  (4) 
-396205

$$$$

     RDKit          3D

  6  5  0  0  0  0  0  0  0  0999 V2000
   -0.7133   -0.0465   -0.1138 C   0  0  0  0  0  0  0  0  0  1  0  0
    0.6837    0.0990    0.1040 C   0  0  0  0  0  0  0  0  0  2  0  0
    1.4284   -0.8504    0.3164 O   0  0  0  0  0  1  0  0  0  3  0  0
   -1.3425    0.8143   -0.2988 H   0  0  0  0  0  0  0  0  0  4  0  0
   -1.1519   -1.0358   -0.0939 H   0  0  0  0  0  0  0  0  0  5  0  0
    1.0889    1.1261    0.0750 H   0  0  0  0  0  0  0  0  0  6  0  0
  1  5  1  0
  1  4  1  0
  1  2  1  0
  2  3  1  0
  2  6  1  0
M  RAD  1   3   2
M  END
>  <rmg_smiles>  (5) 
[CH2][CH][O]

>  <rmg_adjacency_list>  (5) 
multiplicity 2
1 O u1 p2 c0 {3,S}
2 C u0 p0 c0 {3,S} {4,S} {5,S}
3 C u0 p0 c0 {1,S} {2,S} {6,S}
4 H u0 p0 c0 {2,S}
5 H u0 p0 c0 {2,S}
6 H u0 p0 c0 {3,S}


>  <multiplicity>  (5) 
2

>  <reaction>  (5) 
rxn_438

>  <type>  (5) 
r2

>  <role_mapnums>  (5) 
{}

>  <role_mapidx>  (5) 
{}

>  <ordered_mapped_smiles>  (5) 
[CH:1]([CH:2]([O:3])[H:6])([H:4])[H:5]

>  <level_of_theory>  (5) 
wb97xd/def2tzvp

>  <lot_method>  (5) 
wb97xd

>  <lot_basis>  (5) 
def2tzvp

>  <spin_multiplicity>  (5) 
2.0

>  <optical_isomers>  (5) 
1.0

>  <modes>  (5) 
IdealGasTranslation(mass=(43.0184, 'amu')),         NonlinearRotor(             inertia = ([7.46923, 43.7555, 51.2248

>  <frequency_value>  (5) 
unknown

>  <frequency_units>  (5) 
unknown

>  <frequency_list>  (5) 
unknown

>  <arkane_path>  (5) 
/home/calvin/Dropbox/PersonalFolders/Calvin/HAb_Converged/rxn_438/output/Species/rxn_438_C=C[O]/arkane/output.py

>  <path_exists>  (5) 
True

>  <E0_value>  (5) 
-402064.8713042213

>  <E0_units>  (5) 
kJ/mol

>  <thermo_class>  (5) 
NASA

>  <Cp0_value>  (5) 
33.257888

>  <Cp0_units>  (5) 
J/(mol*K)

>  <CpInf_value>  (5) 
133.031552

>  <CpInf_units>  (5) 
J/(mol*K)

>  <Tmin_value>  (5) 
10.0

>  <Tmin_units>  (5) 
K

>  <Tmax_value>  (5) 
3000.0

>  <Tmax_units>  (5) 
K

>  <polynomials>  (5) 
[{"name": "polynomial1", "class": "NASAPolynomial", "Tmin_value": 10.0, "Tmin_units": "K", "Tmax_value": 528.0713723584518, "Tmax_units": "K", "coeffs": [4.069068181720393, -0.006445847334327831, 8.24519976252606e-05, -1.4303373223005544e-07, 8.214673664772e-11, -48357233.95188342, 7.286659191587968]}, {"name": "polynomial2", "class": "NASAPolynomial", "Tmin_value": 528.0713723584518, "Tmin_units": "K", "Tmax_value": 3000.0, "Tmax_units": "K", "coeffs": [1.7695732635792571, 0.01876974415384689, -1.1322603147409724e-05, 3.314768491708994e-09, -3.755982674490112e-13, -48357099.81311182, 15.882697555195485]}]

>  <H298_value>  (5) 
-96093.00709441646

>  <H298_units>  (5) 
kcal/mol

>  <S298_value>  (5) 
61.819845521600215

>  <S298_units>  (5) 
cal/(mol*K)

>  <Cp_T_value_list>  (5) 
[12.637583235282603, 15.166054906543657, 17.31671305522784, 19.122083502158667, 22.022657621394718, 24.156252691896597, 27.29271108597069, 28.86859523774997, 29.72995192031171]

>  <Cp_T_units>  (5) 
cal/(mol*K)

>  <T_list>  (5) 
[300.0, 400.0, 500.0, 600.0, 800.0, 1000.0, 1500.0, 2000.0, 2400.0]

>  <T_units>  (5) 
K

>  <yaml_path>  (5) 
/home/calvin/Dropbox/PersonalFolders/Calvin/HAb_Converged/rxn_438/output/Species/rxn_438_C=C[O]/rxn_438_C=CO.yml

>  <frequencies_cm1>  (5) 
[449.66393272424, 506.48823624724, 754.00185512132, 972.8389432990799, 977.2269469185599, 1153.37198736188, 1391.8692545108001, 1463.54684728096, 1583.9044989846002, 2931.70144171164, 3126.8886324473197, 3242.4599953829197]

>  <ZPE_kJmol>  (5) 
110.97737295072427

>  <E_elec_kJmol>  (5) 
-402175.848677172

>  <E0_minus_Eelec_plus_ZPE_kJmol>  (5) 
0.0

>  <rxn>  (5) 
rxn_438

>  <species_type>  (5) 
r1

>  <species_folder>  (5) 
rxn_438_C=C[O]

>  <frequencies_cm1_list>  (5) 
[449.66393272424, 506.48823624724, 754.00185512132, 972.8389432990799, 977.2269469185599, 1153.37198736188, 1391.8692545108001, 1463.54684728096, 1583.9044989846002, 2931.70144171164, 3126.8886324473197, 3242.4599953829197]

>  <E0_kJmol>  (5) 
-402065

>  <H298_kJmol>  (5) 
-402053

$$$$
