
     RDKit          3D

 14 13  0  0  0  0  0  0  0  0999 V2000
    0.0165   -0.9180   -1.1454 C   0  0  0  0  0  0  0  0  0  1  0  0
    0.2245   -0.0827    0.0900 C   0  0  0  0  0  0  0  0  0  2  0  0
    0.4922    1.3778   -0.1616 C   0  0  0  0  0  0  0  0  0  3  0  0
   -0.7311   -0.3738    1.2171 C   0  0  0  0  0  0  0  0  0  4  0  0
    0.8237   -0.7689   -1.8655 H   0  0  0  0  0  0  0  0  0  5  0  0
   -0.9253   -0.6517   -1.6404 H   0  0  0  0  0  0  0  0  0  6  0  0
   -0.0307   -1.9809   -0.8980 H   0  0  0  0  0  0  0  0  0  7  0  0
    1.1653   -0.4777    0.4736 H   0  0  0  0  0  0  0  0  0  8  0  0
   -0.4103    1.8749   -0.5389 H   0  0  0  0  0  0  0  0  0  9  0  0
    0.7916    1.8919    0.7539 H   0  0  0  0  0  0  0  0  0 10  0  0
    1.2798    1.5177   -0.9044 H   0  0  0  0  0  0  0  0  0 11  0  0
   -0.7455   -1.4396    1.4552 H   0  0  0  0  0  0  0  0  0 12  0  0
   -1.7526   -0.0804    0.9453 H   0  0  0  0  0  0  0  0  0 13  0  0
   -0.4608    0.1768    2.1206 H   0  0  0  0  0  0  0  0  0 14  0  0
  1  5  1  0
  1  7  1  0
  1  6  1  0
  1  2  1  0
  2  8  1  0
  2  3  1  0
  2  4  1  0
  3 11  1  0
  3  9  1  0
  3 10  1  0
  4 14  1  0
  4 13  1  0
  4 12  1  0
M  END
>  <rmg_smiles>  (1) 
CC(C)C

>  <rmg_adjacency_list>  (1) 
1  C u0 p0 c0 {2,S} {3,S} {4,S} {5,S}
2  C u0 p0 c0 {1,S} {6,S} {7,S} {8,S}
3  C u0 p0 c0 {1,S} {9,S} {10,S} {11,S}
4  C u0 p0 c0 {1,S} {12,S} {13,S} {14,S}
5  H u0 p0 c0 {1,S}
6  H u0 p0 c0 {2,S}
7  H u0 p0 c0 {2,S}
8  H u0 p0 c0 {2,S}
9  H u0 p0 c0 {3,S}
10 H u0 p0 c0 {3,S}
11 H u0 p0 c0 {3,S}
12 H u0 p0 c0 {4,S}
13 H u0 p0 c0 {4,S}
14 H u0 p0 c0 {4,S}


>  <multiplicity>  (1) 
1

>  <reaction>  (1) 
rxn_982

>  <type>  (1) 
r1h

>  <role_mapnums>  (1) 
{"r1h_a": 2, "r1h_h": 8}

>  <role_mapidx>  (1) 
{"r1h_a": 1, "r1h_h": 7}

>  <ordered_mapped_smiles>  (1) 
[C:1]([C:2]([C:3]([H:9])([H:10])[H:11])([C:4]([H:12])([H:13])[H:14])[H:8])([H:5])([H:6])[H:7]

>  <mol_properties>  (1) 
{"1": {"label": "donator", "atom_type": "Cs"}, "7": {"label": "d_hydrogen", "atom_type": "H0"}}

>  <level_of_theory>  (1) 
wb97xd/def2tzvp

>  <lot_method>  (1) 
wb97xd

>  <lot_basis>  (1) 
def2tzvp

>  <spin_multiplicity>  (1) 
1.0

>  <optical_isomers>  (1) 
1.0

>  <modes>  (1) 
IdealGasTranslation(mass=(58.0782, 'amu')),         NonlinearRotor(             inertia = ([64.472, 64.4729, 111.216

>  <frequency_value>  (1) 
unknown

>  <frequency_units>  (1) 
unknown

>  <frequency_list>  (1) 
unknown

>  <arkane_path>  (1) 
/home/calvin/Dropbox/PersonalFolders/Calvin/HAb_Converged/rxn_982/output/Species/rxn_982_CC[C]C/arkane/output.py

>  <path_exists>  (1) 
True

>  <E0_value>  (1) 
-415716.8519572298

>  <E0_units>  (1) 
kJ/mol

>  <thermo_class>  (1) 
NASA

>  <Cp0_value>  (1) 
33.257888

>  <Cp0_units>  (1) 
J/(mol*K)

>  <CpInf_value>  (1) 
332.57888

>  <CpInf_units>  (1) 
J/(mol*K)

>  <Tmin_value>  (1) 
10.0

>  <Tmin_units>  (1) 
K

>  <Tmax_value>  (1) 
3000.0

>  <Tmax_units>  (1) 
K

>  <polynomials>  (1) 
[{"name": "polynomial1", "class": "NASAPolynomial", "Tmin_value": 10.0, "Tmin_units": "K", "Tmax_value": 538.3578739184582, "Tmax_units": "K", "coeffs": [3.8620303652829877, 0.009623824768258278, 8.478796916456398e-05, -1.3104600092055228e-07, 6.337793264833411e-11, -49999183.94480057, 7.55862206242118]}, {"name": "polynomial2", "class": "NASAPolynomial", "Tmin_value": 538.3578739184582, "Tmin_units": "K", "Tmax_value": 3000.0, "Tmax_units": "K", "coeffs": [-1.5217719678644437, 0.04962549981715785, -2.666676401251574e-05, 6.972192149693436e-09, -7.143037535114631e-13, -49998604.26252422, 30.198533016300075]}]

>  <H298_value>  (1) 
-99354.53509282206

>  <H298_units>  (1) 
kcal/mol

>  <S298_value>  (1) 
69.87533664430958

>  <S298_units>  (1) 
cal/(mol*K)

>  <Cp_T_value_list>  (1) 
[22.565155577681967, 28.840658531699095, 34.67934816901607, 39.87709920424074, 48.46614325870814, 55.035390400353826, 65.24246247064798, 70.368668855776, 72.85807858349423]

>  <Cp_T_units>  (1) 
cal/(mol*K)

>  <T_list>  (1) 
[300.0, 400.0, 500.0, 600.0, 800.0, 1000.0, 1500.0, 2000.0, 2400.0]

>  <T_units>  (1) 
K

>  <yaml_path>  (1) 
/home/calvin/Dropbox/PersonalFolders/Calvin/HAb_Converged/rxn_982/output/Species/rxn_982_CC[C]C/rxn_982_CCCC.yml

>  <frequencies_cm1>  (1) 
[211.06366079551998, 262.10596267908, 262.63472054871994, 368.89445139040004, 369.21033271511993, 434.56343200556, 803.9385723683599, 924.2069532628399, 924.6464403233199, 953.59078344712, 975.9222197077601, 976.2999039003599, 1191.00306691548, 1191.078603754, 1204.0572060088, 1353.02958554088, 1353.07765443812, 1393.06410995648, 1393.2769865014, 1417.1191595324399, 1467.52283178124, 1473.9091281288397, 1474.0945367324798, 1492.3813186396399, 1492.58046121392, 1500.6629029355597, 2997.83737732856, 3000.2545561612, 3000.33009299972, 3005.7275434612397, 3068.8557395079997, 3068.9106753905594, 3077.5974118203594, 3080.2343341832393, 3083.88757037348, 3083.98370816796]

>  <ZPE_kJmol>  (1) 
342.918943854627

>  <E_elec_kJmol>  (1) 
-416059.77090108447

>  <E0_minus_Eelec_plus_ZPE_kJmol>  (1) 
0.0

>  <rxn>  (1) 
rxn_982

>  <species_type>  (1) 
r1

>  <species_folder>  (1) 
rxn_982_CC[C]C

>  <frequencies_cm1_list>  (1) 
[211.06366079551998, 262.10596267908, 262.63472054871994, 368.89445139040004, 369.21033271511993, 434.56343200556, 803.9385723683599, 924.2069532628399, 924.6464403233199, 953.59078344712, 975.9222197077601, 976.2999039003599, 1191.00306691548, 1191.078603754, 1204.0572060088, 1353.02958554088, 1353.07765443812, 1393.06410995648, 1393.2769865014, 1417.1191595324399, 1467.52283178124, 1473.9091281288397, 1474.0945367324798, 1492.3813186396399, 1492.58046121392, 1500.6629029355597, 2997.83737732856, 3000.2545561612, 3000.33009299972, 3005.7275434612397, 3068.8557395079997, 3068.9106753905594, 3077.5974118203594, 3080.2343341832393, 3083.88757037348, 3083.98370816796]

>  <E0_kJmol>  (1) 
-415717

>  <H298_kJmol>  (1) 
-415699

$$$$

     RDKit          3D

 10  9  0  0  0  0  0  0  0  0999 V2000
    0.8478    1.1054   -0.7252 S   0  0  0  0  0  0  0  0  0  1  0  0
   -0.4143    0.3526    0.2984 C   0  0  0  0  0  0  0  0  0  2  0  0
   -0.6002   -1.0906    0.1829 C   0  0  0  0  0  0  0  0  0  3  0  0
   -1.0086   -1.8805    1.1773 C   0  0  0  0  0  0  0  0  0  4  0  0
    1.9040    0.4158   -0.2663 H   0  0  0  0  0  0  0  0  0  5  0  0
   -0.4179    0.7270    1.3208 H   0  0  0  0  0  0  0  0  0  6  0  0
   -0.4236   -1.5159   -0.8010 H   0  0  0  0  0  0  0  0  0  7  0  0
   -1.1861   -1.4907    2.1736 H   0  0  0  0  0  0  0  0  0  8  0  0
   -1.1713   -2.9393    1.0243 H   0  0  0  0  0  0  0  0  0  9  0  0
   -1.3140    0.8138   -0.1056 H   0  0  0  0  0  0  0  0  0 10  0  0
  1  2  1  0
  1  5  1  0
  2 10  1  0
  2  6  1  0
  2  3  1  0
  3  4  1  0
  3  7  1  0
  4  8  1  0
  4  9  1  0
M  END
>  <rmg_smiles>  (2) 
[CH2][CH]CS

>  <rmg_adjacency_list>  (2) 
1  S u0 p2 c0 {2,S} {10,S}
2  C u0 p0 c0 {1,S} {3,S} {5,S} {6,S}
3  C u0 p0 c0 {2,S} {4,S} {7,S}
4  C u0 p0 c0 {3,S} {8,S} {9,S}
5  H u0 p0 c0 {2,S}
6  H u0 p0 c0 {2,S}
7  H u0 p0 c0 {3,S}
8  H u0 p0 c0 {4,S}
9  H u0 p0 c0 {4,S}
10 H u0 p0 c0 {1,S}


>  <multiplicity>  (2) 
1

>  <reaction>  (2) 
rxn_982

>  <type>  (2) 
r2h

>  <role_mapnums>  (2) 
{"r2h_a": 2, "r2h_h": 10}

>  <role_mapidx>  (2) 
{"r2h_a": 1, "r2h_h": 9}

>  <ordered_mapped_smiles>  (2) 
[S:1]([C:2]([CH:3]([CH:4]([H:8])[H:9])[H:7])([H:6])[H:10])[H:5]

>  <mol_properties>  (2) 
{"1": {"label": "acceptor", "atom_type": "Cs"}, "9": {"label": "a_hydrogen", "atom_type": "H0"}}

>  <level_of_theory>  (2) 
wb97xd/def2tzvp

>  <lot_method>  (2) 
wb97xd

>  <lot_basis>  (2) 
def2tzvp

>  <spin_multiplicity>  (2) 
1.0

>  <optical_isomers>  (2) 
2.0

>  <modes>  (2) 
IdealGasTranslation(mass=(74.019, 'amu')),         NonlinearRotor(             inertia = ([24.9739, 180.25, 186.44

>  <frequency_value>  (2) 
unknown

>  <frequency_units>  (2) 
unknown

>  <frequency_list>  (2) 
unknown

>  <arkane_path>  (2) 
/home/calvin/Dropbox/PersonalFolders/Calvin/HAb_Converged/rxn_982/output/Species/rxn_982_SCC=C/arkane/output.py

>  <path_exists>  (2) 
True

>  <E0_value>  (2) 
-1354838.6258243525

>  <E0_units>  (2) 
kJ/mol

>  <thermo_class>  (2) 
NASA

>  <Cp0_value>  (2) 
33.257888

>  <Cp0_units>  (2) 
J/(mol*K)

>  <CpInf_value>  (2) 
232.805216

>  <CpInf_units>  (2) 
J/(mol*K)

>  <Tmin_value>  (2) 
10.0

>  <Tmin_units>  (2) 
K

>  <Tmax_value>  (2) 
3000.0

>  <Tmax_units>  (2) 
K

>  <polynomials>  (2) 
[{"name": "polynomial1", "class": "NASAPolynomial", "Tmin_value": 10.0, "Tmin_units": "K", "Tmax_value": 400.65806020409946, "Tmax_units": "K", "coeffs": [3.883268576252178, 0.009872966694517036, 7.267081741219709e-05, -1.4952606927169204e-07, 9.638969446192109e-11, -162949446.9996889, 10.213451719731799]}, {"name": "polynomial2", "class": "NASAPolynomial", "Tmin_value": 400.65806020409946, "Tmin_units": "K", "Tmax_value": 3000.0, "Tmax_units": "K", "coeffs": [1.381946217098182, 0.03484518856752169, -2.0821510203899097e-05, 6.039055448516005e-09, -6.791318499482445e-13, -162949246.56534788, 19.9930512432755]}]

>  <H298_value>  (2) 
-323810.2515366824

>  <H298_units>  (2) 
kcal/mol

>  <S298_value>  (2) 
74.2752341119096

>  <S298_units>  (2) 
cal/(mol*K)

>  <Cp_T_value_list>  (2) 
[20.12858317623335, 24.557289426072625, 28.44010285073442, 31.814651802239496, 37.252480139055294, 41.26543233779768, 47.186294391719805, 50.14241959560657, 51.7278549409484]

>  <Cp_T_units>  (2) 
cal/(mol*K)

>  <T_list>  (2) 
[300.0, 400.0, 500.0, 600.0, 800.0, 1000.0, 1500.0, 2000.0, 2400.0]

>  <T_units>  (2) 
K

>  <yaml_path>  (2) 
/home/calvin/Dropbox/PersonalFolders/Calvin/HAb_Converged/rxn_982/output/Species/rxn_982_SCC=C/rxn_982_SCC=C.yml

>  <frequencies_cm1>  (2) 
[109.00652496968, 245.3917204102, 290.63828668367995, 415.01999178484, 607.7556687612799, 738.8738864613599, 795.00462446704, 935.2971345546399, 957.23715265204, 997.0931354493199, 1031.7164754327598, 1111.56578073372, 1232.59639699872, 1263.93045101388, 1318.41311254276, 1435.2480007772401, 1465.33226346416, 1711.0192642431198, 2696.8986126648797, 3040.5500260189597, 3094.0163737204803, 3115.6885793903994, 3138.1779563133996, 3206.45639135016]

>  <ZPE_kJmol>  (2) 
209.0649957029236

>  <E_elec_kJmol>  (2) 
-1355047.6908200553

>  <E0_minus_Eelec_plus_ZPE_kJmol>  (2) 
0.0

>  <rxn>  (2) 
rxn_982

>  <species_type>  (2) 
p0

>  <species_folder>  (2) 
rxn_982_SCC=C

>  <frequencies_cm1_list>  (2) 
[109.00652496968, 245.3917204102, 290.63828668367995, 415.01999178484, 607.7556687612799, 738.8738864613599, 795.00462446704, 935.2971345546399, 957.23715265204, 997.0931354493199, 1031.7164754327598, 1111.56578073372, 1232.59639699872, 1263.93045101388, 1318.41311254276, 1435.2480007772401, 1465.33226346416, 1711.0192642431198, 2696.8986126648797, 3040.5500260189597, 3094.0163737204803, 3115.6885793903994, 3138.1779563133996, 3206.45639135016]

>  <E0_kJmol>  (2) 
-1.35484e+06

>  <H298_kJmol>  (2) 
-1.35482e+06

$$$$

     RDKit          3D

 23 21  0  0  0  0  0  0  0  0999 V2000
    2.2188    0.7315   -0.2528 S   0  0  0  0  0  0  0  0  0  1  0  0
    0.9566   -0.0213    0.7709 C   0  0  0  0  0  0  0  0  0  2  0  0
    0.7707   -1.4645    0.6554 C   0  0  0  0  0  0  0  0  0  3  0  0
    0.3623   -2.2544    1.6498 C   0  0  0  0  0  0  0  0  0  4  0  0
    3.2750    0.0419    0.2062 H   0  0  0  0  0  0  0  0  0  5  0  0
    0.9531    0.3531    1.7932 H   0  0  0  0  0  0  0  0  0  6  0  0
    0.9474   -1.8898   -0.3285 H   0  0  0  0  0  0  0  0  0  7  0  0
    0.1848   -1.8647    2.6461 H   0  0  0  0  0  0  0  0  0  8  0  0
    0.1997   -3.3132    1.4967 H   0  0  0  0  0  0  0  0  0  9  0  0
   -1.5284    0.2011   -1.4383 C   0  0  0  0  0  0  0  0  0 10  0  0
   -1.3204    1.0364   -0.2030 C   0  0  0  0  0  3  0  0  0 11  0  0
   -1.0528    2.4969   -0.4546 C   0  0  0  0  0  0  0  0  0 12  0  0
   -2.2760    0.7453    0.9241 C   0  0  0  0  0  0  0  0  0 13  0  0
   -0.7212    0.3502   -2.1585 H   0  0  0  0  0  0  0  0  0 14  0  0
   -2.4702    0.4674   -1.9333 H   0  0  0  0  0  0  0  0  0 15  0  0
   -1.5757   -0.8617   -1.1909 H   0  0  0  0  0  0  0  0  0 16  0  0
   -0.1402    0.5409    0.2783 H   0  0  0  0  0  0  0  0  0 17  0  0
   -1.9552    2.9941   -0.8319 H   0  0  0  0  0  0  0  0  0 18  0  0
   -0.7533    3.0110    0.4610 H   0  0  0  0  0  0  0  0  0 19  0  0
   -0.2652    2.6368   -1.1974 H   0  0  0  0  0  0  0  0  0 20  0  0
   -2.2905   -0.3204    1.1622 H   0  0  0  0  0  0  0  0  0 21  0  0
   -3.2975    1.0387    0.6523 H   0  0  0  0  0  0  0  0  0 22  0  0
   -2.0058    1.2959    1.8277 H   0  0  0  0  0  0  0  0  0 23  0  0
  1  5  1  0
  1  2  1  0
  2  6  1  0
  2  3  1  0
  2 17  1  0
  3  4  1  0
  3  7  1  0
  4  9  1  0
  4  8  1  0
 10 16  1  0
 10 15  1  0
 10 11  1  0
 10 14  1  0
 11 13  1  0
 11 12  1  0
 12 19  1  0
 12 18  1  0
 12 20  1  0
 13 23  1  0
 13 21  1  0
 13 22  1  0
M  RAD  1  11   2
M  END
>  <rmg_smiles>  (3) 
C[C](C)C.[CH2][CH]CS

>  <rmg_adjacency_list>  (3) 
multiplicity 2
1  S u0 p2 c0 {2,S} {23,S}
2  C u0 p0 c0 {1,S} {7,S} {9,S} {10,S}
3  C u0 p0 c0 {6,S} {11,S} {12,S} {13,S}
4  C u0 p0 c0 {6,S} {14,S} {15,S} {16,S}
5  C u0 p0 c0 {6,S} {17,S} {18,S} {19,S}
6  C u1 p0 c0 {3,S} {4,S} {5,S}
7  C u0 p0 c0 {2,S} {8,S} {20,S}
8  C u0 p0 c0 {7,S} {21,S} {22,S}
9  H u0 p0 c0 {2,S}
10 H u0 p0 c0 {2,S}
11 H u0 p0 c0 {3,S}
12 H u0 p0 c0 {3,S}
13 H u0 p0 c0 {3,S}
14 H u0 p0 c0 {4,S}
15 H u0 p0 c0 {4,S}
16 H u0 p0 c0 {4,S}
17 H u0 p0 c0 {5,S}
18 H u0 p0 c0 {5,S}
19 H u0 p0 c0 {5,S}
20 H u0 p0 c0 {7,S}
21 H u0 p0 c0 {8,S}
22 H u0 p0 c0 {8,S}
23 H u0 p0 c0 {1,S}


>  <multiplicity>  (3) 
2

>  <reaction>  (3) 
rxn_982

>  <type>  (3) 
ts

>  <role_mapnums>  (3) 
{"*2": 17, "*1": 11, "*3": 2, "*0": 1, "*4": 10}

>  <role_mapidx>  (3) 
{"*2": 16, "*1": 10, "*3": 1, "*0": 0, "*4": 9}

>  <ordered_mapped_smiles>  (3) 
[S:1]([C:2]([CH:3]([CH:4]([H:8])[H:9])[H:7])([H:6])[H:17])[H:5].[C:10]([C:11]([C:12]([H:18])([H:19])[H:20])[C:13]([H:21])([H:22])[H:23])([H:14])([H:15])[H:16]

>  <mol_properties>  (3) 
{"0": {"label": "*0", "atom_type": "S2s"}, "1": {"label": "*3", "atom_type": "Cs"}, "9": {"label": "*4", "atom_type": "Cs"}, "10": {"label": "*1", "atom_type": "Cs"}, "16": {"label": "*2", "atom_type": "H0"}}

>  <level_of_theory>  (3) 
wb97xd/def2tzvp

>  <lot_method>  (3) 
wb97xd

>  <lot_basis>  (3) 
def2tzvp

>  <spin_multiplicity>  (3) 
2.0

>  <optical_isomers>  (3) 
2.0

>  <modes>  (3) 
IdealGasTranslation(mass=(131.089, 'amu')),         NonlinearRotor(             inertia = ([308.719, 452.484, 630.982

>  <frequency_value>  (3) 
-1656.77

>  <frequency_units>  (3) 
cm^-1

>  <frequency_list>  (3) 
unknown

>  <arkane_path>  (3) 
/home/calvin/Dropbox/PersonalFolders/Calvin/HAb_Converged/rxn_982/output/rxns/TS0/arkane/output.py

>  <path_exists>  (3) 
True

>  <E0_value>  (3) 
-1768810.0

>  <E0_units>  (3) 
kJ/mol

>  <thermo_class>  (3) 
unknown

>  <Cp0_value>  (3) 
unknown

>  <Cp0_units>  (3) 
unknown

>  <CpInf_value>  (3) 
unknown

>  <CpInf_units>  (3) 
unknown

>  <Tmin_value>  (3) 
unknown

>  <Tmin_units>  (3) 
unknown

>  <Tmax_value>  (3) 
unknown

>  <Tmax_units>  (3) 
unknown

>  <polynomials>  (3) 
unknown

>  <H298_value>  (3) 
unknown

>  <H298_units>  (3) 
unknown

>  <S298_value>  (3) 
unknown

>  <S298_units>  (3) 
unknown

>  <Cp_T_value_list>  (3) 
unknown

>  <Cp_T_units>  (3) 
unknown

>  <T_list>  (3) 
unknown

>  <T_units>  (3) 
unknown

>  <yaml_path>  (3) 
unknown

>  <frequencies_cm1>  (3) 
unknown

>  <ZPE_kJmol>  (3) 
unknown

>  <E_elec_kJmol>  (3) 
unknown

>  <E0_minus_Eelec_plus_ZPE_kJmol>  (3) 
unknown

>  <rxn>  (3) 
unknown

>  <species_type>  (3) 
unknown

>  <species_folder>  (3) 
unknown

>  <frequencies_cm1_list>  (3) 
[]

>  <ts_imag_freq_cm1>  (3) 
-1676.893

>  <ts_freq_out_path>  (3) 
/home/calvin/Dropbox/PersonalFolders/Calvin/HAb_Converged/rxn_982/output/rxns/TS0/geometry/freq.out

>  <E0_kJmol>  (3) 
-1.76881e+06

>  <H298_kJmol>  (3) 
unknown

$$$$

     RDKit          3D

 13 12  0  0  0  0  0  0  0  0999 V2000
   -1.3649   -0.5967   -0.3477 C   0  0  0  0  0  0  0  0  0  1  0  0
   -0.1601   -0.2776    0.4669 C   0  0  0  0  0  3  0  0  0  2  0  0
    1.1241   -0.9571    0.1414 C   0  0  0  0  0  0  0  0  0  3  0  0
   -0.1188    1.0130    1.2081 C   0  0  0  0  0  0  0  0  0  4  0  0
   -1.4266   -1.6632   -0.5770 H   0  0  0  0  0  0  0  0  0  5  0  0
   -2.2858   -0.3004    0.1602 H   0  0  0  0  0  0  0  0  0  6  0  0
   -1.3532   -0.0668   -1.3138 H   0  0  0  0  0  0  0  0  0  7  0  0
    1.6174   -0.4963   -0.7297 H   0  0  0  0  0  0  0  0  0  8  0  0
    0.9723   -2.0104   -0.1064 H   0  0  0  0  0  0  0  0  0  9  0  0
    1.8338   -0.8977    0.9701 H   0  0  0  0  0  0  0  0  0 10  0  0
   -1.0852    1.2507    1.6593 H   0  0  0  0  0  0  0  0  0 11  0  0
    0.6358    1.0009    1.9983 H   0  0  0  0  0  0  0  0  0 12  0  0
    0.1343    1.8546    0.5434 H   0  0  0  0  0  0  0  0  0 13  0  0
  1  5  1  0
  1  7  1  0
  1  6  1  0
  1  2  1  0
  2  3  1  0
  2  4  1  0
  3  9  1  0
  3 10  1  0
  3  8  1  0
  4 13  1  0
  4 12  1  0
  4 11  1  0
M  RAD  1   2   2
M  END
>  <rmg_smiles>  (4) 
C[C](C)C

>  <rmg_adjacency_list>  (4) 
multiplicity 2
1  C u0 p0 c0 {4,S} {5,S} {6,S} {7,S}
2  C u0 p0 c0 {4,S} {8,S} {9,S} {10,S}
3  C u0 p0 c0 {4,S} {11,S} {12,S} {13,S}
4  C u1 p0 c0 {1,S} {2,S} {3,S}
5  H u0 p0 c0 {1,S}
6  H u0 p0 c0 {1,S}
7  H u0 p0 c0 {1,S}
8  H u0 p0 c0 {2,S}
9  H u0 p0 c0 {2,S}
10 H u0 p0 c0 {2,S}
11 H u0 p0 c0 {3,S}
12 H u0 p0 c0 {3,S}
13 H u0 p0 c0 {3,S}


>  <multiplicity>  (4) 
2

>  <reaction>  (4) 
rxn_982

>  <type>  (4) 
r1

>  <role_mapnums>  (4) 
{}

>  <role_mapidx>  (4) 
{}

>  <ordered_mapped_smiles>  (4) 
[C:1]([C:2]([C:3]([H:8])([H:9])[H:10])[C:4]([H:11])([H:12])[H:13])([H:5])([H:6])[H:7]

>  <level_of_theory>  (4) 
wb97xd/def2tzvp

>  <lot_method>  (4) 
wb97xd

>  <lot_basis>  (4) 
def2tzvp

>  <spin_multiplicity>  (4) 
2.0

>  <optical_isomers>  (4) 
1.0

>  <modes>  (4) 
IdealGasTranslation(mass=(57.0704, 'amu')),         NonlinearRotor(             inertia = ([62.7477, 62.7516, 115.628

>  <frequency_value>  (4) 
unknown

>  <frequency_units>  (4) 
unknown

>  <frequency_list>  (4) 
unknown

>  <arkane_path>  (4) 
/home/calvin/Dropbox/PersonalFolders/Calvin/HAb_Converged/rxn_982/output/Species/rxn_982_C[C][C]C/arkane/output.py

>  <path_exists>  (4) 
True

>  <E0_value>  (4) 
-414011.7596443709

>  <E0_units>  (4) 
kJ/mol

>  <thermo_class>  (4) 
NASA

>  <Cp0_value>  (4) 
33.257888

>  <Cp0_units>  (4) 
J/(mol*K)

>  <CpInf_value>  (4) 
307.635464

>  <CpInf_units>  (4) 
J/(mol*K)

>  <Tmin_value>  (4) 
10.0

>  <Tmin_units>  (4) 
K

>  <Tmax_value>  (4) 
3000.0

>  <Tmax_units>  (4) 
K

>  <polynomials>  (4) 
[{"name": "polynomial1", "class": "NASAPolynomial", "Tmin_value": 10.0, "Tmin_units": "K", "Tmax_value": 466.097988945254, "Tmax_units": "K", "coeffs": [3.6355323414741805, 0.036642720629703265, -8.047513153587245e-05, 2.0692116358974464e-07, -1.7306575360242044e-10, -49794112.62239622, 8.363335391452665]}, {"name": "polynomial2", "class": "NASAPolynomial", "Tmin_value": 466.097988945254, "Tmin_units": "K", "Tmax_value": 3000.0, "Tmax_units": "K", "coeffs": [-0.5046672100981657, 0.04583903947374939, -2.5321220735420916e-05, 6.815196844540235e-09, -7.176057197247632e-13, -49793440.62071047, 28.245547884046434]}]

>  <H298_value>  (4) 
-98946.5598423168

>  <H298_units>  (4) 
kcal/mol

>  <S298_value>  (4) 
75.3263814201317

>  <S298_units>  (4) 
cal/(mol*K)

>  <Cp_T_value_list>  (4) 
[22.99322222346512, 28.276101847556447, 33.56709055717378, 38.277964743609814, 46.01661336160253, 51.88743754492229, 60.90699641803248, 65.43555446497737, 67.6914903180454]

>  <Cp_T_units>  (4) 
cal/(mol*K)

>  <T_list>  (4) 
[300.0, 400.0, 500.0, 600.0, 800.0, 1000.0, 1500.0, 2000.0, 2400.0]

>  <T_units>  (4) 
K

>  <yaml_path>  (4) 
/home/calvin/Dropbox/PersonalFolders/Calvin/HAb_Converged/rxn_982/output/Species/rxn_982_C[C][C]C/rxn_982_CCCC.yml

>  <frequencies_cm1>  (4) 
[127.68472504008, 132.20320138064, 133.70707116572, 257.47074758808, 382.77949570743993, 383.17778085599997, 764.0894565563999, 931.0121357149599, 931.3211500543599, 964.27581260504, 1004.44767672704, 1004.7154891545199, 1088.2180306457199, 1293.76063524396, 1293.8430390678, 1387.45378295004, 1387.5773886858, 1410.79466605272, 1453.7201912880398, 1456.5699901958399, 1456.9957432856797, 1475.8387510037599, 1478.2627968217198, 1478.3589346161998, 2924.14775785964, 2924.35376741924, 2931.9280522272, 3026.76798648172, 3027.0083309679203, 3028.12078258976, 3072.4815077569597, 3076.3544874774398, 3076.6772357874797]

>  <ZPE_kJmol>  (4) 
303.64890817156925

>  <E_elec_kJmol>  (4) 
-414315.4085525425

>  <E0_minus_Eelec_plus_ZPE_kJmol>  (4) 
0.0

>  <rxn>  (4) 
rxn_982

>  <species_type>  (4) 
p1

>  <species_folder>  (4) 
rxn_982_C[C][C]C

>  <frequencies_cm1_list>  (4) 
[127.68472504008, 132.20320138064, 133.70707116572, 257.47074758808, 382.77949570743993, 383.17778085599997, 764.0894565563999, 931.0121357149599, 931.3211500543599, 964.27581260504, 1004.44767672704, 1004.7154891545199, 1088.2180306457199, 1293.76063524396, 1293.8430390678, 1387.45378295004, 1387.5773886858, 1410.79466605272, 1453.7201912880398, 1456.5699901958399, 1456.9957432856797, 1475.8387510037599, 1478.2627968217198, 1478.3589346161998, 2924.14775785964, 2924.35376741924, 2931.9280522272, 3026.76798648172, 3027.0083309679203, 3028.12078258976, 3072.4815077569597, 3076.3544874774398, 3076.6772357874797]

>  <E0_kJmol>  (4) 
-414012

>  <H298_kJmol>  (4) 
-413992

$$$$

     RDKit          3D

  9  8  0  0  0  0  0  0  0  0999 V2000
    2.3991   -0.1292   -0.2384 S   0  0  0  0  0  0  0  0  0  1  0  0
    0.7460    0.2807    0.0931 C   0  0  0  0  0  3  0  0  0  2  0  0
   -0.3131   -0.5719   -0.2043 C   0  0  0  0  0  0  0  0  0  3  0  0
   -0.2286   -1.8095   -0.7775 C   0  0  0  0  0  0  0  0  0  4  0  0
    2.9373    1.0009    0.2312 H   0  0  0  0  0  0  0  0  0  5  0  0
    0.5618    1.2421    0.5487 H   0  0  0  0  0  0  0  0  0  6  0  0
   -1.2978   -0.1954    0.0537 H   0  0  0  0  0  0  0  0  0  7  0  0
    0.7207   -2.2479   -1.0607 H   0  0  0  0  0  0  0  0  0  8  0  0
   -1.1177   -2.3938   -0.9670 H   0  0  0  0  0  0  0  0  0  9  0  0
  1  2  1  0
  1  5  1  0
  2  6  1  0
  2  3  1  0
  3  4  1  0
  3  7  1  0
  4  8  1  0
  4  9  1  0
M  RAD  1   2   2
M  END
>  <rmg_smiles>  (5) 
[CH2][CH][CH]S

>  <rmg_adjacency_list>  (5) 
multiplicity 2
1 S u0 p2 c0 {3,S} {9,S}
2 C u0 p0 c0 {3,S} {4,S} {5,S}
3 C u1 p0 c0 {1,S} {2,S} {6,S}
4 C u0 p0 c0 {2,S} {7,S} {8,S}
5 H u0 p0 c0 {2,S}
6 H u0 p0 c0 {3,S}
7 H u0 p0 c0 {4,S}
8 H u0 p0 c0 {4,S}
9 H u0 p0 c0 {1,S}


>  <multiplicity>  (5) 
2

>  <reaction>  (5) 
rxn_982

>  <type>  (5) 
r2

>  <role_mapnums>  (5) 
{}

>  <role_mapidx>  (5) 
{}

>  <ordered_mapped_smiles>  (5) 
[S:1]([C:2]([CH:3]([CH:4]([H:8])[H:9])[H:7])[H:6])[H:5]

>  <level_of_theory>  (5) 
wb97xd/def2tzvp

>  <lot_method>  (5) 
wb97xd

>  <lot_basis>  (5) 
def2tzvp

>  <spin_multiplicity>  (5) 
2.0

>  <optical_isomers>  (5) 
1.0

>  <modes>  (5) 
IdealGasTranslation(mass=(73.0112, 'amu')),         NonlinearRotor(             inertia = ([31.363, 134.913, 166.276

>  <frequency_value>  (5) 
unknown

>  <frequency_units>  (5) 
unknown

>  <frequency_list>  (5) 
unknown

>  <arkane_path>  (5) 
/home/calvin/Dropbox/PersonalFolders/Calvin/HAb_Converged/rxn_982/output/Species/rxn_982_S[CH]C=C/arkane/output.py

>  <path_exists>  (5) 
True

>  <E0_value>  (5) 
-1353189.912902829

>  <E0_units>  (5) 
kJ/mol

>  <thermo_class>  (5) 
NASA

>  <Cp0_value>  (5) 
33.257888

>  <Cp0_units>  (5) 
J/(mol*K)

>  <CpInf_value>  (5) 
207.8618

>  <CpInf_units>  (5) 
J/(mol*K)

>  <Tmin_value>  (5) 
10.0

>  <Tmin_units>  (5) 
K

>  <Tmax_value>  (5) 
3000.0

>  <Tmax_units>  (5) 
K

>  <polynomials>  (5) 
[{"name": "polynomial1", "class": "NASAPolynomial", "Tmin_value": 10.0, "Tmin_units": "K", "Tmax_value": 494.182421916781, "Tmax_units": "K", "coeffs": [3.9171373588949456, 0.005296732981537435, 0.00010660061491766757, -2.3200753792228283e-07, 1.5435566423865143e-10, -162751151.45822766, 10.011870120637145]}, {"name": "polynomial2", "class": "NASAPolynomial", "Tmin_value": 494.182421916781, "Tmin_units": "K", "Tmax_value": 3000.0, "Tmax_units": "K", "coeffs": [2.9684844905613335, 0.02976556892789463, -1.8633830366542493e-05, 5.689075317713255e-09, -6.722422089020262e-13, -162751262.7195864, 11.845549052817699]}]

>  <H298_value>  (5) 
-323416.2553145126

>  <H298_units>  (5) 
kcal/mol

>  <S298_value>  (5) 
73.32316749567646

>  <S298_units>  (5) 
cal/(mol*K)

>  <Cp_T_value_list>  (5) 
[20.043540963892376, 24.233886931081226, 27.5465186826771, 30.32748293405113, 34.761695296239196, 37.98953828173351, 42.701336869209946, 45.151374707895805, 46.535171933883085]

>  <Cp_T_units>  (5) 
cal/(mol*K)

>  <T_list>  (5) 
[300.0, 400.0, 500.0, 600.0, 800.0, 1000.0, 1500.0, 2000.0, 2400.0]

>  <T_units>  (5) 
K

>  <yaml_path>  (5) 
/home/calvin/Dropbox/PersonalFolders/Calvin/HAb_Converged/rxn_982/output/Species/rxn_982_S[CH]C=C/rxn_982_SCHC=C.yml

>  <frequencies_cm1>  (5) 
[163.62652620496, 213.33663293644, 322.76891099595997, 534.6497430445601, 548.4317825817999, 640.07856866252, 767.52981620172, 810.9222964388, 939.69200515944, 969.4329185803599, 1056.3483517756, 1131.90579125156, 1228.8126880874, 1369.48974935292, 1427.04882030516, 1524.36086927488, 2717.97339061196, 3127.7744735536003, 3135.08094593408, 3196.4305927829596, 3224.57836560964]

>  <ZPE_kJmol>  (5) 
173.75927083469932

>  <E_elec_kJmol>  (5) 
-1353363.6721736635

>  <E0_minus_Eelec_plus_ZPE_kJmol>  (5) 
0.0

>  <rxn>  (5) 
rxn_982

>  <species_type>  (5) 
r0

>  <species_folder>  (5) 
rxn_982_S[CH]C=C

>  <frequencies_cm1_list>  (5) 
[163.62652620496, 213.33663293644, 322.76891099595997, 534.6497430445601, 548.4317825817999, 640.07856866252, 767.52981620172, 810.9222964388, 939.69200515944, 969.4329185803599, 1056.3483517756, 1131.90579125156, 1228.8126880874, 1369.48974935292, 1427.04882030516, 1524.36086927488, 2717.97339061196, 3127.7744735536003, 3135.08094593408, 3196.4305927829596, 3224.57836560964]

>  <E0_kJmol>  (5) 
-1.35319e+06

>  <H298_kJmol>  (5) 
-1.35317e+06

$$$$
