
     RDKit          3D

  6  5  0  0  0  0  0  0  0  0999 V2000
    0.8464   -0.0661    0.8077 C   0  0  0  0  0  0  0  0  0  1  0  0
   -0.4168   -0.0172   -0.3870 S   0  0  0  0  0  0  0  0  0  2  0  0
    0.5933    0.6860    1.5473 H   0  0  0  0  0  0  0  0  0  3  0  0
    0.8452   -0.9952    1.3683 H   0  0  0  0  0  0  0  0  0  4  0  0
    1.8270    0.2754    0.4954 H   0  0  0  0  0  0  0  0  0  5  0  0
   -0.0382    1.1155   -0.9945 H   0  0  0  0  0  0  0  0  0  6  0  0
  1  5  1  0
  1  4  1  0
  1  3  1  0
  1  2  1  0
  2  6  1  0
M  END
>  <rmg_smiles>  (1) 
CS

>  <rmg_adjacency_list>  (1) 
1 S u0 p2 c0 {2,S} {6,S}
2 C u0 p0 c0 {1,S} {3,S} {4,S} {5,S}
3 H u0 p0 c0 {2,S}
4 H u0 p0 c0 {2,S}
5 H u0 p0 c0 {2,S}
6 H u0 p0 c0 {1,S}


>  <multiplicity>  (1) 
1

>  <reaction>  (1) 
rxn_1845

>  <type>  (1) 
r1h

>  <role_mapnums>  (1) 
{"r1h_a": 1, "r1h_h": 3}

>  <role_mapidx>  (1) 
{"r1h_a": 0, "r1h_h": 2}

>  <ordered_mapped_smiles>  (1) 
[C:1]([S:2][H:6])([H:3])([H:4])[H:5]

>  <mol_properties>  (1) 
{"0": {"label": "donator", "atom_type": "Cs"}, "2": {"label": "d_hydrogen", "atom_type": "H0"}}

>  <level_of_theory>  (1) 
wb97xd/def2tzvp

>  <lot_method>  (1) 
wb97xd

>  <lot_basis>  (1) 
def2tzvp

>  <spin_multiplicity>  (1) 
1.0

>  <optical_isomers>  (1) 
1.0

>  <modes>  (1) 
IdealGasTranslation(mass=(48.0034, 'amu')),         NonlinearRotor(             inertia = ([4.88218, 38.8439, 40.5133

>  <frequency_value>  (1) 
unknown

>  <frequency_units>  (1) 
unknown

>  <frequency_list>  (1) 
unknown

>  <arkane_path>  (1) 
/home/calvin/Dropbox/PersonalFolders/Calvin/HAb_Converged/rxn_1845/output/Species/rxn_1845_CS/arkane/output.py

>  <path_exists>  (1) 
True

>  <E0_value>  (1) 
-1151727.0074722518

>  <E0_units>  (1) 
kJ/mol

>  <thermo_class>  (1) 
NASA

>  <Cp0_value>  (1) 
33.257888

>  <Cp0_units>  (1) 
J/(mol*K)

>  <CpInf_value>  (1) 
133.031552

>  <CpInf_units>  (1) 
J/(mol*K)

>  <Tmin_value>  (1) 
10.0

>  <Tmin_units>  (1) 
K

>  <Tmax_value>  (1) 
3000.0

>  <Tmax_units>  (1) 
K

>  <polynomials>  (1) 
[{"name": "polynomial1", "class": "NASAPolynomial", "Tmin_value": 10.0, "Tmin_units": "K", "Tmax_value": 512.0046987811082, "Tmax_units": "K", "coeffs": [3.9928587497669135, 0.0002559754074249204, 3.857280640825913e-05, -5.9282603001709694e-08, 2.982147399711347e-11, -138520762.43019888, 6.388595841908656]}, {"name": "polynomial2", "class": "NASAPolynomial", "Tmin_value": 512.0046987811082, "Tmin_units": "K", "Tmax_value": 3000.0, "Tmax_units": "K", "coeffs": [1.9274442242810899, 0.01639190572497184, -8.700073442106705e-06, 2.2701656845537463e-09, -2.333640907578926e-13, -138520550.93016994, 14.970390653960273]}]

>  <H298_value>  (1) 
-275266.5007544268

>  <H298_units>  (1) 
kcal/mol

>  <S298_value>  (1) 
60.53254852214023

>  <S298_units>  (1) 
cal/(mol*K)

>  <Cp_T_value_list>  (1) 
[12.285164170505567, 14.379905317207566, 16.329998202821564, 18.065044527000737, 20.944482261362513, 23.163034177843237, 26.669386406809583, 28.493484761208425, 29.402518411604955]

>  <Cp_T_units>  (1) 
cal/(mol*K)

>  <T_list>  (1) 
[300.0, 400.0, 500.0, 600.0, 800.0, 1000.0, 1500.0, 2000.0, 2400.0]

>  <T_units>  (1) 
K

>  <yaml_path>  (1) 
/home/calvin/Dropbox/PersonalFolders/Calvin/HAb_Converged/rxn_1845/output/Species/rxn_1845_CS/rxn_1845_CS.yml

>  <frequencies_cm1>  (1) 
[239.23203457815995, 718.5407429288399, 797.72395065376, 969.0552343877599, 1092.82577779544, 1352.90597980512, 1462.0155095546, 1475.7082782826799, 2706.3887863771197, 3036.2032243114, 3126.3324066364, 3127.7195376710397]

>  <ZPE_kJmol>  (1) 
120.25255493508004

>  <E_elec_kJmol>  (1) 
-1151847.260027187

>  <E0_minus_Eelec_plus_ZPE_kJmol>  (1) 
0.0

>  <rxn>  (1) 
rxn_1845

>  <species_type>  (1) 
r0

>  <species_folder>  (1) 
rxn_1845_CS

>  <frequencies_cm1_list>  (1) 
[239.23203457815995, 718.5407429288399, 797.72395065376, 969.0552343877599, 1092.82577779544, 1352.90597980512, 1462.0155095546, 1475.7082782826799, 2706.3887863771197, 3036.2032243114, 3126.3324066364, 3127.7195376710397]

>  <E0_kJmol>  (1) 
-1.15173e+06

>  <H298_kJmol>  (1) 
-1.15172e+06

$$$$

     RDKit          3D

  7  6  0  0  0  0  0  0  0  0999 V2000
    0.5431   -2.0565    0.5195 H   0  0  0  0  0  0  0  0  0  1  0  0
    0.3346   -1.2086    1.1679 C   0  0  0  0  0  0  0  0  0  2  0  0
   -0.4953   -0.3564    0.3612 C   0  0  0  0  0  0  0  0  0  3  0  0
    0.0540    0.7520   -0.7075 S   0  0  0  0  0  0  0  0  0  4  0  0
   -0.1460   -1.6643    2.0313 H   0  0  0  0  0  0  0  0  0  5  0  0
    1.3366   -0.8340    1.3615 H   0  0  0  0  0  0  0  0  0  6  0  0
   -1.5692   -0.5233    0.4374 H   0  0  0  0  0  0  0  0  0  7  0  0
  1  2  1  0
  2  5  1  0
  2  6  1  0
  2  3  1  0
  3  7  1  0
  3  4  1  0
M  END
>  <rmg_smiles>  (2) 
C[CH][S]

>  <rmg_adjacency_list>  (2) 
1 S u0 p2 c0 {3,S}
2 C u0 p0 c0 {3,S} {4,S} {5,S} {6,S}
3 C u0 p0 c0 {1,S} {2,S} {7,S}
4 H u0 p0 c0 {2,S}
5 H u0 p0 c0 {2,S}
6 H u0 p0 c0 {2,S}
7 H u0 p0 c0 {3,S}


>  <multiplicity>  (2) 
1

>  <reaction>  (2) 
rxn_1845

>  <type>  (2) 
r2h

>  <role_mapnums>  (2) 
{"r2h_a": 2, "r2h_h": 1}

>  <role_mapidx>  (2) 
{"r2h_a": 1, "r2h_h": 0}

>  <ordered_mapped_smiles>  (2) 
[H:1][C:2]([CH:3]([SH:4])[H:7])([H:5])[H:6]

>  <mol_properties>  (2) 
{"0": {"label": "a_hydrogen", "atom_type": "H0"}, "1": {"label": "acceptor", "atom_type": "Cs"}}

>  <level_of_theory>  (2) 
wb97xd/def2tzvp

>  <lot_method>  (2) 
wb97xd

>  <lot_basis>  (2) 
def2tzvp

>  <spin_multiplicity>  (2) 
1.0

>  <optical_isomers>  (2) 
1.0

>  <modes>  (2) 
IdealGasTranslation(mass=(60.0034, 'amu')),         NonlinearRotor(             inertia = ([10.1821, 87.4169, 94.5043

>  <frequency_value>  (2) 
unknown

>  <frequency_units>  (2) 
unknown

>  <frequency_list>  (2) 
unknown

>  <arkane_path>  (2) 
/home/calvin/Dropbox/PersonalFolders/Calvin/HAb_Converged/rxn_1845/output/Species/rxn_1845_CC=S/arkane/output.py

>  <path_exists>  (2) 
True

>  <E0_value>  (2) 
-1251692.87971102

>  <E0_units>  (2) 
kJ/mol

>  <thermo_class>  (2) 
NASA

>  <Cp0_value>  (2) 
33.257888

>  <Cp0_units>  (2) 
J/(mol*K)

>  <CpInf_value>  (2) 
157.97496800000002

>  <CpInf_units>  (2) 
J/(mol*K)

>  <Tmin_value>  (2) 
10.0

>  <Tmin_units>  (2) 
K

>  <Tmax_value>  (2) 
3000.0

>  <Tmax_units>  (2) 
K

>  <polynomials>  (2) 
[{"name": "polynomial1", "class": "NASAPolynomial", "Tmin_value": 10.0, "Tmin_units": "K", "Tmax_value": 485.39622899743466, "Tmax_units": "K", "coeffs": [3.975940530572461, 0.0013748720414305338, 5.132788135128821e-05, -8.432386137464513e-08, 4.4867749425835864e-11, -150543879.09878448, 8.090912724756667]}, {"name": "polynomial2", "class": "NASAPolynomial", "Tmin_value": 485.39622899743466, "Tmin_units": "K", "Tmax_value": 3000.0, "Tmax_units": "K", "coeffs": [1.4651349812966712, 0.022068299956711855, -1.2628378415974456e-05, 3.5280372570941277e-09, -3.855767973354191e-13, -150543635.38297567, 18.3889911716905]}]

>  <H298_value>  (2) 
-299158.68811573734

>  <H298_units>  (2) 
kcal/mol

>  <S298_value>  (2) 
65.13190747939298

>  <S298_units>  (2) 
cal/(mol*K)

>  <Cp_T_value_list>  (2) 
[14.098427248842778, 16.871855394466547, 19.393339934655586, 21.604877323173096, 25.209772375709086, 27.915317068508738, 32.01166447471848, 34.0672583894089, 35.111294878115146]

>  <Cp_T_units>  (2) 
cal/(mol*K)

>  <T_list>  (2) 
[300.0, 400.0, 500.0, 600.0, 800.0, 1000.0, 1500.0, 2000.0, 2400.0]

>  <T_units>  (2) 
K

>  <yaml_path>  (2) 
/home/calvin/Dropbox/PersonalFolders/Calvin/HAb_Converged/rxn_1845/output/Species/rxn_1845_CC=S/rxn_1845_CC=S.yml

>  <frequencies_cm1>  (2) 
[170.46604358368, 396.01217641908, 770.63369356636, 837.4425937446399, 1045.2719044544401, 1080.9115582652398, 1167.33943550276, 1373.61680753024, 1381.75418513444, 1457.57943703788, 1469.4661886268, 3002.45885844892, 3059.70204807644, 3060.7801647716797, 3125.5770382512]

>  <ZPE_kJmol>  (2) 
139.95721324395197

>  <E_elec_kJmol>  (2) 
-1251832.836924264

>  <E0_minus_Eelec_plus_ZPE_kJmol>  (2) 
0.0

>  <rxn>  (2) 
rxn_1845

>  <species_type>  (2) 
p0

>  <species_folder>  (2) 
rxn_1845_CC=S

>  <frequencies_cm1_list>  (2) 
[170.46604358368, 396.01217641908, 770.63369356636, 837.4425937446399, 1045.2719044544401, 1080.9115582652398, 1167.33943550276, 1373.61680753024, 1381.75418513444, 1457.57943703788, 1469.4661886268, 3002.45885844892, 3059.70204807644, 3060.7801647716797, 3125.5770382512]

>  <E0_kJmol>  (2) 
-1.25169e+06

>  <H298_kJmol>  (2) 
-1.25168e+06

$$$$

     RDKit          3D

 12 10  0  0  0  0  0  0  0  0999 V2000
    1.0655   -1.9413   -0.2469 C   0  0  0  0  0  3  0  0  0  1  0  0
   -0.1976   -1.8924   -1.4417 S   0  0  0  0  0  0  0  0  0  2  0  0
    0.7286   -0.9401    0.7377 H   0  0  0  0  0  0  0  0  0  3  0  0
    1.0643   -2.8704    0.3137 H   0  0  0  0  0  0  0  0  0  4  0  0
    2.0462   -1.5999   -0.5592 H   0  0  0  0  0  0  0  0  0  5  0  0
    0.1809   -0.7597   -2.0491 H   0  0  0  0  0  0  0  0  0  6  0  0
    0.4843    0.0534    1.4975 C   0  0  0  0  0  0  0  0  0  7  0  0
   -0.3456    0.9056    0.6908 C   0  0  0  0  0  0  0  0  0  8  0  0
    0.2036    2.0140   -0.3780 S   0  0  0  0  0  0  0  0  0  9  0  0
    0.0037   -0.4024    2.3609 H   0  0  0  0  0  0  0  0  0 10  0  0
    1.4863    0.4280    1.6910 H   0  0  0  0  0  0  0  0  0 11  0  0
   -1.4196    0.7386    0.7669 H   0  0  0  0  0  0  0  0  0 12  0  0
  1  5  1  0
  1  4  1  0
  1  2  1  0
  2  6  1  0
  3  7  1  0
  7 10  1  0
  7  8  1  0
  7 11  1  0
  8  9  1  0
  8 12  1  0
M  RAD  1   1   2
M  END
>  <rmg_smiles>  (3) 
C[CH][S].[CH2]S

>  <rmg_adjacency_list>  (3) 
multiplicity 2
1  S u0 p2 c0 {5,S} {12,S}
2  S u0 p2 c0 {4,S}
3  C u0 p0 c0 {4,S} {6,S} {7,S} {8,S}
4  C u0 p0 c0 {2,S} {3,S} {9,S}
5  C u1 p0 c0 {1,S} {10,S} {11,S}
6  H u0 p0 c0 {3,S}
7  H u0 p0 c0 {3,S}
8  H u0 p0 c0 {3,S}
9  H u0 p0 c0 {4,S}
10 H u0 p0 c0 {5,S}
11 H u0 p0 c0 {5,S}
12 H u0 p0 c0 {1,S}


>  <multiplicity>  (3) 
2

>  <reaction>  (3) 
rxn_1845

>  <type>  (3) 
ts

>  <role_mapnums>  (3) 
{"*2": 3, "*1": 1, "*3": 7, "*0": 8, "*4": 2}

>  <role_mapidx>  (3) 
{"*2": 2, "*1": 0, "*3": 6, "*0": 7, "*4": 1}

>  <ordered_mapped_smiles>  (3) 
[C:1]([S:2][H:6])([H:4])[H:5].[H:3][C:7]([CH:8]([SH:9])[H:12])([H:10])[H:11]

>  <mol_properties>  (3) 
{"0": {"label": "*1", "atom_type": "Cs"}, "1": {"label": "*4", "atom_type": "S2s"}, "2": {"label": "*2", "atom_type": "H0"}, "6": {"label": "*3", "atom_type": "Cs"}, "7": {"label": "*0", "atom_type": "Cs"}}

>  <level_of_theory>  (3) 
wb97xd/def2tzvp

>  <lot_method>  (3) 
wb97xd

>  <lot_basis>  (3) 
def2tzvp

>  <spin_multiplicity>  (3) 
2.0

>  <optical_isomers>  (3) 
2.0

>  <modes>  (3) 
IdealGasTranslation(mass=(106.999, 'amu')),         NonlinearRotor(             inertia = ([112.178, 357.76, 425.156

>  <frequency_value>  (3) 
-1466.25

>  <frequency_units>  (3) 
cm^-1

>  <frequency_list>  (3) 
unknown

>  <arkane_path>  (3) 
/home/calvin/Dropbox/PersonalFolders/Calvin/HAb_Converged/rxn_1845/output/rxns/TS0/arkane/output.py

>  <path_exists>  (3) 
True

>  <E0_value>  (3) 
-2401680.0

>  <E0_units>  (3) 
kJ/mol

>  <thermo_class>  (3) 
unknown

>  <Cp0_value>  (3) 
unknown

>  <Cp0_units>  (3) 
unknown

>  <CpInf_value>  (3) 
unknown

>  <CpInf_units>  (3) 
unknown

>  <Tmin_value>  (3) 
unknown

>  <Tmin_units>  (3) 
unknown

>  <Tmax_value>  (3) 
unknown

>  <Tmax_units>  (3) 
unknown

>  <polynomials>  (3) 
unknown

>  <H298_value>  (3) 
unknown

>  <H298_units>  (3) 
unknown

>  <S298_value>  (3) 
unknown

>  <S298_units>  (3) 
unknown

>  <Cp_T_value_list>  (3) 
unknown

>  <Cp_T_units>  (3) 
unknown

>  <T_list>  (3) 
unknown

>  <T_units>  (3) 
unknown

>  <yaml_path>  (3) 
unknown

>  <frequencies_cm1>  (3) 
unknown

>  <ZPE_kJmol>  (3) 
unknown

>  <E_elec_kJmol>  (3) 
unknown

>  <E0_minus_Eelec_plus_ZPE_kJmol>  (3) 
unknown

>  <rxn>  (3) 
unknown

>  <species_type>  (3) 
unknown

>  <species_folder>  (3) 
unknown

>  <frequencies_cm1_list>  (3) 
[]

>  <ts_imag_freq_cm1>  (3) 
-1484.0546

>  <ts_freq_out_path>  (3) 
/home/calvin/Dropbox/PersonalFolders/Calvin/HAb_Converged/rxn_1845/output/rxns/TS0/geometry/freq.out

>  <E0_kJmol>  (3) 
-2.40168e+06

>  <H298_kJmol>  (3) 
unknown

$$$$

     RDKit          3D

  5  4  0  0  0  0  0  0  0  0999 V2000
   -0.5642    0.0794    0.0348 C   0  0  0  0  0  3  0  0  0  1  0  0
    1.0624    0.5420    0.2853 S   0  0  0  0  0  0  0  0  0  2  0  0
   -1.3257    0.7631    0.3741 H   0  0  0  0  0  0  0  0  0  3  0  0
   -0.8236   -0.8519   -0.4401 H   0  0  0  0  0  0  0  0  0  4  0  0
    1.6511   -0.5325   -0.2540 H   0  0  0  0  0  0  0  0  0  5  0  0
  1  3  1  0
  1  2  1  0
  1  4  1  0
  2  5  1  0
M  RAD  1   1   2
M  END
>  <rmg_smiles>  (4) 
[CH2]S

>  <rmg_adjacency_list>  (4) 
multiplicity 2
1 S u0 p2 c0 {2,S} {5,S}
2 C u1 p0 c0 {1,S} {3,S} {4,S}
3 H u0 p0 c0 {2,S}
4 H u0 p0 c0 {2,S}
5 H u0 p0 c0 {1,S}


>  <multiplicity>  (4) 
2

>  <reaction>  (4) 
rxn_1845

>  <type>  (4) 
r1

>  <role_mapnums>  (4) 
{}

>  <role_mapidx>  (4) 
{}

>  <ordered_mapped_smiles>  (4) 
[C:1]([S:2][H:5])([H:3])[H:4]

>  <level_of_theory>  (4) 
wb97xd/def2tzvp

>  <lot_method>  (4) 
wb97xd

>  <lot_basis>  (4) 
def2tzvp

>  <spin_multiplicity>  (4) 
2.0

>  <optical_isomers>  (4) 
1.0

>  <modes>  (4) 
IdealGasTranslation(mass=(46.9956, 'amu')),         NonlinearRotor(             inertia = ([3.47508, 32.1188, 35.5939

>  <frequency_value>  (4) 
unknown

>  <frequency_units>  (4) 
unknown

>  <frequency_list>  (4) 
unknown

>  <arkane_path>  (4) 
/home/calvin/Dropbox/PersonalFolders/Calvin/HAb_Converged/rxn_1845/output/Species/rxn_1845_[CH2]S/arkane/output.py

>  <path_exists>  (4) 
True

>  <E0_value>  (4) 
-1150024.3332710424

>  <E0_units>  (4) 
kJ/mol

>  <thermo_class>  (4) 
NASA

>  <Cp0_value>  (4) 
33.257888

>  <Cp0_units>  (4) 
J/(mol*K)

>  <CpInf_value>  (4) 
108.088136

>  <CpInf_units>  (4) 
J/(mol*K)

>  <Tmin_value>  (4) 
10.0

>  <Tmin_units>  (4) 
K

>  <Tmax_value>  (4) 
3000.0

>  <Tmax_units>  (4) 
K

>  <polynomials>  (4) 
[{"name": "polynomial1", "class": "NASAPolynomial", "Tmin_value": 10.0, "Tmin_units": "K", "Tmax_value": 228.7632631011955, "Tmax_units": "K", "coeffs": [3.952412159768893, 0.004869189743453995, 7.700507410130638e-05, -3.7784535832034173e-07, 5.662383077803353e-10, -138315979.8249789, 6.828268654504248]}, {"name": "polynomial2", "class": "NASAPolynomial", "Tmin_value": 228.7632631011955, "Tmin_units": "K", "Tmax_value": 3000.0, "Tmax_units": "K", "coeffs": [4.0647189913044315, 0.010177206447780005, -5.480339108667681e-06, 1.4876276440090965e-09, -1.6083284592339647e-13, -138316003.99077362, 6.036236642771031]}]

>  <H298_value>  (4) 
-274859.2476351292

>  <H298_units>  (4) 
kcal/mol

>  <S298_value>  (4) 
63.58185598753384

>  <S298_units>  (4) 
cal/(mol*K)

>  <Cp_T_value_list>  (4) 
[13.241777557438835, 14.605646175289959, 15.816452446168032, 16.888481942792666, 18.669517607236212, 20.047696562682138, 22.269217674285446, 23.499652986162165, 24.148886967222168]

>  <Cp_T_units>  (4) 
cal/(mol*K)

>  <T_list>  (4) 
[300.0, 400.0, 500.0, 600.0, 800.0, 1000.0, 1500.0, 2000.0, 2400.0]

>  <T_units>  (4) 
K

>  <yaml_path>  (4) 
/home/calvin/Dropbox/PersonalFolders/Calvin/HAb_Converged/rxn_1845/output/Species/rxn_1845_[CH2]S/rxn_1845_CH2S.yml

>  <frequencies_cm1>  (4) 
[112.26147601135997, 339.84023650148, 784.39513214764, 853.62121115856, 1068.3930440268798, 1401.38689616432, 2708.6686255033596, 3159.5548816145597, 3285.6189981191196]

>  <ZPE_kJmol>  (4) 
82.02640747232539

>  <E_elec_kJmol>  (4) 
-1150106.3596785148

>  <E0_minus_Eelec_plus_ZPE_kJmol>  (4) 
0.0

>  <rxn>  (4) 
rxn_1845

>  <species_type>  (4) 
p1

>  <species_folder>  (4) 
rxn_1845_[CH2]S

>  <frequencies_cm1_list>  (4) 
[112.26147601135997, 339.84023650148, 784.39513214764, 853.62121115856, 1068.3930440268798, 1401.38689616432, 2708.6686255033596, 3159.5548816145597, 3285.6189981191196]

>  <E0_kJmol>  (4) 
-1.15002e+06

>  <H298_kJmol>  (4) 
-1.15001e+06

$$$$

     RDKit          3D

  6  5  0  0  0  0  0  0  0  0999 V2000
   -0.7309   -0.0987    0.0327 C   0  0  0  0  0  0  0  0  0  1  0  0
    0.6208    0.0065   -0.0096 C   0  0  0  0  0  0  0  0  0  2  0  0
    1.6572   -1.2972    0.2837 S   0  0  0  0  0  1  0  0  0  3  0  0
   -1.3651    0.7588   -0.1608 H   0  0  0  0  0  0  0  0  0  4  0  0
   -1.2044   -1.0453    0.2616 H   0  0  0  0  0  0  0  0  0  5  0  0
    1.0609    0.9725   -0.2426 H   0  0  0  0  0  0  0  0  0  6  0  0
  1  5  1  0
  1  4  1  0
  1  2  1  0
  2  3  1  0
  2  6  1  0
M  RAD  1   3   2
M  END
>  <rmg_smiles>  (5) 
[CH2][CH][S]

>  <rmg_adjacency_list>  (5) 
multiplicity 2
1 S u1 p2 c0 {3,S}
2 C u0 p0 c0 {3,S} {4,S} {5,S}
3 C u0 p0 c0 {1,S} {2,S} {6,S}
4 H u0 p0 c0 {2,S}
5 H u0 p0 c0 {2,S}
6 H u0 p0 c0 {3,S}


>  <multiplicity>  (5) 
2

>  <reaction>  (5) 
rxn_1845

>  <type>  (5) 
r2

>  <role_mapnums>  (5) 
{}

>  <role_mapidx>  (5) 
{}

>  <ordered_mapped_smiles>  (5) 
[CH:1]([CH:2]([S:3])[H:6])([H:4])[H:5]

>  <level_of_theory>  (5) 
wb97xd/def2tzvp

>  <lot_method>  (5) 
wb97xd

>  <lot_basis>  (5) 
def2tzvp

>  <spin_multiplicity>  (5) 
2.0

>  <optical_isomers>  (5) 
1.0

>  <modes>  (5) 
IdealGasTranslation(mass=(58.9956, 'amu')),         NonlinearRotor(             inertia = ([8.83476, 79.9763, 88.811

>  <frequency_value>  (5) 
unknown

>  <frequency_units>  (5) 
unknown

>  <frequency_list>  (5) 
unknown

>  <arkane_path>  (5) 
/home/calvin/Dropbox/PersonalFolders/Calvin/HAb_Converged/rxn_1845/output/Species/rxn_1845_[CH2]C=S/arkane/output.py

>  <path_exists>  (5) 
True

>  <E0_value>  (5) 
-1250043.110807286

>  <E0_units>  (5) 
kJ/mol

>  <thermo_class>  (5) 
NASA

>  <Cp0_value>  (5) 
33.257888

>  <Cp0_units>  (5) 
J/(mol*K)

>  <CpInf_value>  (5) 
133.031552

>  <CpInf_units>  (5) 
J/(mol*K)

>  <Tmin_value>  (5) 
10.0

>  <Tmin_units>  (5) 
K

>  <Tmax_value>  (5) 
3000.0

>  <Tmax_units>  (5) 
K

>  <polynomials>  (5) 
[{"name": "polynomial1", "class": "NASAPolynomial", "Tmin_value": 10.0, "Tmin_units": "K", "Tmax_value": 532.7243167618623, "Tmax_units": "K", "coeffs": [4.067075979396691, -0.006403539850264782, 8.807291251076341e-05, -1.576667854691463e-07, 9.235973025607611e-11, -150345458.46382707, 8.421967934724249]}, {"name": "polynomial2", "class": "NASAPolynomial", "Tmin_value": 532.7243167618623, "Tmin_units": "K", "Tmax_value": 3000.0, "Tmax_units": "K", "coeffs": [2.1262272561499946, 0.018548778063449952, -1.1410896338021972e-05, 3.4033850580240633e-09, -3.915343193556974e-13, -150345398.95630276, 15.180861356183497]}]

>  <H298_value>  (5) 
-298764.61657121626

>  <H298_units>  (5) 
kcal/mol

>  <S298_value>  (5) 
64.35790710333508

>  <S298_units>  (5) 
cal/(mol*K)

>  <Cp_T_value_list>  (5) 
[13.043400995126946, 15.641423321427808, 17.780866282053577, 19.53813430705424, 22.345017795429637, 24.394866961547805, 27.38203567367369, 28.89940637643697, 29.75793587094202]

>  <Cp_T_units>  (5) 
cal/(mol*K)

>  <T_list>  (5) 
[300.0, 400.0, 500.0, 600.0, 800.0, 1000.0, 1500.0, 2000.0, 2400.0]

>  <T_units>  (5) 
K

>  <yaml_path>  (5) 
/home/calvin/Dropbox/PersonalFolders/Calvin/HAb_Converged/rxn_1845/output/Species/rxn_1845_[CH2]C=S/rxn_1845_CH2C=S.yml

>  <frequencies_cm1>  (5) 
[401.01820871736, 475.21598509996, 781.12644713532, 939.1495133191601, 974.6449604382399, 1045.93800203048, 1282.84212858516, 1350.7016775174, 1511.6912813594797, 3110.64821216552, 3122.0680087526794, 3219.55859934072]

>  <ZPE_kJmol>  (5) 
108.94755150830215

>  <E_elec_kJmol>  (5) 
-1250152.0583587943

>  <E0_minus_Eelec_plus_ZPE_kJmol>  (5) 
0.0

>  <rxn>  (5) 
rxn_1845

>  <species_type>  (5) 
r1

>  <species_folder>  (5) 
rxn_1845_[CH2]C=S

>  <frequencies_cm1_list>  (5) 
[401.01820871736, 475.21598509996, 781.12644713532, 939.1495133191601, 974.6449604382399, 1045.93800203048, 1282.84212858516, 1350.7016775174, 1511.6912813594797, 3110.64821216552, 3122.0680087526794, 3219.55859934072]

>  <E0_kJmol>  (5) 
-1.25004e+06

>  <H298_kJmol>  (5) 
-1.25003e+06

$$$$
