
     RDKit          3D

 16 15  0  0  0  0  0  0  0  0999 V2000
   -0.7563   -1.3315   -1.8329 C   0  0  0  0  0  0  0  0  0  1  0  0
   -1.0185   -0.4308   -0.8940 C   0  0  0  0  0  0  0  0  0  2  0  0
   -0.0313    0.4353   -0.1907 C   0  0  0  0  0  0  0  0  0  3  0  0
    1.4220    0.2067   -0.5456 C   0  0  0  0  0  0  0  0  0  4  0  0
   -0.3376    0.5473    1.2623 C   0  0  0  0  0  0  0  0  0  5  0  0
    0.5382    0.5669    2.2600 C   0  0  0  0  0  0  0  0  0  6  0  0
   -1.5534   -1.9007   -2.2936 H   0  0  0  0  0  0  0  0  0  7  0  0
    0.2519   -1.5425   -2.1679 H   0  0  0  0  0  0  0  0  0  8  0  0
   -2.0535   -0.2763   -0.5990 H   0  0  0  0  0  0  0  0  0  9  0  0
   -0.2406    1.4370   -0.5659 H   0  0  0  0  0  0  0  0  0 10  0  0
    1.5681    0.2671   -1.6246 H   0  0  0  0  0  0  0  0  0 11  0  0
    2.0520    0.9704   -0.0891 H   0  0  0  0  0  0  0  0  0 12  0  0
    1.7656   -0.7736   -0.2059 H   0  0  0  0  0  0  0  0  0 13  0  0
   -1.3948    0.6384    1.5001 H   0  0  0  0  0  0  0  0  0 14  0  0
    1.6047    0.4733    2.0972 H   0  0  0  0  0  0  0  0  0 15  0  0
    0.2077    0.6681    3.2858 H   0  0  0  0  0  0  0  0  0 16  0  0
  1  8  1  0
  1  7  1  0
  1  2  1  0
  2  9  1  0
  2  3  1  0
  3  4  1  0
  3  5  1  0
  3 10  1  0
  4 13  1  0
  4 12  1  0
  4 11  1  0
  5 14  1  0
  5  6  1  0
  6 15  1  0
  6 16  1  0
M  END
>  <rmg_smiles>  (1) 
[CH2][CH]C(C)[CH][CH2]

>  <rmg_adjacency_list>  (1) 
1  C u0 p0 c0 {2,S} {3,S} {4,S} {7,S}
2  C u0 p0 c0 {1,S} {8,S} {9,S} {10,S}
3  C u0 p0 c0 {1,S} {5,S} {11,S}
4  C u0 p0 c0 {1,S} {6,S} {12,S}
5  C u0 p0 c0 {3,S} {13,S} {14,S}
6  C u0 p0 c0 {4,S} {15,S} {16,S}
7  H u0 p0 c0 {1,S}
8  H u0 p0 c0 {2,S}
9  H u0 p0 c0 {2,S}
10 H u0 p0 c0 {2,S}
11 H u0 p0 c0 {3,S}
12 H u0 p0 c0 {4,S}
13 H u0 p0 c0 {5,S}
14 H u0 p0 c0 {5,S}
15 H u0 p0 c0 {6,S}
16 H u0 p0 c0 {6,S}


>  <multiplicity>  (1) 
1

>  <reaction>  (1) 
rxn_1188

>  <type>  (1) 
r1h

>  <role_mapnums>  (1) 
{"r1h_a": 3, "r1h_h": 10}

>  <role_mapidx>  (1) 
{"r1h_a": 2, "r1h_h": 9}

>  <ordered_mapped_smiles>  (1) 
[CH:1]([CH:2]([C:3]([C:4]([H:11])([H:12])[H:13])([CH:5]([CH:6]([H:15])[H:16])[H:14])[H:10])[H:9])([H:7])[H:8]

>  <mol_properties>  (1) 
{"2": {"label": "donator", "atom_type": "Cs"}, "9": {"label": "d_hydrogen", "atom_type": "H0"}}

>  <level_of_theory>  (1) 
wb97xd/def2tzvp

>  <lot_method>  (1) 
wb97xd

>  <lot_basis>  (1) 
def2tzvp

>  <spin_multiplicity>  (1) 
1.0

>  <optical_isomers>  (1) 
2.0

>  <modes>  (1) 
IdealGasTranslation(mass=(82.0782, 'amu')),         NonlinearRotor(             inertia = ([81.8176, 215.752, 270.221

>  <frequency_value>  (1) 
unknown

>  <frequency_units>  (1) 
unknown

>  <frequency_list>  (1) 
unknown

>  <arkane_path>  (1) 
/home/calvin/Dropbox/PersonalFolders/Calvin/HAb_Converged/rxn_1188/output/Species/rxn_1188_C=CC[C]C=C/arkane/output.py

>  <path_exists>  (1) 
True

>  <E0_value>  (1) 
-615627.5937373543

>  <E0_units>  (1) 
kJ/mol

>  <thermo_class>  (1) 
NASA

>  <Cp0_value>  (1) 
33.257888

>  <Cp0_units>  (1) 
J/(mol*K)

>  <CpInf_value>  (1) 
382.465712

>  <CpInf_units>  (1) 
J/(mol*K)

>  <Tmin_value>  (1) 
10.0

>  <Tmin_units>  (1) 
K

>  <Tmax_value>  (1) 
3000.0

>  <Tmax_units>  (1) 
K

>  <polynomials>  (1) 
[{"name": "polynomial1", "class": "NASAPolynomial", "Tmin_value": 10.0, "Tmin_units": "K", "Tmax_value": 757.01421466449, "Tmax_units": "K", "coeffs": [3.7333043859306807, 0.024971619873153182, 5.9953729741974984e-05, -9.768956274227311e-08, 4.2619255015878605e-11, -74042895.04148921, 11.39126299815016]}, {"name": "polynomial2", "class": "NASAPolynomial", "Tmin_value": 757.01421466449, "Tmin_units": "K", "Tmax_value": 3000.0, "Tmax_units": "K", "coeffs": [0.44469393851227684, 0.05690289093011388, -3.2156427053129826e-05, 8.824948176810319e-09, -9.439814340659815e-13, -74042814.17505449, 23.586950166217814]}]

>  <H298_value>  (1) 
-147133.40013016394

>  <H298_units>  (1) 
kcal/mol

>  <S298_value>  (1) 
83.43513409825523

>  <S298_units>  (1) 
cal/(mol*K)

>  <Cp_T_value_list>  (1) 
[28.473139475044146, 36.07469361244095, 43.043001816355165, 49.12797529668614, 58.65957774455763, 65.72114092256321, 76.41278682550626, 81.71522311412052, 84.39200509242544]

>  <Cp_T_units>  (1) 
cal/(mol*K)

>  <T_list>  (1) 
[300.0, 400.0, 500.0, 600.0, 800.0, 1000.0, 1500.0, 2000.0, 2400.0]

>  <T_units>  (1) 
K

>  <yaml_path>  (1) 
/home/calvin/Dropbox/PersonalFolders/Calvin/HAb_Converged/rxn_1188/output/Species/rxn_1188_C=CC[C]C=C/rxn_1188_C=CCCC=C.yml

>  <frequencies_cm1>  (1) 
[88.1720915088, 106.67861694619998, 273.49142433963993, 286.5592974036, 313.75942625612, 326.27794049448, 407.06115579895993, 569.8224418536, 651.92411833952, 700.3775667574399, 828.2270994451999, 911.8395127015199, 955.1839240413599, 957.3264234611999, 986.9918000435998, 1013.1206791861999, 1033.24781315912, 1040.35514296532, 1086.5012843157199, 1158.117074218, 1191.5112238291601, 1286.63957146712, 1315.0757576772398, 1326.50928823504, 1345.4965026448397, 1396.33966195412, 1439.56733454352, 1445.27379934444, 1485.5280672902798, 1492.32638275708, 1705.6973506201198, 1716.9454725742798, 3001.05112645832, 3015.16964827624, 3087.0944525179198, 3099.55803087372, 3107.7297434045195, 3116.0456626270397, 3118.744387857799, 3130.445730843079, 3201.84864420044, 3208.5027529755193]

>  <ZPE_kJmol>  (1) 
370.4126142688373

>  <E_elec_kJmol>  (1) 
-615998.0063516231

>  <E0_minus_Eelec_plus_ZPE_kJmol>  (1) 
0.0

>  <rxn>  (1) 
rxn_1188

>  <species_type>  (1) 
r1

>  <species_folder>  (1) 
rxn_1188_C=CC[C]C=C

>  <frequencies_cm1_list>  (1) 
[88.1720915088, 106.67861694619998, 273.49142433963993, 286.5592974036, 313.75942625612, 326.27794049448, 407.06115579895993, 569.8224418536, 651.92411833952, 700.3775667574399, 828.2270994451999, 911.8395127015199, 955.1839240413599, 957.3264234611999, 986.9918000435998, 1013.1206791861999, 1033.24781315912, 1040.35514296532, 1086.5012843157199, 1158.117074218, 1191.5112238291601, 1286.63957146712, 1315.0757576772398, 1326.50928823504, 1345.4965026448397, 1396.33966195412, 1439.56733454352, 1445.27379934444, 1485.5280672902798, 1492.32638275708, 1705.6973506201198, 1716.9454725742798, 3001.05112645832, 3015.16964827624, 3087.0944525179198, 3099.55803087372, 3107.7297434045195, 3116.0456626270397, 3118.744387857799, 3130.445730843079, 3201.84864420044, 3208.5027529755193]

>  <E0_kJmol>  (1) 
-615628

>  <H298_kJmol>  (1) 
-615606

$$$$

     RDKit          3D

 10  9  0  0  0  0  0  0  0  0999 V2000
    0.1270    0.7176    1.7216 C   0  0  0  0  0  0  0  0  0  1  0  0
    0.0434   -0.0715    0.6732 C   0  0  0  0  0  0  0  0  0  2  0  0
   -0.0315    0.1747   -0.7449 C   0  0  0  0  0  0  0  0  0  3  0  0
   -0.1427   -0.7721   -1.6719 C   0  0  0  0  0  0  0  0  0  4  0  0
    0.1910    0.3174    2.7281 H   0  0  0  0  0  0  0  0  0  5  0  0
    0.1369    1.8024    1.6173 H   0  0  0  0  0  0  0  0  0  6  0  0
    0.0123    1.2216   -1.0478 H   0  0  0  0  0  0  0  0  0  7  0  0
   -0.1919   -0.5200   -2.7231 H   0  0  0  0  0  0  0  0  0  8  0  0
   -0.1951   -1.8211   -1.4045 H   0  0  0  0  0  0  0  0  0  9  0  0
    0.0768   -1.1212    0.9650 H   0  0  0  0  0  0  0  0  0 10  0  0
  1  5  1  0
  1  6  1  0
  1  2  1  0
  2 10  1  0
  2  3  1  0
  3  4  1  0
  3  7  1  0
  4  8  1  0
  4  9  1  0
M  END
>  <rmg_smiles>  (2) 
[CH2][CH][CH][CH2]

>  <rmg_adjacency_list>  (2) 
1  C u0 p0 c0 {2,S} {3,S} {6,S}
2  C u0 p0 c0 {1,S} {4,S} {5,S}
3  C u0 p0 c0 {1,S} {7,S} {8,S}
4  C u0 p0 c0 {2,S} {9,S} {10,S}
5  H u0 p0 c0 {2,S}
6  H u0 p0 c0 {1,S}
7  H u0 p0 c0 {3,S}
8  H u0 p0 c0 {3,S}
9  H u0 p0 c0 {4,S}
10 H u0 p0 c0 {4,S}


>  <multiplicity>  (2) 
1

>  <reaction>  (2) 
rxn_1188

>  <type>  (2) 
r2h

>  <role_mapnums>  (2) 
{"r2h_a": 2, "r2h_h": 10}

>  <role_mapidx>  (2) 
{"r2h_a": 1, "r2h_h": 9}

>  <ordered_mapped_smiles>  (2) 
[CH:1]([CH:2]([CH:3]([CH:4]([H:8])[H:9])[H:7])[H:10])([H:5])[H:6]

>  <mol_properties>  (2) 
{"1": {"label": "acceptor", "atom_type": "Cs"}, "9": {"label": "a_hydrogen", "atom_type": "H0"}}

>  <level_of_theory>  (2) 
wb97xd/def2tzvp

>  <lot_method>  (2) 
wb97xd

>  <lot_basis>  (2) 
def2tzvp

>  <spin_multiplicity>  (2) 
1.0

>  <optical_isomers>  (2) 
1.0

>  <modes>  (2) 
IdealGasTranslation(mass=(54.047, 'amu')),         NonlinearRotor(             inertia = ([11.9182, 113.061, 124.979

>  <frequency_value>  (2) 
unknown

>  <frequency_units>  (2) 
unknown

>  <frequency_list>  (2) 
unknown

>  <arkane_path>  (2) 
/home/calvin/Dropbox/PersonalFolders/Calvin/HAb_Converged/rxn_1188/output/Species/rxn_1188_C=CC=C/arkane/output.py

>  <path_exists>  (2) 
True

>  <E0_value>  (2) 
-409338.1696024378

>  <E0_units>  (2) 
kJ/mol

>  <thermo_class>  (2) 
NASA

>  <Cp0_value>  (2) 
33.257888

>  <Cp0_units>  (2) 
J/(mol*K)

>  <CpInf_value>  (2) 
232.805216

>  <CpInf_units>  (2) 
J/(mol*K)

>  <Tmin_value>  (2) 
10.0

>  <Tmin_units>  (2) 
K

>  <Tmax_value>  (2) 
3000.0

>  <Tmax_units>  (2) 
K

>  <polynomials>  (2) 
[{"name": "polynomial1", "class": "NASAPolynomial", "Tmin_value": 10.0, "Tmin_units": "K", "Tmax_value": 477.25150837589547, "Tmax_units": "K", "coeffs": [3.9644918263777202, 0.0020596769963902215, 8.674853780374631e-05, -1.450839919461119e-07, 7.838009270341474e-11, -49232008.066253, 7.365433669817705]}, {"name": "polynomial2", "class": "NASAPolynomial", "Tmin_value": 477.25150837589547, "Tmin_units": "K", "Tmax_value": 3000.0, "Tmax_units": "K", "coeffs": [-0.2016346126607574, 0.03684948174336166, -2.2193862153022103e-05, 6.534948821102615e-09, -7.488372760157006e-13, -49231608.95215794, 24.398107945208505]}]

>  <H298_value>  (2) 
-97830.61157155824

>  <H298_units>  (2) 
kcal/mol

>  <S298_value>  (2) 
66.15772377359508

>  <S298_units>  (2) 
cal/(mol*K)

>  <Cp_T_value_list>  (2) 
[18.098233407620363, 22.632858336014493, 26.717409141232952, 30.270647037570512, 35.994368828752485, 40.221251390017414, 46.50234453691136, 49.720054530985024, 51.45868146938158]

>  <Cp_T_units>  (2) 
cal/(mol*K)

>  <T_list>  (2) 
[300.0, 400.0, 500.0, 600.0, 800.0, 1000.0, 1500.0, 2000.0, 2400.0]

>  <T_units>  (2) 
K

>  <yaml_path>  (2) 
/home/calvin/Dropbox/PersonalFolders/Calvin/HAb_Converged/rxn_1188/output/Species/rxn_1188_C=CC=C/rxn_1188_C=CC=C.yml

>  <frequencies_cm1>  (2) 
[162.86429083444, 299.37995899604, 518.85567680856, 535.67292385724, 782.5273121405999, 895.6128263903599, 951.29034336492, 952.5882035904, 1000.9317802431998, 1006.4047675432399, 1052.23502756892, 1221.82209703164, 1311.4568564135998, 1314.3066553213998, 1409.56547568044, 1464.2884816955202, 1663.07397273888, 1726.1678338590398, 3116.4851496875194, 3119.6920318319594, 3127.2663166399198, 3132.3341518060793, 3211.3044829860796, 3211.503625560359]

>  <ZPE_kJmol>  (2) 
222.43148839891296

>  <E_elec_kJmol>  (2) 
-409560.6010908368

>  <E0_minus_Eelec_plus_ZPE_kJmol>  (2) 
0.0

>  <rxn>  (2) 
rxn_1188

>  <species_type>  (2) 
p0

>  <species_folder>  (2) 
rxn_1188_C=CC=C

>  <frequencies_cm1_list>  (2) 
[162.86429083444, 299.37995899604, 518.85567680856, 535.67292385724, 782.5273121405999, 895.6128263903599, 951.29034336492, 952.5882035904, 1000.9317802431998, 1006.4047675432399, 1052.23502756892, 1221.82209703164, 1311.4568564135998, 1314.3066553213998, 1409.56547568044, 1464.2884816955202, 1663.07397273888, 1726.1678338590398, 3116.4851496875194, 3119.6920318319594, 3127.2663166399198, 3132.3341518060793, 3211.3044829860796, 3211.503625560359]

>  <E0_kJmol>  (2) 
-409338

>  <H298_kJmol>  (2) 
-409323

$$$$

     RDKit          3D

 25 23  0  0  0  0  0  0  0  0999 V2000
   -0.1163    2.6490    0.7803 C   0  0  0  0  0  0  0  0  0  1  0  0
   -0.2000    1.8599   -0.2681 C   0  0  0  0  0  3  0  0  0  2  0  0
   -0.2748    2.1060   -1.6862 C   0  0  0  0  0  0  0  0  0  3  0  0
   -0.3861    1.1593   -2.6132 C   0  0  0  0  0  0  0  0  0  4  0  0
   -0.0523    2.2488    1.7868 H   0  0  0  0  0  0  0  0  0  5  0  0
   -0.1064    3.7337    0.6760 H   0  0  0  0  0  0  0  0  0  6  0  0
   -0.2310    3.1530   -1.9891 H   0  0  0  0  0  0  0  0  0  7  0  0
   -0.4352    1.4114   -3.6644 H   0  0  0  0  0  0  0  0  0  8  0  0
   -0.4385    0.1102   -2.3458 H   0  0  0  0  0  0  0  0  0  9  0  0
   -0.6443   -2.5293   -1.0738 C   0  0  0  0  0  0  0  0  0 10  0  0
   -0.9064   -1.6287   -0.1348 C   0  0  0  0  0  0  0  0  0 11  0  0
    0.0808   -0.7625    0.5685 C   0  0  0  0  0  0  0  0  0 12  0  0
    1.5341   -0.9911    0.2136 C   0  0  0  0  0  0  0  0  0 13  0  0
   -0.2255   -0.6505    2.0214 C   0  0  0  0  0  0  0  0  0 14  0  0
    0.6503   -0.6310    3.0191 C   0  0  0  0  0  0  0  0  0 15  0  0
   -1.4413   -3.0986   -1.5344 H   0  0  0  0  0  0  0  0  0 16  0  0
    0.3640   -2.7404   -1.4088 H   0  0  0  0  0  0  0  0  0 17  0  0
   -1.9414   -1.4741    0.1602 H   0  0  0  0  0  0  0  0  0 18  0  0
   -0.1519    0.3508    0.1515 H   0  0  0  0  0  0  0  0  0 19  0  0
    1.6802   -0.9307   -0.8655 H   0  0  0  0  0  0  0  0  0 20  0  0
    2.1641   -0.2275    0.6701 H   0  0  0  0  0  0  0  0  0 21  0  0
    1.8777   -1.9715    0.5533 H   0  0  0  0  0  0  0  0  0 22  0  0
   -1.2827   -0.5595    2.2592 H   0  0  0  0  0  0  0  0  0 23  0  0
    1.7168   -0.7245    2.8563 H   0  0  0  0  0  0  0  0  0 24  0  0
    0.3198   -0.5298    4.0449 H   0  0  0  0  0  0  0  0  0 25  0  0
  1  5  1  0
  1  6  1  0
  1  2  1  0
  2  3  1  0
  3  4  1  0
  3  7  1  0
  4  9  1  0
  4  8  1  0
 10 16  1  0
 10 11  1  0
 10 17  1  0
 11 12  1  0
 11 18  1  0
 12 19  1  0
 12 13  1  0
 12 14  1  0
 13 21  1  0
 13 20  1  0
 13 22  1  0
 14 15  1  0
 14 23  1  0
 15 25  1  0
 15 24  1  0
M  RAD  1   2   2
M  END
>  <rmg_smiles>  (3) 
[CH2][CH]C(C)[CH][CH2].[CH2][C][CH][CH2]

>  <rmg_adjacency_list>  (3) 
multiplicity 2
1  C u0 p0 c0 {2,S} {3,S} {4,S} {11,S}
2  C u0 p0 c0 {1,S} {12,S} {13,S} {14,S}
3  C u0 p0 c0 {1,S} {6,S} {15,S}
4  C u0 p0 c0 {1,S} {7,S} {16,S}
5  C u0 p0 c0 {8,S} {10,S} {17,S}
6  C u0 p0 c0 {3,S} {20,S} {21,S}
7  C u0 p0 c0 {4,S} {22,S} {23,S}
8  C u0 p0 c0 {5,S} {18,S} {19,S}
9  C u0 p0 c0 {10,S} {24,S} {25,S}
10 C u1 p1 c0 {5,S} {9,S}
11 H u0 p0 c0 {1,S}
12 H u0 p0 c0 {2,S}
13 H u0 p0 c0 {2,S}
14 H u0 p0 c0 {2,S}
15 H u0 p0 c0 {3,S}
16 H u0 p0 c0 {4,S}
17 H u0 p0 c0 {5,S}
18 H u0 p0 c0 {8,S}
19 H u0 p0 c0 {8,S}
20 H u0 p0 c0 {6,S}
21 H u0 p0 c0 {6,S}
22 H u0 p0 c0 {7,S}
23 H u0 p0 c0 {7,S}
24 H u0 p0 c0 {9,S}
25 H u0 p0 c0 {9,S}


>  <multiplicity>  (3) 
2

>  <reaction>  (3) 
rxn_1188

>  <type>  (3) 
ts

>  <role_mapnums>  (3) 
{"*2": 19, "*1": 12, "*3": 2, "*0": 11, "*4": 3}

>  <role_mapidx>  (3) 
{"*2": 18, "*1": 11, "*3": 1, "*0": 10, "*4": 2}

>  <ordered_mapped_smiles>  (3) 
[CH:1]([CH:2][CH:3]([CH:4]([H:8])[H:9])[H:7])([H:5])[H:6].[CH:10]([CH:11]([C:12]([C:13]([H:20])([H:21])[H:22])([CH:14]([CH:15]([H:24])[H:25])[H:23])[H:19])[H:18])([H:16])[H:17]

>  <mol_properties>  (3) 
{"1": {"label": "*3", "atom_type": "C2s"}, "2": {"label": "*4", "atom_type": "Cs"}, "10": {"label": "*0", "atom_type": "Cs"}, "11": {"label": "*1", "atom_type": "Cs"}, "18": {"label": "*2", "atom_type": "H0"}}

>  <level_of_theory>  (3) 
wb97xd/def2tzvp

>  <lot_method>  (3) 
wb97xd

>  <lot_basis>  (3) 
def2tzvp

>  <spin_multiplicity>  (3) 
2.0

>  <optical_isomers>  (3) 
2.0

>  <modes>  (3) 
IdealGasTranslation(mass=(135.117, 'amu')),         NonlinearRotor(             inertia = ([369.559, 519.168, 763.09

>  <frequency_value>  (3) 
-930.731

>  <frequency_units>  (3) 
cm^-1

>  <frequency_list>  (3) 
unknown

>  <arkane_path>  (3) 
/home/calvin/Dropbox/PersonalFolders/Calvin/HAb_Converged/rxn_1188/output/rxns/TS0/arkane/output.py

>  <path_exists>  (3) 
True

>  <E0_value>  (3) 
-1023200.0

>  <E0_units>  (3) 
kJ/mol

>  <thermo_class>  (3) 
unknown

>  <Cp0_value>  (3) 
unknown

>  <Cp0_units>  (3) 
unknown

>  <CpInf_value>  (3) 
unknown

>  <CpInf_units>  (3) 
unknown

>  <Tmin_value>  (3) 
unknown

>  <Tmin_units>  (3) 
unknown

>  <Tmax_value>  (3) 
unknown

>  <Tmax_units>  (3) 
unknown

>  <polynomials>  (3) 
unknown

>  <H298_value>  (3) 
unknown

>  <H298_units>  (3) 
unknown

>  <S298_value>  (3) 
unknown

>  <S298_units>  (3) 
unknown

>  <Cp_T_value_list>  (3) 
unknown

>  <Cp_T_units>  (3) 
unknown

>  <T_list>  (3) 
unknown

>  <T_units>  (3) 
unknown

>  <yaml_path>  (3) 
unknown

>  <frequencies_cm1>  (3) 
unknown

>  <ZPE_kJmol>  (3) 
unknown

>  <E_elec_kJmol>  (3) 
unknown

>  <E0_minus_Eelec_plus_ZPE_kJmol>  (3) 
unknown

>  <rxn>  (3) 
unknown

>  <species_type>  (3) 
unknown

>  <species_folder>  (3) 
unknown

>  <frequencies_cm1_list>  (3) 
[]

>  <ts_imag_freq_cm1>  (3) 
-942.0353

>  <ts_freq_out_path>  (3) 
/home/calvin/Dropbox/PersonalFolders/Calvin/HAb_Converged/rxn_1188/output/rxns/TS0/geometry/freq.out

>  <E0_kJmol>  (3) 
-1.0232e+06

>  <H298_kJmol>  (3) 
unknown

$$$$

     RDKit          3D

 15 14  0  0  0  0  0  0  0  0999 V2000
    2.4381    0.5770   -0.2356 C   0  0  0  0  0  0  0  0  0  1  0  0
    1.4430   -0.3367   -0.1409 C   0  0  0  0  0  0  0  0  0  2  0  0
    0.0521   -0.0957   -0.0045 C   0  0  0  0  0  3  0  0  0  3  0  0
   -0.5167    1.2867    0.0548 C   0  0  0  0  0  0  0  0  0  4  0  0
   -0.8226   -1.2147    0.0778 C   0  0  0  0  0  0  0  0  0  5  0  0
   -2.1666   -1.1669    0.2092 C   0  0  0  0  0  0  0  0  0  6  0  0
    3.4666    0.2585   -0.3369 H   0  0  0  0  0  0  0  0  0  7  0  0
    2.2594    1.6438   -0.2152 H   0  0  0  0  0  0  0  0  0  8  0  0
    1.7306   -1.3845   -0.1719 H   0  0  0  0  0  0  0  0  0  9  0  0
   -1.2300    1.4469   -0.7583 H   0  0  0  0  0  0  0  0  0 10  0  0
    0.2481    2.0557   -0.0178 H   0  0  0  0  0  0  0  0  0 11  0  0
   -1.0592    1.4421    0.9914 H   0  0  0  0  0  0  0  0  0 12  0  0
   -0.3519   -2.1929    0.0292 H   0  0  0  0  0  0  0  0  0 13  0  0
   -2.7080   -0.2310    0.2646 H   0  0  0  0  0  0  0  0  0 14  0  0
   -2.7513   -2.0751    0.2638 H   0  0  0  0  0  0  0  0  0 15  0  0
  1  8  1  0
  1  7  1  0
  1  2  1  0
  2  9  1  0
  2  3  1  0
  3  4  1  0
  3  5  1  0
  4 12  1  0
  4 10  1  0
  4 11  1  0
  5  6  1  0
  5 13  1  0
  6 15  1  0
  6 14  1  0
M  RAD  1   3   2
M  END
>  <rmg_smiles>  (4) 
[CH2][CH][C](C)[CH][CH2]

>  <rmg_adjacency_list>  (4) 
multiplicity 2
1  C u0 p0 c0 {2,S} {7,S} {8,S} {9,S}
2  C u1 p0 c0 {1,S} {3,S} {4,S}
3  C u0 p0 c0 {2,S} {5,S} {10,S}
4  C u0 p0 c0 {2,S} {6,S} {11,S}
5  C u0 p0 c0 {3,S} {12,S} {13,S}
6  C u0 p0 c0 {4,S} {14,S} {15,S}
7  H u0 p0 c0 {1,S}
8  H u0 p0 c0 {1,S}
9  H u0 p0 c0 {1,S}
10 H u0 p0 c0 {3,S}
11 H u0 p0 c0 {4,S}
12 H u0 p0 c0 {5,S}
13 H u0 p0 c0 {5,S}
14 H u0 p0 c0 {6,S}
15 H u0 p0 c0 {6,S}


>  <multiplicity>  (4) 
2

>  <reaction>  (4) 
rxn_1188

>  <type>  (4) 
r1

>  <role_mapnums>  (4) 
{}

>  <role_mapidx>  (4) 
{}

>  <ordered_mapped_smiles>  (4) 
[CH:1]([CH:2]([C:3]([C:4]([H:10])([H:11])[H:12])[CH:5]([CH:6]([H:14])[H:15])[H:13])[H:9])([H:7])[H:8]

>  <level_of_theory>  (4) 
wb97xd/def2tzvp

>  <lot_method>  (4) 
wb97xd

>  <lot_basis>  (4) 
def2tzvp

>  <spin_multiplicity>  (4) 
2.0

>  <optical_isomers>  (4) 
1.0

>  <modes>  (4) 
IdealGasTranslation(mass=(81.0704, 'amu')),         NonlinearRotor(             inertia = ([62.5293, 224.796, 284.21

>  <frequency_value>  (4) 
unknown

>  <frequency_units>  (4) 
unknown

>  <frequency_list>  (4) 
unknown

>  <arkane_path>  (4) 
/home/calvin/Dropbox/PersonalFolders/Calvin/HAb_Converged/rxn_1188/output/Species/rxn_1188_C=C[C][C]C=C/arkane/output.py

>  <path_exists>  (4) 
True

>  <E0_value>  (4) 
-614016.405434086

>  <E0_units>  (4) 
kJ/mol

>  <thermo_class>  (4) 
NASA

>  <Cp0_value>  (4) 
33.257888

>  <Cp0_units>  (4) 
J/(mol*K)

>  <CpInf_value>  (4) 
357.522296

>  <CpInf_units>  (4) 
J/(mol*K)

>  <Tmin_value>  (4) 
10.0

>  <Tmin_units>  (4) 
K

>  <Tmax_value>  (4) 
3000.0

>  <Tmax_units>  (4) 
K

>  <polynomials>  (4) 
[{"name": "polynomial1", "class": "NASAPolynomial", "Tmin_value": 10.0, "Tmin_units": "K", "Tmax_value": 419.0689826855313, "Tmax_units": "K", "coeffs": [3.7461378399183536, 0.022464955908256024, 8.810794690126274e-05, -1.8449270689510127e-07, 1.148776845632381e-10, -73849113.49735299, 11.570077105248336]}, {"name": "polynomial2", "class": "NASAPolynomial", "Tmin_value": 419.0689826855313, "Tmin_units": "K", "Tmax_value": 3000.0, "Tmax_units": "K", "coeffs": [0.16809288681172943, 0.05661667084847684, -3.41312558204021e-05, 9.965368111618754e-09, -1.1262510033039744e-12, -73848813.6024703, 25.720243230921767]}]

>  <H298_value>  (4) 
-146748.3088248158

>  <H298_units>  (4) 
kcal/mol

>  <S298_value>  (4) 
83.69704340475995

>  <S298_units>  (4) 
cal/(mol*K)

>  <Cp_T_value_list>  (4) 
[28.545319179186908, 35.69564824876572, 41.96760480546441, 47.409581732443996, 56.15524022360577, 62.58234917827583, 71.99499165792618, 76.66511553325982, 79.18424304962427]

>  <Cp_T_units>  (4) 
cal/(mol*K)

>  <T_list>  (4) 
[300.0, 400.0, 500.0, 600.0, 800.0, 1000.0, 1500.0, 2000.0, 2400.0]

>  <T_units>  (4) 
K

>  <yaml_path>  (4) 
/home/calvin/Dropbox/PersonalFolders/Calvin/HAb_Converged/rxn_1188/output/Species/rxn_1188_C=C[C][C]C=C/rxn_1188_C=CCCC=C.yml

>  <frequencies_cm1>  (4) 
[55.7255858718, 142.91569847984, 243.59943724168, 250.04753645715996, 341.08316084439997, 359.56908532584, 490.81090876168, 546.8592429435199, 586.89376735912, 682.6813455877999, 764.7280861911601, 864.3131073018001, 877.42218227768, 957.0998129456399, 982.96774664608, 1004.23480018212, 1020.31727980156, 1028.45465740576, 1074.8823451542798, 1211.9885740533998, 1279.2781632040799, 1315.0139548093598, 1360.63133829012, 1400.4461191754801, 1420.0719632200398, 1441.723567934, 1468.0927915628, 1488.2405264916797, 1525.7960692067597, 1597.66593756588, 3009.75159685876, 3060.48488440292, 3115.2559593152396, 3122.0886097086404, 3125.7967817814397, 3133.8517555617996, 3139.09126536096, 3221.11053802304, 3224.1388785491595]

>  <ZPE_kJmol>  (4) 
334.5664415862221

>  <E_elec_kJmol>  (4) 
-614350.9718756722

>  <E0_minus_Eelec_plus_ZPE_kJmol>  (4) 
0.0

>  <rxn>  (4) 
rxn_1188

>  <species_type>  (4) 
p1

>  <species_folder>  (4) 
rxn_1188_C=C[C][C]C=C

>  <frequencies_cm1_list>  (4) 
[55.7255858718, 142.91569847984, 243.59943724168, 250.04753645715996, 341.08316084439997, 359.56908532584, 490.81090876168, 546.8592429435199, 586.89376735912, 682.6813455877999, 764.7280861911601, 864.3131073018001, 877.42218227768, 957.0998129456399, 982.96774664608, 1004.23480018212, 1020.31727980156, 1028.45465740576, 1074.8823451542798, 1211.9885740533998, 1279.2781632040799, 1315.0139548093598, 1360.63133829012, 1400.4461191754801, 1420.0719632200398, 1441.723567934, 1468.0927915628, 1488.2405264916797, 1525.7960692067597, 1597.66593756588, 3009.75159685876, 3060.48488440292, 3115.2559593152396, 3122.0886097086404, 3125.7967817814397, 3133.8517555617996, 3139.09126536096, 3221.11053802304, 3224.1388785491595]

>  <E0_kJmol>  (4) 
-614016

>  <H298_kJmol>  (4) 
-613995

$$$$

     RDKit          3D

  9  8  0  0  0  0  0  0  0  0999 V2000
    1.8963   -0.1405   -0.2150 C   0  0  0  0  0  0  0  0  0  1  0  0
    0.6340    0.1486   -0.2254 C   0  0  0  0  0  3  0  0  0  2  0  0
   -0.6770    0.4501   -0.2373 C   0  0  0  0  0  0  0  0  0  3  0  0
   -1.6600   -0.2303    0.4662 C   0  0  0  0  0  0  0  0  0  4  0  0
    2.3274   -0.8354   -0.9313 H   0  0  0  0  0  0  0  0  0  5  0  0
    2.5751    0.2988    0.5117 H   0  0  0  0  0  0  0  0  0  6  0  0
   -0.9723    1.2966   -0.8520 H   0  0  0  0  0  0  0  0  0  7  0  0
   -2.6934    0.0777    0.4015 H   0  0  0  0  0  0  0  0  0  8  0  0
   -1.4140   -1.0782    1.0904 H   0  0  0  0  0  0  0  0  0  9  0  0
  1  5  1  0
  1  6  1  0
  1  2  1  0
  2  3  1  0
  3  4  1  0
  3  7  1  0
  4  8  1  0
  4  9  1  0
M  RAD  1   2   2
M  END
>  <rmg_smiles>  (5) 
[CH2][C][CH][CH2]

>  <rmg_adjacency_list>  (5) 
multiplicity 2
1 C u0 p0 c0 {2,S} {4,S} {5,S}
2 C u0 p0 c0 {1,S} {6,S} {7,S}
3 C u0 p0 c0 {4,S} {8,S} {9,S}
4 C u1 p1 c0 {1,S} {3,S}
5 H u0 p0 c0 {1,S}
6 H u0 p0 c0 {2,S}
7 H u0 p0 c0 {2,S}
8 H u0 p0 c0 {3,S}
9 H u0 p0 c0 {3,S}


>  <multiplicity>  (5) 
2

>  <reaction>  (5) 
rxn_1188

>  <type>  (5) 
r2

>  <role_mapnums>  (5) 
{}

>  <role_mapidx>  (5) 
{}

>  <ordered_mapped_smiles>  (5) 
[CH:1]([CH:2][CH:3]([CH:4]([H:8])[H:9])[H:7])([H:5])[H:6]

>  <level_of_theory>  (5) 
wb97xd/def2tzvp

>  <lot_method>  (5) 
wb97xd

>  <lot_basis>  (5) 
def2tzvp

>  <spin_multiplicity>  (5) 
2.0

>  <optical_isomers>  (5) 
1.0

>  <modes>  (5) 
IdealGasTranslation(mass=(53.0391, 'amu')),         NonlinearRotor(             inertia = ([12.0347, 113.266, 121.844

>  <frequency_value>  (5) 
unknown

>  <frequency_units>  (5) 
unknown

>  <frequency_list>  (5) 
unknown

>  <arkane_path>  (5) 
/home/calvin/Dropbox/PersonalFolders/Calvin/HAb_Converged/rxn_1188/output/Species/rxn_1188_C=[C]C=C/arkane/output.py

>  <path_exists>  (5) 
True

>  <E0_value>  (5) 
-407618.73102202936

>  <E0_units>  (5) 
kJ/mol

>  <thermo_class>  (5) 
NASA

>  <Cp0_value>  (5) 
33.257888

>  <Cp0_units>  (5) 
J/(mol*K)

>  <CpInf_value>  (5) 
207.8618

>  <CpInf_units>  (5) 
J/(mol*K)

>  <Tmin_value>  (5) 
10.0

>  <Tmin_units>  (5) 
K

>  <Tmax_value>  (5) 
3000.0

>  <Tmax_units>  (5) 
K

>  <polynomials>  (5) 
[{"name": "polynomial1", "class": "NASAPolynomial", "Tmin_value": 10.0, "Tmin_units": "K", "Tmax_value": 513.96992949071, "Tmax_units": "K", "coeffs": [3.9420802999541826, 0.0035685760014192327, 9.465791812405604e-05, -1.8686526671215408e-07, 1.1507173469765572e-10, -49025207.15718319, 8.65621190884103]}, {"name": "polynomial2", "class": "NASAPolynomial", "Tmin_value": 513.96992949071, "Tmin_units": "K", "Tmax_value": 3000.0, "Tmax_units": "K", "coeffs": [2.0283894812979866, 0.030453216730392172, -1.8799715383868938e-05, 5.69276117666148e-09, -6.699501956082314e-13, -49025168.8245439, 15.074146021629948]}]

>  <H298_value>  (5) 
-97419.52636783152

>  <H298_units>  (5) 
kcal/mol

>  <S298_value>  (5) 
69.47182773714773

>  <S298_units>  (5) 
cal/(mol*K)

>  <Cp_T_value_list>  (5) 
[18.71667250989835, 22.85533281432161, 26.28015598227693, 29.162718122858536, 33.78137212963757, 37.17010503303923, 42.188992301862434, 44.829088783976054, 46.30020231473576]

>  <Cp_T_units>  (5) 
cal/(mol*K)

>  <T_list>  (5) 
[300.0, 400.0, 500.0, 600.0, 800.0, 1000.0, 1500.0, 2000.0, 2400.0]

>  <T_units>  (5) 
K

>  <yaml_path>  (5) 
/home/calvin/Dropbox/PersonalFolders/Calvin/HAb_Converged/rxn_1188/output/Species/rxn_1188_C=[C]C=C/rxn_1188_C=CC=C.yml

>  <frequencies_cm1>  (5) 
[209.82760343791998, 213.04821955299997, 498.83154761543994, 525.2763080827599, 574.87654304912, 748.94088694048, 893.75874035396, 905.4944182658398, 936.5057239709599, 975.15311735192, 1080.3828003955998, 1184.87084902472, 1365.78157728012, 1440.54244645896, 1485.45939743708, 1902.75236136284, 3071.21111547276, 3118.0645563111198, 3138.67237925644, 3141.51531117892, 3241.1690021427603]

>  <ZPE_kJmol>  (5) 
183.34053407098105

>  <E_elec_kJmol>  (5) 
-407802.07155610033

>  <E0_minus_Eelec_plus_ZPE_kJmol>  (5) 
0.0

>  <rxn>  (5) 
rxn_1188

>  <species_type>  (5) 
r0

>  <species_folder>  (5) 
rxn_1188_C=[C]C=C

>  <frequencies_cm1_list>  (5) 
[209.82760343791998, 213.04821955299997, 498.83154761543994, 525.2763080827599, 574.87654304912, 748.94088694048, 893.75874035396, 905.4944182658398, 936.5057239709599, 975.15311735192, 1080.3828003955998, 1184.87084902472, 1365.78157728012, 1440.54244645896, 1485.45939743708, 1902.75236136284, 3071.21111547276, 3118.0645563111198, 3138.67237925644, 3141.51531117892, 3241.1690021427603]

>  <E0_kJmol>  (5) 
-407619

>  <H298_kJmol>  (5) 
-407603

$$$$
