
     RDKit          3D

 13 12  0  0  0  0  0  0  0  0999 V2000
   -1.2711   -0.2713   -1.7541 C   0  0  0  0  0  2  0  0  0  1  0  0
   -0.5780   -0.1946   -0.7729 C   0  0  0  0  0  2  0  0  0  2  0  0
    0.2323   -0.1681    0.3978 C   0  0  0  0  0  0  0  0  0  3  0  0
   -0.3573    0.5403    1.5966 C   0  0  0  0  0  0  0  0  0  4  0  0
    1.7133    0.0387    0.1756 C   0  0  0  0  0  0  0  0  0  5  0  0
   -1.8780   -0.3262   -2.6254 H   0  0  0  0  0  0  0  0  0  6  0  0
    0.2254   -1.2100    0.7181 H   0  0  0  0  0  0  0  0  0  7  0  0
   -1.4092    0.2880    1.7285 H   0  0  0  0  0  0  0  0  0  8  0  0
   -0.2827    1.6253    1.4748 H   0  0  0  0  0  0  0  0  0  9  0  0
    0.1872    0.2624    2.5010 H   0  0  0  0  0  0  0  0  0 10  0  0
    1.9205    1.0795   -0.0907 H   0  0  0  0  0  0  0  0  0 11  0  0
    2.0816   -0.6010   -0.6259 H   0  0  0  0  0  0  0  0  0 12  0  0
    2.2633   -0.1956    1.0891 H   0  0  0  0  0  0  0  0  0 13  0  0
  1  6  1  0
  1  2  1  0
  2  3  1  0
  3  4  1  0
  3  5  1  0
  3  7  1  0
  4  8  1  0
  4  9  1  0
  4 10  1  0
  5 11  1  0
  5 12  1  0
  5 13  1  0
M  RAD  2   1   3   2   3
M  END
>  <rmg_smiles>  (1) 
[CH][C]C(C)C

>  <rmg_adjacency_list>  (1) 
1  C u0 p0 c0 {2,S} {3,S} {4,S} {6,S}
2  C u0 p0 c0 {1,S} {7,S} {8,S} {9,S}
3  C u0 p0 c0 {1,S} {10,S} {11,S} {12,S}
4  C u0 p1 c0 {1,S} {5,S}
5  C u0 p1 c0 {4,S} {13,S}
6  H u0 p0 c0 {1,S}
7  H u0 p0 c0 {2,S}
8  H u0 p0 c0 {2,S}
9  H u0 p0 c0 {2,S}
10 H u0 p0 c0 {3,S}
11 H u0 p0 c0 {3,S}
12 H u0 p0 c0 {3,S}
13 H u0 p0 c0 {5,S}


>  <multiplicity>  (1) 
1

>  <reaction>  (1) 
rxn_1314

>  <type>  (1) 
r1h

>  <role_mapnums>  (1) 
{"r1h_a": 3, "r1h_h": 7}

>  <role_mapidx>  (1) 
{"r1h_a": 2, "r1h_h": 6}

>  <ordered_mapped_smiles>  (1) 
[C:1]([C:2][C:3]([C:4]([H:8])([H:9])[H:10])([C:5]([H:11])([H:12])[H:13])[H:7])[H:6]

>  <mol_properties>  (1) 
{"2": {"label": "donator", "atom_type": "Cs"}, "6": {"label": "d_hydrogen", "atom_type": "H0"}}

>  <level_of_theory>  (1) 
wb97xd/def2tzvp

>  <lot_method>  (1) 
wb97xd

>  <lot_basis>  (1) 
def2tzvp

>  <spin_multiplicity>  (1) 
1.0

>  <optical_isomers>  (1) 
1.0

>  <modes>  (1) 
IdealGasTranslation(mass=(68.0626, 'amu')),         NonlinearRotor(             inertia = ([63.031, 131.338, 177.504

>  <frequency_value>  (1) 
unknown

>  <frequency_units>  (1) 
unknown

>  <frequency_list>  (1) 
unknown

>  <arkane_path>  (1) 
/home/calvin/Dropbox/PersonalFolders/Calvin/HAb_Converged/rxn_1314/output/Species/rxn_1314_CtCC[C]C/arkane/output.py

>  <path_exists>  (1) 
True

>  <E0_value>  (1) 
-512436.2321226376

>  <E0_units>  (1) 
kJ/mol

>  <thermo_class>  (1) 
NASA

>  <Cp0_value>  (1) 
33.257888

>  <Cp0_units>  (1) 
J/(mol*K)

>  <CpInf_value>  (1) 
307.635464

>  <CpInf_units>  (1) 
J/(mol*K)

>  <Tmin_value>  (1) 
10.0

>  <Tmin_units>  (1) 
K

>  <Tmax_value>  (1) 
3000.0

>  <Tmax_units>  (1) 
K

>  <polynomials>  (1) 
[{"name": "polynomial1", "class": "NASAPolynomial", "Tmin_value": 10.0, "Tmin_units": "K", "Tmax_value": 293.0407624013314, "Tmax_units": "K", "coeffs": [3.9101886097059264, 0.0069849319055039685, 0.00016661855350475234, -4.2944025859153837e-07, 3.715868629965923e-10, -61631842.919720486, 9.420104844549218]}, {"name": "polynomial2", "class": "NASAPolynomial", "Tmin_value": 293.0407624013314, "Tmin_units": "K", "Tmax_value": 3000.0, "Tmax_units": "K", "coeffs": [1.1644442010838205, 0.04446438207111068, -2.52295815987051e-05, 7.014702784040353e-09, -7.641632564807846e-13, -61631681.99713866, 19.29648088401905]}]

>  <H298_value>  (1) 
-122470.68169768815

>  <H298_units>  (1) 
kcal/mol

>  <S298_value>  (1) 
75.75418343380927

>  <S298_units>  (1) 
cal/(mol*K)

>  <Cp_T_value_list>  (1) 
[24.673759492733886, 30.48939610587082, 35.607396985307304, 40.0949997668281, 47.42973897696881, 52.95862441339962, 61.40568267180244, 65.70875577504152, 67.91222494070715]

>  <Cp_T_units>  (1) 
cal/(mol*K)

>  <T_list>  (1) 
[300.0, 400.0, 500.0, 600.0, 800.0, 1000.0, 1500.0, 2000.0, 2400.0]

>  <T_units>  (1) 
K

>  <yaml_path>  (1) 
/home/calvin/Dropbox/PersonalFolders/Calvin/HAb_Converged/rxn_1314/output/Species/rxn_1314_CtCC[C]C/rxn_1314_CtCCCC.yml

>  <frequencies_cm1>  (1) 
[181.78970237636, 214.59329125, 227.57876049012, 284.68461041124, 357.7218662747599, 538.28237827884, 546.74250419308, 681.47275617148, 684.6727713305999, 777.09552675248, 934.7477757290399, 938.00959375604, 968.90416071072, 1120.3143200313998, 1127.90233881, 1188.30434168472, 1322.0938166742799, 1344.4252529349199, 1390.50272443212, 1410.02556369688, 1473.5177099656, 1475.7288792386398, 1485.74781082052, 1496.61824858208, 2216.82766894368, 3013.5353057700795, 3017.3808175492795, 3019.5370509397603, 3091.98374606576, 3096.2206760082004, 3103.6370201537993, 3105.55290905808, 3437.4617775149595]

>  <ZPE_kJmol>  (1) 
294.721743692255

>  <E_elec_kJmol>  (1) 
-512730.9538663298

>  <E0_minus_Eelec_plus_ZPE_kJmol>  (1) 
0.0

>  <rxn>  (1) 
rxn_1314

>  <species_type>  (1) 
r1

>  <species_folder>  (1) 
rxn_1314_CtCC[C]C

>  <frequencies_cm1_list>  (1) 
[181.78970237636, 214.59329125, 227.57876049012, 284.68461041124, 357.7218662747599, 538.28237827884, 546.74250419308, 681.47275617148, 684.6727713305999, 777.09552675248, 934.7477757290399, 938.00959375604, 968.90416071072, 1120.3143200313998, 1127.90233881, 1188.30434168472, 1322.0938166742799, 1344.4252529349199, 1390.50272443212, 1410.02556369688, 1473.5177099656, 1475.7288792386398, 1485.74781082052, 1496.61824858208, 2216.82766894368, 3013.5353057700795, 3017.3808175492795, 3019.5370509397603, 3091.98374606576, 3096.2206760082004, 3103.6370201537993, 3105.55290905808, 3437.4617775149595]

>  <E0_kJmol>  (1) 
-512436

>  <H298_kJmol>  (1) 
-512417

$$$$

     RDKit          3D

 12 11  0  0  0  0  0  0  0  0999 V2000
    0.9560   -0.8998   -2.0532 C   0  0  0  0  0  2  0  0  0  1  0  0
    0.3746   -0.3731   -1.1451 C   0  0  0  0  0  2  0  0  0  2  0  0
   -0.3482    0.3116   -0.1093 C   0  0  0  0  0  0  0  0  0  3  0  0
   -1.8372    0.0026   -0.0411 C   0  0  0  0  0  0  0  0  0  4  0  0
    0.3287    0.3924    1.1558 C   0  0  0  0  0  2  0  0  0  5  0  0
    0.8735    0.5178    2.2184 C   0  0  0  0  0  2  0  0  0  6  0  0
    1.4747   -1.3798   -2.8477 H   0  0  0  0  0  0  0  0  0  7  0  0
   -2.2923    0.1741   -1.0166 H   0  0  0  0  0  0  0  0  0  8  0  0
   -2.0046   -1.0363    0.2479 H   0  0  0  0  0  0  0  0  0  9  0  0
   -2.3176    0.6490    0.6933 H   0  0  0  0  0  0  0  0  0 10  0  0
    1.3616    0.6056    3.1590 H   0  0  0  0  0  0  0  0  0 11  0  0
   -0.3558    1.3421   -0.4643 H   0  0  0  0  0  0  0  0  0 12  0  0
  1  7  1  0
  1  2  1  0
  2  3  1  0
  3  4  1  0
  3  5  1  0
  3 12  1  0
  4  8  1  0
  4  9  1  0
  4 10  1  0
  5  6  1  0
  6 11  1  0
M  RAD  4   1   3   2   3   5   3   6   3
M  END
>  <rmg_smiles>  (2) 
[CH][C]C(C)[C][CH]

>  <rmg_adjacency_list>  (2) 
1  C u0 p0 c0 {2,S} {3,S} {4,S} {7,S}
2  C u0 p0 c0 {1,S} {8,S} {9,S} {10,S}
3  C u0 p1 c0 {1,S} {5,S}
4  C u0 p1 c0 {1,S} {6,S}
5  C u0 p1 c0 {3,S} {11,S}
6  C u0 p1 c0 {4,S} {12,S}
7  H u0 p0 c0 {1,S}
8  H u0 p0 c0 {2,S}
9  H u0 p0 c0 {2,S}
10 H u0 p0 c0 {2,S}
11 H u0 p0 c0 {5,S}
12 H u0 p0 c0 {6,S}


>  <multiplicity>  (2) 
1

>  <reaction>  (2) 
rxn_1314

>  <type>  (2) 
r2h

>  <role_mapnums>  (2) 
{"r2h_a": 3, "r2h_h": 12}

>  <role_mapidx>  (2) 
{"r2h_a": 2, "r2h_h": 11}

>  <ordered_mapped_smiles>  (2) 
[C:1]([C:2][C:3]([C:4]([H:8])([H:9])[H:10])([C:5][C:6][H:11])[H:12])[H:7]

>  <mol_properties>  (2) 
{"2": {"label": "acceptor", "atom_type": "Cs"}, "11": {"label": "a_hydrogen", "atom_type": "H0"}}

>  <level_of_theory>  (2) 
wb97xd/def2tzvp

>  <lot_method>  (2) 
wb97xd

>  <lot_basis>  (2) 
def2tzvp

>  <spin_multiplicity>  (2) 
1.0

>  <optical_isomers>  (2) 
1.0

>  <modes>  (2) 
IdealGasTranslation(mass=(78.0469, 'amu')),         NonlinearRotor(             inertia = ([91.5038, 182.303, 256.884

>  <frequency_value>  (2) 
unknown

>  <frequency_units>  (2) 
unknown

>  <frequency_list>  (2) 
unknown

>  <arkane_path>  (2) 
/home/calvin/Dropbox/PersonalFolders/Calvin/HAb_Converged/rxn_1314/output/Species/rxn_1314_CtCC[C]CtC/arkane/output.py

>  <path_exists>  (2) 
True

>  <E0_value>  (2) 
-609140.5146388354

>  <E0_units>  (2) 
kJ/mol

>  <thermo_class>  (2) 
NASA

>  <Cp0_value>  (2) 
33.257888

>  <Cp0_units>  (2) 
J/(mol*K)

>  <CpInf_value>  (2) 
282.692048

>  <CpInf_units>  (2) 
J/(mol*K)

>  <Tmin_value>  (2) 
10.0

>  <Tmin_units>  (2) 
K

>  <Tmax_value>  (2) 
3000.0

>  <Tmax_units>  (2) 
K

>  <polynomials>  (2) 
[{"name": "polynomial1", "class": "NASAPolynomial", "Tmin_value": 10.0, "Tmin_units": "K", "Tmax_value": 428.30381772817856, "Tmax_units": "K", "coeffs": [3.843414737485958, 0.011059899510253308, 0.00017313206294384585, -4.5066861494576427e-07, 3.5431673194866504e-10, -73262680.70719364, 10.351537126465276]}, {"name": "polynomial2", "class": "NASAPolynomial", "Tmin_value": 428.30381772817856, "Tmin_units": "K", "Tmax_value": 3000.0, "Tmax_units": "K", "coeffs": [3.71225639608142, 0.03988512935119699, -2.4480757543004908e-05, 7.3774227474566334e-09, -8.647202101499329e-13, -73262922.62795044, 7.917757545343436]}]

>  <H298_value>  (2) 
-145583.22326588043

>  <H298_units>  (2) 
kcal/mol

>  <S298_value>  (2) 
79.39725011907349

>  <S298_units>  (2) 
cal/(mol*K)

>  <Cp_T_value_list>  (2) 
[26.71835542334415, 32.185236842440695, 36.57009328220792, 40.36357580076537, 46.452394866783735, 50.93077266482023, 57.588055372365, 61.09337215118473, 63.041253155202796]

>  <Cp_T_units>  (2) 
cal/(mol*K)

>  <T_list>  (2) 
[300.0, 400.0, 500.0, 600.0, 800.0, 1000.0, 1500.0, 2000.0, 2400.0]

>  <T_units>  (2) 
K

>  <yaml_path>  (2) 
/home/calvin/Dropbox/PersonalFolders/Calvin/HAb_Converged/rxn_1314/output/Species/rxn_1314_CtCC[C]CtC/rxn_1314_CtCCCCtC.yml

>  <frequencies_cm1>  (2) 
[133.58346542996, 199.16317523595998, 209.69026373152, 240.0698067872, 354.65919082204, 475.7310089989599, 567.46019890352, 568.12629647956, 689.5414639224799, 690.09082274808, 696.1063018883999, 699.3337849888, 789.86125246236, 930.3735060801998, 1032.6572524215999, 1082.42916202096, 1134.52211265848, 1298.31344651112, 1322.5745056466799, 1399.4092043921598, 1478.5306092491999, 1484.3400788299198, 2226.8946694228, 2231.41314576336, 3015.0597765111197, 3031.95942738364, 3117.4327936616796, 3119.7813026411195, 3437.7021220011598, 3438.6085640633996]

>  <ZPE_kJmol>  (2) 
245.805260802598

>  <E_elec_kJmol>  (2) 
-609386.3198996381

>  <E0_minus_Eelec_plus_ZPE_kJmol>  (2) 
0.0

>  <rxn>  (2) 
rxn_1314

>  <species_type>  (2) 
p0

>  <species_folder>  (2) 
rxn_1314_CtCC[C]CtC

>  <frequencies_cm1_list>  (2) 
[133.58346542996, 199.16317523595998, 209.69026373152, 240.0698067872, 354.65919082204, 475.7310089989599, 567.46019890352, 568.12629647956, 689.5414639224799, 690.09082274808, 696.1063018883999, 699.3337849888, 789.86125246236, 930.3735060801998, 1032.6572524215999, 1082.42916202096, 1134.52211265848, 1298.31344651112, 1322.5745056466799, 1399.4092043921598, 1478.5306092491999, 1484.3400788299198, 2226.8946694228, 2231.41314576336, 3015.0597765111197, 3031.95942738364, 3117.4327936616796, 3119.7813026411195, 3437.7021220011598, 3438.6085640633996]

>  <E0_kJmol>  (2) 
-609141

>  <H298_kJmol>  (2) 
-609120

$$$$

     RDKit          3D

 24 22  0  0  0  0  0  0  0  0999 V2000
    1.1490   -2.2603   -1.3229 C   0  0  0  0  0  0  0  0  0  1  0  0
    0.5676   -1.7336   -0.4147 C   0  0  0  0  0  0  0  0  0  2  0  0
   -0.1552   -1.0490    0.6211 C   0  0  0  0  0  0  0  0  0  3  0  0
   -1.6442   -1.3579    0.6893 C   0  0  0  0  0  0  0  0  0  4  0  0
    0.5217   -0.9681    1.8862 C   0  0  0  0  0  0  0  0  0  5  0  0
    1.0665   -0.8427    2.9488 C   0  0  0  0  0  0  0  0  0  6  0  0
    1.6677   -2.7403   -2.1173 H   0  0  0  0  0  0  0  0  0  7  0  0
   -2.0993   -1.1865   -0.2862 H   0  0  0  0  0  0  0  0  0  8  0  0
   -1.8116   -2.3969    0.9783 H   0  0  0  0  0  0  0  0  0  9  0  0
   -2.1246   -0.7116    1.4236 H   0  0  0  0  0  0  0  0  0 10  0  0
    1.5546   -0.7549    3.8894 H   0  0  0  0  0  0  0  0  0 11  0  0
   -1.6592    1.4104   -2.3651 C   0  0  0  0  0  0  0  0  0 12  0  0
   -0.9661    1.4871   -1.3839 C   0  0  0  0  0  0  0  0  0 13  0  0
   -0.1558    1.5136   -0.2132 C   0  0  0  0  0  3  0  0  0 14  0  0
   -0.7454    2.2220    0.9857 C   0  0  0  0  0  0  0  0  0 15  0  0
    1.3252    1.7204   -0.4353 C   0  0  0  0  0  0  0  0  0 16  0  0
   -2.2661    1.3555   -3.2364 H   0  0  0  0  0  0  0  0  0 17  0  0
   -0.1644    0.2039    0.1895 H   0  0  0  0  0  0  0  0  0 18  0  0
   -1.7973    1.9697    1.1176 H   0  0  0  0  0  0  0  0  0 19  0  0
   -0.6708    3.3069    0.8639 H   0  0  0  0  0  0  0  0  0 20  0  0
   -0.2008    1.9441    1.8900 H   0  0  0  0  0  0  0  0  0 21  0  0
    1.5324    2.7612   -0.7017 H   0  0  0  0  0  0  0  0  0 22  0  0
    1.6936    1.0807   -1.2368 H   0  0  0  0  0  0  0  0  0 23  0  0
    1.8753    1.4860    0.4781 H   0  0  0  0  0  0  0  0  0 24  0  0
  1  7  1  0
  1  2  1  0
  2  3  1  0
  3  4  1  0
  3  5  1  0
  3 18  1  0
  4 10  1  0
  4  9  1  0
  4  8  1  0
  5  6  1  0
  6 11  1  0
 12 17  1  0
 12 13  1  0
 13 14  1  0
 14 15  1  0
 14 16  1  0
 15 20  1  0
 15 19  1  0
 15 21  1  0
 16 22  1  0
 16 23  1  0
 16 24  1  0
M  RAD  1  14   2
M  END
>  <rmg_smiles>  (3) 
[CH]CC(C)C[CH].[CH]C[C](C)C

>  <rmg_adjacency_list>  (3) 
multiplicity 2
1  C u0 p0 c0 {2,S} {6,S} {7,S} {12,S}
2  C u0 p0 c0 {1,S} {13,S} {14,S} {15,S}
3  C u0 p0 c0 {5,S} {16,S} {17,S} {18,S}
4  C u0 p0 c0 {5,S} {19,S} {20,S} {21,S}
5  C u1 p0 c0 {3,S} {4,S} {8,S}
6  C u0 p1 c0 {1,S} {9,S}
7  C u0 p1 c0 {1,S} {10,S}
8  C u0 p1 c0 {5,S} {11,S}
9  C u0 p1 c0 {6,S} {22,S}
10 C u0 p1 c0 {7,S} {23,S}
11 C u0 p1 c0 {8,S} {24,S}
12 H u0 p0 c0 {1,S}
13 H u0 p0 c0 {2,S}
14 H u0 p0 c0 {2,S}
15 H u0 p0 c0 {2,S}
16 H u0 p0 c0 {3,S}
17 H u0 p0 c0 {3,S}
18 H u0 p0 c0 {3,S}
19 H u0 p0 c0 {4,S}
20 H u0 p0 c0 {4,S}
21 H u0 p0 c0 {4,S}
22 H u0 p0 c0 {9,S}
23 H u0 p0 c0 {10,S}
24 H u0 p0 c0 {11,S}


>  <multiplicity>  (3) 
2

>  <reaction>  (3) 
rxn_1314

>  <type>  (3) 
ts

>  <role_mapnums>  (3) 
{"*2": 18, "*1": 14, "*3": 3, "*0": 2, "*4": 13}

>  <role_mapidx>  (3) 
{"*2": 17, "*1": 13, "*3": 2, "*0": 1, "*4": 12}

>  <ordered_mapped_smiles>  (3) 
[CH2:1]([CH2:2][C:3]([C:4]([H:8])([H:9])[H:10])([CH2:5][CH2:6][H:11])[H:18])[H:7].[CH2:12]([CH2:13][C:14]([C:15]([H:19])([H:20])[H:21])[C:16]([H:22])([H:23])[H:24])[H:17]

>  <mol_properties>  (3) 
{"1": {"label": "*0", "atom_type": "C2s"}, "2": {"label": "*3", "atom_type": "Cs"}, "12": {"label": "*4", "atom_type": "C2s"}, "13": {"label": "*1", "atom_type": "Cs"}, "17": {"label": "*2", "atom_type": "H0"}}

>  <level_of_theory>  (3) 
wb97xd/def2tzvp

>  <lot_method>  (3) 
wb97xd

>  <lot_basis>  (3) 
def2tzvp

>  <spin_multiplicity>  (3) 
2.0

>  <optical_isomers>  (3) 
2.0

>  <modes>  (3) 
IdealGasTranslation(mass=(145.102, 'amu')),         NonlinearRotor(             inertia = ([413.706, 604.224, 728.191

>  <frequency_value>  (3) 
-1706.9

>  <frequency_units>  (3) 
cm^-1

>  <frequency_list>  (3) 
unknown

>  <arkane_path>  (3) 
/home/calvin/Dropbox/PersonalFolders/Calvin/HAb_Converged/rxn_1314/output/rxns/TS0/arkane/output.py

>  <path_exists>  (3) 
True

>  <E0_value>  (3) 
-1119870.0

>  <E0_units>  (3) 
kJ/mol

>  <thermo_class>  (3) 
unknown

>  <Cp0_value>  (3) 
unknown

>  <Cp0_units>  (3) 
unknown

>  <CpInf_value>  (3) 
unknown

>  <CpInf_units>  (3) 
unknown

>  <Tmin_value>  (3) 
unknown

>  <Tmin_units>  (3) 
unknown

>  <Tmax_value>  (3) 
unknown

>  <Tmax_units>  (3) 
unknown

>  <polynomials>  (3) 
unknown

>  <H298_value>  (3) 
unknown

>  <H298_units>  (3) 
unknown

>  <S298_value>  (3) 
unknown

>  <S298_units>  (3) 
unknown

>  <Cp_T_value_list>  (3) 
unknown

>  <Cp_T_units>  (3) 
unknown

>  <T_list>  (3) 
unknown

>  <T_units>  (3) 
unknown

>  <yaml_path>  (3) 
unknown

>  <frequencies_cm1>  (3) 
unknown

>  <ZPE_kJmol>  (3) 
unknown

>  <E_elec_kJmol>  (3) 
unknown

>  <E0_minus_Eelec_plus_ZPE_kJmol>  (3) 
unknown

>  <rxn>  (3) 
unknown

>  <species_type>  (3) 
unknown

>  <species_folder>  (3) 
unknown

>  <frequencies_cm1_list>  (3) 
[]

>  <ts_imag_freq_cm1>  (3) 
-1727.6291

>  <ts_freq_out_path>  (3) 
/home/calvin/Dropbox/PersonalFolders/Calvin/HAb_Converged/rxn_1314/output/rxns/TS0/geometry/freq.out

>  <E0_kJmol>  (3) 
-1.11987e+06

>  <H298_kJmol>  (3) 
unknown

$$$$

     RDKit          3D

 12 11  0  0  0  0  0  0  0  0999 V2000
    2.5164   -0.5559   -0.0242 C   0  0  0  0  0  0  0  0  0  1  0  0
    1.3287   -0.2938   -0.0132 C   0  0  0  0  0  0  0  0  0  2  0  0
   -0.0146    0.0027   -0.0006 C   0  0  0  0  0  3  0  0  0  3  0  0
   -1.0396   -1.0729   -0.1642 C   0  0  0  0  0  0  0  0  0  4  0  0
   -0.4887    1.4091    0.1769 C   0  0  0  0  0  0  0  0  0  5  0  0
    3.5543   -0.7850   -0.0339 H   0  0  0  0  0  0  0  0  0  6  0  0
   -1.7064   -1.1056    0.7044 H   0  0  0  0  0  0  0  0  0  7  0  0
   -0.5831   -2.0533   -0.2854 H   0  0  0  0  0  0  0  0  0  8  0  0
   -1.6716   -0.8741   -1.0367 H   0  0  0  0  0  0  0  0  0  9  0  0
   -1.0951    1.7228   -0.6798 H   0  0  0  0  0  0  0  0  0 10  0  0
    0.3401    2.1059    0.2861 H   0  0  0  0  0  0  0  0  0 11  0  0
   -1.1300    1.4913    1.0613 H   0  0  0  0  0  0  0  0  0 12  0  0
  1  6  1  0
  1  2  1  0
  2  3  1  0
  3  4  1  0
  3  5  1  0
  4  8  1  0
  4  9  1  0
  4  7  1  0
  5 11  1  0
  5 12  1  0
  5 10  1  0
M  RAD  1   3   2
M  END
>  <rmg_smiles>  (4) 
[CH]C[C](C)C

>  <rmg_adjacency_list>  (4) 
multiplicity 2
1  C u0 p0 c0 {3,S} {6,S} {7,S} {8,S}
2  C u0 p0 c0 {3,S} {9,S} {10,S} {11,S}
3  C u1 p0 c0 {1,S} {2,S} {4,S}
4  C u0 p1 c0 {3,S} {5,S}
5  C u0 p1 c0 {4,S} {12,S}
6  H u0 p0 c0 {1,S}
7  H u0 p0 c0 {1,S}
8  H u0 p0 c0 {1,S}
9  H u0 p0 c0 {2,S}
10 H u0 p0 c0 {2,S}
11 H u0 p0 c0 {2,S}
12 H u0 p0 c0 {5,S}


>  <multiplicity>  (4) 
2

>  <reaction>  (4) 
rxn_1314

>  <type>  (4) 
r1

>  <role_mapnums>  (4) 
{}

>  <role_mapidx>  (4) 
{}

>  <ordered_mapped_smiles>  (4) 
[CH2:1]([CH2:2][C:3]([C:4]([H:7])([H:8])[H:9])[C:5]([H:10])([H:11])[H:12])[H:6]

>  <level_of_theory>  (4) 
wb97xd/def2tzvp

>  <lot_method>  (4) 
wb97xd

>  <lot_basis>  (4) 
def2tzvp

>  <spin_multiplicity>  (4) 
2.0

>  <optical_isomers>  (4) 
1.0

>  <modes>  (4) 
IdealGasTranslation(mass=(67.0548, 'amu')),         NonlinearRotor(             inertia = ([59.1627, 131.378, 184.32

>  <frequency_value>  (4) 
unknown

>  <frequency_units>  (4) 
unknown

>  <frequency_list>  (4) 
unknown

>  <arkane_path>  (4) 
/home/calvin/Dropbox/PersonalFolders/Calvin/HAb_Converged/rxn_1314/output/Species/rxn_1314_CtC[C][C]C/arkane/output.py

>  <path_exists>  (4) 
True

>  <E0_value>  (4) 
-510778.0605189803

>  <E0_units>  (4) 
kJ/mol

>  <thermo_class>  (4) 
NASA

>  <Cp0_value>  (4) 
33.257888

>  <Cp0_units>  (4) 
J/(mol*K)

>  <CpInf_value>  (4) 
282.692048

>  <CpInf_units>  (4) 
J/(mol*K)

>  <Tmin_value>  (4) 
10.0

>  <Tmin_units>  (4) 
K

>  <Tmax_value>  (4) 
3000.0

>  <Tmax_units>  (4) 
K

>  <polynomials>  (4) 
[{"name": "polynomial1", "class": "NASAPolynomial", "Tmin_value": 10.0, "Tmin_units": "K", "Tmax_value": 1039.297839376542, "Tmax_units": "K", "coeffs": [3.598818116233137, 0.033392740321885155, -9.378432171899418e-06, -5.856696266128411e-09, 3.271376899501553e-12, -61432406.21278496, 9.976237246510115]}, {"name": "polynomial2", "class": "NASAPolynomial", "Tmin_value": 1039.297839376542, "Tmin_units": "K", "Tmax_value": 3000.0, "Tmax_units": "K", "coeffs": [5.079452673281011, 0.033284570157804484, -1.7290873427004894e-05, 4.394457265686428e-09, -4.3949451822427094e-13, -61433015.89895733, 1.3234305447781438]}]

>  <H298_value>  (4) 
-122073.98367000771

>  <H298_units>  (4) 
kcal/mol

>  <S298_value>  (4) 
79.4255488393029

>  <S298_units>  (4) 
cal/(mol*K)

>  <Cp_T_value_list>  (4) 
[25.1201753773187, 30.13456332004963, 34.623007965675164, 38.58588826040132, 45.014482399280844, 49.735420575541255, 57.04911167988228, 60.826095998833885, 62.665750252433256]

>  <Cp_T_units>  (4) 
cal/(mol*K)

>  <T_list>  (4) 
[300.0, 400.0, 500.0, 600.0, 800.0, 1000.0, 1500.0, 2000.0, 2400.0]

>  <T_units>  (4) 
K

>  <yaml_path>  (4) 
/home/calvin/Dropbox/PersonalFolders/Calvin/HAb_Converged/rxn_1314/output/Species/rxn_1314_CtC[C][C]C/rxn_1314_CtCCCC.yml

>  <frequencies_cm1>  (4) 
[99.21420390335999, 101.22623060211998, 185.93736150964, 255.63726250763995, 344.22137313563996, 457.05280892856, 461.24166997375994, 585.753847796, 665.5688181703599, 727.2892822265198, 951.3864811594, 965.6148747424401, 1006.9197914422399, 1043.12253804928, 1243.10975152364, 1333.7402237769998, 1389.39027281028, 1401.68217653308, 1454.72277114476, 1460.9648608006398, 1470.11168524688, 1490.7813110600798, 2012.45245184984, 2983.54718087764, 2987.02874243488, 3032.15856995792, 3032.5293871651998, 3111.8568015818396, 3113.09285893944, 3430.21024101704]

>  <ZPE_kJmol>  (4) 
255.9863644311404

>  <E_elec_kJmol>  (4) 
-511034.0468834115

>  <E0_minus_Eelec_plus_ZPE_kJmol>  (4) 
0.0

>  <rxn>  (4) 
rxn_1314

>  <species_type>  (4) 
p1

>  <species_folder>  (4) 
rxn_1314_CtC[C][C]C

>  <frequencies_cm1_list>  (4) 
[99.21420390335999, 101.22623060211998, 185.93736150964, 255.63726250763995, 344.22137313563996, 457.05280892856, 461.24166997375994, 585.753847796, 665.5688181703599, 727.2892822265198, 951.3864811594, 965.6148747424401, 1006.9197914422399, 1043.12253804928, 1243.10975152364, 1333.7402237769998, 1389.39027281028, 1401.68217653308, 1454.72277114476, 1460.9648608006398, 1470.11168524688, 1490.7813110600798, 2012.45245184984, 2983.54718087764, 2987.02874243488, 3032.15856995792, 3032.5293871651998, 3111.8568015818396, 3113.09285893944, 3430.21024101704]

>  <E0_kJmol>  (4) 
-510778

>  <H298_kJmol>  (4) 
-510758

$$$$

     RDKit          3D

 11 10  0  0  0  0  0  0  0  0999 V2000
   -0.9580    1.1013   -2.2955 C   0  0  0  0  0  0  0  0  0  1  0  0
   -0.5129    0.5941   -1.2929 C   0  0  0  0  0  0  0  0  0  2  0  0
   -0.0301   -0.0160   -0.1357 C   0  0  0  0  0  3  0  0  0  3  0  0
   -0.6593   -1.2845    0.3661 C   0  0  0  0  0  0  0  0  0  4  0  0
    1.0691    0.5292    0.5269 C   0  0  0  0  0  0  0  0  0  5  0  0
    2.0168    0.9794    1.1266 C   0  0  0  0  0  0  0  0  0  6  0  0
   -1.3415    1.5561   -3.1769 H   0  0  0  0  0  0  0  0  0  7  0  0
   -1.7166   -1.3186    0.1054 H   0  0  0  0  0  0  0  0  0  8  0  0
   -0.1742   -2.1550   -0.0865 H   0  0  0  0  0  0  0  0  0  9  0  0
   -0.5505   -1.3663    1.4470 H   0  0  0  0  0  0  0  0  0 10  0  0
    2.8514    1.3842    1.6465 H   0  0  0  0  0  0  0  0  0 11  0  0
  1  7  1  0
  1  2  1  0
  2  3  1  0
  3  4  1  0
  3  5  1  0
  4  8  1  0
  4  9  1  0
  4 10  1  0
  5  6  1  0
  6 11  1  0
M  RAD  1   3   2
M  END
>  <rmg_smiles>  (5) 
[CH]C[C](C)C[CH]

>  <rmg_adjacency_list>  (5) 
multiplicity 2
1  C u0 p0 c0 {2,S} {7,S} {8,S} {9,S}
2  C u1 p0 c0 {1,S} {3,S} {4,S}
3  C u0 p1 c0 {2,S} {5,S}
4  C u0 p1 c0 {2,S} {6,S}
5  C u0 p1 c0 {3,S} {10,S}
6  C u0 p1 c0 {4,S} {11,S}
7  H u0 p0 c0 {1,S}
8  H u0 p0 c0 {1,S}
9  H u0 p0 c0 {1,S}
10 H u0 p0 c0 {5,S}
11 H u0 p0 c0 {6,S}


>  <multiplicity>  (5) 
2

>  <reaction>  (5) 
rxn_1314

>  <type>  (5) 
r2

>  <role_mapnums>  (5) 
{}

>  <role_mapidx>  (5) 
{}

>  <ordered_mapped_smiles>  (5) 
[CH2:1]([CH2:2][C:3]([C:4]([H:8])([H:9])[H:10])[CH2:5][CH2:6][H:11])[H:7]

>  <level_of_theory>  (5) 
wb97xd/def2tzvp

>  <lot_method>  (5) 
wb97xd

>  <lot_basis>  (5) 
def2tzvp

>  <spin_multiplicity>  (5) 
2.0

>  <optical_isomers>  (5) 
1.0

>  <modes>  (5) 
IdealGasTranslation(mass=(77.0391, 'amu')),         NonlinearRotor(             inertia = ([87.0558, 182.116, 266.037

>  <frequency_value>  (5) 
unknown

>  <frequency_units>  (5) 
unknown

>  <frequency_list>  (5) 
unknown

>  <arkane_path>  (5) 
/home/calvin/Dropbox/PersonalFolders/Calvin/HAb_Converged/rxn_1314/output/Species/rxn_1314_CtC[C][C]CtC/arkane/output.py

>  <path_exists>  (5) 
True

>  <E0_value>  (5) 
-607514.9395077111

>  <E0_units>  (5) 
kJ/mol

>  <thermo_class>  (5) 
NASA

>  <Cp0_value>  (5) 
33.257888

>  <Cp0_units>  (5) 
J/(mol*K)

>  <CpInf_value>  (5) 
257.748632

>  <CpInf_units>  (5) 
J/(mol*K)

>  <Tmin_value>  (5) 
10.0

>  <Tmin_units>  (5) 
K

>  <Tmax_value>  (5) 
3000.0

>  <Tmax_units>  (5) 
K

>  <polynomials>  (5) 
[{"name": "polynomial1", "class": "NASAPolynomial", "Tmin_value": 10.0, "Tmin_units": "K", "Tmax_value": 349.46173600351864, "Tmax_units": "K", "coeffs": [3.766270434672447, 0.01962559465306403, 0.00015807938455067891, -5.467775010691105e-07, 5.441205279863145e-10, -73067173.52596356, 12.15378396539221]}, {"name": "polynomial2", "class": "NASAPolynomial", "Tmin_value": 349.46173600351864, "Tmin_units": "K", "Tmax_value": 3000.0, "Tmax_units": "K", "coeffs": [4.503025724813377, 0.03655999643186892, -2.3493426390627616e-05, 7.3276612126098215e-09, -8.780851036309253e-13, -73067379.9175016, 7.157724853906072]}]

>  <H298_value>  (5) 
-145194.46313324326

>  <H298_units>  (5) 
kcal/mol

>  <S298_value>  (5) 
84.90850212036293

>  <S298_units>  (5) 
cal/(mol*K)

>  <Cp_T_value_list>  (5) 
[26.877916196478143, 31.4268111749371, 35.31413934636125, 38.6518919246016, 43.93182763476164, 47.731054497646795, 53.19426248781607, 56.08143371701518, 57.80726761952239]

>  <Cp_T_units>  (5) 
cal/(mol*K)

>  <T_list>  (5) 
[300.0, 400.0, 500.0, 600.0, 800.0, 1000.0, 1500.0, 2000.0, 2400.0]

>  <T_units>  (5) 
K

>  <yaml_path>  (5) 
/home/calvin/Dropbox/PersonalFolders/Calvin/HAb_Converged/rxn_1314/output/Species/rxn_1314_CtC[C][C]CtC/rxn_1314_CtCCCCtC.yml

>  <frequencies_cm1>  (5) 
[29.02674694764, 135.43068448103998, 196.03869691536002, 226.34270313252, 381.02154746552, 485.94221616979996, 534.67721098584, 574.6774004748399, 575.94779275904, 598.55390843248, 680.22296484324, 681.74056859896, 705.74754927768, 980.1110807529599, 1012.7155270523198, 1219.2332435659998, 1286.1314145534398, 1393.02290804456, 1464.30221566616, 1471.2447378246798, 2036.0405464240396, 2119.5911568124798, 3006.0502917712797, 3079.4034289595193, 3119.3280816099996, 3427.5321167422394, 3431.14415102056]

>  <ZPE_kJmol>  (5) 
208.4566530536649

>  <E_elec_kJmol>  (5) 
-607723.3961607647

>  <E0_minus_Eelec_plus_ZPE_kJmol>  (5) 
0.0

>  <rxn>  (5) 
rxn_1314

>  <species_type>  (5) 
r0

>  <species_folder>  (5) 
rxn_1314_CtC[C][C]CtC

>  <frequencies_cm1_list>  (5) 
[29.02674694764, 135.43068448103998, 196.03869691536002, 226.34270313252, 381.02154746552, 485.94221616979996, 534.67721098584, 574.6774004748399, 575.94779275904, 598.55390843248, 680.22296484324, 681.74056859896, 705.74754927768, 980.1110807529599, 1012.7155270523198, 1219.2332435659998, 1286.1314145534398, 1393.02290804456, 1464.30221566616, 1471.2447378246798, 2036.0405464240396, 2119.5911568124798, 3006.0502917712797, 3079.4034289595193, 3119.3280816099996, 3427.5321167422394, 3431.14415102056]

>  <E0_kJmol>  (5) 
-607515

>  <H298_kJmol>  (5) 
-607494

$$$$
