
     RDKit          3D

  5  4  0  0  0  0  0  0  0  0999 V2000
   -1.3091   -0.0042   -0.9768 O   0  0  0  0  0  0  0  0  0  1  0  0
   -0.6522   -0.4628   -0.1077 C   0  0  0  0  0  0  0  0  0  2  0  0
    0.6078    0.0905    0.3854 C   0  0  0  0  0  2  0  0  0  3  0  0
    1.6039    0.4323    0.8422 N   0  0  0  0  0  0  0  0  0  4  0  0
   -0.9375   -1.3745    0.4172 H   0  0  0  0  0  0  0  0  0  5  0  0
  1  2  1  0
  2  5  1  0
  2  3  1  0
  3  4  1  0
M  RAD  1   3   3
M  END
>  <rmg_smiles>  (1) 
[N][C][CH][O]

>  <rmg_adjacency_list>  (1) 
1 O u0 p2 c0 {3,S}
2 N u0 p2 c0 {4,S}
3 C u0 p0 c0 {1,S} {4,S} {5,S}
4 C u0 p1 c0 {2,S} {3,S}
5 H u0 p0 c0 {3,S}


>  <multiplicity>  (1) 
1

>  <reaction>  (1) 
rxn_3156

>  <type>  (1) 
r1h

>  <role_mapnums>  (1) 
{"r1h_a": 2, "r1h_h": 5}

>  <role_mapidx>  (1) 
{"r1h_a": 1, "r1h_h": 4}

>  <ordered_mapped_smiles>  (1) 
[OH:1][CH:2]([C:3][NH2:4])[H:5]

>  <mol_properties>  (1) 
{"1": {"label": "donator", "atom_type": "Cs"}, "4": {"label": "d_hydrogen", "atom_type": "H0"}}

>  <level_of_theory>  (1) 
wb97xd/def2tzvp

>  <lot_method>  (1) 
wb97xd

>  <lot_basis>  (1) 
def2tzvp

>  <spin_multiplicity>  (1) 
1.0

>  <optical_isomers>  (1) 
1.0

>  <modes>  (1) 
IdealGasTranslation(mass=(55.0058, 'amu')),         NonlinearRotor(             inertia = ([7.40751, 100.152, 107.559

>  <frequency_value>  (1) 
unknown

>  <frequency_units>  (1) 
unknown

>  <frequency_list>  (1) 
unknown

>  <arkane_path>  (1) 
/home/calvin/Dropbox/PersonalFolders/Calvin/ATLAS_Converged/NonRMG/rxn_3156/output/Species/rxn_3156_r2_O=CCtN/arkane/output.py

>  <path_exists>  (1) 
True

>  <E0_value>  (1) 
-542736.4112496792

>  <E0_units>  (1) 
kJ/mol

>  <thermo_class>  (1) 
NASA

>  <Cp0_value>  (1) 
33.257888

>  <Cp0_units>  (1) 
J/(mol*K)

>  <CpInf_value>  (1) 
108.088136

>  <CpInf_units>  (1) 
J/(mol*K)

>  <Tmin_value>  (1) 
10.0

>  <Tmin_units>  (1) 
K

>  <Tmax_value>  (1) 
3000.0

>  <Tmax_units>  (1) 
K

>  <polynomials>  (1) 
[{"name": "polynomial1", "class": "NASAPolynomial", "Tmin_value": 10.0, "Tmin_units": "K", "Tmax_value": 300.4845881486571, "Tmax_units": "K", "coeffs": [3.9682536157984267, 0.002706182418074105, 6.495158829672233e-05, -2.0822636662014986e-07, 2.157335945891858e-10, -65276113.60138693, 7.647642332579926]}, {"name": "polynomial2", "class": "NASAPolynomial", "Tmin_value": 300.4845881486571, "Tmin_units": "K", "Tmax_value": 3000.0, "Tmax_units": "K", "coeffs": [3.539367441858594, 0.012848292155754183, -7.80568377523993e-06, 2.2908657326841413e-09, -2.611620576406405e-13, -65276107.838968076, 8.868094388086638]}]

>  <H298_value>  (1) 
-129714.0043029461

>  <H298_units>  (1) 
kcal/mol

>  <S298_value>  (1) 
64.65197098535211

>  <S298_units>  (1) 
cal/(mol*K)

>  <Cp_T_value_list>  (1) 
[13.415793055923494, 15.04256610864584, 16.4582989290703, 17.68470105219756, 19.650123506985043, 21.087598483327508, 23.1679584979309, 24.16751041018645, 24.678576370026395]

>  <Cp_T_units>  (1) 
cal/(mol*K)

>  <T_list>  (1) 
[300.0, 400.0, 500.0, 600.0, 800.0, 1000.0, 1500.0, 2000.0, 2400.0]

>  <T_units>  (1) 
K

>  <yaml_path>  (1) 
/home/calvin/Dropbox/PersonalFolders/Calvin/ATLAS_Converged/NonRMG/rxn_3156/output/Species/rxn_3156_r2_O=CCtN/rxn_3156_r2_O=CCtN.yml

>  <frequencies_cm1>  (1) 
[231.25946462163998, 305.80059027024, 622.93170631848, 916.96915073556, 1003.2596882666799, 1398.48216137396, 1811.94334749116, 2348.2549009831596, 2978.1085285042]

>  <ZPE_kJmol>  (1) 
69.48516766330546

>  <E_elec_kJmol>  (1) 
-542805.8964173425

>  <E0_minus_Eelec_plus_ZPE_kJmol>  (1) 
0.0

>  <rxn>  (1) 
rxn_3156

>  <species_type>  (1) 
r1

>  <species_folder>  (1) 
rxn_3156_r2_O=CCtN

>  <frequencies_cm1_list>  (1) 
[231.25946462163998, 305.80059027024, 622.93170631848, 916.96915073556, 1003.2596882666799, 1398.48216137396, 1811.94334749116, 2348.2549009831596, 2978.1085285042]

>  <E0_kJmol>  (1) 
-542736

>  <H298_kJmol>  (1) 
-542723

$$$$

     RDKit          3D

  7  7  0  0  0  0  0  0  0  0999 V2000
   -1.3119    1.3193    0.7659 N   0  0  0  0  0  0  0  0  0  1  0  0
   -0.4928    0.5063    0.2836 C   0  0  0  0  0  0  0  0  0  2  0  0
   -0.4196   -0.8132    0.6025 O   0  0  0  0  0  0  0  0  0  3  0  0
    0.6117   -1.3471   -0.1426 N   0  0  0  0  0  0  0  0  0  4  0  0
    1.1233   -0.4885   -0.8394 N   0  0  0  0  0  0  0  0  0  5  0  0
    0.4864    0.7244   -0.6382 O   0  0  0  0  0  0  0  0  0  6  0  0
   -1.1311    2.2478    0.3337 H   0  0  0  0  0  0  0  0  0  7  0  0
  1  2  1  0
  1  7  1  0
  2  3  1  0
  2  6  1  0
  3  4  1  0
  4  5  1  0
  5  6  1  0
M  END
>  <rmg_smiles>  (2) 
[NH][C]1O[N][N]O1

>  <rmg_adjacency_list>  (2) 
1 O u0 p2 c0 {3,S} {6,S}
2 O u0 p2 c0 {4,S} {6,S}
3 N u0 p1 c0 {1,S} {4,S}
4 N u0 p1 c0 {2,S} {3,S}
5 N u0 p1 c0 {6,S} {7,S}
6 C u0 p0 c0 {1,S} {2,S} {5,S}
7 H u0 p0 c0 {5,S}


>  <multiplicity>  (2) 
1

>  <reaction>  (2) 
rxn_3156

>  <type>  (2) 
r2h

>  <role_mapnums>  (2) 
{"r2h_a": 1, "r2h_h": 7}

>  <role_mapidx>  (2) 
{"r2h_a": 0, "r2h_h": 6}

>  <ordered_mapped_smiles>  (2) 
[NH:1]([CH:2]1[O:3][NH:4][NH:5][O:6]1)[H:7]

>  <mol_properties>  (2) 
{"0": {"label": "acceptor", "atom_type": "N3s"}, "6": {"label": "a_hydrogen", "atom_type": "H0"}}

>  <level_of_theory>  (2) 
wb97xd/def2tzvp

>  <lot_method>  (2) 
wb97xd

>  <lot_basis>  (2) 
def2tzvp

>  <spin_multiplicity>  (2) 
1.0

>  <optical_isomers>  (2) 
1.0

>  <modes>  (2) 
IdealGasTranslation(mass=(87.0069, 'amu')),         NonlinearRotor(             inertia = ([48.8575, 120.721, 169.578

>  <frequency_value>  (2) 
unknown

>  <frequency_units>  (2) 
unknown

>  <frequency_list>  (2) 
unknown

>  <arkane_path>  (2) 
/home/calvin/Dropbox/PersonalFolders/Calvin/ATLAS_Converged/NonRMG/rxn_3156/output/Species/rxn_3156_p1_N=c1onno1/arkane/output.py

>  <path_exists>  (2) 
True

>  <E0_value>  (2) 
-927513.3956974436

>  <E0_units>  (2) 
kJ/mol

>  <thermo_class>  (2) 
NASA

>  <Cp0_value>  (2) 
33.257888

>  <Cp0_units>  (2) 
J/(mol*K)

>  <CpInf_value>  (2) 
157.97496800000002

>  <CpInf_units>  (2) 
J/(mol*K)

>  <Tmin_value>  (2) 
10.0

>  <Tmin_units>  (2) 
K

>  <Tmax_value>  (2) 
3000.0

>  <Tmax_units>  (2) 
K

>  <polynomials>  (2) 
[{"name": "polynomial1", "class": "NASAPolynomial", "Tmin_value": 10.0, "Tmin_units": "K", "Tmax_value": 594.5510705426203, "Tmax_units": "K", "coeffs": [4.064128165333628, -0.006464132682369532, 0.00012609118943386684, -2.2452471871589397e-07, 1.2482881080850414e-10, -111554092.36102824, 9.73736041625877]}, {"name": "polynomial2", "class": "NASAPolynomial", "Tmin_value": 594.5510705426203, "Tmin_units": "K", "Tmax_value": 3000.0, "Tmax_units": "K", "coeffs": [2.6619435988700717, 0.02700063330274151, -1.8966063744434276e-05, 6.109629991067157e-09, -7.351884988814937e-13, -111554350.36753283, 12.201082878024012]}]

>  <H298_value>  (2) 
-221677.73393283132

>  <H298_units>  (2) 
kcal/mol

>  <S298_value>  (2) 
69.21240690289005

>  <S298_units>  (2) 
cal/(mol*K)

>  <Cp_T_value_list>  (2) 
[16.736335365541446, 20.824137553247738, 24.027452944596273, 26.348252322457366, 29.711055843773885, 31.936305555783512, 34.552273976473494, 35.596788664173474, 36.33939231381346]

>  <Cp_T_units>  (2) 
cal/(mol*K)

>  <T_list>  (2) 
[300.0, 400.0, 500.0, 600.0, 800.0, 1000.0, 1500.0, 2000.0, 2400.0]

>  <T_units>  (2) 
K

>  <yaml_path>  (2) 
/home/calvin/Dropbox/PersonalFolders/Calvin/ATLAS_Converged/NonRMG/rxn_3156/output/Species/rxn_3156_p1_N=c1onno1/rxn_3156_p1_N=c1onno1.yml

>  <frequencies_cm1>  (2) 
[208.89369343439998, 445.44073675243993, 644.52150816456, 714.2214091625599, 757.75122910604, 783.81143839544, 819.0802749989599, 941.40875148944, 996.4545058145599, 1049.54316932348, 1062.20589025356, 1273.50302854996, 1598.9500638207198, 1829.7357064552798, 3558.0254387782]

>  <ZPE_kJmol>  (2) 
99.78979924741076

>  <E_elec_kJmol>  (2) 
-927613.1854966908

>  <E0_minus_Eelec_plus_ZPE_kJmol>  (2) 
0.0

>  <rxn>  (2) 
rxn_3156

>  <species_type>  (2) 
p0

>  <species_folder>  (2) 
rxn_3156_p1_N=c1onno1

>  <frequencies_cm1_list>  (2) 
[208.89369343439998, 445.44073675243993, 644.52150816456, 714.2214091625599, 757.75122910604, 783.81143839544, 819.0802749989599, 941.40875148944, 996.4545058145599, 1049.54316932348, 1062.20589025356, 1273.50302854996, 1598.9500638207198, 1829.7357064552798, 3558.0254387782]

>  <E0_kJmol>  (2) 
-927513

>  <H298_kJmol>  (2) 
-927500

$$$$

     RDKit          3D

 11 10  0  0  0  0  0  0  0  0999 V2000
   -1.2033   -0.2324    0.9091 N   0  0  0  0  0  2  0  0  0  1  0  0
   -0.3842   -1.0454    0.4269 C   0  0  0  0  0  0  0  0  0  2  0  0
   -0.3110   -2.3649    0.7458 O   0  0  0  0  0  0  0  0  0  3  0  0
    0.7203   -2.8989    0.0006 N   0  0  0  0  0  0  0  0  0  4  0  0
    1.2319   -2.0402   -0.6962 N   0  0  0  0  0  0  0  0  0  5  0  0
    0.5951   -0.8273   -0.4949 O   0  0  0  0  0  0  0  0  0  6  0  0
   -1.2931    2.5041   -1.1354 O   0  0  0  0  0  0  0  0  0  7  0  0
   -0.6362    2.0455   -0.2664 C   0  0  0  0  0  0  0  0  0  8  0  0
    0.6238    2.5988    0.2268 C   0  0  0  0  0  0  0  0  0  9  0  0
    1.6199    2.9406    0.6836 N   0  0  0  0  0  0  0  0  0 10  0  0
   -0.9632    1.0007    0.3351 H   0  0  0  0  0  0  0  0  0 11  0  0
  1  2  1  0
  2  3  1  0
  2  6  1  0
  3  4  1  0
  4  5  1  0
  5  6  1  0
  7  8  1  0
  8  9  1  0
  8 11  1  0
  9 10  1  0
M  RAD  1   1   2
M  END
>  <rmg_smiles>  (3) 
[N][C]1O[N][N]O1.[N][C][CH][O]

>  <rmg_adjacency_list>  (3) 
multiplicity 2
1  O u0 p2 c0 {4,S} {8,S}
2  O u0 p2 c0 {5,S} {8,S}
3  O u0 p2 c0 {9,S}
4  N u0 p1 c0 {1,S} {5,S}
5  N u0 p1 c0 {2,S} {4,S}
6  N u1 p2 c0 {8,S}
7  N u0 p2 c0 {10,S}
8  C u0 p0 c0 {1,S} {2,S} {6,S}
9  C u0 p0 c0 {3,S} {10,S} {11,S}
10 C u0 p1 c0 {7,S} {9,S}
11 H u0 p0 c0 {9,S}


>  <multiplicity>  (3) 
2

>  <reaction>  (3) 
rxn_3156

>  <type>  (3) 
ts

>  <role_mapnums>  (3) 
{"*2": 11, "*1": 8, "*3": 1, "*0": 9, "*4": 2}

>  <role_mapidx>  (3) 
{"*2": 10, "*1": 7, "*3": 0, "*0": 8, "*4": 1}

>  <ordered_mapped_smiles>  (3) 
[NH:1][CH:2]1[O:3][NH:4][NH:5][O:6]1.[OH:7][CH:8]([CH2:9][NH2:10])[H:11]

>  <mol_properties>  (3) 
{"0": {"label": "*3", "atom_type": "N1s"}, "1": {"label": "*4", "atom_type": "Cs"}, "7": {"label": "*1", "atom_type": "Cs"}, "8": {"label": "*0", "atom_type": "C2s"}, "10": {"label": "*2", "atom_type": "H0"}}

>  <level_of_theory>  (3) 
wb97xd/def2tzvp

>  <lot_method>  (3) 
wb97xd

>  <lot_basis>  (3) 
def2tzvp

>  <spin_multiplicity>  (3) 
2.0

>  <optical_isomers>  (3) 
2.0

>  <modes>  (3) 
IdealGasTranslation(mass=(141.005, 'amu')),         NonlinearRotor(             inertia = ([189.345, 708.062, 776.026

>  <frequency_value>  (3) 
-1515.43

>  <frequency_units>  (3) 
cm^-1

>  <frequency_list>  (3) 
unknown

>  <arkane_path>  (3) 
/home/calvin/Dropbox/PersonalFolders/Calvin/ATLAS_Converged/NonRMG/rxn_3156/output/rxns/TS0/arkane/output.py

>  <path_exists>  (3) 
True

>  <E0_value>  (3) 
-1468490.0

>  <E0_units>  (3) 
kJ/mol

>  <thermo_class>  (3) 
unknown

>  <Cp0_value>  (3) 
unknown

>  <Cp0_units>  (3) 
unknown

>  <CpInf_value>  (3) 
unknown

>  <CpInf_units>  (3) 
unknown

>  <Tmin_value>  (3) 
unknown

>  <Tmin_units>  (3) 
unknown

>  <Tmax_value>  (3) 
unknown

>  <Tmax_units>  (3) 
unknown

>  <polynomials>  (3) 
unknown

>  <H298_value>  (3) 
unknown

>  <H298_units>  (3) 
unknown

>  <S298_value>  (3) 
unknown

>  <S298_units>  (3) 
unknown

>  <Cp_T_value_list>  (3) 
unknown

>  <Cp_T_units>  (3) 
unknown

>  <T_list>  (3) 
unknown

>  <T_units>  (3) 
unknown

>  <yaml_path>  (3) 
unknown

>  <frequencies_cm1>  (3) 
unknown

>  <ZPE_kJmol>  (3) 
unknown

>  <E_elec_kJmol>  (3) 
unknown

>  <E0_minus_Eelec_plus_ZPE_kJmol>  (3) 
unknown

>  <rxn>  (3) 
unknown

>  <species_type>  (3) 
unknown

>  <species_folder>  (3) 
unknown

>  <frequencies_cm1_list>  (3) 
[]

>  <ts_imag_freq_cm1>  (3) 
-1533.8409

>  <ts_freq_out_path>  (3) 
/home/calvin/Dropbox/PersonalFolders/Calvin/ATLAS_Converged/NonRMG/rxn_3156/output/rxns/TS0/geometry/freq.out

>  <E0_kJmol>  (3) 
-1.46849e+06

>  <H298_kJmol>  (3) 
unknown

$$$$

     RDKit          3D

  4  3  0  0  0  0  0  0  0  0999 V2000
   -1.7444    0.0104    0.1474 O   0  0  0  0  0  0  0  0  0  1  0  0
   -0.6926   -0.3744   -0.1837 C   0  0  0  0  0  0  0  0  0  2  0  0
    0.6470    0.0660    0.0090 C   0  0  0  0  0  0  0  0  0  3  0  0
    1.7901    0.2205    0.0273 N   0  0  0  0  0  2  0  0  0  4  0  0
  1  2  1  0
  2  3  1  0
  3  4  1  0
M  RAD  1   4   2
M  END
>  <rmg_smiles>  (4) 
[N][C][C][O]

>  <rmg_adjacency_list>  (4) 
multiplicity 2
1 O u0 p2 c0 {3,S}
2 N u1 p2 c0 {4,S}
3 C u0 p1 c0 {1,S} {4,S}
4 C u0 p1 c0 {2,S} {3,S}


>  <multiplicity>  (4) 
2

>  <reaction>  (4) 
rxn_3156

>  <type>  (4) 
r1

>  <role_mapnums>  (4) 
{}

>  <role_mapidx>  (4) 
{}

>  <ordered_mapped_smiles>  (4) 
[OH:1][CH2:2][CH2:3][NH:4]

>  <level_of_theory>  (4) 
wb97xd/def2tzvp

>  <lot_method>  (4) 
wb97xd

>  <lot_basis>  (4) 
def2tzvp

>  <spin_multiplicity>  (4) 
2.0

>  <optical_isomers>  (4) 
1.0

>  <modes>  (4) 
IdealGasTranslation(mass=(53.998, 'amu')),         NonlinearRotor(             inertia = ([2.38077, 104.9, 107.281

>  <frequency_value>  (4) 
unknown

>  <frequency_units>  (4) 
unknown

>  <frequency_list>  (4) 
unknown

>  <arkane_path>  (4) 
/home/calvin/Dropbox/PersonalFolders/Calvin/ATLAS_Converged/NonRMG/rxn_3156/output/Species/rxn_3156_p2_O=sbr-C-sbrCtN/arkane/output.py

>  <path_exists>  (4) 
True

>  <E0_value>  (4) 
-541052.2209360691

>  <E0_units>  (4) 
kJ/mol

>  <thermo_class>  (4) 
NASA

>  <Cp0_value>  (4) 
33.257888

>  <Cp0_units>  (4) 
J/(mol*K)

>  <CpInf_value>  (4) 
83.14472

>  <CpInf_units>  (4) 
J/(mol*K)

>  <Tmin_value>  (4) 
10.0

>  <Tmin_units>  (4) 
K

>  <Tmax_value>  (4) 
3000.0

>  <Tmax_units>  (4) 
K

>  <polynomials>  (4) 
[{"name": "polynomial1", "class": "NASAPolynomial", "Tmin_value": 10.0, "Tmin_units": "K", "Tmax_value": 376.39853667525057, "Tmax_units": "K", "coeffs": [3.928087001801041, 0.005596479428371865, 4.8718782772781554e-05, -1.754428031854957e-07, 1.7199899006426043e-10, -65073552.20568314, 7.7775684454086615]}, {"name": "polynomial2", "class": "NASAPolynomial", "Tmin_value": 376.39853667525057, "Tmin_units": "K", "Tmax_value": 3000.0, "Tmax_units": "K", "coeffs": [4.863745498220172, 0.007320159418590876, -4.644739716791287e-06, 1.4228204052518536e-09, -1.690900339039859e-13, -65073705.288070805, 3.0799391496616173]}]

>  <H298_value>  (4) 
-129311.438699931

>  <H298_units>  (4) 
kcal/mol

>  <S298_value>  (4) 
65.13803871661163

>  <S298_units>  (4) 
cal/(mol*K)

>  <Cp_T_value_list>  (4) 
[13.210864189937718, 14.179478912171316, 14.963515319236139, 15.637626018060564, 16.705380673837382, 17.47329924164918, 18.55915907665789, 19.08161023869102, 19.350413580590278]

>  <Cp_T_units>  (4) 
cal/(mol*K)

>  <T_list>  (4) 
[300.0, 400.0, 500.0, 600.0, 800.0, 1000.0, 1500.0, 2000.0, 2400.0]

>  <T_units>  (4) 
K

>  <yaml_path>  (4) 
/home/calvin/Dropbox/PersonalFolders/Calvin/ATLAS_Converged/NonRMG/rxn_3156/output/Species/rxn_3156_p2_O=sbr-C-sbrCtN/rxn_3156_p2_O=sbr-C-sbrCtN.yml

>  <frequencies_cm1>  (4) 
[221.54268039384, 280.28973980644, 585.925522429, 804.6870737682399, 1981.4823480566397, 2259.3480420451197]

>  <ZPE_kJmol>  (4) 
36.68514418715633

>  <E_elec_kJmol>  (4) 
-541088.9060802563

>  <E0_minus_Eelec_plus_ZPE_kJmol>  (4) 
0.0

>  <rxn>  (4) 
rxn_3156

>  <species_type>  (4) 
p1

>  <species_folder>  (4) 
rxn_3156_p2_O=sbr-C-sbrCtN

>  <frequencies_cm1_list>  (4) 
[221.54268039384, 280.28973980644, 585.925522429, 804.6870737682399, 1981.4823480566397, 2259.3480420451197]

>  <E0_kJmol>  (4) 
-541052

>  <H298_kJmol>  (4) 
-541039

$$$$

     RDKit          3D

  6  6  0  0  0  0  0  0  0  0999 V2000
    1.9594    0.0134   -0.3734 N   0  0  0  0  0  2  0  0  0  1  0  0
    0.7437    0.0051   -0.0788 C   0  0  0  0  0  0  0  0  0  2  0  0
   -0.0745    1.0868    0.0233 O   0  0  0  0  0  0  0  0  0  3  0  0
   -1.3223    0.5972    0.3682 N   0  0  0  0  0  0  0  0  0  4  0  0
   -1.2899   -0.6150    0.4676 N   0  0  0  0  0  0  0  0  0  5  0  0
   -0.0165   -1.0874    0.2015 O   0  0  0  0  0  0  0  0  0  6  0  0
  1  2  1  0
  2  3  1  0
  2  6  1  0
  3  4  1  0
  4  5  1  0
  5  6  1  0
M  RAD  1   1   2
M  END
>  <rmg_smiles>  (5) 
[N][C]1O[N][N]O1

>  <rmg_adjacency_list>  (5) 
multiplicity 2
1 O u0 p2 c0 {3,S} {6,S}
2 O u0 p2 c0 {4,S} {6,S}
3 N u0 p1 c0 {1,S} {4,S}
4 N u0 p1 c0 {2,S} {3,S}
5 N u1 p2 c0 {6,S}
6 C u0 p0 c0 {1,S} {2,S} {5,S}


>  <multiplicity>  (5) 
2

>  <reaction>  (5) 
rxn_3156

>  <type>  (5) 
r2

>  <role_mapnums>  (5) 
{}

>  <role_mapidx>  (5) 
{}

>  <ordered_mapped_smiles>  (5) 
[NH:1][CH:2]1[O:3][NH:4][NH:5][O:6]1

>  <level_of_theory>  (5) 
wb97xd/def2tzvp

>  <lot_method>  (5) 
wb97xd

>  <lot_basis>  (5) 
def2tzvp

>  <spin_multiplicity>  (5) 
2.0

>  <optical_isomers>  (5) 
1.0

>  <modes>  (5) 
IdealGasTranslation(mass=(85.999, 'amu')),         NonlinearRotor(             inertia = ([48.4503, 114.569, 163.019

>  <frequency_value>  (5) 
unknown

>  <frequency_units>  (5) 
unknown

>  <frequency_list>  (5) 
unknown

>  <arkane_path>  (5) 
/home/calvin/Dropbox/PersonalFolders/Calvin/ATLAS_Converged/NonRMG/rxn_3156/output/Species/rxn_3156_r1_sbr-N-sbr=c1onno1/arkane/output.py

>  <path_exists>  (5) 
True

>  <E0_value>  (5) 
-925766.1233507326

>  <E0_units>  (5) 
kJ/mol

>  <thermo_class>  (5) 
NASA

>  <Cp0_value>  (5) 
33.257888

>  <Cp0_units>  (5) 
J/(mol*K)

>  <CpInf_value>  (5) 
133.031552

>  <CpInf_units>  (5) 
J/(mol*K)

>  <Tmin_value>  (5) 
10.0

>  <Tmin_units>  (5) 
K

>  <Tmax_value>  (5) 
3000.0

>  <Tmax_units>  (5) 
K

>  <polynomials>  (5) 
[{"name": "polynomial1", "class": "NASAPolynomial", "Tmin_value": 10.0, "Tmin_units": "K", "Tmax_value": 616.0864984642515, "Tmax_units": "K", "coeffs": [3.94812055354869, 0.002870632430470056, 6.601813711413239e-05, -1.1874693803665765e-07, 6.345849341330536e-11, -111343943.32258263, 9.377120967783604]}, {"name": "polynomial2", "class": "NASAPolynomial", "Tmin_value": 616.0864984642515, "Tmin_units": "K", "Tmax_value": 3000.0, "Tmax_units": "K", "coeffs": [2.4544566455499175, 0.02517036301302165, -1.8957852591200607e-05, 6.406820502487897e-09, -7.999640326918053e-13, -111343998.43927236, 13.91872622116066]}]

>  <H298_value>  (5) 
-221260.06538606877

>  <H298_units>  (5) 
kcal/mol

>  <S298_value>  (5) 
69.02430482099071

>  <S298_units>  (5) 
cal/(mol*K)

>  <Cp_T_value_list>  (5) 
[16.01447807468723, 19.24412536395936, 21.88065311931888, 23.870148628394773, 26.6491311769416, 28.365034926557463, 30.06252774055981, 30.64056177383133, 31.185424153668]

>  <Cp_T_units>  (5) 
cal/(mol*K)

>  <T_list>  (5) 
[300.0, 400.0, 500.0, 600.0, 800.0, 1000.0, 1500.0, 2000.0, 2400.0]

>  <T_units>  (5) 
K

>  <yaml_path>  (5) 
/home/calvin/Dropbox/PersonalFolders/Calvin/ATLAS_Converged/NonRMG/rxn_3156/output/Species/rxn_3156_r1_sbr-N-sbr=c1onno1/rxn_3156_r1_sbr-N-sbr=c1onno1.yml

>  <frequencies_cm1>  (5) 
[203.66105062056, 421.06293886643994, 625.6235645639199, 691.3131461350399, 746.0704870767199, 784.21659052932, 934.89884940608, 1008.3206564475199, 1041.0761764239198, 1163.2398452667198, 1617.8480074213599, 1768.29678879724]

>  <ZPE_kJmol>  (5) 
65.82829353267302

>  <E_elec_kJmol>  (5) 
-925831.9516442652

>  <E0_minus_Eelec_plus_ZPE_kJmol>  (5) 
0.0

>  <rxn>  (5) 
rxn_3156

>  <species_type>  (5) 
r0

>  <species_folder>  (5) 
rxn_3156_r1_sbr-N-sbr=c1onno1

>  <frequencies_cm1_list>  (5) 
[203.66105062056, 421.06293886643994, 625.6235645639199, 691.3131461350399, 746.0704870767199, 784.21659052932, 934.89884940608, 1008.3206564475199, 1041.0761764239198, 1163.2398452667198, 1617.8480074213599, 1768.29678879724]

>  <E0_kJmol>  (5) 
-925766

>  <H298_kJmol>  (5) 
-925752

$$$$
