
     RDKit          3D

  7  6  0  0  0  0  0  0  0  0999 V2000
   -0.1853    0.8390    0.7064 N   0  0  0  0  0  0  0  0  0  1  0  0
    0.2929   -0.3142    0.2023 N   0  0  0  0  0  0  0  0  0  2  0  0
    0.0034   -0.6400   -0.9918 C   0  0  0  0  0  0  0  0  0  3  0  0
   -0.2343    0.8101    1.7283 H   0  0  0  0  0  0  0  0  0  4  0  0
   -1.0872    1.1046    0.3021 H   0  0  0  0  0  0  0  0  0  5  0  0
    0.4386   -1.5469   -1.3924 H   0  0  0  0  0  0  0  0  0  6  0  0
   -0.6433   -0.0342   -1.6330 H   0  0  0  0  0  0  0  0  0  7  0  0
  1  5  1  0
  1  2  1  0
  1  4  1  0
  2  3  1  0
  3  6  1  0
  3  7  1  0
M  END
>  <rmg_smiles>  (1) 
[CH2][N]N

>  <rmg_adjacency_list>  (1) 
1 N u0 p1 c0 {2,S} {4,S} {5,S}
2 N u0 p1 c0 {1,S} {3,S}
3 C u0 p0 c0 {2,S} {6,S} {7,S}
4 H u0 p0 c0 {1,S}
5 H u0 p0 c0 {1,S}
6 H u0 p0 c0 {3,S}
7 H u0 p0 c0 {3,S}


>  <multiplicity>  (1) 
1

>  <reaction>  (1) 
rxn_722

>  <type>  (1) 
r1h

>  <role_mapnums>  (1) 
{"r1h_a": 1, "r1h_h": 4}

>  <role_mapidx>  (1) 
{"r1h_a": 0, "r1h_h": 3}

>  <ordered_mapped_smiles>  (1) 
[N:1]([NH:2][CH:3]([H:6])[H:7])([H:4])[H:5]

>  <mol_properties>  (1) 
{"0": {"label": "donator", "atom_type": "N3s"}, "3": {"label": "d_hydrogen", "atom_type": "H0"}}

>  <level_of_theory>  (1) 
wb97xd/def2tzvp

>  <lot_method>  (1) 
wb97xd

>  <lot_basis>  (1) 
def2tzvp

>  <spin_multiplicity>  (1) 
1.0

>  <optical_isomers>  (1) 
2.0

>  <modes>  (1) 
IdealGasTranslation(mass=(44.0374, 'amu')),         NonlinearRotor(             inertia = ([7.61299, 43.7943, 50.9227

>  <frequency_value>  (1) 
unknown

>  <frequency_units>  (1) 
unknown

>  <frequency_list>  (1) 
unknown

>  <arkane_path>  (1) 
/home/calvin/Dropbox/PersonalFolders/Calvin/HAb_Converged/rxn_722/output/Species/rxn_722_NN=C/arkane/output.py

>  <path_exists>  (1) 
True

>  <E0_value>  (1) 
-393600.8159653641

>  <E0_units>  (1) 
kJ/mol

>  <thermo_class>  (1) 
NASA

>  <Cp0_value>  (1) 
33.257888

>  <Cp0_units>  (1) 
J/(mol*K)

>  <CpInf_value>  (1) 
157.97496800000002

>  <CpInf_units>  (1) 
J/(mol*K)

>  <Tmin_value>  (1) 
10.0

>  <Tmin_units>  (1) 
K

>  <Tmax_value>  (1) 
3000.0

>  <Tmax_units>  (1) 
K

>  <polynomials>  (1) 
[{"name": "polynomial1", "class": "NASAPolynomial", "Tmin_value": 10.0, "Tmin_units": "K", "Tmax_value": 502.0556569549206, "Tmax_units": "K", "coeffs": [4.085040608621346, -0.008026048478553658, 0.000101737520963973, -1.818546584379073e-07, 1.086750406533025e-10, -47339243.257141165, 7.328544947644257]}, {"name": "polynomial2", "class": "NASAPolynomial", "Tmin_value": 502.0556569549206, "Tmin_units": "K", "Tmax_value": 3000.0, "Tmax_units": "K", "coeffs": [1.4029483372902305, 0.021804844693594633, -1.2670817533347091e-05, 3.6366266402442123e-09, -4.0783991480738574e-13, -47339080.591873914, 17.357909487520892]}]

>  <H298_value>  (1) 
-94069.96859020829

>  <H298_units>  (1) 
kcal/mol

>  <S298_value>  (1) 
62.27323171202578

>  <S298_units>  (1) 
cal/(mol*K)

>  <Cp_T_value_list>  (1) 
[13.520545661692251, 16.485879980604505, 19.011116430276495, 21.177691759717284, 24.70575103378575, 27.355412180109955, 31.41733986209593, 33.577713139956245, 34.760700450721984]

>  <Cp_T_units>  (1) 
cal/(mol*K)

>  <T_list>  (1) 
[300.0, 400.0, 500.0, 600.0, 800.0, 1000.0, 1500.0, 2000.0, 2400.0]

>  <T_units>  (1) 
K

>  <yaml_path>  (1) 
/home/calvin/Dropbox/PersonalFolders/Calvin/HAb_Converged/rxn_722/output/Species/rxn_722_NN=C/rxn_722_NN=C.yml

>  <frequencies_cm1>  (1) 
[428.21147058455995, 516.3766951080399, 646.1489836854, 789.2157558422799, 948.9074994588799, 1077.6703411941999, 1180.37984062544, 1308.8611359626398, 1469.1159723754797, 1651.3932307095597, 1706.35658121084, 3018.4383332885595, 3187.32497024864, 3455.2129345671597, 3630.4171980216397]

>  <ZPE_kJmol>  (1) 
149.61717369959624

>  <E_elec_kJmol>  (1) 
-393750.4331390637

>  <E0_minus_Eelec_plus_ZPE_kJmol>  (1) 
0.0

>  <rxn>  (1) 
rxn_722

>  <species_type>  (1) 
r1

>  <species_folder>  (1) 
rxn_722_NN=C

>  <frequencies_cm1_list>  (1) 
[428.21147058455995, 516.3766951080399, 646.1489836854, 789.2157558422799, 948.9074994588799, 1077.6703411941999, 1180.37984062544, 1308.8611359626398, 1469.1159723754797, 1651.3932307095597, 1706.35658121084, 3018.4383332885595, 3187.32497024864, 3455.2129345671597, 3630.4171980216397]

>  <E0_kJmol>  (1) 
-393601

>  <H298_kJmol>  (1) 
-393589

$$$$

     RDKit          3D

  4  3  0  0  0  0  0  0  0  0999 V2000
    0.0244    0.0308    0.0672 N   0  0  0  0  0  0  0  0  0  1  0  0
   -0.9933    0.0858    0.0953 H   0  0  0  0  0  0  0  0  0  2  0  0
    0.2384   -0.9662    0.0467 H   0  0  0  0  0  0  0  0  0  3  0  0
    0.3365    0.3673   -0.8434 H   0  0  0  0  0  0  0  0  0  4  0  0
  1  3  1  0
  1  2  1  0
  1  4  1  0
M  END
>  <rmg_smiles>  (2) 
N

>  <rmg_adjacency_list>  (2) 
1 N u0 p1 c0 {2,S} {3,S} {4,S}
2 H u0 p0 c0 {1,S}
3 H u0 p0 c0 {1,S}
4 H u0 p0 c0 {1,S}


>  <multiplicity>  (2) 
1

>  <reaction>  (2) 
rxn_722

>  <type>  (2) 
r2h

>  <role_mapnums>  (2) 
{"r2h_a": 1, "r2h_h": 4}

>  <role_mapidx>  (2) 
{"r2h_a": 0, "r2h_h": 3}

>  <ordered_mapped_smiles>  (2) 
[N:1]([H:2])([H:3])[H:4]

>  <mol_properties>  (2) 
{"0": {"label": "acceptor", "atom_type": "N3s"}, "3": {"label": "a_hydrogen", "atom_type": "H0"}}

>  <level_of_theory>  (2) 
wb97xd/def2tzvp

>  <lot_method>  (2) 
wb97xd

>  <lot_basis>  (2) 
def2tzvp

>  <spin_multiplicity>  (2) 
1.0

>  <optical_isomers>  (2) 
1.0

>  <modes>  (2) 
IdealGasTranslation(mass=(17.0266, 'amu')),         NonlinearRotor(             inertia = ([1.67808, 1.67808, 2.6816

>  <frequency_value>  (2) 
unknown

>  <frequency_units>  (2) 
unknown

>  <frequency_list>  (2) 
unknown

>  <arkane_path>  (2) 
/home/calvin/Dropbox/PersonalFolders/Calvin/HAb_Converged/rxn_722/output/Species/rxn_722_N/arkane/output.py

>  <path_exists>  (2) 
True

>  <E0_value>  (2) 
-148421.26364269105

>  <E0_units>  (2) 
kJ/mol

>  <thermo_class>  (2) 
NASA

>  <Cp0_value>  (2) 
33.257888

>  <Cp0_units>  (2) 
J/(mol*K)

>  <CpInf_value>  (2) 
83.14472

>  <CpInf_units>  (2) 
J/(mol*K)

>  <Tmin_value>  (2) 
10.0

>  <Tmin_units>  (2) 
K

>  <Tmax_value>  (2) 
3000.0

>  <Tmax_units>  (2) 
K

>  <polynomials>  (2) 
[{"name": "polynomial1", "class": "NASAPolynomial", "Tmin_value": 10.0, "Tmin_units": "K", "Tmax_value": 661.0804506617714, "Tmax_units": "K", "coeffs": [4.018065952450781, -0.0010594462951532533, 7.0068770418278475e-06, -1.9448375260802637e-09, -1.6903909714968277e-12, -17850955.574744247, 0.2630280077390306]}, {"name": "polynomial2", "class": "NASAPolynomial", "Tmin_value": 661.0804506617714, "Tmin_units": "K", "Tmax_value": 3000.0, "Tmax_units": "K", "coeffs": [2.4516557563251014, 0.005556461768624229, -1.5108534204519605e-06, 9.614541938565228e-11, 1.4295840769984746e-14, -17850685.932123393, 7.644744620409682]}]

>  <H298_value>  (2) 
-35471.13537017314

>  <H298_units>  (2) 
kcal/mol

>  <S298_value>  (2) 
45.962578608532034

>  <S298_units>  (2) 
cal/(mol*K)

>  <Cp_T_value_list>  (2) 
[8.474736662297328, 9.037108019992646, 9.720038934265556, 10.464061758445943, 11.893353433479012, 13.130875057040445, 15.468001463496948, 16.92913622142614, 17.662419085416545]

>  <Cp_T_units>  (2) 
cal/(mol*K)

>  <T_list>  (2) 
[300.0, 400.0, 500.0, 600.0, 800.0, 1000.0, 1500.0, 2000.0, 2400.0]

>  <T_units>  (2) 
K

>  <yaml_path>  (2) 
/home/calvin/Dropbox/PersonalFolders/Calvin/HAb_Converged/rxn_722/output/Species/rxn_722_N/rxn_722_N.yml

>  <frequencies_cm1>  (2) 
[1006.65197901476, 1653.7074047623996, 1654.02328608712, 3472.52460455888, 3599.6737047439997, 3600.5252109236794]

>  <ZPE_kJmol>  (2) 
89.64282786797604

>  <E_elec_kJmol>  (2) 
-148510.906470559

>  <E0_minus_Eelec_plus_ZPE_kJmol>  (2) 
0.0

>  <rxn>  (2) 
rxn_722

>  <species_type>  (2) 
p0

>  <species_folder>  (2) 
rxn_722_N

>  <frequencies_cm1_list>  (2) 
[1006.65197901476, 1653.7074047623996, 1654.02328608712, 3472.52460455888, 3599.6737047439997, 3600.5252109236794]

>  <E0_kJmol>  (2) 
-148421

>  <H298_kJmol>  (2) 
-148411

$$$$

     RDKit          3D

 10  8  0  0  0  0  0  0  0  0999 V2000
   -0.2692    0.4122    2.2552 N   0  0  0  0  0  2  0  0  0  1  0  0
   -1.2869    0.4672    2.2833 H   0  0  0  0  0  0  0  0  0  2  0  0
   -0.0552   -0.5848    2.2347 H   0  0  0  0  0  0  0  0  0  3  0  0
    0.1799    0.8683   -0.0871 N   0  0  0  0  0  0  0  0  0  4  0  0
    0.6581   -0.2848   -0.5912 N   0  0  0  0  0  0  0  0  0  5  0  0
    0.3687   -0.6106   -1.7854 C   0  0  0  0  0  0  0  0  0  6  0  0
    0.1225    0.8345    1.1125 H   0  0  0  0  0  0  0  0  0  7  0  0
   -0.7220    1.1339   -0.4914 H   0  0  0  0  0  0  0  0  0  8  0  0
    0.8038   -1.5175   -2.1859 H   0  0  0  0  0  0  0  0  0  9  0  0
   -0.2781   -0.0048   -2.4265 H   0  0  0  0  0  0  0  0  0 10  0  0
  1  2  1  0
  1  3  1  0
  4  7  1  0
  4  8  1  0
  4  5  1  0
  5  6  1  0
  6  9  1  0
  6 10  1  0
M  RAD  1   1   2
M  END
>  <rmg_smiles>  (3) 
[CH2][N]N.[NH2]

>  <rmg_adjacency_list>  (3) 
multiplicity 2
1  N u0 p1 c0 {2,S} {5,S} {6,S}
2  N u0 p1 c0 {1,S} {4,S}
3  N u1 p1 c0 {9,S} {10,S}
4  C u0 p0 c0 {2,S} {7,S} {8,S}
5  H u0 p0 c0 {1,S}
6  H u0 p0 c0 {1,S}
7  H u0 p0 c0 {4,S}
8  H u0 p0 c0 {4,S}
9  H u0 p0 c0 {3,S}
10 H u0 p0 c0 {3,S}


>  <multiplicity>  (3) 
2

>  <reaction>  (3) 
rxn_722

>  <type>  (3) 
ts

>  <role_mapnums>  (3) 
{"*2": 7, "*1": 4, "*3": 1, "*0": 5, "*4": 2}

>  <role_mapidx>  (3) 
{"*2": 6, "*1": 3, "*3": 0, "*0": 4, "*4": 1}

>  <ordered_mapped_smiles>  (3) 
[N:1]([H:2])[H:3].[N:4]([NH:5][CH:6]([H:9])[H:10])([H:7])[H:8]

>  <mol_properties>  (3) 
{"0": {"label": "*3", "atom_type": "N3s"}, "1": {"label": "*4", "atom_type": "H0"}, "3": {"label": "*1", "atom_type": "N3s"}, "4": {"label": "*0", "atom_type": "N3s"}, "6": {"label": "*2", "atom_type": "H0"}}

>  <level_of_theory>  (3) 
wb97xd/def2tzvp

>  <lot_method>  (3) 
wb97xd

>  <lot_basis>  (3) 
def2tzvp

>  <spin_multiplicity>  (3) 
2.0

>  <optical_isomers>  (3) 
2.0

>  <modes>  (3) 
IdealGasTranslation(mass=(60.0562, 'amu')),         NonlinearRotor(             inertia = ([19.6801, 154.488, 165.232

>  <frequency_value>  (3) 
-1868.93

>  <frequency_units>  (3) 
cm^-1

>  <frequency_list>  (3) 
unknown

>  <arkane_path>  (3) 
/home/calvin/Dropbox/PersonalFolders/Calvin/HAb_Converged/rxn_722/output/rxns/TS0/arkane/output.py

>  <path_exists>  (3) 
True

>  <E0_value>  (3) 
-540247.0

>  <E0_units>  (3) 
kJ/mol

>  <thermo_class>  (3) 
unknown

>  <Cp0_value>  (3) 
unknown

>  <Cp0_units>  (3) 
unknown

>  <CpInf_value>  (3) 
unknown

>  <CpInf_units>  (3) 
unknown

>  <Tmin_value>  (3) 
unknown

>  <Tmin_units>  (3) 
unknown

>  <Tmax_value>  (3) 
unknown

>  <Tmax_units>  (3) 
unknown

>  <polynomials>  (3) 
unknown

>  <H298_value>  (3) 
unknown

>  <H298_units>  (3) 
unknown

>  <S298_value>  (3) 
unknown

>  <S298_units>  (3) 
unknown

>  <Cp_T_value_list>  (3) 
unknown

>  <Cp_T_units>  (3) 
unknown

>  <T_list>  (3) 
unknown

>  <T_units>  (3) 
unknown

>  <yaml_path>  (3) 
unknown

>  <frequencies_cm1>  (3) 
unknown

>  <ZPE_kJmol>  (3) 
unknown

>  <E_elec_kJmol>  (3) 
unknown

>  <E0_minus_Eelec_plus_ZPE_kJmol>  (3) 
unknown

>  <rxn>  (3) 
unknown

>  <species_type>  (3) 
unknown

>  <species_folder>  (3) 
unknown

>  <frequencies_cm1_list>  (3) 
[]

>  <ts_imag_freq_cm1>  (3) 
-1891.6309

>  <ts_freq_out_path>  (3) 
/home/calvin/Dropbox/PersonalFolders/Calvin/HAb_Converged/rxn_722/output/rxns/TS0/geometry/freq.out

>  <E0_kJmol>  (3) 
-540247

>  <H298_kJmol>  (3) 
unknown

$$$$

     RDKit          3D

  6  5  0  0  0  0  0  0  0  0999 V2000
    1.2558   -0.4675   -0.6086 N   0  0  0  0  0  2  0  0  0  1  0  0
    0.2471   -0.3558    0.1829 N   0  0  0  0  0  0  0  0  0  2  0  0
   -0.8740    0.1951   -0.0484 C   0  0  0  0  0  0  0  0  0  3  0  0
    2.0947   -0.2181   -0.0805 H   0  0  0  0  0  0  0  0  0  4  0  0
   -1.6754    0.0384    0.6613 H   0  0  0  0  0  0  0  0  0  5  0  0
   -1.0304    0.8241   -0.9226 H   0  0  0  0  0  0  0  0  0  6  0  0
  1  2  1  0
  1  4  1  0
  2  3  1  0
  3  6  1  0
  3  5  1  0
M  RAD  1   1   2
M  END
>  <rmg_smiles>  (4) 
[CH2][N][NH]

>  <rmg_adjacency_list>  (4) 
multiplicity 2
1 N u0 p1 c0 {2,S} {3,S}
2 N u1 p1 c0 {1,S} {6,S}
3 C u0 p0 c0 {1,S} {4,S} {5,S}
4 H u0 p0 c0 {3,S}
5 H u0 p0 c0 {3,S}
6 H u0 p0 c0 {2,S}


>  <multiplicity>  (4) 
2

>  <reaction>  (4) 
rxn_722

>  <type>  (4) 
r1

>  <role_mapnums>  (4) 
{}

>  <role_mapidx>  (4) 
{}

>  <ordered_mapped_smiles>  (4) 
[N:1]([NH:2][CH:3]([H:5])[H:6])[H:4]

>  <level_of_theory>  (4) 
wb97xd/def2tzvp

>  <lot_method>  (4) 
wb97xd

>  <lot_basis>  (4) 
def2tzvp

>  <spin_multiplicity>  (4) 
2.0

>  <optical_isomers>  (4) 
2.0

>  <modes>  (4) 
IdealGasTranslation(mass=(43.0296, 'amu')),         NonlinearRotor(             inertia = ([5.19225, 43.658, 47.8424

>  <frequency_value>  (4) 
unknown

>  <frequency_units>  (4) 
unknown

>  <frequency_list>  (4) 
unknown

>  <arkane_path>  (4) 
/home/calvin/Dropbox/PersonalFolders/Calvin/HAb_Converged/rxn_722/output/Species/rxn_722_[NH]N=C/arkane/output.py

>  <path_exists>  (4) 
True

>  <E0_value>  (4) 
-391920.6336525532

>  <E0_units>  (4) 
kJ/mol

>  <thermo_class>  (4) 
NASA

>  <Cp0_value>  (4) 
33.257888

>  <Cp0_units>  (4) 
J/(mol*K)

>  <CpInf_value>  (4) 
133.031552

>  <CpInf_units>  (4) 
J/(mol*K)

>  <Tmin_value>  (4) 
10.0

>  <Tmin_units>  (4) 
K

>  <Tmax_value>  (4) 
3000.0

>  <Tmax_units>  (4) 
K

>  <polynomials>  (4) 
[{"name": "polynomial1", "class": "NASAPolynomial", "Tmin_value": 10.0, "Tmin_units": "K", "Tmax_value": 496.61948360369047, "Tmax_units": "K", "coeffs": [4.048839462374512, -0.004811513861438718, 7.691176186119057e-05, -1.3944750224042592e-07, 8.394685227006281e-11, -47137163.978332974, 7.75607759192425]}, {"name": "polynomial2", "class": "NASAPolynomial", "Tmin_value": 496.61948360369047, "Tmin_units": "K", "Tmax_value": 3000.0, "Tmax_units": "K", "coeffs": [1.9689678759396247, 0.018077911612663203, -1.076084303305779e-05, 3.1291358803639165e-09, -3.534783617650406e-13, -47137033.078425094, 15.572526680838202]}]

>  <H298_value>  (4) 
-93668.4252697279

>  <H298_units>  (4) 
kcal/mol

>  <S298_value>  (4) 
63.07256293229624

>  <S298_units>  (4) 
cal/(mol*K)

>  <Cp_T_value_list>  (4) 
[12.802241675577793, 15.211102149141666, 17.262390934998518, 19.021329796684324, 21.862630800995866, 23.969076677960874, 27.11600474349806, 28.732725135310126, 29.615558250451485]

>  <Cp_T_units>  (4) 
cal/(mol*K)

>  <T_list>  (4) 
[300.0, 400.0, 500.0, 600.0, 800.0, 1000.0, 1500.0, 2000.0, 2400.0]

>  <T_units>  (4) 
K

>  <yaml_path>  (4) 
/home/calvin/Dropbox/PersonalFolders/Calvin/HAb_Converged/rxn_722/output/Species/rxn_722_[NH]N=C/rxn_722_NHN=C.yml

>  <frequencies_cm1>  (4) 
[393.14177655532, 444.89824491215995, 784.3813981769999, 942.0199131829199, 1128.6577071952, 1167.0784900606, 1268.0506422058797, 1481.2980043331602, 1665.49115157152, 3071.09437672232, 3205.7490918622, 3402.9139743700403]

>  <ZPE_kJmol>  (4) 
113.37476298191258

>  <E_elec_kJmol>  (4) 
-392034.0084155351

>  <E0_minus_Eelec_plus_ZPE_kJmol>  (4) 
0.0

>  <rxn>  (4) 
rxn_722

>  <species_type>  (4) 
p1

>  <species_folder>  (4) 
rxn_722_[NH]N=C

>  <frequencies_cm1_list>  (4) 
[393.14177655532, 444.89824491215995, 784.3813981769999, 942.0199131829199, 1128.6577071952, 1167.0784900606, 1268.0506422058797, 1481.2980043331602, 1665.49115157152, 3071.09437672232, 3205.7490918622, 3402.9139743700403]

>  <E0_kJmol>  (4) 
-391921

>  <H298_kJmol>  (4) 
-391909

$$$$

     RDKit          3D

  3  2  0  0  0  0  0  0  0  0999 V2000
    0.0002    0.4233    0.0000 N   0  0  0  0  0  2  0  0  0  1  0  0
   -0.8051   -0.2112    0.0000 H   0  0  0  0  0  0  0  0  0  2  0  0
    0.8049   -0.2121    0.0000 H   0  0  0  0  0  0  0  0  0  3  0  0
  1  3  1  0
  1  2  1  0
M  RAD  1   1   2
M  END
>  <rmg_smiles>  (5) 
[NH2]

>  <rmg_adjacency_list>  (5) 
multiplicity 2
1 N u1 p1 c0 {2,S} {3,S}
2 H u0 p0 c0 {1,S}
3 H u0 p0 c0 {1,S}


>  <multiplicity>  (5) 
2

>  <reaction>  (5) 
rxn_722

>  <type>  (5) 
r2

>  <role_mapnums>  (5) 
{}

>  <role_mapidx>  (5) 
{}

>  <ordered_mapped_smiles>  (5) 
[N:1]([H:2])[H:3]

>  <level_of_theory>  (5) 
wb97xd/def2tzvp

>  <lot_method>  (5) 
wb97xd

>  <lot_basis>  (5) 
def2tzvp

>  <spin_multiplicity>  (5) 
2.0

>  <optical_isomers>  (5) 
1.0

>  <modes>  (5) 
IdealGasTranslation(mass=(16.0187, 'amu')),         NonlinearRotor(             inertia = ([0.710442, 1.30616, 2.0166

>  <frequency_value>  (5) 
unknown

>  <frequency_units>  (5) 
unknown

>  <frequency_list>  (5) 
unknown

>  <arkane_path>  (5) 
/home/calvin/Dropbox/PersonalFolders/Calvin/HAb_Converged/rxn_722/output/Species/rxn_722_[NH2]/arkane/output.py

>  <path_exists>  (5) 
True

>  <E0_value>  (5) 
-146665.82219964045

>  <E0_units>  (5) 
kJ/mol

>  <thermo_class>  (5) 
NASA

>  <Cp0_value>  (5) 
33.257888

>  <Cp0_units>  (5) 
J/(mol*K)

>  <CpInf_value>  (5) 
58.201304

>  <CpInf_units>  (5) 
J/(mol*K)

>  <Tmin_value>  (5) 
10.0

>  <Tmin_units>  (5) 
K

>  <Tmax_value>  (5) 
3000.0

>  <Tmax_units>  (5) 
K

>  <polynomials>  (5) 
[{"name": "polynomial1", "class": "NASAPolynomial", "Tmin_value": 10.0, "Tmin_units": "K", "Tmax_value": 785.762025652844, "Tmax_units": "K", "coeffs": [4.006150952110655, -0.0003084550413445115, 1.1919167642356156e-06, 1.4835268864917173e-09, -1.3501682773251204e-12, -17639824.212471265, 0.5976393950121619]}, {"name": "polynomial2", "class": "NASAPolynomial", "Tmin_value": 785.762025652844, "Tmin_units": "K", "Tmax_value": 3000.0, "Tmax_units": "K", "coeffs": [3.2706683171239272, 0.0018199930208633956, 2.1290206946552888e-07, -3.0253090271967345e-10, 5.0619779589579903e-14, -17639658.754270043, 4.285961361161453]}]

>  <H298_value>  (5) 
-35051.60272998557

>  <H298_units>  (5) 
kcal/mol

>  <S298_value>  (5) 
46.48569697774424

>  <S298_units>  (5) 
cal/(mol*K)

>  <Cp_T_value_list>  (5) 
[8.048197877278941, 8.214827565402967, 8.447531305278195, 8.735020460220388, 9.397018833396599, 10.038676259975528, 11.356703010007145, 12.225159042044737, 12.643051079877377]

>  <Cp_T_units>  (5) 
cal/(mol*K)

>  <T_list>  (5) 
[300.0, 400.0, 500.0, 600.0, 800.0, 1000.0, 1500.0, 2000.0, 2400.0]

>  <T_units>  (5) 
K

>  <yaml_path>  (5) 
/home/calvin/Dropbox/PersonalFolders/Calvin/HAb_Converged/rxn_722/output/Species/rxn_722_[NH2]/rxn_722_NH2.yml

>  <frequencies_cm1>  (5) 
[1514.64408504708, 3360.6064778135196, 3454.89705324244]

>  <ZPE_kJmol>  (5) 
49.8253618406256

>  <E_elec_kJmol>  (5) 
-146715.64756148108

>  <E0_minus_Eelec_plus_ZPE_kJmol>  (5) 
0.0

>  <rxn>  (5) 
rxn_722

>  <species_type>  (5) 
r0

>  <species_folder>  (5) 
rxn_722_[NH2]

>  <frequencies_cm1_list>  (5) 
[1514.64408504708, 3360.6064778135196, 3454.89705324244]

>  <E0_kJmol>  (5) 
-146666

>  <H298_kJmol>  (5) 
-146656

$$$$
