
     RDKit          3D

  4  3  0  0  0  0  0  0  0  0999 V2000
    0.0000    0.3151    1.1683 N   0  0  0  0  0  0  0  0  0  1  0  0
    0.0000   -0.0124   -0.0091 C   0  0  0  0  0  2  0  0  0  2  0  0
   -0.0000   -0.2316   -1.1467 O   0  0  0  0  0  0  0  0  0  3  0  0
   -0.0000   -0.4048    1.9188 H   0  0  0  0  0  0  0  0  0  4  0  0
  1  2  1  0
  1  4  1  0
  2  3  1  0
M  RAD  1   2   3
M  END
>  <rmg_smiles>  (1) 
[NH][C][O]

>  <rmg_adjacency_list>  (1) 
1 O u0 p2 c0 {3,S}
2 N u0 p1 c0 {3,S} {4,S}
3 C u0 p1 c0 {1,S} {2,S}
4 H u0 p0 c0 {2,S}


>  <multiplicity>  (1) 
1

>  <reaction>  (1) 
rxn_697

>  <type>  (1) 
r1h

>  <role_mapnums>  (1) 
{"r1h_a": 1, "r1h_h": 4}

>  <role_mapidx>  (1) 
{"r1h_a": 0, "r1h_h": 3}

>  <ordered_mapped_smiles>  (1) 
[NH:1]([C:2][OH:3])[H:4]

>  <mol_properties>  (1) 
{"0": {"label": "donator", "atom_type": "N3s"}, "3": {"label": "d_hydrogen", "atom_type": "H0"}}

>  <level_of_theory>  (1) 
wb97xd/def2tzvp

>  <lot_method>  (1) 
wb97xd

>  <lot_basis>  (1) 
def2tzvp

>  <spin_multiplicity>  (1) 
1.0

>  <optical_isomers>  (1) 
1.0

>  <modes>  (1) 
IdealGasTranslation(mass=(43.0058, 'amu')),         NonlinearRotor(             inertia = ([0.564084, 45.2118, 45.7759

>  <frequency_value>  (1) 
unknown

>  <frequency_units>  (1) 
unknown

>  <frequency_list>  (1) 
unknown

>  <arkane_path>  (1) 
/home/calvin/Dropbox/PersonalFolders/Calvin/HAb_Converged/rxn_697/output/Species/rxn_697_N=C=O/arkane/output.py

>  <path_exists>  (1) 
True

>  <E0_value>  (1) 
-442856.9853546004

>  <E0_units>  (1) 
kJ/mol

>  <thermo_class>  (1) 
NASA

>  <Cp0_value>  (1) 
33.257888

>  <Cp0_units>  (1) 
J/(mol*K)

>  <CpInf_value>  (1) 
83.14472

>  <CpInf_units>  (1) 
J/(mol*K)

>  <Tmin_value>  (1) 
10.0

>  <Tmin_units>  (1) 
K

>  <Tmax_value>  (1) 
3000.0

>  <Tmax_units>  (1) 
K

>  <polynomials>  (1) 
[{"name": "polynomial1", "class": "NASAPolynomial", "Tmin_value": 10.0, "Tmin_units": "K", "Tmax_value": 586.7953975069514, "Tmax_units": "K", "coeffs": [3.9861243824619934, 0.0007827880145368438, 2.3661504316034482e-05, -4.088605031969492e-08, 2.1852250462916166e-11, -53263391.70891186, 4.984661763970984]}, {"name": "polynomial2", "class": "NASAPolynomial", "Tmin_value": 586.7953975069514, "Tmin_units": "K", "Tmax_value": 3000.0, "Tmax_units": "K", "coeffs": [3.1841325575337067, 0.009347855319993307, -6.152656230712687e-06, 1.9838673143302854e-09, -2.455455106902845e-13, -53263350.92685104, 7.9717899696808106]}]

>  <H298_value>  (1) 
-105842.65366355063

>  <H298_units>  (1) 
kcal/mol

>  <S298_value>  (1) 
56.95391973057583

>  <S298_units>  (1) 
cal/(mol*K)

>  <Cp_T_value_list>  (1) 
[10.77776557581646, 11.978464806287942, 13.012037063995042, 13.85993498632109, 15.18202208323925, 16.13145370925093, 17.51706047989655, 18.30501083331314, 18.79511127266518]

>  <Cp_T_units>  (1) 
cal/(mol*K)

>  <T_list>  (1) 
[300.0, 400.0, 500.0, 600.0, 800.0, 1000.0, 1500.0, 2000.0, 2400.0]

>  <T_units>  (1) 
K

>  <yaml_path>  (1) 
/home/calvin/Dropbox/PersonalFolders/Calvin/HAb_Converged/rxn_697/output/Species/rxn_697_N=C=O/rxn_697_N=C=O.yml

>  <frequencies_cm1>  (1) 
[565.13915786536, 643.5738641904001, 779.03201661272, 1344.81667109816, 2341.9990773566396, 3687.0148910290795]

>  <ZPE_kJmol>  (1) 
55.99467345100305

>  <E_elec_kJmol>  (1) 
-442912.98002805136

>  <E0_minus_Eelec_plus_ZPE_kJmol>  (1) 
0.0

>  <rxn>  (1) 
rxn_697

>  <species_type>  (1) 
r0

>  <species_folder>  (1) 
rxn_697_N=C=O

>  <frequencies_cm1_list>  (1) 
[565.13915786536, 643.5738641904001, 779.03201661272, 1344.81667109816, 2341.9990773566396, 3687.0148910290795]

>  <E0_kJmol>  (1) 
-442857

>  <H298_kJmol>  (1) 
-442846

$$$$

     RDKit          3D

  2  1  0  0  0  0  0  0  0  0999 V2000
    0.0000    0.8824   -0.1356 H   0  0  0  0  0  0  0  0  0  1  0  0
   -0.0000   -0.0665    0.0102 O   0  0  0  0  0  1  0  0  0  2  0  0
  1  2  1  0
M  RAD  1   2   2
M  END
>  <rmg_smiles>  (2) 
[OH]

>  <rmg_adjacency_list>  (2) 
multiplicity 2
1 H u0 p0 c0 {2,S}
2 O u1 p2 c0 {1,S}


>  <multiplicity>  (2) 
2

>  <reaction>  (2) 
rxn_697

>  <type>  (2) 
r2h

>  <role_mapnums>  (2) 
{"r2h_a": 2, "r2h_h": 1}

>  <role_mapidx>  (2) 
{"r2h_a": 1, "r2h_h": 0}

>  <ordered_mapped_smiles>  (2) 
[H:1][O:2]

>  <mol_properties>  (2) 
{"0": {"label": "a_hydrogen", "atom_type": "H0"}, "1": {"label": "acceptor", "atom_type": "O2s"}}

>  <level_of_theory>  (2) 
wb97xd/def2tzvp

>  <lot_method>  (2) 
wb97xd

>  <lot_basis>  (2) 
def2tzvp

>  <spin_multiplicity>  (2) 
2.0

>  <optical_isomers>  (2) 
1.0

>  <modes>  (2) 
IdealGasTranslation(mass=(17.0027, 'amu')),         LinearRotor(inertia=(0.893825, 'amu*angstrom^2'), symmetry=1),         HarmonicOscillator(frequencies=([3725.56

>  <frequency_value>  (2) 
unknown

>  <frequency_units>  (2) 
unknown

>  <frequency_list>  (2) 
unknown

>  <arkane_path>  (2) 
/home/calvin/Dropbox/PersonalFolders/Calvin/HAb_Converged/rxn_697/output/Species/rxn_697_[OH]/arkane/output.py

>  <path_exists>  (2) 
True

>  <E0_value>  (2) 
-198836.1106552763

>  <E0_units>  (2) 
kJ/mol

>  <thermo_class>  (2) 
NASA

>  <Cp0_value>  (2) 
29.100652

>  <Cp0_units>  (2) 
J/(mol*K)

>  <CpInf_value>  (2) 
37.415124

>  <CpInf_units>  (2) 
J/(mol*K)

>  <Tmin_value>  (2) 
10.0

>  <Tmin_units>  (2) 
K

>  <Tmax_value>  (2) 
3000.0

>  <Tmax_units>  (2) 
K

>  <polynomials>  (2) 
[{"name": "polynomial1", "class": "NASAPolynomial", "Tmin_value": 10.0, "Tmin_units": "K", "Tmax_value": 985.6459359324402, "Tmax_units": "K", "coeffs": [3.49686777077684, 0.00018334165413566602, -9.927422114975035e-07, 1.559335065614597e-09, -6.051175734082516e-13, -23914460.190001234, 1.4722271748407303]}, {"name": "polynomial2", "class": "NASAPolynomial", "Tmin_value": 985.6459359324402, "Tmin_units": "K", "Tmax_value": 3000.0, "Tmax_units": "K", "coeffs": [3.4538997471416084, -0.0002990851320361188, 7.409868333423891e-07, -2.8938793165350344e-10, 3.527321549332907e-14, -23914419.81566734, 1.8407453398243376]}]

>  <H298_value>  (2) 
-47520.89563584726

>  <H298_units>  (2) 
kcal/mol

>  <S298_value>  (2) 
42.56065351108258

>  <S298_units>  (2) 
cal/(mol*K)

>  <Cp_T_value_list>  (2) 
[6.95467440837288, 6.946622347988586, 6.950155535415497, 6.9708793647131895, 7.071890602250594, 7.236783548847422, 7.699190754845551, 8.085833580657471, 8.29452334304518]

>  <Cp_T_units>  (2) 
cal/(mol*K)

>  <T_list>  (2) 
[300.0, 400.0, 500.0, 600.0, 800.0, 1000.0, 1500.0, 2000.0, 2400.0]

>  <T_units>  (2) 
K

>  <yaml_path>  (2) 
/home/calvin/Dropbox/PersonalFolders/Calvin/HAb_Converged/rxn_697/output/Species/rxn_697_[OH]/rxn_697_OH.yml

>  <frequencies_cm1>  (2) 
[3725.55927963024]

>  <ZPE_kJmol>  (2) 
22.28379948603074

>  <E_elec_kJmol>  (2) 
-198858.39445476237

>  <E0_minus_Eelec_plus_ZPE_kJmol>  (2) 
0.0

>  <rxn>  (2) 
rxn_697

>  <species_type>  (2) 
p0

>  <species_folder>  (2) 
rxn_697_[OH]

>  <frequencies_cm1_list>  (2) 
[3725.55927963024]

>  <E0_kJmol>  (2) 
-198836

>  <H298_kJmol>  (2) 
-198827

$$$$

     RDKit          3D

  5  3  0  0  0  0  0  0  0  0999 V2000
    0.0000    0.7196    0.5078 N   0  0  0  0  0  0  0  0  0  1  0  0
    0.0000    0.3920   -0.6697 C   0  0  0  0  0  0  0  0  0  2  0  0
    0.0000    0.1729   -1.8073 O   0  0  0  0  0  1  0  0  0  3  0  0
   -0.0000   -0.1507    1.4150 H   0  0  0  0  0  0  0  0  0  4  0  0
   -0.0000   -1.2723    1.5873 O   0  0  0  0  0  1  0  0  0  5  0  0
  1  2  1  0
  2  3  1  0
  4  5  1  0
M  RAD  2   3   2   5   2
M  END
>  <rmg_smiles>  (3) 
[N][C][O].[OH]

>  <rmg_adjacency_list>  (3) 
multiplicity 3
1 O u1 p2 c0 {4,S}
2 O u1 p2 c0 {5,S}
3 N u0 p2 c0 {4,S}
4 C u0 p1 c0 {1,S} {3,S}
5 H u0 p0 c0 {2,S}


>  <multiplicity>  (3) 
3

>  <reaction>  (3) 
rxn_697

>  <type>  (3) 
ts

>  <role_mapnums>  (3) 
{"*2": 4, "*1": 1, "*3": 5, "*0": null, "*4": 2}

>  <role_mapidx>  (3) 
{"*2": 3, "*1": 0, "*3": 4, "*4": 1}

>  <ordered_mapped_smiles>  (3) 
[NH2:1][CH2:2][O:3].[H:4][O:5]

>  <mol_properties>  (3) 
{"0": {"label": "*1", "atom_type": "N1s"}, "1": {"label": "*4", "atom_type": "C2s"}, "3": {"label": "*2", "atom_type": "H0"}, "4": {"label": "*3", "atom_type": "O2s"}}

>  <level_of_theory>  (3) 
wb97xd/def2tzvp

>  <lot_method>  (3) 
wb97xd

>  <lot_basis>  (3) 
def2tzvp

>  <spin_multiplicity>  (3) 
3.0

>  <optical_isomers>  (3) 
1.0

>  <modes>  (3) 
IdealGasTranslation(mass=(59.0007, 'amu')),         NonlinearRotor(             inertia = ([20.0479, 118.685, 138.733

>  <frequency_value>  (3) 
-1561.45

>  <frequency_units>  (3) 
cm^-1

>  <frequency_list>  (3) 
unknown

>  <arkane_path>  (3) 
/home/calvin/Dropbox/PersonalFolders/Calvin/HAb_Converged/rxn_697/output/rxns/TS0/arkane/output.py

>  <path_exists>  (3) 
True

>  <E0_value>  (3) 
-639916.0

>  <E0_units>  (3) 
kJ/mol

>  <thermo_class>  (3) 
unknown

>  <Cp0_value>  (3) 
unknown

>  <Cp0_units>  (3) 
unknown

>  <CpInf_value>  (3) 
unknown

>  <CpInf_units>  (3) 
unknown

>  <Tmin_value>  (3) 
unknown

>  <Tmin_units>  (3) 
unknown

>  <Tmax_value>  (3) 
unknown

>  <Tmax_units>  (3) 
unknown

>  <polynomials>  (3) 
unknown

>  <H298_value>  (3) 
unknown

>  <H298_units>  (3) 
unknown

>  <S298_value>  (3) 
unknown

>  <S298_units>  (3) 
unknown

>  <Cp_T_value_list>  (3) 
unknown

>  <Cp_T_units>  (3) 
unknown

>  <T_list>  (3) 
unknown

>  <T_units>  (3) 
unknown

>  <yaml_path>  (3) 
unknown

>  <frequencies_cm1>  (3) 
unknown

>  <ZPE_kJmol>  (3) 
unknown

>  <E_elec_kJmol>  (3) 
unknown

>  <E0_minus_Eelec_plus_ZPE_kJmol>  (3) 
unknown

>  <rxn>  (3) 
unknown

>  <species_type>  (3) 
unknown

>  <species_folder>  (3) 
unknown

>  <frequencies_cm1_list>  (3) 
[]

>  <ts_imag_freq_cm1>  (3) 
-1580.4149

>  <ts_freq_out_path>  (3) 
/home/calvin/Dropbox/PersonalFolders/Calvin/HAb_Converged/rxn_697/output/rxns/TS0/geometry/freq.out

>  <E0_kJmol>  (3) 
-639916

>  <H298_kJmol>  (3) 
unknown

$$$$

     RDKit          3D

  3  2  0  0  0  0  0  0  0  0999 V2000
   -1.2036   -0.0000    0.0000 N   0  0  0  0  0  0  0  0  0  1  0  0
    0.0175    0.0000    0.0000 C   0  0  0  0  0  0  0  0  0  2  0  0
    1.1862    0.0000    0.0000 O   0  0  0  0  0  1  0  0  0  3  0  0
  1  2  1  0
  2  3  1  0
M  RAD  1   3   2
M  END
>  <rmg_smiles>  (4) 
[N][C][O]

>  <rmg_adjacency_list>  (4) 
multiplicity 2
1 O u1 p2 c0 {3,S}
2 N u0 p2 c0 {3,S}
3 C u0 p1 c0 {1,S} {2,S}


>  <multiplicity>  (4) 
2

>  <reaction>  (4) 
rxn_697

>  <type>  (4) 
r1

>  <role_mapnums>  (4) 
{}

>  <role_mapidx>  (4) 
{}

>  <ordered_mapped_smiles>  (4) 
[NH2:1][CH2:2][O:3]

>  <level_of_theory>  (4) 
wb97xd/def2tzvp

>  <lot_method>  (4) 
wb97xd

>  <lot_basis>  (4) 
def2tzvp

>  <spin_multiplicity>  (4) 
2.0

>  <optical_isomers>  (4) 
1.0

>  <modes>  (4) 
IdealGasTranslation(mass=(41.998, 'amu')),         LinearRotor(inertia=(42.6659, 'amu*angstrom^2'), symmetry=1),         HarmonicOscillator(frequencies=([522.955, 602.908, 1303.48, 2020.05

>  <frequency_value>  (4) 
unknown

>  <frequency_units>  (4) 
unknown

>  <frequency_list>  (4) 
unknown

>  <arkane_path>  (4) 
/home/calvin/Dropbox/PersonalFolders/Calvin/HAb_Converged/rxn_697/output/Species/rxn_697_[N]=C=O/arkane/output.py

>  <path_exists>  (4) 
True

>  <E0_value>  (4) 
-441084.7107543191

>  <E0_units>  (4) 
kJ/mol

>  <thermo_class>  (4) 
NASA

>  <Cp0_value>  (4) 
29.100652

>  <Cp0_units>  (4) 
J/(mol*K)

>  <CpInf_value>  (4) 
62.358540000000005

>  <CpInf_units>  (4) 
J/(mol*K)

>  <Tmin_value>  (4) 
10.0

>  <Tmin_units>  (4) 
K

>  <Tmax_value>  (4) 
3000.0

>  <Tmax_units>  (4) 
K

>  <polynomials>  (4) 
[{"name": "polynomial1", "class": "NASAPolynomial", "Tmin_value": 10.0, "Tmin_units": "K", "Tmax_value": 573.9847914542285, "Tmax_units": "K", "coeffs": [3.4882679711995674, 0.0006716147381596314, 1.9630303031660352e-05, -3.509824514630013e-08, 1.9229750396915966e-11, -53050236.449783534, 6.507141142396753]}, {"name": "polynomial2", "class": "NASAPolynomial", "Tmin_value": 573.9847914542285, "Tmin_units": "K", "Tmax_value": 3000.0, "Tmax_units": "K", "coeffs": [2.8537648977460575, 0.007664112272961806, -5.36144025883004e-06, 1.7319121451018344e-09, -2.102814556362282e-13, -53050205.95863955, 8.847112067642346]}]

>  <H298_value>  (4) 
-105419.42521953672

>  <H298_units>  (4) 
kcal/mol

>  <S298_value>  (4) 
54.01266897878408

>  <S298_units>  (4) 
cal/(mol*K)

>  <Cp_T_value_list>  (4) 
[9.26949964708827, 10.221705903701368, 11.021504023084445, 11.66282416865318, 12.627387117583021, 13.270699351213457, 14.044276602049829, 14.36158565535208, 14.56832598406735]

>  <Cp_T_units>  (4) 
cal/(mol*K)

>  <T_list>  (4) 
[300.0, 400.0, 500.0, 600.0, 800.0, 1000.0, 1500.0, 2000.0, 2400.0]

>  <T_units>  (4) 
K

>  <yaml_path>  (4) 
/home/calvin/Dropbox/PersonalFolders/Calvin/HAb_Converged/rxn_697/output/Species/rxn_697_[N]=C=O/rxn_697_N=C=O.yml

>  <frequencies_cm1>  (4) 
[522.9552670446, 602.90757712536, 1303.4842864570799, 2020.0473376137597]

>  <ZPE_kJmol>  (4) 
26.613296614722746

>  <E_elec_kJmol>  (4) 
-441111.3240509338

>  <E0_minus_Eelec_plus_ZPE_kJmol>  (4) 
0.0

>  <rxn>  (4) 
rxn_697

>  <species_type>  (4) 
p1

>  <species_folder>  (4) 
rxn_697_[N]=C=O

>  <frequencies_cm1_list>  (4) 
[522.9552670446, 602.90757712536, 1303.4842864570799, 2020.0473376137597]

>  <E0_kJmol>  (4) 
-441085

>  <H298_kJmol>  (4) 
-441075

$$$$

     RDKit          3D

  1  0  0  0  0  0  0  0  0  0999 V2000
    0.0000    0.0000    0.0000 O   0  0  0  0  0 15  0  0  0  1  0  0
M  END
>  <rmg_smiles>  (5) 
[O]

>  <rmg_adjacency_list>  (5) 
multiplicity 3
1 O u2 p3 c0


>  <multiplicity>  (5) 
3

>  <reaction>  (5) 
rxn_697

>  <type>  (5) 
r2

>  <role_mapnums>  (5) 
{}

>  <role_mapidx>  (5) 
{}

>  <ordered_mapped_smiles>  (5) 
[O:1]

>  <level_of_theory>  (5) 
wb97xd/def2tzvp

>  <lot_method>  (5) 
wb97xd

>  <lot_basis>  (5) 
def2tzvp

>  <spin_multiplicity>  (5) 
3.0

>  <optical_isomers>  (5) 
1.0

>  <modes>  (5) 
IdealGasTranslation(mass=(15.9994, 'amu')),

>  <frequency_value>  (5) 
unknown

>  <frequency_units>  (5) 
unknown

>  <frequency_list>  (5) 
unknown

>  <arkane_path>  (5) 
/home/calvin/Dropbox/PersonalFolders/Calvin/HAb_Converged/rxn_697/output/Species/rxn_697_[O]/arkane/output.py

>  <path_exists>  (5) 
True

>  <E0_value>  (5) 
-197098.59938458708

>  <E0_units>  (5) 
kJ/mol

>  <thermo_class>  (5) 
NASA

>  <Cp0_value>  (5) 
20.78618

>  <Cp0_units>  (5) 
J/(mol*K)

>  <CpInf_value>  (5) 
20.78618

>  <CpInf_units>  (5) 
J/(mol*K)

>  <Tmin_value>  (5) 
10.0

>  <Tmin_units>  (5) 
K

>  <Tmax_value>  (5) 
3000.0

>  <Tmax_units>  (5) 
K

>  <polynomials>  (5) 
[{"name": "polynomial1", "class": "NASAPolynomial", "Tmin_value": 10.0, "Tmin_units": "K", "Tmax_value": 1853.5663026740365, "Tmax_units": "K", "coeffs": [2.500000000000126, -2.814048095438137e-15, 9.047587538332909e-18, -8.591944598242694e-21, 2.4182720553650057e-24, -23705485.977386568, 4.091313385047355]}, {"name": "polynomial2", "class": "NASAPolynomial", "Tmin_value": 1853.5663026740365, "Tmin_units": "K", "Tmax_value": 3000.0, "Tmax_units": "K", "coeffs": [2.500000000696122, -1.3129776766613561e-12, 9.140875080033424e-16, -2.782806647322001e-19, 3.1263265306749967e-23, -23705485.97738686, 4.091313381171202]}]

>  <H298_value>  (5) 
-47106.215373741215

>  <H298_units>  (5) 
kcal/mol

>  <S298_value>  (5) 
36.4335375885593

>  <S298_units>  (5) 
cal/(mol*K)

>  <Cp_T_value_list>  (5) 
[4.968016252389826, 4.968016252389978, 4.968016252390173, 4.96801625239036, 4.968016252390567, 4.968016252390427, 4.968016252389077, 4.968016252391019, 4.968016252390868]

>  <Cp_T_units>  (5) 
cal/(mol*K)

>  <T_list>  (5) 
[300.0, 400.0, 500.0, 600.0, 800.0, 1000.0, 1500.0, 2000.0, 2400.0]

>  <T_units>  (5) 
K

>  <yaml_path>  (5) 
/home/calvin/Dropbox/PersonalFolders/Calvin/HAb_Converged/rxn_697/output/Species/rxn_697_[O]/rxn_697_O.yml

>  <frequencies_cm1>  (5) 
[]

>  <ZPE_kJmol>  (5) 
unknown

>  <E_elec_kJmol>  (5) 
unknown

>  <E0_minus_Eelec_plus_ZPE_kJmol>  (5) 
unknown

>  <rxn>  (5) 
rxn_697

>  <species_type>  (5) 
r1

>  <species_folder>  (5) 
rxn_697_[O]

>  <frequencies_cm1_list>  (5) 
[]

>  <E0_kJmol>  (5) 
-197099

>  <H298_kJmol>  (5) 
-197092

$$$$
