
     RDKit          3D

 10  9  0  0  0  0  0  0  0  0999 V2000
   -0.7829   -0.5380   -1.7388 C   0  0  0  0  0  0  0  0  0  1  0  0
   -0.0739   -1.2364   -0.6090 C   0  0  0  0  0  0  0  0  0  2  0  0
    0.5380   -0.4967    0.4567 C   0  0  0  0  0  0  0  0  0  3  0  0
    0.1891    1.0441    0.8958 S   0  0  0  0  0  0  0  0  0  4  0  0
   -0.0612   -0.0745   -2.4151 H   0  0  0  0  0  0  0  0  0  5  0  0
   -1.3780   -1.2499   -2.3129 H   0  0  0  0  0  0  0  0  0  6  0  0
   -1.4314    0.2528   -1.3625 H   0  0  0  0  0  0  0  0  0  7  0  0
   -0.8946   -1.7204   -0.0792 H   0  0  0  0  0  0  0  0  0  8  0  0
    0.4807   -2.1291   -0.8989 H   0  0  0  0  0  0  0  0  0  9  0  0
    1.2522   -1.0591    1.0569 H   0  0  0  0  0  0  0  0  0 10  0  0
  1  5  1  0
  1  7  1  0
  1  6  1  0
  1  2  1  0
  2  9  1  0
  2  8  1  0
  2  3  1  0
  3 10  1  0
  3  4  1  0
M  END
>  <rmg_smiles>  (1) 
CC[CH][S]

>  <rmg_adjacency_list>  (1) 
1  S u0 p2 c0 {4,S}
2  C u0 p0 c0 {3,S} {4,S} {5,S} {6,S}
3  C u0 p0 c0 {2,S} {7,S} {8,S} {9,S}
4  C u0 p0 c0 {1,S} {2,S} {10,S}
5  H u0 p0 c0 {2,S}
6  H u0 p0 c0 {2,S}
7  H u0 p0 c0 {3,S}
8  H u0 p0 c0 {3,S}
9  H u0 p0 c0 {3,S}
10 H u0 p0 c0 {4,S}


>  <multiplicity>  (1) 
1

>  <reaction>  (1) 
rxn_2025

>  <type>  (1) 
r1h

>  <role_mapnums>  (1) 
{"r1h_a": 2, "r1h_h": 8}

>  <role_mapidx>  (1) 
{"r1h_a": 1, "r1h_h": 7}

>  <ordered_mapped_smiles>  (1) 
[C:1]([C:2]([CH:3]([SH:4])[H:10])([H:8])[H:9])([H:5])([H:6])[H:7]

>  <mol_properties>  (1) 
{"1": {"label": "donator", "atom_type": "Cs"}, "7": {"label": "d_hydrogen", "atom_type": "H0"}}

>  <level_of_theory>  (1) 
wb97xd/def2tzvp

>  <lot_method>  (1) 
wb97xd

>  <lot_basis>  (1) 
def2tzvp

>  <spin_multiplicity>  (1) 
1.0

>  <optical_isomers>  (1) 
2.0

>  <modes>  (1) 
IdealGasTranslation(mass=(74.019, 'amu')),         NonlinearRotor(             inertia = ([22.4966, 186.361, 188.795

>  <frequency_value>  (1) 
unknown

>  <frequency_units>  (1) 
unknown

>  <frequency_list>  (1) 
unknown

>  <arkane_path>  (1) 
/home/calvin/Dropbox/PersonalFolders/Calvin/HAb_Converged/rxn_2025/output/Species/rxn_2025_CCC=S/arkane/output.py

>  <path_exists>  (1) 
True

>  <E0_value>  (1) 
-1354842.217301763

>  <E0_units>  (1) 
kJ/mol

>  <thermo_class>  (1) 
NASA

>  <Cp0_value>  (1) 
33.257888

>  <Cp0_units>  (1) 
J/(mol*K)

>  <CpInf_value>  (1) 
232.805216

>  <CpInf_units>  (1) 
J/(mol*K)

>  <Tmin_value>  (1) 
10.0

>  <Tmin_units>  (1) 
K

>  <Tmax_value>  (1) 
3000.0

>  <Tmax_units>  (1) 
K

>  <polynomials>  (1) 
[{"name": "polynomial1", "class": "NASAPolynomial", "Tmin_value": 10.0, "Tmin_units": "K", "Tmax_value": 1013.5613876204479, "Tmax_units": "K", "coeffs": [3.938264474030978, 0.013958577362371608, 2.4928299834323208e-05, -3.437968169284249e-08, 1.1996855715308475e-11, -162949884.83258396, 10.036718283867241]}, {"name": "polynomial2", "class": "NASAPolynomial", "Tmin_value": 1013.5613876204479, "Tmin_units": "K", "Tmax_value": 3000.0, "Tmax_units": "K", "coeffs": [3.4971174702987913, 0.02812100302113746, -1.4413974403757785e-05, 3.5888447591702137e-09, -3.50645414543858e-13, -162950433.43848506, 9.023464985603324]}]

>  <H298_value>  (1) 
-323811.1931375839

>  <H298_units>  (1) 
kcal/mol

>  <S298_value>  (1) 
74.44131966579386

>  <S298_units>  (1) 
cal/(mol*K)

>  <Cp_T_value_list>  (1) 
[18.95458725520134, 23.085463908908388, 27.029925960895593, 30.63553072981776, 36.506480449108224, 40.62310264010602, 46.867049640781964, 50.04512758032496, 51.55141314203573]

>  <Cp_T_units>  (1) 
cal/(mol*K)

>  <T_list>  (1) 
[300.0, 400.0, 500.0, 600.0, 800.0, 1000.0, 1500.0, 2000.0, 2400.0]

>  <T_units>  (1) 
K

>  <yaml_path>  (1) 
/home/calvin/Dropbox/PersonalFolders/Calvin/HAb_Converged/rxn_2025/output/Species/rxn_2025_CCC=S/rxn_2025_CCC=S.yml

>  <frequencies_cm1>  (1) 
[74.28704719176, 221.72122201215998, 335.63077450031994, 396.89115054004003, 760.5804270578799, 844.8108689929999, 880.5466605982799, 995.2665173541999, 1070.3913367549999, 1106.71082211248, 1174.46736626492, 1258.5398675376798, 1308.6619933883599, 1395.2272103322798, 1411.9963884837198, 1463.1416951470799, 1484.2233400794798, 1490.93925172244, 3001.8614307260796, 3019.9765380002395, 3047.92516825264, 3080.3167380070795, 3099.9288480809996, 3104.5915311132794]

>  <ZPE_kJmol>  (1) 
215.4991505651017

>  <E_elec_kJmol>  (1) 
-1355057.716452328

>  <E0_minus_Eelec_plus_ZPE_kJmol>  (1) 
0.0

>  <rxn>  (1) 
rxn_2025

>  <species_type>  (1) 
r1

>  <species_folder>  (1) 
rxn_2025_CCC=S

>  <frequencies_cm1_list>  (1) 
[74.28704719176, 221.72122201215998, 335.63077450031994, 396.89115054004003, 760.5804270578799, 844.8108689929999, 880.5466605982799, 995.2665173541999, 1070.3913367549999, 1106.71082211248, 1174.46736626492, 1258.5398675376798, 1308.6619933883599, 1395.2272103322798, 1411.9963884837198, 1463.1416951470799, 1484.2233400794798, 1490.93925172244, 3001.8614307260796, 3019.9765380002395, 3047.92516825264, 3080.3167380070795, 3099.9288480809996, 3104.5915311132794]

>  <E0_kJmol>  (1) 
-1.35484e+06

>  <H298_kJmol>  (1) 
-1.35483e+06

$$$$

     RDKit          3D

 10  9  0  0  0  0  0  0  0  0999 V2000
    0.4763    0.3660    1.4202 S   0  0  0  0  0  0  0  0  0  1  0  0
    0.0855    0.5052   -0.2948 C   0  0  0  0  0  0  0  0  0  2  0  0
   -0.2470   -0.7348   -0.9764 C   0  0  0  0  0  0  0  0  0  3  0  0
   -1.0274   -0.8003   -2.0569 C   0  0  0  0  0  0  0  0  0  4  0  0
    0.8118    1.6515    1.6021 H   0  0  0  0  0  0  0  0  0  5  0  0
   -0.5292    1.3648   -0.5531 H   0  0  0  0  0  0  0  0  0  6  0  0
    0.2152   -1.6414   -0.5961 H   0  0  0  0  0  0  0  0  0  7  0  0
   -1.5074    0.0830   -2.4628 H   0  0  0  0  0  0  0  0  0  8  0  0
   -1.2116   -1.7401   -2.5598 H   0  0  0  0  0  0  0  0  0  9  0  0
    1.0193    0.8440   -0.7384 H   0  0  0  0  0  0  0  0  0 10  0  0
  1  2  1  0
  1  5  1  0
  2 10  1  0
  2  6  1  0
  2  3  1  0
  3  4  1  0
  3  7  1  0
  4  8  1  0
  4  9  1  0
M  END
>  <rmg_smiles>  (2) 
[CH2][CH]CS

>  <rmg_adjacency_list>  (2) 
1  S u0 p2 c0 {2,S} {10,S}
2  C u0 p0 c0 {1,S} {3,S} {5,S} {6,S}
3  C u0 p0 c0 {2,S} {4,S} {7,S}
4  C u0 p0 c0 {3,S} {8,S} {9,S}
5  H u0 p0 c0 {2,S}
6  H u0 p0 c0 {2,S}
7  H u0 p0 c0 {3,S}
8  H u0 p0 c0 {4,S}
9  H u0 p0 c0 {4,S}
10 H u0 p0 c0 {1,S}


>  <multiplicity>  (2) 
1

>  <reaction>  (2) 
rxn_2025

>  <type>  (2) 
r2h

>  <role_mapnums>  (2) 
{"r2h_a": 2, "r2h_h": 10}

>  <role_mapidx>  (2) 
{"r2h_a": 1, "r2h_h": 9}

>  <ordered_mapped_smiles>  (2) 
[S:1]([C:2]([CH:3]([CH:4]([H:8])[H:9])[H:7])([H:6])[H:10])[H:5]

>  <mol_properties>  (2) 
{"1": {"label": "acceptor", "atom_type": "Cs"}, "9": {"label": "a_hydrogen", "atom_type": "H0"}}

>  <level_of_theory>  (2) 
wb97xd/def2tzvp

>  <lot_method>  (2) 
wb97xd

>  <lot_basis>  (2) 
def2tzvp

>  <spin_multiplicity>  (2) 
1.0

>  <optical_isomers>  (2) 
2.0

>  <modes>  (2) 
IdealGasTranslation(mass=(74.019, 'amu')),         NonlinearRotor(             inertia = ([24.9739, 180.25, 186.44

>  <frequency_value>  (2) 
unknown

>  <frequency_units>  (2) 
unknown

>  <frequency_list>  (2) 
unknown

>  <arkane_path>  (2) 
/home/calvin/Dropbox/PersonalFolders/Calvin/HAb_Converged/rxn_2025/output/Species/rxn_2025_SCC=C/arkane/output.py

>  <path_exists>  (2) 
True

>  <E0_value>  (2) 
-1354838.6258243525

>  <E0_units>  (2) 
kJ/mol

>  <thermo_class>  (2) 
NASA

>  <Cp0_value>  (2) 
33.257888

>  <Cp0_units>  (2) 
J/(mol*K)

>  <CpInf_value>  (2) 
232.805216

>  <CpInf_units>  (2) 
J/(mol*K)

>  <Tmin_value>  (2) 
10.0

>  <Tmin_units>  (2) 
K

>  <Tmax_value>  (2) 
3000.0

>  <Tmax_units>  (2) 
K

>  <polynomials>  (2) 
[{"name": "polynomial1", "class": "NASAPolynomial", "Tmin_value": 10.0, "Tmin_units": "K", "Tmax_value": 400.65806020409946, "Tmax_units": "K", "coeffs": [3.883268576252178, 0.009872966694517036, 7.267081741219709e-05, -1.4952606927169204e-07, 9.638969446192109e-11, -162949446.9996889, 10.213451719731799]}, {"name": "polynomial2", "class": "NASAPolynomial", "Tmin_value": 400.65806020409946, "Tmin_units": "K", "Tmax_value": 3000.0, "Tmax_units": "K", "coeffs": [1.381946217098182, 0.03484518856752169, -2.0821510203899097e-05, 6.039055448516005e-09, -6.791318499482445e-13, -162949246.56534788, 19.9930512432755]}]

>  <H298_value>  (2) 
-323810.2515366824

>  <H298_units>  (2) 
kcal/mol

>  <S298_value>  (2) 
74.2752341119096

>  <S298_units>  (2) 
cal/(mol*K)

>  <Cp_T_value_list>  (2) 
[20.12858317623335, 24.557289426072625, 28.44010285073442, 31.814651802239496, 37.252480139055294, 41.26543233779768, 47.186294391719805, 50.14241959560657, 51.7278549409484]

>  <Cp_T_units>  (2) 
cal/(mol*K)

>  <T_list>  (2) 
[300.0, 400.0, 500.0, 600.0, 800.0, 1000.0, 1500.0, 2000.0, 2400.0]

>  <T_units>  (2) 
K

>  <yaml_path>  (2) 
/home/calvin/Dropbox/PersonalFolders/Calvin/HAb_Converged/rxn_2025/output/Species/rxn_2025_SCC=C/rxn_2025_SCC=C.yml

>  <frequencies_cm1>  (2) 
[109.00652496968, 245.3917204102, 290.63828668367995, 415.01999178484, 607.7556687612799, 738.8738864613599, 795.00462446704, 935.2971345546399, 957.23715265204, 997.0931354493199, 1031.7164754327598, 1111.56578073372, 1232.59639699872, 1263.93045101388, 1318.41311254276, 1435.2480007772401, 1465.33226346416, 1711.0192642431198, 2696.8986126648797, 3040.5500260189597, 3094.0163737204803, 3115.6885793903994, 3138.1779563133996, 3206.45639135016]

>  <ZPE_kJmol>  (2) 
209.0649957029236

>  <E_elec_kJmol>  (2) 
-1355047.6908200553

>  <E0_minus_Eelec_plus_ZPE_kJmol>  (2) 
0.0

>  <rxn>  (2) 
rxn_2025

>  <species_type>  (2) 
p0

>  <species_folder>  (2) 
rxn_2025_SCC=C

>  <frequencies_cm1_list>  (2) 
[109.00652496968, 245.3917204102, 290.63828668367995, 415.01999178484, 607.7556687612799, 738.8738864613599, 795.00462446704, 935.2971345546399, 957.23715265204, 997.0931354493199, 1031.7164754327598, 1111.56578073372, 1232.59639699872, 1263.93045101388, 1318.41311254276, 1435.2480007772401, 1465.33226346416, 1711.0192642431198, 2696.8986126648797, 3040.5500260189597, 3094.0163737204803, 3115.6885793903994, 3138.1779563133996, 3206.45639135016]

>  <E0_kJmol>  (2) 
-1.35484e+06

>  <H298_kJmol>  (2) 
-1.35482e+06

$$$$

     RDKit          3D

 19 17  0  0  0  0  0  0  0  0999 V2000
   -0.5406   -0.9267    1.8844 S   0  0  0  0  0  0  0  0  0  1  0  0
   -0.9313   -0.7876    0.1694 C   0  0  0  0  0  3  0  0  0  2  0  0
   -1.2639   -2.0276   -0.5122 C   0  0  0  0  0  0  0  0  0  3  0  0
   -2.0442   -2.0930   -1.5927 C   0  0  0  0  0  0  0  0  0  4  0  0
   -0.2050    0.3588    2.0663 H   0  0  0  0  0  0  0  0  0  5  0  0
   -1.5460    0.0721   -0.0889 H   0  0  0  0  0  0  0  0  0  6  0  0
   -0.8017   -2.9341   -0.1319 H   0  0  0  0  0  0  0  0  0  7  0  0
   -2.5242   -1.2098   -1.9986 H   0  0  0  0  0  0  0  0  0  8  0  0
   -2.2284   -3.0328   -2.0956 H   0  0  0  0  0  0  0  0  0  9  0  0
    0.5342    0.9245   -2.1623 C   0  0  0  0  0  0  0  0  0 10  0  0
    1.2431    0.2261   -1.0325 C   0  0  0  0  0  0  0  0  0 11  0  0
    1.8550    0.9658    0.0332 C   0  0  0  0  0  0  0  0  0 12  0  0
    1.5061    2.5066    0.4723 S   0  0  0  0  0  0  0  0  0 13  0  0
    1.2558    1.3880   -2.8387 H   0  0  0  0  0  0  0  0  0 14  0  0
   -0.0609    0.2126   -2.7364 H   0  0  0  0  0  0  0  0  0 15  0  0
   -0.1143    1.7153   -1.7860 H   0  0  0  0  0  0  0  0  0 16  0  0
    0.2526   -0.3580   -0.3931 H   0  0  0  0  0  0  0  0  0 17  0  0
    1.7977   -0.6666   -1.3224 H   0  0  0  0  0  0  0  0  0 18  0  0
    2.5692    0.4034    0.6334 H   0  0  0  0  0  0  0  0  0 19  0  0
  1  2  1  0
  1  5  1  0
  2  6  1  0
  2  3  1  0
  3  4  1  0
  3  7  1  0
  4  8  1  0
  4  9  1  0
 10 16  1  0
 10 14  1  0
 10 11  1  0
 10 15  1  0
 11 18  1  0
 11 17  1  0
 11 12  1  0
 12 19  1  0
 12 13  1  0
M  RAD  1   2   2
M  END
>  <rmg_smiles>  (3) 
[CH2][CH][CH]S.CC[CH][S]

>  <rmg_adjacency_list>  (3) 
multiplicity 2
1  S u0 p2 c0 {7,S} {19,S}
2  S u0 p2 c0 {6,S}
3  C u0 p0 c0 {4,S} {6,S} {9,S} {10,S}
4  C u0 p0 c0 {3,S} {11,S} {12,S} {13,S}
5  C u0 p0 c0 {7,S} {8,S} {14,S}
6  C u0 p0 c0 {2,S} {3,S} {16,S}
7  C u1 p0 c0 {1,S} {5,S} {15,S}
8  C u0 p0 c0 {5,S} {17,S} {18,S}
9  H u0 p0 c0 {3,S}
10 H u0 p0 c0 {3,S}
11 H u0 p0 c0 {4,S}
12 H u0 p0 c0 {4,S}
13 H u0 p0 c0 {4,S}
14 H u0 p0 c0 {5,S}
15 H u0 p0 c0 {7,S}
16 H u0 p0 c0 {6,S}
17 H u0 p0 c0 {8,S}
18 H u0 p0 c0 {8,S}
19 H u0 p0 c0 {1,S}


>  <multiplicity>  (3) 
2

>  <reaction>  (3) 
rxn_2025

>  <type>  (3) 
ts

>  <role_mapnums>  (3) 
{"*2": 17, "*1": 11, "*3": 2, "*0": 12, "*4": 1}

>  <role_mapidx>  (3) 
{"*2": 16, "*1": 10, "*3": 1, "*0": 11, "*4": 0}

>  <ordered_mapped_smiles>  (3) 
[S:1]([C:2]([CH:3]([CH:4]([H:8])[H:9])[H:7])[H:6])[H:5].[C:10]([C:11]([CH:12]([SH:13])[H:19])([H:17])[H:18])([H:14])([H:15])[H:16]

>  <mol_properties>  (3) 
{"0": {"label": "*4", "atom_type": "S2s"}, "1": {"label": "*3", "atom_type": "Cs"}, "10": {"label": "*1", "atom_type": "Cs"}, "11": {"label": "*0", "atom_type": "Cs"}, "16": {"label": "*2", "atom_type": "H0"}}

>  <level_of_theory>  (3) 
wb97xd/def2tzvp

>  <lot_method>  (3) 
wb97xd

>  <lot_basis>  (3) 
def2tzvp

>  <spin_multiplicity>  (3) 
2.0

>  <optical_isomers>  (3) 
2.0

>  <modes>  (3) 
IdealGasTranslation(mass=(147.03, 'amu')),         NonlinearRotor(             inertia = ([294.222, 632.135, 851.523

>  <frequency_value>  (3) 
-1641.9

>  <frequency_units>  (3) 
cm^-1

>  <frequency_list>  (3) 
unknown

>  <arkane_path>  (3) 
/home/calvin/Dropbox/PersonalFolders/Calvin/HAb_Converged/rxn_2025/output/rxns/TS0/arkane/output.py

>  <path_exists>  (3) 
True

>  <E0_value>  (3) 
-2707970.0

>  <E0_units>  (3) 
kJ/mol

>  <thermo_class>  (3) 
unknown

>  <Cp0_value>  (3) 
unknown

>  <Cp0_units>  (3) 
unknown

>  <CpInf_value>  (3) 
unknown

>  <CpInf_units>  (3) 
unknown

>  <Tmin_value>  (3) 
unknown

>  <Tmin_units>  (3) 
unknown

>  <Tmax_value>  (3) 
unknown

>  <Tmax_units>  (3) 
unknown

>  <polynomials>  (3) 
unknown

>  <H298_value>  (3) 
unknown

>  <H298_units>  (3) 
unknown

>  <S298_value>  (3) 
unknown

>  <S298_units>  (3) 
unknown

>  <Cp_T_value_list>  (3) 
unknown

>  <Cp_T_units>  (3) 
unknown

>  <T_list>  (3) 
unknown

>  <T_units>  (3) 
unknown

>  <yaml_path>  (3) 
unknown

>  <frequencies_cm1>  (3) 
unknown

>  <ZPE_kJmol>  (3) 
unknown

>  <E_elec_kJmol>  (3) 
unknown

>  <E0_minus_Eelec_plus_ZPE_kJmol>  (3) 
unknown

>  <rxn>  (3) 
unknown

>  <species_type>  (3) 
unknown

>  <species_folder>  (3) 
unknown

>  <frequencies_cm1_list>  (3) 
[]

>  <ts_imag_freq_cm1>  (3) 
-1661.8418

>  <ts_freq_out_path>  (3) 
/home/calvin/Dropbox/PersonalFolders/Calvin/HAb_Converged/rxn_2025/output/rxns/TS0/geometry/freq.out

>  <E0_kJmol>  (3) 
-2.70797e+06

>  <H298_kJmol>  (3) 
unknown

$$$$

     RDKit          3D

  9  8  0  0  0  0  0  0  0  0999 V2000
   -1.2704   -0.1236    0.1096 C   0  0  0  0  0  0  0  0  0  1  0  0
    0.0713   -0.5323    0.5887 C   0  0  0  0  0  0  0  0  0  2  0  0
    0.9521   -1.3639   -0.0464 C   0  0  0  0  0  0  0  0  0  3  0  0
    0.6900   -2.1109   -1.5335 S   0  0  0  0  0  1  0  0  0  4  0  0
   -1.3201    0.9657    0.0241 H   0  0  0  0  0  0  0  0  0  5  0  0
   -1.5103   -0.5706   -0.8526 H   0  0  0  0  0  0  0  0  0  6  0  0
   -2.0312   -0.4112    0.8411 H   0  0  0  0  0  0  0  0  0  7  0  0
    0.3863   -0.1265    1.5468 H   0  0  0  0  0  0  0  0  0  8  0  0
    1.8971   -1.5543    0.4552 H   0  0  0  0  0  0  0  0  0  9  0  0
  1  5  1  0
  1  7  1  0
  1  6  1  0
  1  2  1  0
  2  8  1  0
  2  3  1  0
  3  9  1  0
  3  4  1  0
M  RAD  1   4   2
M  END
>  <rmg_smiles>  (4) 
C[CH][CH][S]

>  <rmg_adjacency_list>  (4) 
multiplicity 2
1 S u1 p2 c0 {4,S}
2 C u0 p0 c0 {3,S} {5,S} {6,S} {7,S}
3 C u0 p0 c0 {2,S} {4,S} {8,S}
4 C u0 p0 c0 {1,S} {3,S} {9,S}
5 H u0 p0 c0 {2,S}
6 H u0 p0 c0 {2,S}
7 H u0 p0 c0 {2,S}
8 H u0 p0 c0 {3,S}
9 H u0 p0 c0 {4,S}


>  <multiplicity>  (4) 
2

>  <reaction>  (4) 
rxn_2025

>  <type>  (4) 
r1

>  <role_mapnums>  (4) 
{}

>  <role_mapidx>  (4) 
{}

>  <ordered_mapped_smiles>  (4) 
[C:1]([CH:2]([CH:3]([S:4])[H:9])[H:8])([H:5])([H:6])[H:7]

>  <level_of_theory>  (4) 
wb97xd/def2tzvp

>  <lot_method>  (4) 
wb97xd

>  <lot_basis>  (4) 
def2tzvp

>  <spin_multiplicity>  (4) 
2.0

>  <optical_isomers>  (4) 
1.0

>  <modes>  (4) 
IdealGasTranslation(mass=(73.0112, 'amu')),         NonlinearRotor(             inertia = ([33.6944, 136.887, 167.488

>  <frequency_value>  (4) 
unknown

>  <frequency_units>  (4) 
unknown

>  <frequency_list>  (4) 
unknown

>  <arkane_path>  (4) 
/home/calvin/Dropbox/PersonalFolders/Calvin/HAb_Converged/rxn_2025/output/Species/rxn_2025_C[CH]C=S/arkane/output.py

>  <path_exists>  (4) 
True

>  <E0_value>  (4) 
-1353215.6281101538

>  <E0_units>  (4) 
kJ/mol

>  <thermo_class>  (4) 
NASA

>  <Cp0_value>  (4) 
33.257888

>  <Cp0_units>  (4) 
J/(mol*K)

>  <CpInf_value>  (4) 
207.8618

>  <CpInf_units>  (4) 
J/(mol*K)

>  <Tmin_value>  (4) 
10.0

>  <Tmin_units>  (4) 
K

>  <Tmax_value>  (4) 
3000.0

>  <Tmax_units>  (4) 
K

>  <polynomials>  (4) 
[{"name": "polynomial1", "class": "NASAPolynomial", "Tmin_value": 10.0, "Tmin_units": "K", "Tmax_value": 725.9670831251275, "Tmax_units": "K", "coeffs": [3.8816748203713503, 0.011298408175925107, 3.675471007626225e-05, -5.977324289779361e-08, 2.695700402648573e-11, -162754245.86998293, 10.102760819727918]}, {"name": "polynomial2", "class": "NASAPolynomial", "Tmin_value": 725.9670831251275, "Tmin_units": "K", "Tmax_value": 3000.0, "Tmax_units": "K", "coeffs": [2.113334188366536, 0.02911249006728392, -1.6728703347228576e-05, 4.6550260025625346e-09, -5.035736545429853e-13, -162754201.7933275, 16.602901379195625]}]

>  <H298_value>  (4) 
-323422.5645571532

>  <H298_units>  (4) 
kcal/mol

>  <S298_value>  (4) 
73.01356091694491

>  <S298_units>  (4) 
cal/(mol*K)

>  <Cp_T_value_list>  (4) 
[18.249700390386565, 22.1502054191087, 25.699972971809594, 28.76485903066641, 33.53225294606782, 37.05856600875504, 42.33516489554981, 44.92384433755821, 46.24168569821556]

>  <Cp_T_units>  (4) 
cal/(mol*K)

>  <T_list>  (4) 
[300.0, 400.0, 500.0, 600.0, 800.0, 1000.0, 1500.0, 2000.0, 2400.0]

>  <T_units>  (4) 
K

>  <yaml_path>  (4) 
/home/calvin/Dropbox/PersonalFolders/Calvin/HAb_Converged/rxn_2025/output/Species/rxn_2025_C[CH]C=S/rxn_2025_CCHC=S.yml

>  <frequencies_cm1>  (4) 
[111.67778225915998, 241.84835598508, 328.91486285736, 569.66450119124, 701.4282155114, 825.4665713465598, 919.54427023056, 945.2817312099198, 1036.1937498614, 1093.82149066684, 1239.0307622435598, 1356.916299232, 1389.82289288544, 1434.05314533156, 1462.16658323164, 1523.85957934652, 3007.1696103784398, 3060.1209341809595, 3105.60097795532, 3123.1735933892, 3133.0620522499994]

>  <ZPE_kJmol>  (4) 
183.08144113792287

>  <E_elec_kJmol>  (4) 
-1353398.7095512918

>  <E0_minus_Eelec_plus_ZPE_kJmol>  (4) 
0.0

>  <rxn>  (4) 
rxn_2025

>  <species_type>  (4) 
p1

>  <species_folder>  (4) 
rxn_2025_C[CH]C=S

>  <frequencies_cm1_list>  (4) 
[111.67778225915998, 241.84835598508, 328.91486285736, 569.66450119124, 701.4282155114, 825.4665713465598, 919.54427023056, 945.2817312099198, 1036.1937498614, 1093.82149066684, 1239.0307622435598, 1356.916299232, 1389.82289288544, 1434.05314533156, 1462.16658323164, 1523.85957934652, 3007.1696103784398, 3060.1209341809595, 3105.60097795532, 3123.1735933892, 3133.0620522499994]

>  <E0_kJmol>  (4) 
-1.35322e+06

>  <H298_kJmol>  (4) 
-1.3532e+06

$$$$

     RDKit          3D

  9  8  0  0  0  0  0  0  0  0999 V2000
    2.3991   -0.1292   -0.2384 S   0  0  0  0  0  0  0  0  0  1  0  0
    0.7460    0.2807    0.0931 C   0  0  0  0  0  3  0  0  0  2  0  0
   -0.3131   -0.5719   -0.2043 C   0  0  0  0  0  0  0  0  0  3  0  0
   -0.2286   -1.8095   -0.7775 C   0  0  0  0  0  0  0  0  0  4  0  0
    2.9373    1.0009    0.2312 H   0  0  0  0  0  0  0  0  0  5  0  0
    0.5618    1.2421    0.5487 H   0  0  0  0  0  0  0  0  0  6  0  0
   -1.2978   -0.1954    0.0537 H   0  0  0  0  0  0  0  0  0  7  0  0
    0.7207   -2.2479   -1.0607 H   0  0  0  0  0  0  0  0  0  8  0  0
   -1.1177   -2.3938   -0.9670 H   0  0  0  0  0  0  0  0  0  9  0  0
  1  2  1  0
  1  5  1  0
  2  6  1  0
  2  3  1  0
  3  4  1  0
  3  7  1  0
  4  8  1  0
  4  9  1  0
M  RAD  1   2   2
M  END
>  <rmg_smiles>  (5) 
[CH2][CH][CH]S

>  <rmg_adjacency_list>  (5) 
multiplicity 2
1 S u0 p2 c0 {3,S} {9,S}
2 C u0 p0 c0 {3,S} {4,S} {5,S}
3 C u1 p0 c0 {1,S} {2,S} {6,S}
4 C u0 p0 c0 {2,S} {7,S} {8,S}
5 H u0 p0 c0 {2,S}
6 H u0 p0 c0 {3,S}
7 H u0 p0 c0 {4,S}
8 H u0 p0 c0 {4,S}
9 H u0 p0 c0 {1,S}


>  <multiplicity>  (5) 
2

>  <reaction>  (5) 
rxn_2025

>  <type>  (5) 
r2

>  <role_mapnums>  (5) 
{}

>  <role_mapidx>  (5) 
{}

>  <ordered_mapped_smiles>  (5) 
[S:1]([C:2]([CH:3]([CH:4]([H:8])[H:9])[H:7])[H:6])[H:5]

>  <level_of_theory>  (5) 
wb97xd/def2tzvp

>  <lot_method>  (5) 
wb97xd

>  <lot_basis>  (5) 
def2tzvp

>  <spin_multiplicity>  (5) 
2.0

>  <optical_isomers>  (5) 
1.0

>  <modes>  (5) 
IdealGasTranslation(mass=(73.0112, 'amu')),         NonlinearRotor(             inertia = ([31.363, 134.913, 166.276

>  <frequency_value>  (5) 
unknown

>  <frequency_units>  (5) 
unknown

>  <frequency_list>  (5) 
unknown

>  <arkane_path>  (5) 
/home/calvin/Dropbox/PersonalFolders/Calvin/HAb_Converged/rxn_2025/output/Species/rxn_2025_S[CH]C=C/arkane/output.py

>  <path_exists>  (5) 
True

>  <E0_value>  (5) 
-1353189.912902829

>  <E0_units>  (5) 
kJ/mol

>  <thermo_class>  (5) 
NASA

>  <Cp0_value>  (5) 
33.257888

>  <Cp0_units>  (5) 
J/(mol*K)

>  <CpInf_value>  (5) 
207.8618

>  <CpInf_units>  (5) 
J/(mol*K)

>  <Tmin_value>  (5) 
10.0

>  <Tmin_units>  (5) 
K

>  <Tmax_value>  (5) 
3000.0

>  <Tmax_units>  (5) 
K

>  <polynomials>  (5) 
[{"name": "polynomial1", "class": "NASAPolynomial", "Tmin_value": 10.0, "Tmin_units": "K", "Tmax_value": 494.182421916781, "Tmax_units": "K", "coeffs": [3.9171373588949456, 0.005296732981537435, 0.00010660061491766757, -2.3200753792228283e-07, 1.5435566423865143e-10, -162751151.45822766, 10.011870120637145]}, {"name": "polynomial2", "class": "NASAPolynomial", "Tmin_value": 494.182421916781, "Tmin_units": "K", "Tmax_value": 3000.0, "Tmax_units": "K", "coeffs": [2.9684844905613335, 0.02976556892789463, -1.8633830366542493e-05, 5.689075317713255e-09, -6.722422089020262e-13, -162751262.7195864, 11.845549052817699]}]

>  <H298_value>  (5) 
-323416.2553145126

>  <H298_units>  (5) 
kcal/mol

>  <S298_value>  (5) 
73.32316749567646

>  <S298_units>  (5) 
cal/(mol*K)

>  <Cp_T_value_list>  (5) 
[20.043540963892376, 24.233886931081226, 27.5465186826771, 30.32748293405113, 34.761695296239196, 37.98953828173351, 42.701336869209946, 45.151374707895805, 46.535171933883085]

>  <Cp_T_units>  (5) 
cal/(mol*K)

>  <T_list>  (5) 
[300.0, 400.0, 500.0, 600.0, 800.0, 1000.0, 1500.0, 2000.0, 2400.0]

>  <T_units>  (5) 
K

>  <yaml_path>  (5) 
/home/calvin/Dropbox/PersonalFolders/Calvin/HAb_Converged/rxn_2025/output/Species/rxn_2025_S[CH]C=C/rxn_2025_SCHC=C.yml

>  <frequencies_cm1>  (5) 
[163.62652620496, 213.33663293644, 322.76891099595997, 534.6497430445601, 548.4317825817999, 640.07856866252, 767.52981620172, 810.9222964388, 939.69200515944, 969.4329185803599, 1056.3483517756, 1131.90579125156, 1228.8126880874, 1369.48974935292, 1427.04882030516, 1524.36086927488, 2717.97339061196, 3127.7744735536003, 3135.08094593408, 3196.4305927829596, 3224.57836560964]

>  <ZPE_kJmol>  (5) 
173.75927083469932

>  <E_elec_kJmol>  (5) 
-1353363.6721736635

>  <E0_minus_Eelec_plus_ZPE_kJmol>  (5) 
0.0

>  <rxn>  (5) 
rxn_2025

>  <species_type>  (5) 
r0

>  <species_folder>  (5) 
rxn_2025_S[CH]C=C

>  <frequencies_cm1_list>  (5) 
[163.62652620496, 213.33663293644, 322.76891099595997, 534.6497430445601, 548.4317825817999, 640.07856866252, 767.52981620172, 810.9222964388, 939.69200515944, 969.4329185803599, 1056.3483517756, 1131.90579125156, 1228.8126880874, 1369.48974935292, 1427.04882030516, 1524.36086927488, 2717.97339061196, 3127.7744735536003, 3135.08094593408, 3196.4305927829596, 3224.57836560964]

>  <E0_kJmol>  (5) 
-1.35319e+06

>  <H298_kJmol>  (5) 
-1.35317e+06

$$$$
