
     RDKit          3D

 12 11  0  0  0  0  0  0  0  0999 V2000
   -0.3303   -0.3117   -1.8958 C   0  0  0  0  0  0  0  0  0  1  0  0
    0.2878   -0.2649   -0.5365 C   0  0  0  0  0  0  0  0  0  2  0  0
   -0.2646    0.2993    0.5372 C   0  0  0  0  0  0  0  0  0  3  0  0
    0.3217    0.3040    1.8812 C   0  0  0  0  0  0  0  0  0  4  0  0
    0.3069    0.1804   -2.6358 H   0  0  0  0  0  0  0  0  0  5  0  0
   -0.4634   -1.3440   -2.2314 H   0  0  0  0  0  0  0  0  0  6  0  0
   -1.3054    0.1774   -1.9068 H   0  0  0  0  0  0  0  0  0  7  0  0
    1.2679   -0.7263   -0.4346 H   0  0  0  0  0  0  0  0  0  8  0  0
   -1.2452    0.7590    0.4321 H   0  0  0  0  0  0  0  0  0  9  0  0
    1.3784    0.0415    1.9114 H   0  0  0  0  0  0  0  0  0 10  0  0
    0.1164    1.2005    2.4644 H   0  0  0  0  0  0  0  0  0 11  0  0
   -0.1521   -0.4798    2.4706 H   0  0  0  0  0  0  0  0  0 12  0  0
  1  5  1  0
  1  7  1  0
  1  6  1  0
  1  2  1  0
  2  8  1  0
  2  3  1  0
  3  4  1  0
  3  9  1  0
  4 12  1  0
  4 10  1  0
  4 11  1  0
M  END
>  <rmg_smiles>  (1) 
C[CH][CH]C

>  <rmg_adjacency_list>  (1) 
1  C u0 p0 c0 {3,S} {5,S} {6,S} {7,S}
2  C u0 p0 c0 {4,S} {8,S} {9,S} {10,S}
3  C u0 p0 c0 {1,S} {4,S} {11,S}
4  C u0 p0 c0 {2,S} {3,S} {12,S}
5  H u0 p0 c0 {1,S}
6  H u0 p0 c0 {1,S}
7  H u0 p0 c0 {1,S}
8  H u0 p0 c0 {2,S}
9  H u0 p0 c0 {2,S}
10 H u0 p0 c0 {2,S}
11 H u0 p0 c0 {3,S}
12 H u0 p0 c0 {4,S}


>  <multiplicity>  (1) 
1

>  <reaction>  (1) 
rxn_758

>  <type>  (1) 
r1h

>  <role_mapnums>  (1) 
{"r1h_a": 4, "r1h_h": 12}

>  <role_mapidx>  (1) 
{"r1h_a": 3, "r1h_h": 11}

>  <ordered_mapped_smiles>  (1) 
[C:1]([CH:2]([CH:3]([C:4]([H:10])([H:11])[H:12])[H:9])[H:8])([H:5])([H:6])[H:7]

>  <mol_properties>  (1) 
{"3": {"label": "donator", "atom_type": "Cs"}, "11": {"label": "d_hydrogen", "atom_type": "H0"}}

>  <level_of_theory>  (1) 
wb97xd/def2tzvp

>  <lot_method>  (1) 
wb97xd

>  <lot_basis>  (1) 
def2tzvp

>  <spin_multiplicity>  (1) 
1.0

>  <optical_isomers>  (1) 
1.0

>  <modes>  (1) 
IdealGasTranslation(mass=(56.0626, 'amu')),         NonlinearRotor(             inertia = ([14.4223, 134.785, 142.994

>  <frequency_value>  (1) 
unknown

>  <frequency_units>  (1) 
unknown

>  <frequency_list>  (1) 
unknown

>  <arkane_path>  (1) 
/home/calvin/Dropbox/PersonalFolders/Calvin/HAb_Converged/rxn_758/output/Species/rxn_758_CC=CC/arkane/output.py

>  <path_exists>  (1) 
True

>  <E0_value>  (1) 
-412530.5319289876

>  <E0_units>  (1) 
kJ/mol

>  <thermo_class>  (1) 
NASA

>  <Cp0_value>  (1) 
33.257888

>  <Cp0_units>  (1) 
J/(mol*K)

>  <CpInf_value>  (1) 
282.692048

>  <CpInf_units>  (1) 
J/(mol*K)

>  <Tmin_value>  (1) 
10.0

>  <Tmin_units>  (1) 
K

>  <Tmax_value>  (1) 
3000.0

>  <Tmax_units>  (1) 
K

>  <polynomials>  (1) 
[{"name": "polynomial1", "class": "NASAPolynomial", "Tmin_value": 10.0, "Tmin_units": "K", "Tmax_value": 876.4212813791887, "Tmax_units": "K", "coeffs": [3.836787493780791, 0.014889614715966039, 3.7274785995319404e-05, -5.10150478184817e-08, 1.8986418253329456e-11, -49615962.114741184, 7.6253605924364605]}, {"name": "polynomial2", "class": "NASAPolynomial", "Tmin_value": 876.4212813791887, "Tmin_units": "K", "Tmax_value": 3000.0, "Tmax_units": "K", "coeffs": [0.35033664051999086, 0.03999048058068148, -2.1411917479032447e-05, 5.588729430633446e-09, -5.722086104095602e-13, -49615703.891505, 21.97229608357955]}]

>  <H298_value>  (1) 
-98593.10529459674

>  <H298_units>  (1) 
kcal/mol

>  <S298_value>  (1) 
69.87712883966965

>  <S298_units>  (1) 
cal/(mol*K)

>  <Cp_T_value_list>  (1) 
[20.736075260677012, 25.78934672867801, 30.6229744209846, 35.03617701442316, 42.2509408173962, 47.58449540971321, 55.8889883730975, 60.08939969803742, 62.13782616309376]

>  <Cp_T_units>  (1) 
cal/(mol*K)

>  <T_list>  (1) 
[300.0, 400.0, 500.0, 600.0, 800.0, 1000.0, 1500.0, 2000.0, 2400.0]

>  <T_units>  (1) 
K

>  <yaml_path>  (1) 
/home/calvin/Dropbox/PersonalFolders/Calvin/HAb_Converged/rxn_758/output/Species/rxn_758_CC=CC/rxn_758_CC=CC.yml

>  <frequencies_cm1>  (1) 
[173.71412764003998, 224.62595680252, 244.76682474607998, 285.68032328264, 504.75775594659996, 762.6473896391999, 875.3689536669999, 983.46216958912, 998.1231832473198, 1061.07283767576, 1070.0823224156, 1077.9793555336, 1162.59434864664, 1322.2860922632399, 1329.1736785391997, 1403.0281056558, 1403.75600609972, 1465.77861750996, 1466.2661734676797, 1476.07222850464, 1483.9623946373201, 1752.5645254291198, 3004.79363345772, 3005.3017903714, 3061.49433124496, 3061.9063503641596, 3086.38028604464, 3087.26612715092, 3105.2850966305996, 3110.86108871044]

>  <ZPE_kJmol>  (1) 
281.4278693072432

>  <E_elec_kJmol>  (1) 
-412811.9597982948

>  <E0_minus_Eelec_plus_ZPE_kJmol>  (1) 
0.0

>  <rxn>  (1) 
rxn_758

>  <species_type>  (1) 
r1

>  <species_folder>  (1) 
rxn_758_CC=CC

>  <frequencies_cm1_list>  (1) 
[173.71412764003998, 224.62595680252, 244.76682474607998, 285.68032328264, 504.75775594659996, 762.6473896391999, 875.3689536669999, 983.46216958912, 998.1231832473198, 1061.07283767576, 1070.0823224156, 1077.9793555336, 1162.59434864664, 1322.2860922632399, 1329.1736785391997, 1403.0281056558, 1403.75600609972, 1465.77861750996, 1466.2661734676797, 1476.07222850464, 1483.9623946373201, 1752.5645254291198, 3004.79363345772, 3005.3017903714, 3061.49433124496, 3061.9063503641596, 3086.38028604464, 3087.26612715092, 3105.2850966305996, 3110.86108871044]

>  <E0_kJmol>  (1) 
-412531

>  <H298_kJmol>  (1) 
-412514

$$$$

     RDKit          3D

  5  4  0  0  0  0  0  0  0  0999 V2000
   -0.0172   -0.0316    0.0237 C   0  0  0  0  0  0  0  0  0  1  0  0
    0.0812   -0.8782   -0.6477 H   0  0  0  0  0  0  0  0  0  2  0  0
   -1.0369    0.3041    0.1818 H   0  0  0  0  0  0  0  0  0  3  0  0
    0.5849   -0.0917    0.9243 H   0  0  0  0  0  0  0  0  0  4  0  0
    0.4279    0.7744   -0.5503 H   0  0  0  0  0  0  0  0  0  5  0  0
  1  3  1  0
  1  5  1  0
  1  4  1  0
  1  2  1  0
M  END
>  <rmg_smiles>  (2) 
C

>  <rmg_adjacency_list>  (2) 
1 C u0 p0 c0 {2,S} {3,S} {4,S} {5,S}
2 H u0 p0 c0 {1,S}
3 H u0 p0 c0 {1,S}
4 H u0 p0 c0 {1,S}
5 H u0 p0 c0 {1,S}


>  <multiplicity>  (2) 
1

>  <reaction>  (2) 
rxn_758

>  <type>  (2) 
r2h

>  <role_mapnums>  (2) 
{"r2h_a": 1, "r2h_h": 5}

>  <role_mapidx>  (2) 
{"r2h_a": 0, "r2h_h": 4}

>  <ordered_mapped_smiles>  (2) 
[C:1]([H:2])([H:3])([H:4])[H:5]

>  <mol_properties>  (2) 
{"0": {"label": "acceptor", "atom_type": "Cs"}, "4": {"label": "a_hydrogen", "atom_type": "H0"}}

>  <level_of_theory>  (2) 
wb97xd/def2tzvp

>  <lot_method>  (2) 
wb97xd

>  <lot_basis>  (2) 
def2tzvp

>  <spin_multiplicity>  (2) 
1.0

>  <optical_isomers>  (2) 
1.0

>  <modes>  (2) 
IdealGasTranslation(mass=(16.0313, 'amu')),         NonlinearRotor(             inertia = ([3.18679, 3.18679, 3.18679

>  <frequency_value>  (2) 
unknown

>  <frequency_units>  (2) 
unknown

>  <frequency_list>  (2) 
unknown

>  <arkane_path>  (2) 
/home/calvin/Dropbox/PersonalFolders/Calvin/HAb_Converged/rxn_758/output/Species/rxn_758_C/arkane/output.py

>  <path_exists>  (2) 
True

>  <E0_value>  (2) 
-106268.5262916272

>  <E0_units>  (2) 
kJ/mol

>  <thermo_class>  (2) 
NASA

>  <Cp0_value>  (2) 
33.257888

>  <Cp0_units>  (2) 
J/(mol*K)

>  <CpInf_value>  (2) 
108.088136

>  <CpInf_units>  (2) 
J/(mol*K)

>  <Tmin_value>  (2) 
10.0

>  <Tmin_units>  (2) 
K

>  <Tmax_value>  (2) 
3000.0

>  <Tmax_units>  (2) 
K

>  <polynomials>  (2) 
[{"name": "polynomial1", "class": "NASAPolynomial", "Tmin_value": 10.0, "Tmin_units": "K", "Tmax_value": 616.7595780986624, "Tmax_units": "K", "coeffs": [4.041420799946622, -0.002477807655966685, 1.1290457802459216e-05, 3.700688819348292e-09, -9.366412561864162e-12, -12781153.318458663, -0.42637433538586406]}, {"name": "polynomial2", "class": "NASAPolynomial", "Tmin_value": 616.7595780986624, "Tmin_units": "K", "Tmax_value": 3000.0, "Tmax_units": "K", "coeffs": [0.6800320423470843, 0.011684066325645743, -4.5749540261290126e-06, 7.694671628924811e-10, -3.8768177461555664e-14, -12780593.404419335, 15.343675764562182]}]

>  <H298_value>  (2) 
-25396.41264990868

>  <H298_units>  (2) 
kcal/mol

>  <S298_value>  (2) 
44.46392088520575

>  <S298_units>  (2) 
cal/(mol*K)

>  <Cp_T_value_list>  (2) 
[8.621039065772948, 9.645572285350525, 10.934239595808906, 12.330144838344452, 14.859142397339834, 16.9306880471269, 20.49440393107996, 22.423230884533538, 23.291918246513866]

>  <Cp_T_units>  (2) 
cal/(mol*K)

>  <T_list>  (2) 
[300.0, 400.0, 500.0, 600.0, 800.0, 1000.0, 1500.0, 2000.0, 2400.0]

>  <T_units>  (2) 
K

>  <yaml_path>  (2) 
/home/calvin/Dropbox/PersonalFolders/Calvin/HAb_Converged/rxn_758/output/Species/rxn_758_C/rxn_758_C.yml

>  <frequencies_cm1>  (2) 
[1326.5504901469599, 1326.5504901469599, 1326.5504901469599, 1542.24249904816, 1542.24249904816, 3008.8382878112, 3127.32125252248, 3127.32125252248, 3127.32125252248]

>  <ZPE_kJmol>  (2) 
116.36640738144024

>  <E_elec_kJmol>  (2) 
-106384.89269900863

>  <E0_minus_Eelec_plus_ZPE_kJmol>  (2) 
0.0

>  <rxn>  (2) 
rxn_758

>  <species_type>  (2) 
p0

>  <species_folder>  (2) 
rxn_758_C

>  <frequencies_cm1_list>  (2) 
[1326.5504901469599, 1326.5504901469599, 1326.5504901469599, 1542.24249904816, 1542.24249904816, 3008.8382878112, 3127.32125252248, 3127.32125252248, 3127.32125252248]

>  <E0_kJmol>  (2) 
-106269

>  <H298_kJmol>  (2) 
-106259

$$$$

     RDKit          3D

 16 14  0  0  0  0  0  0  0  0999 V2000
   -0.5931   -1.3111    2.6140 C   0  0  0  0  0  3  0  0  0  1  0  0
   -0.4947   -2.1576    1.9425 H   0  0  0  0  0  0  0  0  0  2  0  0
   -1.6128   -0.9754    2.7721 H   0  0  0  0  0  0  0  0  0  3  0  0
    0.0090   -1.3712    3.5145 H   0  0  0  0  0  0  0  0  0  4  0  0
   -0.1011    0.0585   -2.6132 C   0  0  0  0  0  0  0  0  0  5  0  0
    0.5170    0.1053   -1.2539 C   0  0  0  0  0  0  0  0  0  6  0  0
   -0.0354    0.6695   -0.1802 C   0  0  0  0  0  0  0  0  0  7  0  0
    0.5508    0.6742    1.1638 C   0  0  0  0  0  0  0  0  0  8  0  0
    0.5361    0.5506   -3.3531 H   0  0  0  0  0  0  0  0  0  9  0  0
   -0.2342   -0.9738   -2.9487 H   0  0  0  0  0  0  0  0  0 10  0  0
   -1.0762    0.5476   -2.6242 H   0  0  0  0  0  0  0  0  0 11  0  0
    1.4971   -0.3561   -1.1519 H   0  0  0  0  0  0  0  0  0 12  0  0
   -1.0160    1.1292   -0.2853 H   0  0  0  0  0  0  0  0  0 13  0  0
    1.6076    0.4117    1.1940 H   0  0  0  0  0  0  0  0  0 14  0  0
    0.3456    1.5706    1.7470 H   0  0  0  0  0  0  0  0  0 15  0  0
   -0.0001   -0.2373    1.8493 H   0  0  0  0  0  0  0  0  0 16  0  0
  1  2  1  0
  1  4  1  0
  1  3  1  0
  5 11  1  0
  5  6  1  0
  5  9  1  0
  5 10  1  0
  6  7  1  0
  6 12  1  0
  7 13  1  0
  7  8  1  0
  8 16  1  0
  8 14  1  0
  8 15  1  0
M  RAD  1   1   2
M  END
>  <rmg_smiles>  (3) 
C[CH][CH]C.[CH3]

>  <rmg_adjacency_list>  (3) 
multiplicity 2
1  C u0 p0 c0 {3,S} {6,S} {7,S} {8,S}
2  C u0 p0 c0 {4,S} {9,S} {10,S} {11,S}
3  C u0 p0 c0 {1,S} {4,S} {12,S}
4  C u0 p0 c0 {2,S} {3,S} {13,S}
5  C u1 p0 c0 {14,S} {15,S} {16,S}
6  H u0 p0 c0 {1,S}
7  H u0 p0 c0 {1,S}
8  H u0 p0 c0 {1,S}
9  H u0 p0 c0 {2,S}
10 H u0 p0 c0 {2,S}
11 H u0 p0 c0 {2,S}
12 H u0 p0 c0 {3,S}
13 H u0 p0 c0 {4,S}
14 H u0 p0 c0 {5,S}
15 H u0 p0 c0 {5,S}
16 H u0 p0 c0 {5,S}


>  <multiplicity>  (3) 
2

>  <reaction>  (3) 
rxn_758

>  <type>  (3) 
ts

>  <role_mapnums>  (3) 
{"*2": 16, "*1": 8, "*3": 1, "*0": 7, "*4": 2}

>  <role_mapidx>  (3) 
{"*2": 15, "*1": 7, "*3": 0, "*0": 6, "*4": 1}

>  <ordered_mapped_smiles>  (3) 
[C:1]([H:2])([H:3])[H:4].[C:5]([CH:6]([CH:7]([C:8]([H:14])([H:15])[H:16])[H:13])[H:12])([H:9])([H:10])[H:11]

>  <mol_properties>  (3) 
{"0": {"label": "*3", "atom_type": "Cs"}, "1": {"label": "*4", "atom_type": "H0"}, "6": {"label": "*0", "atom_type": "Cs"}, "7": {"label": "*1", "atom_type": "Cs"}, "15": {"label": "*2", "atom_type": "H0"}}

>  <level_of_theory>  (3) 
wb97xd/def2tzvp

>  <lot_method>  (3) 
wb97xd

>  <lot_basis>  (3) 
def2tzvp

>  <spin_multiplicity>  (3) 
2.0

>  <optical_isomers>  (3) 
2.0

>  <modes>  (3) 
IdealGasTranslation(mass=(71.0861, 'amu')),         NonlinearRotor(             inertia = ([55.154, 284.053, 313.089

>  <frequency_value>  (3) 
-1637.78

>  <frequency_units>  (3) 
cm^-1

>  <frequency_list>  (3) 
unknown

>  <arkane_path>  (3) 
/home/calvin/Dropbox/PersonalFolders/Calvin/HAb_Converged/rxn_758/output/rxns/TS0/arkane/output.py

>  <path_exists>  (3) 
True

>  <E0_value>  (3) 
-517010.0

>  <E0_units>  (3) 
kJ/mol

>  <thermo_class>  (3) 
unknown

>  <Cp0_value>  (3) 
unknown

>  <Cp0_units>  (3) 
unknown

>  <CpInf_value>  (3) 
unknown

>  <CpInf_units>  (3) 
unknown

>  <Tmin_value>  (3) 
unknown

>  <Tmin_units>  (3) 
unknown

>  <Tmax_value>  (3) 
unknown

>  <Tmax_units>  (3) 
unknown

>  <polynomials>  (3) 
unknown

>  <H298_value>  (3) 
unknown

>  <H298_units>  (3) 
unknown

>  <S298_value>  (3) 
unknown

>  <S298_units>  (3) 
unknown

>  <Cp_T_value_list>  (3) 
unknown

>  <Cp_T_units>  (3) 
unknown

>  <T_list>  (3) 
unknown

>  <T_units>  (3) 
unknown

>  <yaml_path>  (3) 
unknown

>  <frequencies_cm1>  (3) 
unknown

>  <ZPE_kJmol>  (3) 
unknown

>  <E_elec_kJmol>  (3) 
unknown

>  <E0_minus_Eelec_plus_ZPE_kJmol>  (3) 
unknown

>  <rxn>  (3) 
unknown

>  <species_type>  (3) 
unknown

>  <species_folder>  (3) 
unknown

>  <frequencies_cm1_list>  (3) 
[]

>  <ts_imag_freq_cm1>  (3) 
-1657.6731

>  <ts_freq_out_path>  (3) 
/home/calvin/Dropbox/PersonalFolders/Calvin/HAb_Converged/rxn_758/output/rxns/TS0/geometry/freq.out

>  <E0_kJmol>  (3) 
-517010

>  <H298_kJmol>  (3) 
unknown

$$$$

     RDKit          3D

 11 10  0  0  0  0  0  0  0  0999 V2000
    2.0592    0.2507   -0.0997 C   0  0  0  0  0  0  0  0  0  1  0  0
    0.8040   -0.3121   -0.1492 C   0  0  0  0  0  0  0  0  0  2  0  0
   -0.3810    0.3947   -0.1916 C   0  0  0  0  0  3  0  0  0  3  0  0
   -1.7317   -0.2272   -0.2449 C   0  0  0  0  0  0  0  0  0  4  0  0
    2.9496   -0.3613   -0.0681 H   0  0  0  0  0  0  0  0  0  5  0  0
    2.1888    1.3262   -0.0910 H   0  0  0  0  0  0  0  0  0  6  0  0
    0.7365   -1.3979   -0.1556 H   0  0  0  0  0  0  0  0  0  7  0  0
   -0.3319    1.4800   -0.1859 H   0  0  0  0  0  0  0  0  0  8  0  0
   -1.6720   -1.3165   -0.2465 H   0  0  0  0  0  0  0  0  0  9  0  0
   -2.3432    0.0781    0.6103 H   0  0  0  0  0  0  0  0  0 10  0  0
   -2.2769    0.0842   -1.1417 H   0  0  0  0  0  0  0  0  0 11  0  0
  1  5  1  0
  1  6  1  0
  1  2  1  0
  2  7  1  0
  2  3  1  0
  3  4  1  0
  3  8  1  0
  4  9  1  0
  4 10  1  0
  4 11  1  0
M  RAD  1   3   2
M  END
>  <rmg_smiles>  (4) 
[CH2][CH][CH]C

>  <rmg_adjacency_list>  (4) 
multiplicity 2
1  C u0 p0 c0 {2,S} {5,S} {6,S} {7,S}
2  C u1 p0 c0 {1,S} {3,S} {8,S}
3  C u0 p0 c0 {2,S} {4,S} {9,S}
4  C u0 p0 c0 {3,S} {10,S} {11,S}
5  H u0 p0 c0 {1,S}
6  H u0 p0 c0 {1,S}
7  H u0 p0 c0 {1,S}
8  H u0 p0 c0 {2,S}
9  H u0 p0 c0 {3,S}
10 H u0 p0 c0 {4,S}
11 H u0 p0 c0 {4,S}


>  <multiplicity>  (4) 
2

>  <reaction>  (4) 
rxn_758

>  <type>  (4) 
r1

>  <role_mapnums>  (4) 
{}

>  <role_mapidx>  (4) 
{}

>  <ordered_mapped_smiles>  (4) 
[CH:1]([CH:2]([C:3]([C:4]([H:9])([H:10])[H:11])[H:8])[H:7])([H:5])[H:6]

>  <level_of_theory>  (4) 
wb97xd/def2tzvp

>  <lot_method>  (4) 
wb97xd

>  <lot_basis>  (4) 
def2tzvp

>  <spin_multiplicity>  (4) 
2.0

>  <optical_isomers>  (4) 
1.0

>  <modes>  (4) 
IdealGasTranslation(mass=(55.0548, 'amu')),         NonlinearRotor(             inertia = ([13.1906, 125.273, 135.366

>  <frequency_value>  (4) 
unknown

>  <frequency_units>  (4) 
unknown

>  <frequency_list>  (4) 
unknown

>  <arkane_path>  (4) 
/home/calvin/Dropbox/PersonalFolders/Calvin/HAb_Converged/rxn_758/output/Species/rxn_758_[CH2]C=CC/arkane/output.py

>  <path_exists>  (4) 
True

>  <E0_value>  (4) 
-410861.3152320571

>  <E0_units>  (4) 
kJ/mol

>  <thermo_class>  (4) 
NASA

>  <Cp0_value>  (4) 
33.257888

>  <Cp0_units>  (4) 
J/(mol*K)

>  <CpInf_value>  (4) 
257.748632

>  <CpInf_units>  (4) 
J/(mol*K)

>  <Tmin_value>  (4) 
10.0

>  <Tmin_units>  (4) 
K

>  <Tmax_value>  (4) 
3000.0

>  <Tmax_units>  (4) 
K

>  <polynomials>  (4) 
[{"name": "polynomial1", "class": "NASAPolynomial", "Tmin_value": 10.0, "Tmin_units": "K", "Tmax_value": 463.64246954531046, "Tmax_units": "K", "coeffs": [3.9040453375997504, 0.008185759300872827, 7.728092547101295e-05, -1.3744434899865474e-07, 7.689078472376475e-11, -49415200.70379381, 8.995586768649591]}, {"name": "polynomial2", "class": "NASAPolynomial", "Tmin_value": 463.64246954531046, "Tmin_units": "K", "Tmax_value": 3000.0, "Tmax_units": "K", "coeffs": [0.31792990892071993, 0.03912466876764488, -2.2815139960113778e-05, 6.484049637250689e-09, -7.173504322720996e-13, -49414868.17174046, 23.54005070336339]}]

>  <H298_value>  (4) 
-98194.2858497546

>  <H298_units>  (4) 
kcal/mol

>  <S298_value>  (4) 
71.63333213598494

>  <S298_units>  (4) 
cal/(mol*K)

>  <Cp_T_value_list>  (4) 
[20.322911199838124, 25.267853069070732, 29.693139814826782, 33.55769166357428, 39.82755697366882, 44.50181620490233, 51.51425300026369, 55.04859648538022, 56.908557144746766]

>  <Cp_T_units>  (4) 
cal/(mol*K)

>  <T_list>  (4) 
[300.0, 400.0, 500.0, 600.0, 800.0, 1000.0, 1500.0, 2000.0, 2400.0]

>  <T_units>  (4) 
K

>  <yaml_path>  (4) 
/home/calvin/Dropbox/PersonalFolders/Calvin/HAb_Converged/rxn_758/output/Species/rxn_758_[CH2]C=CC/rxn_758_CH2C=CC.yml

>  <frequencies_cm1>  (4) 
[145.86850216744, 217.17527773031998, 290.56961683048, 508.82301125604, 544.53820190536, 739.89020028872, 798.30764440596, 881.33636391008, 988.47506887272, 989.4158458615598, 1023.15334473872, 1138.3744914229999, 1188.9155033782, 1281.84641571376, 1335.3196304005999, 1400.47358711676, 1459.61893167792, 1463.37517264796, 1502.4895210306797, 1514.45180945812, 2991.0802637736797, 3039.3139686613595, 3086.1330745731198, 3108.5469146576, 3124.5332564825594, 3127.2937845812003, 3223.3011063401195]

>  <ZPE_kJmol>  (4) 
245.90815043438468

>  <E_elec_kJmol>  (4) 
-411107.2233824915

>  <E0_minus_Eelec_plus_ZPE_kJmol>  (4) 
0.0

>  <rxn>  (4) 
rxn_758

>  <species_type>  (4) 
p1

>  <species_folder>  (4) 
rxn_758_[CH2]C=CC

>  <frequencies_cm1_list>  (4) 
[145.86850216744, 217.17527773031998, 290.56961683048, 508.82301125604, 544.53820190536, 739.89020028872, 798.30764440596, 881.33636391008, 988.47506887272, 989.4158458615598, 1023.15334473872, 1138.3744914229999, 1188.9155033782, 1281.84641571376, 1335.3196304005999, 1400.47358711676, 1459.61893167792, 1463.37517264796, 1502.4895210306797, 1514.45180945812, 2991.0802637736797, 3039.3139686613595, 3086.1330745731198, 3108.5469146576, 3124.5332564825594, 3127.2937845812003, 3223.3011063401195]

>  <E0_kJmol>  (4) 
-410861

>  <H298_kJmol>  (4) 
-410845

$$$$

     RDKit          3D

  4  3  0  0  0  0  0  0  0  0999 V2000
    0.0000    0.0000    0.0000 C   0  0  0  0  0  3  0  0  0  1  0  0
    1.0638   -0.1747    0.0540 H   0  0  0  0  0  0  0  0  0  2  0  0
   -0.6833   -0.8351   -0.0280 H   0  0  0  0  0  0  0  0  0  3  0  0
   -0.3805    1.0098   -0.0260 H   0  0  0  0  0  0  0  0  0  4  0  0
  1  3  1  0
  1  4  1  0
  1  2  1  0
M  RAD  1   1   2
M  END
>  <rmg_smiles>  (5) 
[CH3]

>  <rmg_adjacency_list>  (5) 
multiplicity 2
1 C u1 p0 c0 {2,S} {3,S} {4,S}
2 H u0 p0 c0 {1,S}
3 H u0 p0 c0 {1,S}
4 H u0 p0 c0 {1,S}


>  <multiplicity>  (5) 
2

>  <reaction>  (5) 
rxn_758

>  <type>  (5) 
r2

>  <role_mapnums>  (5) 
{}

>  <role_mapidx>  (5) 
{}

>  <ordered_mapped_smiles>  (5) 
[C:1]([H:2])([H:3])[H:4]

>  <level_of_theory>  (5) 
wb97xd/def2tzvp

>  <lot_method>  (5) 
wb97xd

>  <lot_basis>  (5) 
def2tzvp

>  <spin_multiplicity>  (5) 
2.0

>  <optical_isomers>  (5) 
1.0

>  <modes>  (5) 
IdealGasTranslation(mass=(15.0235, 'amu')),         NonlinearRotor(             inertia = ([1.76141, 1.76141, 3.52282

>  <frequency_value>  (5) 
unknown

>  <frequency_units>  (5) 
unknown

>  <frequency_list>  (5) 
unknown

>  <arkane_path>  (5) 
/home/calvin/Dropbox/PersonalFolders/Calvin/HAb_Converged/rxn_758/output/Species/rxn_758_[CH3]/arkane/output.py

>  <path_exists>  (5) 
True

>  <E0_value>  (5) 
-104520.13119505512

>  <E0_units>  (5) 
kJ/mol

>  <thermo_class>  (5) 
NASA

>  <Cp0_value>  (5) 
33.257888

>  <Cp0_units>  (5) 
J/(mol*K)

>  <CpInf_value>  (5) 
83.14472

>  <CpInf_units>  (5) 
J/(mol*K)

>  <Tmin_value>  (5) 
10.0

>  <Tmin_units>  (5) 
K

>  <Tmax_value>  (5) 
3000.0

>  <Tmax_units>  (5) 
K

>  <polynomials>  (5) 
[{"name": "polynomial1", "class": "NASAPolynomial", "Tmin_value": 10.0, "Tmin_units": "K", "Tmax_value": 646.6680568167106, "Tmax_units": "K", "coeffs": [3.9912271000461548, 0.0004274218009639198, 9.38132315134313e-06, -1.0944874554220949e-08, 4.263406085556096e-12, -12570867.748368958, 0.20527673099681187]}, {"name": "polynomial2", "class": "NASAPolynomial", "Tmin_value": 646.6680568167106, "Tmin_units": "K", "Tmax_value": 3000.0, "Tmax_units": "K", "coeffs": [3.2488827598675174, 0.0050187516265713635, -1.2675301815554908e-06, 3.215102013021586e-11, 2.0164394281080815e-14, -12570771.728238096, 3.4631324604304954]}]

>  <H298_value>  (5) 
-24978.383291331436

>  <H298_units>  (5) 
kcal/mol

>  <S298_value>  (5) 
46.49953999396709

>  <S298_units>  (5) 
cal/(mol*K)

>  <Cp_T_value_list>  (5) 
[9.345424201068383, 10.07887042200736, 10.827537754048599, 11.552428339520182, 12.871902382304132, 14.014614114932202, 16.167234911840477, 17.479674567657305, 18.096247059343543]

>  <Cp_T_units>  (5) 
cal/(mol*K)

>  <T_list>  (5) 
[300.0, 400.0, 500.0, 600.0, 800.0, 1000.0, 1500.0, 2000.0, 2400.0]

>  <T_units>  (5) 
K

>  <yaml_path>  (5) 
/home/calvin/Dropbox/PersonalFolders/Calvin/HAb_Converged/rxn_758/output/Species/rxn_758_[CH3]/rxn_758_CH3.yml

>  <frequencies_cm1>  (5) 
[520.22220688724, 1393.4280601784399, 1393.43492716376, 3088.8592677451597, 3268.6163424668, 3268.6232094521197]

>  <ZPE_kJmol>  (5) 
77.35764153782172

>  <E_elec_kJmol>  (5) 
-104597.48883659294

>  <E0_minus_Eelec_plus_ZPE_kJmol>  (5) 
0.0

>  <rxn>  (5) 
rxn_758

>  <species_type>  (5) 
r0

>  <species_folder>  (5) 
rxn_758_[CH3]

>  <frequencies_cm1_list>  (5) 
[520.22220688724, 1393.4280601784399, 1393.43492716376, 3088.8592677451597, 3268.6163424668, 3268.6232094521197]

>  <E0_kJmol>  (5) 
-104520

>  <H298_kJmol>  (5) 
-104510

$$$$
