
     RDKit          3D

 15 15  0  0  0  0  0  0  0  0999 V2000
    0.2897    0.1158    2.4026 C   0  0  0  0  0  0  0  0  0  1  0  0
    0.1432    0.0739    0.9380 C   0  0  0  0  0  0  0  0  0  2  0  0
   -0.7810    0.8929    0.2855 C   0  0  0  0  0  0  0  0  0  3  0  0
   -0.9706    0.8047   -1.0831 C   0  0  0  0  0  0  0  0  0  4  0  0
   -0.2414   -0.1078   -1.8324 C   0  0  0  0  0  0  0  0  0  5  0  0
    0.6808   -0.9286   -1.1987 C   0  0  0  0  0  0  0  0  0  6  0  0
    0.8693   -0.8392    0.1700 C   0  0  0  0  0  0  0  0  0  7  0  0
   -0.4267   -0.5940    2.8116 H   0  0  0  0  0  0  0  0  0  8  0  0
    1.2497   -0.2397    2.7721 H   0  0  0  0  0  0  0  0  0  9  0  0
    0.0084    1.0630    2.8590 H   0  0  0  0  0  0  0  0  0 10  0  0
   -1.3586    1.6043    0.8645 H   0  0  0  0  0  0  0  0  0 11  0  0
   -1.6912    1.4512   -1.5685 H   0  0  0  0  0  0  0  0  0 12  0  0
   -0.3889   -0.1770   -2.9025 H   0  0  0  0  0  0  0  0  0 13  0  0
    1.2564   -1.6426   -1.7747 H   0  0  0  0  0  0  0  0  0 14  0  0
    1.5874   -1.4878    0.6584 H   0  0  0  0  0  0  0  0  0 15  0  0
  1 10  1  0
  1  8  1  0
  1  9  1  0
  1  2  1  0
  2  7  1  0
  2  3  1  0
  3  4  1  0
  3 11  1  0
  4  5  1  0
  4 12  1  0
  5  6  1  0
  5 13  1  0
  6 14  1  0
  6  7  1  0
  7 15  1  0
M  END
>  <rmg_smiles>  (1) 
CC1[CH][CH][CH][CH][CH]1

>  <rmg_adjacency_list>  (1) 
1  C u0 p0 c0 {2,S} {8,S} {9,S} {10,S}
2  C u0 p0 c0 {1,S} {3,S} {4,S}
3  C u0 p0 c0 {2,S} {5,S} {11,S}
4  C u0 p0 c0 {2,S} {7,S} {15,S}
5  C u0 p0 c0 {3,S} {6,S} {12,S}
6  C u0 p0 c0 {5,S} {7,S} {13,S}
7  C u0 p0 c0 {4,S} {6,S} {14,S}
8  H u0 p0 c0 {1,S}
9  H u0 p0 c0 {1,S}
10 H u0 p0 c0 {1,S}
11 H u0 p0 c0 {3,S}
12 H u0 p0 c0 {5,S}
13 H u0 p0 c0 {6,S}
14 H u0 p0 c0 {7,S}
15 H u0 p0 c0 {4,S}


>  <multiplicity>  (1) 
1

>  <reaction>  (1) 
rxn_1451

>  <type>  (1) 
r1h

>  <role_mapnums>  (1) 
{"r1h_a": 1, "r1h_h": 8}

>  <role_mapidx>  (1) 
{"r1h_a": 0, "r1h_h": 7}

>  <ordered_mapped_smiles>  (1) 
[C:1]([CH:2]1[CH:3]([H:11])[CH:4]([H:12])[CH:5]([H:13])[CH:6]([H:14])[CH:7]1[H:15])([H:8])([H:9])[H:10]

>  <mol_properties>  (1) 
{"0": {"label": "donator", "atom_type": "Cs"}, "7": {"label": "d_hydrogen", "atom_type": "H0"}}

>  <level_of_theory>  (1) 
wb97xd/def2tzvp

>  <lot_method>  (1) 
wb97xd

>  <lot_basis>  (1) 
def2tzvp

>  <spin_multiplicity>  (1) 
1.0

>  <optical_isomers>  (1) 
1.0

>  <modes>  (1) 
IdealGasTranslation(mass=(92.0626, 'amu')),         NonlinearRotor(             inertia = ([90.1823, 198.896, 285.945

>  <frequency_value>  (1) 
unknown

>  <frequency_units>  (1) 
unknown

>  <frequency_list>  (1) 
unknown

>  <arkane_path>  (1) 
/home/calvin/Dropbox/PersonalFolders/Calvin/HAb_Converged/rxn_1451/output/Species/rxn_1451_Cc1ccccc1/arkane/output.py

>  <path_exists>  (1) 
True

>  <E0_value>  (1) 
-712667.4186954657

>  <E0_units>  (1) 
kJ/mol

>  <thermo_class>  (1) 
NASA

>  <Cp0_value>  (1) 
33.257888

>  <Cp0_units>  (1) 
J/(mol*K)

>  <CpInf_value>  (1) 
357.522296

>  <CpInf_units>  (1) 
J/(mol*K)

>  <Tmin_value>  (1) 
10.0

>  <Tmin_units>  (1) 
K

>  <Tmax_value>  (1) 
3000.0

>  <Tmax_units>  (1) 
K

>  <polynomials>  (1) 
[{"name": "polynomial1", "class": "NASAPolynomial", "Tmin_value": 10.0, "Tmin_units": "K", "Tmax_value": 551.6337437556739, "Tmax_units": "K", "coeffs": [3.980790839095313, 0.0003554759084543946, 0.0001740807555533119, -2.980551059269885e-07, 1.6260016547012624e-10, -85714089.33006716, 11.957866570352502]}, {"name": "polynomial2", "class": "NASAPolynomial", "Tmin_value": 551.6337437556739, "Tmin_units": "K", "Tmax_value": 3000.0, "Tmax_units": "K", "coeffs": [-2.464142884673319, 0.06292217705968887, -3.910410735823183e-05, 1.1617312031768996e-08, -1.3239292319465783e-12, -85713619.1845923, 37.0335001763548]}]

>  <H298_value>  (1) 
-170327.17110881128

>  <H298_units>  (1) 
kcal/mol

>  <S298_value>  (1) 
79.81344471114225

>  <S298_units>  (1) 
cal/(mol*K)

>  <Cp_T_value_list>  (1) 
[25.8819241324838, 33.907584394638754, 40.905333833989275, 46.79760597028022, 56.14405324051195, 62.889739407887795, 72.41562819521319, 76.94346395033827, 79.4531872673492]

>  <Cp_T_units>  (1) 
cal/(mol*K)

>  <T_list>  (1) 
[300.0, 400.0, 500.0, 600.0, 800.0, 1000.0, 1500.0, 2000.0, 2400.0]

>  <T_units>  (1) 
K

>  <yaml_path>  (1) 
/home/calvin/Dropbox/PersonalFolders/Calvin/HAb_Converged/rxn_1451/output/Species/rxn_1451_Cc1ccccc1/rxn_1451_Cc1ccccc1.yml

>  <frequencies_cm1>  (1) 
[32.67311615255999, 208.88682644908, 346.6454189536, 414.1066827372799, 475.62800421915995, 527.95443235756, 633.69913930024, 711.73556047672, 745.6928028841199, 800.1617304423601, 861.8684605278798, 915.5202168330399, 979.4449831769199, 991.60641417864, 997.6768292015198, 1015.82627140228, 1052.7363174972797, 1058.5389200926797, 1109.8078324918, 1173.8974064833599, 1201.1112693065197, 1232.0058362611999, 1316.04400260736, 1349.7815014845198, 1404.03755249784, 1462.1391152903598, 1476.8481978457999, 1495.6225357106798, 1530.4999541509599, 1640.12450779944, 1663.1975784746398, 3015.0391755551595, 3079.01201079628, 3101.631860440359, 3145.0655425893597, 3146.5282104625194, 3159.5205466879593, 3168.9008486350795, 3181.02107772488]

>  <ZPE_kJmol>  (1) 
333.8912309447283

>  <E_elec_kJmol>  (1) 
-713001.3099264104

>  <E0_minus_Eelec_plus_ZPE_kJmol>  (1) 
0.0

>  <rxn>  (1) 
rxn_1451

>  <species_type>  (1) 
r1

>  <species_folder>  (1) 
rxn_1451_Cc1ccccc1

>  <frequencies_cm1_list>  (1) 
[32.67311615255999, 208.88682644908, 346.6454189536, 414.1066827372799, 475.62800421915995, 527.95443235756, 633.69913930024, 711.73556047672, 745.6928028841199, 800.1617304423601, 861.8684605278798, 915.5202168330399, 979.4449831769199, 991.60641417864, 997.6768292015198, 1015.82627140228, 1052.7363174972797, 1058.5389200926797, 1109.8078324918, 1173.8974064833599, 1201.1112693065197, 1232.0058362611999, 1316.04400260736, 1349.7815014845198, 1404.03755249784, 1462.1391152903598, 1476.8481978457999, 1495.6225357106798, 1530.4999541509599, 1640.12450779944, 1663.1975784746398, 3015.0391755551595, 3079.01201079628, 3101.631860440359, 3145.0655425893597, 3146.5282104625194, 3159.5205466879593, 3168.9008486350795, 3181.02107772488]

>  <E0_kJmol>  (1) 
-712667

>  <H298_kJmol>  (1) 
-712649

$$$$

     RDKit          3D

  9  8  0  0  0  0  0  0  0  0999 V2000
   -0.3754   -0.2771   -1.2081 C   0  0  0  0  0  0  0  0  0  1  0  0
    0.2415    0.2417   -0.1728 C   0  0  0  0  0  0  0  0  0  2  0  0
    0.1169    0.0256    1.2851 C   0  0  0  0  0  0  0  0  0  3  0  0
   -0.1314    0.0232   -2.2223 H   0  0  0  0  0  0  0  0  0  4  0  0
   -1.1555   -1.0283   -1.0889 H   0  0  0  0  0  0  0  0  0  5  0  0
   -0.1498    0.9537    1.7959 H   0  0  0  0  0  0  0  0  0  6  0  0
   -0.6517   -0.7217    1.5079 H   0  0  0  0  0  0  0  0  0  7  0  0
    1.0623   -0.3184    1.7110 H   0  0  0  0  0  0  0  0  0  8  0  0
    0.9912    0.9757   -0.4684 H   0  0  0  0  0  0  0  0  0  9  0  0
  1  5  1  0
  1  4  1  0
  1  2  1  0
  2  9  1  0
  2  3  1  0
  3  6  1  0
  3  7  1  0
  3  8  1  0
M  END
>  <rmg_smiles>  (2) 
[CH2][CH]C

>  <rmg_adjacency_list>  (2) 
1 C u0 p0 c0 {2,S} {4,S} {5,S} {6,S}
2 C u0 p0 c0 {1,S} {3,S} {7,S}
3 C u0 p0 c0 {2,S} {8,S} {9,S}
4 H u0 p0 c0 {1,S}
5 H u0 p0 c0 {1,S}
6 H u0 p0 c0 {1,S}
7 H u0 p0 c0 {2,S}
8 H u0 p0 c0 {3,S}
9 H u0 p0 c0 {3,S}


>  <multiplicity>  (2) 
1

>  <reaction>  (2) 
rxn_1451

>  <type>  (2) 
r2h

>  <role_mapnums>  (2) 
{"r2h_a": 2, "r2h_h": 9}

>  <role_mapidx>  (2) 
{"r2h_a": 1, "r2h_h": 8}

>  <ordered_mapped_smiles>  (2) 
[CH:1]([CH:2]([C:3]([H:6])([H:7])[H:8])[H:9])([H:4])[H:5]

>  <mol_properties>  (2) 
{"1": {"label": "acceptor", "atom_type": "Cs"}, "8": {"label": "a_hydrogen", "atom_type": "H0"}}

>  <level_of_theory>  (2) 
wb97xd/def2tzvp

>  <lot_method>  (2) 
wb97xd

>  <lot_basis>  (2) 
def2tzvp

>  <spin_multiplicity>  (2) 
1.0

>  <optical_isomers>  (2) 
1.0

>  <modes>  (2) 
IdealGasTranslation(mass=(42.047, 'amu')),         NonlinearRotor(             inertia = ([10.7194, 53.9495, 61.5633

>  <frequency_value>  (2) 
unknown

>  <frequency_units>  (2) 
unknown

>  <frequency_list>  (2) 
unknown

>  <arkane_path>  (2) 
/home/calvin/Dropbox/PersonalFolders/Calvin/HAb_Converged/rxn_1451/output/Species/rxn_1451_C=CC/arkane/output.py

>  <path_exists>  (2) 
True

>  <E0_value>  (2) 
-309367.8832800635

>  <E0_units>  (2) 
kJ/mol

>  <thermo_class>  (2) 
NASA

>  <Cp0_value>  (2) 
33.257888

>  <Cp0_units>  (2) 
J/(mol*K)

>  <CpInf_value>  (2) 
207.8618

>  <CpInf_units>  (2) 
J/(mol*K)

>  <Tmin_value>  (2) 
10.0

>  <Tmin_units>  (2) 
K

>  <Tmax_value>  (2) 
3000.0

>  <Tmax_units>  (2) 
K

>  <polynomials>  (2) 
[{"name": "polynomial1", "class": "NASAPolynomial", "Tmin_value": 10.0, "Tmin_units": "K", "Tmax_value": 531.9023497709609, "Tmax_units": "K", "coeffs": [4.020436754491755, -0.0017312832104380363, 7.469370265230545e-05, -1.1039898498711941e-07, 5.3574137735187116e-11, -37208361.619618155, 6.984063090110562]}, {"name": "polynomial2", "class": "NASAPolynomial", "Tmin_value": 531.9023497709609, "Tmin_units": "K", "Tmax_value": 3000.0, "Tmax_units": "K", "coeffs": [-0.3074692238196298, 0.030814973487901538, -1.7087879790524166e-05, 4.635358664958502e-09, -4.926744683412411e-13, -37207901.20980013, 25.13156908468917]}]

>  <H298_value>  (2) 
-73937.54315081467

>  <H298_units>  (2) 
kcal/mol

>  <S298_value>  (2) 
63.235428095961645

>  <S298_units>  (2) 
cal/(mol*K)

>  <Cp_T_value_list>  (2) 
[15.255114522015797, 19.047133425532977, 22.60791439383976, 25.768633317290448, 30.960221568351287, 34.89993396116809, 40.97109585252985, 44.058427698996574, 45.61775859607519]

>  <Cp_T_units>  (2) 
cal/(mol*K)

>  <T_list>  (2) 
[300.0, 400.0, 500.0, 600.0, 800.0, 1000.0, 1500.0, 2000.0, 2400.0]

>  <T_units>  (2) 
K

>  <yaml_path>  (2) 
/home/calvin/Dropbox/PersonalFolders/Calvin/HAb_Converged/rxn_1451/output/Species/rxn_1451_C=CC/rxn_1451_C=CC.yml

>  <frequencies_cm1>  (2) 
[200.92112347787997, 429.72220735495995, 590.1693193567598, 925.5460154002399, 944.49202789812, 949.7315376972799, 1024.05291981564, 1068.7501272635197, 1186.76613697304, 1322.2792252779197, 1396.37399688072, 1440.26090006084, 1466.0326959668, 1481.02332492036, 1720.5094379553598, 3007.2932161142003, 3065.80679802592, 3091.5648599612396, 3111.3280437122, 3123.2628641983597, 3201.2855514042]

>  <ZPE_kJmol>  (2) 
207.8343042708976

>  <E_elec_kJmol>  (2) 
-309575.71758433443

>  <E0_minus_Eelec_plus_ZPE_kJmol>  (2) 
0.0

>  <rxn>  (2) 
rxn_1451

>  <species_type>  (2) 
p0

>  <species_folder>  (2) 
rxn_1451_C=CC

>  <frequencies_cm1_list>  (2) 
[200.92112347787997, 429.72220735495995, 590.1693193567598, 925.5460154002399, 944.49202789812, 949.7315376972799, 1024.05291981564, 1068.7501272635197, 1186.76613697304, 1322.2792252779197, 1396.37399688072, 1440.26090006084, 1466.0326959668, 1481.02332492036, 1720.5094379553598, 3007.2932161142003, 3065.80679802592, 3091.5648599612396, 3111.3280437122, 3123.2628641983597, 3201.2855514042]

>  <E0_kJmol>  (2) 
-309368

>  <H298_kJmol>  (2) 
-309355

$$$$

     RDKit          3D

 23 22  0  0  0  0  0  0  0  0999 V2000
   -1.5689   -1.6187    1.1915 C   0  0  0  0  0  0  0  0  0  1  0  0
   -0.9520   -1.0999    2.2268 C   0  0  0  0  0  3  0  0  0  2  0  0
   -1.0766   -1.3160    3.6847 C   0  0  0  0  0  0  0  0  0  3  0  0
   -1.3249   -1.3184    0.1773 H   0  0  0  0  0  0  0  0  0  4  0  0
   -2.3490   -2.3699    1.3108 H   0  0  0  0  0  0  0  0  0  5  0  0
   -1.3433   -0.3879    4.1955 H   0  0  0  0  0  0  0  0  0  6  0  0
   -1.8452   -2.0633    3.9075 H   0  0  0  0  0  0  0  0  0  7  0  0
   -0.1312   -1.6600    4.1106 H   0  0  0  0  0  0  0  0  0  8  0  0
    0.8685    0.6924    1.3619 C   0  0  0  0  0  0  0  0  0  9  0  0
    0.7220    0.6504   -0.1027 C   0  0  0  0  0  0  0  0  0 10  0  0
   -0.2022    1.4694   -0.7552 C   0  0  0  0  0  0  0  0  0 11  0  0
   -0.3918    1.3812   -2.1238 C   0  0  0  0  0  0  0  0  0 12  0  0
    0.3374    0.4687   -2.8730 C   0  0  0  0  0  0  0  0  0 13  0  0
    1.2596   -0.3521   -2.2393 C   0  0  0  0  0  0  0  0  0 14  0  0
    1.4481   -0.2626   -0.8707 C   0  0  0  0  0  0  0  0  0 15  0  0
    0.0353   -0.1332    1.8375 H   0  0  0  0  0  0  0  0  0 16  0  0
    1.8285    0.3368    1.7314 H   0  0  0  0  0  0  0  0  0 17  0  0
    0.5873    1.6395    1.8183 H   0  0  0  0  0  0  0  0  0 18  0  0
   -0.7798    2.1808   -0.1762 H   0  0  0  0  0  0  0  0  0 19  0  0
   -1.1124    2.0277   -2.6092 H   0  0  0  0  0  0  0  0  0 20  0  0
    0.1899    0.3995   -3.9432 H   0  0  0  0  0  0  0  0  0 21  0  0
    1.8352   -1.0661   -2.8154 H   0  0  0  0  0  0  0  0  0 22  0  0
    2.1662   -0.9113   -0.3823 H   0  0  0  0  0  0  0  0  0 23  0  0
  1  4  1  0
  1  5  1  0
  1  2  1  0
  2  3  1  0
  3  6  1  0
  3  8  1  0
  3  7  1  0
  9 17  1  0
  9 18  1  0
  9 16  1  0
  9 10  1  0
 10 11  1  0
 10 15  1  0
 11 19  1  0
 11 12  1  0
 12 20  1  0
 12 13  1  0
 13 21  1  0
 13 14  1  0
 14 15  1  0
 14 22  1  0
 15 23  1  0
M  RAD  1   2   2
M  END
>  <rmg_smiles>  (3) 
CC1[CH][CH][CH][CH][CH]1.[CH2][C]C

>  <rmg_adjacency_list>  (3) 
multiplicity 2
1  C u0 p0 c0 {3,S} {11,S} {12,S} {13,S}
2  C u0 p0 c0 {10,S} {14,S} {15,S} {16,S}
3  C u0 p0 c0 {1,S} {4,S} {5,S}
4  C u0 p0 c0 {3,S} {6,S} {17,S}
5  C u0 p0 c0 {3,S} {8,S} {21,S}
6  C u0 p0 c0 {4,S} {7,S} {18,S}
7  C u0 p0 c0 {6,S} {8,S} {19,S}
8  C u0 p0 c0 {5,S} {7,S} {20,S}
9  C u0 p0 c0 {10,S} {22,S} {23,S}
10 C u1 p1 c0 {2,S} {9,S}
11 H u0 p0 c0 {1,S}
12 H u0 p0 c0 {1,S}
13 H u0 p0 c0 {1,S}
14 H u0 p0 c0 {2,S}
15 H u0 p0 c0 {2,S}
16 H u0 p0 c0 {2,S}
17 H u0 p0 c0 {4,S}
18 H u0 p0 c0 {6,S}
19 H u0 p0 c0 {7,S}
20 H u0 p0 c0 {8,S}
21 H u0 p0 c0 {5,S}
22 H u0 p0 c0 {9,S}
23 H u0 p0 c0 {9,S}


>  <multiplicity>  (3) 
2

>  <reaction>  (3) 
rxn_1451

>  <type>  (3) 
ts

>  <role_mapnums>  (3) 
{"*2": 16, "*1": 9, "*3": 2, "*0": 10, "*4": 1}

>  <role_mapidx>  (3) 
{"*2": 15, "*1": 8, "*3": 1, "*0": 9, "*4": 0}

>  <ordered_mapped_smiles>  (3) 
[CH:1]([CH:2][C:3]([H:6])([H:7])[H:8])([H:4])[H:5].[C:9]([CH:10]1[CH:11]([H:19])[CH:12]([H:20])[CH:13]([H:21])[CH:14]([H:22])[CH:15]1[H:23])([H:16])([H:17])[H:18]

>  <mol_properties>  (3) 
{"0": {"label": "*4", "atom_type": "Cs"}, "1": {"label": "*3", "atom_type": "C2s"}, "8": {"label": "*1", "atom_type": "Cs"}, "9": {"label": "*0", "atom_type": "Cs"}, "15": {"label": "*2", "atom_type": "H0"}}

>  <level_of_theory>  (3) 
wb97xd/def2tzvp

>  <lot_method>  (3) 
wb97xd

>  <lot_basis>  (3) 
def2tzvp

>  <spin_multiplicity>  (3) 
2.0

>  <optical_isomers>  (3) 
1.0

>  <modes>  (3) 
IdealGasTranslation(mass=(133.102, 'amu')),         NonlinearRotor(             inertia = ([195.594, 781.969, 796.525

>  <frequency_value>  (3) 
-1533.94

>  <frequency_units>  (3) 
cm^-1

>  <frequency_list>  (3) 
unknown

>  <arkane_path>  (3) 
/home/calvin/Dropbox/PersonalFolders/Calvin/HAb_Converged/rxn_1451/output/rxns/TS0/arkane/output.py

>  <path_exists>  (3) 
True

>  <E0_value>  (3) 
-1020260.0

>  <E0_units>  (3) 
kJ/mol

>  <thermo_class>  (3) 
unknown

>  <Cp0_value>  (3) 
unknown

>  <Cp0_units>  (3) 
unknown

>  <CpInf_value>  (3) 
unknown

>  <CpInf_units>  (3) 
unknown

>  <Tmin_value>  (3) 
unknown

>  <Tmin_units>  (3) 
unknown

>  <Tmax_value>  (3) 
unknown

>  <Tmax_units>  (3) 
unknown

>  <polynomials>  (3) 
unknown

>  <H298_value>  (3) 
unknown

>  <H298_units>  (3) 
unknown

>  <S298_value>  (3) 
unknown

>  <S298_units>  (3) 
unknown

>  <Cp_T_value_list>  (3) 
unknown

>  <Cp_T_units>  (3) 
unknown

>  <T_list>  (3) 
unknown

>  <T_units>  (3) 
unknown

>  <yaml_path>  (3) 
unknown

>  <frequencies_cm1>  (3) 
unknown

>  <ZPE_kJmol>  (3) 
unknown

>  <E_elec_kJmol>  (3) 
unknown

>  <E0_minus_Eelec_plus_ZPE_kJmol>  (3) 
unknown

>  <rxn>  (3) 
unknown

>  <species_type>  (3) 
unknown

>  <species_folder>  (3) 
unknown

>  <frequencies_cm1_list>  (3) 
[]

>  <ts_imag_freq_cm1>  (3) 
-1552.5675

>  <ts_freq_out_path>  (3) 
/home/calvin/Dropbox/PersonalFolders/Calvin/HAb_Converged/rxn_1451/output/rxns/TS0/geometry/freq.out

>  <E0_kJmol>  (3) 
-1.02026e+06

>  <H298_kJmol>  (3) 
unknown

$$$$

     RDKit          3D

 14 14  0  0  0  0  0  0  0  0999 V2000
    2.3111    0.1295    0.0255 C   0  0  0  0  0  0  0  0  0  1  0  0
    0.9132    0.0511    0.0101 C   0  0  0  0  0  0  0  0  0  2  0  0
    0.2446   -1.1981    0.0389 C   0  0  0  0  0  3  0  0  0  3  0  0
   -1.1306   -1.2689    0.0235 C   0  0  0  0  0  0  0  0  0  4  0  0
   -1.8967   -0.1062   -0.0209 C   0  0  0  0  0  0  0  0  0  5  0  0
   -1.2644    1.1347   -0.0499 C   0  0  0  0  0  0  0  0  0  6  0  0
    0.1101    1.2180   -0.0350 C   0  0  0  0  0  0  0  0  0  7  0  0
    2.9188   -0.7647    0.0599 H   0  0  0  0  0  0  0  0  0  8  0  0
    2.8158    1.0859    0.0034 H   0  0  0  0  0  0  0  0  0  9  0  0
    0.8353   -2.1058    0.0735 H   0  0  0  0  0  0  0  0  0 10  0  0
   -1.6191   -2.2351    0.0461 H   0  0  0  0  0  0  0  0  0 11  0  0
   -2.9772   -0.1668   -0.0328 H   0  0  0  0  0  0  0  0  0 12  0  0
   -1.8572    2.0404   -0.0845 H   0  0  0  0  0  0  0  0  0 13  0  0
    0.5964    2.1860   -0.0577 H   0  0  0  0  0  0  0  0  0 14  0  0
  1  8  1  0
  1  9  1  0
  1  2  1  0
  2  7  1  0
  2  3  1  0
  3  4  1  0
  3 10  1  0
  4  5  1  0
  4 11  1  0
  5 12  1  0
  5  6  1  0
  6 13  1  0
  6  7  1  0
  7 14  1  0
M  RAD  1   3   2
M  END
>  <rmg_smiles>  (4) 
[CH2]C1[CH][CH][CH][CH][CH]1

>  <rmg_adjacency_list>  (4) 
multiplicity 2
1  C u0 p0 c0 {2,S} {3,S} {7,S}
2  C u1 p0 c0 {1,S} {4,S} {8,S}
3  C u0 p0 c0 {1,S} {6,S} {12,S}
4  C u0 p0 c0 {2,S} {5,S} {9,S}
5  C u0 p0 c0 {4,S} {6,S} {10,S}
6  C u0 p0 c0 {3,S} {5,S} {11,S}
7  C u0 p0 c0 {1,S} {13,S} {14,S}
8  H u0 p0 c0 {2,S}
9  H u0 p0 c0 {4,S}
10 H u0 p0 c0 {5,S}
11 H u0 p0 c0 {6,S}
12 H u0 p0 c0 {3,S}
13 H u0 p0 c0 {7,S}
14 H u0 p0 c0 {7,S}


>  <multiplicity>  (4) 
2

>  <reaction>  (4) 
rxn_1451

>  <type>  (4) 
r1

>  <role_mapnums>  (4) 
{}

>  <role_mapidx>  (4) 
{}

>  <ordered_mapped_smiles>  (4) 
[CH:1]([CH:2]1[C:3]([H:10])[CH:4]([H:11])[CH:5]([H:12])[CH:6]([H:13])[CH:7]1[H:14])([H:8])[H:9]

>  <level_of_theory>  (4) 
wb97xd/def2tzvp

>  <lot_method>  (4) 
wb97xd

>  <lot_basis>  (4) 
def2tzvp

>  <spin_multiplicity>  (4) 
2.0

>  <optical_isomers>  (4) 
1.0

>  <modes>  (4) 
IdealGasTranslation(mass=(91.0548, 'amu')),         NonlinearRotor(             inertia = ([90.2688, 184.999, 275.268

>  <frequency_value>  (4) 
unknown

>  <frequency_units>  (4) 
unknown

>  <frequency_list>  (4) 
unknown

>  <arkane_path>  (4) 
/home/calvin/Dropbox/PersonalFolders/Calvin/HAb_Converged/rxn_1451/output/Species/rxn_1451_[CH2]c1ccccc1/arkane/output.py

>  <path_exists>  (4) 
True

>  <E0_value>  (4) 
-710982.0623900568

>  <E0_units>  (4) 
kJ/mol

>  <thermo_class>  (4) 
NASA

>  <Cp0_value>  (4) 
33.257888

>  <Cp0_units>  (4) 
J/(mol*K)

>  <CpInf_value>  (4) 
332.57888

>  <CpInf_units>  (4) 
J/(mol*K)

>  <Tmin_value>  (4) 
10.0

>  <Tmin_units>  (4) 
K

>  <Tmax_value>  (4) 
3000.0

>  <Tmax_units>  (4) 
K

>  <polynomials>  (4) 
[{"name": "polynomial1", "class": "NASAPolynomial", "Tmin_value": 10.0, "Tmin_units": "K", "Tmax_value": 553.2111543820812, "Tmax_units": "K", "coeffs": [4.142543100339783, -0.014218751426311257, 0.00025768288845109076, -4.6329717299686994e-07, 2.6710359880098635e-10, -85511387.18345657, 10.487952528933349]}, {"name": "polynomial2", "class": "NASAPolynomial", "Tmin_value": 553.2111543820812, "Tmin_units": "K", "Tmax_value": 3000.0, "Tmax_units": "K", "coeffs": [-0.7942858141271507, 0.05799977662333905, -3.716272398168618e-05, 1.1355668259156845e-08, -1.3253477782048034e-12, -85511399.83716469, 26.33142406546513]}]

>  <H298_value>  (4) 
-169924.63454747986

>  <H298_units>  (4) 
kcal/mol

>  <S298_value>  (4) 
74.98251677136349

>  <S298_units>  (4) 
cal/(mol*K)

>  <Cp_T_value_list>  (4) 
[25.283015903963822, 33.526434594449704, 40.21254996448577, 45.52304336844698, 53.838654110521205, 59.76143460322508, 67.97251244989147, 71.92525639213041, 74.23565100621211]

>  <Cp_T_units>  (4) 
cal/(mol*K)

>  <T_list>  (4) 
[300.0, 400.0, 500.0, 600.0, 800.0, 1000.0, 1500.0, 2000.0, 2400.0]

>  <T_units>  (4) 
K

>  <yaml_path>  (4) 
/home/calvin/Dropbox/PersonalFolders/Calvin/HAb_Converged/rxn_1451/output/Species/rxn_1451_[CH2]c1ccccc1/rxn_1451_CH2c1ccccc1.yml

>  <frequencies_cm1>  (4) 
[200.24815891652, 361.60171298056, 390.17523889708, 478.87608827552, 500.34228438583995, 531.78621016612, 625.85017507948, 685.3594698625999, 711.2686054749599, 777.5487477835999, 833.0683240958, 836.50868374112, 906.74420959408, 969.6801300518798, 974.03379874476, 983.70251407532, 992.09397013636, 1038.3980521491198, 1114.7108600102797, 1165.8355657176799, 1178.3403459854, 1276.27729061924, 1315.886061945, 1345.4965026448397, 1472.9546171693598, 1482.97354875124, 1496.57704667016, 1589.63156474148, 1604.18957361988, 3131.52384753832, 3150.75140643432, 3153.26472306144, 3164.65705170732, 3171.3798303356, 3183.3901876602795, 3230.66251460316]

>  <ZPE_kJmol>  (4) 
299.2207520027369

>  <E_elec_kJmol>  (4) 
-711281.2831420596

>  <E0_minus_Eelec_plus_ZPE_kJmol>  (4) 
0.0

>  <rxn>  (4) 
rxn_1451

>  <species_type>  (4) 
p1

>  <species_folder>  (4) 
rxn_1451_[CH2]c1ccccc1

>  <frequencies_cm1_list>  (4) 
[200.24815891652, 361.60171298056, 390.17523889708, 478.87608827552, 500.34228438583995, 531.78621016612, 625.85017507948, 685.3594698625999, 711.2686054749599, 777.5487477835999, 833.0683240958, 836.50868374112, 906.74420959408, 969.6801300518798, 974.03379874476, 983.70251407532, 992.09397013636, 1038.3980521491198, 1114.7108600102797, 1165.8355657176799, 1178.3403459854, 1276.27729061924, 1315.886061945, 1345.4965026448397, 1472.9546171693598, 1482.97354875124, 1496.57704667016, 1589.63156474148, 1604.18957361988, 3131.52384753832, 3150.75140643432, 3153.26472306144, 3164.65705170732, 3171.3798303356, 3183.3901876602795, 3230.66251460316]

>  <E0_kJmol>  (4) 
-710982

>  <H298_kJmol>  (4) 
-710965

$$$$

     RDKit          3D

  8  7  0  0  0  0  0  0  0  0999 V2000
    1.4097   -0.3618   -0.1144 C   0  0  0  0  0  0  0  0  0  1  0  0
    0.1804   -0.1811   -0.5085 C   0  0  0  0  0  3  0  0  0  2  0  0
   -1.1132    0.2655    0.0162 C   0  0  0  0  0  0  0  0  0  3  0  0
    2.1849   -0.7256   -0.7809 H   0  0  0  0  0  0  0  0  0  4  0  0
    1.7118   -0.1519    0.9143 H   0  0  0  0  0  0  0  0  0  5  0  0
   -1.8662   -0.5198   -0.0756 H   0  0  0  0  0  0  0  0  0  6  0  0
   -1.0300    0.5356    1.0772 H   0  0  0  0  0  0  0  0  0  7  0  0
   -1.4772    1.1391   -0.5284 H   0  0  0  0  0  0  0  0  0  8  0  0
  1  5  1  0
  1  4  1  0
  1  2  1  0
  2  3  1  0
  3  6  1  0
  3  7  1  0
  3  8  1  0
M  RAD  1   2   2
M  END
>  <rmg_smiles>  (5) 
[CH2][C]C

>  <rmg_adjacency_list>  (5) 
multiplicity 2
1 C u0 p0 c0 {3,S} {4,S} {5,S} {6,S}
2 C u0 p0 c0 {3,S} {7,S} {8,S}
3 C u1 p1 c0 {1,S} {2,S}
4 H u0 p0 c0 {1,S}
5 H u0 p0 c0 {1,S}
6 H u0 p0 c0 {1,S}
7 H u0 p0 c0 {2,S}
8 H u0 p0 c0 {2,S}


>  <multiplicity>  (5) 
2

>  <reaction>  (5) 
rxn_1451

>  <type>  (5) 
r2

>  <role_mapnums>  (5) 
{}

>  <role_mapidx>  (5) 
{}

>  <ordered_mapped_smiles>  (5) 
[CH:1]([CH:2][C:3]([H:6])([H:7])[H:8])([H:4])[H:5]

>  <level_of_theory>  (5) 
wb97xd/def2tzvp

>  <lot_method>  (5) 
wb97xd

>  <lot_basis>  (5) 
def2tzvp

>  <spin_multiplicity>  (5) 
2.0

>  <optical_isomers>  (5) 
1.0

>  <modes>  (5) 
IdealGasTranslation(mass=(41.0391, 'amu')),         NonlinearRotor(             inertia = ([6.71616, 57.9316, 61.5152

>  <frequency_value>  (5) 
unknown

>  <frequency_units>  (5) 
unknown

>  <frequency_list>  (5) 
unknown

>  <arkane_path>  (5) 
/home/calvin/Dropbox/PersonalFolders/Calvin/HAb_Converged/rxn_1451/output/Species/rxn_1451_C=[C]C/arkane/output.py

>  <path_exists>  (5) 
True

>  <E0_value>  (5) 
-307613.2565359382

>  <E0_units>  (5) 
kJ/mol

>  <thermo_class>  (5) 
NASA

>  <Cp0_value>  (5) 
33.257888

>  <Cp0_units>  (5) 
J/(mol*K)

>  <CpInf_value>  (5) 
182.918384

>  <CpInf_units>  (5) 
J/(mol*K)

>  <Tmin_value>  (5) 
10.0

>  <Tmin_units>  (5) 
K

>  <Tmax_value>  (5) 
3000.0

>  <Tmax_units>  (5) 
K

>  <polynomials>  (5) 
[{"name": "polynomial1", "class": "NASAPolynomial", "Tmin_value": 10.0, "Tmin_units": "K", "Tmax_value": 538.1691789473834, "Tmax_units": "K", "coeffs": [3.930388621958631, 0.005418243604318199, 4.1149964213001755e-05, -6.44397007750753e-08, 3.128163131623284e-11, -36997327.50077403, 7.425360611508676]}, {"name": "polynomial2", "class": "NASAPolynomial", "Tmin_value": 538.1691789473834, "Tmin_units": "K", "Tmax_value": 3000.0, "Tmax_units": "K", "coeffs": [1.2730535632455424, 0.025169201186377266, -1.3900535176641785e-05, 3.7551921212067664e-09, -3.9753237450935596e-13, -36997041.482049726, 18.599024295971038]}]

>  <H298_value>  (5) 
-73518.02602426111

>  <H298_units>  (5) 
kcal/mol

>  <S298_value>  (5) 
65.08531904367933

>  <S298_units>  (5) 
cal/(mol*K)

>  <Cp_T_value_list>  (5) 
[15.446293373866949, 18.596972467532616, 21.51576465953988, 24.104780903037458, 28.361214656371466, 31.595349945230733, 36.588281074967114, 39.1287601420227, 40.409167688525535]

>  <Cp_T_units>  (5) 
cal/(mol*K)

>  <T_list>  (5) 
[300.0, 400.0, 500.0, 600.0, 800.0, 1000.0, 1500.0, 2000.0, 2400.0]

>  <T_units>  (5) 
K

>  <yaml_path>  (5) 
/home/calvin/Dropbox/PersonalFolders/Calvin/HAb_Converged/rxn_1451/output/Species/rxn_1451_C=[C]C/rxn_1451_C=CC.yml

>  <frequencies_cm1>  (5) 
[176.04890264884, 312.71564448747995, 484.0194602802, 893.4634599852, 895.1939402858399, 932.7632169715598, 1043.3422815795197, 1098.3399670074, 1378.28635754784, 1408.11654177792, 1443.1999697778, 1458.9940360138, 1748.70527967928, 2967.7256467003594, 3032.41264841476, 3055.0530990147995, 3082.9330594139997, 3144.5573856756796]

>  <ZPE_kJmol>  (5) 
170.8020872739218

>  <E_elec_kJmol>  (5) 
-307784.0586232121

>  <E0_minus_Eelec_plus_ZPE_kJmol>  (5) 
0.0

>  <rxn>  (5) 
rxn_1451

>  <species_type>  (5) 
r0

>  <species_folder>  (5) 
rxn_1451_C=[C]C

>  <frequencies_cm1_list>  (5) 
[176.04890264884, 312.71564448747995, 484.0194602802, 893.4634599852, 895.1939402858399, 932.7632169715598, 1043.3422815795197, 1098.3399670074, 1378.28635754784, 1408.11654177792, 1443.1999697778, 1458.9940360138, 1748.70527967928, 2967.7256467003594, 3032.41264841476, 3055.0530990147995, 3082.9330594139997, 3144.5573856756796]

>  <E0_kJmol>  (5) 
-307613

>  <H298_kJmol>  (5) 
-307599

$$$$
