
     RDKit          3D

  9  8  0  0  0  0  0  0  0  0999 V2000
   -0.4124    0.1764   -1.1861 C   0  0  0  0  0  0  0  0  0  1  0  0
   -0.0384   -0.4453   -0.0590 C   0  0  0  0  0  0  0  0  0  2  0  0
    0.4539    0.2178    1.1277 C   0  0  0  0  0  0  0  0  0  3  0  0
   -0.8110   -0.3728   -2.0287 H   0  0  0  0  0  0  0  0  0  4  0  0
   -0.3163    1.2513   -1.2947 H   0  0  0  0  0  0  0  0  0  5  0  0
   -0.1567   -1.5232   -0.0002 H   0  0  0  0  0  0  0  0  0  6  0  0
   -0.4118    0.3422    1.7733 H   0  0  0  0  0  0  0  0  0  7  0  0
    0.7847    1.2461    1.0003 H   0  0  0  0  0  0  0  0  0  8  0  0
    1.0958   -0.3670    1.7808 H   0  0  0  0  0  0  0  0  0  9  0  0
  1  5  1  0
  1  4  1  0
  1  2  1  0
  2  6  1  0
  2  3  1  0
  3  8  1  0
  3  7  1  0
  3  9  1  0
M  END
>  <rmg_smiles>  (1) 
[CH2][CH]C

>  <rmg_adjacency_list>  (1) 
1 C u0 p0 c0 {2,S} {4,S} {5,S} {6,S}
2 C u0 p0 c0 {1,S} {3,S} {7,S}
3 C u0 p0 c0 {2,S} {8,S} {9,S}
4 H u0 p0 c0 {1,S}
5 H u0 p0 c0 {1,S}
6 H u0 p0 c0 {1,S}
7 H u0 p0 c0 {2,S}
8 H u0 p0 c0 {3,S}
9 H u0 p0 c0 {3,S}


>  <multiplicity>  (1) 
1

>  <reaction>  (1) 
rxn_1000

>  <type>  (1) 
r1h

>  <role_mapnums>  (1) 
{"r1h_a": 3, "r1h_h": 7}

>  <role_mapidx>  (1) 
{"r1h_a": 2, "r1h_h": 6}

>  <ordered_mapped_smiles>  (1) 
[CH:1]([CH:2]([C:3]([H:7])([H:8])[H:9])[H:6])([H:4])[H:5]

>  <mol_properties>  (1) 
{"2": {"label": "donator", "atom_type": "Cs"}, "6": {"label": "d_hydrogen", "atom_type": "H0"}}

>  <level_of_theory>  (1) 
wb97xd/def2tzvp

>  <lot_method>  (1) 
wb97xd

>  <lot_basis>  (1) 
def2tzvp

>  <spin_multiplicity>  (1) 
1.0

>  <optical_isomers>  (1) 
1.0

>  <modes>  (1) 
IdealGasTranslation(mass=(42.047, 'amu')),         NonlinearRotor(             inertia = ([10.7194, 53.9495, 61.5633

>  <frequency_value>  (1) 
unknown

>  <frequency_units>  (1) 
unknown

>  <frequency_list>  (1) 
unknown

>  <arkane_path>  (1) 
/home/calvin/Dropbox/PersonalFolders/Calvin/HAb_Converged/rxn_1000/output/Species/rxn_1000_C=CC/arkane/output.py

>  <path_exists>  (1) 
True

>  <E0_value>  (1) 
-309367.8832800635

>  <E0_units>  (1) 
kJ/mol

>  <thermo_class>  (1) 
NASA

>  <Cp0_value>  (1) 
33.257888

>  <Cp0_units>  (1) 
J/(mol*K)

>  <CpInf_value>  (1) 
207.8618

>  <CpInf_units>  (1) 
J/(mol*K)

>  <Tmin_value>  (1) 
10.0

>  <Tmin_units>  (1) 
K

>  <Tmax_value>  (1) 
3000.0

>  <Tmax_units>  (1) 
K

>  <polynomials>  (1) 
[{"name": "polynomial1", "class": "NASAPolynomial", "Tmin_value": 10.0, "Tmin_units": "K", "Tmax_value": 531.9066404514887, "Tmax_units": "K", "coeffs": [4.0204367106395305, -0.0017312814973888466, 7.469369070858841e-05, -1.103989586823944e-07, 5.357411953540602e-11, -37208361.619619094, 6.984063163619424]}, {"name": "polynomial2", "class": "NASAPolynomial", "Tmin_value": 531.9066404514887, "Tmin_units": "K", "Tmax_value": 3000.0, "Tmax_units": "K", "coeffs": [-0.30746978474152303, 0.03081497539241948, -1.7087881859194207e-05, 4.635359552359225e-09, -4.926745989402899e-13, -37207901.209693715, 25.131571818199003]}]

>  <H298_value>  (1) 
-73937.54315081466

>  <H298_units>  (1) 
kcal/mol

>  <S298_value>  (1) 
63.235428095961645

>  <S298_units>  (1) 
cal/(mol*K)

>  <Cp_T_value_list>  (1) 
[15.255114438428619, 19.0471333221202, 22.6079143488244, 25.768633340780376, 30.96022164704354, 34.89993402421754, 40.97109580318192, 44.05842766532305, 45.61775865339882]

>  <Cp_T_units>  (1) 
cal/(mol*K)

>  <T_list>  (1) 
[300.0, 400.0, 500.0, 600.0, 800.0, 1000.0, 1500.0, 2000.0, 2400.0]

>  <T_units>  (1) 
K

>  <yaml_path>  (1) 
/home/calvin/Dropbox/PersonalFolders/Calvin/HAb_Converged/rxn_1000/output/Species/rxn_1000_C=CC/rxn_1000_C=CC.yml

>  <frequencies_cm1>  (1) 
[200.92112347787997, 429.72220735495995, 590.1693193567598, 925.5460154002399, 944.49202789812, 949.7315376972799, 1024.05291981564, 1068.7501272635197, 1186.76613697304, 1322.2792252779197, 1396.37399688072, 1440.26090006084, 1466.0326959668, 1481.02332492036, 1720.5094379553598, 3007.2932161142003, 3065.80679802592, 3091.5648599612396, 3111.3280437122, 3123.2628641983597, 3201.2855514042]

>  <ZPE_kJmol>  (1) 
207.8343042708976

>  <E_elec_kJmol>  (1) 
-309575.71758433443

>  <E0_minus_Eelec_plus_ZPE_kJmol>  (1) 
0.0

>  <rxn>  (1) 
rxn_1000

>  <species_type>  (1) 
r1

>  <species_folder>  (1) 
rxn_1000_C=CC

>  <frequencies_cm1_list>  (1) 
[200.92112347787997, 429.72220735495995, 590.1693193567598, 925.5460154002399, 944.49202789812, 949.7315376972799, 1024.05291981564, 1068.7501272635197, 1186.76613697304, 1322.2792252779197, 1396.37399688072, 1440.26090006084, 1466.0326959668, 1481.02332492036, 1720.5094379553598, 3007.2932161142003, 3065.80679802592, 3091.5648599612396, 3111.3280437122, 3123.2628641983597, 3201.2855514042]

>  <E0_kJmol>  (1) 
-309368

>  <H298_kJmol>  (1) 
-309355

$$$$

     RDKit          3D

 12 11  0  0  0  0  0  0  0  0999 V2000
   -0.7909   -1.3492   -0.4129 C   0  0  0  0  0  0  0  0  0  1  0  0
    0.0583   -0.8430    0.4857 C   0  0  0  0  0  0  0  0  0  2  0  0
    0.6577    0.4845    0.4412 C   0  0  0  0  0  0  0  0  0  3  0  0
    0.0323    1.5436   -0.4292 C   0  0  0  0  0  0  0  0  0  4  0  0
   -1.1546   -2.3648   -0.3269 H   0  0  0  0  0  0  0  0  0  5  0  0
   -1.1557   -0.7670   -1.2502 H   0  0  0  0  0  0  0  0  0  6  0  0
    0.3882   -1.4841    1.2987 H   0  0  0  0  0  0  0  0  0  7  0  0
    0.9911    0.8445    1.4133 H   0  0  0  0  0  0  0  0  0  8  0  0
   -0.9963    1.7534   -0.1223 H   0  0  0  0  0  0  0  0  0  9  0  0
    0.5995    2.4734   -0.3744 H   0  0  0  0  0  0  0  0  0 10  0  0
    0.0100    1.2292   -1.4750 H   0  0  0  0  0  0  0  0  0 11  0  0
    1.6086    0.3086   -0.0592 H   0  0  0  0  0  0  0  0  0 12  0  0
  1  5  1  0
  1  6  1  0
  1  2  1  0
  2  7  1  0
  2  3  1  0
  3  4  1  0
  3 12  1  0
  3  8  1  0
  4  9  1  0
  4 10  1  0
  4 11  1  0
M  END
>  <rmg_smiles>  (2) 
[CH2][CH]CC

>  <rmg_adjacency_list>  (2) 
1  C u0 p0 c0 {2,S} {3,S} {5,S} {6,S}
2  C u0 p0 c0 {1,S} {7,S} {8,S} {9,S}
3  C u0 p0 c0 {1,S} {4,S} {10,S}
4  C u0 p0 c0 {3,S} {11,S} {12,S}
5  H u0 p0 c0 {1,S}
6  H u0 p0 c0 {1,S}
7  H u0 p0 c0 {2,S}
8  H u0 p0 c0 {2,S}
9  H u0 p0 c0 {2,S}
10 H u0 p0 c0 {3,S}
11 H u0 p0 c0 {4,S}
12 H u0 p0 c0 {4,S}


>  <multiplicity>  (2) 
1

>  <reaction>  (2) 
rxn_1000

>  <type>  (2) 
r2h

>  <role_mapnums>  (2) 
{"r2h_a": 3, "r2h_h": 12}

>  <role_mapidx>  (2) 
{"r2h_a": 2, "r2h_h": 11}

>  <ordered_mapped_smiles>  (2) 
[CH:1]([CH:2]([C:3]([C:4]([H:9])([H:10])[H:11])([H:8])[H:12])[H:7])([H:5])[H:6]

>  <mol_properties>  (2) 
{"2": {"label": "acceptor", "atom_type": "Cs"}, "11": {"label": "a_hydrogen", "atom_type": "H0"}}

>  <level_of_theory>  (2) 
wb97xd/def2tzvp

>  <lot_method>  (2) 
wb97xd

>  <lot_basis>  (2) 
def2tzvp

>  <spin_multiplicity>  (2) 
1.0

>  <optical_isomers>  (2) 
1.0

>  <modes>  (2) 
IdealGasTranslation(mass=(56.0626, 'amu')),         NonlinearRotor(             inertia = ([32.5109, 90.3514, 116.676

>  <frequency_value>  (2) 
unknown

>  <frequency_units>  (2) 
unknown

>  <frequency_list>  (2) 
unknown

>  <arkane_path>  (2) 
/home/calvin/Dropbox/PersonalFolders/Calvin/HAb_Converged/rxn_1000/output/Species/rxn_1000_C=CCC/arkane/output.py

>  <path_exists>  (2) 
True

>  <E0_value>  (2) 
-412516.9632903335

>  <E0_units>  (2) 
kJ/mol

>  <thermo_class>  (2) 
NASA

>  <Cp0_value>  (2) 
33.257888

>  <Cp0_units>  (2) 
J/(mol*K)

>  <CpInf_value>  (2) 
282.692048

>  <CpInf_units>  (2) 
J/(mol*K)

>  <Tmin_value>  (2) 
10.0

>  <Tmin_units>  (2) 
K

>  <Tmax_value>  (2) 
3000.0

>  <Tmax_units>  (2) 
K

>  <polynomials>  (2) 
[{"name": "polynomial1", "class": "NASAPolynomial", "Tmin_value": 10.0, "Tmin_units": "K", "Tmax_value": 488.655875950425, "Tmax_units": "K", "coeffs": [3.9518334489867755, 0.002738214948316711, 0.00010027883330171994, -1.6337813639818567e-07, 8.627420085348335e-11, -49614327.71326204, 8.65572399544736]}, {"name": "polynomial2", "class": "NASAPolynomial", "Tmin_value": 488.655875950425, "Tmin_units": "K", "Tmax_value": 3000.0, "Tmax_units": "K", "coeffs": [-1.0177998638327943, 0.04340046679206265, -2.4485281954071822e-05, 6.761443222838627e-09, -7.324004262046576e-13, -49613841.81296031, 29.07476490076061]}]

>  <H298_value>  (2) 
-98590.13440490302

>  <H298_units>  (2) 
kcal/mol

>  <S298_value>  (2) 
69.88440789589453

>  <S298_units>  (2) 
cal/(mol*K)

>  <Cp_T_value_list>  (2) 
[20.042973263550383, 25.523981497089775, 30.524522062075274, 34.9218382998611, 42.11657803113529, 47.54675281077259, 55.846682187635814, 60.04373230790421, 62.15783038221664]

>  <Cp_T_units>  (2) 
cal/(mol*K)

>  <T_list>  (2) 
[300.0, 400.0, 500.0, 600.0, 800.0, 1000.0, 1500.0, 2000.0, 2400.0]

>  <T_units>  (2) 
K

>  <yaml_path>  (2) 
/home/calvin/Dropbox/PersonalFolders/Calvin/HAb_Converged/rxn_1000/output/Species/rxn_1000_C=CCC/rxn_1000_C=CCC.yml

>  <frequencies_cm1>  (2) 
[165.89949834588, 270.68969432907994, 288.28291071892, 546.5845635307201, 562.94858954828, 802.8192537611999, 842.75764038232, 950.1229558605198, 1001.7077495843599, 1030.7756984439197, 1035.6375240504801, 1103.34599930568, 1142.2200032022, 1284.9434260930798, 1326.2895447048, 1372.0442678919599, 1403.3508539658399, 1441.4282875652402, 1464.212944857, 1485.72034287924, 1496.3092342426798, 1714.90597793424, 3000.2545561612, 3017.2984137254402, 3025.2847176525997, 3087.5545405343596, 3095.4996425496, 3112.8387804825998, 3128.2208275993994, 3206.66926789508]

>  <ZPE_kJmol>  (2) 
283.55462469418285

>  <E_elec_kJmol>  (2) 
-412800.5179150276

>  <E0_minus_Eelec_plus_ZPE_kJmol>  (2) 
0.0

>  <rxn>  (2) 
rxn_1000

>  <species_type>  (2) 
p0

>  <species_folder>  (2) 
rxn_1000_C=CCC

>  <frequencies_cm1_list>  (2) 
[165.89949834588, 270.68969432907994, 288.28291071892, 546.5845635307201, 562.94858954828, 802.8192537611999, 842.75764038232, 950.1229558605198, 1001.7077495843599, 1030.7756984439197, 1035.6375240504801, 1103.34599930568, 1142.2200032022, 1284.9434260930798, 1326.2895447048, 1372.0442678919599, 1403.3508539658399, 1441.4282875652402, 1464.212944857, 1485.72034287924, 1496.3092342426798, 1714.90597793424, 3000.2545561612, 3017.2984137254402, 3025.2847176525997, 3087.5545405343596, 3095.4996425496, 3112.8387804825998, 3128.2208275993994, 3206.66926789508]

>  <E0_kJmol>  (2) 
-412517

>  <H298_kJmol>  (2) 
-412501

$$$$

     RDKit          3D

 20 18  0  0  0  0  0  0  0  0999 V2000
   -1.8449   -1.2787    0.5365 C   0  0  0  0  0  0  0  0  0  1  0  0
   -0.9957   -0.7725    1.4352 C   0  0  0  0  0  0  0  0  0  2  0  0
   -0.3964    0.5550    1.3907 C   0  0  0  0  0  0  0  0  0  3  0  0
   -1.0218    1.6141    0.5202 C   0  0  0  0  0  0  0  0  0  4  0  0
   -2.2087   -2.2943    0.6226 H   0  0  0  0  0  0  0  0  0  5  0  0
   -2.2097   -0.6965   -0.3008 H   0  0  0  0  0  0  0  0  0  6  0  0
   -0.6659   -1.4136    2.2481 H   0  0  0  0  0  0  0  0  0  7  0  0
   -0.0629    0.9150    2.3628 H   0  0  0  0  0  0  0  0  0  8  0  0
   -2.0504    1.8239    0.8272 H   0  0  0  0  0  0  0  0  0  9  0  0
   -0.4545    2.5439    0.5751 H   0  0  0  0  0  0  0  0  0 10  0  0
   -1.0441    1.2997   -0.5255 H   0  0  0  0  0  0  0  0  0 11  0  0
    0.9933    0.1413   -2.3493 C   0  0  0  0  0  0  0  0  0 12  0  0
    1.3673   -0.4804   -1.2222 C   0  0  0  0  0  0  0  0  0 13  0  0
    1.8596    0.1827   -0.0355 C   0  0  0  0  0  3  0  0  0 14  0  0
    0.5947   -0.4079   -3.1919 H   0  0  0  0  0  0  0  0  0 15  0  0
    1.0894    1.2162   -2.4579 H   0  0  0  0  0  0  0  0  0 16  0  0
    1.2489   -1.5583   -1.1634 H   0  0  0  0  0  0  0  0  0 17  0  0
    0.7709    0.3391    0.7764 H   0  0  0  0  0  0  0  0  0 18  0  0
    2.1904    1.2111   -0.1629 H   0  0  0  0  0  0  0  0  0 19  0  0
    2.5014   -0.4021    0.6176 H   0  0  0  0  0  0  0  0  0 20  0  0
  1  5  1  0
  1  6  1  0
  1  2  1  0
  2  7  1  0
  2  3  1  0
  3  4  1  0
  3 18  1  0
  3  8  1  0
  4  9  1  0
  4 10  1  0
  4 11  1  0
 12 13  1  0
 12 15  1  0
 12 16  1  0
 13 17  1  0
 13 14  1  0
 14 20  1  0
 14 19  1  0
M  RAD  1  14   2
M  END
>  <rmg_smiles>  (3) 
[CH2][CH]CC.[CH2][CH][CH2]

>  <rmg_adjacency_list>  (3) 
multiplicity 2
1  C u0 p0 c0 {2,S} {3,S} {8,S} {9,S}
2  C u0 p0 c0 {1,S} {10,S} {11,S} {12,S}
3  C u0 p0 c0 {1,S} {5,S} {13,S}
4  C u0 p0 c0 {6,S} {7,S} {14,S}
5  C u0 p0 c0 {3,S} {15,S} {16,S}
6  C u1 p0 c0 {4,S} {19,S} {20,S}
7  C u0 p0 c0 {4,S} {17,S} {18,S}
8  H u0 p0 c0 {1,S}
9  H u0 p0 c0 {1,S}
10 H u0 p0 c0 {2,S}
11 H u0 p0 c0 {2,S}
12 H u0 p0 c0 {2,S}
13 H u0 p0 c0 {3,S}
14 H u0 p0 c0 {4,S}
15 H u0 p0 c0 {5,S}
16 H u0 p0 c0 {5,S}
17 H u0 p0 c0 {7,S}
18 H u0 p0 c0 {7,S}
19 H u0 p0 c0 {6,S}
20 H u0 p0 c0 {6,S}


>  <multiplicity>  (3) 
2

>  <reaction>  (3) 
rxn_1000

>  <type>  (3) 
ts

>  <role_mapnums>  (3) 
{"*2": 18, "*1": 14, "*3": 3, "*0": 2, "*4": 13}

>  <role_mapidx>  (3) 
{"*2": 17, "*1": 13, "*3": 2, "*0": 1, "*4": 12}

>  <ordered_mapped_smiles>  (3) 
[CH:1]([CH:2]([C:3]([C:4]([H:9])([H:10])[H:11])([H:8])[H:18])[H:7])([H:5])[H:6].[CH:12]([CH:13]([C:14]([H:19])[H:20])[H:17])([H:15])[H:16]

>  <mol_properties>  (3) 
{"1": {"label": "*0", "atom_type": "Cs"}, "2": {"label": "*3", "atom_type": "Cs"}, "12": {"label": "*4", "atom_type": "Cs"}, "13": {"label": "*1", "atom_type": "Cs"}, "17": {"label": "*2", "atom_type": "H0"}}

>  <level_of_theory>  (3) 
wb97xd/def2tzvp

>  <lot_method>  (3) 
wb97xd

>  <lot_basis>  (3) 
def2tzvp

>  <spin_multiplicity>  (3) 
2.0

>  <optical_isomers>  (3) 
2.0

>  <modes>  (3) 
IdealGasTranslation(mass=(97.1017, 'amu')),         NonlinearRotor(             inertia = ([163.429, 338.717, 367.308

>  <frequency_value>  (3) 
-1816.09

>  <frequency_units>  (3) 
cm^-1

>  <frequency_list>  (3) 
unknown

>  <arkane_path>  (3) 
/home/calvin/Dropbox/PersonalFolders/Calvin/HAb_Converged/rxn_1000/output/rxns/TS0/arkane/output.py

>  <path_exists>  (3) 
True

>  <E0_value>  (3) 
-720142.0

>  <E0_units>  (3) 
kJ/mol

>  <thermo_class>  (3) 
unknown

>  <Cp0_value>  (3) 
unknown

>  <Cp0_units>  (3) 
unknown

>  <CpInf_value>  (3) 
unknown

>  <CpInf_units>  (3) 
unknown

>  <Tmin_value>  (3) 
unknown

>  <Tmin_units>  (3) 
unknown

>  <Tmax_value>  (3) 
unknown

>  <Tmax_units>  (3) 
unknown

>  <polynomials>  (3) 
unknown

>  <H298_value>  (3) 
unknown

>  <H298_units>  (3) 
unknown

>  <S298_value>  (3) 
unknown

>  <S298_units>  (3) 
unknown

>  <Cp_T_value_list>  (3) 
unknown

>  <Cp_T_units>  (3) 
unknown

>  <T_list>  (3) 
unknown

>  <T_units>  (3) 
unknown

>  <yaml_path>  (3) 
unknown

>  <frequencies_cm1>  (3) 
unknown

>  <ZPE_kJmol>  (3) 
unknown

>  <E_elec_kJmol>  (3) 
unknown

>  <E0_minus_Eelec_plus_ZPE_kJmol>  (3) 
unknown

>  <rxn>  (3) 
unknown

>  <species_type>  (3) 
unknown

>  <species_folder>  (3) 
unknown

>  <frequencies_cm1_list>  (3) 
[]

>  <ts_imag_freq_cm1>  (3) 
-1838.1485

>  <ts_freq_out_path>  (3) 
/home/calvin/Dropbox/PersonalFolders/Calvin/HAb_Converged/rxn_1000/output/rxns/TS0/geometry/freq.out

>  <E0_kJmol>  (3) 
-720142

>  <H298_kJmol>  (3) 
unknown

$$$$

     RDKit          3D

  8  7  0  0  0  0  0  0  0  0999 V2000
   -1.2262   -0.1032    0.0429 C   0  0  0  0  0  0  0  0  0  1  0  0
    0.0344    0.4295    0.2005 C   0  0  0  0  0  0  0  0  0  2  0  0
    1.2024   -0.1933   -0.1813 C   0  0  0  0  0  3  0  0  0  3  0  0
   -2.1090    0.4329    0.3624 H   0  0  0  0  0  0  0  0  0  4  0  0
   -1.3659   -1.0784   -0.4078 H   0  0  0  0  0  0  0  0  0  5  0  0
    0.1132    1.4113    0.6589 H   0  0  0  0  0  0  0  0  0  6  0  0
    2.1658    0.2743   -0.0323 H   0  0  0  0  0  0  0  0  0  7  0  0
    1.1853   -1.1731   -0.6434 H   0  0  0  0  0  0  0  0  0  8  0  0
  1  5  1  0
  1  4  1  0
  1  2  1  0
  2  6  1  0
  2  3  1  0
  3  8  1  0
  3  7  1  0
M  RAD  1   3   2
M  END
>  <rmg_smiles>  (4) 
[CH2][CH][CH2]

>  <rmg_adjacency_list>  (4) 
multiplicity 2
1 C u0 p0 c0 {2,S} {3,S} {4,S}
2 C u1 p0 c0 {1,S} {7,S} {8,S}
3 C u0 p0 c0 {1,S} {5,S} {6,S}
4 H u0 p0 c0 {1,S}
5 H u0 p0 c0 {3,S}
6 H u0 p0 c0 {3,S}
7 H u0 p0 c0 {2,S}
8 H u0 p0 c0 {2,S}


>  <multiplicity>  (4) 
2

>  <reaction>  (4) 
rxn_1000

>  <type>  (4) 
r1

>  <role_mapnums>  (4) 
{}

>  <role_mapidx>  (4) 
{}

>  <ordered_mapped_smiles>  (4) 
[CH:1]([CH:2]([C:3]([H:7])[H:8])[H:6])([H:4])[H:5]

>  <level_of_theory>  (4) 
wb97xd/def2tzvp

>  <lot_method>  (4) 
wb97xd

>  <lot_basis>  (4) 
def2tzvp

>  <spin_multiplicity>  (4) 
2.0

>  <optical_isomers>  (4) 
1.0

>  <modes>  (4) 
IdealGasTranslation(mass=(41.0391, 'amu')),         NonlinearRotor(             inertia = ([9.18678, 48.3525, 57.5393

>  <frequency_value>  (4) 
unknown

>  <frequency_units>  (4) 
unknown

>  <frequency_list>  (4) 
unknown

>  <arkane_path>  (4) 
/home/calvin/Dropbox/PersonalFolders/Calvin/HAb_Converged/rxn_1000/output/Species/rxn_1000_[CH2]C=C/arkane/output.py

>  <path_exists>  (4) 
True

>  <E0_value>  (4) 
-307695.8239419476

>  <E0_units>  (4) 
kJ/mol

>  <thermo_class>  (4) 
NASA

>  <Cp0_value>  (4) 
33.257888

>  <Cp0_units>  (4) 
J/(mol*K)

>  <CpInf_value>  (4) 
182.918384

>  <CpInf_units>  (4) 
J/(mol*K)

>  <Tmin_value>  (4) 
10.0

>  <Tmin_units>  (4) 
K

>  <Tmax_value>  (4) 
3000.0

>  <Tmax_units>  (4) 
K

>  <polynomials>  (4) 
[{"name": "polynomial1", "class": "NASAPolynomial", "Tmin_value": 10.0, "Tmin_units": "K", "Tmax_value": 532.7267436952769, "Tmax_units": "K", "coeffs": [4.120476242700736, -0.01110500746607337, 0.00013118962632593044, -2.295122998736072e-07, 1.327617546042694e-10, -37007258.9235638, 6.732627685136077]}, {"name": "polynomial2", "class": "NASAPolynomial", "Tmin_value": 532.7267436952769, "Tmin_units": "K", "Tmax_value": 3000.0, "Tmax_units": "K", "coeffs": [0.911699466954835, 0.027118425571894478, -1.6222639840263127e-05, 4.752540164453407e-09, -5.404199600895895e-13, -37007117.54936121, 18.310519838179516]}]

>  <H298_value>  (4) 
-73538.08078140329

>  <H298_units>  (4) 
kcal/mol

>  <S298_value>  (4) 
61.52456331648896

>  <S298_units>  (4) 
cal/(mol*K)

>  <Cp_T_value_list>  (4) 
[14.853530963099974, 18.637467651362382, 21.80750730434748, 24.44088072021761, 28.68710434193412, 31.834263999492475, 36.54938793194129, 39.012029638884556, 40.38558701326713]

>  <Cp_T_units>  (4) 
cal/(mol*K)

>  <T_list>  (4) 
[300.0, 400.0, 500.0, 600.0, 800.0, 1000.0, 1500.0, 2000.0, 2400.0]

>  <T_units>  (4) 
K

>  <yaml_path>  (4) 
/home/calvin/Dropbox/PersonalFolders/Calvin/HAb_Converged/rxn_1000/output/Species/rxn_1000_[CH2]C=C/rxn_1000_CH2C=C.yml

>  <frequencies_cm1>  (4) 
[432.19432207015996, 530.70122648556, 552.78545127468, 794.8604177753199, 818.87426543936, 934.1091460942799, 1008.91808417036, 1035.1568350780801, 1186.33351689788, 1269.2386306662397, 1410.5886564931197, 1500.8483115392, 1510.5101598844399, 3121.9787379435197, 3123.6542823616, 3129.68349547256, 3223.1843675896794, 3225.69081723148]

>  <ZPE_kJmol>  (4) 
172.31799451557927

>  <E_elec_kJmol>  (4) 
-307868.1419364632

>  <E0_minus_Eelec_plus_ZPE_kJmol>  (4) 
0.0

>  <rxn>  (4) 
rxn_1000

>  <species_type>  (4) 
p1

>  <species_folder>  (4) 
rxn_1000_[CH2]C=C

>  <frequencies_cm1_list>  (4) 
[432.19432207015996, 530.70122648556, 552.78545127468, 794.8604177753199, 818.87426543936, 934.1091460942799, 1008.91808417036, 1035.1568350780801, 1186.33351689788, 1269.2386306662397, 1410.5886564931197, 1500.8483115392, 1510.5101598844399, 3121.9787379435197, 3123.6542823616, 3129.68349547256, 3223.1843675896794, 3225.69081723148]

>  <E0_kJmol>  (4) 
-307696

>  <H298_kJmol>  (4) 
-307683

$$$$

     RDKit          3D

 11 10  0  0  0  0  0  0  0  0999 V2000
    2.0591    0.2533   -0.1061 C   0  0  0  0  0  0  0  0  0  1  0  0
    0.8045   -0.3111   -0.1535 C   0  0  0  0  0  0  0  0  0  2  0  0
   -0.3816    0.3942   -0.1885 C   0  0  0  0  0  3  0  0  0  3  0  0
   -1.7316   -0.2294   -0.2396 C   0  0  0  0  0  0  0  0  0  4  0  0
    2.9505   -0.3576   -0.0805 H   0  0  0  0  0  0  0  0  0  5  0  0
    2.1872    1.3290   -0.0933 H   0  0  0  0  0  0  0  0  0  6  0  0
    0.7385   -1.3970   -0.1643 H   0  0  0  0  0  0  0  0  0  7  0  0
   -0.3340    1.4795   -0.1783 H   0  0  0  0  0  0  0  0  0  8  0  0
   -1.6704   -1.3186   -0.2461 H   0  0  0  0  0  0  0  0  0  9  0  0
   -2.3404    0.0713    0.6191 H   0  0  0  0  0  0  0  0  0 10  0  0
   -2.2805    0.0851   -1.1331 H   0  0  0  0  0  0  0  0  0 11  0  0
  1  5  1  0
  1  6  1  0
  1  2  1  0
  2  7  1  0
  2  3  1  0
  3  4  1  0
  3  8  1  0
  4  9  1  0
  4 10  1  0
  4 11  1  0
M  RAD  1   3   2
M  END
>  <rmg_smiles>  (5) 
[CH2][CH][CH]C

>  <rmg_adjacency_list>  (5) 
multiplicity 2
1  C u0 p0 c0 {2,S} {5,S} {6,S} {7,S}
2  C u1 p0 c0 {1,S} {3,S} {8,S}
3  C u0 p0 c0 {2,S} {4,S} {9,S}
4  C u0 p0 c0 {3,S} {10,S} {11,S}
5  H u0 p0 c0 {1,S}
6  H u0 p0 c0 {1,S}
7  H u0 p0 c0 {1,S}
8  H u0 p0 c0 {2,S}
9  H u0 p0 c0 {3,S}
10 H u0 p0 c0 {4,S}
11 H u0 p0 c0 {4,S}


>  <multiplicity>  (5) 
2

>  <reaction>  (5) 
rxn_1000

>  <type>  (5) 
r2

>  <role_mapnums>  (5) 
{}

>  <role_mapidx>  (5) 
{}

>  <ordered_mapped_smiles>  (5) 
[CH:1]([CH:2]([C:3]([C:4]([H:9])([H:10])[H:11])[H:8])[H:7])([H:5])[H:6]

>  <level_of_theory>  (5) 
wb97xd/def2tzvp

>  <lot_method>  (5) 
wb97xd

>  <lot_basis>  (5) 
def2tzvp

>  <spin_multiplicity>  (5) 
2.0

>  <optical_isomers>  (5) 
1.0

>  <modes>  (5) 
IdealGasTranslation(mass=(55.0548, 'amu')),         NonlinearRotor(             inertia = ([13.1906, 125.273, 135.366

>  <frequency_value>  (5) 
unknown

>  <frequency_units>  (5) 
unknown

>  <frequency_list>  (5) 
unknown

>  <arkane_path>  (5) 
/home/calvin/Dropbox/PersonalFolders/Calvin/HAb_Converged/rxn_1000/output/Species/rxn_1000_C=C[CH]C/arkane/output.py

>  <path_exists>  (5) 
True

>  <E0_value>  (5) 
-410861.3152330692

>  <E0_units>  (5) 
kJ/mol

>  <thermo_class>  (5) 
NASA

>  <Cp0_value>  (5) 
33.257888

>  <Cp0_units>  (5) 
J/(mol*K)

>  <CpInf_value>  (5) 
257.748632

>  <CpInf_units>  (5) 
J/(mol*K)

>  <Tmin_value>  (5) 
10.0

>  <Tmin_units>  (5) 
K

>  <Tmax_value>  (5) 
3000.0

>  <Tmax_units>  (5) 
K

>  <polynomials>  (5) 
[{"name": "polynomial1", "class": "NASAPolynomial", "Tmin_value": 10.0, "Tmin_units": "K", "Tmax_value": 463.6393307218724, "Tmax_units": "K", "coeffs": [3.9040427866109826, 0.008185983411080414, 7.727991952880457e-05, -1.3744264793304484e-07, 7.688975074355223e-11, -49415200.70388584, 8.995587426851019]}, {"name": "polynomial2", "class": "NASAPolynomial", "Tmin_value": 463.6393307218724, "Tmin_units": "K", "Tmax_value": 3000.0, "Tmax_units": "K", "coeffs": [0.3179549217714686, 0.039124611253892716, -2.281509301051405e-05, 6.484032923156998e-09, -7.173482644836273e-13, -49414868.17391742, 23.539944648157388]}]

>  <H298_value>  (5) 
-98194.28584360852

>  <H298_units>  (5) 
kcal/mol

>  <S298_value>  (5) 
71.63337428638437

>  <S298_units>  (5) 
cal/(mol*K)

>  <Cp_T_value_list>  (5) 
[20.32293445175687, 25.26787004109902, 29.6931518167585, 33.55769976572619, 39.8275597158211, 44.50181601093726, 51.51425090015371, 55.048594012523054, 56.90855371865896]

>  <Cp_T_units>  (5) 
cal/(mol*K)

>  <T_list>  (5) 
[300.0, 400.0, 500.0, 600.0, 800.0, 1000.0, 1500.0, 2000.0, 2400.0]

>  <T_units>  (5) 
K

>  <yaml_path>  (5) 
/home/calvin/Dropbox/PersonalFolders/Calvin/HAb_Converged/rxn_1000/output/Species/rxn_1000_C=C[CH]C/rxn_1000_C=CCHC.yml

>  <frequencies_cm1>  (5) 
[145.86850216744, 217.17527773031998, 290.56274984515994, 508.82301125604, 544.53820190536, 739.89020028872, 798.30764440596, 881.33636391008, 988.4682018873999, 989.4158458615598, 1023.15334473872, 1138.3744914229999, 1188.9155033782, 1281.84641571376, 1335.3196304005999, 1400.47358711676, 1459.61893167792, 1463.37517264796, 1502.4895210306797, 1514.45180945812, 2991.0802637736797, 3039.3139686613595, 3086.1330745731198, 3108.55378164292, 3124.5401234678798, 3127.2937845812003, 3223.3011063401195]

>  <ZPE_kJmol>  (5) 
245.90815043438468

>  <E_elec_kJmol>  (5) 
-411107.2233835036

>  <E0_minus_Eelec_plus_ZPE_kJmol>  (5) 
0.0

>  <rxn>  (5) 
rxn_1000

>  <species_type>  (5) 
r0

>  <species_folder>  (5) 
rxn_1000_C=C[CH]C

>  <frequencies_cm1_list>  (5) 
[145.86850216744, 217.17527773031998, 290.56274984515994, 508.82301125604, 544.53820190536, 739.89020028872, 798.30764440596, 881.33636391008, 988.4682018873999, 989.4158458615598, 1023.15334473872, 1138.3744914229999, 1188.9155033782, 1281.84641571376, 1335.3196304005999, 1400.47358711676, 1459.61893167792, 1463.37517264796, 1502.4895210306797, 1514.45180945812, 2991.0802637736797, 3039.3139686613595, 3086.1330745731198, 3108.55378164292, 3124.5401234678798, 3127.2937845812003, 3223.3011063401195]

>  <E0_kJmol>  (5) 
-410861

>  <H298_kJmol>  (5) 
-410845

$$$$
