
     RDKit          3D

  6  5  0  0  0  0  0  0  0  0999 V2000
   -0.3605    0.0814    1.1296 C   0  0  0  0  0  0  0  0  0  1  0  0
    0.1366   -0.0655   -0.5580 S   0  0  0  0  0  0  0  0  0  2  0  0
   -0.3582    1.1120    1.4762 H   0  0  0  0  0  0  0  0  0  3  0  0
   -1.3905   -0.2479    1.2420 H   0  0  0  0  0  0  0  0  0  4  0  0
    0.3086   -0.3815    1.8512 H   0  0  0  0  0  0  0  0  0  5  0  0
    1.3981    0.3592   -0.4063 H   0  0  0  0  0  0  0  0  0  6  0  0
  1  5  1  0
  1  4  1  0
  1  3  1  0
  1  2  1  0
  2  6  1  0
M  END
>  <rmg_smiles>  (1) 
CS

>  <rmg_adjacency_list>  (1) 
1 S u0 p2 c0 {2,S} {6,S}
2 C u0 p0 c0 {1,S} {3,S} {4,S} {5,S}
3 H u0 p0 c0 {2,S}
4 H u0 p0 c0 {2,S}
5 H u0 p0 c0 {2,S}
6 H u0 p0 c0 {1,S}


>  <multiplicity>  (1) 
1

>  <reaction>  (1) 
rxn_1861

>  <type>  (1) 
r1h

>  <role_mapnums>  (1) 
{"r1h_a": 1, "r1h_h": 3}

>  <role_mapidx>  (1) 
{"r1h_a": 0, "r1h_h": 2}

>  <ordered_mapped_smiles>  (1) 
[C:1]([S:2][H:6])([H:3])([H:4])[H:5]

>  <mol_properties>  (1) 
{"0": {"label": "donator", "atom_type": "Cs"}, "2": {"label": "d_hydrogen", "atom_type": "H0"}}

>  <level_of_theory>  (1) 
wb97xd/def2tzvp

>  <lot_method>  (1) 
wb97xd

>  <lot_basis>  (1) 
def2tzvp

>  <spin_multiplicity>  (1) 
1.0

>  <optical_isomers>  (1) 
1.0

>  <modes>  (1) 
IdealGasTranslation(mass=(48.0034, 'amu')),         NonlinearRotor(             inertia = ([4.88218, 38.8439, 40.5133

>  <frequency_value>  (1) 
unknown

>  <frequency_units>  (1) 
unknown

>  <frequency_list>  (1) 
unknown

>  <arkane_path>  (1) 
/home/calvin/Dropbox/PersonalFolders/Calvin/HAb_Converged/rxn_1861/output/Species/rxn_1861_CS/arkane/output.py

>  <path_exists>  (1) 
True

>  <E0_value>  (1) 
-1151727.0074722518

>  <E0_units>  (1) 
kJ/mol

>  <thermo_class>  (1) 
NASA

>  <Cp0_value>  (1) 
33.257888

>  <Cp0_units>  (1) 
J/(mol*K)

>  <CpInf_value>  (1) 
133.031552

>  <CpInf_units>  (1) 
J/(mol*K)

>  <Tmin_value>  (1) 
10.0

>  <Tmin_units>  (1) 
K

>  <Tmax_value>  (1) 
3000.0

>  <Tmax_units>  (1) 
K

>  <polynomials>  (1) 
[{"name": "polynomial1", "class": "NASAPolynomial", "Tmin_value": 10.0, "Tmin_units": "K", "Tmax_value": 512.0046987811082, "Tmax_units": "K", "coeffs": [3.9928587497669135, 0.0002559754074249204, 3.857280640825913e-05, -5.9282603001709694e-08, 2.982147399711347e-11, -138520762.43019888, 6.388595841908656]}, {"name": "polynomial2", "class": "NASAPolynomial", "Tmin_value": 512.0046987811082, "Tmin_units": "K", "Tmax_value": 3000.0, "Tmax_units": "K", "coeffs": [1.9274442242810899, 0.01639190572497184, -8.700073442106705e-06, 2.2701656845537463e-09, -2.333640907578926e-13, -138520550.93016994, 14.970390653960273]}]

>  <H298_value>  (1) 
-275266.5007544268

>  <H298_units>  (1) 
kcal/mol

>  <S298_value>  (1) 
60.53254852214023

>  <S298_units>  (1) 
cal/(mol*K)

>  <Cp_T_value_list>  (1) 
[12.285164170505567, 14.379905317207566, 16.329998202821564, 18.065044527000737, 20.944482261362513, 23.163034177843237, 26.669386406809583, 28.493484761208425, 29.402518411604955]

>  <Cp_T_units>  (1) 
cal/(mol*K)

>  <T_list>  (1) 
[300.0, 400.0, 500.0, 600.0, 800.0, 1000.0, 1500.0, 2000.0, 2400.0]

>  <T_units>  (1) 
K

>  <yaml_path>  (1) 
/home/calvin/Dropbox/PersonalFolders/Calvin/HAb_Converged/rxn_1861/output/Species/rxn_1861_CS/rxn_1861_CS.yml

>  <frequencies_cm1>  (1) 
[239.23203457815995, 718.5407429288399, 797.72395065376, 969.0552343877599, 1092.82577779544, 1352.90597980512, 1462.0155095546, 1475.7082782826799, 2706.3887863771197, 3036.2032243114, 3126.3324066364, 3127.7195376710397]

>  <ZPE_kJmol>  (1) 
120.25255493508004

>  <E_elec_kJmol>  (1) 
-1151847.260027187

>  <E0_minus_Eelec_plus_ZPE_kJmol>  (1) 
0.0

>  <rxn>  (1) 
rxn_1861

>  <species_type>  (1) 
r0

>  <species_folder>  (1) 
rxn_1861_CS

>  <frequencies_cm1_list>  (1) 
[239.23203457815995, 718.5407429288399, 797.72395065376, 969.0552343877599, 1092.82577779544, 1352.90597980512, 1462.0155095546, 1475.7082782826799, 2706.3887863771197, 3036.2032243114, 3126.3324066364, 3127.7195376710397]

>  <E0_kJmol>  (1) 
-1.15173e+06

>  <H298_kJmol>  (1) 
-1.15172e+06

$$$$

     RDKit          3D

  8  7  0  0  0  0  0  0  0  0999 V2000
    0.0028   -1.3588   -0.5733 H   0  0  0  0  0  0  0  0  0  1  0  0
   -1.1147    0.4366   -2.0737 C   0  0  0  0  0  0  0  0  0  2  0  0
   -0.6409    0.6526   -0.8467 C   0  0  0  0  0  0  0  0  0  3  0  0
    0.0310   -0.3817   -0.0910 C   0  0  0  0  0  0  0  0  0  4  0  0
    0.7530   -0.2891    1.3273 S   0  0  0  0  0  0  0  0  0  5  0  0
   -1.6059    1.2253   -2.6296 H   0  0  0  0  0  0  0  0  0  6  0  0
   -1.0078   -0.5260   -2.5602 H   0  0  0  0  0  0  0  0  0  7  0  0
   -0.7358    1.6278   -0.3768 H   0  0  0  0  0  0  0  0  0  8  0  0
  1  4  1  0
  2  7  1  0
  2  6  1  0
  2  3  1  0
  3  4  1  0
  3  8  1  0
  4  5  1  0
M  END
>  <rmg_smiles>  (2) 
[CH2][CH][CH][S]

>  <rmg_adjacency_list>  (2) 
1 S u0 p2 c0 {4,S}
2 C u0 p0 c0 {3,S} {4,S} {5,S}
3 C u0 p0 c0 {2,S} {7,S} {8,S}
4 C u0 p0 c0 {1,S} {2,S} {6,S}
5 H u0 p0 c0 {2,S}
6 H u0 p0 c0 {4,S}
7 H u0 p0 c0 {3,S}
8 H u0 p0 c0 {3,S}


>  <multiplicity>  (2) 
1

>  <reaction>  (2) 
rxn_1861

>  <type>  (2) 
r2h

>  <role_mapnums>  (2) 
{"r2h_a": 4, "r2h_h": 1}

>  <role_mapidx>  (2) 
{"r2h_a": 3, "r2h_h": 0}

>  <ordered_mapped_smiles>  (2) 
[H:1][CH:4]([CH:3]([CH:2]([H:6])[H:7])[H:8])[SH:5]

>  <mol_properties>  (2) 
{"0": {"label": "a_hydrogen", "atom_type": "H0"}, "3": {"label": "acceptor", "atom_type": "Cs"}}

>  <level_of_theory>  (2) 
wb97xd/def2tzvp

>  <lot_method>  (2) 
wb97xd

>  <lot_basis>  (2) 
def2tzvp

>  <spin_multiplicity>  (2) 
1.0

>  <optical_isomers>  (2) 
1.0

>  <modes>  (2) 
IdealGasTranslation(mass=(72.0034, 'amu')),         NonlinearRotor(             inertia = ([10.8259, 179.445, 190.271

>  <frequency_value>  (2) 
unknown

>  <frequency_units>  (2) 
unknown

>  <frequency_list>  (2) 
unknown

>  <arkane_path>  (2) 
/home/calvin/Dropbox/PersonalFolders/Calvin/HAb_Converged/rxn_1861/output/Species/rxn_1861_C=CC=S/arkane/output.py

>  <path_exists>  (2) 
True

>  <E0_value>  (2) 
-1351663.0036055504

>  <E0_units>  (2) 
kJ/mol

>  <thermo_class>  (2) 
NASA

>  <Cp0_value>  (2) 
33.257888

>  <Cp0_units>  (2) 
J/(mol*K)

>  <CpInf_value>  (2) 
182.918384

>  <CpInf_units>  (2) 
J/(mol*K)

>  <Tmin_value>  (2) 
10.0

>  <Tmin_units>  (2) 
K

>  <Tmax_value>  (2) 
3000.0

>  <Tmax_units>  (2) 
K

>  <polynomials>  (2) 
[{"name": "polynomial1", "class": "NASAPolynomial", "Tmin_value": 10.0, "Tmin_units": "K", "Tmax_value": 379.2644192115922, "Tmax_units": "K", "coeffs": [3.9765643065430916, 0.0016004709541293095, 8.72904253733476e-05, -1.7911724885444054e-07, 1.2101661725986147e-10, -162567509.24915665, 9.120160110672158]}, {"name": "polynomial2", "class": "NASAPolynomial", "Tmin_value": 379.2644192115922, "Tmin_units": "K", "Tmax_value": 3000.0, "Tmax_units": "K", "coeffs": [1.464888744558327, 0.0281037867234722, -1.7583624528695405e-05, 5.321955350531072e-09, -6.214743427137124e-13, -162567318.8273217, 18.801153395762828]}]

>  <H298_value>  (2) 
-323051.77369567833

>  <H298_units>  (2) 
kcal/mol

>  <S298_value>  (2) 
69.12773786002882

>  <S298_units>  (2) 
cal/(mol*K)

>  <Cp_T_value_list>  (2) 
[16.805632008963112, 20.304717440143907, 23.344267700018552, 25.964949893337177, 30.135357981253517, 33.15759755729083, 37.504149039419545, 39.684548396616805, 40.90462524755872]

>  <Cp_T_units>  (2) 
cal/(mol*K)

>  <T_list>  (2) 
[300.0, 400.0, 500.0, 600.0, 800.0, 1000.0, 1500.0, 2000.0, 2400.0]

>  <T_units>  (2) 
K

>  <yaml_path>  (2) 
/home/calvin/Dropbox/PersonalFolders/Calvin/HAb_Converged/rxn_1861/output/Species/rxn_1861_C=CC=S/rxn_1861_C=CC=S.yml

>  <frequencies_cm1>  (2) 
[143.52686017332, 284.27945827736, 458.62534856684, 626.85962192152, 901.60770457472, 915.3554091853599, 995.0811087505599, 1035.17743603404, 1098.5734445082799, 1194.99965237172, 1299.26109048528, 1341.3969124088, 1455.1759921758799, 1675.0087932250397, 3064.563873683, 3123.0293866974803, 3158.3600261688803, 3216.07703778348]

>  <ZPE_kJmol>  (2) 
155.4365784144883

>  <E_elec_kJmol>  (2) 
-1351818.4401839648

>  <E0_minus_Eelec_plus_ZPE_kJmol>  (2) 
0.0

>  <rxn>  (2) 
rxn_1861

>  <species_type>  (2) 
p0

>  <species_folder>  (2) 
rxn_1861_C=CC=S

>  <frequencies_cm1_list>  (2) 
[143.52686017332, 284.27945827736, 458.62534856684, 626.85962192152, 901.60770457472, 915.3554091853599, 995.0811087505599, 1035.17743603404, 1098.5734445082799, 1194.99965237172, 1299.26109048528, 1341.3969124088, 1455.1759921758799, 1675.0087932250397, 3064.563873683, 3123.0293866974803, 3158.3600261688803, 3216.07703778348]

>  <E0_kJmol>  (2) 
-1.35166e+06

>  <H298_kJmol>  (2) 
-1.35165e+06

$$$$

     RDKit          3D

 13 11  0  0  0  0  0  0  0  0999 V2000
    0.0280   -1.7541   -0.2788 C   0  0  0  0  0  3  0  0  0  1  0  0
    0.5251   -1.9010   -1.9664 S   0  0  0  0  0  0  0  0  0  2  0  0
    0.0309   -0.4551    0.1580 H   0  0  0  0  0  0  0  0  0  3  0  0
   -1.0020   -2.0834   -0.1664 H   0  0  0  0  0  0  0  0  0  4  0  0
    0.6971   -2.2170    0.4428 H   0  0  0  0  0  0  0  0  0  5  0  0
    1.7866   -1.4763   -1.8147 H   0  0  0  0  0  0  0  0  0  6  0  0
   -1.0801    1.5624   -1.2328 C   0  0  0  0  0  0  0  0  0  7  0  0
   -0.6063    1.7784   -0.0058 C   0  0  0  0  0  0  0  0  0  8  0  0
    0.0655    0.7441    0.7499 C   0  0  0  0  0  0  0  0  0  9  0  0
    0.7876    0.8367    2.1682 S   0  0  0  0  0  0  0  0  0 10  0  0
   -1.5713    2.3510   -1.7887 H   0  0  0  0  0  0  0  0  0 11  0  0
   -0.9732    0.5998   -1.7193 H   0  0  0  0  0  0  0  0  0 12  0  0
   -0.7012    2.7535    0.4641 H   0  0  0  0  0  0  0  0  0 13  0  0
  1  5  1  0
  1  4  1  0
  1  2  1  0
  2  6  1  0
  3  9  1  0
  7 12  1  0
  7  8  1  0
  7 11  1  0
  8  9  1  0
  8 13  1  0
  9 10  1  0
M  RAD  1   1   2
M  END
>  <rmg_smiles>  (3) 
[CH2][CH][CH][S].[CH2]S

>  <rmg_adjacency_list>  (3) 
multiplicity 2
1  S u0 p2 c0 {6,S} {13,S}
2  S u0 p2 c0 {5,S}
3  C u0 p0 c0 {4,S} {5,S} {7,S}
4  C u0 p0 c0 {3,S} {9,S} {10,S}
5  C u0 p0 c0 {2,S} {3,S} {8,S}
6  C u1 p0 c0 {1,S} {11,S} {12,S}
7  H u0 p0 c0 {3,S}
8  H u0 p0 c0 {5,S}
9  H u0 p0 c0 {4,S}
10 H u0 p0 c0 {4,S}
11 H u0 p0 c0 {6,S}
12 H u0 p0 c0 {6,S}
13 H u0 p0 c0 {1,S}


>  <multiplicity>  (3) 
2

>  <reaction>  (3) 
rxn_1861

>  <type>  (3) 
ts

>  <role_mapnums>  (3) 
{"*2": 3, "*1": 1, "*3": 9, "*0": 10, "*4": 2}

>  <role_mapidx>  (3) 
{"*2": 2, "*1": 0, "*3": 8, "*0": 9, "*4": 1}

>  <ordered_mapped_smiles>  (3) 
[C:1]([S:2][H:6])([H:4])[H:5].[H:3][CH:9]([CH:8]([CH:7]([H:11])[H:12])[H:13])[SH:10]

>  <mol_properties>  (3) 
{"0": {"label": "*1", "atom_type": "Cs"}, "1": {"label": "*4", "atom_type": "S2s"}, "2": {"label": "*2", "atom_type": "H0"}, "8": {"label": "*3", "atom_type": "Cs"}, "9": {"label": "*0", "atom_type": "S2s"}}

>  <level_of_theory>  (3) 
wb97xd/def2tzvp

>  <lot_method>  (3) 
wb97xd

>  <lot_basis>  (3) 
def2tzvp

>  <spin_multiplicity>  (3) 
2.0

>  <optical_isomers>  (3) 
2.0

>  <modes>  (3) 
IdealGasTranslation(mass=(118.999, 'amu')),         NonlinearRotor(             inertia = ([178.125, 470.895, 621.217

>  <frequency_value>  (3) 
-1846.79

>  <frequency_units>  (3) 
cm^-1

>  <frequency_list>  (3) 
unknown

>  <arkane_path>  (3) 
/home/calvin/Dropbox/PersonalFolders/Calvin/HAb_Converged/rxn_1861/output/rxns/TS0/arkane/output.py

>  <path_exists>  (3) 
True

>  <E0_value>  (3) 
-2501640.0

>  <E0_units>  (3) 
kJ/mol

>  <thermo_class>  (3) 
unknown

>  <Cp0_value>  (3) 
unknown

>  <Cp0_units>  (3) 
unknown

>  <CpInf_value>  (3) 
unknown

>  <CpInf_units>  (3) 
unknown

>  <Tmin_value>  (3) 
unknown

>  <Tmin_units>  (3) 
unknown

>  <Tmax_value>  (3) 
unknown

>  <Tmax_units>  (3) 
unknown

>  <polynomials>  (3) 
unknown

>  <H298_value>  (3) 
unknown

>  <H298_units>  (3) 
unknown

>  <S298_value>  (3) 
unknown

>  <S298_units>  (3) 
unknown

>  <Cp_T_value_list>  (3) 
unknown

>  <Cp_T_units>  (3) 
unknown

>  <T_list>  (3) 
unknown

>  <T_units>  (3) 
unknown

>  <yaml_path>  (3) 
unknown

>  <frequencies_cm1>  (3) 
unknown

>  <ZPE_kJmol>  (3) 
unknown

>  <E_elec_kJmol>  (3) 
unknown

>  <E0_minus_Eelec_plus_ZPE_kJmol>  (3) 
unknown

>  <rxn>  (3) 
unknown

>  <species_type>  (3) 
unknown

>  <species_folder>  (3) 
unknown

>  <frequencies_cm1_list>  (3) 
[]

>  <ts_imag_freq_cm1>  (3) 
-1869.2193

>  <ts_freq_out_path>  (3) 
/home/calvin/Dropbox/PersonalFolders/Calvin/HAb_Converged/rxn_1861/output/rxns/TS0/geometry/freq.out

>  <E0_kJmol>  (3) 
-2.50164e+06

>  <H298_kJmol>  (3) 
unknown

$$$$

     RDKit          3D

  5  4  0  0  0  0  0  0  0  0999 V2000
   -0.5642    0.0794    0.0348 C   0  0  0  0  0  3  0  0  0  1  0  0
    1.0624    0.5420    0.2853 S   0  0  0  0  0  0  0  0  0  2  0  0
   -1.3257    0.7631    0.3741 H   0  0  0  0  0  0  0  0  0  3  0  0
   -0.8236   -0.8519   -0.4401 H   0  0  0  0  0  0  0  0  0  4  0  0
    1.6511   -0.5325   -0.2540 H   0  0  0  0  0  0  0  0  0  5  0  0
  1  3  1  0
  1  2  1  0
  1  4  1  0
  2  5  1  0
M  RAD  1   1   2
M  END
>  <rmg_smiles>  (4) 
[CH2]S

>  <rmg_adjacency_list>  (4) 
multiplicity 2
1 S u0 p2 c0 {2,S} {5,S}
2 C u1 p0 c0 {1,S} {3,S} {4,S}
3 H u0 p0 c0 {2,S}
4 H u0 p0 c0 {2,S}
5 H u0 p0 c0 {1,S}


>  <multiplicity>  (4) 
2

>  <reaction>  (4) 
rxn_1861

>  <type>  (4) 
r1

>  <role_mapnums>  (4) 
{}

>  <role_mapidx>  (4) 
{}

>  <ordered_mapped_smiles>  (4) 
[C:1]([S:2][H:5])([H:3])[H:4]

>  <level_of_theory>  (4) 
wb97xd/def2tzvp

>  <lot_method>  (4) 
wb97xd

>  <lot_basis>  (4) 
def2tzvp

>  <spin_multiplicity>  (4) 
2.0

>  <optical_isomers>  (4) 
1.0

>  <modes>  (4) 
IdealGasTranslation(mass=(46.9956, 'amu')),         NonlinearRotor(             inertia = ([3.47508, 32.1188, 35.5939

>  <frequency_value>  (4) 
unknown

>  <frequency_units>  (4) 
unknown

>  <frequency_list>  (4) 
unknown

>  <arkane_path>  (4) 
/home/calvin/Dropbox/PersonalFolders/Calvin/HAb_Converged/rxn_1861/output/Species/rxn_1861_[CH2]S/arkane/output.py

>  <path_exists>  (4) 
True

>  <E0_value>  (4) 
-1150024.3332710424

>  <E0_units>  (4) 
kJ/mol

>  <thermo_class>  (4) 
NASA

>  <Cp0_value>  (4) 
33.257888

>  <Cp0_units>  (4) 
J/(mol*K)

>  <CpInf_value>  (4) 
108.088136

>  <CpInf_units>  (4) 
J/(mol*K)

>  <Tmin_value>  (4) 
10.0

>  <Tmin_units>  (4) 
K

>  <Tmax_value>  (4) 
3000.0

>  <Tmax_units>  (4) 
K

>  <polynomials>  (4) 
[{"name": "polynomial1", "class": "NASAPolynomial", "Tmin_value": 10.0, "Tmin_units": "K", "Tmax_value": 228.7632631011955, "Tmax_units": "K", "coeffs": [3.952412159768893, 0.004869189743453995, 7.700507410130638e-05, -3.7784535832034173e-07, 5.662383077803353e-10, -138315979.8249789, 6.828268654504248]}, {"name": "polynomial2", "class": "NASAPolynomial", "Tmin_value": 228.7632631011955, "Tmin_units": "K", "Tmax_value": 3000.0, "Tmax_units": "K", "coeffs": [4.0647189913044315, 0.010177206447780005, -5.480339108667681e-06, 1.4876276440090965e-09, -1.6083284592339647e-13, -138316003.99077362, 6.036236642771031]}]

>  <H298_value>  (4) 
-274859.2476351292

>  <H298_units>  (4) 
kcal/mol

>  <S298_value>  (4) 
63.58185598753384

>  <S298_units>  (4) 
cal/(mol*K)

>  <Cp_T_value_list>  (4) 
[13.241777557438835, 14.605646175289959, 15.816452446168032, 16.888481942792666, 18.669517607236212, 20.047696562682138, 22.269217674285446, 23.499652986162165, 24.148886967222168]

>  <Cp_T_units>  (4) 
cal/(mol*K)

>  <T_list>  (4) 
[300.0, 400.0, 500.0, 600.0, 800.0, 1000.0, 1500.0, 2000.0, 2400.0]

>  <T_units>  (4) 
K

>  <yaml_path>  (4) 
/home/calvin/Dropbox/PersonalFolders/Calvin/HAb_Converged/rxn_1861/output/Species/rxn_1861_[CH2]S/rxn_1861_CH2S.yml

>  <frequencies_cm1>  (4) 
[112.26147601135997, 339.84023650148, 784.39513214764, 853.62121115856, 1068.3930440268798, 1401.38689616432, 2708.6686255033596, 3159.5548816145597, 3285.6189981191196]

>  <ZPE_kJmol>  (4) 
82.02640747232539

>  <E_elec_kJmol>  (4) 
-1150106.3596785148

>  <E0_minus_Eelec_plus_ZPE_kJmol>  (4) 
0.0

>  <rxn>  (4) 
rxn_1861

>  <species_type>  (4) 
p1

>  <species_folder>  (4) 
rxn_1861_[CH2]S

>  <frequencies_cm1_list>  (4) 
[112.26147601135997, 339.84023650148, 784.39513214764, 853.62121115856, 1068.3930440268798, 1401.38689616432, 2708.6686255033596, 3159.5548816145597, 3285.6189981191196]

>  <E0_kJmol>  (4) 
-1.15002e+06

>  <H298_kJmol>  (4) 
-1.15001e+06

$$$$

     RDKit          3D

  7  6  0  0  0  0  0  0  0  0999 V2000
   -0.6904   -0.9066   -0.0346 C   0  0  0  0  0  0  0  0  0  1  0  0
    0.1413    0.0254   -0.6161 C   0  0  0  0  0  0  0  0  0  2  0  0
    0.4603    0.1105   -1.9267 C   0  0  0  0  0  3  0  0  0  3  0  0
    0.8318    0.2180   -3.4201 S   0  0  0  0  0  0  0  0  0  4  0  0
   -0.8731   -0.8770    1.0287 H   0  0  0  0  0  0  0  0  0  5  0  0
   -1.1718   -1.6767   -0.6199 H   0  0  0  0  0  0  0  0  0  6  0  0
    0.6090    0.7866    0.0044 H   0  0  0  0  0  0  0  0  0  7  0  0
  1  5  1  0
  1  6  1  0
  1  2  1  0
  2  7  1  0
  2  3  1  0
  3  4  1  0
M  RAD  1   3   2
M  END
>  <rmg_smiles>  (5) 
[CH2][CH][C][S]

>  <rmg_adjacency_list>  (5) 
multiplicity 2
1 S u0 p2 c0 {4,S}
2 C u0 p0 c0 {3,S} {4,S} {5,S}
3 C u0 p0 c0 {2,S} {6,S} {7,S}
4 C u1 p1 c0 {1,S} {2,S}
5 H u0 p0 c0 {2,S}
6 H u0 p0 c0 {3,S}
7 H u0 p0 c0 {3,S}


>  <multiplicity>  (5) 
2

>  <reaction>  (5) 
rxn_1861

>  <type>  (5) 
r2

>  <role_mapnums>  (5) 
{}

>  <role_mapidx>  (5) 
{}

>  <ordered_mapped_smiles>  (5) 
[CH:1]([CH:2]([CH:3][SH:4])[H:7])([H:5])[H:6]

>  <level_of_theory>  (5) 
wb97xd/def2tzvp

>  <lot_method>  (5) 
wb97xd

>  <lot_basis>  (5) 
def2tzvp

>  <spin_multiplicity>  (5) 
2.0

>  <optical_isomers>  (5) 
1.0

>  <modes>  (5) 
IdealGasTranslation(mass=(70.9955, 'amu')),         NonlinearRotor(             inertia = ([10.5411, 179.005, 189.545

>  <frequency_value>  (5) 
unknown

>  <frequency_units>  (5) 
unknown

>  <frequency_list>  (5) 
unknown

>  <arkane_path>  (5) 
/home/calvin/Dropbox/PersonalFolders/Calvin/HAb_Converged/rxn_1861/output/Species/rxn_1861_C=C[C]=S/arkane/output.py

>  <path_exists>  (5) 
True

>  <E0_value>  (5) 
-1349993.0265723662

>  <E0_units>  (5) 
kJ/mol

>  <thermo_class>  (5) 
NASA

>  <Cp0_value>  (5) 
33.257888

>  <Cp0_units>  (5) 
J/(mol*K)

>  <CpInf_value>  (5) 
157.97496800000002

>  <CpInf_units>  (5) 
J/(mol*K)

>  <Tmin_value>  (5) 
10.0

>  <Tmin_units>  (5) 
K

>  <Tmax_value>  (5) 
3000.0

>  <Tmax_units>  (5) 
K

>  <polynomials>  (5) 
[{"name": "polynomial1", "class": "NASAPolynomial", "Tmin_value": 10.0, "Tmin_units": "K", "Tmax_value": 482.1301665802275, "Tmax_units": "K", "coeffs": [3.9339607670145957, 0.004302096978520193, 8.035838855252611e-05, -1.8150147447629097e-07, 1.2462580155687268e-10, -162366655.6604501, 9.642320969940064]}, {"name": "polynomial2", "class": "NASAPolynomial", "Tmin_value": 482.1301665802275, "Tmin_units": "K", "Tmax_value": 3000.0, "Tmax_units": "K", "coeffs": [3.400427758770762, 0.021645224311717642, -1.37856590531485e-05, 4.244047020172045e-09, -5.028191493369426e-13, -162366754.33756855, 10.270196831946016]}]

>  <H298_value>  (5) 
-322652.55047265504

>  <H298_units>  (5) 
kcal/mol

>  <S298_value>  (5) 
70.64361213735101

>  <S298_units>  (5) 
cal/(mol*K)

>  <Cp_T_value_list>  (5) 
[17.02196180246356, 20.04389454321789, 22.40715394507206, 24.39549126437832, 27.544237618727635, 29.810523671258657, 33.04459736313007, 34.68770283344468, 35.63248721043395]

>  <Cp_T_units>  (5) 
cal/(mol*K)

>  <T_list>  (5) 
[300.0, 400.0, 500.0, 600.0, 800.0, 1000.0, 1500.0, 2000.0, 2400.0]

>  <T_units>  (5) 
K

>  <yaml_path>  (5) 
/home/calvin/Dropbox/PersonalFolders/Calvin/HAb_Converged/rxn_1861/output/Species/rxn_1861_C=C[C]=S/rxn_1861_C=CC=S.yml

>  <frequencies_cm1>  (5) 
[184.57083143095997, 214.92290654536, 515.6487946641199, 562.7082450620801, 730.0017414279199, 762.2216365493599, 843.0666547217199, 1034.47013654608, 1198.8726320921999, 1337.5170657029998, 1487.49889207712, 1626.2463304677199, 3117.87914770748, 3147.4895884073203, 3250.46690026604]

>  <ZPE_kJmol>  (5) 
119.7078354553374

>  <E_elec_kJmol>  (5) 
-1350112.7344078217

>  <E0_minus_Eelec_plus_ZPE_kJmol>  (5) 
0.0

>  <rxn>  (5) 
rxn_1861

>  <species_type>  (5) 
r1

>  <species_folder>  (5) 
rxn_1861_C=C[C]=S

>  <frequencies_cm1_list>  (5) 
[184.57083143095997, 214.92290654536, 515.6487946641199, 562.7082450620801, 730.0017414279199, 762.2216365493599, 843.0666547217199, 1034.47013654608, 1198.8726320921999, 1337.5170657029998, 1487.49889207712, 1626.2463304677199, 3117.87914770748, 3147.4895884073203, 3250.46690026604]

>  <E0_kJmol>  (5) 
-1.34999e+06

>  <H298_kJmol>  (5) 
-1.34998e+06

$$$$
