
     RDKit          3D

  6  5  0  0  0  0  0  0  0  0999 V2000
   -0.6627   -0.1646    0.9821 C   0  0  0  0  0  0  0  0  0  1  0  0
    0.2868    0.0631   -0.4991 S   0  0  0  0  0  0  0  0  0  2  0  0
   -0.7318    0.7728    1.5285 H   0  0  0  0  0  0  0  0  0  3  0  0
   -1.6908   -0.3989    0.7164 H   0  0  0  0  0  0  0  0  0  4  0  0
   -0.2450   -0.8899    1.6758 H   0  0  0  0  0  0  0  0  0  5  0  0
    1.4769    0.2487    0.0864 H   0  0  0  0  0  0  0  0  0  6  0  0
  1  5  1  0
  1  4  1  0
  1  3  1  0
  1  2  1  0
  2  6  1  0
M  END
>  <rmg_smiles>  (1) 
CS

>  <rmg_adjacency_list>  (1) 
1 S u0 p2 c0 {2,S} {6,S}
2 C u0 p0 c0 {1,S} {3,S} {4,S} {5,S}
3 H u0 p0 c0 {2,S}
4 H u0 p0 c0 {2,S}
5 H u0 p0 c0 {2,S}
6 H u0 p0 c0 {1,S}


>  <multiplicity>  (1) 
1

>  <reaction>  (1) 
rxn_1803

>  <type>  (1) 
r1h

>  <role_mapnums>  (1) 
{"r1h_a": 1, "r1h_h": 3}

>  <role_mapidx>  (1) 
{"r1h_a": 0, "r1h_h": 2}

>  <ordered_mapped_smiles>  (1) 
[C:1]([S:2][H:6])([H:3])([H:4])[H:5]

>  <mol_properties>  (1) 
{"0": {"label": "donator", "atom_type": "Cs"}, "2": {"label": "d_hydrogen", "atom_type": "H0"}}

>  <level_of_theory>  (1) 
wb97xd/def2tzvp

>  <lot_method>  (1) 
wb97xd

>  <lot_basis>  (1) 
def2tzvp

>  <spin_multiplicity>  (1) 
1.0

>  <optical_isomers>  (1) 
1.0

>  <modes>  (1) 
IdealGasTranslation(mass=(48.0034, 'amu')),         NonlinearRotor(             inertia = ([4.88218, 38.8439, 40.5133

>  <frequency_value>  (1) 
unknown

>  <frequency_units>  (1) 
unknown

>  <frequency_list>  (1) 
unknown

>  <arkane_path>  (1) 
/home/calvin/Dropbox/PersonalFolders/Calvin/HAb_Converged/rxn_1803/output/Species/rxn_1803_CS/arkane/output.py

>  <path_exists>  (1) 
True

>  <E0_value>  (1) 
-1151727.0074722518

>  <E0_units>  (1) 
kJ/mol

>  <thermo_class>  (1) 
NASA

>  <Cp0_value>  (1) 
33.257888

>  <Cp0_units>  (1) 
J/(mol*K)

>  <CpInf_value>  (1) 
133.031552

>  <CpInf_units>  (1) 
J/(mol*K)

>  <Tmin_value>  (1) 
10.0

>  <Tmin_units>  (1) 
K

>  <Tmax_value>  (1) 
3000.0

>  <Tmax_units>  (1) 
K

>  <polynomials>  (1) 
[{"name": "polynomial1", "class": "NASAPolynomial", "Tmin_value": 10.0, "Tmin_units": "K", "Tmax_value": 512.0046987811082, "Tmax_units": "K", "coeffs": [3.9928587497669135, 0.0002559754074249204, 3.857280640825913e-05, -5.9282603001709694e-08, 2.982147399711347e-11, -138520762.43019888, 6.388595841908656]}, {"name": "polynomial2", "class": "NASAPolynomial", "Tmin_value": 512.0046987811082, "Tmin_units": "K", "Tmax_value": 3000.0, "Tmax_units": "K", "coeffs": [1.9274442242810899, 0.01639190572497184, -8.700073442106705e-06, 2.2701656845537463e-09, -2.333640907578926e-13, -138520550.93016994, 14.970390653960273]}]

>  <H298_value>  (1) 
-275266.5007544268

>  <H298_units>  (1) 
kcal/mol

>  <S298_value>  (1) 
60.53254852214023

>  <S298_units>  (1) 
cal/(mol*K)

>  <Cp_T_value_list>  (1) 
[12.285164170505567, 14.379905317207566, 16.329998202821564, 18.065044527000737, 20.944482261362513, 23.163034177843237, 26.669386406809583, 28.493484761208425, 29.402518411604955]

>  <Cp_T_units>  (1) 
cal/(mol*K)

>  <T_list>  (1) 
[300.0, 400.0, 500.0, 600.0, 800.0, 1000.0, 1500.0, 2000.0, 2400.0]

>  <T_units>  (1) 
K

>  <yaml_path>  (1) 
/home/calvin/Dropbox/PersonalFolders/Calvin/HAb_Converged/rxn_1803/output/Species/rxn_1803_CS/rxn_1803_CS.yml

>  <frequencies_cm1>  (1) 
[239.23203457815995, 718.5407429288399, 797.72395065376, 969.0552343877599, 1092.82577779544, 1352.90597980512, 1462.0155095546, 1475.7082782826799, 2706.3887863771197, 3036.2032243114, 3126.3324066364, 3127.7195376710397]

>  <ZPE_kJmol>  (1) 
120.25255493508004

>  <E_elec_kJmol>  (1) 
-1151847.260027187

>  <E0_minus_Eelec_plus_ZPE_kJmol>  (1) 
0.0

>  <rxn>  (1) 
rxn_1803

>  <species_type>  (1) 
r0

>  <species_folder>  (1) 
rxn_1803_CS

>  <frequencies_cm1_list>  (1) 
[239.23203457815995, 718.5407429288399, 797.72395065376, 969.0552343877599, 1092.82577779544, 1352.90597980512, 1462.0155095546, 1475.7082782826799, 2706.3887863771197, 3036.2032243114, 3126.3324066364, 3127.7195376710397]

>  <E0_kJmol>  (1) 
-1.15173e+06

>  <H298_kJmol>  (1) 
-1.15172e+06

$$$$

     RDKit          3D

 11 10  0  0  0  0  0  0  0  0999 V2000
   -0.1658   -1.4023   -0.1707 H   0  0  0  0  0  0  0  0  0  1  0  0
   -1.0556    0.4033   -0.6459 C   0  0  0  0  0  0  0  0  0  2  0  0
   -0.2011   -0.4127    0.2869 C   0  0  0  0  0  0  0  0  0  3  0  0
    1.2400    0.0091    0.3958 C   0  0  0  0  0  0  0  0  0  4  0  0
   -0.6348    0.4005   -1.6550 H   0  0  0  0  0  0  0  0  0  5  0  0
   -2.0736    0.0141   -0.7028 H   0  0  0  0  0  0  0  0  0  6  0  0
   -1.1176    1.4475   -0.3191 H   0  0  0  0  0  0  0  0  0  7  0  0
   -0.6700   -0.6051    1.2528 H   0  0  0  0  0  0  0  0  0  8  0  0
    1.3309    1.0079    0.8375 H   0  0  0  0  0  0  0  0  0  9  0  0
    1.8159   -0.6791    1.0177 H   0  0  0  0  0  0  0  0  0 10  0  0
    1.7060    0.0489   -0.5925 H   0  0  0  0  0  0  0  0  0 11  0  0
  1  3  1  0
  2  7  1  0
  2  5  1  0
  2  6  1  0
  2  3  1  0
  3  4  1  0
  3  8  1  0
  4  9  1  0
  4 10  1  0
  4 11  1  0
M  END
>  <rmg_smiles>  (2) 
CCC

>  <rmg_adjacency_list>  (2) 
1  H u0 p0 c0 {3,S}
2  C u0 p0 c0 {3,S} {5,S} {6,S} {7,S}
3  C u0 p0 c0 {1,S} {2,S} {4,S} {8,S}
4  C u0 p0 c0 {3,S} {9,S} {10,S} {11,S}
5  H u0 p0 c0 {2,S}
6  H u0 p0 c0 {2,S}
7  H u0 p0 c0 {2,S}
8  H u0 p0 c0 {3,S}
9  H u0 p0 c0 {4,S}
10 H u0 p0 c0 {4,S}
11 H u0 p0 c0 {4,S}


>  <multiplicity>  (2) 
1

>  <reaction>  (2) 
rxn_1803

>  <type>  (2) 
r2h

>  <role_mapnums>  (2) 
{"r2h_a": 3, "r2h_h": 1}

>  <role_mapidx>  (2) 
{"r2h_a": 2, "r2h_h": 0}

>  <ordered_mapped_smiles>  (2) 
[H:1][C:3]([C:2]([H:5])([H:6])[H:7])([C:4]([H:9])([H:10])[H:11])[H:8]

>  <mol_properties>  (2) 
{"0": {"label": "a_hydrogen", "atom_type": "H0"}, "2": {"label": "acceptor", "atom_type": "Cs"}}

>  <level_of_theory>  (2) 
wb97xd/def2tzvp

>  <lot_method>  (2) 
wb97xd

>  <lot_basis>  (2) 
def2tzvp

>  <spin_multiplicity>  (2) 
1.0

>  <optical_isomers>  (2) 
1.0

>  <modes>  (2) 
IdealGasTranslation(mass=(44.0626, 'amu')),         NonlinearRotor(             inertia = ([17.0625, 59.5808, 67.2958

>  <frequency_value>  (2) 
unknown

>  <frequency_units>  (2) 
unknown

>  <frequency_list>  (2) 
unknown

>  <arkane_path>  (2) 
/home/calvin/Dropbox/PersonalFolders/Calvin/HAb_Converged/rxn_1803/output/Species/rxn_1803_CCC/arkane/output.py

>  <path_exists>  (2) 
True

>  <E0_value>  (2) 
-312559.7664121831

>  <E0_units>  (2) 
kJ/mol

>  <thermo_class>  (2) 
NASA

>  <Cp0_value>  (2) 
33.257888

>  <Cp0_units>  (2) 
J/(mol*K)

>  <CpInf_value>  (2) 
257.748632

>  <CpInf_units>  (2) 
J/(mol*K)

>  <Tmin_value>  (2) 
10.0

>  <Tmin_units>  (2) 
K

>  <Tmax_value>  (2) 
3000.0

>  <Tmax_units>  (2) 
K

>  <polynomials>  (2) 
[{"name": "polynomial1", "class": "NASAPolynomial", "Tmin_value": 10.0, "Tmin_units": "K", "Tmax_value": 577.4310568776192, "Tmax_units": "K", "coeffs": [3.9747269033817734, 0.0011347804367172543, 7.533889062875609e-05, -1.0470498139729524e-07, 4.699078499553375e-11, -37592254.8773633, 6.773591698117238]}, {"name": "polynomial2", "class": "NASAPolynomial", "Tmin_value": 577.4310568776192, "Tmin_units": "K", "Tmax_value": 3000.0, "Tmax_units": "K", "coeffs": [-1.3041055241664254, 0.03770227026025092, -1.9652378532074013e-05, 4.9654907444475164e-09, -4.909963524622396e-13, -37591645.24138486, 29.34198158192454]}]

>  <H298_value>  (2) 
-74700.16503809701

>  <H298_units>  (2) 
kcal/mol

>  <S298_value>  (2) 
64.12787959081382

>  <S298_units>  (2) 
cal/(mol*K)

>  <Cp_T_value_list>  (2) 
[17.187849905588877, 21.82888089347945, 26.282080105357306, 30.30750880664003, 37.00458219733553, 42.16907955247373, 50.28489012355217, 54.3677942411287, 56.31048938168173]

>  <Cp_T_units>  (2) 
cal/(mol*K)

>  <T_list>  (2) 
[300.0, 400.0, 500.0, 600.0, 800.0, 1000.0, 1500.0, 2000.0, 2400.0]

>  <T_units>  (2) 
K

>  <yaml_path>  (2) 
/home/calvin/Dropbox/PersonalFolders/Calvin/HAb_Converged/rxn_1803/output/Species/rxn_1803_CCC/rxn_1803_CCC.yml

>  <frequencies_cm1>  (2) 
[219.27657523823999, 274.69314677064, 369.88329727648, 749.53831466332, 878.21188558948, 908.3991530561998, 929.9271520343999, 1065.0968910732797, 1172.11199030016, 1205.9799618984, 1309.06714552224, 1359.46395078572, 1398.3379546822398, 1410.31397708032, 1476.4087107853202, 1480.39842925624, 1483.440503753, 1494.09119798432, 1498.5410044716796, 3005.39792816588, 3007.40308787932, 3010.35589156692, 3037.8787687294803, 3071.65746951856, 3081.94421352792, 3083.3450785332, 3086.08500567588]

>  <ZPE_kJmol>  (2) 
269.5620865819488

>  <E_elec_kJmol>  (2) 
-312829.32849876507

>  <E0_minus_Eelec_plus_ZPE_kJmol>  (2) 
0.0

>  <rxn>  (2) 
rxn_1803

>  <species_type>  (2) 
p0

>  <species_folder>  (2) 
rxn_1803_CCC

>  <frequencies_cm1_list>  (2) 
[219.27657523823999, 274.69314677064, 369.88329727648, 749.53831466332, 878.21188558948, 908.3991530561998, 929.9271520343999, 1065.0968910732797, 1172.11199030016, 1205.9799618984, 1309.06714552224, 1359.46395078572, 1398.3379546822398, 1410.31397708032, 1476.4087107853202, 1480.39842925624, 1483.440503753, 1494.09119798432, 1498.5410044716796, 3005.39792816588, 3007.40308787932, 3010.35589156692, 3037.8787687294803, 3071.65746951856, 3081.94421352792, 3083.3450785332, 3086.08500567588]

>  <E0_kJmol>  (2) 
-312560

>  <H298_kJmol>  (2) 
-312545

$$$$

     RDKit          3D

 16 14  0  0  0  0  0  0  0  0999 V2000
   -0.1298   -1.3078    0.1135 C   0  0  0  0  0  3  0  0  0  1  0  0
    0.8197   -1.0801   -1.3677 S   0  0  0  0  0  0  0  0  0  2  0  0
   -0.2156   -0.1449    0.7913 H   0  0  0  0  0  0  0  0  0  3  0  0
   -1.1579   -1.5420   -0.1522 H   0  0  0  0  0  0  0  0  0  4  0  0
    0.2879   -2.0331    0.8072 H   0  0  0  0  0  0  0  0  0  5  0  0
    2.0098   -0.8945   -0.7822 H   0  0  0  0  0  0  0  0  0  6  0  0
   -1.1136    1.8892    0.4218 C   0  0  0  0  0  0  0  0  0  7  0  0
   -0.2591    1.0731    1.3545 C   0  0  0  0  0  0  0  0  0  8  0  0
    1.1820    1.4950    1.4634 C   0  0  0  0  0  0  0  0  0  9  0  0
   -0.6928    1.8864   -0.5873 H   0  0  0  0  0  0  0  0  0 10  0  0
   -2.1316    1.5000    0.3648 H   0  0  0  0  0  0  0  0  0 11  0  0
   -1.1755    2.9334    0.7485 H   0  0  0  0  0  0  0  0  0 12  0  0
   -0.7280    0.8808    2.3204 H   0  0  0  0  0  0  0  0  0 13  0  0
    1.2729    2.4937    1.9052 H   0  0  0  0  0  0  0  0  0 14  0  0
    1.7580    0.8068    2.0853 H   0  0  0  0  0  0  0  0  0 15  0  0
    1.6480    1.5348    0.4751 H   0  0  0  0  0  0  0  0  0 16  0  0
  1  5  1  0
  1  4  1  0
  1  2  1  0
  2  6  1  0
  3  8  1  0
  7 10  1  0
  7 12  1  0
  7  8  1  0
  7 11  1  0
  8  9  1  0
  8 13  1  0
  9 16  1  0
  9 14  1  0
  9 15  1  0
M  RAD  1   1   2
M  END
>  <rmg_smiles>  (3) 
CCC.[CH2]S

>  <rmg_adjacency_list>  (3) 
multiplicity 2
1  S u0 p2 c0 {5,S} {16,S}
2  C u0 p0 c0 {3,S} {4,S} {6,S} {7,S}
3  C u0 p0 c0 {2,S} {8,S} {9,S} {10,S}
4  C u0 p0 c0 {2,S} {11,S} {12,S} {13,S}
5  C u1 p0 c0 {1,S} {14,S} {15,S}
6  H u0 p0 c0 {2,S}
7  H u0 p0 c0 {2,S}
8  H u0 p0 c0 {3,S}
9  H u0 p0 c0 {3,S}
10 H u0 p0 c0 {3,S}
11 H u0 p0 c0 {4,S}
12 H u0 p0 c0 {4,S}
13 H u0 p0 c0 {4,S}
14 H u0 p0 c0 {5,S}
15 H u0 p0 c0 {5,S}
16 H u0 p0 c0 {1,S}


>  <multiplicity>  (3) 
2

>  <reaction>  (3) 
rxn_1803

>  <type>  (3) 
ts

>  <role_mapnums>  (3) 
{"*2": 3, "*1": 1, "*3": 8, "*0": 7, "*4": 2}

>  <role_mapidx>  (3) 
{"*2": 2, "*1": 0, "*3": 7, "*0": 6, "*4": 1}

>  <ordered_mapped_smiles>  (3) 
[C:1]([S:2][H:6])([H:4])[H:5].[H:3][C:8]([C:7]([H:10])([H:11])[H:12])([C:9]([H:14])([H:15])[H:16])[H:13]

>  <mol_properties>  (3) 
{"0": {"label": "*1", "atom_type": "Cs"}, "1": {"label": "*4", "atom_type": "S2s"}, "2": {"label": "*2", "atom_type": "H0"}, "6": {"label": "*0", "atom_type": "Cs"}, "7": {"label": "*3", "atom_type": "Cs"}}

>  <level_of_theory>  (3) 
wb97xd/def2tzvp

>  <lot_method>  (3) 
wb97xd

>  <lot_basis>  (3) 
def2tzvp

>  <spin_multiplicity>  (3) 
2.0

>  <optical_isomers>  (3) 
2.0

>  <modes>  (3) 
IdealGasTranslation(mass=(91.0581, 'amu')),         NonlinearRotor(             inertia = ([96.7579, 306.684, 329.551

>  <frequency_value>  (3) 
-1741.1

>  <frequency_units>  (3) 
cm^-1

>  <frequency_list>  (3) 
unknown

>  <arkane_path>  (3) 
/home/calvin/Dropbox/PersonalFolders/Calvin/HAb_Converged/rxn_1803/output/rxns/TS0/arkane/output.py

>  <path_exists>  (3) 
True

>  <E0_value>  (3) 
-1462520.0

>  <E0_units>  (3) 
kJ/mol

>  <thermo_class>  (3) 
unknown

>  <Cp0_value>  (3) 
unknown

>  <Cp0_units>  (3) 
unknown

>  <CpInf_value>  (3) 
unknown

>  <CpInf_units>  (3) 
unknown

>  <Tmin_value>  (3) 
unknown

>  <Tmin_units>  (3) 
unknown

>  <Tmax_value>  (3) 
unknown

>  <Tmax_units>  (3) 
unknown

>  <polynomials>  (3) 
unknown

>  <H298_value>  (3) 
unknown

>  <H298_units>  (3) 
unknown

>  <S298_value>  (3) 
unknown

>  <S298_units>  (3) 
unknown

>  <Cp_T_value_list>  (3) 
unknown

>  <Cp_T_units>  (3) 
unknown

>  <T_list>  (3) 
unknown

>  <T_units>  (3) 
unknown

>  <yaml_path>  (3) 
unknown

>  <frequencies_cm1>  (3) 
unknown

>  <ZPE_kJmol>  (3) 
unknown

>  <E_elec_kJmol>  (3) 
unknown

>  <E0_minus_Eelec_plus_ZPE_kJmol>  (3) 
unknown

>  <rxn>  (3) 
unknown

>  <species_type>  (3) 
unknown

>  <species_folder>  (3) 
unknown

>  <frequencies_cm1_list>  (3) 
[]

>  <ts_imag_freq_cm1>  (3) 
-1762.2434

>  <ts_freq_out_path>  (3) 
/home/calvin/Dropbox/PersonalFolders/Calvin/HAb_Converged/rxn_1803/output/rxns/TS0/geometry/freq.out

>  <E0_kJmol>  (3) 
-1.46252e+06

>  <H298_kJmol>  (3) 
unknown

$$$$

     RDKit          3D

  5  4  0  0  0  0  0  0  0  0999 V2000
   -0.5642    0.0794    0.0348 C   0  0  0  0  0  3  0  0  0  1  0  0
    1.0624    0.5420    0.2853 S   0  0  0  0  0  0  0  0  0  2  0  0
   -1.3257    0.7631    0.3741 H   0  0  0  0  0  0  0  0  0  3  0  0
   -0.8236   -0.8519   -0.4401 H   0  0  0  0  0  0  0  0  0  4  0  0
    1.6511   -0.5325   -0.2540 H   0  0  0  0  0  0  0  0  0  5  0  0
  1  3  1  0
  1  2  1  0
  1  4  1  0
  2  5  1  0
M  RAD  1   1   2
M  END
>  <rmg_smiles>  (4) 
[CH2]S

>  <rmg_adjacency_list>  (4) 
multiplicity 2
1 S u0 p2 c0 {2,S} {5,S}
2 C u1 p0 c0 {1,S} {3,S} {4,S}
3 H u0 p0 c0 {2,S}
4 H u0 p0 c0 {2,S}
5 H u0 p0 c0 {1,S}


>  <multiplicity>  (4) 
2

>  <reaction>  (4) 
rxn_1803

>  <type>  (4) 
r1

>  <role_mapnums>  (4) 
{}

>  <role_mapidx>  (4) 
{}

>  <ordered_mapped_smiles>  (4) 
[C:1]([S:2][H:5])([H:3])[H:4]

>  <level_of_theory>  (4) 
wb97xd/def2tzvp

>  <lot_method>  (4) 
wb97xd

>  <lot_basis>  (4) 
def2tzvp

>  <spin_multiplicity>  (4) 
2.0

>  <optical_isomers>  (4) 
1.0

>  <modes>  (4) 
IdealGasTranslation(mass=(46.9956, 'amu')),         NonlinearRotor(             inertia = ([3.47508, 32.1188, 35.5939

>  <frequency_value>  (4) 
unknown

>  <frequency_units>  (4) 
unknown

>  <frequency_list>  (4) 
unknown

>  <arkane_path>  (4) 
/home/calvin/Dropbox/PersonalFolders/Calvin/HAb_Converged/rxn_1803/output/Species/rxn_1803_[CH2]S/arkane/output.py

>  <path_exists>  (4) 
True

>  <E0_value>  (4) 
-1150024.3332710424

>  <E0_units>  (4) 
kJ/mol

>  <thermo_class>  (4) 
NASA

>  <Cp0_value>  (4) 
33.257888

>  <Cp0_units>  (4) 
J/(mol*K)

>  <CpInf_value>  (4) 
108.088136

>  <CpInf_units>  (4) 
J/(mol*K)

>  <Tmin_value>  (4) 
10.0

>  <Tmin_units>  (4) 
K

>  <Tmax_value>  (4) 
3000.0

>  <Tmax_units>  (4) 
K

>  <polynomials>  (4) 
[{"name": "polynomial1", "class": "NASAPolynomial", "Tmin_value": 10.0, "Tmin_units": "K", "Tmax_value": 228.7632631011955, "Tmax_units": "K", "coeffs": [3.952412159768893, 0.004869189743453995, 7.700507410130638e-05, -3.7784535832034173e-07, 5.662383077803353e-10, -138315979.8249789, 6.828268654504248]}, {"name": "polynomial2", "class": "NASAPolynomial", "Tmin_value": 228.7632631011955, "Tmin_units": "K", "Tmax_value": 3000.0, "Tmax_units": "K", "coeffs": [4.0647189913044315, 0.010177206447780005, -5.480339108667681e-06, 1.4876276440090965e-09, -1.6083284592339647e-13, -138316003.99077362, 6.036236642771031]}]

>  <H298_value>  (4) 
-274859.2476351292

>  <H298_units>  (4) 
kcal/mol

>  <S298_value>  (4) 
63.58185598753384

>  <S298_units>  (4) 
cal/(mol*K)

>  <Cp_T_value_list>  (4) 
[13.241777557438835, 14.605646175289959, 15.816452446168032, 16.888481942792666, 18.669517607236212, 20.047696562682138, 22.269217674285446, 23.499652986162165, 24.148886967222168]

>  <Cp_T_units>  (4) 
cal/(mol*K)

>  <T_list>  (4) 
[300.0, 400.0, 500.0, 600.0, 800.0, 1000.0, 1500.0, 2000.0, 2400.0]

>  <T_units>  (4) 
K

>  <yaml_path>  (4) 
/home/calvin/Dropbox/PersonalFolders/Calvin/HAb_Converged/rxn_1803/output/Species/rxn_1803_[CH2]S/rxn_1803_CH2S.yml

>  <frequencies_cm1>  (4) 
[112.26147601135997, 339.84023650148, 784.39513214764, 853.62121115856, 1068.3930440268798, 1401.38689616432, 2708.6686255033596, 3159.5548816145597, 3285.6189981191196]

>  <ZPE_kJmol>  (4) 
82.02640747232539

>  <E_elec_kJmol>  (4) 
-1150106.3596785148

>  <E0_minus_Eelec_plus_ZPE_kJmol>  (4) 
0.0

>  <rxn>  (4) 
rxn_1803

>  <species_type>  (4) 
p1

>  <species_folder>  (4) 
rxn_1803_[CH2]S

>  <frequencies_cm1_list>  (4) 
[112.26147601135997, 339.84023650148, 784.39513214764, 853.62121115856, 1068.3930440268798, 1401.38689616432, 2708.6686255033596, 3159.5548816145597, 3285.6189981191196]

>  <E0_kJmol>  (4) 
-1.15002e+06

>  <H298_kJmol>  (4) 
-1.15001e+06

$$$$

     RDKit          3D

 10  9  0  0  0  0  0  0  0  0999 V2000
    1.2930    0.1441    0.3288 C   0  0  0  0  0  0  0  0  0  1  0  0
   -0.0374   -0.1647    0.9100 C   0  0  0  0  0  3  0  0  0  2  0  0
   -1.2664    0.4569    0.3567 C   0  0  0  0  0  0  0  0  0  3  0  0
    1.4384    1.2242    0.2174 H   0  0  0  0  0  0  0  0  0  4  0  0
    2.1077   -0.2477    0.9385 H   0  0  0  0  0  0  0  0  0  5  0  0
    1.4057   -0.2836   -0.6789 H   0  0  0  0  0  0  0  0  0  6  0  0
   -0.1309   -0.9912    1.6030 H   0  0  0  0  0  0  0  0  0  7  0  0
   -1.5005    0.0716   -0.6471 H   0  0  0  0  0  0  0  0  0  8  0  0
   -2.1382    0.2713    0.9849 H   0  0  0  0  0  0  0  0  0  9  0  0
   -1.1497    1.5406    0.2456 H   0  0  0  0  0  0  0  0  0 10  0  0
  1  5  1  0
  1  4  1  0
  1  6  1  0
  1  2  1  0
  2  7  1  0
  2  3  1  0
  3  9  1  0
  3 10  1  0
  3  8  1  0
M  RAD  1   2   2
M  END
>  <rmg_smiles>  (5) 
C[CH]C

>  <rmg_adjacency_list>  (5) 
multiplicity 2
1  C u0 p0 c0 {3,S} {4,S} {5,S} {6,S}
2  C u0 p0 c0 {3,S} {7,S} {8,S} {9,S}
3  C u1 p0 c0 {1,S} {2,S} {10,S}
4  H u0 p0 c0 {1,S}
5  H u0 p0 c0 {1,S}
6  H u0 p0 c0 {1,S}
7  H u0 p0 c0 {2,S}
8  H u0 p0 c0 {2,S}
9  H u0 p0 c0 {2,S}
10 H u0 p0 c0 {3,S}


>  <multiplicity>  (5) 
2

>  <reaction>  (5) 
rxn_1803

>  <type>  (5) 
r2

>  <role_mapnums>  (5) 
{}

>  <role_mapidx>  (5) 
{}

>  <ordered_mapped_smiles>  (5) 
[C:1]([C:2]([C:3]([H:8])([H:9])[H:10])[H:7])([H:4])([H:5])[H:6]

>  <level_of_theory>  (5) 
wb97xd/def2tzvp

>  <lot_method>  (5) 
wb97xd

>  <lot_basis>  (5) 
def2tzvp

>  <spin_multiplicity>  (5) 
2.0

>  <optical_isomers>  (5) 
1.0

>  <modes>  (5) 
IdealGasTranslation(mass=(43.0548, 'amu')),         NonlinearRotor(             inertia = ([13.4945, 59.9891, 67.2321

>  <frequency_value>  (5) 
unknown

>  <frequency_units>  (5) 
unknown

>  <frequency_list>  (5) 
unknown

>  <arkane_path>  (5) 
/home/calvin/Dropbox/PersonalFolders/Calvin/HAb_Converged/rxn_1803/output/Species/rxn_1803_C[CH]C/arkane/output.py

>  <path_exists>  (5) 
True

>  <E0_value>  (5) 
-310845.2184059608

>  <E0_units>  (5) 
kJ/mol

>  <thermo_class>  (5) 
NASA

>  <Cp0_value>  (5) 
33.257888

>  <Cp0_units>  (5) 
J/(mol*K)

>  <CpInf_value>  (5) 
232.805216

>  <CpInf_units>  (5) 
J/(mol*K)

>  <Tmin_value>  (5) 
10.0

>  <Tmin_units>  (5) 
K

>  <Tmax_value>  (5) 
3000.0

>  <Tmax_units>  (5) 
K

>  <polynomials>  (5) 
[{"name": "polynomial1", "class": "NASAPolynomial", "Tmin_value": 10.0, "Tmin_units": "K", "Tmax_value": 447.8128792552529, "Tmax_units": "K", "coeffs": [3.752012635379411, 0.026641862649172638, -7.746058003612534e-05, 2.1389576411497674e-07, -1.844633782932518e-10, -37386043.96321184, 8.05688024181999]}, {"name": "polynomial2", "class": "NASAPolynomial", "Tmin_value": 447.8128792552529, "Tmin_units": "K", "Tmax_value": 3000.0, "Tmax_units": "K", "coeffs": [0.3456331898922003, 0.0329396549778818, -1.7732866616299737e-05, 4.6556958792141865e-09, -4.78902486015414e-13, -37385496.94179907, 24.455396824893292]}]

>  <H298_value>  (5) 
-74289.9090718394

>  <H298_units>  (5) 
kcal/mol

>  <S298_value>  (5) 
70.4573159165227

>  <S298_units>  (5) 
cal/(mol*K)

>  <Cp_T_value_list>  (5) 
[17.99246870913784, 21.823762730245537, 25.70307457878351, 29.150647616604275, 34.84741547055869, 39.20602419681299, 45.99328941377369, 49.43494906715023, 51.132806782188474]

>  <Cp_T_units>  (5) 
cal/(mol*K)

>  <T_list>  (5) 
[300.0, 400.0, 500.0, 600.0, 800.0, 1000.0, 1500.0, 2000.0, 2400.0]

>  <T_units>  (5) 
K

>  <yaml_path>  (5) 
/home/calvin/Dropbox/PersonalFolders/Calvin/HAb_Converged/rxn_1803/output/Species/rxn_1803_C[CH]C/rxn_1803_CCHC.yml

>  <frequencies_cm1>  (5) 
[105.22281605836, 112.68722910119999, 345.60850417028, 388.99411742204, 888.91751570336, 934.4593623456, 940.8456586931999, 1017.3988110405598, 1144.8637925504, 1173.26564383392, 1356.01672415508, 1400.16457277736, 1405.7130969159198, 1454.7502390860398, 1462.58546933616, 1465.42840125864, 1476.53231652108, 2938.8637074004, 2942.7366871208797, 3008.0211165581195, 3008.4194017066793, 3085.04122390724, 3085.8858631016, 3161.75918390228]

>  <ZPE_kJmol>  (5) 
229.10994966023972

>  <E_elec_kJmol>  (5) 
-311074.328355621

>  <E0_minus_Eelec_plus_ZPE_kJmol>  (5) 
0.0

>  <rxn>  (5) 
rxn_1803

>  <species_type>  (5) 
r1

>  <species_folder>  (5) 
rxn_1803_C[CH]C

>  <frequencies_cm1_list>  (5) 
[105.22281605836, 112.68722910119999, 345.60850417028, 388.99411742204, 888.91751570336, 934.4593623456, 940.8456586931999, 1017.3988110405598, 1144.8637925504, 1173.26564383392, 1356.01672415508, 1400.16457277736, 1405.7130969159198, 1454.7502390860398, 1462.58546933616, 1465.42840125864, 1476.53231652108, 2938.8637074004, 2942.7366871208797, 3008.0211165581195, 3008.4194017066793, 3085.04122390724, 3085.8858631016, 3161.75918390228]

>  <E0_kJmol>  (5) 
-310845

>  <H298_kJmol>  (5) 
-310829

$$$$
