
     RDKit          3D

  9  8  0  0  0  0  0  0  0  0999 V2000
   -0.1753   -0.5715   -1.1496 C   0  0  0  0  0  0  0  0  0  1  0  0
    0.0105   -0.3637    0.1336 C   0  0  0  0  0  0  0  0  0  2  0  0
    0.1523    0.8707    0.9373 C   0  0  0  0  0  0  0  0  0  3  0  0
   -0.2663   -1.5725   -1.5560 H   0  0  0  0  0  0  0  0  0  4  0  0
   -0.2506    0.2563   -1.8524 H   0  0  0  0  0  0  0  0  0  5  0  0
    0.0800   -1.2679    0.7383 H   0  0  0  0  0  0  0  0  0  6  0  0
   -0.6222    0.9217    1.7058 H   0  0  0  0  0  0  0  0  0  7  0  0
    0.0736    1.7601    0.3055 H   0  0  0  0  0  0  0  0  0  8  0  0
    1.1173    0.8919    1.4483 H   0  0  0  0  0  0  0  0  0  9  0  0
  1  5  1  0
  1  4  1  0
  1  2  1  0
  2  6  1  0
  2  3  1  0
  3  8  1  0
  3  7  1  0
  3  9  1  0
M  END
>  <rmg_smiles>  (1) 
[CH2][CH]C

>  <rmg_adjacency_list>  (1) 
1 C u0 p0 c0 {2,S} {4,S} {5,S} {6,S}
2 C u0 p0 c0 {1,S} {3,S} {7,S}
3 C u0 p0 c0 {2,S} {8,S} {9,S}
4 H u0 p0 c0 {1,S}
5 H u0 p0 c0 {1,S}
6 H u0 p0 c0 {1,S}
7 H u0 p0 c0 {2,S}
8 H u0 p0 c0 {3,S}
9 H u0 p0 c0 {3,S}


>  <multiplicity>  (1) 
1

>  <reaction>  (1) 
rxn_1623

>  <type>  (1) 
r1h

>  <role_mapnums>  (1) 
{"r1h_a": 2, "r1h_h": 6}

>  <role_mapidx>  (1) 
{"r1h_a": 1, "r1h_h": 5}

>  <ordered_mapped_smiles>  (1) 
[CH:1]([CH:2]([C:3]([H:7])([H:8])[H:9])[H:6])([H:4])[H:5]

>  <mol_properties>  (1) 
{"1": {"label": "donator", "atom_type": "Cs"}, "5": {"label": "d_hydrogen", "atom_type": "H0"}}

>  <level_of_theory>  (1) 
wb97xd/def2tzvp

>  <lot_method>  (1) 
wb97xd

>  <lot_basis>  (1) 
def2tzvp

>  <spin_multiplicity>  (1) 
1.0

>  <optical_isomers>  (1) 
1.0

>  <modes>  (1) 
IdealGasTranslation(mass=(42.047, 'amu')),         NonlinearRotor(             inertia = ([10.7194, 53.9495, 61.5632

>  <frequency_value>  (1) 
unknown

>  <frequency_units>  (1) 
unknown

>  <frequency_list>  (1) 
unknown

>  <arkane_path>  (1) 
/home/calvin/Dropbox/PersonalFolders/Calvin/HAb_Converged/rxn_1623/output/Species/rxn_1623_C=CC/arkane/output.py

>  <path_exists>  (1) 
True

>  <E0_value>  (1) 
-309367.88070268225

>  <E0_units>  (1) 
kJ/mol

>  <thermo_class>  (1) 
NASA

>  <Cp0_value>  (1) 
33.257888

>  <Cp0_units>  (1) 
J/(mol*K)

>  <CpInf_value>  (1) 
207.8618

>  <CpInf_units>  (1) 
J/(mol*K)

>  <Tmin_value>  (1) 
10.0

>  <Tmin_units>  (1) 
K

>  <Tmax_value>  (1) 
3000.0

>  <Tmax_units>  (1) 
K

>  <polynomials>  (1) 
[{"name": "polynomial1", "class": "NASAPolynomial", "Tmin_value": 10.0, "Tmin_units": "K", "Tmax_value": 532.0577202057873, "Tmax_units": "K", "coeffs": [4.020103835302654, -0.0017074980479917085, 7.459046034705118e-05, -1.1023396025676474e-07, 5.3481197627967796e-11, -37208361.301710494, 6.986181334463051]}, {"name": "polynomial2", "class": "NASAPolynomial", "Tmin_value": 532.0577202057873, "Tmin_units": "K", "Tmax_value": 3000.0, "Tmax_units": "K", "coeffs": [-0.30507671788284774, 0.030809359218709958, -1.7083112014376123e-05, 4.633555316648191e-09, -4.924250044802513e-13, -37207901.05583462, 25.12344343354427]}]

>  <H298_value>  (1) 
-73937.54186756606

>  <H298_units>  (1) 
kcal/mol

>  <S298_value>  (1) 
63.24337268320408

>  <S298_units>  (1) 
cal/(mol*K)

>  <Cp_T_value_list>  (1) 
[15.257526344712856, 19.04881200484783, 22.609043962382263, 25.769394717679983, 30.960482554899503, 34.89991831876069, 40.970847866509764, 44.05802967631756, 45.61721763006197]

>  <Cp_T_units>  (1) 
cal/(mol*K)

>  <T_list>  (1) 
[300.0, 400.0, 500.0, 600.0, 800.0, 1000.0, 1500.0, 2000.0, 2400.0]

>  <T_units>  (1) 
K

>  <yaml_path>  (1) 
/home/calvin/Dropbox/PersonalFolders/Calvin/HAb_Converged/rxn_1623/output/Species/rxn_1623_C=CC/rxn_1623_C=CC.yml

>  <frequencies_cm1>  (1) 
[200.09708523947998, 429.33078919172, 590.7049442117201, 925.49107951768, 943.8671322339999, 950.17102475776, 1024.49240687612, 1068.78446219012, 1186.6081963106801, 1322.3410281457998, 1395.89330790832, 1440.30896895808, 1465.7442825833598, 1480.7692464635202, 1719.664798761, 3008.0348505287598, 3066.795643912, 3091.69533268232, 3111.44478246264, 3123.9495627303595, 3201.2649504482397]

>  <ZPE_kJmol>  (1) 
207.83598829281505

>  <E_elec_kJmol>  (1) 
-309575.71669097507

>  <E0_minus_Eelec_plus_ZPE_kJmol>  (1) 
0.0

>  <rxn>  (1) 
rxn_1623

>  <species_type>  (1) 
r1

>  <species_folder>  (1) 
rxn_1623_C=CC

>  <frequencies_cm1_list>  (1) 
[200.09708523947998, 429.33078919172, 590.7049442117201, 925.49107951768, 943.8671322339999, 950.17102475776, 1024.49240687612, 1068.78446219012, 1186.6081963106801, 1322.3410281457998, 1395.89330790832, 1440.30896895808, 1465.7442825833598, 1480.7692464635202, 1719.664798761, 3008.0348505287598, 3066.795643912, 3091.69533268232, 3111.44478246264, 3123.9495627303595, 3201.2649504482397]

>  <E0_kJmol>  (1) 
-309368

>  <H298_kJmol>  (1) 
-309355

$$$$

     RDKit          3D

  8  7  0  0  0  0  0  0  0  0999 V2000
   -1.2757    0.0917    1.3977 C   0  0  0  0  0  2  0  0  0  1  0  0
   -0.5036    0.1350    0.4753 C   0  0  0  0  0  2  0  0  0  2  0  0
    0.3529    0.2933   -0.6216 C   0  0  0  0  0  0  0  0  0  3  0  0
    1.2901   -0.5011   -1.1089 C   0  0  0  0  0  0  0  0  0  4  0  0
   -1.9504    0.0302    2.2173 H   0  0  0  0  0  0  0  0  0  5  0  0
    1.5124   -1.4660   -0.6648 H   0  0  0  0  0  0  0  0  0  6  0  0
    1.8682   -0.2023   -1.9757 H   0  0  0  0  0  0  0  0  0  7  0  0
    0.2189    1.2279   -1.1662 H   0  0  0  0  0  0  0  0  0  8  0  0
  1  5  1  0
  1  2  1  0
  2  3  1  0
  3  4  1  0
  3  8  1  0
  4  7  1  0
  4  6  1  0
M  RAD  2   1   3   2   3
M  END
>  <rmg_smiles>  (2) 
[CH][C][CH][CH2]

>  <rmg_adjacency_list>  (2) 
1 C u0 p0 c0 {2,S} {3,S} {5,S}
2 C u0 p0 c0 {1,S} {6,S} {7,S}
3 C u0 p1 c0 {1,S} {4,S}
4 C u0 p1 c0 {3,S} {8,S}
5 H u0 p0 c0 {1,S}
6 H u0 p0 c0 {2,S}
7 H u0 p0 c0 {2,S}
8 H u0 p0 c0 {4,S}


>  <multiplicity>  (2) 
1

>  <reaction>  (2) 
rxn_1623

>  <type>  (2) 
r2h

>  <role_mapnums>  (2) 
{"r2h_a": 3, "r2h_h": 8}

>  <role_mapidx>  (2) 
{"r2h_a": 2, "r2h_h": 7}

>  <ordered_mapped_smiles>  (2) 
[C:1]([C:2][CH:3]([CH:4]([H:6])[H:7])[H:8])[H:5]

>  <mol_properties>  (2) 
{"2": {"label": "acceptor", "atom_type": "Cs"}, "7": {"label": "a_hydrogen", "atom_type": "H0"}}

>  <level_of_theory>  (2) 
wb97xd/def2tzvp

>  <lot_method>  (2) 
wb97xd

>  <lot_basis>  (2) 
def2tzvp

>  <spin_multiplicity>  (2) 
1.0

>  <optical_isomers>  (2) 
1.0

>  <modes>  (2) 
IdealGasTranslation(mass=(52.0313, 'amu')),         NonlinearRotor(             inertia = ([9.86559, 105.845, 115.711

>  <frequency_value>  (2) 
unknown

>  <frequency_units>  (2) 
unknown

>  <frequency_list>  (2) 
unknown

>  <arkane_path>  (2) 
/home/calvin/Dropbox/PersonalFolders/Calvin/HAb_Converged/rxn_1623/output/Species/rxn_1623_CtCC=C/arkane/output.py

>  <path_exists>  (2) 
True

>  <E0_value>  (2) 
-406091.886125891

>  <E0_units>  (2) 
kJ/mol

>  <thermo_class>  (2) 
NASA

>  <Cp0_value>  (2) 
33.257888

>  <Cp0_units>  (2) 
J/(mol*K)

>  <CpInf_value>  (2) 
182.918384

>  <CpInf_units>  (2) 
J/(mol*K)

>  <Tmin_value>  (2) 
10.0

>  <Tmin_units>  (2) 
K

>  <Tmax_value>  (2) 
3000.0

>  <Tmax_units>  (2) 
K

>  <polynomials>  (2) 
[{"name": "polynomial1", "class": "NASAPolynomial", "Tmin_value": 10.0, "Tmin_units": "K", "Tmax_value": 539.6924259091454, "Tmax_units": "K", "coeffs": [3.952165135673625, 0.002856988610718535, 7.748969027068091e-05, -1.4636771659515447e-07, 8.592251635550374e-11, -48841570.194759525, 7.59056634578395]}, {"name": "polynomial2", "class": "NASAPolynomial", "Tmin_value": 539.6924259091454, "Tmin_units": "K", "Tmax_value": 3000.0, "Tmax_units": "K", "coeffs": [2.1702296891625794, 0.026363759472425752, -1.64707651230591e-05, 5.0606479604362095e-09, -6.036458079288838e-13, -48841527.85434033, 13.698684547881204]}]

>  <H298_value>  (2) 
-97054.8281313212

>  <H298_units>  (2) 
kcal/mol

>  <S298_value>  (2) 
66.12779656879917

>  <S298_units>  (2) 
cal/(mol*K)

>  <Cp_T_value_list>  (2) 
[16.94566075459627, 20.518689246869094, 23.50323718540477, 25.98049414422314, 29.93477402200161, 32.8291008840918, 37.12176727992767, 39.42923508788264, 40.74274810859482]

>  <Cp_T_units>  (2) 
cal/(mol*K)

>  <T_list>  (2) 
[300.0, 400.0, 500.0, 600.0, 800.0, 1000.0, 1500.0, 2000.0, 2400.0]

>  <T_units>  (2) 
K

>  <yaml_path>  (2) 
/home/calvin/Dropbox/PersonalFolders/Calvin/HAb_Converged/rxn_1623/output/Species/rxn_1623_CtCC=C/rxn_1623_CtCC=C.yml

>  <frequencies_cm1>  (2) 
[225.237118496, 321.82126702179994, 559.30222034336, 675.23753350092, 692.86508481736, 707.3338228865999, 885.99904694236, 971.2114677782399, 1012.2485720505599, 1105.4198288723198, 1315.886061945, 1434.5613022452399, 1683.44831818332, 2214.2525494486795, 3131.88779776028, 3144.7221933233595, 3226.7002640735195, 3436.58967037932]

>  <ZPE_kJmol>  (2) 
159.96902072108773

>  <E_elec_kJmol>  (2) 
-406251.8551466121

>  <E0_minus_Eelec_plus_ZPE_kJmol>  (2) 
0.0

>  <rxn>  (2) 
rxn_1623

>  <species_type>  (2) 
p0

>  <species_folder>  (2) 
rxn_1623_CtCC=C

>  <frequencies_cm1_list>  (2) 
[225.237118496, 321.82126702179994, 559.30222034336, 675.23753350092, 692.86508481736, 707.3338228865999, 885.99904694236, 971.2114677782399, 1012.2485720505599, 1105.4198288723198, 1315.886061945, 1434.5613022452399, 1683.44831818332, 2214.2525494486795, 3131.88779776028, 3144.7221933233595, 3226.7002640735195, 3436.58967037932]

>  <E0_kJmol>  (2) 
-406092

>  <H298_kJmol>  (2) 
-406077

$$$$

     RDKit          3D

 16 14  0  0  0  0  0  0  0  0999 V2000
   -1.2998   -1.1909    2.3790 C   0  0  0  0  0  0  0  0  0  1  0  0
   -0.5277   -1.1476    1.4567 C   0  0  0  0  0  0  0  0  0  2  0  0
    0.3288   -0.9894    0.3597 C   0  0  0  0  0  0  0  0  0  3  0  0
    1.2660   -1.7838   -0.1275 C   0  0  0  0  0  0  0  0  0  4  0  0
   -1.9745   -1.2524    3.1987 H   0  0  0  0  0  0  0  0  0  5  0  0
    1.4883   -2.7487    0.3166 H   0  0  0  0  0  0  0  0  0  6  0  0
    1.8441   -1.4850   -0.9943 H   0  0  0  0  0  0  0  0  0  7  0  0
   -0.1039    1.0465   -2.3276 C   0  0  0  0  0  0  0  0  0  8  0  0
    0.0820    1.2543   -1.0444 C   0  0  0  0  0  3  0  0  0  9  0  0
    0.2237    2.4887   -0.2407 C   0  0  0  0  0  0  0  0  0 10  0  0
   -0.1949    0.0455   -2.7340 H   0  0  0  0  0  0  0  0  0 11  0  0
   -0.1791    1.8743   -3.0304 H   0  0  0  0  0  0  0  0  0 12  0  0
    0.1684    0.1295   -0.2922 H   0  0  0  0  0  0  0  0  0 13  0  0
   -0.5508    2.5397    0.5278 H   0  0  0  0  0  0  0  0  0 14  0  0
    0.1450    3.3782   -0.8726 H   0  0  0  0  0  0  0  0  0 15  0  0
    1.1887    2.5099    0.2702 H   0  0  0  0  0  0  0  0  0 16  0  0
  1  5  1  0
  1  2  1  0
  2  3  1  0
  3  4  1  0
  3 13  1  0
  4  7  1  0
  4  6  1  0
  8  9  1  0
  8 11  1  0
  8 12  1  0
  9 10  1  0
 10 16  1  0
 10 14  1  0
 10 15  1  0
M  RAD  1   9   2
M  END
>  <rmg_smiles>  (3) 
[CH2][C]C.[CH]C[CH][CH2]

>  <rmg_adjacency_list>  (3) 
multiplicity 2
1  C u0 p0 c0 {5,S} {8,S} {9,S} {10,S}
2  C u0 p0 c0 {3,S} {6,S} {11,S}
3  C u0 p0 c0 {2,S} {12,S} {13,S}
4  C u0 p0 c0 {5,S} {14,S} {15,S}
5  C u1 p1 c0 {1,S} {4,S}
6  C u0 p1 c0 {2,S} {7,S}
7  C u0 p1 c0 {6,S} {16,S}
8  H u0 p0 c0 {1,S}
9  H u0 p0 c0 {1,S}
10 H u0 p0 c0 {1,S}
11 H u0 p0 c0 {2,S}
12 H u0 p0 c0 {3,S}
13 H u0 p0 c0 {3,S}
14 H u0 p0 c0 {4,S}
15 H u0 p0 c0 {4,S}
16 H u0 p0 c0 {7,S}


>  <multiplicity>  (3) 
2

>  <reaction>  (3) 
rxn_1623

>  <type>  (3) 
ts

>  <role_mapnums>  (3) 
{"*2": 13, "*1": 9, "*3": 3, "*0": 2, "*4": 8}

>  <role_mapidx>  (3) 
{"*2": 12, "*1": 8, "*3": 2, "*0": 1, "*4": 7}

>  <ordered_mapped_smiles>  (3) 
[CH2:1]([CH2:2][CH:3]([CH:4]([H:6])[H:7])[H:13])[H:5].[CH:8]([CH:9][C:10]([H:14])([H:15])[H:16])([H:11])[H:12]

>  <mol_properties>  (3) 
{"1": {"label": "*0", "atom_type": "C2s"}, "2": {"label": "*3", "atom_type": "Cs"}, "7": {"label": "*4", "atom_type": "Cs"}, "8": {"label": "*1", "atom_type": "C2s"}, "12": {"label": "*2", "atom_type": "H0"}}

>  <level_of_theory>  (3) 
wb97xd/def2tzvp

>  <lot_method>  (3) 
wb97xd

>  <lot_basis>  (3) 
def2tzvp

>  <spin_multiplicity>  (3) 
2.0

>  <optical_isomers>  (3) 
2.0

>  <modes>  (3) 
IdealGasTranslation(mass=(93.0704, 'amu')),         NonlinearRotor(             inertia = ([149.309, 368.001, 458.856

>  <frequency_value>  (3) 
-1607.21

>  <frequency_units>  (3) 
cm^-1

>  <frequency_list>  (3) 
unknown

>  <arkane_path>  (3) 
/home/calvin/Dropbox/PersonalFolders/Calvin/HAb_Converged/rxn_1623/output/rxns/TS0/arkane/output.py

>  <path_exists>  (3) 
True

>  <E0_value>  (3) 
-713674.0

>  <E0_units>  (3) 
kJ/mol

>  <thermo_class>  (3) 
unknown

>  <Cp0_value>  (3) 
unknown

>  <Cp0_units>  (3) 
unknown

>  <CpInf_value>  (3) 
unknown

>  <CpInf_units>  (3) 
unknown

>  <Tmin_value>  (3) 
unknown

>  <Tmin_units>  (3) 
unknown

>  <Tmax_value>  (3) 
unknown

>  <Tmax_units>  (3) 
unknown

>  <polynomials>  (3) 
unknown

>  <H298_value>  (3) 
unknown

>  <H298_units>  (3) 
unknown

>  <S298_value>  (3) 
unknown

>  <S298_units>  (3) 
unknown

>  <Cp_T_value_list>  (3) 
unknown

>  <Cp_T_units>  (3) 
unknown

>  <T_list>  (3) 
unknown

>  <T_units>  (3) 
unknown

>  <yaml_path>  (3) 
unknown

>  <frequencies_cm1>  (3) 
unknown

>  <ZPE_kJmol>  (3) 
unknown

>  <E_elec_kJmol>  (3) 
unknown

>  <E0_minus_Eelec_plus_ZPE_kJmol>  (3) 
unknown

>  <rxn>  (3) 
unknown

>  <species_type>  (3) 
unknown

>  <species_folder>  (3) 
unknown

>  <frequencies_cm1_list>  (3) 
[]

>  <ts_imag_freq_cm1>  (3) 
-1626.7296

>  <ts_freq_out_path>  (3) 
/home/calvin/Dropbox/PersonalFolders/Calvin/HAb_Converged/rxn_1623/output/rxns/TS0/geometry/freq.out

>  <E0_kJmol>  (3) 
-713674

>  <H298_kJmol>  (3) 
unknown

$$$$

     RDKit          3D

  8  7  0  0  0  0  0  0  0  0999 V2000
    1.4098   -0.3617   -0.1137 C   0  0  0  0  0  0  0  0  0  1  0  0
    0.1829   -0.1715   -0.5109 C   0  0  0  0  0  3  0  0  0  2  0  0
   -1.1129    0.2669    0.0153 C   0  0  0  0  0  0  0  0  0  3  0  0
    2.1881   -0.7137   -0.7829 H   0  0  0  0  0  0  0  0  0  4  0  0
    1.7065   -0.1722    0.9205 H   0  0  0  0  0  0  0  0  0  5  0  0
   -1.8665   -0.5154   -0.0958 H   0  0  0  0  0  0  0  0  0  6  0  0
   -1.0351    0.5163    1.0818 H   0  0  0  0  0  0  0  0  0  7  0  0
   -1.4726    1.1513   -0.5143 H   0  0  0  0  0  0  0  0  0  8  0  0
  1  5  1  0
  1  4  1  0
  1  2  1  0
  2  3  1  0
  3  6  1  0
  3  7  1  0
  3  8  1  0
M  RAD  1   2   2
M  END
>  <rmg_smiles>  (4) 
[CH2][C]C

>  <rmg_adjacency_list>  (4) 
multiplicity 2
1 C u0 p0 c0 {3,S} {4,S} {5,S} {6,S}
2 C u0 p0 c0 {3,S} {7,S} {8,S}
3 C u1 p1 c0 {1,S} {2,S}
4 H u0 p0 c0 {1,S}
5 H u0 p0 c0 {1,S}
6 H u0 p0 c0 {1,S}
7 H u0 p0 c0 {2,S}
8 H u0 p0 c0 {2,S}


>  <multiplicity>  (4) 
2

>  <reaction>  (4) 
rxn_1623

>  <type>  (4) 
r1

>  <role_mapnums>  (4) 
{}

>  <role_mapidx>  (4) 
{}

>  <ordered_mapped_smiles>  (4) 
[CH:1]([CH:2][C:3]([H:6])([H:7])[H:8])([H:4])[H:5]

>  <level_of_theory>  (4) 
wb97xd/def2tzvp

>  <lot_method>  (4) 
wb97xd

>  <lot_basis>  (4) 
def2tzvp

>  <spin_multiplicity>  (4) 
2.0

>  <optical_isomers>  (4) 
1.0

>  <modes>  (4) 
IdealGasTranslation(mass=(41.0391, 'amu')),         NonlinearRotor(             inertia = ([6.71616, 57.9316, 61.5152

>  <frequency_value>  (4) 
unknown

>  <frequency_units>  (4) 
unknown

>  <frequency_list>  (4) 
unknown

>  <arkane_path>  (4) 
/home/calvin/Dropbox/PersonalFolders/Calvin/HAb_Converged/rxn_1623/output/Species/rxn_1623_C=[C]C/arkane/output.py

>  <path_exists>  (4) 
True

>  <E0_value>  (4) 
-307613.25653515215

>  <E0_units>  (4) 
kJ/mol

>  <thermo_class>  (4) 
NASA

>  <Cp0_value>  (4) 
33.257888

>  <Cp0_units>  (4) 
J/(mol*K)

>  <CpInf_value>  (4) 
182.918384

>  <CpInf_units>  (4) 
J/(mol*K)

>  <Tmin_value>  (4) 
10.0

>  <Tmin_units>  (4) 
K

>  <Tmax_value>  (4) 
3000.0

>  <Tmax_units>  (4) 
K

>  <polynomials>  (4) 
[{"name": "polynomial1", "class": "NASAPolynomial", "Tmin_value": 10.0, "Tmin_units": "K", "Tmax_value": 538.1711488028841, "Tmax_units": "K", "coeffs": [3.930392301828367, 0.0054179567067513265, 4.1151041398938097e-05, -6.444124014737227e-08, 3.128242361006525e-11, -36997327.500744514, 7.4253602392221545]}, {"name": "polynomial2", "class": "NASAPolynomial", "Tmin_value": 538.1711488028841, "Tmin_units": "K", "Tmax_value": 3000.0, "Tmax_units": "K", "coeffs": [1.2730140544831965, 0.0251692789611033, -1.3900596126256308e-05, 3.755213403333302e-09, -3.9753510035605353e-13, -36997041.47800403, 18.5991996496872]}]

>  <H298_value>  (4) 
-73518.02603374641

>  <H298_units>  (4) 
kcal/mol

>  <S298_value>  (4) 
65.08526123373714

>  <S298_units>  (4) 
cal/(mol*K)

>  <Cp_T_value_list>  (4) 
[15.446252460985212, 18.59693875156949, 21.515738079456213, 24.104759953671334, 28.361201706158383, 31.595341743292256, 36.58827718853207, 39.128757927672034, 40.40916738620447]

>  <Cp_T_units>  (4) 
cal/(mol*K)

>  <T_list>  (4) 
[300.0, 400.0, 500.0, 600.0, 800.0, 1000.0, 1500.0, 2000.0, 2400.0]

>  <T_units>  (4) 
K

>  <yaml_path>  (4) 
/home/calvin/Dropbox/PersonalFolders/Calvin/HAb_Converged/rxn_1623/output/Species/rxn_1623_C=[C]C/rxn_1623_C=CC.yml

>  <frequencies_cm1>  (4) 
[176.04890264884, 312.72251147279997, 484.02632726551997, 893.4703269705199, 895.1939402858399, 932.7632169715598, 1043.3422815795197, 1098.3399670074, 1378.28635754784, 1408.11654177792, 1443.1999697778, 1458.9940360138, 1748.7121466646001, 2967.7256467003594, 3032.41264841476, 3055.0530990147995, 3082.9330594139997, 3144.5505186903597]

>  <ZPE_kJmol>  (4) 
170.8022104950377

>  <E_elec_kJmol>  (4) 
-307784.0587456472

>  <E0_minus_Eelec_plus_ZPE_kJmol>  (4) 
0.0

>  <rxn>  (4) 
rxn_1623

>  <species_type>  (4) 
p1

>  <species_folder>  (4) 
rxn_1623_C=[C]C

>  <frequencies_cm1_list>  (4) 
[176.04890264884, 312.72251147279997, 484.02632726551997, 893.4703269705199, 895.1939402858399, 932.7632169715598, 1043.3422815795197, 1098.3399670074, 1378.28635754784, 1408.11654177792, 1443.1999697778, 1458.9940360138, 1748.7121466646001, 2967.7256467003594, 3032.41264841476, 3055.0530990147995, 3082.9330594139997, 3144.5505186903597]

>  <E0_kJmol>  (4) 
-307613

>  <H298_kJmol>  (4) 
-307599

$$$$

     RDKit          3D

  7  6  0  0  0  0  0  0  0  0999 V2000
    1.3002    0.7433    2.1279 C   0  0  0  0  0  0  0  0  0  1  0  0
    0.5758    0.3292    1.2319 C   0  0  0  0  0  0  0  0  0  2  0  0
   -0.2057   -0.1176    0.2652 C   0  0  0  0  0  3  0  0  0  3  0  0
   -0.9747   -0.5572   -0.6858 C   0  0  0  0  0  0  0  0  0  4  0  0
    1.9293    1.1030    2.9059 H   0  0  0  0  0  0  0  0  0  5  0  0
   -1.9977   -0.8727   -0.4932 H   0  0  0  0  0  0  0  0  0  6  0  0
   -0.6274   -0.6280   -1.7143 H   0  0  0  0  0  0  0  0  0  7  0  0
  1  5  1  0
  1  2  1  0
  2  3  1  0
  3  4  1  0
  4  7  1  0
  4  6  1  0
M  RAD  1   3   2
M  END
>  <rmg_smiles>  (5) 
[CH]C[C][CH2]

>  <rmg_adjacency_list>  (5) 
multiplicity 2
1 C u0 p0 c0 {2,S} {5,S} {6,S}
2 C u1 p1 c0 {1,S} {3,S}
3 C u0 p1 c0 {2,S} {4,S}
4 C u0 p1 c0 {3,S} {7,S}
5 H u0 p0 c0 {1,S}
6 H u0 p0 c0 {1,S}
7 H u0 p0 c0 {4,S}


>  <multiplicity>  (5) 
2

>  <reaction>  (5) 
rxn_1623

>  <type>  (5) 
r2

>  <role_mapnums>  (5) 
{}

>  <role_mapidx>  (5) 
{}

>  <ordered_mapped_smiles>  (5) 
[CH2:1]([CH2:2][CH:3][CH:4]([H:6])[H:7])[H:5]

>  <level_of_theory>  (5) 
wb97xd/def2tzvp

>  <lot_method>  (5) 
wb97xd

>  <lot_basis>  (5) 
def2tzvp

>  <spin_multiplicity>  (5) 
2.0

>  <optical_isomers>  (5) 
1.0

>  <modes>  (5) 
IdealGasTranslation(mass=(51.0235, 'amu')),         NonlinearRotor(             inertia = ([1.72772, 120.695, 122.423

>  <frequency_value>  (5) 
unknown

>  <frequency_units>  (5) 
unknown

>  <frequency_list>  (5) 
unknown

>  <arkane_path>  (5) 
/home/calvin/Dropbox/PersonalFolders/Calvin/HAb_Converged/rxn_1623/output/Species/rxn_1623_CtC[C]=C/arkane/output.py

>  <path_exists>  (5) 
True

>  <E0_value>  (5) 
-404373.4126438253

>  <E0_units>  (5) 
kJ/mol

>  <thermo_class>  (5) 
NASA

>  <Cp0_value>  (5) 
33.257888

>  <Cp0_units>  (5) 
J/(mol*K)

>  <CpInf_value>  (5) 
157.97496800000002

>  <CpInf_units>  (5) 
J/(mol*K)

>  <Tmin_value>  (5) 
10.0

>  <Tmin_units>  (5) 
K

>  <Tmax_value>  (5) 
3000.0

>  <Tmax_units>  (5) 
K

>  <polynomials>  (5) 
[{"name": "polynomial1", "class": "NASAPolynomial", "Tmin_value": 10.0, "Tmin_units": "K", "Tmax_value": 324.94584954767805, "Tmax_units": "K", "coeffs": [3.8609647918547036, 0.012108191563651647, 9.288988661407048e-05, -3.6033350630081174e-07, 3.9420602552534205e-10, -48634890.18404065, 7.523326549005509]}, {"name": "polynomial2", "class": "NASAPolynomial", "Tmin_value": 324.94584954767805, "Tmin_units": "K", "Tmax_value": 3000.0, "Tmax_units": "K", "coeffs": [4.571556193313459, 0.01908836901286278, -1.1931667587512074e-05, 3.6687551711430067e-09, -4.3674285062852483e-13, -48635019.39731013, 3.616270941987973]}]

>  <H298_value>  (5) 
-96643.63037576556

>  <H298_units>  (5) 
kcal/mol

>  <S298_value>  (5) 
69.25605583824232

>  <S298_units>  (5) 
cal/(mol*K)

>  <Cp_T_value_list>  (5) 
[18.515947983584383, 20.908307150654743, 22.980297961367903, 24.77058172132654, 27.633093885609313, 29.729145679192776, 32.84632891316254, 34.54515988810423, 35.53925750966353]

>  <Cp_T_units>  (5) 
cal/(mol*K)

>  <T_list>  (5) 
[300.0, 400.0, 500.0, 600.0, 800.0, 1000.0, 1500.0, 2000.0, 2400.0]

>  <T_units>  (5) 
K

>  <yaml_path>  (5) 
/home/calvin/Dropbox/PersonalFolders/Calvin/HAb_Converged/rxn_1623/output/Species/rxn_1623_CtC[C]=C/rxn_1623_CtCC=C.yml

>  <frequencies_cm1>  (5) 
[60.93762772967999, 224.90750320063995, 350.559600586, 378.97518584015995, 541.805141748, 666.4821272179199, 890.05743526648, 901.2506213380799, 969.4947214482399, 1424.29515919184, 1805.7630607031601, 2002.63952982756, 3064.4128000059595, 3135.01227608088, 3426.46086703232]

>  <ZPE_kJmol>  (5) 
118.68785213152128

>  <E_elec_kJmol>  (5) 
-404492.1004959568

>  <E0_minus_Eelec_plus_ZPE_kJmol>  (5) 
0.0

>  <rxn>  (5) 
rxn_1623

>  <species_type>  (5) 
r0

>  <species_folder>  (5) 
rxn_1623_CtC[C]=C

>  <frequencies_cm1_list>  (5) 
[60.93762772967999, 224.90750320063995, 350.559600586, 378.97518584015995, 541.805141748, 666.4821272179199, 890.05743526648, 901.2506213380799, 969.4947214482399, 1424.29515919184, 1805.7630607031601, 2002.63952982756, 3064.4128000059595, 3135.01227608088, 3426.46086703232]

>  <E0_kJmol>  (5) 
-404373

>  <H298_kJmol>  (5) 
-404357

$$$$
