
     RDKit          3D

 15 15  0  0  0  0  0  0  0  0999 V2000
    2.4128   -0.0409   -0.4303 C   0  0  0  0  0  0  0  0  0  1  0  0
    0.9355   -0.0145   -0.1515 C   0  0  0  0  0  0  0  0  0  2  0  0
    0.2603   -1.1792    0.2186 C   0  0  0  0  0  0  0  0  0  3  0  0
    0.2007    1.1613   -0.2794 C   0  0  0  0  0  0  0  0  0  4  0  0
   -1.0936   -1.1151    0.4338 C   0  0  0  0  0  0  0  0  0  5  0  0
   -1.8427    0.0297    0.3120 C   0  0  0  0  0  0  0  0  0  6  0  0
   -1.1679    1.1894   -0.0531 C   0  0  0  0  0  0  0  0  0  7  0  0
    2.6039   -0.3193   -1.4697 H   0  0  0  0  0  0  0  0  0  8  0  0
    2.8649    0.9368   -0.2616 H   0  0  0  0  0  0  0  0  0  9  0  0
    2.9224   -0.7671    0.2036 H   0  0  0  0  0  0  0  0  0 10  0  0
    0.8005   -2.1123    0.3343 H   0  0  0  0  0  0  0  0  0 11  0  0
   -1.6037   -2.0333    0.7250 H   0  0  0  0  0  0  0  0  0 12  0  0
   -2.9097    0.0339    0.4950 H   0  0  0  0  0  0  0  0  0 13  0  0
   -1.7123    2.1201   -0.1583 H   0  0  0  0  0  0  0  0  0 14  0  0
    0.7116    2.0751   -0.5599 H   0  0  0  0  0  0  0  0  0 15  0  0
  1 10  1  0
  1  8  1  0
  1  9  1  0
  1  2  1  0
  2  3  1  0
  2  4  1  0
  3 11  1  0
  3  5  1  0
  4  7  1  0
  4 15  1  0
  5 12  1  0
  5  6  1  0
  6 13  1  0
  6  7  1  0
  7 14  1  0
M  END
>  <rmg_smiles>  (1) 
CC1[CH][CH][CH][CH][CH]1

>  <rmg_adjacency_list>  (1) 
1  C u0 p0 c0 {2,S} {8,S} {9,S} {10,S}
2  C u0 p0 c0 {1,S} {3,S} {4,S}
3  C u0 p0 c0 {2,S} {5,S} {11,S}
4  C u0 p0 c0 {2,S} {7,S} {15,S}
5  C u0 p0 c0 {3,S} {6,S} {12,S}
6  C u0 p0 c0 {5,S} {7,S} {13,S}
7  C u0 p0 c0 {4,S} {6,S} {14,S}
8  H u0 p0 c0 {1,S}
9  H u0 p0 c0 {1,S}
10 H u0 p0 c0 {1,S}
11 H u0 p0 c0 {3,S}
12 H u0 p0 c0 {5,S}
13 H u0 p0 c0 {6,S}
14 H u0 p0 c0 {7,S}
15 H u0 p0 c0 {4,S}


>  <multiplicity>  (1) 
1

>  <reaction>  (1) 
rxn_261

>  <type>  (1) 
r1h

>  <role_mapnums>  (1) 
{"r1h_a": 5, "r1h_h": 12}

>  <role_mapidx>  (1) 
{"r1h_a": 4, "r1h_h": 11}

>  <ordered_mapped_smiles>  (1) 
[C:1]([CH:2]1[CH:3]([H:11])[CH:5]([H:12])[CH:6]([H:13])[CH:7]([H:14])[CH:4]1[H:15])([H:8])([H:9])[H:10]

>  <mol_properties>  (1) 
{"4": {"label": "donator", "atom_type": "Cs"}, "11": {"label": "d_hydrogen", "atom_type": "H0"}}

>  <level_of_theory>  (1) 
wb97xd/def2tzvp

>  <lot_method>  (1) 
wb97xd

>  <lot_basis>  (1) 
def2tzvp

>  <spin_multiplicity>  (1) 
1.0

>  <optical_isomers>  (1) 
1.0

>  <modes>  (1) 
IdealGasTranslation(mass=(92.0626, 'amu')),         NonlinearRotor(             inertia = ([90.1823, 198.896, 285.945

>  <frequency_value>  (1) 
unknown

>  <frequency_units>  (1) 
unknown

>  <frequency_list>  (1) 
unknown

>  <arkane_path>  (1) 
/home/calvin/Dropbox/PersonalFolders/Calvin/HAb_Converged/rxn_261/output/Species/rxn_261_Cc1ccccc1/arkane/output.py

>  <path_exists>  (1) 
True

>  <E0_value>  (1) 
-712667.4186954657

>  <E0_units>  (1) 
kJ/mol

>  <thermo_class>  (1) 
NASA

>  <Cp0_value>  (1) 
33.257888

>  <Cp0_units>  (1) 
J/(mol*K)

>  <CpInf_value>  (1) 
357.522296

>  <CpInf_units>  (1) 
J/(mol*K)

>  <Tmin_value>  (1) 
10.0

>  <Tmin_units>  (1) 
K

>  <Tmax_value>  (1) 
3000.0

>  <Tmax_units>  (1) 
K

>  <polynomials>  (1) 
[{"name": "polynomial1", "class": "NASAPolynomial", "Tmin_value": 10.0, "Tmin_units": "K", "Tmax_value": 551.6404107050422, "Tmax_units": "K", "coeffs": [3.9807877443631, 0.00035561988080208296, 0.00017407945539970812, -2.980514466570864e-07, 1.625970399361135e-10, -85714089.32981402, 11.957872909957874]}, {"name": "polynomial2", "class": "NASAPolynomial", "Tmin_value": 551.6404107050422, "Tmin_units": "K", "Tmax_value": 3000.0, "Tmax_units": "K", "coeffs": [-2.4640727136101863, 0.06292197006651765, -3.910390273638268e-05, 1.1617229825521433e-08, -1.3239176957032157e-12, -85713619.20098881, 37.03314537917204]}]

>  <H298_value>  (1) 
-170327.1711088113

>  <H298_units>  (1) 
kcal/mol

>  <S298_value>  (1) 
79.81344471114225

>  <S298_units>  (1) 
cal/(mol*K)

>  <Cp_T_value_list>  (1) 
[25.881917309628086, 33.90758568479932, 40.90534559010948, 46.79761268221675, 56.14404960423432, 62.889733704082204, 72.41563025517803, 76.9434671339039, 79.45318395865998]

>  <Cp_T_units>  (1) 
cal/(mol*K)

>  <T_list>  (1) 
[300.0, 400.0, 500.0, 600.0, 800.0, 1000.0, 1500.0, 2000.0, 2400.0]

>  <T_units>  (1) 
K

>  <yaml_path>  (1) 
/home/calvin/Dropbox/PersonalFolders/Calvin/HAb_Converged/rxn_261/output/Species/rxn_261_Cc1ccccc1/rxn_261_Cc1ccccc1.yml

>  <frequencies_cm1>  (1) 
[32.67311615255999, 208.88682644908, 346.6454189536, 414.1066827372799, 475.62800421915995, 527.95443235756, 633.69913930024, 711.73556047672, 745.6928028841199, 800.1617304423601, 861.8684605278798, 915.5202168330399, 979.4449831769199, 991.60641417864, 997.6768292015198, 1015.82627140228, 1052.7363174972797, 1058.5389200926797, 1109.8078324918, 1173.8974064833599, 1201.1112693065197, 1232.0058362611999, 1316.04400260736, 1349.7815014845198, 1404.03755249784, 1462.1391152903598, 1476.8481978457999, 1495.6225357106798, 1530.4999541509599, 1640.12450779944, 1663.1975784746398, 3015.0391755551595, 3079.01201079628, 3101.631860440359, 3145.0655425893597, 3146.5282104625194, 3159.5205466879593, 3168.9008486350795, 3181.02107772488]

>  <ZPE_kJmol>  (1) 
333.8912309447283

>  <E_elec_kJmol>  (1) 
-713001.3099264104

>  <E0_minus_Eelec_plus_ZPE_kJmol>  (1) 
0.0

>  <rxn>  (1) 
rxn_261

>  <species_type>  (1) 
r0

>  <species_folder>  (1) 
rxn_261_Cc1ccccc1

>  <frequencies_cm1_list>  (1) 
[32.67311615255999, 208.88682644908, 346.6454189536, 414.1066827372799, 475.62800421915995, 527.95443235756, 633.69913930024, 711.73556047672, 745.6928028841199, 800.1617304423601, 861.8684605278798, 915.5202168330399, 979.4449831769199, 991.60641417864, 997.6768292015198, 1015.82627140228, 1052.7363174972797, 1058.5389200926797, 1109.8078324918, 1173.8974064833599, 1201.1112693065197, 1232.0058362611999, 1316.04400260736, 1349.7815014845198, 1404.03755249784, 1462.1391152903598, 1476.8481978457999, 1495.6225357106798, 1530.4999541509599, 1640.12450779944, 1663.1975784746398, 3015.0391755551595, 3079.01201079628, 3101.631860440359, 3145.0655425893597, 3146.5282104625194, 3159.5205466879593, 3168.9008486350795, 3181.02107772488]

>  <E0_kJmol>  (1) 
-712667

>  <H298_kJmol>  (1) 
-712649

$$$$

     RDKit          3D

  2  1  0  0  0  0  0  0  0  0999 V2000
    0.1430    0.2592   -0.0823 H   0  0  0  0  0  0  0  0  0  1  0  0
   -0.2014   -0.3650    0.1160 H   0  0  0  0  0  0  0  0  0  2  0  0
  1  2  1  0
M  END
>  <rmg_smiles>  (2) 
[H][H]

>  <rmg_adjacency_list>  (2) 
1 H u0 p0 c0 {2,S}
2 H u0 p0 c0 {1,S}


>  <multiplicity>  (2) 
1

>  <reaction>  (2) 
rxn_261

>  <type>  (2) 
r2h

>  <role_mapnums>  (2) 
{"r2h_a": 2, "r2h_h": 1}

>  <role_mapidx>  (2) 
{"r2h_a": 1, "r2h_h": 0}

>  <ordered_mapped_smiles>  (2) 
[H:1][H:2]

>  <mol_properties>  (2) 
{"0": {"label": "a_hydrogen", "atom_type": "H0"}, "1": {"label": "acceptor", "atom_type": "H0"}}

>  <level_of_theory>  (2) 
wb97xd/def2tzvp

>  <lot_method>  (2) 
wb97xd

>  <lot_basis>  (2) 
def2tzvp

>  <spin_multiplicity>  (2) 
1.0

>  <optical_isomers>  (2) 
1.0

>  <modes>  (2) 
IdealGasTranslation(mass=(2.01565, 'amu')),         LinearRotor(inertia=(0.279051, 'amu*angstrom^2'), symmetry=2),         HarmonicOscillator(frequencies=([4384.98

>  <frequency_value>  (2) 
unknown

>  <frequency_units>  (2) 
unknown

>  <frequency_list>  (2) 
unknown

>  <arkane_path>  (2) 
/home/calvin/Dropbox/PersonalFolders/Calvin/HAb_Converged/rxn_261/output/Species/rxn_261_[H][H]/arkane/output.py

>  <path_exists>  (2) 
True

>  <E0_value>  (2) 
-3062.16965545063

>  <E0_units>  (2) 
kJ/mol

>  <thermo_class>  (2) 
NASA

>  <Cp0_value>  (2) 
29.100652

>  <Cp0_units>  (2) 
J/(mol*K)

>  <CpInf_value>  (2) 
37.415124

>  <CpInf_units>  (2) 
J/(mol*K)

>  <Tmin_value>  (2) 
10.0

>  <Tmin_units>  (2) 
K

>  <Tmax_value>  (2) 
3000.0

>  <Tmax_units>  (2) 
K

>  <polynomials>  (2) 
[{"name": "polynomial1", "class": "NASAPolynomial", "Tmin_value": 10.0, "Tmin_units": "K", "Tmax_value": 609.8839760798177, "Tmax_units": "K", "coeffs": [3.498630427760662, 8.118128927195725e-05, -2.559636751505851e-07, 1.12469612407288e-11, 3.0815171130046294e-13, -368293.8823611774, -4.277290681887199]}, {"name": "polynomial2", "class": "NASAPolynomial", "Tmin_value": 609.8839760798177, "Tmin_units": "K", "Tmax_value": 3000.0, "Tmax_units": "K", "coeffs": [3.686867766797846, -0.0007828622299568348, 9.578139376048542e-07, -3.193665739780837e-10, 3.533006631714403e-14, -368323.7341208647, -5.148841965058497]}]

>  <H298_value>  (2) 
-729.8011438890577

>  <H298_units>  (2) 
kcal/mol

>  <S298_value>  (2) 
31.136082854374543

>  <S298_units>  (2) 
cal/(mol*K)

>  <Cp_T_value_list>  (2) 
[6.960683160805141, 6.952753142081975, 6.947066275630451, 6.950370161364484, 7.003977696739648, 7.10979357060473, 7.489089863592967, 7.874797646413975, 8.112273708870758]

>  <Cp_T_units>  (2) 
cal/(mol*K)

>  <T_list>  (2) 
[300.0, 400.0, 500.0, 600.0, 800.0, 1000.0, 1500.0, 2000.0, 2400.0]

>  <T_units>  (2) 
K

>  <yaml_path>  (2) 
/home/calvin/Dropbox/PersonalFolders/Calvin/HAb_Converged/rxn_261/output/Species/rxn_261_[H][H]/rxn_261_HH.yml

>  <frequencies_cm1>  (2) 
[4384.97527895388]

>  <ZPE_kJmol>  (2) 
26.22798418526521

>  <E_elec_kJmol>  (2) 
-3088.3976396358958

>  <E0_minus_Eelec_plus_ZPE_kJmol>  (2) 
0.0

>  <rxn>  (2) 
rxn_261

>  <species_type>  (2) 
p0

>  <species_folder>  (2) 
rxn_261_[H][H]

>  <frequencies_cm1_list>  (2) 
[4384.97527895388]

>  <E0_kJmol>  (2) 
-3062.17

>  <H298_kJmol>  (2) 
-3053.49

$$$$

     RDKit          3D

 16 15  0  0  0  0  0  0  0  0999 V2000
    2.3476    0.1716   -0.4619 C   0  0  0  0  0  0  0  0  0  1  0  0
    0.8703    0.1980   -0.1831 C   0  0  0  0  0  0  0  0  0  2  0  0
    0.1951   -0.9668    0.1870 C   0  0  0  0  0  0  0  0  0  3  0  0
    0.1355    1.3737   -0.3110 C   0  0  0  0  0  0  0  0  0  4  0  0
   -1.1588   -0.9026    0.4022 C   0  0  0  0  0  0  0  0  0  5  0  0
   -1.9078    0.2421    0.2804 C   0  0  0  0  0  0  0  0  0  6  0  0
   -1.2330    1.4018   -0.0847 C   0  0  0  0  0  0  0  0  0  7  0  0
    2.5387   -0.1068   -1.5013 H   0  0  0  0  0  0  0  0  0  8  0  0
    2.7997    1.1492   -0.2932 H   0  0  0  0  0  0  0  0  0  9  0  0
    2.8573   -0.5547    0.1720 H   0  0  0  0  0  0  0  0  0 10  0  0
    0.7353   -1.8999    0.3027 H   0  0  0  0  0  0  0  0  0 11  0  0
   -1.8356   -2.1209    0.7885 H   0  0  0  0  0  0  0  0  0 12  0  0
   -2.9749    0.2463    0.4634 H   0  0  0  0  0  0  0  0  0 13  0  0
   -1.7775    2.3325   -0.1899 H   0  0  0  0  0  0  0  0  0 14  0  0
    0.6464    2.2875   -0.5915 H   0  0  0  0  0  0  0  0  0 15  0  0
   -2.2384   -2.8510    1.0204 H   0  0  0  0  0 15  0  0  0 16  0  0
  1 10  1  0
  1  8  1  0
  1  9  1  0
  1  2  1  0
  2  3  1  0
  2  4  1  0
  3 11  1  0
  3  5  1  0
  4  7  1  0
  4 15  1  0
  5 12  1  0
  5  6  1  0
  6 13  1  0
  6  7  1  0
  7 14  1  0
M  END
>  <rmg_smiles>  (3) 
CC1[CH][CH][CH][CH][CH]1.[H]

>  <rmg_adjacency_list>  (3) 
multiplicity 2
1  C u0 p0 c0 {2,S} {8,S} {9,S} {10,S}
2  C u0 p0 c0 {1,S} {3,S} {4,S}
3  C u0 p0 c0 {2,S} {5,S} {11,S}
4  C u0 p0 c0 {2,S} {7,S} {15,S}
5  C u0 p0 c0 {3,S} {6,S} {12,S}
6  C u0 p0 c0 {5,S} {7,S} {13,S}
7  C u0 p0 c0 {4,S} {6,S} {14,S}
8  H u0 p0 c0 {1,S}
9  H u0 p0 c0 {1,S}
10 H u0 p0 c0 {1,S}
11 H u0 p0 c0 {3,S}
12 H u0 p0 c0 {5,S}
13 H u0 p0 c0 {6,S}
14 H u0 p0 c0 {7,S}
15 H u0 p0 c0 {4,S}
16 H u1 p0 c0


>  <multiplicity>  (3) 
2

>  <reaction>  (3) 
rxn_261

>  <type>  (3) 
ts

>  <role_mapnums>  (3) 
{"*2": 12, "*1": 16, "*3": 5, "*0": null, "*4": 3}

>  <role_mapidx>  (3) 
{"*2": 11, "*1": 15, "*3": 4, "*4": 2}

>  <ordered_mapped_smiles>  (3) 
[C:1]([CH:2]1[CH:3]([H:11])[CH:5]([H:12])[CH:6]([H:13])[CH:7]([H:14])[CH:4]1[H:15])([H:8])([H:9])[H:10].[H:16]

>  <mol_properties>  (3) 
{"2": {"label": "*4", "atom_type": "Cs"}, "4": {"label": "*3", "atom_type": "Cs"}, "11": {"label": "*2", "atom_type": "H0"}, "15": {"label": "*1", "atom_type": "H0"}}

>  <level_of_theory>  (3) 
wb97xd/def2tzvp

>  <lot_method>  (3) 
wb97xd

>  <lot_basis>  (3) 
def2tzvp

>  <spin_multiplicity>  (3) 
2.0

>  <optical_isomers>  (3) 
2.0

>  <modes>  (3) 
IdealGasTranslation(mass=(93.0704, 'amu')),         NonlinearRotor(             inertia = ([100.159, 205.58, 302.602

>  <frequency_value>  (3) 
-1048.87

>  <frequency_units>  (3) 
cm^-1

>  <frequency_list>  (3) 
unknown

>  <arkane_path>  (3) 
/home/calvin/Dropbox/PersonalFolders/Calvin/HAb_Converged/rxn_261/output/rxns/TS0/arkane/output.py

>  <path_exists>  (3) 
True

>  <E0_value>  (3) 
-713928.0

>  <E0_units>  (3) 
kJ/mol

>  <thermo_class>  (3) 
unknown

>  <Cp0_value>  (3) 
unknown

>  <Cp0_units>  (3) 
unknown

>  <CpInf_value>  (3) 
unknown

>  <CpInf_units>  (3) 
unknown

>  <Tmin_value>  (3) 
unknown

>  <Tmin_units>  (3) 
unknown

>  <Tmax_value>  (3) 
unknown

>  <Tmax_units>  (3) 
unknown

>  <polynomials>  (3) 
unknown

>  <H298_value>  (3) 
unknown

>  <H298_units>  (3) 
unknown

>  <S298_value>  (3) 
unknown

>  <S298_units>  (3) 
unknown

>  <Cp_T_value_list>  (3) 
unknown

>  <Cp_T_units>  (3) 
unknown

>  <T_list>  (3) 
unknown

>  <T_units>  (3) 
unknown

>  <yaml_path>  (3) 
unknown

>  <frequencies_cm1>  (3) 
unknown

>  <ZPE_kJmol>  (3) 
unknown

>  <E_elec_kJmol>  (3) 
unknown

>  <E0_minus_Eelec_plus_ZPE_kJmol>  (3) 
unknown

>  <rxn>  (3) 
unknown

>  <species_type>  (3) 
unknown

>  <species_folder>  (3) 
unknown

>  <frequencies_cm1_list>  (3) 
[]

>  <ts_imag_freq_cm1>  (3) 
-1061.6064

>  <ts_freq_out_path>  (3) 
/home/calvin/Dropbox/PersonalFolders/Calvin/HAb_Converged/rxn_261/output/rxns/TS0/geometry/freq.out

>  <E0_kJmol>  (3) 
-713928

>  <H298_kJmol>  (3) 
unknown

$$$$

     RDKit          3D

 14 14  0  0  0  0  0  0  0  0999 V2000
   -2.0198   -0.4831   -0.2544 C   0  0  0  0  0  0  0  0  0  1  0  0
   -0.5930   -0.0384   -0.0892 C   0  0  0  0  0  0  0  0  0  2  0  0
    0.2136   -0.6044    0.9057 C   0  0  0  0  0  0  0  0  0  3  0  0
    1.5090   -0.1783    0.9885 C   0  0  0  0  0  3  0  0  0  4  0  0
    2.1020    0.7599    0.1876 C   0  0  0  0  0  0  0  0  0  5  0  0
    1.2904    1.3193   -0.7968 C   0  0  0  0  0  0  0  0  0  6  0  0
   -0.0334    0.9223   -0.9266 C   0  0  0  0  0  0  0  0  0  7  0  0
   -2.5042   -0.6236    0.7128 H   0  0  0  0  0  0  0  0  0  8  0  0
   -2.5978    0.2454   -0.8229 H   0  0  0  0  0  0  0  0  0  9  0  0
   -2.0679   -1.4358   -0.7874 H   0  0  0  0  0  0  0  0  0 10  0  0
   -0.1900   -1.3517    1.5798 H   0  0  0  0  0  0  0  0  0 11  0  0
    3.1355    1.0599    0.3036 H   0  0  0  0  0  0  0  0  0 12  0  0
    1.6958    2.0714   -1.4633 H   0  0  0  0  0  0  0  0  0 13  0  0
   -0.6482    1.3723   -1.6972 H   0  0  0  0  0  0  0  0  0 14  0  0
  1 10  1  0
  1  8  1  0
  1  9  1  0
  1  2  1  0
  2  7  1  0
  2  3  1  0
  3  4  1  0
  3 11  1  0
  4  5  1  0
  5 12  1  0
  5  6  1  0
  6 13  1  0
  6  7  1  0
  7 14  1  0
M  RAD  1   4   2
M  END
>  <rmg_smiles>  (4) 
CC1[CH][C][CH][CH][CH]1

>  <rmg_adjacency_list>  (4) 
multiplicity 2
1  C u0 p0 c0 {2,S} {8,S} {9,S} {10,S}
2  C u0 p0 c0 {1,S} {3,S} {5,S}
3  C u0 p0 c0 {2,S} {4,S} {12,S}
4  C u0 p0 c0 {3,S} {6,S} {11,S}
5  C u0 p0 c0 {2,S} {7,S} {13,S}
6  C u0 p0 c0 {4,S} {7,S} {14,S}
7  C u1 p1 c0 {5,S} {6,S}
8  H u0 p0 c0 {1,S}
9  H u0 p0 c0 {1,S}
10 H u0 p0 c0 {1,S}
11 H u0 p0 c0 {4,S}
12 H u0 p0 c0 {3,S}
13 H u0 p0 c0 {5,S}
14 H u0 p0 c0 {6,S}


>  <multiplicity>  (4) 
2

>  <reaction>  (4) 
rxn_261

>  <type>  (4) 
r1

>  <role_mapnums>  (4) 
{}

>  <role_mapidx>  (4) 
{}

>  <ordered_mapped_smiles>  (4) 
[C:1]([CH:2]1[CH:3]([H:11])[CH:4][CH:5]([H:12])[CH:6]([H:13])[CH:7]1[H:14])([H:8])([H:9])[H:10]

>  <level_of_theory>  (4) 
wb97xd/def2tzvp

>  <lot_method>  (4) 
wb97xd

>  <lot_basis>  (4) 
def2tzvp

>  <spin_multiplicity>  (4) 
2.0

>  <optical_isomers>  (4) 
2.0

>  <modes>  (4) 
IdealGasTranslation(mass=(91.0548, 'amu')),         NonlinearRotor(             inertia = ([84.0639, 196.987, 277.917

>  <frequency_value>  (4) 
unknown

>  <frequency_units>  (4) 
unknown

>  <frequency_list>  (4) 
unknown

>  <arkane_path>  (4) 
/home/calvin/Dropbox/PersonalFolders/Calvin/HAb_Converged/rxn_261/output/Species/rxn_261_Cc1c[c]ccc1/arkane/output.py

>  <path_exists>  (4) 
True

>  <E0_value>  (4) 
-710888.3062834864

>  <E0_units>  (4) 
kJ/mol

>  <thermo_class>  (4) 
NASA

>  <Cp0_value>  (4) 
33.257888

>  <Cp0_units>  (4) 
J/(mol*K)

>  <CpInf_value>  (4) 
332.57888

>  <CpInf_units>  (4) 
J/(mol*K)

>  <Tmin_value>  (4) 
10.0

>  <Tmin_units>  (4) 
K

>  <Tmax_value>  (4) 
3000.0

>  <Tmax_units>  (4) 
K

>  <polynomials>  (4) 
[{"name": "polynomial1", "class": "NASAPolynomial", "Tmin_value": 10.0, "Tmin_units": "K", "Tmax_value": 430.8407105796925, "Tmax_units": "K", "coeffs": [3.950501012668528, 0.003116399187062866, 0.00016197401921780666, -2.997051322065004e-07, 1.7957327782162483e-10, -85500112.69263943, 13.875224473168723]}, {"name": "polynomial2", "class": "NASAPolynomial", "Tmin_value": 430.8407105796925, "Tmin_units": "K", "Tmax_value": 3000.0, "Tmax_units": "K", "coeffs": [-2.2909370894465715, 0.061054711618574196, -3.9713151503927714e-05, 1.2333366020404323e-08, -1.4645554898064376e-12, -85499574.80263674, 38.73205162645326]}]

>  <H298_value>  (4) 
-169901.93250537876

>  <H298_units>  (4) 
kcal/mol

>  <S298_value>  (4) 
83.8850195559198

>  <S298_units>  (4) 
cal/(mol*K)

>  <Cp_T_value_list>  (4) 
[25.487090817186075, 32.84624058452445, 39.263756388174336, 44.750610658849936, 53.358912418047694, 59.45609286700315, 67.8578112815732, 71.93671726886951, 74.31880817444016]

>  <Cp_T_units>  (4) 
cal/(mol*K)

>  <T_list>  (4) 
[300.0, 400.0, 500.0, 600.0, 800.0, 1000.0, 1500.0, 2000.0, 2400.0]

>  <T_units>  (4) 
K

>  <yaml_path>  (4) 
/home/calvin/Dropbox/PersonalFolders/Calvin/HAb_Converged/rxn_261/output/Species/rxn_261_Cc1c[c]ccc1/rxn_261_Cc1ccccc1.yml

>  <frequencies_cm1>  (4) 
[15.22410645444, 206.66192320539997, 348.57504182852, 419.03031121172, 484.51388322324, 517.5234816564799, 624.3325713237599, 676.1096406365599, 762.7366604483599, 791.09730981996, 865.3225541438399, 896.45746558472, 978.8887573659999, 993.2064217581999, 999.5927181058, 1055.82646089128, 1058.73119568164, 1096.7399594278397, 1173.85620457144, 1210.6769798572798, 1295.23703708776, 1296.8027097407198, 1402.7740271989599, 1434.15615011136, 1474.3074132773997, 1480.26795653516, 1490.1289474546797, 1578.11563035984, 1650.994945561, 3016.4263065897994, 3080.8592298473595, 3103.18379912268, 3147.54452428988, 3147.7574008347997, 3162.3978135370403, 3174.9437957166797]

>  <ZPE_kJmol>  (4) 
299.7304356118552

>  <E_elec_kJmol>  (4) 
-711188.0367190983

>  <E0_minus_Eelec_plus_ZPE_kJmol>  (4) 
0.0

>  <rxn>  (4) 
rxn_261

>  <species_type>  (4) 
p1

>  <species_folder>  (4) 
rxn_261_Cc1c[c]ccc1

>  <frequencies_cm1_list>  (4) 
[15.22410645444, 206.66192320539997, 348.57504182852, 419.03031121172, 484.51388322324, 517.5234816564799, 624.3325713237599, 676.1096406365599, 762.7366604483599, 791.09730981996, 865.3225541438399, 896.45746558472, 978.8887573659999, 993.2064217581999, 999.5927181058, 1055.82646089128, 1058.73119568164, 1096.7399594278397, 1173.85620457144, 1210.6769798572798, 1295.23703708776, 1296.8027097407198, 1402.7740271989599, 1434.15615011136, 1474.3074132773997, 1480.26795653516, 1490.1289474546797, 1578.11563035984, 1650.994945561, 3016.4263065897994, 3080.8592298473595, 3103.18379912268, 3147.54452428988, 3147.7574008347997, 3162.3978135370403, 3174.9437957166797]

>  <E0_kJmol>  (4) 
-710888

>  <H298_kJmol>  (4) 
-710870

$$$$

     RDKit          3D

  1  0  0  0  0  0  0  0  0  0999 V2000
    0.0000    0.0000    0.0000 H   0  0  0  0  0 15  0  0  0  1  0  0
M  END
>  <rmg_smiles>  (5) 
[H]

>  <rmg_adjacency_list>  (5) 
multiplicity 2
1 H u1 p0 c0


>  <multiplicity>  (5) 
2

>  <reaction>  (5) 
rxn_261

>  <type>  (5) 
r2

>  <role_mapnums>  (5) 
{}

>  <role_mapidx>  (5) 
{}

>  <ordered_mapped_smiles>  (5) 
[H:1]

>  <level_of_theory>  (5) 
wb97xd/def2tzvp

>  <lot_method>  (5) 
wb97xd

>  <lot_basis>  (5) 
def2tzvp

>  <spin_multiplicity>  (5) 
2.0

>  <optical_isomers>  (5) 
1.0

>  <modes>  (5) 
IdealGasTranslation(mass=(1.00797, 'amu')),

>  <frequency_value>  (5) 
unknown

>  <frequency_units>  (5) 
unknown

>  <frequency_list>  (5) 
unknown

>  <arkane_path>  (5) 
/home/calvin/Dropbox/PersonalFolders/Calvin/HAb_Converged/rxn_261/output/Species/rxn_261_[H]/arkane/output.py

>  <path_exists>  (5) 
True

>  <E0_value>  (5) 
-1319.7535890175566

>  <E0_units>  (5) 
kJ/mol

>  <thermo_class>  (5) 
NASA

>  <Cp0_value>  (5) 
20.78618

>  <Cp0_units>  (5) 
J/(mol*K)

>  <CpInf_value>  (5) 
20.78618

>  <CpInf_units>  (5) 
J/(mol*K)

>  <Tmin_value>  (5) 
10.0

>  <Tmin_units>  (5) 
K

>  <Tmax_value>  (5) 
3000.0

>  <Tmax_units>  (5) 
K

>  <polynomials>  (5) 
[{"name": "polynomial1", "class": "NASAPolynomial", "Tmin_value": 10.0, "Tmin_units": "K", "Tmax_value": 1853.5663026740365, "Tmax_units": "K", "coeffs": [2.500000000000126, -2.814048095438137e-15, 9.047587538332909e-18, -8.591944598242694e-21, 2.4182720553650057e-24, -158729.69562032758, -0.461069367474324]}, {"name": "polynomial2", "class": "NASAPolynomial", "Tmin_value": 1853.5663026740365, "Tmin_units": "K", "Tmax_value": 3000.0, "Tmax_units": "K", "coeffs": [2.500000000696122, -1.3129776766613561e-12, 9.140875080033424e-16, -2.782806647322001e-19, 3.1263265306749967e-23, -158729.69562061856, -0.4610693713504795]}]

>  <H298_value>  (5) 
-313.9482141882736

>  <H298_units>  (5) 
kcal/mol

>  <S298_value>  (5) 
27.387012987908147

>  <S298_units>  (5) 
cal/(mol*K)

>  <Cp_T_value_list>  (5) 
[4.968016252389826, 4.968016252389978, 4.968016252390173, 4.96801625239036, 4.968016252390567, 4.968016252390427, 4.968016252389077, 4.968016252391019, 4.968016252390868]

>  <Cp_T_units>  (5) 
cal/(mol*K)

>  <T_list>  (5) 
[300.0, 400.0, 500.0, 600.0, 800.0, 1000.0, 1500.0, 2000.0, 2400.0]

>  <T_units>  (5) 
K

>  <yaml_path>  (5) 
/home/calvin/Dropbox/PersonalFolders/Calvin/HAb_Converged/rxn_261/output/Species/rxn_261_[H]/rxn_261_H.yml

>  <frequencies_cm1>  (5) 
[]

>  <ZPE_kJmol>  (5) 
unknown

>  <E_elec_kJmol>  (5) 
unknown

>  <E0_minus_Eelec_plus_ZPE_kJmol>  (5) 
unknown

>  <rxn>  (5) 
rxn_261

>  <species_type>  (5) 
r1

>  <species_folder>  (5) 
rxn_261_[H]

>  <frequencies_cm1_list>  (5) 
[]

>  <E0_kJmol>  (5) 
-1319.75

>  <H298_kJmol>  (5) 
-1313.56

$$$$
