
     RDKit          3D

  7  6  0  0  0  0  0  0  0  0999 V2000
   -0.5528   -1.3121   -1.5222 O   0  0  0  0  0  0  0  0  0  1  0  0
   -0.3503   -1.1436   -0.3752 C   0  0  0  0  0  0  0  0  0  2  0  0
    0.0909    0.2144    0.2390 C   0  0  0  0  0  0  0  0  0  3  0  0
   -0.8601    0.6317    1.0746 F   0  0  0  0  0  0  0  0  0  4  0  0
    1.2113    0.0261    0.9394 F   0  0  0  0  0  0  0  0  0  5  0  0
    0.3039    1.1428   -0.6733 F   0  0  0  0  0  0  0  0  0  6  0  0
   -0.4661   -1.9223    0.3786 H   0  0  0  0  0  0  0  0  0  7  0  0
  1  2  1  0
  2  7  1  0
  2  3  1  0
  3  5  1  0
  3  6  1  0
  3  4  1  0
M  END
>  <rmg_smiles>  (1) 
O[CH]C(F)(F)F

>  <rmg_adjacency_list>  (1) 
1 F u0 p3 c0 {5,S}
2 F u0 p3 c0 {5,S}
3 F u0 p3 c0 {5,S}
4 O u0 p2 c0 {6,S}
5 C u0 p0 c0 {1,S} {2,S} {3,S} {6,S}
6 C u0 p0 c0 {4,S} {5,S} {7,S}
7 H u0 p0 c0 {6,S}


>  <multiplicity>  (1) 
1

>  <reaction>  (1) 
rxn_3247

>  <type>  (1) 
r1h

>  <role_mapnums>  (1) 
{"r1h_a": 2, "r1h_h": 7}

>  <role_mapidx>  (1) 
{"r1h_a": 1, "r1h_h": 6}

>  <ordered_mapped_smiles>  (1) 
[OH:1][CH:2]([C:3]([F:4])([F:5])[F:6])[H:7]

>  <mol_properties>  (1) 
{"1": {"label": "donator", "atom_type": "Cs"}, "6": {"label": "d_hydrogen", "atom_type": "H0"}}

>  <level_of_theory>  (1) 
wb97xd/def2tzvp

>  <lot_method>  (1) 
wb97xd

>  <lot_basis>  (1) 
def2tzvp

>  <spin_multiplicity>  (1) 
1.0

>  <optical_isomers>  (1) 
1.0

>  <modes>  (1) 
IdealGasTranslation(mass=(97.998, 'amu')),         NonlinearRotor(             inertia = ([91.9471, 169.12, 172.158

>  <frequency_value>  (1) 
unknown

>  <frequency_units>  (1) 
unknown

>  <frequency_list>  (1) 
unknown

>  <arkane_path>  (1) 
/home/calvin/Dropbox/PersonalFolders/Calvin/ATLAS_Converged/NonRMG/rxn_3247/output/Species/rxn_3247_r2_O=CCrbr-F-rbrrbr-F-rbrF/arkane/output.py

>  <path_exists>  (1) 
True

>  <E0_value>  (1) 
-1185626.196104497

>  <E0_units>  (1) 
kJ/mol

>  <thermo_class>  (1) 
NASA

>  <Cp0_value>  (1) 
33.257888

>  <Cp0_units>  (1) 
J/(mol*K)

>  <CpInf_value>  (1) 
157.97496800000002

>  <CpInf_units>  (1) 
J/(mol*K)

>  <Tmin_value>  (1) 
10.0

>  <Tmin_units>  (1) 
K

>  <Tmax_value>  (1) 
3000.0

>  <Tmax_units>  (1) 
K

>  <polynomials>  (1) 
[{"name": "polynomial1", "class": "NASAPolynomial", "Tmin_value": 10.0, "Tmin_units": "K", "Tmax_value": 580.1697869375803, "Tmax_units": "K", "coeffs": [3.820146520011395, 0.015784903175908294, 3.972199304260754e-05, -1.0158616592287278e-07, 6.384705418462712e-11, -142597890.25381836, 10.694606153238256]}, {"name": "polynomial2", "class": "NASAPolynomial", "Tmin_value": 580.1697869375803, "Tmin_units": "K", "Tmax_value": 3000.0, "Tmax_units": "K", "coeffs": [4.926067241363566, 0.02264800775676391, -1.547999362659787e-05, 4.888135678558691e-09, -5.809012229089591e-13, -142598262.4075484, 3.859917128308458]}]

>  <H298_value>  (1) 
-283367.4415531588

>  <H298_units>  (1) 
kcal/mol

>  <S298_value>  (1) 
75.82333525974536

>  <S298_units>  (1) 
cal/(mol*K)

>  <Cp_T_value_list>  (1) 
[19.683144279445447, 23.096499611439434, 25.7050457098044, 27.66713428450314, 30.6070853897849, 32.5928014360037, 35.02399530405501, 35.99382246258668, 36.598783097899656]

>  <Cp_T_units>  (1) 
cal/(mol*K)

>  <T_list>  (1) 
[300.0, 400.0, 500.0, 600.0, 800.0, 1000.0, 1500.0, 2000.0, 2400.0]

>  <T_units>  (1) 
K

>  <yaml_path>  (1) 
/home/calvin/Dropbox/PersonalFolders/Calvin/ATLAS_Converged/NonRMG/rxn_3247/output/Species/rxn_3247_r2_O=CCrbr-F-rbrrbr-F-rbrF/rxn_3247_r2_O=CCrbr-F-rbrrbr-F-rbrF.yml

>  <frequencies_cm1>  (1) 
[74.1977763826, 251.83295264036, 311.417784262, 426.66639888756004, 525.30377602404, 529.7329815554399, 707.5398324461999, 842.4486260429198, 979.4518501622399, 1183.7583974028798, 1201.73616497064, 1309.6508392744402, 1398.09761019604, 1873.3273292666397, 2942.3521359429596]

>  <ZPE_kJmol>  (1) 
87.07329793785837

>  <E_elec_kJmol>  (1) 
-1185713.2694024348

>  <E0_minus_Eelec_plus_ZPE_kJmol>  (1) 
0.0

>  <rxn>  (1) 
rxn_3247

>  <species_type>  (1) 
r1

>  <species_folder>  (1) 
rxn_3247_r2_O=CCrbr-F-rbrrbr-F-rbrF

>  <frequencies_cm1_list>  (1) 
[74.1977763826, 251.83295264036, 311.417784262, 426.66639888756004, 525.30377602404, 529.7329815554399, 707.5398324461999, 842.4486260429198, 979.4518501622399, 1183.7583974028798, 1201.73616497064, 1309.6508392744402, 1398.09761019604, 1873.3273292666397, 2942.3521359429596]

>  <E0_kJmol>  (1) 
-1.18563e+06

>  <H298_kJmol>  (1) 
-1.18561e+06

$$$$

     RDKit          3D

  8  7  0  0  0  0  0  0  0  0999 V2000
   -1.6847    0.0623    0.0347 N   0  0  0  0  0  0  0  0  0  1  0  0
   -0.4328    0.0823    0.7680 C   0  0  0  0  0  0  0  0  0  2  0  0
    0.7755   -0.0459   -0.0574 C   0  0  0  0  0  2  0  0  0  3  0  0
    1.6892   -0.1466   -0.7435 N   0  0  0  0  0  0  0  0  0  4  0  0
   -1.6324   -0.6699   -0.6756 H   0  0  0  0  0  0  0  0  0  5  0  0
   -0.4432   -0.7457    1.4863 H   0  0  0  0  0  0  0  0  0  6  0  0
   -0.3644    1.0022    1.3507 H   0  0  0  0  0  0  0  0  0  7  0  0
   -1.6987    0.8826   -0.5739 H   0  0  0  0  0  0  0  0  0  8  0  0
  1  5  1  0
  1  2  1  0
  1  8  1  0
  2  7  1  0
  2  6  1  0
  2  3  1  0
  3  4  1  0
M  RAD  1   3   3
M  END
>  <rmg_smiles>  (2) 
[N][C]CN

>  <rmg_adjacency_list>  (2) 
1 N u0 p1 c0 {3,S} {7,S} {8,S}
2 N u0 p2 c0 {4,S}
3 C u0 p0 c0 {1,S} {4,S} {5,S} {6,S}
4 C u0 p1 c0 {2,S} {3,S}
5 H u0 p0 c0 {3,S}
6 H u0 p0 c0 {3,S}
7 H u0 p0 c0 {1,S}
8 H u0 p0 c0 {1,S}


>  <multiplicity>  (2) 
1

>  <reaction>  (2) 
rxn_3247

>  <type>  (2) 
r2h

>  <role_mapnums>  (2) 
{"r2h_a": 1, "r2h_h": 8}

>  <role_mapidx>  (2) 
{"r2h_a": 0, "r2h_h": 7}

>  <ordered_mapped_smiles>  (2) 
[N:1]([C:2]([C:3][NH2:4])([H:6])[H:7])([H:5])[H:8]

>  <mol_properties>  (2) 
{"0": {"label": "acceptor", "atom_type": "N3s"}, "7": {"label": "a_hydrogen", "atom_type": "H0"}}

>  <level_of_theory>  (2) 
wb97xd/def2tzvp

>  <lot_method>  (2) 
wb97xd

>  <lot_basis>  (2) 
def2tzvp

>  <spin_multiplicity>  (2) 
1.0

>  <optical_isomers>  (2) 
1.0

>  <modes>  (2) 
IdealGasTranslation(mass=(56.0374, 'amu')),         NonlinearRotor(             inertia = ([16.5185, 105.395, 116.141

>  <frequency_value>  (2) 
unknown

>  <frequency_units>  (2) 
unknown

>  <frequency_list>  (2) 
unknown

>  <arkane_path>  (2) 
/home/calvin/Dropbox/PersonalFolders/Calvin/ATLAS_Converged/NonRMG/rxn_3247/output/Species/rxn_3247_p1_NCCtN/arkane/output.py

>  <path_exists>  (2) 
True

>  <E0_value>  (2) 
-493707.24096395954

>  <E0_units>  (2) 
kJ/mol

>  <thermo_class>  (2) 
NASA

>  <Cp0_value>  (2) 
33.257888

>  <Cp0_units>  (2) 
J/(mol*K)

>  <CpInf_value>  (2) 
182.918384

>  <CpInf_units>  (2) 
J/(mol*K)

>  <Tmin_value>  (2) 
10.0

>  <Tmin_units>  (2) 
K

>  <Tmax_value>  (2) 
3000.0

>  <Tmax_units>  (2) 
K

>  <polynomials>  (2) 
[{"name": "polynomial1", "class": "NASAPolynomial", "Tmin_value": 10.0, "Tmin_units": "K", "Tmax_value": 310.3656944426032, "Tmax_units": "K", "coeffs": [3.9731943208296037, 0.002034998905401934, 9.475709370659397e-05, -2.3009470252826854e-07, 1.8817978896599532e-10, -59379266.29095806, 8.166466583720501]}, {"name": "polynomial2", "class": "NASAPolynomial", "Tmin_value": 310.3656944426032, "Tmin_units": "K", "Tmax_value": 3000.0, "Tmax_units": "K", "coeffs": [2.222751666825024, 0.024594558995586543, -1.4272560220765838e-05, 4.0994905264842876e-09, -4.624224001756621e-13, -59379157.63460226, 14.563329871704575]}]

>  <H298_value>  (2) 
-117995.39622498966

>  <H298_units>  (2) 
kcal/mol

>  <S298_value>  (2) 
67.48007386059012

>  <S298_units>  (2) 
cal/(mol*K)

>  <Cp_T_value_list>  (2) 
[16.739297051439777, 19.926703272151446, 22.72455293853158, 25.171796492782516, 29.159257216543025, 32.15661505552977, 36.755563782360284, 39.185316788338156, 40.47748472918174]

>  <Cp_T_units>  (2) 
cal/(mol*K)

>  <T_list>  (2) 
[300.0, 400.0, 500.0, 600.0, 800.0, 1000.0, 1500.0, 2000.0, 2400.0]

>  <T_units>  (2) 
K

>  <yaml_path>  (2) 
/home/calvin/Dropbox/PersonalFolders/Calvin/ATLAS_Converged/NonRMG/rxn_3247/output/Species/rxn_3247_p1_NCCtN/rxn_3247_p1_NCCtN.yml

>  <frequencies_cm1>  (2) 
[216.01475721123998, 261.31625936728, 391.90571919772, 575.1100205500001, 821.9438078774, 892.22053564228, 915.49274889176, 1117.7804024483198, 1189.6365368368, 1359.3815469618798, 1375.3816227574798, 1458.4996130707598, 1659.1529241211601, 2352.78024430904, 3046.929455381239, 3089.3536906882, 3509.5925913162396, 3590.1972650023995]

>  <ZPE_kJmol>  (2) 
166.41668883231094

>  <E_elec_kJmol>  (2) 
-493873.6576527919

>  <E0_minus_Eelec_plus_ZPE_kJmol>  (2) 
0.0

>  <rxn>  (2) 
rxn_3247

>  <species_type>  (2) 
p0

>  <species_folder>  (2) 
rxn_3247_p1_NCCtN

>  <frequencies_cm1_list>  (2) 
[216.01475721123998, 261.31625936728, 391.90571919772, 575.1100205500001, 821.9438078774, 892.22053564228, 915.49274889176, 1117.7804024483198, 1189.6365368368, 1359.3815469618798, 1375.3816227574798, 1458.4996130707598, 1659.1529241211601, 2352.78024430904, 3046.929455381239, 3089.3536906882, 3509.5925913162396, 3590.1972650023995]

>  <E0_kJmol>  (2) 
-493707

>  <H298_kJmol>  (2) 
-493693

$$$$

     RDKit          3D

 14 12  0  0  0  0  0  0  0  0999 V2000
   -0.8331   -1.9505    0.7794 N   0  0  0  0  0  2  0  0  0  1  0  0
    0.4189   -1.9306    1.5128 C   0  0  0  0  0  0  0  0  0  2  0  0
    1.6271   -2.0588    0.6873 C   0  0  0  0  0  0  0  0  0  3  0  0
    2.5408   -2.1594    0.0012 N   0  0  0  0  0  0  0  0  0  4  0  0
   -0.7808   -2.6827    0.0691 H   0  0  0  0  0  0  0  0  0  5  0  0
    0.4085   -2.7585    2.2310 H   0  0  0  0  0  0  0  0  0  6  0  0
    0.4873   -1.0106    2.0954 H   0  0  0  0  0  0  0  0  0  7  0  0
   -0.9187   -0.1188   -2.0575 O   0  0  0  0  0  0  0  0  0  8  0  0
   -0.7162    0.0496   -0.9104 C   0  0  0  0  0  0  0  0  0  9  0  0
   -0.2750    1.4076   -0.2962 C   0  0  0  0  0  0  0  0  0 10  0  0
   -1.2261    1.8249    0.5393 F   0  0  0  0  0  0  0  0  0 11  0  0
    0.8454    1.2193    0.4041 F   0  0  0  0  0  0  0  0  0 12  0  0
   -0.0620    2.3360   -1.2086 F   0  0  0  0  0  0  0  0  0 13  0  0
   -0.8517   -0.8613   -0.0286 H   0  0  0  0  0  0  0  0  0 14  0  0
  1  5  1  0
  1  2  1  0
  2  7  1  0
  2  6  1  0
  2  3  1  0
  3  4  1  0
  8  9  1  0
  9 10  1  0
  9 14  1  0
 10 12  1  0
 10 13  1  0
 10 11  1  0
M  RAD  1   1   2
M  END
>  <rmg_smiles>  (3) 
[O][CH]C(F)(F)F.[N][C]C[NH]

>  <rmg_adjacency_list>  (3) 
multiplicity 2
1  F u0 p3 c0 {8,S}
2  F u0 p3 c0 {8,S}
3  F u0 p3 c0 {8,S}
4  O u0 p2 c0 {9,S}
5  N u1 p1 c0 {7,S} {14,S}
6  N u0 p2 c0 {10,S}
7  C u0 p0 c0 {5,S} {10,S} {11,S} {12,S}
8  C u0 p0 c0 {1,S} {2,S} {3,S} {9,S}
9  C u0 p0 c0 {4,S} {8,S} {13,S}
10 C u0 p1 c0 {6,S} {7,S}
11 H u0 p0 c0 {7,S}
12 H u0 p0 c0 {7,S}
13 H u0 p0 c0 {9,S}
14 H u0 p0 c0 {5,S}


>  <multiplicity>  (3) 
2

>  <reaction>  (3) 
rxn_3247

>  <type>  (3) 
ts

>  <role_mapnums>  (3) 
{"*2": 14, "*1": 9, "*3": 1, "*0": 10, "*4": 2}

>  <role_mapidx>  (3) 
{"*2": 13, "*1": 8, "*3": 0, "*0": 9, "*4": 1}

>  <ordered_mapped_smiles>  (3) 
[N:1]([C:2]([CH2:3][NH2:4])([H:6])[H:7])[H:5].[OH:8][CH:9]([C:10]([F:11])([F:12])[F:13])[H:14]

>  <mol_properties>  (3) 
{"0": {"label": "*3", "atom_type": "N3s"}, "1": {"label": "*4", "atom_type": "Cs"}, "8": {"label": "*1", "atom_type": "Cs"}, "9": {"label": "*0", "atom_type": "Cs"}, "13": {"label": "*2", "atom_type": "H0"}}

>  <level_of_theory>  (3) 
wb97xd/def2tzvp

>  <lot_method>  (3) 
wb97xd

>  <lot_basis>  (3) 
def2tzvp

>  <spin_multiplicity>  (3) 
2.0

>  <optical_isomers>  (3) 
2.0

>  <modes>  (3) 
IdealGasTranslation(mass=(153.028, 'amu')),         NonlinearRotor(             inertia = ([268.763, 671.475, 685.362

>  <frequency_value>  (3) 
-1718.44

>  <frequency_units>  (3) 
cm^-1

>  <frequency_list>  (3) 
unknown

>  <arkane_path>  (3) 
/home/calvin/Dropbox/PersonalFolders/Calvin/ATLAS_Converged/NonRMG/rxn_3247/output/rxns/TS0/arkane/output.py

>  <path_exists>  (3) 
True

>  <E0_value>  (3) 
-1677570.0

>  <E0_units>  (3) 
kJ/mol

>  <thermo_class>  (3) 
unknown

>  <Cp0_value>  (3) 
unknown

>  <Cp0_units>  (3) 
unknown

>  <CpInf_value>  (3) 
unknown

>  <CpInf_units>  (3) 
unknown

>  <Tmin_value>  (3) 
unknown

>  <Tmin_units>  (3) 
unknown

>  <Tmax_value>  (3) 
unknown

>  <Tmax_units>  (3) 
unknown

>  <polynomials>  (3) 
unknown

>  <H298_value>  (3) 
unknown

>  <H298_units>  (3) 
unknown

>  <S298_value>  (3) 
unknown

>  <S298_units>  (3) 
unknown

>  <Cp_T_value_list>  (3) 
unknown

>  <Cp_T_units>  (3) 
unknown

>  <T_list>  (3) 
unknown

>  <T_units>  (3) 
unknown

>  <yaml_path>  (3) 
unknown

>  <frequencies_cm1>  (3) 
unknown

>  <ZPE_kJmol>  (3) 
unknown

>  <E_elec_kJmol>  (3) 
unknown

>  <E0_minus_Eelec_plus_ZPE_kJmol>  (3) 
unknown

>  <rxn>  (3) 
unknown

>  <species_type>  (3) 
unknown

>  <species_folder>  (3) 
unknown

>  <frequencies_cm1_list>  (3) 
[]

>  <ts_imag_freq_cm1>  (3) 
-1739.3101

>  <ts_freq_out_path>  (3) 
/home/calvin/Dropbox/PersonalFolders/Calvin/ATLAS_Converged/NonRMG/rxn_3247/output/rxns/TS0/geometry/freq.out

>  <E0_kJmol>  (3) 
-1.67757e+06

>  <H298_kJmol>  (3) 
unknown

$$$$

     RDKit          3D

  6  5  0  0  0  0  0  0  0  0999 V2000
    1.9643   -0.3741    0.0266 O   0  0  0  0  0  0  0  0  0  1  0  0
    1.0930    0.3894    0.1379 C   0  0  0  0  0  3  0  0  0  2  0  0
   -0.4328    0.0550   -0.0115 C   0  0  0  0  0  0  0  0  0  3  0  0
   -0.9322    0.7951   -0.9918 F   0  0  0  0  0  0  0  0  0  4  0  0
   -1.0440    0.3587    1.1252 F   0  0  0  0  0  0  0  0  0  5  0  0
   -0.6483   -1.2242   -0.2865 F   0  0  0  0  0  0  0  0  0  6  0  0
  1  2  1  0
  2  3  1  0
  3  5  1  0
  3  6  1  0
  3  4  1  0
M  RAD  1   2   2
M  END
>  <rmg_smiles>  (4) 
O[C]C(F)(F)F

>  <rmg_adjacency_list>  (4) 
multiplicity 2
1 F u0 p3 c0 {5,S}
2 F u0 p3 c0 {5,S}
3 F u0 p3 c0 {5,S}
4 O u0 p2 c0 {6,S}
5 C u0 p0 c0 {1,S} {2,S} {3,S} {6,S}
6 C u1 p1 c0 {4,S} {5,S}


>  <multiplicity>  (4) 
2

>  <reaction>  (4) 
rxn_3247

>  <type>  (4) 
r1

>  <role_mapnums>  (4) 
{}

>  <role_mapidx>  (4) 
{}

>  <ordered_mapped_smiles>  (4) 
[OH:1][CH:2][C:3]([F:4])([F:5])[F:6]

>  <level_of_theory>  (4) 
wb97xd/def2tzvp

>  <lot_method>  (4) 
wb97xd

>  <lot_basis>  (4) 
def2tzvp

>  <spin_multiplicity>  (4) 
2.0

>  <optical_isomers>  (4) 
1.0

>  <modes>  (4) 
IdealGasTranslation(mass=(96.9901, 'amu')),         NonlinearRotor(             inertia = ([89.2224, 169.151, 169.375

>  <frequency_value>  (4) 
unknown

>  <frequency_units>  (4) 
unknown

>  <frequency_list>  (4) 
unknown

>  <arkane_path>  (4) 
/home/calvin/Dropbox/PersonalFolders/Calvin/ATLAS_Converged/NonRMG/rxn_3247/output/Species/rxn_3247_p2_O=sbr-C-sbrCrbr-F-rbrrbr-F-rbrF/arkane/output.py

>  <path_exists>  (4) 
True

>  <E0_value>  (4) 
-1183934.0299491046

>  <E0_units>  (4) 
kJ/mol

>  <thermo_class>  (4) 
NASA

>  <Cp0_value>  (4) 
33.257888

>  <Cp0_units>  (4) 
J/(mol*K)

>  <CpInf_value>  (4) 
133.031552

>  <CpInf_units>  (4) 
J/(mol*K)

>  <Tmin_value>  (4) 
10.0

>  <Tmin_units>  (4) 
K

>  <Tmax_value>  (4) 
3000.0

>  <Tmax_units>  (4) 
K

>  <polynomials>  (4) 
[{"name": "polynomial1", "class": "NASAPolynomial", "Tmin_value": 10.0, "Tmin_units": "K", "Tmax_value": 533.6953903548505, "Tmax_units": "K", "coeffs": [3.808504368150481, 0.01607678584676883, 4.035607419223684e-05, -1.217152189872373e-07, 8.612496854816505e-11, -142394369.5158481, 11.693579521359782]}, {"name": "polynomial2", "class": "NASAPolynomial", "Tmin_value": 533.6953903548505, "Tmin_units": "K", "Tmax_value": 3000.0, "Tmax_units": "K", "coeffs": [5.718472745866547, 0.01851655398469121, -1.3592062483680139e-05, 4.497950975405024e-09, -5.522448025208699e-13, -142394811.9984275, 1.442921040625294]}]

>  <H298_value>  (4) 
-282963.0318989574

>  <H298_units>  (4) 
kcal/mol

>  <S298_value>  (4) 
77.63992387573413

>  <S298_units>  (4) 
cal/(mol*K)

>  <Cp_T_value_list>  (4) 
[19.22600059206616, 22.08028018636348, 24.053791343371767, 25.506290506241008, 27.64114296370767, 28.990700698455424, 30.39632725932658, 30.863347375042743, 31.249695658466038]

>  <Cp_T_units>  (4) 
cal/(mol*K)

>  <T_list>  (4) 
[300.0, 400.0, 500.0, 600.0, 800.0, 1000.0, 1500.0, 2000.0, 2400.0]

>  <T_units>  (4) 
K

>  <yaml_path>  (4) 
/home/calvin/Dropbox/PersonalFolders/Calvin/ATLAS_Converged/NonRMG/rxn_3247/output/Species/rxn_3247_p2_O=sbr-C-sbrCrbr-F-rbrrbr-F-rbrF/rxn_3247_p2_O=sbr-C-sbrCrbr-F-rbrrbr-F-rbrF.yml

>  <frequencies_cm1>  (4) 
[49.90238232044, 236.35476772907998, 395.38041376964, 410.18563411956, 531.8686139899598, 544.53820190536, 668.8375031826799, 785.4114459749999, 1156.6063374476, 1208.41087470168, 1226.24443557772, 1992.64119920164]

>  <ZPE_kJmol>  (4) 
55.066407711130935

>  <E_elec_kJmol>  (4) 
-1183989.096356816

>  <E0_minus_Eelec_plus_ZPE_kJmol>  (4) 
0.0

>  <rxn>  (4) 
rxn_3247

>  <species_type>  (4) 
p1

>  <species_folder>  (4) 
rxn_3247_p2_O=sbr-C-sbrCrbr-F-rbrrbr-F-rbrF

>  <frequencies_cm1_list>  (4) 
[49.90238232044, 236.35476772907998, 395.38041376964, 410.18563411956, 531.8686139899598, 544.53820190536, 668.8375031826799, 785.4114459749999, 1156.6063374476, 1208.41087470168, 1226.24443557772, 1992.64119920164]

>  <E0_kJmol>  (4) 
-1.18393e+06

>  <H298_kJmol>  (4) 
-1.18392e+06

$$$$

     RDKit          3D

  7  6  0  0  0  0  0  0  0  0999 V2000
   -1.3059    0.5497   -0.1304 N   0  0  0  0  0  2  0  0  0  1  0  0
   -0.2700   -0.4288    0.0448 C   0  0  0  0  0  0  0  0  0  2  0  0
    1.1109    0.0669    0.0401 C   0  0  0  0  0  0  0  0  0  3  0  0
    2.1758    0.4925    0.0308 N   0  0  0  0  0  0  0  0  0  4  0  0
   -0.8815    1.4733   -0.2339 H   0  0  0  0  0  0  0  0  0  5  0  0
   -0.3767   -1.1909   -0.7373 H   0  0  0  0  0  0  0  0  0  6  0  0
   -0.4527   -0.9628    0.9858 H   0  0  0  0  0  0  0  0  0  7  0  0
  1  5  1  0
  1  2  1  0
  2  7  1  0
  2  6  1  0
  2  3  1  0
  3  4  1  0
M  RAD  1   1   2
M  END
>  <rmg_smiles>  (5) 
[N][C]C[NH]

>  <rmg_adjacency_list>  (5) 
multiplicity 2
1 N u1 p1 c0 {3,S} {7,S}
2 N u0 p2 c0 {4,S}
3 C u0 p0 c0 {1,S} {4,S} {5,S} {6,S}
4 C u0 p1 c0 {2,S} {3,S}
5 H u0 p0 c0 {3,S}
6 H u0 p0 c0 {3,S}
7 H u0 p0 c0 {1,S}


>  <multiplicity>  (5) 
2

>  <reaction>  (5) 
rxn_3247

>  <type>  (5) 
r2

>  <role_mapnums>  (5) 
{}

>  <role_mapidx>  (5) 
{}

>  <ordered_mapped_smiles>  (5) 
[N:1]([C:2]([CH2:3][NH2:4])([H:6])[H:7])[H:5]

>  <level_of_theory>  (5) 
wb97xd/def2tzvp

>  <lot_method>  (5) 
wb97xd

>  <lot_basis>  (5) 
def2tzvp

>  <spin_multiplicity>  (5) 
2.0

>  <optical_isomers>  (5) 
1.0

>  <modes>  (5) 
IdealGasTranslation(mass=(55.0296, 'amu')),         NonlinearRotor(             inertia = ([14.3798, 101.116, 112.445

>  <frequency_value>  (5) 
unknown

>  <frequency_units>  (5) 
unknown

>  <frequency_list>  (5) 
unknown

>  <arkane_path>  (5) 
/home/calvin/Dropbox/PersonalFolders/Calvin/ATLAS_Converged/NonRMG/rxn_3247/output/Species/rxn_3247_r1_sbr-NH-sbrCCtN/arkane/output.py

>  <path_exists>  (5) 
True

>  <E0_value>  (5) 
-491973.9107065931

>  <E0_units>  (5) 
kJ/mol

>  <thermo_class>  (5) 
NASA

>  <Cp0_value>  (5) 
33.257888

>  <Cp0_units>  (5) 
J/(mol*K)

>  <CpInf_value>  (5) 
157.97496800000002

>  <CpInf_units>  (5) 
J/(mol*K)

>  <Tmin_value>  (5) 
10.0

>  <Tmin_units>  (5) 
K

>  <Tmax_value>  (5) 
3000.0

>  <Tmax_units>  (5) 
K

>  <polynomials>  (5) 
[{"name": "polynomial1", "class": "NASAPolynomial", "Tmin_value": 10.0, "Tmin_units": "K", "Tmax_value": 441.5888552627719, "Tmax_units": "K", "coeffs": [3.8074387231682363, 0.01890513209384672, -2.384570888732855e-05, 4.838233157000235e-08, -4.1393745668634286e-11, -59170793.396980785, 9.226799164772778]}, {"name": "polynomial2", "class": "NASAPolynomial", "Tmin_value": 441.5888552627719, "Tmin_units": "K", "Tmax_value": 3000.0, "Tmax_units": "K", "coeffs": [2.9869977814233555, 0.020949312305084667, -1.2488909357575524e-05, 3.6086756240984913e-09, -4.0428709073473696e-13, -59170668.40878062, 13.109112838271622]}]

>  <H298_value>  (5) 
-117580.92958719996

>  <H298_units>  (5) 
kcal/mol

>  <S298_value>  (5) 
71.21799638955733

>  <S298_units>  (5) 
cal/(mol*K)

>  <Cp_T_value_list>  (5) 
[16.50156041465201, 19.059232907035433, 21.392761081461902, 23.42450687983812, 26.69929489980552, 29.116130872672766, 32.67662417459433, 34.43987147616164, 35.37681819280643]

>  <Cp_T_units>  (5) 
cal/(mol*K)

>  <T_list>  (5) 
[300.0, 400.0, 500.0, 600.0, 800.0, 1000.0, 1500.0, 2000.0, 2400.0]

>  <T_units>  (5) 
K

>  <yaml_path>  (5) 
/home/calvin/Dropbox/PersonalFolders/Calvin/ATLAS_Converged/NonRMG/rxn_3247/output/Species/rxn_3247_r1_sbr-NH-sbrCCtN/rxn_3247_r1_sbr-NH-sbrCCtN.yml

>  <frequencies_cm1>  (5) 
[63.7942936228, 224.96930606852, 349.44028197883995, 587.4774611113199, 879.8668290515999, 884.95526517372, 1044.48906812796, 1212.8469472184, 1240.74064158824, 1356.4012753329998, 1409.47620487128, 2361.53565059204, 2988.3609375869596, 3014.2975411406, 3431.2265548443993]

>  <ZPE_kJmol>  (5) 
125.90626832277542

>  <E_elec_kJmol>  (5) 
-492099.8169749159

>  <E0_minus_Eelec_plus_ZPE_kJmol>  (5) 
0.0

>  <rxn>  (5) 
rxn_3247

>  <species_type>  (5) 
r0

>  <species_folder>  (5) 
rxn_3247_r1_sbr-NH-sbrCCtN

>  <frequencies_cm1_list>  (5) 
[63.7942936228, 224.96930606852, 349.44028197883995, 587.4774611113199, 879.8668290515999, 884.95526517372, 1044.48906812796, 1212.8469472184, 1240.74064158824, 1356.4012753329998, 1409.47620487128, 2361.53565059204, 2988.3609375869596, 3014.2975411406, 3431.2265548443993]

>  <E0_kJmol>  (5) 
-491974

>  <H298_kJmol>  (5) 
-491959

$$$$
