
     RDKit          3D

  9  8  0  0  0  0  0  0  0  0999 V2000
   -0.0800    0.7930    0.9736 C   0  0  0  0  0  0  0  0  0  1  0  0
    0.0848   -0.3255    0.3019 C   0  0  0  0  0  0  0  0  0  2  0  0
   -0.0009   -0.4554   -1.1904 C   0  0  0  0  0  0  0  0  0  3  0  0
   -0.0034    0.8126    2.0563 H   0  0  0  0  0  0  0  0  0  4  0  0
   -0.2987    1.7773    0.5712 H   0  0  0  0  0  0  0  0  0  5  0  0
    0.3011   -1.2410    0.8486 H   0  0  0  0  0  0  0  0  0  6  0  0
    0.9395   -0.8351   -1.5971 H   0  0  0  0  0  0  0  0  0  7  0  0
   -0.2197    0.5024   -1.6626 H   0  0  0  0  0  0  0  0  0  8  0  0
   -0.7830   -1.1656   -1.4694 H   0  0  0  0  0  0  0  0  0  9  0  0
  1  5  1  0
  1  4  1  0
  1  2  1  0
  2  6  1  0
  2  3  1  0
  3  8  1  0
  3  7  1  0
  3  9  1  0
M  END
>  <rmg_smiles>  (1) 
[CH2][CH]C

>  <rmg_adjacency_list>  (1) 
1 C u0 p0 c0 {2,S} {4,S} {5,S} {6,S}
2 C u0 p0 c0 {1,S} {3,S} {7,S}
3 C u0 p0 c0 {2,S} {8,S} {9,S}
4 H u0 p0 c0 {1,S}
5 H u0 p0 c0 {1,S}
6 H u0 p0 c0 {1,S}
7 H u0 p0 c0 {2,S}
8 H u0 p0 c0 {3,S}
9 H u0 p0 c0 {3,S}


>  <multiplicity>  (1) 
1

>  <reaction>  (1) 
rxn_99

>  <type>  (1) 
r1h

>  <role_mapnums>  (1) 
{"r1h_a": 1, "r1h_h": 4}

>  <role_mapidx>  (1) 
{"r1h_a": 0, "r1h_h": 3}

>  <ordered_mapped_smiles>  (1) 
[CH:1]([CH:2]([C:3]([H:7])([H:8])[H:9])[H:6])([H:4])[H:5]

>  <mol_properties>  (1) 
{"0": {"label": "donator", "atom_type": "Cs"}, "3": {"label": "d_hydrogen", "atom_type": "H0"}}

>  <level_of_theory>  (1) 
wb97xd/def2tzvp

>  <lot_method>  (1) 
wb97xd

>  <lot_basis>  (1) 
def2tzvp

>  <spin_multiplicity>  (1) 
1.0

>  <optical_isomers>  (1) 
1.0

>  <modes>  (1) 
IdealGasTranslation(mass=(42.047, 'amu')),         NonlinearRotor(             inertia = ([10.7194, 53.9495, 61.5632

>  <frequency_value>  (1) 
unknown

>  <frequency_units>  (1) 
unknown

>  <frequency_list>  (1) 
unknown

>  <arkane_path>  (1) 
/home/calvin/Dropbox/PersonalFolders/Calvin/HAb_Converged/rxn_99/output/Species/rxn_99_C=CC/arkane/output.py

>  <path_exists>  (1) 
True

>  <E0_value>  (1) 
-309367.88070268225

>  <E0_units>  (1) 
kJ/mol

>  <thermo_class>  (1) 
NASA

>  <Cp0_value>  (1) 
33.257888

>  <Cp0_units>  (1) 
J/(mol*K)

>  <CpInf_value>  (1) 
207.8618

>  <CpInf_units>  (1) 
J/(mol*K)

>  <Tmin_value>  (1) 
10.0

>  <Tmin_units>  (1) 
K

>  <Tmax_value>  (1) 
3000.0

>  <Tmax_units>  (1) 
K

>  <polynomials>  (1) 
[{"name": "polynomial1", "class": "NASAPolynomial", "Tmin_value": 10.0, "Tmin_units": "K", "Tmax_value": 532.0577202057873, "Tmax_units": "K", "coeffs": [4.020103835302654, -0.0017074980479917085, 7.459046034705118e-05, -1.1023396025676474e-07, 5.3481197627967796e-11, -37208361.301710494, 6.986181334463051]}, {"name": "polynomial2", "class": "NASAPolynomial", "Tmin_value": 532.0577202057873, "Tmin_units": "K", "Tmax_value": 3000.0, "Tmax_units": "K", "coeffs": [-0.30507671788284774, 0.030809359218709958, -1.7083112014376123e-05, 4.633555316648191e-09, -4.924250044802513e-13, -37207901.05583462, 25.12344343354427]}]

>  <H298_value>  (1) 
-73937.54186756606

>  <H298_units>  (1) 
kcal/mol

>  <S298_value>  (1) 
63.24337268320408

>  <S298_units>  (1) 
cal/(mol*K)

>  <Cp_T_value_list>  (1) 
[15.257526344712856, 19.04881200484783, 22.609043962382263, 25.769394717679983, 30.960482554899503, 34.89991831876069, 40.970847866509764, 44.05802967631756, 45.61721763006197]

>  <Cp_T_units>  (1) 
cal/(mol*K)

>  <T_list>  (1) 
[300.0, 400.0, 500.0, 600.0, 800.0, 1000.0, 1500.0, 2000.0, 2400.0]

>  <T_units>  (1) 
K

>  <yaml_path>  (1) 
/home/calvin/Dropbox/PersonalFolders/Calvin/HAb_Converged/rxn_99/output/Species/rxn_99_C=CC/rxn_99_C=CC.yml

>  <frequencies_cm1>  (1) 
[200.09708523947998, 429.33078919172, 590.7049442117201, 925.49107951768, 943.8671322339999, 950.17102475776, 1024.49240687612, 1068.78446219012, 1186.6081963106801, 1322.3410281457998, 1395.89330790832, 1440.30896895808, 1465.7442825833598, 1480.7692464635202, 1719.664798761, 3008.0348505287598, 3066.795643912, 3091.69533268232, 3111.44478246264, 3123.9495627303595, 3201.2649504482397]

>  <ZPE_kJmol>  (1) 
207.83598829281505

>  <E_elec_kJmol>  (1) 
-309575.71669097507

>  <E0_minus_Eelec_plus_ZPE_kJmol>  (1) 
0.0

>  <rxn>  (1) 
rxn_99

>  <species_type>  (1) 
r1

>  <species_folder>  (1) 
rxn_99_C=CC

>  <frequencies_cm1_list>  (1) 
[200.09708523947998, 429.33078919172, 590.7049442117201, 925.49107951768, 943.8671322339999, 950.17102475776, 1024.49240687612, 1068.78446219012, 1186.6081963106801, 1322.3410281457998, 1395.89330790832, 1440.30896895808, 1465.7442825833598, 1480.7692464635202, 1719.664798761, 3008.0348505287598, 3066.795643912, 3091.69533268232, 3111.44478246264, 3123.9495627303595, 3201.2649504482397]

>  <E0_kJmol>  (1) 
-309368

>  <H298_kJmol>  (1) 
-309355

$$$$

     RDKit          3D

  4  3  0  0  0  0  0  0  0  0999 V2000
   -0.0066    0.0587    0.0635 N   0  0  0  0  0  0  0  0  0  1  0  0
   -0.6766   -0.7005    0.1927 H   0  0  0  0  0  0  0  0  0  2  0  0
    0.9070   -0.3966    0.0753 H   0  0  0  0  0  0  0  0  0  3  0  0
   -0.1158    0.2421   -0.9348 H   0  0  0  0  0  0  0  0  0  4  0  0
  1  3  1  0
  1  2  1  0
  1  4  1  0
M  END
>  <rmg_smiles>  (2) 
N

>  <rmg_adjacency_list>  (2) 
1 N u0 p1 c0 {2,S} {3,S} {4,S}
2 H u0 p0 c0 {1,S}
3 H u0 p0 c0 {1,S}
4 H u0 p0 c0 {1,S}


>  <multiplicity>  (2) 
1

>  <reaction>  (2) 
rxn_99

>  <type>  (2) 
r2h

>  <role_mapnums>  (2) 
{"r2h_a": 1, "r2h_h": 4}

>  <role_mapidx>  (2) 
{"r2h_a": 0, "r2h_h": 3}

>  <ordered_mapped_smiles>  (2) 
[N:1]([H:2])([H:3])[H:4]

>  <mol_properties>  (2) 
{"0": {"label": "acceptor", "atom_type": "N3s"}, "3": {"label": "a_hydrogen", "atom_type": "H0"}}

>  <level_of_theory>  (2) 
wb97xd/def2tzvp

>  <lot_method>  (2) 
wb97xd

>  <lot_basis>  (2) 
def2tzvp

>  <spin_multiplicity>  (2) 
1.0

>  <optical_isomers>  (2) 
1.0

>  <modes>  (2) 
IdealGasTranslation(mass=(17.0266, 'amu')),         NonlinearRotor(             inertia = ([1.67808, 1.67808, 2.6816

>  <frequency_value>  (2) 
unknown

>  <frequency_units>  (2) 
unknown

>  <frequency_list>  (2) 
unknown

>  <arkane_path>  (2) 
/home/calvin/Dropbox/PersonalFolders/Calvin/HAb_Converged/rxn_99/output/Species/rxn_99_N/arkane/output.py

>  <path_exists>  (2) 
True

>  <E0_value>  (2) 
-148421.26364269105

>  <E0_units>  (2) 
kJ/mol

>  <thermo_class>  (2) 
NASA

>  <Cp0_value>  (2) 
33.257888

>  <Cp0_units>  (2) 
J/(mol*K)

>  <CpInf_value>  (2) 
83.14472

>  <CpInf_units>  (2) 
J/(mol*K)

>  <Tmin_value>  (2) 
10.0

>  <Tmin_units>  (2) 
K

>  <Tmax_value>  (2) 
3000.0

>  <Tmax_units>  (2) 
K

>  <polynomials>  (2) 
[{"name": "polynomial1", "class": "NASAPolynomial", "Tmin_value": 10.0, "Tmin_units": "K", "Tmax_value": 661.0804506617714, "Tmax_units": "K", "coeffs": [4.018065952450781, -0.0010594462951532533, 7.0068770418278475e-06, -1.9448375260802637e-09, -1.6903909714968277e-12, -17850955.574744247, 0.2630280077390306]}, {"name": "polynomial2", "class": "NASAPolynomial", "Tmin_value": 661.0804506617714, "Tmin_units": "K", "Tmax_value": 3000.0, "Tmax_units": "K", "coeffs": [2.4516557563251014, 0.005556461768624229, -1.5108534204519605e-06, 9.614541938565228e-11, 1.4295840769984746e-14, -17850685.932123393, 7.644744620409682]}]

>  <H298_value>  (2) 
-35471.13537017314

>  <H298_units>  (2) 
kcal/mol

>  <S298_value>  (2) 
45.962578608532034

>  <S298_units>  (2) 
cal/(mol*K)

>  <Cp_T_value_list>  (2) 
[8.474736662297328, 9.037108019992646, 9.720038934265556, 10.464061758445943, 11.893353433479012, 13.130875057040445, 15.468001463496948, 16.92913622142614, 17.662419085416545]

>  <Cp_T_units>  (2) 
cal/(mol*K)

>  <T_list>  (2) 
[300.0, 400.0, 500.0, 600.0, 800.0, 1000.0, 1500.0, 2000.0, 2400.0]

>  <T_units>  (2) 
K

>  <yaml_path>  (2) 
/home/calvin/Dropbox/PersonalFolders/Calvin/HAb_Converged/rxn_99/output/Species/rxn_99_N/rxn_99_N.yml

>  <frequencies_cm1>  (2) 
[1006.65197901476, 1653.7074047623996, 1654.02328608712, 3472.52460455888, 3599.6737047439997, 3600.5252109236794]

>  <ZPE_kJmol>  (2) 
89.64282786797604

>  <E_elec_kJmol>  (2) 
-148510.906470559

>  <E0_minus_Eelec_plus_ZPE_kJmol>  (2) 
0.0

>  <rxn>  (2) 
rxn_99

>  <species_type>  (2) 
p0

>  <species_folder>  (2) 
rxn_99_N

>  <frequencies_cm1_list>  (2) 
[1006.65197901476, 1653.7074047623996, 1654.02328608712, 3472.52460455888, 3599.6737047439997, 3600.5252109236794]

>  <E0_kJmol>  (2) 
-148421

>  <H298_kJmol>  (2) 
-148411

$$$$

     RDKit          3D

 12 10  0  0  0  0  0  0  0  0999 V2000
    0.1504    0.5063    2.5348 N   0  0  0  0  0  0  0  0  0  1  0  0
   -0.5197   -0.2529    2.6641 H   0  0  0  0  0  0  0  0  0  2  0  0
    1.0640    0.0510    2.5466 H   0  0  0  0  0  0  0  0  0  3  0  0
   -0.0758    0.7054   -0.0002 C   0  0  0  0  0  3  0  0  0  4  0  0
    0.0890   -0.4131   -0.6719 C   0  0  0  0  0  0  0  0  0  5  0  0
    0.0033   -0.5430   -2.1642 C   0  0  0  0  0  0  0  0  0  6  0  0
    0.0177    0.7292    1.3218 H   0  0  0  0  0  0  0  0  0  7  0  0
   -0.2945    1.6896   -0.4026 H   0  0  0  0  0  0  0  0  0  8  0  0
    0.3053   -1.3287   -0.1252 H   0  0  0  0  0  0  0  0  0  9  0  0
    0.9437   -0.9227   -2.5709 H   0  0  0  0  0  0  0  0  0 10  0  0
   -0.2155    0.4147   -2.6364 H   0  0  0  0  0  0  0  0  0 11  0  0
   -0.7788   -1.2533   -2.4432 H   0  0  0  0  0  0  0  0  0 12  0  0
  1  7  1  0
  1  2  1  0
  1  3  1  0
  4  8  1  0
  4  5  1  0
  5  6  1  0
  5  9  1  0
  6 11  1  0
  6 12  1  0
  6 10  1  0
M  RAD  1   4   2
M  END
>  <rmg_smiles>  (3) 
[CH][CH]C.N

>  <rmg_adjacency_list>  (3) 
multiplicity 2
1  N u0 p1 c0 {9,S} {10,S} {11,S}
2  C u0 p0 c0 {3,S} {5,S} {6,S} {7,S}
3  C u0 p0 c0 {2,S} {4,S} {8,S}
4  C u1 p1 c0 {3,S} {12,S}
5  H u0 p0 c0 {2,S}
6  H u0 p0 c0 {2,S}
7  H u0 p0 c0 {2,S}
8  H u0 p0 c0 {3,S}
9  H u0 p0 c0 {1,S}
10 H u0 p0 c0 {1,S}
11 H u0 p0 c0 {1,S}
12 H u0 p0 c0 {4,S}


>  <multiplicity>  (3) 
2

>  <reaction>  (3) 
rxn_99

>  <type>  (3) 
ts

>  <role_mapnums>  (3) 
{"*2": 7, "*1": 4, "*3": 1, "*0": 2, "*4": 5}

>  <role_mapidx>  (3) 
{"*2": 6, "*1": 3, "*3": 0, "*0": 1, "*4": 4}

>  <ordered_mapped_smiles>  (3) 
[N:1]([H:2])([H:3])[H:7].[CH:4]([CH:5]([C:6]([H:10])([H:11])[H:12])[H:9])[H:8]

>  <mol_properties>  (3) 
{"0": {"label": "*3", "atom_type": "N3s"}, "1": {"label": "*0", "atom_type": "H0"}, "3": {"label": "*1", "atom_type": "C2s"}, "4": {"label": "*4", "atom_type": "Cs"}, "6": {"label": "*2", "atom_type": "H0"}}

>  <level_of_theory>  (3) 
wb97xd/def2tzvp

>  <lot_method>  (3) 
wb97xd

>  <lot_basis>  (3) 
def2tzvp

>  <spin_multiplicity>  (3) 
2.0

>  <optical_isomers>  (3) 
1.0

>  <modes>  (3) 
IdealGasTranslation(mass=(58.0657, 'amu')),         NonlinearRotor(             inertia = ([17.0708, 199.049, 210.369

>  <frequency_value>  (3) 
-1741.39

>  <frequency_units>  (3) 
cm^-1

>  <frequency_list>  (3) 
unknown

>  <arkane_path>  (3) 
/home/calvin/Dropbox/PersonalFolders/Calvin/HAb_Converged/rxn_99/output/rxns/TS0/arkane/output.py

>  <path_exists>  (3) 
True

>  <E0_value>  (3) 
-455982.0

>  <E0_units>  (3) 
kJ/mol

>  <thermo_class>  (3) 
unknown

>  <Cp0_value>  (3) 
unknown

>  <Cp0_units>  (3) 
unknown

>  <CpInf_value>  (3) 
unknown

>  <CpInf_units>  (3) 
unknown

>  <Tmin_value>  (3) 
unknown

>  <Tmin_units>  (3) 
unknown

>  <Tmax_value>  (3) 
unknown

>  <Tmax_units>  (3) 
unknown

>  <polynomials>  (3) 
unknown

>  <H298_value>  (3) 
unknown

>  <H298_units>  (3) 
unknown

>  <S298_value>  (3) 
unknown

>  <S298_units>  (3) 
unknown

>  <Cp_T_value_list>  (3) 
unknown

>  <Cp_T_units>  (3) 
unknown

>  <T_list>  (3) 
unknown

>  <T_units>  (3) 
unknown

>  <yaml_path>  (3) 
unknown

>  <frequencies_cm1>  (3) 
unknown

>  <ZPE_kJmol>  (3) 
unknown

>  <E_elec_kJmol>  (3) 
unknown

>  <E0_minus_Eelec_plus_ZPE_kJmol>  (3) 
unknown

>  <rxn>  (3) 
unknown

>  <species_type>  (3) 
unknown

>  <species_folder>  (3) 
unknown

>  <frequencies_cm1_list>  (3) 
[]

>  <ts_imag_freq_cm1>  (3) 
-1762.5386

>  <ts_freq_out_path>  (3) 
/home/calvin/Dropbox/PersonalFolders/Calvin/HAb_Converged/rxn_99/output/rxns/TS0/geometry/freq.out

>  <E0_kJmol>  (3) 
-455982

>  <H298_kJmol>  (3) 
unknown

$$$$

     RDKit          3D

  8  7  0  0  0  0  0  0  0  0999 V2000
    1.3778   -0.6812    0.2772 C   0  0  0  0  0  3  0  0  0  1  0  0
    0.4890    0.2108   -0.0590 C   0  0  0  0  0  0  0  0  0  2  0  0
   -1.0010    0.0286   -0.0323 C   0  0  0  0  0  0  0  0  0  3  0  0
    2.4535   -0.7507    0.3287 H   0  0  0  0  0  0  0  0  0  4  0  0
    0.8447    1.1899   -0.3945 H   0  0  0  0  0  0  0  0  0  5  0  0
   -1.4635    0.7638    0.6301 H   0  0  0  0  0  0  0  0  0  6  0  0
   -1.2709   -0.9687    0.3117 H   0  0  0  0  0  0  0  0  0  7  0  0
   -1.4218    0.1801   -1.0289 H   0  0  0  0  0  0  0  0  0  8  0  0
  1  4  1  0
  1  2  1  0
  2  5  1  0
  2  3  1  0
  3  6  1  0
  3  7  1  0
  3  8  1  0
M  RAD  1   1   2
M  END
>  <rmg_smiles>  (4) 
[CH][CH]C

>  <rmg_adjacency_list>  (4) 
multiplicity 2
1 C u0 p0 c0 {2,S} {4,S} {5,S} {6,S}
2 C u0 p0 c0 {1,S} {3,S} {7,S}
3 C u1 p1 c0 {2,S} {8,S}
4 H u0 p0 c0 {1,S}
5 H u0 p0 c0 {1,S}
6 H u0 p0 c0 {1,S}
7 H u0 p0 c0 {2,S}
8 H u0 p0 c0 {3,S}


>  <multiplicity>  (4) 
2

>  <reaction>  (4) 
rxn_99

>  <type>  (4) 
r1

>  <role_mapnums>  (4) 
{}

>  <role_mapidx>  (4) 
{}

>  <ordered_mapped_smiles>  (4) 
[CH:1]([CH:2]([C:3]([H:6])([H:7])[H:8])[H:5])[H:4]

>  <level_of_theory>  (4) 
wb97xd/def2tzvp

>  <lot_method>  (4) 
wb97xd

>  <lot_basis>  (4) 
def2tzvp

>  <spin_multiplicity>  (4) 
2.0

>  <optical_isomers>  (4) 
1.0

>  <modes>  (4) 
IdealGasTranslation(mass=(41.0391, 'amu')),         NonlinearRotor(             inertia = ([8.69051, 52.7378, 58.3092

>  <frequency_value>  (4) 
unknown

>  <frequency_units>  (4) 
unknown

>  <frequency_list>  (4) 
unknown

>  <arkane_path>  (4) 
/home/calvin/Dropbox/PersonalFolders/Calvin/HAb_Converged/rxn_99/output/Species/rxn_99_[CH]=CC/arkane/output.py

>  <path_exists>  (4) 
True

>  <E0_value>  (4) 
-307594.3811372484

>  <E0_units>  (4) 
kJ/mol

>  <thermo_class>  (4) 
NASA

>  <Cp0_value>  (4) 
33.257888

>  <Cp0_units>  (4) 
J/(mol*K)

>  <CpInf_value>  (4) 
182.918384

>  <CpInf_units>  (4) 
J/(mol*K)

>  <Tmin_value>  (4) 
10.0

>  <Tmin_units>  (4) 
K

>  <Tmax_value>  (4) 
3000.0

>  <Tmax_units>  (4) 
K

>  <polynomials>  (4) 
[{"name": "polynomial1", "class": "NASAPolynomial", "Tmin_value": 10.0, "Tmin_units": "K", "Tmax_value": 481.02478517435424, "Tmax_units": "K", "coeffs": [3.972799826081701, 0.0015660209610526285, 6.167235056388965e-05, -1.02054520376365e-07, 5.477611776498825e-11, -36995057.255845435, 7.4044703303176895]}, {"name": "polynomial2", "class": "NASAPolynomial", "Tmin_value": 481.02478517435424, "Tmin_units": "K", "Tmax_value": 3000.0, "Tmax_units": "K", "coeffs": [1.0134418256320878, 0.026172151773736788, -1.504973744552547e-05, 4.265481563309883e-09, -4.749659265557654e-13, -36994772.52031379, 19.516214168770446]}]

>  <H298_value>  (4) 
-73513.59504496788

>  <H298_units>  (4) 
kcal/mol

>  <S298_value>  (4) 
64.48620704915895

>  <S298_units>  (4) 
cal/(mol*K)

>  <Cp_T_value_list>  (4) 
[15.264393222005152, 18.555667111707074, 21.542477361746343, 24.161680445992094, 28.434365102077702, 31.64898955891801, 36.56707469677545, 39.1145696308659, 40.43549108935373]

>  <Cp_T_units>  (4) 
cal/(mol*K)

>  <T_list>  (4) 
[300.0, 400.0, 500.0, 600.0, 800.0, 1000.0, 1500.0, 2000.0, 2400.0]

>  <T_units>  (4) 
K

>  <yaml_path>  (4) 
/home/calvin/Dropbox/PersonalFolders/Calvin/HAb_Converged/rxn_99/output/Species/rxn_99_[CH]=CC/rxn_99_CH=CC.yml

>  <frequencies_cm1>  (4) 
[191.17000432348, 405.3512764542799, 612.1368053954399, 794.34539387632, 826.7575645867199, 930.6344515223599, 1057.6324780304399, 1106.7863589509998, 1263.44976204148, 1394.05982282788, 1469.8576067900399, 1470.75718186696, 1689.7865456336797, 3013.59024165264, 3022.2975790384, 3075.38624254732, 3112.38555945148, 3222.5114030283203]

>  <ZPE_kJmol>  (4) 
171.41831607459883

>  <E_elec_kJmol>  (4) 
-307765.799453323

>  <E0_minus_Eelec_plus_ZPE_kJmol>  (4) 
0.0

>  <rxn>  (4) 
rxn_99

>  <species_type>  (4) 
p1

>  <species_folder>  (4) 
rxn_99_[CH]=CC

>  <frequencies_cm1_list>  (4) 
[191.17000432348, 405.3512764542799, 612.1368053954399, 794.34539387632, 826.7575645867199, 930.6344515223599, 1057.6324780304399, 1106.7863589509998, 1263.44976204148, 1394.05982282788, 1469.8576067900399, 1470.75718186696, 1689.7865456336797, 3013.59024165264, 3022.2975790384, 3075.38624254732, 3112.38555945148, 3222.5114030283203]

>  <E0_kJmol>  (4) 
-307594

>  <H298_kJmol>  (4) 
-307581

$$$$

     RDKit          3D

  3  2  0  0  0  0  0  0  0  0999 V2000
    0.0002    0.4233    0.0000 N   0  0  0  0  0  2  0  0  0  1  0  0
   -0.8051   -0.2112    0.0000 H   0  0  0  0  0  0  0  0  0  2  0  0
    0.8049   -0.2121    0.0000 H   0  0  0  0  0  0  0  0  0  3  0  0
  1  3  1  0
  1  2  1  0
M  RAD  1   1   2
M  END
>  <rmg_smiles>  (5) 
[NH2]

>  <rmg_adjacency_list>  (5) 
multiplicity 2
1 N u1 p1 c0 {2,S} {3,S}
2 H u0 p0 c0 {1,S}
3 H u0 p0 c0 {1,S}


>  <multiplicity>  (5) 
2

>  <reaction>  (5) 
rxn_99

>  <type>  (5) 
r2

>  <role_mapnums>  (5) 
{}

>  <role_mapidx>  (5) 
{}

>  <ordered_mapped_smiles>  (5) 
[N:1]([H:2])[H:3]

>  <level_of_theory>  (5) 
wb97xd/def2tzvp

>  <lot_method>  (5) 
wb97xd

>  <lot_basis>  (5) 
def2tzvp

>  <spin_multiplicity>  (5) 
2.0

>  <optical_isomers>  (5) 
1.0

>  <modes>  (5) 
IdealGasTranslation(mass=(16.0187, 'amu')),         NonlinearRotor(             inertia = ([0.710442, 1.30616, 2.0166

>  <frequency_value>  (5) 
unknown

>  <frequency_units>  (5) 
unknown

>  <frequency_list>  (5) 
unknown

>  <arkane_path>  (5) 
/home/calvin/Dropbox/PersonalFolders/Calvin/HAb_Converged/rxn_99/output/Species/rxn_99_[NH2]/arkane/output.py

>  <path_exists>  (5) 
True

>  <E0_value>  (5) 
-146665.82219964045

>  <E0_units>  (5) 
kJ/mol

>  <thermo_class>  (5) 
NASA

>  <Cp0_value>  (5) 
33.257888

>  <Cp0_units>  (5) 
J/(mol*K)

>  <CpInf_value>  (5) 
58.201304

>  <CpInf_units>  (5) 
J/(mol*K)

>  <Tmin_value>  (5) 
10.0

>  <Tmin_units>  (5) 
K

>  <Tmax_value>  (5) 
3000.0

>  <Tmax_units>  (5) 
K

>  <polynomials>  (5) 
[{"name": "polynomial1", "class": "NASAPolynomial", "Tmin_value": 10.0, "Tmin_units": "K", "Tmax_value": 785.762025652844, "Tmax_units": "K", "coeffs": [4.006150952110655, -0.0003084550413445115, 1.1919167642356156e-06, 1.4835268864917173e-09, -1.3501682773251204e-12, -17639824.212471265, 0.5976393950121619]}, {"name": "polynomial2", "class": "NASAPolynomial", "Tmin_value": 785.762025652844, "Tmin_units": "K", "Tmax_value": 3000.0, "Tmax_units": "K", "coeffs": [3.2706683171239272, 0.0018199930208633956, 2.1290206946552888e-07, -3.0253090271967345e-10, 5.0619779589579903e-14, -17639658.754270043, 4.285961361161453]}]

>  <H298_value>  (5) 
-35051.60272998557

>  <H298_units>  (5) 
kcal/mol

>  <S298_value>  (5) 
46.48569697774424

>  <S298_units>  (5) 
cal/(mol*K)

>  <Cp_T_value_list>  (5) 
[8.048197877278941, 8.214827565402967, 8.447531305278195, 8.735020460220388, 9.397018833396599, 10.038676259975528, 11.356703010007145, 12.225159042044737, 12.643051079877377]

>  <Cp_T_units>  (5) 
cal/(mol*K)

>  <T_list>  (5) 
[300.0, 400.0, 500.0, 600.0, 800.0, 1000.0, 1500.0, 2000.0, 2400.0]

>  <T_units>  (5) 
K

>  <yaml_path>  (5) 
/home/calvin/Dropbox/PersonalFolders/Calvin/HAb_Converged/rxn_99/output/Species/rxn_99_[NH2]/rxn_99_NH2.yml

>  <frequencies_cm1>  (5) 
[1514.64408504708, 3360.6064778135196, 3454.89705324244]

>  <ZPE_kJmol>  (5) 
49.8253618406256

>  <E_elec_kJmol>  (5) 
-146715.64756148108

>  <E0_minus_Eelec_plus_ZPE_kJmol>  (5) 
0.0

>  <rxn>  (5) 
rxn_99

>  <species_type>  (5) 
r0

>  <species_folder>  (5) 
rxn_99_[NH2]

>  <frequencies_cm1_list>  (5) 
[1514.64408504708, 3360.6064778135196, 3454.89705324244]

>  <E0_kJmol>  (5) 
-146666

>  <H298_kJmol>  (5) 
-146656

$$$$
