
     RDKit          3D

 10  9  0  0  0  0  0  0  0  0999 V2000
    0.7490   -0.5591   -1.5939 C   0  0  0  0  0  0  0  0  0  1  0  0
    0.2621   -0.6125   -0.3583 C   0  0  0  0  0  0  0  0  0  2  0  0
   -0.2088    0.5246    0.3957 C   0  0  0  0  0  0  0  0  0  3  0  0
   -0.8000    0.6036    1.5695 C   0  0  0  0  0  0  0  0  0  4  0  0
    0.8257    0.3799   -2.1283 H   0  0  0  0  0  0  0  0  0  5  0  0
    1.0809   -1.4519   -2.1070 H   0  0  0  0  0  0  0  0  0  6  0  0
    0.1995   -1.5766    0.1479 H   0  0  0  0  0  0  0  0  0  7  0  0
   -0.0693    1.5119   -0.0445 H   0  0  0  0  0  0  0  0  0  8  0  0
   -1.0236   -0.2864    2.1567 H   0  0  0  0  0  0  0  0  0  9  0  0
   -1.0946    1.5590    1.9910 H   0  0  0  0  0  0  0  0  0 10  0  0
  1  5  1  0
  1  6  1  0
  1  2  1  0
  2  7  1  0
  2  3  1  0
  3  4  1  0
  3  8  1  0
  4  9  1  0
  4 10  1  0
M  END
>  <rmg_smiles>  (1) 
[CH2][CH][CH][CH2]

>  <rmg_adjacency_list>  (1) 
1  C u0 p0 c0 {2,S} {3,S} {5,S}
2  C u0 p0 c0 {1,S} {4,S} {6,S}
3  C u0 p0 c0 {1,S} {7,S} {8,S}
4  C u0 p0 c0 {2,S} {9,S} {10,S}
5  H u0 p0 c0 {1,S}
6  H u0 p0 c0 {2,S}
7  H u0 p0 c0 {3,S}
8  H u0 p0 c0 {3,S}
9  H u0 p0 c0 {4,S}
10 H u0 p0 c0 {4,S}


>  <multiplicity>  (1) 
1

>  <reaction>  (1) 
rxn_1653

>  <type>  (1) 
r1h

>  <role_mapnums>  (1) 
{"r1h_a": 3, "r1h_h": 8}

>  <role_mapidx>  (1) 
{"r1h_a": 2, "r1h_h": 7}

>  <ordered_mapped_smiles>  (1) 
[CH:1]([CH:2]([CH:3]([CH:4]([H:9])[H:10])[H:8])[H:7])([H:5])[H:6]

>  <mol_properties>  (1) 
{"2": {"label": "donator", "atom_type": "Cs"}, "7": {"label": "d_hydrogen", "atom_type": "H0"}}

>  <level_of_theory>  (1) 
wb97xd/def2tzvp

>  <lot_method>  (1) 
wb97xd

>  <lot_basis>  (1) 
def2tzvp

>  <spin_multiplicity>  (1) 
1.0

>  <optical_isomers>  (1) 
1.0

>  <modes>  (1) 
IdealGasTranslation(mass=(54.047, 'amu')),         NonlinearRotor(             inertia = ([11.9182, 113.061, 124.979

>  <frequency_value>  (1) 
unknown

>  <frequency_units>  (1) 
unknown

>  <frequency_list>  (1) 
unknown

>  <arkane_path>  (1) 
/home/calvin/Dropbox/PersonalFolders/Calvin/HAb_Converged/rxn_1653/output/Species/rxn_1653_C=CC=C/arkane/output.py

>  <path_exists>  (1) 
True

>  <E0_value>  (1) 
-409338.1696024378

>  <E0_units>  (1) 
kJ/mol

>  <thermo_class>  (1) 
NASA

>  <Cp0_value>  (1) 
33.257888

>  <Cp0_units>  (1) 
J/(mol*K)

>  <CpInf_value>  (1) 
232.805216

>  <CpInf_units>  (1) 
J/(mol*K)

>  <Tmin_value>  (1) 
10.0

>  <Tmin_units>  (1) 
K

>  <Tmax_value>  (1) 
3000.0

>  <Tmax_units>  (1) 
K

>  <polynomials>  (1) 
[{"name": "polynomial1", "class": "NASAPolynomial", "Tmin_value": 10.0, "Tmin_units": "K", "Tmax_value": 477.25150837589547, "Tmax_units": "K", "coeffs": [3.9644918263777202, 0.0020596769963902215, 8.674853780374631e-05, -1.450839919461119e-07, 7.838009270341474e-11, -49232008.066253, 7.365433669817705]}, {"name": "polynomial2", "class": "NASAPolynomial", "Tmin_value": 477.25150837589547, "Tmin_units": "K", "Tmax_value": 3000.0, "Tmax_units": "K", "coeffs": [-0.2016346126607574, 0.03684948174336166, -2.2193862153022103e-05, 6.534948821102615e-09, -7.488372760157006e-13, -49231608.95215794, 24.398107945208505]}]

>  <H298_value>  (1) 
-97830.61157155824

>  <H298_units>  (1) 
kcal/mol

>  <S298_value>  (1) 
66.15772377359508

>  <S298_units>  (1) 
cal/(mol*K)

>  <Cp_T_value_list>  (1) 
[18.098233407620363, 22.632858336014493, 26.717409141232952, 30.270647037570512, 35.994368828752485, 40.221251390017414, 46.50234453691136, 49.720054530985024, 51.45868146938158]

>  <Cp_T_units>  (1) 
cal/(mol*K)

>  <T_list>  (1) 
[300.0, 400.0, 500.0, 600.0, 800.0, 1000.0, 1500.0, 2000.0, 2400.0]

>  <T_units>  (1) 
K

>  <yaml_path>  (1) 
/home/calvin/Dropbox/PersonalFolders/Calvin/HAb_Converged/rxn_1653/output/Species/rxn_1653_C=CC=C/rxn_1653_C=CC=C.yml

>  <frequencies_cm1>  (1) 
[162.86429083444, 299.37995899604, 518.85567680856, 535.67292385724, 782.5273121405999, 895.6128263903599, 951.29034336492, 952.5882035904, 1000.9317802431998, 1006.4047675432399, 1052.23502756892, 1221.82209703164, 1311.4568564135998, 1314.3066553213998, 1409.56547568044, 1464.2884816955202, 1663.07397273888, 1726.1678338590398, 3116.4851496875194, 3119.6920318319594, 3127.2663166399198, 3132.3341518060793, 3211.3044829860796, 3211.503625560359]

>  <ZPE_kJmol>  (1) 
222.43148839891296

>  <E_elec_kJmol>  (1) 
-409560.6010908368

>  <E0_minus_Eelec_plus_ZPE_kJmol>  (1) 
0.0

>  <rxn>  (1) 
rxn_1653

>  <species_type>  (1) 
r0

>  <species_folder>  (1) 
rxn_1653_C=CC=C

>  <frequencies_cm1_list>  (1) 
[162.86429083444, 299.37995899604, 518.85567680856, 535.67292385724, 782.5273121405999, 895.6128263903599, 951.29034336492, 952.5882035904, 1000.9317802431998, 1006.4047675432399, 1052.23502756892, 1221.82209703164, 1311.4568564135998, 1314.3066553213998, 1409.56547568044, 1464.2884816955202, 1663.07397273888, 1726.1678338590398, 3116.4851496875194, 3119.6920318319594, 3127.2663166399198, 3132.3341518060793, 3211.3044829860796, 3211.503625560359]

>  <E0_kJmol>  (1) 
-409338

>  <H298_kJmol>  (1) 
-409323

$$$$

     RDKit          3D

 15 14  0  0  0  0  0  0  0  0999 V2000
    0.1976   -1.5134    0.2410 H   0  0  0  0  0  0  0  0  0  1  0  0
   -1.2682    1.0105    1.1648 C   0  0  0  0  0  0  0  0  0  2  0  0
   -0.1261    0.3472    1.0116 C   0  0  0  0  0  0  0  0  0  3  0  0
    0.2663   -0.4953   -0.1423 C   0  0  0  0  0  0  0  0  0  4  0  0
    1.7281   -0.3231   -0.5196 C   0  0  0  0  0  0  0  0  0  5  0  0
   -0.6731   -0.4670   -1.3294 C   0  0  0  0  0  0  0  0  0  6  0  0
   -1.4617    1.5865    2.0607 H   0  0  0  0  0  0  0  0  0  7  0  0
   -2.0429    1.0104    0.4077 H   0  0  0  0  0  0  0  0  0  8  0  0
    0.6098    0.3965    1.8113 H   0  0  0  0  0  0  0  0  0  9  0  0
    2.0322   -1.0597   -1.2653 H   0  0  0  0  0  0  0  0  0 10  0  0
    1.9037    0.6715   -0.9406 H   0  0  0  0  0  0  0  0  0 11  0  0
    2.3767   -0.4394    0.3506 H   0  0  0  0  0  0  0  0  0 12  0  0
   -0.7215    0.5346   -1.7673 H   0  0  0  0  0  0  0  0  0 13  0  0
   -1.6842   -0.7637   -1.0466 H   0  0  0  0  0  0  0  0  0 14  0  0
   -0.3313   -1.1548   -2.1047 H   0  0  0  0  0  0  0  0  0 15  0  0
  1  4  1  0
  2  8  1  0
  2  7  1  0
  2  3  1  0
  3  4  1  0
  3  9  1  0
  4  5  1  0
  4  6  1  0
  5 11  1  0
  5 12  1  0
  5 10  1  0
  6 15  1  0
  6 14  1  0
  6 13  1  0
M  END
>  <rmg_smiles>  (2) 
[CH2][CH]C(C)C

>  <rmg_adjacency_list>  (2) 
1  C u0 p0 c0 {2,S} {3,S} {4,S} {6,S}
2  C u0 p0 c0 {1,S} {7,S} {8,S} {9,S}
3  C u0 p0 c0 {1,S} {10,S} {11,S} {12,S}
4  C u0 p0 c0 {1,S} {5,S} {13,S}
5  C u0 p0 c0 {4,S} {14,S} {15,S}
6  H u0 p0 c0 {1,S}
7  H u0 p0 c0 {2,S}
8  H u0 p0 c0 {2,S}
9  H u0 p0 c0 {2,S}
10 H u0 p0 c0 {3,S}
11 H u0 p0 c0 {3,S}
12 H u0 p0 c0 {3,S}
13 H u0 p0 c0 {4,S}
14 H u0 p0 c0 {5,S}
15 H u0 p0 c0 {5,S}


>  <multiplicity>  (2) 
1

>  <reaction>  (2) 
rxn_1653

>  <type>  (2) 
r2h

>  <role_mapnums>  (2) 
{"r2h_a": 4, "r2h_h": 1}

>  <role_mapidx>  (2) 
{"r2h_a": 3, "r2h_h": 0}

>  <ordered_mapped_smiles>  (2) 
[H:1][C:4]([CH:3]([CH:2]([H:7])[H:8])[H:9])([C:5]([H:10])([H:11])[H:12])[C:6]([H:13])([H:14])[H:15]

>  <mol_properties>  (2) 
{"0": {"label": "a_hydrogen", "atom_type": "H0"}, "3": {"label": "acceptor", "atom_type": "Cs"}}

>  <level_of_theory>  (2) 
wb97xd/def2tzvp

>  <lot_method>  (2) 
wb97xd

>  <lot_basis>  (2) 
def2tzvp

>  <spin_multiplicity>  (2) 
1.0

>  <optical_isomers>  (2) 
1.0

>  <modes>  (2) 
IdealGasTranslation(mass=(70.0782, 'amu')),         NonlinearRotor(             inertia = ([66.6608, 141.472, 183.078

>  <frequency_value>  (2) 
unknown

>  <frequency_units>  (2) 
unknown

>  <frequency_list>  (2) 
unknown

>  <arkane_path>  (2) 
/home/calvin/Dropbox/PersonalFolders/Calvin/HAb_Converged/rxn_1653/output/Species/rxn_1653_C=CC[C]C/arkane/output.py

>  <path_exists>  (2) 
True

>  <E0_value>  (2) 
-515673.38052477705

>  <E0_units>  (2) 
kJ/mol

>  <thermo_class>  (2) 
NASA

>  <Cp0_value>  (2) 
33.257888

>  <Cp0_units>  (2) 
J/(mol*K)

>  <CpInf_value>  (2) 
357.522296

>  <CpInf_units>  (2) 
J/(mol*K)

>  <Tmin_value>  (2) 
10.0

>  <Tmin_units>  (2) 
K

>  <Tmax_value>  (2) 
3000.0

>  <Tmax_units>  (2) 
K

>  <polynomials>  (2) 
[{"name": "polynomial1", "class": "NASAPolynomial", "Tmin_value": 10.0, "Tmin_units": "K", "Tmax_value": 771.9142943776243, "Tmax_units": "K", "coeffs": [3.779458831960257, 0.020018734993344757, 5.732000924414448e-05, -8.642208919280512e-08, 3.603052216308801e-11, -62021180.35978402, 9.742915927956899]}, {"name": "polynomial2", "class": "NASAPolynomial", "Tmin_value": 771.9142943776243, "Tmin_units": "K", "Tmax_value": 3000.0, "Tmax_units": "K", "coeffs": [-0.3478948834965036, 0.05301654054790977, -2.9363158728726394e-05, 7.927167712612882e-09, -8.370007264752279e-13, -62020889.064341925, 26.345999473910833]}]

>  <H298_value>  (2) 
-123244.18843001623

>  <H298_units>  (2) 
kcal/mol

>  <S298_value>  (2) 
77.68833091262955

>  <S298_units>  (2) 
cal/(mol*K)

>  <Cp_T_value_list>  (2) 
[25.639596007404617, 32.489876341134234, 38.88560738045824, 44.569638849609326, 53.63229961607037, 60.40244107425912, 70.79757735881338, 76.02631058064169, 78.64468950836424]

>  <Cp_T_units>  (2) 
cal/(mol*K)

>  <T_list>  (2) 
[300.0, 400.0, 500.0, 600.0, 800.0, 1000.0, 1500.0, 2000.0, 2400.0]

>  <T_units>  (2) 
K

>  <yaml_path>  (2) 
/home/calvin/Dropbox/PersonalFolders/Calvin/HAb_Converged/rxn_1653/output/Species/rxn_1653_C=CC[C]C/rxn_1653_C=CCCC.yml

>  <frequencies_cm1>  (2) 
[94.05023094271999, 222.95727936976, 245.1857108506, 315.11222236416, 324.16290901592, 348.98019396239994, 507.51141705991995, 698.37927402932, 806.58236171656, 930.133161594, 937.87912103496, 953.39850785816, 966.50071584872, 1002.9300729713199, 1033.8109059553599, 1124.0362260748398, 1181.8493754839199, 1216.6581240709997, 1311.4499894282799, 1330.73248420684, 1336.23980643348, 1388.2022843499199, 1406.6264059634798, 1448.4326125916398, 1473.6344487160397, 1475.715145268, 1487.5263600183998, 1497.1744743929999, 1715.9428927175597, 3004.91037220816, 3007.1696103784398, 3014.14646746356, 3074.26005695484, 3079.52703469528, 3091.4275202548397, 3093.20606945272, 3095.44470666704, 3114.5280588713204, 3199.45893330908]

>  <ZPE_kJmol>  (2) 
356.22333310819664

>  <E_elec_kJmol>  (2) 
-516029.6038578852

>  <E0_minus_Eelec_plus_ZPE_kJmol>  (2) 
0.0

>  <rxn>  (2) 
rxn_1653

>  <species_type>  (2) 
p0

>  <species_folder>  (2) 
rxn_1653_C=CC[C]C

>  <frequencies_cm1_list>  (2) 
[94.05023094271999, 222.95727936976, 245.1857108506, 315.11222236416, 324.16290901592, 348.98019396239994, 507.51141705991995, 698.37927402932, 806.58236171656, 930.133161594, 937.87912103496, 953.39850785816, 966.50071584872, 1002.9300729713199, 1033.8109059553599, 1124.0362260748398, 1181.8493754839199, 1216.6581240709997, 1311.4499894282799, 1330.73248420684, 1336.23980643348, 1388.2022843499199, 1406.6264059634798, 1448.4326125916398, 1473.6344487160397, 1475.715145268, 1487.5263600183998, 1497.1744743929999, 1715.9428927175597, 3004.91037220816, 3007.1696103784398, 3014.14646746356, 3074.26005695484, 3079.52703469528, 3091.4275202548397, 3093.20606945272, 3095.44470666704, 3114.5280588713204, 3199.45893330908]

>  <E0_kJmol>  (2) 
-515673

>  <H298_kJmol>  (2) 
-515654

$$$$

     RDKit          3D

 24 22  0  0  0  0  0  0  0  0999 V2000
    0.9117   -2.5743   -1.2841 C   0  0  0  0  0  0  0  0  0  1  0  0
    0.4249   -2.6277   -0.0484 C   0  0  0  0  0  0  0  0  0  2  0  0
   -0.0460   -1.4907    0.7055 C   0  0  0  0  0  3  0  0  0  3  0  0
   -0.6372   -1.4116    1.8794 C   0  0  0  0  0  0  0  0  0  4  0  0
    0.9885   -1.6354   -1.8184 H   0  0  0  0  0  0  0  0  0  5  0  0
    1.2436   -3.4672   -1.7972 H   0  0  0  0  0  0  0  0  0  6  0  0
    0.3622   -3.5918    0.4577 H   0  0  0  0  0  0  0  0  0  7  0  0
    0.1474   -0.1221    0.0954 H   0  0  0  0  0  0  0  0  0  8  0  0
   -0.8608   -2.3016    2.4666 H   0  0  0  0  0  0  0  0  0  9  0  0
   -0.9318   -0.4562    2.3008 H   0  0  0  0  0  0  0  0  0 10  0  0
   -1.3096    2.5314    0.9703 C   0  0  0  0  0  0  0  0  0 11  0  0
   -0.1676    1.8681    0.8171 C   0  0  0  0  0  0  0  0  0 12  0  0
    0.2248    1.0256   -0.3367 C   0  0  0  0  0  0  0  0  0 13  0  0
    1.6867    1.1979   -0.7141 C   0  0  0  0  0  0  0  0  0 14  0  0
   -0.7146    1.0539   -1.5239 C   0  0  0  0  0  0  0  0  0 15  0  0
   -1.5032    3.1074    1.8662 H   0  0  0  0  0  0  0  0  0 16  0  0
   -2.0843    2.5313    0.2133 H   0  0  0  0  0  0  0  0  0 17  0  0
    0.5684    1.9174    1.6168 H   0  0  0  0  0  0  0  0  0 18  0  0
    1.9908    0.4613   -1.4598 H   0  0  0  0  0  0  0  0  0 19  0  0
    1.8623    2.1924   -1.1350 H   0  0  0  0  0  0  0  0  0 20  0  0
    2.3353    1.0815    0.1561 H   0  0  0  0  0  0  0  0  0 21  0  0
   -0.7630    2.0555   -1.9618 H   0  0  0  0  0  0  0  0  0 22  0  0
   -1.7256    0.7572   -1.2411 H   0  0  0  0  0  0  0  0  0 23  0  0
   -0.3727    0.3662   -2.2992 H   0  0  0  0  0  0  0  0  0 24  0  0
  1  5  1  0
  1  6  1  0
  1  2  1  0
  2  3  1  0
  2  7  1  0
  3  4  1  0
  4 10  1  0
  4  9  1  0
  8 13  1  0
 11 17  1  0
 11 12  1  0
 11 16  1  0
 12 18  1  0
 12 13  1  0
 13 15  1  0
 13 14  1  0
 14 19  1  0
 14 20  1  0
 14 21  1  0
 15 23  1  0
 15 22  1  0
 15 24  1  0
M  RAD  1   3   2
M  END
>  <rmg_smiles>  (3) 
[CH2][CH]C(C)C.[CH2][C][CH][CH2]

>  <rmg_adjacency_list>  (3) 
multiplicity 2
1  C u0 p0 c0 {2,S} {3,S} {4,S} {10,S}
2  C u0 p0 c0 {1,S} {11,S} {12,S} {13,S}
3  C u0 p0 c0 {1,S} {14,S} {15,S} {16,S}
4  C u0 p0 c0 {1,S} {6,S} {17,S}
5  C u0 p0 c0 {7,S} {9,S} {18,S}
6  C u0 p0 c0 {4,S} {21,S} {22,S}
7  C u0 p0 c0 {5,S} {19,S} {20,S}
8  C u0 p0 c0 {9,S} {23,S} {24,S}
9  C u1 p1 c0 {5,S} {8,S}
10 H u0 p0 c0 {1,S}
11 H u0 p0 c0 {2,S}
12 H u0 p0 c0 {2,S}
13 H u0 p0 c0 {2,S}
14 H u0 p0 c0 {3,S}
15 H u0 p0 c0 {3,S}
16 H u0 p0 c0 {3,S}
17 H u0 p0 c0 {4,S}
18 H u0 p0 c0 {5,S}
19 H u0 p0 c0 {7,S}
20 H u0 p0 c0 {7,S}
21 H u0 p0 c0 {6,S}
22 H u0 p0 c0 {6,S}
23 H u0 p0 c0 {8,S}
24 H u0 p0 c0 {8,S}


>  <multiplicity>  (3) 
2

>  <reaction>  (3) 
rxn_1653

>  <type>  (3) 
ts

>  <role_mapnums>  (3) 
{"*2": 8, "*1": 13, "*3": 3, "*0": 12, "*4": 2}

>  <role_mapidx>  (3) 
{"*2": 7, "*1": 12, "*3": 2, "*0": 11, "*4": 1}

>  <ordered_mapped_smiles>  (3) 
[CH:1]([CH:2]([CH:3][CH:4]([H:9])[H:10])[H:7])([H:5])[H:6].[H:8][C:13]([CH:12]([CH:11]([H:16])[H:17])[H:18])([C:14]([H:19])([H:20])[H:21])[C:15]([H:22])([H:23])[H:24]

>  <mol_properties>  (3) 
{"1": {"label": "*4", "atom_type": "Cs"}, "2": {"label": "*3", "atom_type": "C2s"}, "7": {"label": "*2", "atom_type": "H0"}, "11": {"label": "*0", "atom_type": "Cs"}, "12": {"label": "*1", "atom_type": "Cs"}}

>  <level_of_theory>  (3) 
wb97xd/def2tzvp

>  <lot_method>  (3) 
wb97xd

>  <lot_basis>  (3) 
def2tzvp

>  <spin_multiplicity>  (3) 
2.0

>  <optical_isomers>  (3) 
2.0

>  <modes>  (3) 
IdealGasTranslation(mass=(123.117, 'amu')),         NonlinearRotor(             inertia = ([254.028, 515.888, 644.83

>  <frequency_value>  (3) 
-1183.63

>  <frequency_units>  (3) 
cm^-1

>  <frequency_list>  (3) 
unknown

>  <arkane_path>  (3) 
/home/calvin/Dropbox/PersonalFolders/Calvin/HAb_Converged/rxn_1653/output/rxns/TS0/arkane/output.py

>  <path_exists>  (3) 
True

>  <E0_value>  (3) 
-923242.0

>  <E0_units>  (3) 
kJ/mol

>  <thermo_class>  (3) 
unknown

>  <Cp0_value>  (3) 
unknown

>  <Cp0_units>  (3) 
unknown

>  <CpInf_value>  (3) 
unknown

>  <CpInf_units>  (3) 
unknown

>  <Tmin_value>  (3) 
unknown

>  <Tmin_units>  (3) 
unknown

>  <Tmax_value>  (3) 
unknown

>  <Tmax_units>  (3) 
unknown

>  <polynomials>  (3) 
unknown

>  <H298_value>  (3) 
unknown

>  <H298_units>  (3) 
unknown

>  <S298_value>  (3) 
unknown

>  <S298_units>  (3) 
unknown

>  <Cp_T_value_list>  (3) 
unknown

>  <Cp_T_units>  (3) 
unknown

>  <T_list>  (3) 
unknown

>  <T_units>  (3) 
unknown

>  <yaml_path>  (3) 
unknown

>  <frequencies_cm1>  (3) 
unknown

>  <ZPE_kJmol>  (3) 
unknown

>  <E_elec_kJmol>  (3) 
unknown

>  <E0_minus_Eelec_plus_ZPE_kJmol>  (3) 
unknown

>  <rxn>  (3) 
unknown

>  <species_type>  (3) 
unknown

>  <species_folder>  (3) 
unknown

>  <frequencies_cm1_list>  (3) 
[]

>  <ts_imag_freq_cm1>  (3) 
-1198.0022

>  <ts_freq_out_path>  (3) 
/home/calvin/Dropbox/PersonalFolders/Calvin/HAb_Converged/rxn_1653/output/rxns/TS0/geometry/freq.out

>  <E0_kJmol>  (3) 
-923242

>  <H298_kJmol>  (3) 
unknown

$$$$

     RDKit          3D

  9  8  0  0  0  0  0  0  0  0999 V2000
    1.8963   -0.1405   -0.2150 C   0  0  0  0  0  0  0  0  0  1  0  0
    0.6340    0.1486   -0.2254 C   0  0  0  0  0  3  0  0  0  2  0  0
   -0.6770    0.4501   -0.2373 C   0  0  0  0  0  0  0  0  0  3  0  0
   -1.6600   -0.2303    0.4662 C   0  0  0  0  0  0  0  0  0  4  0  0
    2.3274   -0.8354   -0.9313 H   0  0  0  0  0  0  0  0  0  5  0  0
    2.5751    0.2988    0.5117 H   0  0  0  0  0  0  0  0  0  6  0  0
   -0.9723    1.2966   -0.8520 H   0  0  0  0  0  0  0  0  0  7  0  0
   -2.6934    0.0777    0.4015 H   0  0  0  0  0  0  0  0  0  8  0  0
   -1.4140   -1.0782    1.0904 H   0  0  0  0  0  0  0  0  0  9  0  0
  1  5  1  0
  1  6  1  0
  1  2  1  0
  2  3  1  0
  3  4  1  0
  3  7  1  0
  4  8  1  0
  4  9  1  0
M  RAD  1   2   2
M  END
>  <rmg_smiles>  (4) 
[CH2][C][CH][CH2]

>  <rmg_adjacency_list>  (4) 
multiplicity 2
1 C u0 p0 c0 {2,S} {4,S} {5,S}
2 C u0 p0 c0 {1,S} {6,S} {7,S}
3 C u0 p0 c0 {4,S} {8,S} {9,S}
4 C u1 p1 c0 {1,S} {3,S}
5 H u0 p0 c0 {1,S}
6 H u0 p0 c0 {2,S}
7 H u0 p0 c0 {2,S}
8 H u0 p0 c0 {3,S}
9 H u0 p0 c0 {3,S}


>  <multiplicity>  (4) 
2

>  <reaction>  (4) 
rxn_1653

>  <type>  (4) 
r1

>  <role_mapnums>  (4) 
{}

>  <role_mapidx>  (4) 
{}

>  <ordered_mapped_smiles>  (4) 
[CH:1]([CH:2][CH:3]([CH:4]([H:8])[H:9])[H:7])([H:5])[H:6]

>  <level_of_theory>  (4) 
wb97xd/def2tzvp

>  <lot_method>  (4) 
wb97xd

>  <lot_basis>  (4) 
def2tzvp

>  <spin_multiplicity>  (4) 
2.0

>  <optical_isomers>  (4) 
1.0

>  <modes>  (4) 
IdealGasTranslation(mass=(53.0391, 'amu')),         NonlinearRotor(             inertia = ([12.0347, 113.266, 121.844

>  <frequency_value>  (4) 
unknown

>  <frequency_units>  (4) 
unknown

>  <frequency_list>  (4) 
unknown

>  <arkane_path>  (4) 
/home/calvin/Dropbox/PersonalFolders/Calvin/HAb_Converged/rxn_1653/output/Species/rxn_1653_C=[C]C=C/arkane/output.py

>  <path_exists>  (4) 
True

>  <E0_value>  (4) 
-407618.73102202936

>  <E0_units>  (4) 
kJ/mol

>  <thermo_class>  (4) 
NASA

>  <Cp0_value>  (4) 
33.257888

>  <Cp0_units>  (4) 
J/(mol*K)

>  <CpInf_value>  (4) 
207.8618

>  <CpInf_units>  (4) 
J/(mol*K)

>  <Tmin_value>  (4) 
10.0

>  <Tmin_units>  (4) 
K

>  <Tmax_value>  (4) 
3000.0

>  <Tmax_units>  (4) 
K

>  <polynomials>  (4) 
[{"name": "polynomial1", "class": "NASAPolynomial", "Tmin_value": 10.0, "Tmin_units": "K", "Tmax_value": 513.96992949071, "Tmax_units": "K", "coeffs": [3.9420802999541826, 0.0035685760014192327, 9.465791812405604e-05, -1.8686526671215408e-07, 1.1507173469765572e-10, -49025207.15718319, 8.65621190884103]}, {"name": "polynomial2", "class": "NASAPolynomial", "Tmin_value": 513.96992949071, "Tmin_units": "K", "Tmax_value": 3000.0, "Tmax_units": "K", "coeffs": [2.0283894812979866, 0.030453216730392172, -1.8799715383868938e-05, 5.69276117666148e-09, -6.699501956082314e-13, -49025168.8245439, 15.074146021629948]}]

>  <H298_value>  (4) 
-97419.52636783152

>  <H298_units>  (4) 
kcal/mol

>  <S298_value>  (4) 
69.47182773714773

>  <S298_units>  (4) 
cal/(mol*K)

>  <Cp_T_value_list>  (4) 
[18.71667250989835, 22.85533281432161, 26.28015598227693, 29.162718122858536, 33.78137212963757, 37.17010503303923, 42.188992301862434, 44.829088783976054, 46.30020231473576]

>  <Cp_T_units>  (4) 
cal/(mol*K)

>  <T_list>  (4) 
[300.0, 400.0, 500.0, 600.0, 800.0, 1000.0, 1500.0, 2000.0, 2400.0]

>  <T_units>  (4) 
K

>  <yaml_path>  (4) 
/home/calvin/Dropbox/PersonalFolders/Calvin/HAb_Converged/rxn_1653/output/Species/rxn_1653_C=[C]C=C/rxn_1653_C=CC=C.yml

>  <frequencies_cm1>  (4) 
[209.82760343791998, 213.04821955299997, 498.83154761543994, 525.2763080827599, 574.87654304912, 748.94088694048, 893.75874035396, 905.4944182658398, 936.5057239709599, 975.15311735192, 1080.3828003955998, 1184.87084902472, 1365.78157728012, 1440.54244645896, 1485.45939743708, 1902.75236136284, 3071.21111547276, 3118.0645563111198, 3138.67237925644, 3141.51531117892, 3241.1690021427603]

>  <ZPE_kJmol>  (4) 
183.34053407098105

>  <E_elec_kJmol>  (4) 
-407802.07155610033

>  <E0_minus_Eelec_plus_ZPE_kJmol>  (4) 
0.0

>  <rxn>  (4) 
rxn_1653

>  <species_type>  (4) 
p1

>  <species_folder>  (4) 
rxn_1653_C=[C]C=C

>  <frequencies_cm1_list>  (4) 
[209.82760343791998, 213.04821955299997, 498.83154761543994, 525.2763080827599, 574.87654304912, 748.94088694048, 893.75874035396, 905.4944182658398, 936.5057239709599, 975.15311735192, 1080.3828003955998, 1184.87084902472, 1365.78157728012, 1440.54244645896, 1485.45939743708, 1902.75236136284, 3071.21111547276, 3118.0645563111198, 3138.67237925644, 3141.51531117892, 3241.1690021427603]

>  <E0_kJmol>  (4) 
-407619

>  <H298_kJmol>  (4) 
-407603

$$$$

     RDKit          3D

 14 13  0  0  0  0  0  0  0  0999 V2000
    1.0767   -1.6838    1.2931 C   0  0  0  0  0  0  0  0  0  1  0  0
    1.0020   -0.3665    0.9163 C   0  0  0  0  0  0  0  0  0  2  0  0
    1.3965    0.7260    1.6806 C   0  0  0  0  0  3  0  0  0  3  0  0
    1.2666    2.1197    1.1619 C   0  0  0  0  0  0  0  0  0  4  0  0
    1.9670    0.5479    3.0536 C   0  0  0  0  0  0  0  0  0  5  0  0
    0.7448   -2.4705    0.6300 H   0  0  0  0  0  0  0  0  0  6  0  0
    1.4663   -1.9826    2.2578 H   0  0  0  0  0  0  0  0  0  7  0  0
    0.5980   -0.1511   -0.0695 H   0  0  0  0  0  0  0  0  0  8  0  0
    0.6296    2.7241    1.8172 H   0  0  0  0  0  0  0  0  0  9  0  0
    2.2410    2.6200    1.1341 H   0  0  0  0  0  0  0  0  0 10  0  0
    0.8426    2.1448    0.1579 H   0  0  0  0  0  0  0  0  0 11  0  0
    2.8745   -0.0634    3.0328 H   0  0  0  0  0  0  0  0  0 12  0  0
    1.2599    0.0408    3.7173 H   0  0  0  0  0  0  0  0  0 13  0  0
    2.2205    1.5071    3.5054 H   0  0  0  0  0  0  0  0  0 14  0  0
  1  7  1  0
  1  6  1  0
  1  2  1  0
  2  8  1  0
  2  3  1  0
  3  4  1  0
  3  5  1  0
  4  9  1  0
  4 10  1  0
  4 11  1  0
  5 12  1  0
  5 14  1  0
  5 13  1  0
M  RAD  1   3   2
M  END
>  <rmg_smiles>  (5) 
[CH2][CH][C](C)C

>  <rmg_adjacency_list>  (5) 
multiplicity 2
1  C u0 p0 c0 {3,S} {6,S} {7,S} {8,S}
2  C u0 p0 c0 {3,S} {9,S} {10,S} {11,S}
3  C u1 p0 c0 {1,S} {2,S} {4,S}
4  C u0 p0 c0 {3,S} {5,S} {12,S}
5  C u0 p0 c0 {4,S} {13,S} {14,S}
6  H u0 p0 c0 {1,S}
7  H u0 p0 c0 {1,S}
8  H u0 p0 c0 {1,S}
9  H u0 p0 c0 {2,S}
10 H u0 p0 c0 {2,S}
11 H u0 p0 c0 {2,S}
12 H u0 p0 c0 {4,S}
13 H u0 p0 c0 {5,S}
14 H u0 p0 c0 {5,S}


>  <multiplicity>  (5) 
2

>  <reaction>  (5) 
rxn_1653

>  <type>  (5) 
r2

>  <role_mapnums>  (5) 
{}

>  <role_mapidx>  (5) 
{}

>  <ordered_mapped_smiles>  (5) 
[CH:1]([CH:2]([C:3]([C:4]([H:9])([H:10])[H:11])[C:5]([H:12])([H:13])[H:14])[H:8])([H:6])[H:7]

>  <level_of_theory>  (5) 
wb97xd/def2tzvp

>  <lot_method>  (5) 
wb97xd

>  <lot_basis>  (5) 
def2tzvp

>  <spin_multiplicity>  (5) 
2.0

>  <optical_isomers>  (5) 
1.0

>  <modes>  (5) 
IdealGasTranslation(mass=(69.0704, 'amu')),         NonlinearRotor(             inertia = ([61.3549, 130.413, 185.559

>  <frequency_value>  (5) 
unknown

>  <frequency_units>  (5) 
unknown

>  <frequency_list>  (5) 
unknown

>  <arkane_path>  (5) 
/home/calvin/Dropbox/PersonalFolders/Calvin/HAb_Converged/rxn_1653/output/Species/rxn_1653_C=C[C][C]C/arkane/output.py

>  <path_exists>  (5) 
True

>  <E0_value>  (5) 
-514025.9755079239

>  <E0_units>  (5) 
kJ/mol

>  <thermo_class>  (5) 
NASA

>  <Cp0_value>  (5) 
33.257888

>  <Cp0_units>  (5) 
J/(mol*K)

>  <CpInf_value>  (5) 
332.57888

>  <CpInf_units>  (5) 
J/(mol*K)

>  <Tmin_value>  (5) 
10.0

>  <Tmin_units>  (5) 
K

>  <Tmax_value>  (5) 
3000.0

>  <Tmax_units>  (5) 
K

>  <polynomials>  (5) 
[{"name": "polynomial1", "class": "NASAPolynomial", "Tmin_value": 10.0, "Tmin_units": "K", "Tmax_value": 869.6920679830255, "Tmax_units": "K", "coeffs": [3.7251534266099315, 0.026124983740037182, 2.9283649756322525e-05, -5.054120287970429e-08, 2.023244225001157e-11, -61823043.86817725, 10.74219344334208]}, {"name": "polynomial2", "class": "NASAPolynomial", "Tmin_value": 869.6920679830255, "Tmin_units": "K", "Tmax_value": 3000.0, "Tmax_units": "K", "coeffs": [2.049387595722733, 0.04566272803591952, -2.48184133745368e-05, 6.572064258076298e-09, -6.813784120606917e-13, -61823199.79068455, 16.020641566778316]}]

>  <H298_value>  (5) 
-122850.30931833542

>  <H298_units>  (5) 
kcal/mol

>  <S298_value>  (5) 
80.76860453620434

>  <S298_units>  (5) 
cal/(mol*K)

>  <Cp_T_value_list>  (5) 
[25.828611832321002, 32.0811525837059, 37.867084343079156, 43.01801750917861, 51.22380214574075, 57.20052316456338, 66.43884769284972, 71.0936035426273, 73.39069523043335]

>  <Cp_T_units>  (5) 
cal/(mol*K)

>  <T_list>  (5) 
[300.0, 400.0, 500.0, 600.0, 800.0, 1000.0, 1500.0, 2000.0, 2400.0]

>  <T_units>  (5) 
K

>  <yaml_path>  (5) 
/home/calvin/Dropbox/PersonalFolders/Calvin/HAb_Converged/rxn_1653/output/Species/rxn_1653_C=C[C][C]C/rxn_1653_C=CCCC.yml

>  <frequencies_cm1>  (5) 
[55.11442417832, 159.33466037996, 226.55557967744, 278.64853031495994, 356.053188842, 383.12971195875997, 537.2797984221199, 582.97958572672, 765.24311009016, 793.8921728451999, 933.2782408705599, 980.1316817089199, 985.8381465098398, 986.5797809243999, 1056.26594795176, 1065.45397430992, 1225.2624566769598, 1249.45484595932, 1354.32057878104, 1397.4040446787199, 1400.8306703534, 1443.5021171318801, 1461.08159955108, 1469.6378632598, 1480.13061682876, 1493.1229530541998, 1520.0758704352, 2982.7506105805196, 2995.00817937672, 3028.9585547987995, 3046.0710822162396, 3091.5030570933595, 3094.47646173692, 3117.3709907937996, 3132.2036790849997, 3223.1775006043595]

>  <ZPE_kJmol>  (5) 
319.1166494835046

>  <E_elec_kJmol>  (5) 
-514345.0921574074

>  <E0_minus_Eelec_plus_ZPE_kJmol>  (5) 
0.0

>  <rxn>  (5) 
rxn_1653

>  <species_type>  (5) 
r1

>  <species_folder>  (5) 
rxn_1653_C=C[C][C]C

>  <frequencies_cm1_list>  (5) 
[55.11442417832, 159.33466037996, 226.55557967744, 278.64853031495994, 356.053188842, 383.12971195875997, 537.2797984221199, 582.97958572672, 765.24311009016, 793.8921728451999, 933.2782408705599, 980.1316817089199, 985.8381465098398, 986.5797809243999, 1056.26594795176, 1065.45397430992, 1225.2624566769598, 1249.45484595932, 1354.32057878104, 1397.4040446787199, 1400.8306703534, 1443.5021171318801, 1461.08159955108, 1469.6378632598, 1480.13061682876, 1493.1229530541998, 1520.0758704352, 2982.7506105805196, 2995.00817937672, 3028.9585547987995, 3046.0710822162396, 3091.5030570933595, 3094.47646173692, 3117.3709907937996, 3132.2036790849997, 3223.1775006043595]

>  <E0_kJmol>  (5) 
-514026

>  <H298_kJmol>  (5) 
-514006

$$$$
