
     RDKit          3D

  4  3  0  0  0  0  0  0  0  0999 V2000
   -0.0035    0.0126    0.5892 C   0  0  0  0  0  0  0  0  0  1  0  0
    0.0033   -0.0207   -0.5954 O   0  0  0  0  0  0  0  0  0  2  0  0
    0.0124    0.9746    1.1491 H   0  0  0  0  0  0  0  0  0  3  0  0
   -0.0259   -0.9033    1.2217 H   0  0  0  0  0  0  0  0  0  4  0  0
  1  3  1  0
  1  2  1  0
  1  4  1  0
M  END
>  <rmg_smiles>  (1) 
[CH2]O

>  <rmg_adjacency_list>  (1) 
1 O u0 p2 c0 {2,S}
2 C u0 p0 c0 {1,S} {3,S} {4,S}
3 H u0 p0 c0 {2,S}
4 H u0 p0 c0 {2,S}


>  <multiplicity>  (1) 
1

>  <reaction>  (1) 
rxn_365

>  <type>  (1) 
r1h

>  <role_mapnums>  (1) 
{"r1h_a": 1, "r1h_h": 3}

>  <role_mapidx>  (1) 
{"r1h_a": 0, "r1h_h": 2}

>  <ordered_mapped_smiles>  (1) 
[CH:1]([OH:2])([H:3])[H:4]

>  <mol_properties>  (1) 
{"0": {"label": "donator", "atom_type": "Cs"}, "2": {"label": "d_hydrogen", "atom_type": "H0"}}

>  <level_of_theory>  (1) 
wb97xd/def2tzvp

>  <lot_method>  (1) 
wb97xd

>  <lot_basis>  (1) 
def2tzvp

>  <spin_multiplicity>  (1) 
1.0

>  <optical_isomers>  (1) 
1.0

>  <modes>  (1) 
IdealGasTranslation(mass=(30.0106, 'amu')),         NonlinearRotor(             inertia = ([1.77806, 12.8193, 14.5973

>  <frequency_value>  (1) 
unknown

>  <frequency_units>  (1) 
unknown

>  <frequency_list>  (1) 
unknown

>  <arkane_path>  (1) 
/home/calvin/Dropbox/PersonalFolders/Calvin/HAb_Converged/rxn_365/output/Species/rxn_365_C=O/arkane/output.py

>  <path_exists>  (1) 
True

>  <E0_value>  (1) 
-300581.8492768013

>  <E0_units>  (1) 
kJ/mol

>  <thermo_class>  (1) 
NASA

>  <Cp0_value>  (1) 
33.257888

>  <Cp0_units>  (1) 
J/(mol*K)

>  <CpInf_value>  (1) 
83.14472

>  <CpInf_units>  (1) 
J/(mol*K)

>  <Tmin_value>  (1) 
10.0

>  <Tmin_units>  (1) 
K

>  <Tmax_value>  (1) 
3000.0

>  <Tmax_units>  (1) 
K

>  <polynomials>  (1) 
[{"name": "polynomial1", "class": "NASAPolynomial", "Tmin_value": 10.0, "Tmin_units": "K", "Tmax_value": 596.0202313099187, "Tmax_units": "K", "coeffs": [4.032085905965299, -0.0019550574143172394, 9.151617581216646e-06, 2.7701203546044124e-09, -7.982780212694088e-12, -36151647.441043995, 3.46612627393656]}, {"name": "polynomial2", "class": "NASAPolynomial", "Tmin_value": 596.0202313099187, "Tmin_units": "K", "Tmax_value": 3000.0, "Tmax_units": "K", "coeffs": [1.4201667765750836, 0.00951800511592072, -4.481463687097219e-06, 9.715072479143586e-10, -7.774645154236121e-14, -36151228.52298982, 15.617883371520154]}]

>  <H298_value>  (1) 
-71838.40974989386

>  <H298_units>  (1) 
kcal/mol

>  <S298_value>  (1) 
52.203392278201385

>  <S298_units>  (1) 
cal/(mol*K)

>  <Cp_T_value_list>  (1) 
[8.503946165987818, 9.314534232957735, 10.313210012164452, 11.361679376485984, 13.179155251059148, 14.606899785394228, 16.88951984115191, 18.000984931991262, 18.48265740351604]

>  <Cp_T_units>  (1) 
cal/(mol*K)

>  <T_list>  (1) 
[300.0, 400.0, 500.0, 600.0, 800.0, 1000.0, 1500.0, 2000.0, 2400.0]

>  <T_units>  (1) 
K

>  <yaml_path>  (1) 
/home/calvin/Dropbox/PersonalFolders/Calvin/HAb_Converged/rxn_365/output/Species/rxn_365_C=O/rxn_365_C=O.yml

>  <frequencies_cm1>  (1) 
[1198.0829287804, 1259.87892967508, 1521.5866072056, 1834.858477504, 2871.3269067782003, 2932.0447909776403]

>  <ZPE_kJmol>  (1) 
69.48976791829953

>  <E_elec_kJmol>  (1) 
-300651.3390447196

>  <E0_minus_Eelec_plus_ZPE_kJmol>  (1) 
0.0

>  <rxn>  (1) 
rxn_365

>  <species_type>  (1) 
r1

>  <species_folder>  (1) 
rxn_365_C=O

>  <frequencies_cm1_list>  (1) 
[1198.0829287804, 1259.87892967508, 1521.5866072056, 1834.858477504, 2871.3269067782003, 2932.0447909776403]

>  <E0_kJmol>  (1) 
-300582

>  <H298_kJmol>  (1) 
-300572

$$$$

     RDKit          3D

  6  5  0  0  0  0  0  0  0  0999 V2000
    0.0056    0.0775   -0.6427 C   0  0  0  0  0  0  0  0  0  1  0  0
   -0.0050   -0.0409    0.6620 C   0  0  0  0  0  0  0  0  0  2  0  0
    0.0273    0.9661   -1.2618 H   0  0  0  0  0  0  0  0  0  3  0  0
    0.0084    0.8276    1.3182 H   0  0  0  0  0  0  0  0  0  4  0  0
   -0.0275   -1.0101    1.1523 H   0  0  0  0  0  0  0  0  0  5  0  0
   -0.0095   -0.8458   -1.2090 H   0  0  0  0  0  0  0  0  0  6  0  0
  1  3  1  0
  1  6  1  0
  1  2  1  0
  2  4  1  0
  2  5  1  0
M  END
>  <rmg_smiles>  (2) 
[CH2][CH2]

>  <rmg_adjacency_list>  (2) 
1 C u0 p0 c0 {2,S} {3,S} {6,S}
2 C u0 p0 c0 {1,S} {4,S} {5,S}
3 H u0 p0 c0 {1,S}
4 H u0 p0 c0 {2,S}
5 H u0 p0 c0 {2,S}
6 H u0 p0 c0 {1,S}


>  <multiplicity>  (2) 
1

>  <reaction>  (2) 
rxn_365

>  <type>  (2) 
r2h

>  <role_mapnums>  (2) 
{"r2h_a": 1, "r2h_h": 6}

>  <role_mapidx>  (2) 
{"r2h_a": 0, "r2h_h": 5}

>  <ordered_mapped_smiles>  (2) 
[CH:1]([CH:2]([H:4])[H:5])([H:3])[H:6]

>  <mol_properties>  (2) 
{"0": {"label": "acceptor", "atom_type": "Cs"}, "5": {"label": "a_hydrogen", "atom_type": "H0"}}

>  <level_of_theory>  (2) 
wb97xd/def2tzvp

>  <lot_method>  (2) 
wb97xd

>  <lot_basis>  (2) 
def2tzvp

>  <spin_multiplicity>  (2) 
1.0

>  <optical_isomers>  (2) 
1.0

>  <modes>  (2) 
IdealGasTranslation(mass=(28.0313, 'amu')),         NonlinearRotor(             inertia = ([3.4313, 16.5733, 20.0046

>  <frequency_value>  (2) 
unknown

>  <frequency_units>  (2) 
unknown

>  <frequency_list>  (2) 
unknown

>  <arkane_path>  (2) 
/home/calvin/Dropbox/PersonalFolders/Calvin/HAb_Converged/rxn_365/output/Species/rxn_365_C=C/arkane/output.py

>  <path_exists>  (2) 
True

>  <E0_value>  (2) 
-206204.08464717612

>  <E0_units>  (2) 
kJ/mol

>  <thermo_class>  (2) 
NASA

>  <Cp0_value>  (2) 
33.257888

>  <Cp0_units>  (2) 
J/(mol*K)

>  <CpInf_value>  (2) 
133.031552

>  <CpInf_units>  (2) 
J/(mol*K)

>  <Tmin_value>  (2) 
10.0

>  <Tmin_units>  (2) 
K

>  <Tmax_value>  (2) 
3000.0

>  <Tmax_units>  (2) 
K

>  <polynomials>  (2) 
[{"name": "polynomial1", "class": "NASAPolynomial", "Tmin_value": 10.0, "Tmin_units": "K", "Tmax_value": 769.5217501758626, "Tmax_units": "K", "coeffs": [4.102594925382579, -0.006879522193259702, 5.062107249177076e-05, -5.972223289849955e-08, 2.3228029141840905e-11, -24800625.606387716, 3.2220821404236424]}, {"name": "polynomial2", "class": "NASAPolynomial", "Tmin_value": 769.5217501758626, "Tmin_units": "K", "Tmax_value": 3000.0, "Tmax_units": "K", "coeffs": [0.4501873055486705, 0.01806199469136872, -9.606651718966085e-06, 2.51372192351987e-09, -2.587294024527882e-13, -24800239.83662215, 18.740105419928828]}]

>  <H298_value>  (2) 
-49281.46687172266

>  <H298_units>  (2) 
kcal/mol

>  <S298_value>  (2) 
52.28638692235232

>  <S298_units>  (2) 
cal/(mol*K)

>  <Cp_T_value_list>  (2) 
[10.27441708697483, 12.365536101969841, 14.515698252557122, 16.511337099494305, 19.738079638388314, 22.178263460277243, 26.036790662755205, 28.054735064109895, 29.07349068569704]

>  <Cp_T_units>  (2) 
cal/(mol*K)

>  <T_list>  (2) 
[300.0, 400.0, 500.0, 600.0, 800.0, 1000.0, 1500.0, 2000.0, 2400.0]

>  <T_units>  (2) 
K

>  <yaml_path>  (2) 
/home/calvin/Dropbox/PersonalFolders/Calvin/HAb_Converged/rxn_365/output/Species/rxn_365_C=C/rxn_365_C=C.yml

>  <frequencies_cm1>  (2) 
[832.94471836004, 977.0690062561998, 990.3016869678398, 1058.52518612204, 1234.34061127, 1375.2030811391598, 1460.7588512410398, 1695.25953293372, 3111.1769700351597, 3128.9967969405598, 3189.2477261382396, 3215.2736005010397]

>  <ZPE_kJmol>  (2) 
133.19882255210345

>  <E_elec_kJmol>  (2) 
-206337.28346972825

>  <E0_minus_Eelec_plus_ZPE_kJmol>  (2) 
0.0

>  <rxn>  (2) 
rxn_365

>  <species_type>  (2) 
p0

>  <species_folder>  (2) 
rxn_365_C=C

>  <frequencies_cm1_list>  (2) 
[832.94471836004, 977.0690062561998, 990.3016869678398, 1058.52518612204, 1234.34061127, 1375.2030811391598, 1460.7588512410398, 1695.25953293372, 3111.1769700351597, 3128.9967969405598, 3189.2477261382396, 3215.2736005010397]

>  <E0_kJmol>  (2) 
-206204

>  <H298_kJmol>  (2) 
-206194

$$$$

     RDKit          3D

  9  7  0  0  0  0  0  0  0  0999 V2000
    0.0191    1.2756    0.7350 C   0  0  0  0  0  3  0  0  0  1  0  0
    0.0086    1.1572    2.0396 C   0  0  0  0  0  0  0  0  0  2  0  0
    0.0409    2.1642    0.1158 H   0  0  0  0  0  0  0  0  0  3  0  0
    0.0220    2.0257    2.6958 H   0  0  0  0  0  0  0  0  0  4  0  0
   -0.0140    0.1880    2.5299 H   0  0  0  0  0  0  0  0  0  5  0  0
   -0.0196   -1.0914   -0.6832 C   0  0  0  0  0  0  0  0  0  6  0  0
   -0.0129   -1.1246   -1.8678 O   0  0  0  0  0  0  0  0  0  7  0  0
   -0.0020   -0.0216   -0.0606 H   0  0  0  0  0  0  0  0  0  8  0  0
   -0.0421   -2.0072   -0.0507 H   0  0  0  0  0  0  0  0  0  9  0  0
  1  3  1  0
  1  2  1  0
  2  4  1  0
  2  5  1  0
  6  8  1  0
  6  9  1  0
  6  7  1  0
M  RAD  1   1   2
M  END
>  <rmg_smiles>  (3) 
[CH2]O.[CH][CH2]

>  <rmg_adjacency_list>  (3) 
multiplicity 2
1 O u0 p2 c0 {3,S}
2 C u0 p0 c0 {4,S} {5,S} {6,S}
3 C u0 p0 c0 {1,S} {7,S} {8,S}
4 C u1 p1 c0 {2,S} {9,S}
5 H u0 p0 c0 {2,S}
6 H u0 p0 c0 {2,S}
7 H u0 p0 c0 {3,S}
8 H u0 p0 c0 {3,S}
9 H u0 p0 c0 {4,S}


>  <multiplicity>  (3) 
2

>  <reaction>  (3) 
rxn_365

>  <type>  (3) 
ts

>  <role_mapnums>  (3) 
{"*2": 8, "*1": 6, "*3": 1, "*0": 7, "*4": 2}

>  <role_mapidx>  (3) 
{"*2": 7, "*1": 5, "*3": 0, "*0": 6, "*4": 1}

>  <ordered_mapped_smiles>  (3) 
[CH:1]([CH:2]([H:4])[H:5])[H:3].[CH:6]([OH:7])([H:8])[H:9]

>  <mol_properties>  (3) 
{"0": {"label": "*3", "atom_type": "C2s"}, "1": {"label": "*4", "atom_type": "Cs"}, "5": {"label": "*1", "atom_type": "Cs"}, "6": {"label": "*0", "atom_type": "O2s"}, "7": {"label": "*2", "atom_type": "H0"}}

>  <level_of_theory>  (3) 
wb97xd/def2tzvp

>  <lot_method>  (3) 
wb97xd

>  <lot_basis>  (3) 
def2tzvp

>  <spin_multiplicity>  (3) 
2.0

>  <optical_isomers>  (3) 
1.0

>  <modes>  (3) 
IdealGasTranslation(mass=(57.034, 'amu')),         NonlinearRotor(             inertia = ([15.6147, 199.062, 214.677

>  <frequency_value>  (3) 
-1213.63

>  <frequency_units>  (3) 
cm^-1

>  <frequency_list>  (3) 
unknown

>  <arkane_path>  (3) 
/home/calvin/Dropbox/PersonalFolders/Calvin/HAb_Converged/rxn_365/output/rxns/TS0/arkane/output.py

>  <path_exists>  (3) 
True

>  <E0_value>  (3) 
-505008.0

>  <E0_units>  (3) 
kJ/mol

>  <thermo_class>  (3) 
unknown

>  <Cp0_value>  (3) 
unknown

>  <Cp0_units>  (3) 
unknown

>  <CpInf_value>  (3) 
unknown

>  <CpInf_units>  (3) 
unknown

>  <Tmin_value>  (3) 
unknown

>  <Tmin_units>  (3) 
unknown

>  <Tmax_value>  (3) 
unknown

>  <Tmax_units>  (3) 
unknown

>  <polynomials>  (3) 
unknown

>  <H298_value>  (3) 
unknown

>  <H298_units>  (3) 
unknown

>  <S298_value>  (3) 
unknown

>  <S298_units>  (3) 
unknown

>  <Cp_T_value_list>  (3) 
unknown

>  <Cp_T_units>  (3) 
unknown

>  <T_list>  (3) 
unknown

>  <T_units>  (3) 
unknown

>  <yaml_path>  (3) 
unknown

>  <frequencies_cm1>  (3) 
unknown

>  <ZPE_kJmol>  (3) 
unknown

>  <E_elec_kJmol>  (3) 
unknown

>  <E0_minus_Eelec_plus_ZPE_kJmol>  (3) 
unknown

>  <rxn>  (3) 
unknown

>  <species_type>  (3) 
unknown

>  <species_folder>  (3) 
unknown

>  <frequencies_cm1_list>  (3) 
[]

>  <ts_imag_freq_cm1>  (3) 
-1228.3753

>  <ts_freq_out_path>  (3) 
/home/calvin/Dropbox/PersonalFolders/Calvin/HAb_Converged/rxn_365/output/rxns/TS0/geometry/freq.out

>  <E0_kJmol>  (3) 
-505008

>  <H298_kJmol>  (3) 
unknown

$$$$

     RDKit          3D

  3  2  0  0  0  0  0  0  0  0999 V2000
   -0.0494   -0.2484    0.2507 C   0  0  0  0  0  3  0  0  0  1  0  0
    1.0305   -0.0025   -0.1225 O   0  0  0  0  0  0  0  0  0  2  0  0
   -0.9811    0.2509   -0.1282 H   0  0  0  0  0  0  0  0  0  3  0  0
  1  3  1  0
  1  2  1  0
M  RAD  1   1   2
M  END
>  <rmg_smiles>  (4) 
[CH]O

>  <rmg_adjacency_list>  (4) 
multiplicity 2
1 O u0 p2 c0 {2,S}
2 C u1 p1 c0 {1,S} {3,S}
3 H u0 p0 c0 {2,S}


>  <multiplicity>  (4) 
2

>  <reaction>  (4) 
rxn_365

>  <type>  (4) 
r1

>  <role_mapnums>  (4) 
{}

>  <role_mapidx>  (4) 
{}

>  <ordered_mapped_smiles>  (4) 
[CH:1]([OH:2])[H:3]

>  <level_of_theory>  (4) 
wb97xd/def2tzvp

>  <lot_method>  (4) 
wb97xd

>  <lot_basis>  (4) 
def2tzvp

>  <spin_multiplicity>  (4) 
2.0

>  <optical_isomers>  (4) 
1.0

>  <modes>  (4) 
IdealGasTranslation(mass=(29.0027, 'amu')),         NonlinearRotor(             inertia = ([0.700876, 11.1486, 11.8495

>  <frequency_value>  (4) 
unknown

>  <frequency_units>  (4) 
unknown

>  <frequency_list>  (4) 
unknown

>  <arkane_path>  (4) 
/home/calvin/Dropbox/PersonalFolders/Calvin/HAb_Converged/rxn_365/output/Species/rxn_365_[CH]=O/arkane/output.py

>  <path_exists>  (4) 
True

>  <E0_value>  (4) 
-298906.1077309104

>  <E0_units>  (4) 
kJ/mol

>  <thermo_class>  (4) 
NASA

>  <Cp0_value>  (4) 
33.257888

>  <Cp0_units>  (4) 
J/(mol*K)

>  <CpInf_value>  (4) 
58.201304

>  <CpInf_units>  (4) 
J/(mol*K)

>  <Tmin_value>  (4) 
10.0

>  <Tmin_units>  (4) 
K

>  <Tmax_value>  (4) 
3000.0

>  <Tmax_units>  (4) 
K

>  <polynomials>  (4) 
[{"name": "polynomial1", "class": "NASAPolynomial", "Tmin_value": 10.0, "Tmin_units": "K", "Tmax_value": 629.0329326323794, "Tmax_units": "K", "coeffs": [4.0141029536568755, -0.0008324808303857282, 4.565607627083826e-06, 1.8746941448744858e-10, -2.6564997303138495e-12, -35950101.587201975, 4.133195440043003]}, {"name": "polynomial2", "class": "NASAPolynomial", "Tmin_value": 629.0329326323794, "Tmin_units": "K", "Tmax_value": 3000.0, "Tmax_units": "K", "coeffs": [2.7179926824852285, 0.004696005037506268, -2.1471933588085846e-06, 4.442695941995901e-10, -3.310227907681839e-14, -35949884.84502023, 10.212048629403155]}]

>  <H298_value>  (4) 
-71437.89365083692

>  <H298_units>  (4) 
kcal/mol

>  <S298_value>  (4) 
53.56112588711653

>  <S298_units>  (4) 
cal/(mol*K)

>  <Cp_T_value_list>  (4) 
[8.264409135990633, 8.655475624606844, 9.134526324353928, 9.646783131701312, 10.561009548618756, 11.28330222739882, 12.44516840811585, 13.007756179876383, 13.242544848639357]

>  <Cp_T_units>  (4) 
cal/(mol*K)

>  <T_list>  (4) 
[300.0, 400.0, 500.0, 600.0, 800.0, 1000.0, 1500.0, 2000.0, 2400.0]

>  <T_units>  (4) 
K

>  <yaml_path>  (4) 
/home/calvin/Dropbox/PersonalFolders/Calvin/HAb_Converged/rxn_365/output/Species/rxn_365_[CH]=O/rxn_365_CH=O.yml

>  <frequencies_cm1>  (4) 
[1103.9502940138398, 1953.2453044207998, 2665.077002692]

>  <ZPE_kJmol>  (4) 
34.2268007772968

>  <E_elec_kJmol>  (4) 
-298940.33453168767

>  <E0_minus_Eelec_plus_ZPE_kJmol>  (4) 
0.0

>  <rxn>  (4) 
rxn_365

>  <species_type>  (4) 
p1

>  <species_folder>  (4) 
rxn_365_[CH]=O

>  <frequencies_cm1_list>  (4) 
[1103.9502940138398, 1953.2453044207998, 2665.077002692]

>  <E0_kJmol>  (4) 
-298906

>  <H298_kJmol>  (4) 
-298896

$$$$

     RDKit          3D

  5  4  0  0  0  0  0  0  0  0999 V2000
    0.0397    0.7134    0.0000 C   0  0  0  0  0  3  0  0  0  1  0  0
    0.0458   -0.5870    0.0000 C   0  0  0  0  0  0  0  0  0  2  0  0
   -0.6871    1.5118    0.0000 H   0  0  0  0  0  0  0  0  0  3  0  0
   -0.8806   -1.1637    0.0000 H   0  0  0  0  0  0  0  0  0  4  0  0
    0.9690   -1.1600    0.0000 H   0  0  0  0  0  0  0  0  0  5  0  0
  1  3  1  0
  1  2  1  0
  2  5  1  0
  2  4  1  0
M  RAD  1   1   2
M  END
>  <rmg_smiles>  (5) 
[CH][CH2]

>  <rmg_adjacency_list>  (5) 
multiplicity 2
1 C u0 p0 c0 {2,S} {3,S} {4,S}
2 C u1 p1 c0 {1,S} {5,S}
3 H u0 p0 c0 {1,S}
4 H u0 p0 c0 {1,S}
5 H u0 p0 c0 {2,S}


>  <multiplicity>  (5) 
2

>  <reaction>  (5) 
rxn_365

>  <type>  (5) 
r2

>  <role_mapnums>  (5) 
{}

>  <role_mapidx>  (5) 
{}

>  <ordered_mapped_smiles>  (5) 
[CH:1]([CH:2]([H:4])[H:5])[H:3]

>  <level_of_theory>  (5) 
wb97xd/def2tzvp

>  <lot_method>  (5) 
wb97xd

>  <lot_basis>  (5) 
def2tzvp

>  <spin_multiplicity>  (5) 
2.0

>  <optical_isomers>  (5) 
1.0

>  <modes>  (5) 
IdealGasTranslation(mass=(27.0235, 'amu')),         NonlinearRotor(             inertia = ([2.14183, 15.3481, 17.4899

>  <frequency_value>  (5) 
unknown

>  <frequency_units>  (5) 
unknown

>  <frequency_list>  (5) 
unknown

>  <arkane_path>  (5) 
/home/calvin/Dropbox/PersonalFolders/Calvin/HAb_Converged/rxn_365/output/Species/rxn_365_[CH]=C/arkane/output.py

>  <path_exists>  (5) 
True

>  <E0_value>  (5) 
-204434.59610714423

>  <E0_units>  (5) 
kJ/mol

>  <thermo_class>  (5) 
NASA

>  <Cp0_value>  (5) 
33.257888

>  <Cp0_units>  (5) 
J/(mol*K)

>  <CpInf_value>  (5) 
108.088136

>  <CpInf_units>  (5) 
J/(mol*K)

>  <Tmin_value>  (5) 
10.0

>  <Tmin_units>  (5) 
K

>  <Tmax_value>  (5) 
3000.0

>  <Tmax_units>  (5) 
K

>  <polynomials>  (5) 
[{"name": "polynomial1", "class": "NASAPolynomial", "Tmin_value": 10.0, "Tmin_units": "K", "Tmax_value": 605.1562073532106, "Tmax_units": "K", "coeffs": [4.0732302477000095, -0.005855893423713469, 5.173301484019039e-05, -7.605753070838568e-08, 3.74067872861101e-11, -24587803.17884632, 4.922911546686311]}, {"name": "polynomial2", "class": "NASAPolynomial", "Tmin_value": 605.1562073532106, "Tmin_units": "K", "Tmax_value": 3000.0, "Tmax_units": "K", "coeffs": [1.907334803595395, 0.013219860447203871, -7.347353045060493e-06, 2.024442812279225e-09, -2.192078156816895e-13, -24587628.1872574, 13.564186384006128]}]

>  <H298_value>  (5) 
-48858.50309296871

>  <H298_units>  (5) 
kcal/mol

>  <S298_value>  (5) 
55.807333309528325

>  <S298_units>  (5) 
cal/(mol*K)

>  <Cp_T_value_list>  (5) 
[10.376944352757018, 12.118158212925861, 13.730146484867369, 15.108875169207579, 17.343631711777416, 19.047527728648078, 21.716860438361014, 23.14273061905272, 23.900837148526193]

>  <Cp_T_units>  (5) 
cal/(mol*K)

>  <T_list>  (5) 
[300.0, 400.0, 500.0, 600.0, 800.0, 1000.0, 1500.0, 2000.0, 2400.0]

>  <T_units>  (5) 
K

>  <yaml_path>  (5) 
/home/calvin/Dropbox/PersonalFolders/Calvin/HAb_Converged/rxn_365/output/Species/rxn_365_[CH]=C/rxn_365_CH=C.yml

>  <frequencies_cm1>  (5) 
[709.40765245324, 831.6056562226399, 928.3889473227199, 1044.4341322454, 1381.5275746188797, 1653.3915234376798, 3045.07536934484, 3137.58739557588, 3217.88305492264]

>  <ZPE_kJmol>  (5) 
95.3980343814778

>  <E_elec_kJmol>  (5) 
-204529.9941415257

>  <E0_minus_Eelec_plus_ZPE_kJmol>  (5) 
0.0

>  <rxn>  (5) 
rxn_365

>  <species_type>  (5) 
r0

>  <species_folder>  (5) 
rxn_365_[CH]=C

>  <frequencies_cm1_list>  (5) 
[709.40765245324, 831.6056562226399, 928.3889473227199, 1044.4341322454, 1381.5275746188797, 1653.3915234376798, 3045.07536934484, 3137.58739557588, 3217.88305492264]

>  <E0_kJmol>  (5) 
-204435

>  <H298_kJmol>  (5) 
-204424

$$$$
