
     RDKit          3D

 12 11  0  0  0  0  0  0  0  0999 V2000
   -0.7936    1.3918   -0.2389 C   0  0  0  0  0  0  0  0  0  1  0  0
    0.2652    0.6837   -0.6462 C   0  0  0  0  0  0  0  0  0  2  0  0
    0.7124   -0.5779   -0.0807 C   0  0  0  0  0  0  0  0  0  3  0  0
   -0.1936   -1.3609    0.8301 C   0  0  0  0  0  0  0  0  0  4  0  0
   -1.4468    1.0441    0.5518 H   0  0  0  0  0  0  0  0  0  5  0  0
   -1.0379    2.3421   -0.6949 H   0  0  0  0  0  0  0  0  0  6  0  0
    0.8815    1.0912   -1.4426 H   0  0  0  0  0  0  0  0  0  7  0  0
    1.5102   -0.2920    0.6035 H   0  0  0  0  0  0  0  0  0  8  0  0
    1.2988   -1.1880   -0.7665 H   0  0  0  0  0  0  0  0  0  9  0  0
   -1.0834   -1.7053    0.2955 H   0  0  0  0  0  0  0  0  0 10  0  0
   -0.5235   -0.7551    1.6763 H   0  0  0  0  0  0  0  0  0 11  0  0
    0.3259   -2.2323    1.2288 H   0  0  0  0  0  0  0  0  0 12  0  0
  1  5  1  0
  1  6  1  0
  1  2  1  0
  2  7  1  0
  2  3  1  0
  3  4  1  0
  3  9  1  0
  3  8  1  0
  4 12  1  0
  4 10  1  0
  4 11  1  0
M  END
>  <rmg_smiles>  (1) 
[CH2][CH]CC

>  <rmg_adjacency_list>  (1) 
1  C u0 p0 c0 {2,S} {3,S} {5,S} {6,S}
2  C u0 p0 c0 {1,S} {7,S} {8,S} {9,S}
3  C u0 p0 c0 {1,S} {4,S} {10,S}
4  C u0 p0 c0 {3,S} {11,S} {12,S}
5  H u0 p0 c0 {1,S}
6  H u0 p0 c0 {1,S}
7  H u0 p0 c0 {2,S}
8  H u0 p0 c0 {2,S}
9  H u0 p0 c0 {2,S}
10 H u0 p0 c0 {3,S}
11 H u0 p0 c0 {4,S}
12 H u0 p0 c0 {4,S}


>  <multiplicity>  (1) 
1

>  <reaction>  (1) 
rxn_1049

>  <type>  (1) 
r1h

>  <role_mapnums>  (1) 
{"r1h_a": 3, "r1h_h": 8}

>  <role_mapidx>  (1) 
{"r1h_a": 2, "r1h_h": 7}

>  <ordered_mapped_smiles>  (1) 
[CH:1]([CH:2]([C:3]([C:4]([H:10])([H:11])[H:12])([H:8])[H:9])[H:7])([H:5])[H:6]

>  <mol_properties>  (1) 
{"2": {"label": "donator", "atom_type": "Cs"}, "7": {"label": "d_hydrogen", "atom_type": "H0"}}

>  <level_of_theory>  (1) 
wb97xd/def2tzvp

>  <lot_method>  (1) 
wb97xd

>  <lot_basis>  (1) 
def2tzvp

>  <spin_multiplicity>  (1) 
1.0

>  <optical_isomers>  (1) 
1.0

>  <modes>  (1) 
IdealGasTranslation(mass=(56.0626, 'amu')),         NonlinearRotor(             inertia = ([32.5109, 90.3514, 116.676

>  <frequency_value>  (1) 
unknown

>  <frequency_units>  (1) 
unknown

>  <frequency_list>  (1) 
unknown

>  <arkane_path>  (1) 
/home/calvin/Dropbox/PersonalFolders/Calvin/HAb_Converged/rxn_1049/output/Species/rxn_1049_C=CCC/arkane/output.py

>  <path_exists>  (1) 
True

>  <E0_value>  (1) 
-412516.9632903335

>  <E0_units>  (1) 
kJ/mol

>  <thermo_class>  (1) 
NASA

>  <Cp0_value>  (1) 
33.257888

>  <Cp0_units>  (1) 
J/(mol*K)

>  <CpInf_value>  (1) 
282.692048

>  <CpInf_units>  (1) 
J/(mol*K)

>  <Tmin_value>  (1) 
10.0

>  <Tmin_units>  (1) 
K

>  <Tmax_value>  (1) 
3000.0

>  <Tmax_units>  (1) 
K

>  <polynomials>  (1) 
[{"name": "polynomial1", "class": "NASAPolynomial", "Tmin_value": 10.0, "Tmin_units": "K", "Tmax_value": 488.655875950425, "Tmax_units": "K", "coeffs": [3.9518334489867755, 0.002738214948316711, 0.00010027883330171994, -1.6337813639818567e-07, 8.627420085348335e-11, -49614327.71326204, 8.65572399544736]}, {"name": "polynomial2", "class": "NASAPolynomial", "Tmin_value": 488.655875950425, "Tmin_units": "K", "Tmax_value": 3000.0, "Tmax_units": "K", "coeffs": [-1.0177998638327943, 0.04340046679206265, -2.4485281954071822e-05, 6.761443222838627e-09, -7.324004262046576e-13, -49613841.81296031, 29.07476490076061]}]

>  <H298_value>  (1) 
-98590.13440490302

>  <H298_units>  (1) 
kcal/mol

>  <S298_value>  (1) 
69.88440789589453

>  <S298_units>  (1) 
cal/(mol*K)

>  <Cp_T_value_list>  (1) 
[20.042973263550383, 25.523981497089775, 30.524522062075274, 34.9218382998611, 42.11657803113529, 47.54675281077259, 55.846682187635814, 60.04373230790421, 62.15783038221664]

>  <Cp_T_units>  (1) 
cal/(mol*K)

>  <T_list>  (1) 
[300.0, 400.0, 500.0, 600.0, 800.0, 1000.0, 1500.0, 2000.0, 2400.0]

>  <T_units>  (1) 
K

>  <yaml_path>  (1) 
/home/calvin/Dropbox/PersonalFolders/Calvin/HAb_Converged/rxn_1049/output/Species/rxn_1049_C=CCC/rxn_1049_C=CCC.yml

>  <frequencies_cm1>  (1) 
[165.89949834588, 270.68969432907994, 288.28291071892, 546.5845635307201, 562.94858954828, 802.8192537611999, 842.75764038232, 950.1229558605198, 1001.7077495843599, 1030.7756984439197, 1035.6375240504801, 1103.34599930568, 1142.2200032022, 1284.9434260930798, 1326.2895447048, 1372.0442678919599, 1403.3508539658399, 1441.4282875652402, 1464.212944857, 1485.72034287924, 1496.3092342426798, 1714.90597793424, 3000.2545561612, 3017.2984137254402, 3025.2847176525997, 3087.5545405343596, 3095.4996425496, 3112.8387804825998, 3128.2208275993994, 3206.66926789508]

>  <ZPE_kJmol>  (1) 
283.55462469418285

>  <E_elec_kJmol>  (1) 
-412800.5179150276

>  <E0_minus_Eelec_plus_ZPE_kJmol>  (1) 
0.0

>  <rxn>  (1) 
rxn_1049

>  <species_type>  (1) 
r1

>  <species_folder>  (1) 
rxn_1049_C=CCC

>  <frequencies_cm1_list>  (1) 
[165.89949834588, 270.68969432907994, 288.28291071892, 546.5845635307201, 562.94858954828, 802.8192537611999, 842.75764038232, 950.1229558605198, 1001.7077495843599, 1030.7756984439197, 1035.6375240504801, 1103.34599930568, 1142.2200032022, 1284.9434260930798, 1326.2895447048, 1372.0442678919599, 1403.3508539658399, 1441.4282875652402, 1464.212944857, 1485.72034287924, 1496.3092342426798, 1714.90597793424, 3000.2545561612, 3017.2984137254402, 3025.2847176525997, 3087.5545405343596, 3095.4996425496, 3112.8387804825998, 3128.2208275993994, 3206.66926789508]

>  <E0_kJmol>  (1) 
-412517

>  <H298_kJmol>  (1) 
-412501

$$$$

     RDKit          3D

  9  8  0  0  0  0  0  0  0  0999 V2000
    1.0760   -2.0660   -0.0333 C   0  0  0  0  0  2  0  0  0  1  0  0
    0.6793   -0.9704   -0.3217 C   0  0  0  0  0  2  0  0  0  2  0  0
    0.1711    0.3036   -0.7297 C   0  0  0  0  0  0  0  0  0  3  0  0
   -0.6019    1.0463    0.2158 C   0  0  0  0  0  2  0  0  0  4  0  0
   -1.3009    1.6743    0.9634 C   0  0  0  0  0  2  0  0  0  5  0  0
    1.4403   -3.0263    0.2421 H   0  0  0  0  0  0  0  0  0  6  0  0
    0.8902    0.9091   -1.2797 H   0  0  0  0  0  0  0  0  0  7  0  0
   -1.9013    2.2332    1.6399 H   0  0  0  0  0  0  0  0  0  8  0  0
   -0.5357    0.0838   -1.5287 H   0  0  0  0  0  0  0  0  0  9  0  0
  1  6  1  0
  1  2  1  0
  2  3  1  0
  3  4  1  0
  3  7  1  0
  3  9  1  0
  4  5  1  0
  5  8  1  0
M  RAD  4   1   3   2   3   4   3   5   3
M  END
>  <rmg_smiles>  (2) 
[CH][C]C[C][CH]

>  <rmg_adjacency_list>  (2) 
1 C u0 p0 c0 {2,S} {3,S} {6,S} {7,S}
2 C u0 p1 c0 {1,S} {4,S}
3 C u0 p1 c0 {1,S} {5,S}
4 C u0 p1 c0 {2,S} {8,S}
5 C u0 p1 c0 {3,S} {9,S}
6 H u0 p0 c0 {1,S}
7 H u0 p0 c0 {1,S}
8 H u0 p0 c0 {4,S}
9 H u0 p0 c0 {5,S}


>  <multiplicity>  (2) 
1

>  <reaction>  (2) 
rxn_1049

>  <type>  (2) 
r2h

>  <role_mapnums>  (2) 
{"r2h_a": 3, "r2h_h": 9}

>  <role_mapidx>  (2) 
{"r2h_a": 2, "r2h_h": 8}

>  <ordered_mapped_smiles>  (2) 
[C:1]([C:2][C:3]([C:4][C:5][H:8])([H:7])[H:9])[H:6]

>  <mol_properties>  (2) 
{"2": {"label": "acceptor", "atom_type": "Cs"}, "8": {"label": "a_hydrogen", "atom_type": "H0"}}

>  <level_of_theory>  (2) 
wb97xd/def2tzvp

>  <lot_method>  (2) 
wb97xd

>  <lot_basis>  (2) 
def2tzvp

>  <spin_multiplicity>  (2) 
1.0

>  <optical_isomers>  (2) 
1.0

>  <modes>  (2) 
IdealGasTranslation(mass=(64.0313, 'amu')),         NonlinearRotor(             inertia = ([26.0751, 176.474, 199.453

>  <frequency_value>  (2) 
unknown

>  <frequency_units>  (2) 
unknown

>  <frequency_list>  (2) 
unknown

>  <arkane_path>  (2) 
/home/calvin/Dropbox/PersonalFolders/Calvin/HAb_Converged/rxn_1049/output/Species/rxn_1049_CtCCCtC/arkane/output.py

>  <path_exists>  (2) 
True

>  <E0_value>  (2) 
-505987.19351265096

>  <E0_units>  (2) 
kJ/mol

>  <thermo_class>  (2) 
NASA

>  <Cp0_value>  (2) 
33.257888

>  <Cp0_units>  (2) 
J/(mol*K)

>  <CpInf_value>  (2) 
207.8618

>  <CpInf_units>  (2) 
J/(mol*K)

>  <Tmin_value>  (2) 
10.0

>  <Tmin_units>  (2) 
K

>  <Tmax_value>  (2) 
3000.0

>  <Tmax_units>  (2) 
K

>  <polynomials>  (2) 
[{"name": "polynomial1", "class": "NASAPolynomial", "Tmin_value": 10.0, "Tmin_units": "K", "Tmax_value": 497.8513259912737, "Tmax_units": "K", "coeffs": [3.8915923857803536, 0.006957077216274673, 0.00011247108954423451, -2.58415972479989e-07, 1.7696354569532415e-10, -60856199.4251038, 8.432123404375208]}, {"name": "polynomial2", "class": "NASAPolynomial", "Tmin_value": 497.8513259912737, "Tmin_units": "K", "Tmax_value": 3000.0, "Tmax_units": "K", "coeffs": [4.075787334974484, 0.027762889535938477, -1.736147806652233e-05, 5.355292661241066e-09, -6.423462202508128e-13, -60856493.94799508, 4.89821145227154]}]

>  <H298_value>  (2) 
-120929.79228656254

>  <H298_units>  (2) 
kcal/mol

>  <S298_value>  (2) 
71.02155085771051

>  <S298_units>  (2) 
cal/(mol*K)

>  <Cp_T_value_list>  (2) 
[20.979509503559502, 25.16090011310623, 28.30999724146717, 30.91474121272046, 35.081264888538236, 38.134781385911204, 42.68326999943224, 45.150237682434486, 46.5496532279807]

>  <Cp_T_units>  (2) 
cal/(mol*K)

>  <T_list>  (2) 
[300.0, 400.0, 500.0, 600.0, 800.0, 1000.0, 1500.0, 2000.0, 2400.0]

>  <T_units>  (2) 
K

>  <yaml_path>  (2) 
/home/calvin/Dropbox/PersonalFolders/Calvin/HAb_Converged/rxn_1049/output/Species/rxn_1049_CtCCCtC/rxn_1049_CtCCCtC.yml

>  <frequencies_cm1>  (2) 
[136.57060404415998, 317.76287869768, 341.09689481504, 341.70805650852003, 565.30396551304, 688.26420465296, 689.33545436288, 698.59215057424, 701.977574337, 902.24633420948, 929.56320181244, 996.6124464769199, 1233.63331178204, 1332.80631377348, 1444.34675632624, 2232.8002767979997, 2237.0990096083196, 3019.1456327765195, 3054.0230512167996, 3436.67207420316, 3437.69525501584]

>  <ZPE_kJmol>  (2) 
171.88700812582363

>  <E_elec_kJmol>  (2) 
-506159.0805207768

>  <E0_minus_Eelec_plus_ZPE_kJmol>  (2) 
0.0

>  <rxn>  (2) 
rxn_1049

>  <species_type>  (2) 
p0

>  <species_folder>  (2) 
rxn_1049_CtCCCtC

>  <frequencies_cm1_list>  (2) 
[136.57060404415998, 317.76287869768, 341.09689481504, 341.70805650852003, 565.30396551304, 688.26420465296, 689.33545436288, 698.59215057424, 701.977574337, 902.24633420948, 929.56320181244, 996.6124464769199, 1233.63331178204, 1332.80631377348, 1444.34675632624, 2232.8002767979997, 2237.0990096083196, 3019.1456327765195, 3054.0230512167996, 3436.67207420316, 3437.69525501584]

>  <E0_kJmol>  (2) 
-505987

>  <H298_kJmol>  (2) 
-505970

$$$$

     RDKit          3D

 20 18  0  0  0  0  0  0  0  0999 V2000
    2.1388   -2.0484    1.0537 C   0  0  0  0  0  0  0  0  0  1  0  0
    1.7421   -0.9528    0.7653 C   0  0  0  0  0  0  0  0  0  2  0  0
    1.2339    0.3212    0.3573 C   0  0  0  0  0  3  0  0  0  3  0  0
    0.4609    1.0640    1.3028 C   0  0  0  0  0  0  0  0  0  4  0  0
   -0.2381    1.6919    2.0504 C   0  0  0  0  0  0  0  0  0  5  0  0
    2.5031   -3.0086    1.3292 H   0  0  0  0  0  0  0  0  0  6  0  0
    1.9530    0.9267   -0.1926 H   0  0  0  0  0  0  0  0  0  7  0  0
   -0.8385    2.2508    2.7269 H   0  0  0  0  0  0  0  0  0  8  0  0
   -2.1414    1.6628   -1.6444 C   0  0  0  0  0  0  0  0  0  9  0  0
   -1.0826    0.9546   -2.0518 C   0  0  0  0  0  0  0  0  0 10  0  0
   -0.6354   -0.3070   -1.4863 C   0  0  0  0  0  0  0  0  0 11  0  0
   -1.5414   -1.0900   -0.5755 C   0  0  0  0  0  0  0  0  0 12  0  0
   -2.7946    1.3150   -0.8538 H   0  0  0  0  0  0  0  0  0 13  0  0
   -2.3856    2.6131   -2.1004 H   0  0  0  0  0  0  0  0  0 14  0  0
   -0.4663    1.3621   -2.8482 H   0  0  0  0  0  0  0  0  0 15  0  0
    0.3530    0.0473   -0.6386 H   0  0  0  0  0  0  0  0  0 16  0  0
   -0.0490   -0.9171   -2.1721 H   0  0  0  0  0  0  0  0  0 17  0  0
   -2.4312   -1.4344   -1.1101 H   0  0  0  0  0  0  0  0  0 18  0  0
   -1.8713   -0.4842    0.2708 H   0  0  0  0  0  0  0  0  0 19  0  0
   -1.0219   -1.9614   -0.1767 H   0  0  0  0  0  0  0  0  0 20  0  0
  1  6  1  0
  1  2  1  0
  2  3  1  0
  3  4  1  0
  3  7  1  0
  4  5  1  0
  5  8  1  0
  9 10  1  0
  9 14  1  0
  9 13  1  0
 10 11  1  0
 10 15  1  0
 11 12  1  0
 11 16  1  0
 11 17  1  0
 12 19  1  0
 12 20  1  0
 12 18  1  0
M  RAD  1   3   2
M  END
>  <rmg_smiles>  (3) 
[CH2][CH]CC.[CH]C[CH]C[CH]

>  <rmg_adjacency_list>  (3) 
multiplicity 2
1  C u0 p0 c0 {2,S} {3,S} {10,S} {11,S}
2  C u0 p0 c0 {1,S} {12,S} {13,S} {14,S}
3  C u0 p0 c0 {1,S} {4,S} {15,S}
4  C u0 p0 c0 {3,S} {17,S} {18,S}
5  C u1 p0 c0 {6,S} {7,S} {16,S}
6  C u0 p1 c0 {5,S} {8,S}
7  C u0 p1 c0 {5,S} {9,S}
8  C u0 p1 c0 {6,S} {19,S}
9  C u0 p1 c0 {7,S} {20,S}
10 H u0 p0 c0 {1,S}
11 H u0 p0 c0 {1,S}
12 H u0 p0 c0 {2,S}
13 H u0 p0 c0 {2,S}
14 H u0 p0 c0 {2,S}
15 H u0 p0 c0 {3,S}
16 H u0 p0 c0 {5,S}
17 H u0 p0 c0 {4,S}
18 H u0 p0 c0 {4,S}
19 H u0 p0 c0 {8,S}
20 H u0 p0 c0 {9,S}


>  <multiplicity>  (3) 
2

>  <reaction>  (3) 
rxn_1049

>  <type>  (3) 
ts

>  <role_mapnums>  (3) 
{"*2": 16, "*1": 11, "*3": 3, "*0": 10, "*4": 2}

>  <role_mapidx>  (3) 
{"*2": 15, "*1": 10, "*3": 2, "*0": 9, "*4": 1}

>  <ordered_mapped_smiles>  (3) 
[CH2:1]([CH2:2][C:3]([CH2:4][CH2:5][H:8])[H:7])[H:6].[CH:9]([CH:10]([C:11]([C:12]([H:18])([H:19])[H:20])([H:16])[H:17])[H:15])([H:13])[H:14]

>  <mol_properties>  (3) 
{"1": {"label": "*4", "atom_type": "C2s"}, "2": {"label": "*3", "atom_type": "Cs"}, "9": {"label": "*0", "atom_type": "Cs"}, "10": {"label": "*1", "atom_type": "Cs"}, "15": {"label": "*2", "atom_type": "H0"}}

>  <level_of_theory>  (3) 
wb97xd/def2tzvp

>  <lot_method>  (3) 
wb97xd

>  <lot_basis>  (3) 
def2tzvp

>  <spin_multiplicity>  (3) 
2.0

>  <optical_isomers>  (3) 
2.0

>  <modes>  (3) 
IdealGasTranslation(mass=(119.086, 'amu')),         NonlinearRotor(             inertia = ([250.583, 493.664, 626.027

>  <frequency_value>  (3) 
-1777.93

>  <frequency_units>  (3) 
cm^-1

>  <frequency_list>  (3) 
unknown

>  <arkane_path>  (3) 
/home/calvin/Dropbox/PersonalFolders/Calvin/HAb_Converged/rxn_1049/output/rxns/TS0/arkane/output.py

>  <path_exists>  (3) 
True

>  <E0_value>  (3) 
-916785.0

>  <E0_units>  (3) 
kJ/mol

>  <thermo_class>  (3) 
unknown

>  <Cp0_value>  (3) 
unknown

>  <Cp0_units>  (3) 
unknown

>  <CpInf_value>  (3) 
unknown

>  <CpInf_units>  (3) 
unknown

>  <Tmin_value>  (3) 
unknown

>  <Tmin_units>  (3) 
unknown

>  <Tmax_value>  (3) 
unknown

>  <Tmax_units>  (3) 
unknown

>  <polynomials>  (3) 
unknown

>  <H298_value>  (3) 
unknown

>  <H298_units>  (3) 
unknown

>  <S298_value>  (3) 
unknown

>  <S298_units>  (3) 
unknown

>  <Cp_T_value_list>  (3) 
unknown

>  <Cp_T_units>  (3) 
unknown

>  <T_list>  (3) 
unknown

>  <T_units>  (3) 
unknown

>  <yaml_path>  (3) 
unknown

>  <frequencies_cm1>  (3) 
unknown

>  <ZPE_kJmol>  (3) 
unknown

>  <E_elec_kJmol>  (3) 
unknown

>  <E0_minus_Eelec_plus_ZPE_kJmol>  (3) 
unknown

>  <rxn>  (3) 
unknown

>  <species_type>  (3) 
unknown

>  <species_folder>  (3) 
unknown

>  <frequencies_cm1_list>  (3) 
[]

>  <ts_imag_freq_cm1>  (3) 
-1799.5206

>  <ts_freq_out_path>  (3) 
/home/calvin/Dropbox/PersonalFolders/Calvin/HAb_Converged/rxn_1049/output/rxns/TS0/geometry/freq.out

>  <E0_kJmol>  (3) 
-916785

>  <H298_kJmol>  (3) 
unknown

$$$$

     RDKit          3D

 11 10  0  0  0  0  0  0  0  0999 V2000
    2.0591    0.2533   -0.1061 C   0  0  0  0  0  0  0  0  0  1  0  0
    0.8045   -0.3111   -0.1535 C   0  0  0  0  0  0  0  0  0  2  0  0
   -0.3816    0.3942   -0.1885 C   0  0  0  0  0  3  0  0  0  3  0  0
   -1.7316   -0.2294   -0.2396 C   0  0  0  0  0  0  0  0  0  4  0  0
    2.9505   -0.3576   -0.0805 H   0  0  0  0  0  0  0  0  0  5  0  0
    2.1872    1.3290   -0.0933 H   0  0  0  0  0  0  0  0  0  6  0  0
    0.7385   -1.3970   -0.1643 H   0  0  0  0  0  0  0  0  0  7  0  0
   -0.3340    1.4795   -0.1783 H   0  0  0  0  0  0  0  0  0  8  0  0
   -1.6704   -1.3186   -0.2461 H   0  0  0  0  0  0  0  0  0  9  0  0
   -2.3404    0.0713    0.6191 H   0  0  0  0  0  0  0  0  0 10  0  0
   -2.2805    0.0851   -1.1331 H   0  0  0  0  0  0  0  0  0 11  0  0
  1  5  1  0
  1  6  1  0
  1  2  1  0
  2  7  1  0
  2  3  1  0
  3  4  1  0
  3  8  1  0
  4  9  1  0
  4 10  1  0
  4 11  1  0
M  RAD  1   3   2
M  END
>  <rmg_smiles>  (4) 
[CH2][CH][CH]C

>  <rmg_adjacency_list>  (4) 
multiplicity 2
1  C u0 p0 c0 {2,S} {5,S} {6,S} {7,S}
2  C u1 p0 c0 {1,S} {3,S} {8,S}
3  C u0 p0 c0 {2,S} {4,S} {9,S}
4  C u0 p0 c0 {3,S} {10,S} {11,S}
5  H u0 p0 c0 {1,S}
6  H u0 p0 c0 {1,S}
7  H u0 p0 c0 {1,S}
8  H u0 p0 c0 {2,S}
9  H u0 p0 c0 {3,S}
10 H u0 p0 c0 {4,S}
11 H u0 p0 c0 {4,S}


>  <multiplicity>  (4) 
2

>  <reaction>  (4) 
rxn_1049

>  <type>  (4) 
r1

>  <role_mapnums>  (4) 
{}

>  <role_mapidx>  (4) 
{}

>  <ordered_mapped_smiles>  (4) 
[CH:1]([CH:2]([C:3]([C:4]([H:9])([H:10])[H:11])[H:8])[H:7])([H:5])[H:6]

>  <level_of_theory>  (4) 
wb97xd/def2tzvp

>  <lot_method>  (4) 
wb97xd

>  <lot_basis>  (4) 
def2tzvp

>  <spin_multiplicity>  (4) 
2.0

>  <optical_isomers>  (4) 
1.0

>  <modes>  (4) 
IdealGasTranslation(mass=(55.0548, 'amu')),         NonlinearRotor(             inertia = ([13.1906, 125.273, 135.366

>  <frequency_value>  (4) 
unknown

>  <frequency_units>  (4) 
unknown

>  <frequency_list>  (4) 
unknown

>  <arkane_path>  (4) 
/home/calvin/Dropbox/PersonalFolders/Calvin/HAb_Converged/rxn_1049/output/Species/rxn_1049_C=C[CH]C/arkane/output.py

>  <path_exists>  (4) 
True

>  <E0_value>  (4) 
-410861.3152330692

>  <E0_units>  (4) 
kJ/mol

>  <thermo_class>  (4) 
NASA

>  <Cp0_value>  (4) 
33.257888

>  <Cp0_units>  (4) 
J/(mol*K)

>  <CpInf_value>  (4) 
257.748632

>  <CpInf_units>  (4) 
J/(mol*K)

>  <Tmin_value>  (4) 
10.0

>  <Tmin_units>  (4) 
K

>  <Tmax_value>  (4) 
3000.0

>  <Tmax_units>  (4) 
K

>  <polynomials>  (4) 
[{"name": "polynomial1", "class": "NASAPolynomial", "Tmin_value": 10.0, "Tmin_units": "K", "Tmax_value": 463.6393307218724, "Tmax_units": "K", "coeffs": [3.9040427866109826, 0.008185983411080414, 7.727991952880457e-05, -1.3744264793304484e-07, 7.688975074355223e-11, -49415200.70388584, 8.995587426851019]}, {"name": "polynomial2", "class": "NASAPolynomial", "Tmin_value": 463.6393307218724, "Tmin_units": "K", "Tmax_value": 3000.0, "Tmax_units": "K", "coeffs": [0.3179549217714686, 0.039124611253892716, -2.281509301051405e-05, 6.484032923156998e-09, -7.173482644836273e-13, -49414868.17391742, 23.539944648157388]}]

>  <H298_value>  (4) 
-98194.28584360852

>  <H298_units>  (4) 
kcal/mol

>  <S298_value>  (4) 
71.63337428638437

>  <S298_units>  (4) 
cal/(mol*K)

>  <Cp_T_value_list>  (4) 
[20.32293445175687, 25.26787004109902, 29.6931518167585, 33.55769976572619, 39.8275597158211, 44.50181601093726, 51.51425090015371, 55.048594012523054, 56.90855371865896]

>  <Cp_T_units>  (4) 
cal/(mol*K)

>  <T_list>  (4) 
[300.0, 400.0, 500.0, 600.0, 800.0, 1000.0, 1500.0, 2000.0, 2400.0]

>  <T_units>  (4) 
K

>  <yaml_path>  (4) 
/home/calvin/Dropbox/PersonalFolders/Calvin/HAb_Converged/rxn_1049/output/Species/rxn_1049_C=C[CH]C/rxn_1049_C=CCHC.yml

>  <frequencies_cm1>  (4) 
[145.86850216744, 217.17527773031998, 290.56274984515994, 508.82301125604, 544.53820190536, 739.89020028872, 798.30764440596, 881.33636391008, 988.4682018873999, 989.4158458615598, 1023.15334473872, 1138.3744914229999, 1188.9155033782, 1281.84641571376, 1335.3196304005999, 1400.47358711676, 1459.61893167792, 1463.37517264796, 1502.4895210306797, 1514.45180945812, 2991.0802637736797, 3039.3139686613595, 3086.1330745731198, 3108.55378164292, 3124.5401234678798, 3127.2937845812003, 3223.3011063401195]

>  <ZPE_kJmol>  (4) 
245.90815043438468

>  <E_elec_kJmol>  (4) 
-411107.2233835036

>  <E0_minus_Eelec_plus_ZPE_kJmol>  (4) 
0.0

>  <rxn>  (4) 
rxn_1049

>  <species_type>  (4) 
p1

>  <species_folder>  (4) 
rxn_1049_C=C[CH]C

>  <frequencies_cm1_list>  (4) 
[145.86850216744, 217.17527773031998, 290.56274984515994, 508.82301125604, 544.53820190536, 739.89020028872, 798.30764440596, 881.33636391008, 988.4682018873999, 989.4158458615598, 1023.15334473872, 1138.3744914229999, 1188.9155033782, 1281.84641571376, 1335.3196304005999, 1400.47358711676, 1459.61893167792, 1463.37517264796, 1502.4895210306797, 1514.45180945812, 2991.0802637736797, 3039.3139686613595, 3086.1330745731198, 3108.55378164292, 3124.5401234678798, 3127.2937845812003, 3223.3011063401195]

>  <E0_kJmol>  (4) 
-410861

>  <H298_kJmol>  (4) 
-410845

$$$$

     RDKit          3D

  8  7  0  0  0  0  0  0  0  0999 V2000
   -2.2129    0.4855    0.7390 C   0  0  0  0  0  0  0  0  0  1  0  0
   -1.2226    0.0526    0.1974 C   0  0  0  0  0  0  0  0  0  2  0  0
   -0.1006   -0.4575   -0.4419 C   0  0  0  0  0  3  0  0  0  3  0  0
    1.1960   -0.1737   -0.0342 C   0  0  0  0  0  0  0  0  0  4  0  0
    2.3329    0.0603    0.3036 C   0  0  0  0  0  0  0  0  0  5  0  0
   -3.0803    0.8696    1.2198 H   0  0  0  0  0  0  0  0  0  6  0  0
   -0.2433   -1.1067   -1.2980 H   0  0  0  0  0  0  0  0  0  7  0  0
    3.3308    0.2700    0.6058 H   0  0  0  0  0  0  0  0  0  8  0  0
  1  6  1  0
  1  2  1  0
  2  3  1  0
  3  4  1  0
  3  7  1  0
  4  5  1  0
  5  8  1  0
M  RAD  1   3   2
M  END
>  <rmg_smiles>  (5) 
[CH]C[CH]C[CH]

>  <rmg_adjacency_list>  (5) 
multiplicity 2
1 C u1 p0 c0 {2,S} {3,S} {6,S}
2 C u0 p1 c0 {1,S} {4,S}
3 C u0 p1 c0 {1,S} {5,S}
4 C u0 p1 c0 {2,S} {7,S}
5 C u0 p1 c0 {3,S} {8,S}
6 H u0 p0 c0 {1,S}
7 H u0 p0 c0 {4,S}
8 H u0 p0 c0 {5,S}


>  <multiplicity>  (5) 
2

>  <reaction>  (5) 
rxn_1049

>  <type>  (5) 
r2

>  <role_mapnums>  (5) 
{}

>  <role_mapidx>  (5) 
{}

>  <ordered_mapped_smiles>  (5) 
[CH2:1]([CH2:2][C:3]([CH2:4][CH2:5][H:8])[H:7])[H:6]

>  <level_of_theory>  (5) 
wb97xd/def2tzvp

>  <lot_method>  (5) 
wb97xd

>  <lot_basis>  (5) 
def2tzvp

>  <spin_multiplicity>  (5) 
2.0

>  <optical_isomers>  (5) 
1.0

>  <modes>  (5) 
IdealGasTranslation(mass=(63.0235, 'amu')),         NonlinearRotor(             inertia = ([17.4877, 183.017, 200.505

>  <frequency_value>  (5) 
unknown

>  <frequency_units>  (5) 
unknown

>  <frequency_list>  (5) 
unknown

>  <arkane_path>  (5) 
/home/calvin/Dropbox/PersonalFolders/Calvin/HAb_Converged/rxn_1049/output/Species/rxn_1049_CtC[CH]CtC/arkane/output.py

>  <path_exists>  (5) 
True

>  <E0_value>  (5) 
-504350.2602594301

>  <E0_units>  (5) 
kJ/mol

>  <thermo_class>  (5) 
NASA

>  <Cp0_value>  (5) 
33.257888

>  <Cp0_units>  (5) 
J/(mol*K)

>  <CpInf_value>  (5) 
182.918384

>  <CpInf_units>  (5) 
J/(mol*K)

>  <Tmin_value>  (5) 
10.0

>  <Tmin_units>  (5) 
K

>  <Tmax_value>  (5) 
3000.0

>  <Tmax_units>  (5) 
K

>  <polynomials>  (5) 
[{"name": "polynomial1", "class": "NASAPolynomial", "Tmin_value": 10.0, "Tmin_units": "K", "Tmax_value": 511.3919089489883, "Tmax_units": "K", "coeffs": [3.8659954757573973, 0.008525616172306112, 0.00010836986673963408, -2.626119315958765e-07, 1.8230598905311024e-10, -60659320.69120562, 8.776064020238547]}, {"name": "polynomial2", "class": "NASAPolynomial", "Tmin_value": 511.3919089489883, "Tmin_units": "K", "Tmax_value": 3000.0, "Tmax_units": "K", "coeffs": [5.628254952966442, 0.022649494843224656, -1.4916539685924306e-05, 4.8216558906608004e-09, -6.002662773476099e-13, -60659865.858327985, -2.111983316915381]}]

>  <H298_value>  (5) 
-120538.51368508991

>  <H298_units>  (5) 
kcal/mol

>  <S298_value>  (5) 
71.92961318485641

>  <S298_units>  (5) 
cal/(mol*K)

>  <Cp_T_value_list>  (5) 
[20.99111005886384, 24.790978026499133, 27.40139790751197, 29.433868246293493, 32.638046849521324, 34.940256474405714, 38.30245845445545, 40.20133175263048, 41.34770744760823]

>  <Cp_T_units>  (5) 
cal/(mol*K)

>  <T_list>  (5) 
[300.0, 400.0, 500.0, 600.0, 800.0, 1000.0, 1500.0, 2000.0, 2400.0]

>  <T_units>  (5) 
K

>  <yaml_path>  (5) 
/home/calvin/Dropbox/PersonalFolders/Calvin/HAb_Converged/rxn_1049/output/Species/rxn_1049_CtC[CH]CtC/rxn_1049_CtCCHCtC.yml

>  <frequencies_cm1>  (5) 
[140.92427273703998, 354.42571332116, 356.18366156308, 383.39752438624004, 580.9812929985999, 582.4370938864399, 598.9659275516799, 670.81519495484, 678.8701687352, 681.5894949219199, 955.0809192615599, 1115.22588390928, 1366.0425227222797, 2023.89971637828, 2119.4194821794795, 3149.0140591483596, 3426.6737435772397, 3430.6016591802795]

>  <ZPE_kJmol>  (5) 
135.26507637113028

>  <E_elec_kJmol>  (5) 
-504485.5253358012

>  <E0_minus_Eelec_plus_ZPE_kJmol>  (5) 
0.0

>  <rxn>  (5) 
rxn_1049

>  <species_type>  (5) 
r0

>  <species_folder>  (5) 
rxn_1049_CtC[CH]CtC

>  <frequencies_cm1_list>  (5) 
[140.92427273703998, 354.42571332116, 356.18366156308, 383.39752438624004, 580.9812929985999, 582.4370938864399, 598.9659275516799, 670.81519495484, 678.8701687352, 681.5894949219199, 955.0809192615599, 1115.22588390928, 1366.0425227222797, 2023.89971637828, 2119.4194821794795, 3149.0140591483596, 3426.6737435772397, 3430.6016591802795]

>  <E0_kJmol>  (5) 
-504350

>  <H298_kJmol>  (5) 
-504333

$$$$
