
     RDKit          3D

  8  7  0  0  0  0  0  0  0  0999 V2000
   -0.0379    0.0683   -0.7499 C   0  0  0  0  0  0  0  0  0  1  0  0
    0.0373   -0.1102    0.7355 C   0  0  0  0  0  0  0  0  0  2  0  0
   -0.9502    0.5900   -1.0432 H   0  0  0  0  0  0  0  0  0  3  0  0
    0.8107    0.6430   -1.1249 H   0  0  0  0  0  0  0  0  0  4  0  0
   -0.0327   -0.8997   -1.2639 H   0  0  0  0  0  0  0  0  0  5  0  0
    0.0485    0.9014    1.1348 H   0  0  0  0  0  0  0  0  0  6  0  0
    0.9687   -0.5131    1.1270 H   0  0  0  0  0  0  0  0  0  7  0  0
   -0.8413   -0.5324    1.2182 H   0  0  0  0  0  0  0  0  0  8  0  0
  1  5  1  0
  1  4  1  0
  1  3  1  0
  1  2  1  0
  2  7  1  0
  2  8  1  0
  2  6  1  0
M  END
>  <rmg_smiles>  (1) 
CC

>  <rmg_adjacency_list>  (1) 
1 C u0 p0 c0 {2,S} {3,S} {4,S} {5,S}
2 C u0 p0 c0 {1,S} {6,S} {7,S} {8,S}
3 H u0 p0 c0 {1,S}
4 H u0 p0 c0 {1,S}
5 H u0 p0 c0 {1,S}
6 H u0 p0 c0 {2,S}
7 H u0 p0 c0 {2,S}
8 H u0 p0 c0 {2,S}


>  <multiplicity>  (1) 
1

>  <reaction>  (1) 
rxn_908

>  <type>  (1) 
r1h

>  <role_mapnums>  (1) 
{"r1h_a": 2, "r1h_h": 6}

>  <role_mapidx>  (1) 
{"r1h_a": 1, "r1h_h": 5}

>  <ordered_mapped_smiles>  (1) 
[C:1]([C:2]([H:6])([H:7])[H:8])([H:3])([H:4])[H:5]

>  <mol_properties>  (1) 
{"1": {"label": "donator", "atom_type": "Cs"}, "5": {"label": "d_hydrogen", "atom_type": "H0"}}

>  <level_of_theory>  (1) 
wb97xd/def2tzvp

>  <lot_method>  (1) 
wb97xd

>  <lot_basis>  (1) 
def2tzvp

>  <spin_multiplicity>  (1) 
1.0

>  <optical_isomers>  (1) 
1.0

>  <modes>  (1) 
IdealGasTranslation(mass=(30.0469, 'amu')),         NonlinearRotor(             inertia = ([6.25566, 25.1393, 25.1393

>  <frequency_value>  (1) 
unknown

>  <frequency_units>  (1) 
unknown

>  <frequency_list>  (1) 
unknown

>  <arkane_path>  (1) 
/home/calvin/Dropbox/PersonalFolders/Calvin/HAb_Converged/rxn_908/output/Species/rxn_908_CC/arkane/output.py

>  <path_exists>  (1) 
True

>  <E0_value>  (1) 
-209409.0952137841

>  <E0_units>  (1) 
kJ/mol

>  <thermo_class>  (1) 
NASA

>  <Cp0_value>  (1) 
33.257888

>  <Cp0_units>  (1) 
J/(mol*K)

>  <CpInf_value>  (1) 
182.918384

>  <CpInf_units>  (1) 
J/(mol*K)

>  <Tmin_value>  (1) 
10.0

>  <Tmin_units>  (1) 
K

>  <Tmax_value>  (1) 
3000.0

>  <Tmax_units>  (1) 
K

>  <polynomials>  (1) 
[{"name": "polynomial1", "class": "NASAPolynomial", "Tmin_value": 10.0, "Tmin_units": "K", "Tmax_value": 746.6686841225998, "Tmax_units": "K", "coeffs": [4.05949155328205, -0.003835565665241399, 5.3186040380635144e-05, -6.162047637406245e-08, 2.3242210517060023e-11, -25186098.42214424, 3.537324504259843]}, {"name": "polynomial2", "class": "NASAPolynomial", "Tmin_value": 746.6686841225998, "Tmin_units": "K", "Tmax_value": 3000.0, "Tmax_units": "K", "coeffs": [-1.046496014036793, 0.026500176421266477, -1.3747367898389822e-05, 3.490635384402257e-09, -3.493819827122593e-13, -25185419.059970565, 26.122432242478077]}]

>  <H298_value>  (1) 
-50047.2003571238

>  <H298_units>  (1) 
kcal/mol

>  <S298_value>  (1) 
54.420548043106656

>  <S298_units>  (1) 
cal/(mol*K)

>  <Cp_T_value_list>  (1) 
[12.360572544544063, 15.274308747535915, 18.259044378417013, 21.07888414556187, 25.832548078118208, 29.50517950077797, 35.34115403896942, 38.351806873475496, 39.80767330504735]

>  <Cp_T_units>  (1) 
cal/(mol*K)

>  <T_list>  (1) 
[300.0, 400.0, 500.0, 600.0, 800.0, 1000.0, 1500.0, 2000.0, 2400.0]

>  <T_units>  (1) 
K

>  <yaml_path>  (1) 
/home/calvin/Dropbox/PersonalFolders/Calvin/HAb_Converged/rxn_908/output/Species/rxn_908_CC/rxn_908_CC.yml

>  <frequencies_cm1>  (1) 
[304.49586305944, 822.3970289085198, 822.4107628791601, 1005.43652261312, 1210.79371860772, 1210.8005855930398, 1393.77140944444, 1414.4616362136, 1489.39418002544, 1489.4010470107598, 1490.3006220876798, 1490.3006220876798, 3015.21771717348, 3016.07609033848, 3072.8111230523195, 3072.8179900376404, 3096.4266855677993, 3096.4335525531196]

>  <ZPE_kJmol>  (1) 
194.47545128409476

>  <E_elec_kJmol>  (1) 
-209603.57066506823

>  <E0_minus_Eelec_plus_ZPE_kJmol>  (1) 
0.0

>  <rxn>  (1) 
rxn_908

>  <species_type>  (1) 
r1

>  <species_folder>  (1) 
rxn_908_CC

>  <frequencies_cm1_list>  (1) 
[304.49586305944, 822.3970289085198, 822.4107628791601, 1005.43652261312, 1210.79371860772, 1210.8005855930398, 1393.77140944444, 1414.4616362136, 1489.39418002544, 1489.4010470107598, 1490.3006220876798, 1490.3006220876798, 3015.21771717348, 3016.07609033848, 3072.8111230523195, 3072.8179900376404, 3096.4266855677993, 3096.4335525531196]

>  <E0_kJmol>  (1) 
-209409

>  <H298_kJmol>  (1) 
-209397

$$$$

     RDKit          3D

  6  5  0  0  0  0  0  0  0  0999 V2000
    0.0878    0.5955   -1.3359 S   0  0  0  0  0  0  0  0  0  1  0  0
   -0.0058   -0.5477   -0.2223 C   0  0  0  0  0  0  0  0  0  2  0  0
   -0.0742   -0.4288    1.1708 C   0  0  0  0  0  2  0  0  0  3  0  0
   -0.1360   -0.4275    2.3727 C   0  0  0  0  0  2  0  0  0  4  0  0
   -0.1895   -0.3969    3.4350 H   0  0  0  0  0  0  0  0  0  5  0  0
   -0.0209   -1.5894   -0.5428 H   0  0  0  0  0  0  0  0  0  6  0  0
  1  2  1  0
  2  6  1  0
  2  3  1  0
  3  4  1  0
  4  5  1  0
M  RAD  2   3   3   4   3
M  END
>  <rmg_smiles>  (2) 
[CH][C][CH][S]

>  <rmg_adjacency_list>  (2) 
1 S u0 p2 c0 {2,S}
2 C u0 p0 c0 {1,S} {3,S} {5,S}
3 C u0 p1 c0 {2,S} {4,S}
4 C u0 p1 c0 {3,S} {6,S}
5 H u0 p0 c0 {2,S}
6 H u0 p0 c0 {4,S}


>  <multiplicity>  (2) 
1

>  <reaction>  (2) 
rxn_908

>  <type>  (2) 
r2h

>  <role_mapnums>  (2) 
{"r2h_a": 2, "r2h_h": 6}

>  <role_mapidx>  (2) 
{"r2h_a": 1, "r2h_h": 5}

>  <ordered_mapped_smiles>  (2) 
[SH:1][CH:2]([C:3][C:4][H:5])[H:6]

>  <mol_properties>  (2) 
{"1": {"label": "acceptor", "atom_type": "Cs"}, "5": {"label": "a_hydrogen", "atom_type": "H0"}}

>  <level_of_theory>  (2) 
wb97xd/def2tzvp

>  <lot_method>  (2) 
wb97xd

>  <lot_basis>  (2) 
def2tzvp

>  <spin_multiplicity>  (2) 
1.0

>  <optical_isomers>  (2) 
1.0

>  <modes>  (2) 
IdealGasTranslation(mass=(69.9877, 'amu')),         NonlinearRotor(             inertia = ([11.6212, 161.614, 173.235

>  <frequency_value>  (2) 
unknown

>  <frequency_units>  (2) 
unknown

>  <frequency_list>  (2) 
unknown

>  <arkane_path>  (2) 
/home/calvin/Dropbox/PersonalFolders/Calvin/HAb_Converged/rxn_908/output/Species/rxn_908_S=CCtC/arkane/output.py

>  <path_exists>  (2) 
True

>  <E0_value>  (2) 
-1348403.2166827258

>  <E0_units>  (2) 
kJ/mol

>  <thermo_class>  (2) 
NASA

>  <Cp0_value>  (2) 
33.257888

>  <Cp0_units>  (2) 
J/(mol*K)

>  <CpInf_value>  (2) 
133.031552

>  <CpInf_units>  (2) 
J/(mol*K)

>  <Tmin_value>  (2) 
10.0

>  <Tmin_units>  (2) 
K

>  <Tmax_value>  (2) 
3000.0

>  <Tmax_units>  (2) 
K

>  <polynomials>  (2) 
[{"name": "polynomial1", "class": "NASAPolynomial", "Tmin_value": 10.0, "Tmin_units": "K", "Tmax_value": 526.1931186551269, "Tmax_units": "K", "coeffs": [3.9344179530593837, 0.004065911246821127, 6.553703840412658e-05, -1.443495918647441e-07, 9.394913877894461e-11, -162175444.89571163, 8.726396833892856]}, {"name": "polynomial2", "class": "NASAPolynomial", "Tmin_value": 526.1931186551269, "Tmin_units": "K", "Tmax_value": 3000.0, "Tmax_units": "K", "coeffs": [4.093919333345027, 0.01690723381309554, -1.1131975130527351e-05, 3.5450645767000207e-09, -4.3283902101660573e-13, -162175656.24187788, 6.210553362827294]}]

>  <H298_value>  (2) 
-322272.7386756088

>  <H298_units>  (2) 
kcal/mol

>  <S298_value>  (2) 
67.91208442892471

>  <S298_units>  (2) 
cal/(mol*K)

>  <Cp_T_value_list>  (2) 
[15.73087337153612, 18.308993297637482, 20.229276045615624, 21.740807345987587, 24.110825163743634, 25.79672956901056, 28.180916020636673, 29.441614337399088, 30.200603661820587]

>  <Cp_T_units>  (2) 
cal/(mol*K)

>  <T_list>  (2) 
[300.0, 400.0, 500.0, 600.0, 800.0, 1000.0, 1500.0, 2000.0, 2400.0]

>  <T_units>  (2) 
K

>  <yaml_path>  (2) 
/home/calvin/Dropbox/PersonalFolders/Calvin/HAb_Converged/rxn_908/output/Species/rxn_908_S=CCtC/rxn_908_S=CCtC.yml

>  <frequencies_cm1>  (2) 
[195.80521941447998, 323.02298945279995, 518.06597349676, 673.6855948186, 732.2953145248, 869.92343430824, 913.78286954708, 1131.63797882408, 1352.94031473172, 2194.1048145197997, 3080.7287571262796, 3429.86689175104]

>  <ZPE_kJmol>  (2) 
92.2073468060466

>  <E_elec_kJmol>  (2) 
-1348495.424029532

>  <E0_minus_Eelec_plus_ZPE_kJmol>  (2) 
0.0

>  <rxn>  (2) 
rxn_908

>  <species_type>  (2) 
p0

>  <species_folder>  (2) 
rxn_908_S=CCtC

>  <frequencies_cm1_list>  (2) 
[195.80521941447998, 323.02298945279995, 518.06597349676, 673.6855948186, 732.2953145248, 869.92343430824, 913.78286954708, 1131.63797882408, 1352.94031473172, 2194.1048145197997, 3080.7287571262796, 3429.86689175104]

>  <E0_kJmol>  (2) 
-1.3484e+06

>  <H298_kJmol>  (2) 
-1.34839e+06

$$$$

     RDKit          3D

 13 11  0  0  0  0  0  0  0  0999 V2000
    0.1582    1.4358   -0.8367 S   0  0  0  0  0  0  0  0  0  1  0  0
    0.0646    0.2926    0.2769 C   0  0  0  0  0  0  0  0  0  2  0  0
   -0.0037    0.4115    1.6700 C   0  0  0  0  0  0  0  0  0  3  0  0
   -0.0656    0.4128    2.8719 C   0  0  0  0  0  0  0  0  0  4  0  0
   -0.1191    0.4434    3.9342 H   0  0  0  0  0  0  0  0  0  5  0  0
   -0.0430   -2.0806   -2.1087 C   0  0  0  0  0  0  0  0  0  6  0  0
    0.0321   -2.2591   -0.6233 C   0  0  0  0  0  3  0  0  0  7  0  0
   -0.9553   -1.5589   -2.4020 H   0  0  0  0  0  0  0  0  0  8  0  0
    0.8056   -1.5059   -2.4837 H   0  0  0  0  0  0  0  0  0  9  0  0
   -0.0378   -3.0486   -2.6228 H   0  0  0  0  0  0  0  0  0 10  0  0
    0.0468   -0.9372   -0.1015 H   0  0  0  0  0  0  0  0  0 11  0  0
    0.9635   -2.6620   -0.2318 H   0  0  0  0  0  0  0  0  0 12  0  0
   -0.8464   -2.6813   -0.1407 H   0  0  0  0  0  0  0  0  0 13  0  0
  1  2  1  0
  2 11  1  0
  2  3  1  0
  3  4  1  0
  4  5  1  0
  6  8  1  0
  6  9  1  0
  6  7  1  0
  6 10  1  0
  7 13  1  0
  7 12  1  0
M  RAD  1   7   2
M  END
>  <rmg_smiles>  (3) 
[CH][C][CH][S].[CH2]C

>  <rmg_adjacency_list>  (3) 
multiplicity 2
1  S u0 p2 c0 {4,S}
2  C u0 p0 c0 {3,S} {7,S} {8,S} {9,S}
3  C u1 p0 c0 {2,S} {10,S} {11,S}
4  C u0 p0 c0 {1,S} {5,S} {12,S}
5  C u0 p1 c0 {4,S} {6,S}
6  C u0 p1 c0 {5,S} {13,S}
7  H u0 p0 c0 {2,S}
8  H u0 p0 c0 {2,S}
9  H u0 p0 c0 {2,S}
10 H u0 p0 c0 {3,S}
11 H u0 p0 c0 {3,S}
12 H u0 p0 c0 {4,S}
13 H u0 p0 c0 {6,S}


>  <multiplicity>  (3) 
2

>  <reaction>  (3) 
rxn_908

>  <type>  (3) 
ts

>  <role_mapnums>  (3) 
{"*2": 11, "*1": 2, "*3": 7, "*0": 1, "*4": 6}

>  <role_mapidx>  (3) 
{"*2": 10, "*1": 1, "*3": 6, "*0": 0, "*4": 5}

>  <ordered_mapped_smiles>  (3) 
[SH:1][CH:2]([CH2:3][CH2:4][H:5])[H:11].[C:6]([C:7]([H:12])[H:13])([H:8])([H:9])[H:10]

>  <mol_properties>  (3) 
{"0": {"label": "*0", "atom_type": "S2s"}, "1": {"label": "*1", "atom_type": "Cs"}, "5": {"label": "*4", "atom_type": "Cs"}, "6": {"label": "*3", "atom_type": "Cs"}, "10": {"label": "*2", "atom_type": "H0"}}

>  <level_of_theory>  (3) 
wb97xd/def2tzvp

>  <lot_method>  (3) 
wb97xd

>  <lot_basis>  (3) 
def2tzvp

>  <spin_multiplicity>  (3) 
2.0

>  <optical_isomers>  (3) 
2.0

>  <modes>  (3) 
IdealGasTranslation(mass=(99.0268, 'amu')),         NonlinearRotor(             inertia = ([159.995, 308.981, 462.192

>  <frequency_value>  (3) 
-1679.04

>  <frequency_units>  (3) 
cm^-1

>  <frequency_list>  (3) 
unknown

>  <arkane_path>  (3) 
/home/calvin/Dropbox/PersonalFolders/Calvin/HAb_Converged/rxn_908/output/rxns/TS0/arkane/output.py

>  <path_exists>  (3) 
True

>  <E0_value>  (3) 
-1556060.0

>  <E0_units>  (3) 
kJ/mol

>  <thermo_class>  (3) 
unknown

>  <Cp0_value>  (3) 
unknown

>  <Cp0_units>  (3) 
unknown

>  <CpInf_value>  (3) 
unknown

>  <CpInf_units>  (3) 
unknown

>  <Tmin_value>  (3) 
unknown

>  <Tmin_units>  (3) 
unknown

>  <Tmax_value>  (3) 
unknown

>  <Tmax_units>  (3) 
unknown

>  <polynomials>  (3) 
unknown

>  <H298_value>  (3) 
unknown

>  <H298_units>  (3) 
unknown

>  <S298_value>  (3) 
unknown

>  <S298_units>  (3) 
unknown

>  <Cp_T_value_list>  (3) 
unknown

>  <Cp_T_units>  (3) 
unknown

>  <T_list>  (3) 
unknown

>  <T_units>  (3) 
unknown

>  <yaml_path>  (3) 
unknown

>  <frequencies_cm1>  (3) 
unknown

>  <ZPE_kJmol>  (3) 
unknown

>  <E_elec_kJmol>  (3) 
unknown

>  <E0_minus_Eelec_plus_ZPE_kJmol>  (3) 
unknown

>  <rxn>  (3) 
unknown

>  <species_type>  (3) 
unknown

>  <species_folder>  (3) 
unknown

>  <frequencies_cm1_list>  (3) 
[]

>  <ts_imag_freq_cm1>  (3) 
-1699.4376

>  <ts_freq_out_path>  (3) 
/home/calvin/Dropbox/PersonalFolders/Calvin/HAb_Converged/rxn_908/output/rxns/TS0/geometry/freq.out

>  <E0_kJmol>  (3) 
-1.55606e+06

>  <H298_kJmol>  (3) 
unknown

$$$$

     RDKit          3D

  7  6  0  0  0  0  0  0  0  0999 V2000
   -0.6201    0.0189   -0.0017 C   0  0  0  0  0  0  0  0  0  1  0  0
    0.8589   -0.0553    0.0500 C   0  0  0  0  0  3  0  0  0  2  0  0
   -1.0738   -0.9730   -0.0559 H   0  0  0  0  0  0  0  0  0  3  0  0
   -0.9680    0.5706   -0.8872 H   0  0  0  0  0  0  0  0  0  4  0  0
   -1.0303    0.5369    0.8678 H   0  0  0  0  0  0  0  0  0  5  0  0
    1.3939   -0.8386   -0.4695 H   0  0  0  0  0  0  0  0  0  6  0  0
    1.4394    0.7404    0.4965 H   0  0  0  0  0  0  0  0  0  7  0  0
  1  5  1  0
  1  4  1  0
  1  3  1  0
  1  2  1  0
  2  7  1  0
  2  6  1  0
M  RAD  1   2   2
M  END
>  <rmg_smiles>  (4) 
C[CH2]

>  <rmg_adjacency_list>  (4) 
multiplicity 2
1 C u0 p0 c0 {2,S} {3,S} {4,S} {5,S}
2 C u1 p0 c0 {1,S} {6,S} {7,S}
3 H u0 p0 c0 {1,S}
4 H u0 p0 c0 {1,S}
5 H u0 p0 c0 {1,S}
6 H u0 p0 c0 {2,S}
7 H u0 p0 c0 {2,S}


>  <multiplicity>  (4) 
2

>  <reaction>  (4) 
rxn_908

>  <type>  (4) 
r1

>  <role_mapnums>  (4) 
{}

>  <role_mapidx>  (4) 
{}

>  <ordered_mapped_smiles>  (4) 
[C:1]([C:2]([H:6])[H:7])([H:3])([H:4])[H:5]

>  <level_of_theory>  (4) 
wb97xd/def2tzvp

>  <lot_method>  (4) 
wb97xd

>  <lot_basis>  (4) 
def2tzvp

>  <spin_multiplicity>  (4) 
2.0

>  <optical_isomers>  (4) 
1.0

>  <modes>  (4) 
IdealGasTranslation(mass=(29.0391, 'amu')),         NonlinearRotor(             inertia = ([4.86051, 22.0602, 23.8144

>  <frequency_value>  (4) 
unknown

>  <frequency_units>  (4) 
unknown

>  <frequency_list>  (4) 
unknown

>  <arkane_path>  (4) 
/home/calvin/Dropbox/PersonalFolders/Calvin/HAb_Converged/rxn_908/output/Species/rxn_908_C[CH2]/arkane/output.py

>  <path_exists>  (4) 
True

>  <E0_value>  (4) 
-207679.78865121285

>  <E0_units>  (4) 
kJ/mol

>  <thermo_class>  (4) 
NASA

>  <Cp0_value>  (4) 
33.257888

>  <Cp0_units>  (4) 
J/(mol*K)

>  <CpInf_value>  (4) 
157.97496800000002

>  <CpInf_units>  (4) 
J/(mol*K)

>  <Tmin_value>  (4) 
10.0

>  <Tmin_units>  (4) 
K

>  <Tmax_value>  (4) 
3000.0

>  <Tmax_units>  (4) 
K

>  <polynomials>  (4) 
[{"name": "polynomial1", "class": "NASAPolynomial", "Tmin_value": 10.0, "Tmin_units": "K", "Tmax_value": 487.87976470861213, "Tmax_units": "K", "coeffs": [3.9121871353579607, 0.009303342355112522, -1.0632548237956822e-05, 4.8831908404358495e-08, -4.7450160133634566e-11, -24978109.370781355, 5.932423398139755]}, {"name": "polynomial2", "class": "NASAPolynomial", "Tmin_value": 487.87976470861213, "Tmin_units": "K", "Tmax_value": 3000.0, "Tmax_units": "K", "coeffs": [1.255601804674027, 0.02015925973571526, -1.042095542288469e-05, 2.645655029251924e-09, -2.6467461504495006e-13, -24977720.132981308, 18.174806831505954]}]

>  <H298_value>  (4) 
-49633.563072244775

>  <H298_units>  (4) 
kcal/mol

>  <S298_value>  (4) 
61.32124798502571

>  <S298_units>  (4) 
cal/(mol*K)

>  <Cp_T_value_list>  (4) 
[13.275286080102546, 15.585331501205383, 17.97260864331377, 20.143861899983392, 23.766518336877798, 26.578661465366384, 31.07297867985595, 33.426295758137194, 34.588101279891]

>  <Cp_T_units>  (4) 
cal/(mol*K)

>  <T_list>  (4) 
[300.0, 400.0, 500.0, 600.0, 800.0, 1000.0, 1500.0, 2000.0, 2400.0]

>  <T_units>  (4) 
K

>  <yaml_path>  (4) 
/home/calvin/Dropbox/PersonalFolders/Calvin/HAb_Converged/rxn_908/output/Species/rxn_908_C[CH2]/rxn_908_CCH2.yml

>  <frequencies_cm1>  (4) 
[107.07690209476, 475.05117745227994, 809.2398850354, 971.27327064612, 1064.95268438156, 1183.6279246817999, 1386.8220203006, 1452.9442219468801, 1466.90480310244, 1470.74344789632, 2948.7315653052397, 3035.3173832051198, 3081.4978594821196, 3128.7358514984, 3230.1062887922394]

>  <ZPE_kJmol>  (4) 
154.3962225328414

>  <E_elec_kJmol>  (4) 
-207834.1848737457

>  <E0_minus_Eelec_plus_ZPE_kJmol>  (4) 
0.0

>  <rxn>  (4) 
rxn_908

>  <species_type>  (4) 
p1

>  <species_folder>  (4) 
rxn_908_C[CH2]

>  <frequencies_cm1_list>  (4) 
[107.07690209476, 475.05117745227994, 809.2398850354, 971.27327064612, 1064.95268438156, 1183.6279246817999, 1386.8220203006, 1452.9442219468801, 1466.90480310244, 1470.74344789632, 2948.7315653052397, 3035.3173832051198, 3081.4978594821196, 3128.7358514984, 3230.1062887922394]

>  <E0_kJmol>  (4) 
-207680

>  <H298_kJmol>  (4) 
-207667

$$$$

     RDKit          3D

  5  4  0  0  0  0  0  0  0  0999 V2000
    2.6215   -0.7329   -0.0432 S   0  0  0  0  0  0  0  0  0  1  0  0
    1.1451   -0.2888    0.0676 C   0  0  0  0  0  3  0  0  0  2  0  0
   -0.1275    0.0446    0.1771 C   0  0  0  0  0  0  0  0  0  3  0  0
   -1.3027    0.3736    0.2722 C   0  0  0  0  0  0  0  0  0  4  0  0
   -2.3365    0.6036    0.3729 H   0  0  0  0  0  0  0  0  0  5  0  0
  1  2  1  0
  2  3  1  0
  3  4  1  0
  4  5  1  0
M  RAD  1   2   2
M  END
>  <rmg_smiles>  (5) 
[CH][C][C][S]

>  <rmg_adjacency_list>  (5) 
multiplicity 2
1 S u0 p2 c0 {3,S}
2 C u0 p1 c0 {3,S} {4,S}
3 C u1 p1 c0 {1,S} {2,S}
4 C u0 p1 c0 {2,S} {5,S}
5 H u0 p0 c0 {4,S}


>  <multiplicity>  (5) 
2

>  <reaction>  (5) 
rxn_908

>  <type>  (5) 
r2

>  <role_mapnums>  (5) 
{}

>  <role_mapidx>  (5) 
{}

>  <ordered_mapped_smiles>  (5) 
[SH:1][CH:2][CH2:3][CH2:4][H:5]

>  <level_of_theory>  (5) 
wb97xd/def2tzvp

>  <lot_method>  (5) 
wb97xd

>  <lot_basis>  (5) 
def2tzvp

>  <spin_multiplicity>  (5) 
2.0

>  <optical_isomers>  (5) 
2.0

>  <modes>  (5) 
IdealGasTranslation(mass=(68.9799, 'amu')),         NonlinearRotor(             inertia = ([0.0119001, 188.024, 188.036

>  <frequency_value>  (5) 
unknown

>  <frequency_units>  (5) 
unknown

>  <frequency_list>  (5) 
unknown

>  <arkane_path>  (5) 
/home/calvin/Dropbox/PersonalFolders/Calvin/HAb_Converged/rxn_908/output/Species/rxn_908_S=[C]CtC/arkane/output.py

>  <path_exists>  (5) 
True

>  <E0_value>  (5) 
-1346751.2428592036

>  <E0_units>  (5) 
kJ/mol

>  <thermo_class>  (5) 
NASA

>  <Cp0_value>  (5) 
33.257888

>  <Cp0_units>  (5) 
J/(mol*K)

>  <CpInf_value>  (5) 
108.088136

>  <CpInf_units>  (5) 
J/(mol*K)

>  <Tmin_value>  (5) 
10.0

>  <Tmin_units>  (5) 
K

>  <Tmax_value>  (5) 
3000.0

>  <Tmax_units>  (5) 
K

>  <polynomials>  (5) 
[{"name": "polynomial1", "class": "NASAPolynomial", "Tmin_value": 10.0, "Tmin_units": "K", "Tmax_value": 922.5812499145281, "Tmax_units": "K", "coeffs": [3.63840361918561, 0.024912976235281534, -3.9263600344985394e-05, 3.174205615062753e-08, -9.883113453910877e-12, -161976752.72754613, 7.433317986109292]}, {"name": "polynomial2", "class": "NASAPolynomial", "Tmin_value": 922.5812499145281, "Tmin_units": "K", "Tmax_value": 3000.0, "Tmax_units": "K", "coeffs": [6.310945678723453, 0.008583553394070215, -5.0038405893079355e-06, 1.4141395358406266e-09, -1.5514106468263652e-13, -161977044.03797936, -4.15103681440582]}]

>  <H298_value>  (5) 
-321877.4763298714

>  <H298_units>  (5) 
kcal/mol

>  <S298_value>  (5) 
67.76939745730432

>  <S298_units>  (5) 
cal/(mol*K)

>  <Cp_T_value_list>  (5) 
[16.604212729842924, 18.083384307777873, 19.134918862929887, 19.925174814419172, 21.151607135226843, 22.156670783697535, 23.677473525536016, 24.42982121086733, 24.822611304188037]

>  <Cp_T_units>  (5) 
cal/(mol*K)

>  <T_list>  (5) 
[300.0, 400.0, 500.0, 600.0, 800.0, 1000.0, 1500.0, 2000.0, 2400.0]

>  <T_units>  (5) 
K

>  <yaml_path>  (5) 
/home/calvin/Dropbox/PersonalFolders/Calvin/HAb_Converged/rxn_908/output/Species/rxn_908_S=[C]CtC/rxn_908_S=CCtC.yml

>  <frequencies_cm1>  (5) 
[92.04507122927998, 176.19997632588, 366.01031755599996, 372.07386559356, 662.80829007172, 708.5630132588799, 1576.03493380788, 2015.6456000236399, 3423.81707768412]

>  <ZPE_kJmol>  (5) 
56.18381786392832

>  <E_elec_kJmol>  (5) 
-1346807.4266770675

>  <E0_minus_Eelec_plus_ZPE_kJmol>  (5) 
0.0

>  <rxn>  (5) 
rxn_908

>  <species_type>  (5) 
r0

>  <species_folder>  (5) 
rxn_908_S=[C]CtC

>  <frequencies_cm1_list>  (5) 
[92.04507122927998, 176.19997632588, 366.01031755599996, 372.07386559356, 662.80829007172, 708.5630132588799, 1576.03493380788, 2015.6456000236399, 3423.81707768412]

>  <E0_kJmol>  (5) 
-1.34675e+06

>  <H298_kJmol>  (5) 
-1.34674e+06

$$$$
