
     RDKit          3D

  8  7  0  0  0  0  0  0  0  0999 V2000
    0.1340    0.0577   -0.7427 C   0  0  0  0  0  0  0  0  0  1  0  0
   -0.1353   -0.0853    0.7326 C   0  0  0  0  0  0  0  0  0  2  0  0
   -0.6153    0.6910   -1.2217 H   0  0  0  0  0  0  0  0  0  3  0  0
    1.1136    0.5044   -0.9241 H   0  0  0  0  0  0  0  0  0  4  0  0
    0.1169   -0.9114   -1.2504 H   0  0  0  0  0  0  0  0  0  5  0  0
   -0.1017    0.9141    1.1638 H   0  0  0  0  0  0  0  0  0  6  0  0
    0.6280   -0.6330    1.2833 H   0  0  0  0  0  0  0  0  0  7  0  0
   -1.1336   -0.4430    0.9802 H   0  0  0  0  0  0  0  0  0  8  0  0
  1  5  1  0
  1  4  1  0
  1  3  1  0
  1  2  1  0
  2  8  1  0
  2  7  1  0
  2  6  1  0
M  END
>  <rmg_smiles>  (1) 
CC

>  <rmg_adjacency_list>  (1) 
1 C u0 p0 c0 {2,S} {3,S} {4,S} {5,S}
2 C u0 p0 c0 {1,S} {6,S} {7,S} {8,S}
3 H u0 p0 c0 {1,S}
4 H u0 p0 c0 {1,S}
5 H u0 p0 c0 {1,S}
6 H u0 p0 c0 {2,S}
7 H u0 p0 c0 {2,S}
8 H u0 p0 c0 {2,S}


>  <multiplicity>  (1) 
1

>  <reaction>  (1) 
rxn_215

>  <type>  (1) 
r1h

>  <role_mapnums>  (1) 
{"r1h_a": 2, "r1h_h": 6}

>  <role_mapidx>  (1) 
{"r1h_a": 1, "r1h_h": 5}

>  <ordered_mapped_smiles>  (1) 
[C:1]([C:2]([H:6])([H:7])[H:8])([H:3])([H:4])[H:5]

>  <mol_properties>  (1) 
{"1": {"label": "donator", "atom_type": "Cs"}, "5": {"label": "d_hydrogen", "atom_type": "H0"}}

>  <level_of_theory>  (1) 
wb97xd/def2tzvp

>  <lot_method>  (1) 
wb97xd

>  <lot_basis>  (1) 
def2tzvp

>  <spin_multiplicity>  (1) 
1.0

>  <optical_isomers>  (1) 
1.0

>  <modes>  (1) 
IdealGasTranslation(mass=(30.0469, 'amu')),         NonlinearRotor(             inertia = ([6.25566, 25.1393, 25.1393

>  <frequency_value>  (1) 
unknown

>  <frequency_units>  (1) 
unknown

>  <frequency_list>  (1) 
unknown

>  <arkane_path>  (1) 
/home/calvin/Dropbox/PersonalFolders/Calvin/HAb_Converged/rxn_215/output/Species/rxn_215_CC/arkane/output.py

>  <path_exists>  (1) 
True

>  <E0_value>  (1) 
-209409.0952137841

>  <E0_units>  (1) 
kJ/mol

>  <thermo_class>  (1) 
NASA

>  <Cp0_value>  (1) 
33.257888

>  <Cp0_units>  (1) 
J/(mol*K)

>  <CpInf_value>  (1) 
182.918384

>  <CpInf_units>  (1) 
J/(mol*K)

>  <Tmin_value>  (1) 
10.0

>  <Tmin_units>  (1) 
K

>  <Tmax_value>  (1) 
3000.0

>  <Tmax_units>  (1) 
K

>  <polynomials>  (1) 
[{"name": "polynomial1", "class": "NASAPolynomial", "Tmin_value": 10.0, "Tmin_units": "K", "Tmax_value": 746.6686841225998, "Tmax_units": "K", "coeffs": [4.05949155328205, -0.003835565665241399, 5.3186040380635144e-05, -6.162047637406245e-08, 2.3242210517060023e-11, -25186098.42214424, 3.537324504259843]}, {"name": "polynomial2", "class": "NASAPolynomial", "Tmin_value": 746.6686841225998, "Tmin_units": "K", "Tmax_value": 3000.0, "Tmax_units": "K", "coeffs": [-1.046496014036793, 0.026500176421266477, -1.3747367898389822e-05, 3.490635384402257e-09, -3.493819827122593e-13, -25185419.059970565, 26.122432242478077]}]

>  <H298_value>  (1) 
-50047.2003571238

>  <H298_units>  (1) 
kcal/mol

>  <S298_value>  (1) 
54.420548043106656

>  <S298_units>  (1) 
cal/(mol*K)

>  <Cp_T_value_list>  (1) 
[12.360572544544063, 15.274308747535915, 18.259044378417013, 21.07888414556187, 25.832548078118208, 29.50517950077797, 35.34115403896942, 38.351806873475496, 39.80767330504735]

>  <Cp_T_units>  (1) 
cal/(mol*K)

>  <T_list>  (1) 
[300.0, 400.0, 500.0, 600.0, 800.0, 1000.0, 1500.0, 2000.0, 2400.0]

>  <T_units>  (1) 
K

>  <yaml_path>  (1) 
/home/calvin/Dropbox/PersonalFolders/Calvin/HAb_Converged/rxn_215/output/Species/rxn_215_CC/rxn_215_CC.yml

>  <frequencies_cm1>  (1) 
[304.49586305944, 822.3970289085198, 822.4107628791601, 1005.43652261312, 1210.79371860772, 1210.8005855930398, 1393.77140944444, 1414.4616362136, 1489.39418002544, 1489.4010470107598, 1490.3006220876798, 1490.3006220876798, 3015.21771717348, 3016.07609033848, 3072.8111230523195, 3072.8179900376404, 3096.4266855677993, 3096.4335525531196]

>  <ZPE_kJmol>  (1) 
194.47545128409476

>  <E_elec_kJmol>  (1) 
-209603.57066506823

>  <E0_minus_Eelec_plus_ZPE_kJmol>  (1) 
0.0

>  <rxn>  (1) 
rxn_215

>  <species_type>  (1) 
r0

>  <species_folder>  (1) 
rxn_215_CC

>  <frequencies_cm1_list>  (1) 
[304.49586305944, 822.3970289085198, 822.4107628791601, 1005.43652261312, 1210.79371860772, 1210.8005855930398, 1393.77140944444, 1414.4616362136, 1489.39418002544, 1489.4010470107598, 1490.3006220876798, 1490.3006220876798, 3015.21771717348, 3016.07609033848, 3072.8111230523195, 3072.8179900376404, 3096.4266855677993, 3096.4335525531196]

>  <E0_kJmol>  (1) 
-209409

>  <H298_kJmol>  (1) 
-209397

$$$$

     RDKit          3D

  5  4  0  0  0  0  0  0  0  0999 V2000
   -0.0446   -0.9883   -0.3606 H   0  0  0  0  0  0  0  0  0  1  0  0
    0.0014    0.0311    0.0115 C   0  0  0  0  0  0  0  0  0  2  0  0
   -0.7748    0.5630   -0.5312 H   0  0  0  0  0  0  0  0  0  3  0  0
    1.0057    0.3709   -0.2247 H   0  0  0  0  0  0  0  0  0  4  0  0
   -0.1907   -0.0492    1.0774 H   0  0  0  0  0  0  0  0  0  5  0  0
  1  2  1  0
  2  5  1  0
  2  3  1  0
  2  4  1  0
M  END
>  <rmg_smiles>  (2) 
C

>  <rmg_adjacency_list>  (2) 
1 H u0 p0 c0 {2,S}
2 C u0 p0 c0 {1,S} {3,S} {4,S} {5,S}
3 H u0 p0 c0 {2,S}
4 H u0 p0 c0 {2,S}
5 H u0 p0 c0 {2,S}


>  <multiplicity>  (2) 
1

>  <reaction>  (2) 
rxn_215

>  <type>  (2) 
r2h

>  <role_mapnums>  (2) 
{"r2h_a": 2, "r2h_h": 1}

>  <role_mapidx>  (2) 
{"r2h_a": 1, "r2h_h": 0}

>  <ordered_mapped_smiles>  (2) 
[H:1][C:2]([H:3])([H:4])[H:5]

>  <mol_properties>  (2) 
{"0": {"label": "a_hydrogen", "atom_type": "H0"}, "1": {"label": "acceptor", "atom_type": "Cs"}}

>  <level_of_theory>  (2) 
wb97xd/def2tzvp

>  <lot_method>  (2) 
wb97xd

>  <lot_basis>  (2) 
def2tzvp

>  <spin_multiplicity>  (2) 
1.0

>  <optical_isomers>  (2) 
1.0

>  <modes>  (2) 
IdealGasTranslation(mass=(16.0313, 'amu')),         NonlinearRotor(             inertia = ([3.18679, 3.18679, 3.18679

>  <frequency_value>  (2) 
unknown

>  <frequency_units>  (2) 
unknown

>  <frequency_list>  (2) 
unknown

>  <arkane_path>  (2) 
/home/calvin/Dropbox/PersonalFolders/Calvin/HAb_Converged/rxn_215/output/Species/rxn_215_C/arkane/output.py

>  <path_exists>  (2) 
True

>  <E0_value>  (2) 
-106268.5262916272

>  <E0_units>  (2) 
kJ/mol

>  <thermo_class>  (2) 
NASA

>  <Cp0_value>  (2) 
33.257888

>  <Cp0_units>  (2) 
J/(mol*K)

>  <CpInf_value>  (2) 
108.088136

>  <CpInf_units>  (2) 
J/(mol*K)

>  <Tmin_value>  (2) 
10.0

>  <Tmin_units>  (2) 
K

>  <Tmax_value>  (2) 
3000.0

>  <Tmax_units>  (2) 
K

>  <polynomials>  (2) 
[{"name": "polynomial1", "class": "NASAPolynomial", "Tmin_value": 10.0, "Tmin_units": "K", "Tmax_value": 616.7595780986624, "Tmax_units": "K", "coeffs": [4.041420799946622, -0.002477807655966685, 1.1290457802459216e-05, 3.700688819348292e-09, -9.366412561864162e-12, -12781153.318458663, -0.42637433538586406]}, {"name": "polynomial2", "class": "NASAPolynomial", "Tmin_value": 616.7595780986624, "Tmin_units": "K", "Tmax_value": 3000.0, "Tmax_units": "K", "coeffs": [0.6800320423470843, 0.011684066325645743, -4.5749540261290126e-06, 7.694671628924811e-10, -3.8768177461555664e-14, -12780593.404419335, 15.343675764562182]}]

>  <H298_value>  (2) 
-25396.41264990868

>  <H298_units>  (2) 
kcal/mol

>  <S298_value>  (2) 
44.46392088520575

>  <S298_units>  (2) 
cal/(mol*K)

>  <Cp_T_value_list>  (2) 
[8.621039065772948, 9.645572285350525, 10.934239595808906, 12.330144838344452, 14.859142397339834, 16.9306880471269, 20.49440393107996, 22.423230884533538, 23.291918246513866]

>  <Cp_T_units>  (2) 
cal/(mol*K)

>  <T_list>  (2) 
[300.0, 400.0, 500.0, 600.0, 800.0, 1000.0, 1500.0, 2000.0, 2400.0]

>  <T_units>  (2) 
K

>  <yaml_path>  (2) 
/home/calvin/Dropbox/PersonalFolders/Calvin/HAb_Converged/rxn_215/output/Species/rxn_215_C/rxn_215_C.yml

>  <frequencies_cm1>  (2) 
[1326.5504901469599, 1326.5504901469599, 1326.5504901469599, 1542.24249904816, 1542.24249904816, 3008.8382878112, 3127.32125252248, 3127.32125252248, 3127.32125252248]

>  <ZPE_kJmol>  (2) 
116.36640738144024

>  <E_elec_kJmol>  (2) 
-106384.89269900863

>  <E0_minus_Eelec_plus_ZPE_kJmol>  (2) 
0.0

>  <rxn>  (2) 
rxn_215

>  <species_type>  (2) 
p1

>  <species_folder>  (2) 
rxn_215_C

>  <frequencies_cm1_list>  (2) 
[1326.5504901469599, 1326.5504901469599, 1326.5504901469599, 1542.24249904816, 1542.24249904816, 3008.8382878112, 3127.32125252248, 3127.32125252248, 3127.32125252248]

>  <E0_kJmol>  (2) 
-106269

>  <H298_kJmol>  (2) 
-106259

$$$$

     RDKit          3D

 12 10  0  0  0  0  0  0  0  0999 V2000
    0.1546   -0.7989   -1.3150 C   0  0  0  0  0  0  0  0  0  1  0  0
   -0.1147   -0.9418    0.1603 C   0  0  0  0  0  0  0  0  0  2  0  0
   -0.5947   -0.1656   -1.7940 H   0  0  0  0  0  0  0  0  0  3  0  0
    1.1341   -0.3521   -1.4965 H   0  0  0  0  0  0  0  0  0  4  0  0
    0.1374   -1.7679   -1.8227 H   0  0  0  0  0  0  0  0  0  5  0  0
   -0.0742    0.2641    0.6805 H   0  0  0  0  0  0  0  0  0  6  0  0
    0.6485   -1.4895    0.7110 H   0  0  0  0  0  0  0  0  0  7  0  0
   -1.1131   -1.2995    0.4078 H   0  0  0  0  0  0  0  0  0  8  0  0
   -0.0162    1.5500    1.1499 C   0  0  0  0  0  3  0  0  0  9  0  0
   -0.7924    2.0819    0.6072 H   0  0  0  0  0  0  0  0  0 10  0  0
    0.9881    1.8898    0.9137 H   0  0  0  0  0  0  0  0  0 11  0  0
   -0.2083    1.4697    2.2158 H   0  0  0  0  0  0  0  0  0 12  0  0
  1  5  1  0
  1  4  1  0
  1  3  1  0
  1  2  1  0
  2  8  1  0
  2  7  1  0
  2  6  1  0
  9 12  1  0
  9 10  1  0
  9 11  1  0
M  RAD  1   9   2
M  END
>  <rmg_smiles>  (3) 
CC.[CH3]

>  <rmg_adjacency_list>  (3) 
multiplicity 2
1  C u0 p0 c0 {2,S} {4,S} {5,S} {6,S}
2  C u0 p0 c0 {1,S} {7,S} {8,S} {9,S}
3  C u1 p0 c0 {10,S} {11,S} {12,S}
4  H u0 p0 c0 {1,S}
5  H u0 p0 c0 {1,S}
6  H u0 p0 c0 {1,S}
7  H u0 p0 c0 {2,S}
8  H u0 p0 c0 {2,S}
9  H u0 p0 c0 {2,S}
10 H u0 p0 c0 {3,S}
11 H u0 p0 c0 {3,S}
12 H u0 p0 c0 {3,S}


>  <multiplicity>  (3) 
2

>  <reaction>  (3) 
rxn_215

>  <type>  (3) 
ts

>  <role_mapnums>  (3) 
{"*2": 6, "*1": 2, "*3": 9, "*0": 1, "*4": 10}

>  <role_mapidx>  (3) 
{"*2": 5, "*1": 1, "*3": 8, "*0": 0, "*4": 9}

>  <ordered_mapped_smiles>  (3) 
[C:1]([C:2]([H:6])([H:7])[H:8])([H:3])([H:4])[H:5].[C:9]([H:10])([H:11])[H:12]

>  <mol_properties>  (3) 
{"0": {"label": "*0", "atom_type": "Cs"}, "1": {"label": "*1", "atom_type": "Cs"}, "5": {"label": "*2", "atom_type": "H0"}, "8": {"label": "*3", "atom_type": "Cs"}, "9": {"label": "*4", "atom_type": "H0"}}

>  <level_of_theory>  (3) 
wb97xd/def2tzvp

>  <lot_method>  (3) 
wb97xd

>  <lot_basis>  (3) 
def2tzvp

>  <spin_multiplicity>  (3) 
2.0

>  <optical_isomers>  (3) 
1.0

>  <modes>  (3) 
IdealGasTranslation(mass=(45.0704, 'amu')),         NonlinearRotor(             inertia = ([22.6148, 105.303, 118.198

>  <frequency_value>  (3) 
-1699.45

>  <frequency_units>  (3) 
cm^-1

>  <frequency_list>  (3) 
unknown

>  <arkane_path>  (3) 
/home/calvin/Dropbox/PersonalFolders/Calvin/HAb_Converged/rxn_215/output/rxns/TS0/arkane/output.py

>  <path_exists>  (3) 
True

>  <E0_value>  (3) 
-313877.0

>  <E0_units>  (3) 
kJ/mol

>  <thermo_class>  (3) 
unknown

>  <Cp0_value>  (3) 
unknown

>  <Cp0_units>  (3) 
unknown

>  <CpInf_value>  (3) 
unknown

>  <CpInf_units>  (3) 
unknown

>  <Tmin_value>  (3) 
unknown

>  <Tmin_units>  (3) 
unknown

>  <Tmax_value>  (3) 
unknown

>  <Tmax_units>  (3) 
unknown

>  <polynomials>  (3) 
unknown

>  <H298_value>  (3) 
unknown

>  <H298_units>  (3) 
unknown

>  <S298_value>  (3) 
unknown

>  <S298_units>  (3) 
unknown

>  <Cp_T_value_list>  (3) 
unknown

>  <Cp_T_units>  (3) 
unknown

>  <T_list>  (3) 
unknown

>  <T_units>  (3) 
unknown

>  <yaml_path>  (3) 
unknown

>  <frequencies_cm1>  (3) 
unknown

>  <ZPE_kJmol>  (3) 
unknown

>  <E_elec_kJmol>  (3) 
unknown

>  <E0_minus_Eelec_plus_ZPE_kJmol>  (3) 
unknown

>  <rxn>  (3) 
unknown

>  <species_type>  (3) 
unknown

>  <species_folder>  (3) 
unknown

>  <frequencies_cm1_list>  (3) 
[]

>  <ts_imag_freq_cm1>  (3) 
-1720.0931

>  <ts_freq_out_path>  (3) 
/home/calvin/Dropbox/PersonalFolders/Calvin/HAb_Converged/rxn_215/output/rxns/TS0/geometry/freq.out

>  <E0_kJmol>  (3) 
-313877

>  <H298_kJmol>  (3) 
unknown

$$$$

     RDKit          3D

  7  6  0  0  0  0  0  0  0  0999 V2000
   -0.6201    0.0189   -0.0017 C   0  0  0  0  0  0  0  0  0  1  0  0
    0.8589   -0.0553    0.0500 C   0  0  0  0  0  3  0  0  0  2  0  0
   -1.0738   -0.9730   -0.0559 H   0  0  0  0  0  0  0  0  0  3  0  0
   -0.9680    0.5706   -0.8872 H   0  0  0  0  0  0  0  0  0  4  0  0
   -1.0303    0.5369    0.8678 H   0  0  0  0  0  0  0  0  0  5  0  0
    1.3939   -0.8386   -0.4695 H   0  0  0  0  0  0  0  0  0  6  0  0
    1.4394    0.7404    0.4965 H   0  0  0  0  0  0  0  0  0  7  0  0
  1  5  1  0
  1  4  1  0
  1  3  1  0
  1  2  1  0
  2  7  1  0
  2  6  1  0
M  RAD  1   2   2
M  END
>  <rmg_smiles>  (4) 
C[CH2]

>  <rmg_adjacency_list>  (4) 
multiplicity 2
1 C u0 p0 c0 {2,S} {3,S} {4,S} {5,S}
2 C u1 p0 c0 {1,S} {6,S} {7,S}
3 H u0 p0 c0 {1,S}
4 H u0 p0 c0 {1,S}
5 H u0 p0 c0 {1,S}
6 H u0 p0 c0 {2,S}
7 H u0 p0 c0 {2,S}


>  <multiplicity>  (4) 
2

>  <reaction>  (4) 
rxn_215

>  <type>  (4) 
r1

>  <role_mapnums>  (4) 
{}

>  <role_mapidx>  (4) 
{}

>  <ordered_mapped_smiles>  (4) 
[C:1]([C:2]([H:6])[H:7])([H:3])([H:4])[H:5]

>  <level_of_theory>  (4) 
wb97xd/def2tzvp

>  <lot_method>  (4) 
wb97xd

>  <lot_basis>  (4) 
def2tzvp

>  <spin_multiplicity>  (4) 
2.0

>  <optical_isomers>  (4) 
1.0

>  <modes>  (4) 
IdealGasTranslation(mass=(29.0391, 'amu')),         NonlinearRotor(             inertia = ([4.86051, 22.0602, 23.8144

>  <frequency_value>  (4) 
unknown

>  <frequency_units>  (4) 
unknown

>  <frequency_list>  (4) 
unknown

>  <arkane_path>  (4) 
/home/calvin/Dropbox/PersonalFolders/Calvin/HAb_Converged/rxn_215/output/Species/rxn_215_C[CH2]/arkane/output.py

>  <path_exists>  (4) 
True

>  <E0_value>  (4) 
-207679.78865121285

>  <E0_units>  (4) 
kJ/mol

>  <thermo_class>  (4) 
NASA

>  <Cp0_value>  (4) 
33.257888

>  <Cp0_units>  (4) 
J/(mol*K)

>  <CpInf_value>  (4) 
157.97496800000002

>  <CpInf_units>  (4) 
J/(mol*K)

>  <Tmin_value>  (4) 
10.0

>  <Tmin_units>  (4) 
K

>  <Tmax_value>  (4) 
3000.0

>  <Tmax_units>  (4) 
K

>  <polynomials>  (4) 
[{"name": "polynomial1", "class": "NASAPolynomial", "Tmin_value": 10.0, "Tmin_units": "K", "Tmax_value": 487.87976470861213, "Tmax_units": "K", "coeffs": [3.9121871353579607, 0.009303342355112522, -1.0632548237956822e-05, 4.8831908404358495e-08, -4.7450160133634566e-11, -24978109.370781355, 5.932423398139755]}, {"name": "polynomial2", "class": "NASAPolynomial", "Tmin_value": 487.87976470861213, "Tmin_units": "K", "Tmax_value": 3000.0, "Tmax_units": "K", "coeffs": [1.255601804674027, 0.02015925973571526, -1.042095542288469e-05, 2.645655029251924e-09, -2.6467461504495006e-13, -24977720.132981308, 18.174806831505954]}]

>  <H298_value>  (4) 
-49633.563072244775

>  <H298_units>  (4) 
kcal/mol

>  <S298_value>  (4) 
61.32124798502571

>  <S298_units>  (4) 
cal/(mol*K)

>  <Cp_T_value_list>  (4) 
[13.275286080102546, 15.585331501205383, 17.97260864331377, 20.143861899983392, 23.766518336877798, 26.578661465366384, 31.07297867985595, 33.426295758137194, 34.588101279891]

>  <Cp_T_units>  (4) 
cal/(mol*K)

>  <T_list>  (4) 
[300.0, 400.0, 500.0, 600.0, 800.0, 1000.0, 1500.0, 2000.0, 2400.0]

>  <T_units>  (4) 
K

>  <yaml_path>  (4) 
/home/calvin/Dropbox/PersonalFolders/Calvin/HAb_Converged/rxn_215/output/Species/rxn_215_C[CH2]/rxn_215_CCH2.yml

>  <frequencies_cm1>  (4) 
[107.07690209476, 475.05117745227994, 809.2398850354, 971.27327064612, 1064.95268438156, 1183.6279246817999, 1386.8220203006, 1452.9442219468801, 1466.90480310244, 1470.74344789632, 2948.7315653052397, 3035.3173832051198, 3081.4978594821196, 3128.7358514984, 3230.1062887922394]

>  <ZPE_kJmol>  (4) 
154.3962225328414

>  <E_elec_kJmol>  (4) 
-207834.1848737457

>  <E0_minus_Eelec_plus_ZPE_kJmol>  (4) 
0.0

>  <rxn>  (4) 
rxn_215

>  <species_type>  (4) 
p0

>  <species_folder>  (4) 
rxn_215_C[CH2]

>  <frequencies_cm1_list>  (4) 
[107.07690209476, 475.05117745227994, 809.2398850354, 971.27327064612, 1064.95268438156, 1183.6279246817999, 1386.8220203006, 1452.9442219468801, 1466.90480310244, 1470.74344789632, 2948.7315653052397, 3035.3173832051198, 3081.4978594821196, 3128.7358514984, 3230.1062887922394]

>  <E0_kJmol>  (4) 
-207680

>  <H298_kJmol>  (4) 
-207667

$$$$

     RDKit          3D

  4  3  0  0  0  0  0  0  0  0999 V2000
    0.0000    0.0000    0.0000 C   0  0  0  0  0  3  0  0  0  1  0  0
    1.0638   -0.1747    0.0540 H   0  0  0  0  0  0  0  0  0  2  0  0
   -0.6833   -0.8351   -0.0280 H   0  0  0  0  0  0  0  0  0  3  0  0
   -0.3805    1.0098   -0.0260 H   0  0  0  0  0  0  0  0  0  4  0  0
  1  3  1  0
  1  4  1  0
  1  2  1  0
M  RAD  1   1   2
M  END
>  <rmg_smiles>  (5) 
[CH3]

>  <rmg_adjacency_list>  (5) 
multiplicity 2
1 C u1 p0 c0 {2,S} {3,S} {4,S}
2 H u0 p0 c0 {1,S}
3 H u0 p0 c0 {1,S}
4 H u0 p0 c0 {1,S}


>  <multiplicity>  (5) 
2

>  <reaction>  (5) 
rxn_215

>  <type>  (5) 
r2

>  <role_mapnums>  (5) 
{}

>  <role_mapidx>  (5) 
{}

>  <ordered_mapped_smiles>  (5) 
[C:1]([H:2])([H:3])[H:4]

>  <level_of_theory>  (5) 
wb97xd/def2tzvp

>  <lot_method>  (5) 
wb97xd

>  <lot_basis>  (5) 
def2tzvp

>  <spin_multiplicity>  (5) 
2.0

>  <optical_isomers>  (5) 
1.0

>  <modes>  (5) 
IdealGasTranslation(mass=(15.0235, 'amu')),         NonlinearRotor(             inertia = ([1.76141, 1.76141, 3.52282

>  <frequency_value>  (5) 
unknown

>  <frequency_units>  (5) 
unknown

>  <frequency_list>  (5) 
unknown

>  <arkane_path>  (5) 
/home/calvin/Dropbox/PersonalFolders/Calvin/HAb_Converged/rxn_215/output/Species/rxn_215_[CH3]/arkane/output.py

>  <path_exists>  (5) 
True

>  <E0_value>  (5) 
-104520.13119505512

>  <E0_units>  (5) 
kJ/mol

>  <thermo_class>  (5) 
NASA

>  <Cp0_value>  (5) 
33.257888

>  <Cp0_units>  (5) 
J/(mol*K)

>  <CpInf_value>  (5) 
83.14472

>  <CpInf_units>  (5) 
J/(mol*K)

>  <Tmin_value>  (5) 
10.0

>  <Tmin_units>  (5) 
K

>  <Tmax_value>  (5) 
3000.0

>  <Tmax_units>  (5) 
K

>  <polynomials>  (5) 
[{"name": "polynomial1", "class": "NASAPolynomial", "Tmin_value": 10.0, "Tmin_units": "K", "Tmax_value": 646.6680568167106, "Tmax_units": "K", "coeffs": [3.9912271000461548, 0.0004274218009639198, 9.38132315134313e-06, -1.0944874554220949e-08, 4.263406085556096e-12, -12570867.748368958, 0.20527673099681187]}, {"name": "polynomial2", "class": "NASAPolynomial", "Tmin_value": 646.6680568167106, "Tmin_units": "K", "Tmax_value": 3000.0, "Tmax_units": "K", "coeffs": [3.2488827598675174, 0.0050187516265713635, -1.2675301815554908e-06, 3.215102013021586e-11, 2.0164394281080815e-14, -12570771.728238096, 3.4631324604304954]}]

>  <H298_value>  (5) 
-24978.383291331436

>  <H298_units>  (5) 
kcal/mol

>  <S298_value>  (5) 
46.49953999396709

>  <S298_units>  (5) 
cal/(mol*K)

>  <Cp_T_value_list>  (5) 
[9.345424201068383, 10.07887042200736, 10.827537754048599, 11.552428339520182, 12.871902382304132, 14.014614114932202, 16.167234911840477, 17.479674567657305, 18.096247059343543]

>  <Cp_T_units>  (5) 
cal/(mol*K)

>  <T_list>  (5) 
[300.0, 400.0, 500.0, 600.0, 800.0, 1000.0, 1500.0, 2000.0, 2400.0]

>  <T_units>  (5) 
K

>  <yaml_path>  (5) 
/home/calvin/Dropbox/PersonalFolders/Calvin/HAb_Converged/rxn_215/output/Species/rxn_215_[CH3]/rxn_215_CH3.yml

>  <frequencies_cm1>  (5) 
[520.22220688724, 1393.4280601784399, 1393.43492716376, 3088.8592677451597, 3268.6163424668, 3268.6232094521197]

>  <ZPE_kJmol>  (5) 
77.35764153782172

>  <E_elec_kJmol>  (5) 
-104597.48883659294

>  <E0_minus_Eelec_plus_ZPE_kJmol>  (5) 
0.0

>  <rxn>  (5) 
rxn_215

>  <species_type>  (5) 
r1

>  <species_folder>  (5) 
rxn_215_[CH3]

>  <frequencies_cm1_list>  (5) 
[520.22220688724, 1393.4280601784399, 1393.43492716376, 3088.8592677451597, 3268.6163424668, 3268.6232094521197]

>  <E0_kJmol>  (5) 
-104520

>  <H298_kJmol>  (5) 
-104510

$$$$
