
     RDKit          3D

  7  6  0  0  0  0  0  0  0  0999 V2000
    0.0733   -0.4104   -1.1318 C   0  0  0  0  0  0  0  0  0  1  0  0
   -0.0167   -0.4695    0.2832 O   0  0  0  0  0  0  0  0  0  2  0  0
   -0.1167    0.7891    0.7732 O   0  0  0  0  0  0  0  0  0  3  0  0
    0.9661    0.1464   -1.4279 H   0  0  0  0  0  0  0  0  0  4  0  0
   -0.8143    0.0702   -1.5451 H   0  0  0  0  0  0  0  0  0  5  0  0
    0.1377   -1.4454   -1.4647 H   0  0  0  0  0  0  0  0  0  6  0  0
    0.7677    0.9995    1.0820 H   0  0  0  0  0  0  0  0  0  7  0  0
  1  6  1  0
  1  5  1  0
  1  4  1  0
  1  2  1  0
  2  3  1  0
  3  7  1  0
M  END
>  <rmg_smiles>  (1) 
COO

>  <rmg_adjacency_list>  (1) 
1 O u0 p2 c0 {2,S} {3,S}
2 O u0 p2 c0 {1,S} {7,S}
3 C u0 p0 c0 {1,S} {4,S} {5,S} {6,S}
4 H u0 p0 c0 {3,S}
5 H u0 p0 c0 {3,S}
6 H u0 p0 c0 {3,S}
7 H u0 p0 c0 {2,S}


>  <multiplicity>  (1) 
1

>  <reaction>  (1) 
rxn_208

>  <type>  (1) 
r1h

>  <role_mapnums>  (1) 
{"r1h_a": 3, "r1h_h": 7}

>  <role_mapidx>  (1) 
{"r1h_a": 2, "r1h_h": 6}

>  <ordered_mapped_smiles>  (1) 
[C:1]([O:2][O:3][H:7])([H:4])([H:5])[H:6]

>  <mol_properties>  (1) 
{"2": {"label": "donator", "atom_type": "O2s"}, "6": {"label": "d_hydrogen", "atom_type": "H0"}}

>  <level_of_theory>  (1) 
wb97xd/def2tzvp

>  <lot_method>  (1) 
wb97xd

>  <lot_basis>  (1) 
def2tzvp

>  <spin_multiplicity>  (1) 
1.0

>  <optical_isomers>  (1) 
2.0

>  <modes>  (1) 
IdealGasTranslation(mass=(48.0211, 'amu')),         NonlinearRotor(             inertia = ([11.4023, 47.567, 54.3178

>  <frequency_value>  (1) 
unknown

>  <frequency_units>  (1) 
unknown

>  <frequency_list>  (1) 
unknown

>  <arkane_path>  (1) 
/home/calvin/Dropbox/PersonalFolders/Calvin/HAb_Converged/rxn_208/output/Species/rxn_208_COO/arkane/output.py

>  <path_exists>  (1) 
True

>  <E0_value>  (1) 
-500996.37068336905

>  <E0_units>  (1) 
kJ/mol

>  <thermo_class>  (1) 
NASA

>  <Cp0_value>  (1) 
33.257888

>  <Cp0_units>  (1) 
J/(mol*K)

>  <CpInf_value>  (1) 
157.97496800000002

>  <CpInf_units>  (1) 
J/(mol*K)

>  <Tmin_value>  (1) 
10.0

>  <Tmin_units>  (1) 
K

>  <Tmax_value>  (1) 
3000.0

>  <Tmax_units>  (1) 
K

>  <polynomials>  (1) 
[{"name": "polynomial1", "class": "NASAPolynomial", "Tmin_value": 10.0, "Tmin_units": "K", "Tmax_value": 838.5949652474656, "Tmax_units": "K", "coeffs": [3.8926443728626077, 0.009079617057146893, 1.4077594363309796e-05, -2.146343128221017e-08, 8.342945567828501e-12, -60255944.33113838, 7.728034520387312]}, {"name": "polynomial2", "class": "NASAPolynomial", "Tmin_value": 838.5949652474656, "Tmin_units": "K", "Tmax_value": 3000.0, "Tmax_units": "K", "coeffs": [2.424951820258174, 0.019415537920099646, -1.0376022054546496e-05, 2.719325617933143e-09, -2.8021762590741595e-13, -60255815.44373704, 13.851228259507778]}]

>  <H298_value>  (1) 
-119737.72749637083

>  <H298_units>  (1) 
kcal/mol

>  <S298_value>  (1) 
65.70242811461199

>  <S298_units>  (1) 
cal/(mol*K)

>  <Cp_T_value_list>  (1) 
[14.648848115750306, 17.123412840200732, 19.455460441127553, 21.5681321787005, 25.026862972497845, 27.62927597353183, 31.71846133727489, 33.8283402102642, 34.87818629343292]

>  <Cp_T_units>  (1) 
cal/(mol*K)

>  <T_list>  (1) 
[300.0, 400.0, 500.0, 600.0, 800.0, 1000.0, 1500.0, 2000.0, 2400.0]

>  <T_units>  (1) 
K

>  <yaml_path>  (1) 
/home/calvin/Dropbox/PersonalFolders/Calvin/HAb_Converged/rxn_208/output/Species/rxn_208_COO/rxn_208_COO.yml

>  <frequencies_cm1>  (1) 
[198.65501832228, 250.41148667912, 460.30775997024, 925.7657589304799, 1080.95962716248, 1168.36261631544, 1210.90359037284, 1386.59540978504, 1442.64374396688, 1454.0086046714798, 1497.71009924796, 2988.7866906767995, 3061.27458771472, 3102.9846565484, 3780.3372215278796]

>  <ZPE_kJmol>  (1) 
143.60998000405402

>  <E_elec_kJmol>  (1) 
-501139.98066337314

>  <E0_minus_Eelec_plus_ZPE_kJmol>  (1) 
0.0

>  <rxn>  (1) 
rxn_208

>  <species_type>  (1) 
r0

>  <species_folder>  (1) 
rxn_208_COO

>  <frequencies_cm1_list>  (1) 
[198.65501832228, 250.41148667912, 460.30775997024, 925.7657589304799, 1080.95962716248, 1168.36261631544, 1210.90359037284, 1386.59540978504, 1442.64374396688, 1454.0086046714798, 1497.71009924796, 2988.7866906767995, 3061.27458771472, 3102.9846565484, 3780.3372215278796]

>  <E0_kJmol>  (1) 
-500996

>  <H298_kJmol>  (1) 
-500983

$$$$

     RDKit          3D

  4  3  0  0  0  0  0  0  0  0999 V2000
   -1.1229    0.5716   -0.1962 H   0  0  0  0  0  0  0  0  0  1  0  0
   -0.1742    0.6527   -0.0734 O   0  0  0  0  0  0  0  0  0  2  0  0
    0.2176   -0.6324    0.1312 O   0  0  0  0  0  0  0  0  0  3  0  0
    0.6644   -0.8742   -0.6913 H   0  0  0  0  0  0  0  0  0  4  0  0
  1  2  1  0
  2  3  1  0
  3  4  1  0
M  END
>  <rmg_smiles>  (2) 
OO

>  <rmg_adjacency_list>  (2) 
1 H u0 p0 c0 {2,S}
2 O u0 p2 c0 {1,S} {3,S}
3 O u0 p2 c0 {2,S} {4,S}
4 H u0 p0 c0 {3,S}


>  <multiplicity>  (2) 
1

>  <reaction>  (2) 
rxn_208

>  <type>  (2) 
r2h

>  <role_mapnums>  (2) 
{"r2h_a": 2, "r2h_h": 1}

>  <role_mapidx>  (2) 
{"r2h_a": 1, "r2h_h": 0}

>  <ordered_mapped_smiles>  (2) 
[H:1][O:2][O:3][H:4]

>  <mol_properties>  (2) 
{"0": {"label": "a_hydrogen", "atom_type": "H0"}, "1": {"label": "acceptor", "atom_type": "O2s"}}

>  <level_of_theory>  (2) 
wb97xd/def2tzvp

>  <lot_method>  (2) 
wb97xd

>  <lot_basis>  (2) 
def2tzvp

>  <spin_multiplicity>  (2) 
1.0

>  <optical_isomers>  (2) 
2.0

>  <modes>  (2) 
IdealGasTranslation(mass=(34.0055, 'amu')),         NonlinearRotor(             inertia = ([1.6422, 18.4839, 19.1306

>  <frequency_value>  (2) 
unknown

>  <frequency_units>  (2) 
unknown

>  <frequency_list>  (2) 
unknown

>  <arkane_path>  (2) 
/home/calvin/Dropbox/PersonalFolders/Calvin/HAb_Converged/rxn_208/output/Species/rxn_208_OO/arkane/output.py

>  <path_exists>  (2) 
True

>  <E0_value>  (2) 
-397869.6784032715

>  <E0_units>  (2) 
kJ/mol

>  <thermo_class>  (2) 
NASA

>  <Cp0_value>  (2) 
33.257888

>  <Cp0_units>  (2) 
J/(mol*K)

>  <CpInf_value>  (2) 
83.14472

>  <CpInf_units>  (2) 
J/(mol*K)

>  <Tmin_value>  (2) 
10.0

>  <Tmin_units>  (2) 
K

>  <Tmax_value>  (2) 
3000.0

>  <Tmax_units>  (2) 
K

>  <polynomials>  (2) 
[{"name": "polynomial1", "class": "NASAPolynomial", "Tmin_value": 10.0, "Tmin_units": "K", "Tmax_value": 455.78106288096404, "Tmax_units": "K", "coeffs": [3.993411036033662, 0.00039597769380578143, 1.891318343950514e-05, -3.2458663273975925e-08, 1.830389461818306e-11, -47852668.906908266, 4.504010200645888]}, {"name": "polynomial2", "class": "NASAPolynomial", "Tmin_value": 455.78106288096404, "Tmin_units": "K", "Tmax_value": 3000.0, "Tmax_units": "K", "coeffs": [3.1932894099772424, 0.0074090928900088, -4.13817425256861e-06, 1.2156565940750795e-09, -1.433593106081876e-13, -47852595.87875142, 7.736455149271243]}]

>  <H298_value>  (2) 
-95090.51348489316

>  <H298_units>  (2) 
kcal/mol

>  <S298_value>  (2) 
55.5670496873013

>  <S298_units>  (2) 
cal/(mol*K)

>  <Cp_T_value_list>  (2) 
[10.107465812395086, 11.06702468787646, 11.935737360557455, 12.7042208397447, 13.981643941817545, 14.976592388023054, 16.639120825815006, 17.666826111390996, 18.25874653130484]

>  <Cp_T_units>  (2) 
cal/(mol*K)

>  <T_list>  (2) 
[300.0, 400.0, 500.0, 600.0, 800.0, 1000.0, 1500.0, 2000.0, 2400.0]

>  <T_units>  (2) 
K

>  <yaml_path>  (2) 
/home/calvin/Dropbox/PersonalFolders/Calvin/HAb_Converged/rxn_208/output/Species/rxn_208_OO/rxn_208_OO.yml

>  <frequencies_cm1>  (2) 
[384.68165064108, 1007.86056843108, 1337.5514006295998, 1458.46527814416, 3787.7329647175193, 3788.3509933963196]

>  <ZPE_kJmol>  (2) 
70.36821125363778

>  <E_elec_kJmol>  (2) 
-397940.04661452514

>  <E0_minus_Eelec_plus_ZPE_kJmol>  (2) 
0.0

>  <rxn>  (2) 
rxn_208

>  <species_type>  (2) 
p1

>  <species_folder>  (2) 
rxn_208_OO

>  <frequencies_cm1_list>  (2) 
[384.68165064108, 1007.86056843108, 1337.5514006295998, 1458.46527814416, 3787.7329647175193, 3788.3509933963196]

>  <E0_kJmol>  (2) 
-397870

>  <H298_kJmol>  (2) 
-397859

$$$$

     RDKit          3D

 10  8  0  0  0  0  0  0  0  0999 V2000
   -0.8835   -0.5959   -1.7012 C   0  0  0  0  0  0  0  0  0  1  0  0
   -0.9735   -0.6550   -0.2862 O   0  0  0  0  0  0  0  0  0  2  0  0
   -1.0734    0.6036    0.2038 O   0  0  0  0  0  0  0  0  0  3  0  0
    0.0093   -0.0391   -1.9973 H   0  0  0  0  0  0  0  0  0  4  0  0
   -1.7710   -0.1153   -2.1146 H   0  0  0  0  0  0  0  0  0  5  0  0
   -0.8190   -1.6308   -2.0341 H   0  0  0  0  0  0  0  0  0  6  0  0
   -0.0018    0.8586    0.5779 H   0  0  0  0  0  0  0  0  0  7  0  0
    1.1770    0.9593    0.7306 O   0  0  0  0  0  1  0  0  0  8  0  0
    1.5689   -0.3257    0.9351 O   0  0  0  0  0  0  0  0  0  9  0  0
    2.0156   -0.5676    0.1127 H   0  0  0  0  0  0  0  0  0 10  0  0
  1  6  1  0
  1  5  1  0
  1  4  1  0
  1  2  1  0
  2  3  1  0
  3  7  1  0
  8  9  1  0
  9 10  1  0
M  RAD  1   8   2
M  END
>  <rmg_smiles>  (3) 
COO.[O]O

>  <rmg_adjacency_list>  (3) 
multiplicity 2
1  O u0 p2 c0 {2,S} {5,S}
2  O u0 p2 c0 {1,S} {9,S}
3  O u0 p2 c0 {4,S} {10,S}
4  O u1 p2 c0 {3,S}
5  C u0 p0 c0 {1,S} {6,S} {7,S} {8,S}
6  H u0 p0 c0 {5,S}
7  H u0 p0 c0 {5,S}
8  H u0 p0 c0 {5,S}
9  H u0 p0 c0 {2,S}
10 H u0 p0 c0 {3,S}


>  <multiplicity>  (3) 
2

>  <reaction>  (3) 
rxn_208

>  <type>  (3) 
ts

>  <role_mapnums>  (3) 
{"*2": 7, "*1": 3, "*3": 8, "*0": 2, "*4": 9}

>  <role_mapidx>  (3) 
{"*2": 6, "*1": 2, "*3": 7, "*0": 1, "*4": 8}

>  <ordered_mapped_smiles>  (3) 
[C:1]([O:2][O:3][H:7])([H:4])([H:5])[H:6].[O:8][O:9][H:10]

>  <mol_properties>  (3) 
{"1": {"label": "*0", "atom_type": "O2s"}, "2": {"label": "*1", "atom_type": "O2s"}, "6": {"label": "*2", "atom_type": "H0"}, "7": {"label": "*3", "atom_type": "O2s"}, "8": {"label": "*4", "atom_type": "O2s"}}

>  <level_of_theory>  (3) 
wb97xd/def2tzvp

>  <lot_method>  (3) 
wb97xd

>  <lot_basis>  (3) 
def2tzvp

>  <spin_multiplicity>  (3) 
2.0

>  <optical_isomers>  (3) 
2.0

>  <modes>  (3) 
IdealGasTranslation(mass=(81.0188, 'amu')),         NonlinearRotor(             inertia = ([57.5068, 180.653, 205.464

>  <frequency_value>  (3) 
-1995.47

>  <frequency_units>  (3) 
cm^-1

>  <frequency_list>  (3) 
unknown

>  <arkane_path>  (3) 
/home/calvin/Dropbox/PersonalFolders/Calvin/HAb_Converged/rxn_208/output/rxns/TS0/arkane/output.py

>  <path_exists>  (3) 
True

>  <E0_value>  (3) 
-897176.0

>  <E0_units>  (3) 
kJ/mol

>  <thermo_class>  (3) 
unknown

>  <Cp0_value>  (3) 
unknown

>  <Cp0_units>  (3) 
unknown

>  <CpInf_value>  (3) 
unknown

>  <CpInf_units>  (3) 
unknown

>  <Tmin_value>  (3) 
unknown

>  <Tmin_units>  (3) 
unknown

>  <Tmax_value>  (3) 
unknown

>  <Tmax_units>  (3) 
unknown

>  <polynomials>  (3) 
unknown

>  <H298_value>  (3) 
unknown

>  <H298_units>  (3) 
unknown

>  <S298_value>  (3) 
unknown

>  <S298_units>  (3) 
unknown

>  <Cp_T_value_list>  (3) 
unknown

>  <Cp_T_units>  (3) 
unknown

>  <T_list>  (3) 
unknown

>  <T_units>  (3) 
unknown

>  <yaml_path>  (3) 
unknown

>  <frequencies_cm1>  (3) 
unknown

>  <ZPE_kJmol>  (3) 
unknown

>  <E_elec_kJmol>  (3) 
unknown

>  <E0_minus_Eelec_plus_ZPE_kJmol>  (3) 
unknown

>  <rxn>  (3) 
unknown

>  <species_type>  (3) 
unknown

>  <species_folder>  (3) 
unknown

>  <frequencies_cm1_list>  (3) 
[]

>  <ts_imag_freq_cm1>  (3) 
-2019.7083

>  <ts_freq_out_path>  (3) 
/home/calvin/Dropbox/PersonalFolders/Calvin/HAb_Converged/rxn_208/output/rxns/TS0/geometry/freq.out

>  <E0_kJmol>  (3) 
-897176

>  <H298_kJmol>  (3) 
unknown

$$$$

     RDKit          3D

  6  5  0  0  0  0  0  0  0  0999 V2000
   -0.4344    0.0212    0.0006 C   0  0  0  0  0  0  0  0  0  1  0  0
    0.8754    0.5852   -0.1558 O   0  0  0  0  0  0  0  0  0  2  0  0
    1.8009   -0.3034    0.0506 O   0  0  0  0  0  1  0  0  0  3  0  0
   -0.5437   -0.3548    1.0170 H   0  0  0  0  0  0  0  0  0  4  0  0
   -1.1312    0.8347   -0.1903 H   0  0  0  0  0  0  0  0  0  5  0  0
   -0.5670   -0.7829   -0.7220 H   0  0  0  0  0  0  0  0  0  6  0  0
  1  6  1  0
  1  5  1  0
  1  4  1  0
  1  2  1  0
  2  3  1  0
M  RAD  1   3   2
M  END
>  <rmg_smiles>  (4) 
CO[O]

>  <rmg_adjacency_list>  (4) 
multiplicity 2
1 O u0 p2 c0 {2,S} {3,S}
2 O u1 p2 c0 {1,S}
3 C u0 p0 c0 {1,S} {4,S} {5,S} {6,S}
4 H u0 p0 c0 {3,S}
5 H u0 p0 c0 {3,S}
6 H u0 p0 c0 {3,S}


>  <multiplicity>  (4) 
2

>  <reaction>  (4) 
rxn_208

>  <type>  (4) 
r1

>  <role_mapnums>  (4) 
{}

>  <role_mapidx>  (4) 
{}

>  <ordered_mapped_smiles>  (4) 
[C:1]([O:2][O:3])([H:4])([H:5])[H:6]

>  <level_of_theory>  (4) 
wb97xd/def2tzvp

>  <lot_method>  (4) 
wb97xd

>  <lot_basis>  (4) 
def2tzvp

>  <spin_multiplicity>  (4) 
2.0

>  <optical_isomers>  (4) 
1.0

>  <modes>  (4) 
IdealGasTranslation(mass=(47.0133, 'amu')),         NonlinearRotor(             inertia = ([9.40664, 43.9235, 50.0969

>  <frequency_value>  (4) 
unknown

>  <frequency_units>  (4) 
unknown

>  <frequency_list>  (4) 
unknown

>  <arkane_path>  (4) 
/home/calvin/Dropbox/PersonalFolders/Calvin/HAb_Converged/rxn_208/output/Species/rxn_208_CO[O]/arkane/output.py

>  <path_exists>  (4) 
True

>  <E0_value>  (4) 
-499346.9973631375

>  <E0_units>  (4) 
kJ/mol

>  <thermo_class>  (4) 
NASA

>  <Cp0_value>  (4) 
33.257888

>  <Cp0_units>  (4) 
J/(mol*K)

>  <CpInf_value>  (4) 
133.031552

>  <CpInf_units>  (4) 
J/(mol*K)

>  <Tmin_value>  (4) 
10.0

>  <Tmin_units>  (4) 
K

>  <Tmax_value>  (4) 
3000.0

>  <Tmax_units>  (4) 
K

>  <polynomials>  (4) 
[{"name": "polynomial1", "class": "NASAPolynomial", "Tmin_value": 10.0, "Tmin_units": "K", "Tmax_value": 501.084150905133, "Tmax_units": "K", "coeffs": [3.977726295223183, 0.0012447421558763674, 3.797778277376904e-05, -6.034634030487068e-08, 3.1055886574502375e-11, -60057570.17193063, 8.012420918260052]}, {"name": "polynomial2", "class": "NASAPolynomial", "Tmin_value": 501.084150905133, "Tmin_units": "K", "Tmax_value": 3000.0, "Tmax_units": "K", "coeffs": [2.0044843309188844, 0.016996245529262752, -9.173655620434641e-06, 2.3851149939042196e-09, -2.4142600516931244e-13, -60057372.41638915, 16.168734393962772]}]

>  <H298_value>  (4) 
-119343.87017461388

>  <H298_units>  (4) 
kcal/mol

>  <S298_value>  (4) 
64.10732748835879

>  <S298_units>  (4) 
cal/(mol*K)

>  <Cp_T_value_list>  (4) 
[12.700934027862079, 14.874108149094356, 16.87584137047918, 18.647174080348332, 21.56642074844516, 23.788378509044545, 27.196255239801676, 28.85514610257635, 29.64338089676258]

>  <Cp_T_units>  (4) 
cal/(mol*K)

>  <T_list>  (4) 
[300.0, 400.0, 500.0, 600.0, 800.0, 1000.0, 1500.0, 2000.0, 2400.0]

>  <T_units>  (4) 
K

>  <yaml_path>  (4) 
/home/calvin/Dropbox/PersonalFolders/Calvin/HAb_Converged/rxn_208/output/Species/rxn_208_CO[O]/rxn_208_COO.yml

>  <frequencies_cm1>  (4) 
[136.11738301303998, 503.54229954496, 947.5135014389199, 1128.13581631088, 1182.0279171022398, 1265.29011410724, 1439.9312847654799, 1461.6721602886, 1472.47392819696, 3031.17659105716, 3125.4328315594803, 3142.8406393456794]

>  <ZPE_kJmol>  (4) 
112.66525579648996

>  <E_elec_kJmol>  (4) 
-499459.662618934

>  <E0_minus_Eelec_plus_ZPE_kJmol>  (4) 
0.0

>  <rxn>  (4) 
rxn_208

>  <species_type>  (4) 
p0

>  <species_folder>  (4) 
rxn_208_CO[O]

>  <frequencies_cm1_list>  (4) 
[136.11738301303998, 503.54229954496, 947.5135014389199, 1128.13581631088, 1182.0279171022398, 1265.29011410724, 1439.9312847654799, 1461.6721602886, 1472.47392819696, 3031.17659105716, 3125.4328315594803, 3142.8406393456794]

>  <E0_kJmol>  (4) 
-499347

>  <H298_kJmol>  (4) 
-499335

$$$$

     RDKit          3D

  3  2  0  0  0  0  0  0  0  0999 V2000
    0.9943   -0.1797    0.0000 O   0  0  0  0  0  1  0  0  0  1  0  0
   -0.1595    0.4394    0.0000 O   0  0  0  0  0  0  0  0  0  2  0  0
   -0.8348   -0.2597    0.0000 H   0  0  0  0  0  0  0  0  0  3  0  0
  1  2  1  0
  2  3  1  0
M  RAD  1   1   2
M  END
>  <rmg_smiles>  (5) 
[O]O

>  <rmg_adjacency_list>  (5) 
multiplicity 2
1 O u1 p2 c0 {2,S}
2 O u0 p2 c0 {1,S} {3,S}
3 H u0 p0 c0 {2,S}


>  <multiplicity>  (5) 
2

>  <reaction>  (5) 
rxn_208

>  <type>  (5) 
r2

>  <role_mapnums>  (5) 
{}

>  <role_mapidx>  (5) 
{}

>  <ordered_mapped_smiles>  (5) 
[O:1][O:2][H:3]

>  <level_of_theory>  (5) 
wb97xd/def2tzvp

>  <lot_method>  (5) 
wb97xd

>  <lot_basis>  (5) 
def2tzvp

>  <spin_multiplicity>  (5) 
2.0

>  <optical_isomers>  (5) 
1.0

>  <modes>  (5) 
IdealGasTranslation(mass=(32.9977, 'amu')),         NonlinearRotor(             inertia = ([0.803517, 14.5889, 15.3924

>  <frequency_value>  (5) 
unknown

>  <frequency_units>  (5) 
unknown

>  <frequency_list>  (5) 
unknown

>  <arkane_path>  (5) 
/home/calvin/Dropbox/PersonalFolders/Calvin/HAb_Converged/rxn_208/output/Species/rxn_208_[O]O/arkane/output.py

>  <path_exists>  (5) 
True

>  <E0_value>  (5) 
-396214.7927695905

>  <E0_units>  (5) 
kJ/mol

>  <thermo_class>  (5) 
NASA

>  <Cp0_value>  (5) 
33.257888

>  <Cp0_units>  (5) 
J/(mol*K)

>  <CpInf_value>  (5) 
58.201304

>  <CpInf_units>  (5) 
J/(mol*K)

>  <Tmin_value>  (5) 
10.0

>  <Tmin_units>  (5) 
K

>  <Tmax_value>  (5) 
3000.0

>  <Tmax_units>  (5) 
K

>  <polynomials>  (5) 
[{"name": "polynomial1", "class": "NASAPolynomial", "Tmin_value": 10.0, "Tmin_units": "K", "Tmax_value": 938.1901641883775, "Tmax_units": "K", "coeffs": [4.028900763568748, -0.0017001850192041605, 1.0116513729421136e-05, -1.0102502975955476e-08, 3.2943616799556636e-12, -47653633.38795187, 4.661311963627797]}, {"name": "polynomial2", "class": "NASAPolynomial", "Tmin_value": 938.1901641883775, "Tmin_units": "K", "Tmax_value": 3000.0, "Tmax_units": "K", "coeffs": [3.0224709900106443, 0.00428209217697721, -2.152234978217665e-06, 5.370565329041951e-10, -5.2799153043016775e-14, -47653518.97920004, 9.055842364041489]}]

>  <H298_value>  (5) 
-94695.23338060976

>  <H298_units>  (5) 
kcal/mol

>  <S298_value>  (5) 
54.59701487407024

>  <S298_units>  (5) 
cal/(mol*K)

>  <Cp_T_value_list>  (5) 
[8.312978103030632, 8.754130351990018, 9.242540000567846, 9.728455522252242, 10.572357002256187, 11.201059485179156, 12.218042363471625, 12.776508208459937, 13.066159106759592]

>  <Cp_T_units>  (5) 
cal/(mol*K)

>  <T_list>  (5) 
[300.0, 400.0, 500.0, 600.0, 800.0, 1000.0, 1500.0, 2000.0, 2400.0]

>  <T_units>  (5) 
K

>  <yaml_path>  (5) 
/home/calvin/Dropbox/PersonalFolders/Calvin/HAb_Converged/rxn_208/output/Species/rxn_208_[O]O/rxn_208_OO.yml

>  <frequencies_cm1>  (5) 
[1229.25217514788, 1446.77766912952, 3624.6283293968795]

>  <ZPE_kJmol>  (5) 
37.68631575394318

>  <E_elec_kJmol>  (5) 
-396252.4790853445

>  <E0_minus_Eelec_plus_ZPE_kJmol>  (5) 
0.0

>  <rxn>  (5) 
rxn_208

>  <species_type>  (5) 
r1

>  <species_folder>  (5) 
rxn_208_[O]O

>  <frequencies_cm1_list>  (5) 
[1229.25217514788, 1446.77766912952, 3624.6283293968795]

>  <E0_kJmol>  (5) 
-396215

>  <H298_kJmol>  (5) 
-396205

$$$$
