
     RDKit          3D

 15 15  0  0  0  0  0  0  0  0999 V2000
    0.6282   -0.2371    2.3127 C   0  0  0  0  0  0  0  0  0  1  0  0
    0.2913   -0.0617    0.9080 C   0  0  0  0  0  0  0  0  0  2  0  0
   -0.6763    0.8743    0.5201 C   0  0  0  0  0  0  0  0  0  3  0  0
   -1.0695    0.9829   -0.8017 C   0  0  0  0  0  0  0  0  0  4  0  0
   -0.5060    0.1614   -1.7693 C   0  0  0  0  0  0  0  0  0  5  0  0
    0.4559   -0.7704   -1.4017 C   0  0  0  0  0  0  0  0  0  6  0  0
    0.8458   -0.8847   -0.0798 C   0  0  0  0  0  0  0  0  0  7  0  0
   -0.1797   -0.8566    2.6925 H   0  0  0  0  0  0  0  0  0  8  0  0
    1.5181   -0.8216    2.5286 H   0  0  0  0  0  0  0  0  0  9  0  0
    0.5069    0.6340    2.9511 H   0  0  0  0  0  0  0  0  0 10  0  0
   -1.1261    1.5098    1.2738 H   0  0  0  0  0  0  0  0  0 11  0  0
   -1.8199    1.7121   -1.0808 H   0  0  0  0  0  0  0  0  0 12  0  0
   -0.8131    0.2482   -2.8037 H   0  0  0  0  0  0  0  0  0 13  0  0
    0.9001   -1.4141   -2.1505 H   0  0  0  0  0  0  0  0  0 14  0  0
    1.5862   -1.6235    0.2031 H   0  0  0  0  0  0  0  0  0 15  0  0
  1 10  1  0
  1  8  1  0
  1  9  1  0
  1  2  1  0
  2  7  1  0
  2  3  1  0
  3  4  1  0
  3 11  1  0
  4  5  1  0
  4 12  1  0
  5  6  1  0
  5 13  1  0
  6 14  1  0
  6  7  1  0
  7 15  1  0
M  END
>  <rmg_smiles>  (1) 
CC1[CH][CH][CH][CH][CH]1

>  <rmg_adjacency_list>  (1) 
1  C u0 p0 c0 {2,S} {8,S} {9,S} {10,S}
2  C u0 p0 c0 {1,S} {3,S} {4,S}
3  C u0 p0 c0 {2,S} {5,S} {11,S}
4  C u0 p0 c0 {2,S} {7,S} {15,S}
5  C u0 p0 c0 {3,S} {6,S} {12,S}
6  C u0 p0 c0 {5,S} {7,S} {13,S}
7  C u0 p0 c0 {4,S} {6,S} {14,S}
8  H u0 p0 c0 {1,S}
9  H u0 p0 c0 {1,S}
10 H u0 p0 c0 {1,S}
11 H u0 p0 c0 {3,S}
12 H u0 p0 c0 {5,S}
13 H u0 p0 c0 {6,S}
14 H u0 p0 c0 {7,S}
15 H u0 p0 c0 {4,S}


>  <multiplicity>  (1) 
1

>  <reaction>  (1) 
rxn_1467

>  <type>  (1) 
r1h

>  <role_mapnums>  (1) 
{"r1h_a": 1, "r1h_h": 8}

>  <role_mapidx>  (1) 
{"r1h_a": 0, "r1h_h": 7}

>  <ordered_mapped_smiles>  (1) 
[C:1]([CH:2]1[CH:3]([H:11])[CH:4]([H:12])[CH:5]([H:13])[CH:6]([H:14])[CH:7]1[H:15])([H:8])([H:9])[H:10]

>  <mol_properties>  (1) 
{"0": {"label": "donator", "atom_type": "Cs"}, "7": {"label": "d_hydrogen", "atom_type": "H0"}}

>  <level_of_theory>  (1) 
wb97xd/def2tzvp

>  <lot_method>  (1) 
wb97xd

>  <lot_basis>  (1) 
def2tzvp

>  <spin_multiplicity>  (1) 
1.0

>  <optical_isomers>  (1) 
1.0

>  <modes>  (1) 
IdealGasTranslation(mass=(92.0626, 'amu')),         NonlinearRotor(             inertia = ([90.1823, 198.896, 285.945

>  <frequency_value>  (1) 
unknown

>  <frequency_units>  (1) 
unknown

>  <frequency_list>  (1) 
unknown

>  <arkane_path>  (1) 
/home/calvin/Dropbox/PersonalFolders/Calvin/HAb_Converged/rxn_1467/output/Species/rxn_1467_Cc1ccccc1/arkane/output.py

>  <path_exists>  (1) 
True

>  <E0_value>  (1) 
-712667.4186954657

>  <E0_units>  (1) 
kJ/mol

>  <thermo_class>  (1) 
NASA

>  <Cp0_value>  (1) 
33.257888

>  <Cp0_units>  (1) 
J/(mol*K)

>  <CpInf_value>  (1) 
357.522296

>  <CpInf_units>  (1) 
J/(mol*K)

>  <Tmin_value>  (1) 
10.0

>  <Tmin_units>  (1) 
K

>  <Tmax_value>  (1) 
3000.0

>  <Tmax_units>  (1) 
K

>  <polynomials>  (1) 
[{"name": "polynomial1", "class": "NASAPolynomial", "Tmin_value": 10.0, "Tmin_units": "K", "Tmax_value": 551.6337437556739, "Tmax_units": "K", "coeffs": [3.980790839095313, 0.0003554759084543946, 0.0001740807555533119, -2.980551059269885e-07, 1.6260016547012624e-10, -85714089.33006716, 11.957866570352502]}, {"name": "polynomial2", "class": "NASAPolynomial", "Tmin_value": 551.6337437556739, "Tmin_units": "K", "Tmax_value": 3000.0, "Tmax_units": "K", "coeffs": [-2.464142884673319, 0.06292217705968887, -3.910410735823183e-05, 1.1617312031768996e-08, -1.3239292319465783e-12, -85713619.1845923, 37.0335001763548]}]

>  <H298_value>  (1) 
-170327.17110881128

>  <H298_units>  (1) 
kcal/mol

>  <S298_value>  (1) 
79.81344471114225

>  <S298_units>  (1) 
cal/(mol*K)

>  <Cp_T_value_list>  (1) 
[25.8819241324838, 33.907584394638754, 40.905333833989275, 46.79760597028022, 56.14405324051195, 62.889739407887795, 72.41562819521319, 76.94346395033827, 79.4531872673492]

>  <Cp_T_units>  (1) 
cal/(mol*K)

>  <T_list>  (1) 
[300.0, 400.0, 500.0, 600.0, 800.0, 1000.0, 1500.0, 2000.0, 2400.0]

>  <T_units>  (1) 
K

>  <yaml_path>  (1) 
/home/calvin/Dropbox/PersonalFolders/Calvin/HAb_Converged/rxn_1467/output/Species/rxn_1467_Cc1ccccc1/rxn_1467_Cc1ccccc1.yml

>  <frequencies_cm1>  (1) 
[32.67311615255999, 208.88682644908, 346.6454189536, 414.1066827372799, 475.62800421915995, 527.95443235756, 633.69913930024, 711.73556047672, 745.6928028841199, 800.1617304423601, 861.8684605278798, 915.5202168330399, 979.4449831769199, 991.60641417864, 997.6768292015198, 1015.82627140228, 1052.7363174972797, 1058.5389200926797, 1109.8078324918, 1173.8974064833599, 1201.1112693065197, 1232.0058362611999, 1316.04400260736, 1349.7815014845198, 1404.03755249784, 1462.1391152903598, 1476.8481978457999, 1495.6225357106798, 1530.4999541509599, 1640.12450779944, 1663.1975784746398, 3015.0391755551595, 3079.01201079628, 3101.631860440359, 3145.0655425893597, 3146.5282104625194, 3159.5205466879593, 3168.9008486350795, 3181.02107772488]

>  <ZPE_kJmol>  (1) 
333.8912309447283

>  <E_elec_kJmol>  (1) 
-713001.3099264104

>  <E0_minus_Eelec_plus_ZPE_kJmol>  (1) 
0.0

>  <rxn>  (1) 
rxn_1467

>  <species_type>  (1) 
r1

>  <species_folder>  (1) 
rxn_1467_Cc1ccccc1

>  <frequencies_cm1_list>  (1) 
[32.67311615255999, 208.88682644908, 346.6454189536, 414.1066827372799, 475.62800421915995, 527.95443235756, 633.69913930024, 711.73556047672, 745.6928028841199, 800.1617304423601, 861.8684605278798, 915.5202168330399, 979.4449831769199, 991.60641417864, 997.6768292015198, 1015.82627140228, 1052.7363174972797, 1058.5389200926797, 1109.8078324918, 1173.8974064833599, 1201.1112693065197, 1232.0058362611999, 1316.04400260736, 1349.7815014845198, 1404.03755249784, 1462.1391152903598, 1476.8481978457999, 1495.6225357106798, 1530.4999541509599, 1640.12450779944, 1663.1975784746398, 3015.0391755551595, 3079.01201079628, 3101.631860440359, 3145.0655425893597, 3146.5282104625194, 3159.5205466879593, 3168.9008486350795, 3181.02107772488]

>  <E0_kJmol>  (1) 
-712667

>  <H298_kJmol>  (1) 
-712649

$$$$

     RDKit          3D

  8  7  0  0  0  0  0  0  0  0999 V2000
    0.2876   -1.1466   -0.8587 S   0  0  0  0  0  0  0  0  0  1  0  0
    0.6158   -0.0308    0.4935 C   0  0  0  0  0  0  0  0  0  2  0  0
   -0.3500    0.9822    0.7646 C   0  0  0  0  0  2  0  0  0  3  0  0
   -1.1103    1.8927    0.9560 C   0  0  0  0  0  2  0  0  0  4  0  0
    0.0909   -0.1983   -1.7868 H   0  0  0  0  0  0  0  0  0  5  0  0
    0.9163   -0.6054    1.3669 H   0  0  0  0  0  0  0  0  0  6  0  0
   -1.8043    2.6776    1.1379 H   0  0  0  0  0  0  0  0  0  7  0  0
    1.5200    0.5103    0.2234 H   0  0  0  0  0  0  0  0  0  8  0  0
  1  2  1  0
  1  5  1  0
  2  8  1  0
  2  6  1  0
  2  3  1  0
  3  4  1  0
  4  7  1  0
M  RAD  2   3   3   4   3
M  END
>  <rmg_smiles>  (2) 
[CH][C]CS

>  <rmg_adjacency_list>  (2) 
1 S u0 p2 c0 {2,S} {7,S}
2 C u0 p0 c0 {1,S} {3,S} {5,S} {6,S}
3 C u0 p1 c0 {2,S} {4,S}
4 C u0 p1 c0 {3,S} {8,S}
5 H u0 p0 c0 {2,S}
6 H u0 p0 c0 {2,S}
7 H u0 p0 c0 {1,S}
8 H u0 p0 c0 {4,S}


>  <multiplicity>  (2) 
1

>  <reaction>  (2) 
rxn_1467

>  <type>  (2) 
r2h

>  <role_mapnums>  (2) 
{"r2h_a": 2, "r2h_h": 8}

>  <role_mapidx>  (2) 
{"r2h_a": 1, "r2h_h": 7}

>  <ordered_mapped_smiles>  (2) 
[S:1]([C:2]([C:3][C:4][H:7])([H:6])[H:8])[H:5]

>  <mol_properties>  (2) 
{"1": {"label": "acceptor", "atom_type": "Cs"}, "7": {"label": "a_hydrogen", "atom_type": "H0"}}

>  <level_of_theory>  (2) 
wb97xd/def2tzvp

>  <lot_method>  (2) 
wb97xd

>  <lot_basis>  (2) 
def2tzvp

>  <spin_multiplicity>  (2) 
1.0

>  <optical_isomers>  (2) 
2.0

>  <modes>  (2) 
IdealGasTranslation(mass=(72.0034, 'amu')),         NonlinearRotor(             inertia = ([22.2085, 166.22, 182.902

>  <frequency_value>  (2) 
unknown

>  <frequency_units>  (2) 
unknown

>  <frequency_list>  (2) 
unknown

>  <arkane_path>  (2) 
/home/calvin/Dropbox/PersonalFolders/Calvin/HAb_Converged/rxn_1467/output/Species/rxn_1467_SCCtC/arkane/output.py

>  <path_exists>  (2) 
True

>  <E0_value>  (2) 
-1351591.9619272442

>  <E0_units>  (2) 
kJ/mol

>  <thermo_class>  (2) 
NASA

>  <Cp0_value>  (2) 
33.257888

>  <Cp0_units>  (2) 
J/(mol*K)

>  <CpInf_value>  (2) 
182.918384

>  <CpInf_units>  (2) 
J/(mol*K)

>  <Tmin_value>  (2) 
10.0

>  <Tmin_units>  (2) 
K

>  <Tmax_value>  (2) 
3000.0

>  <Tmax_units>  (2) 
K

>  <polynomials>  (2) 
[{"name": "polynomial1", "class": "NASAPolynomial", "Tmin_value": 10.0, "Tmin_units": "K", "Tmax_value": 475.22004965266495, "Tmax_units": "K", "coeffs": [3.9081728610503266, 0.0060665197951842486, 9.858797525403178e-05, -2.3454574482292106e-07, 1.6729080248664755e-10, -162558962.789261, 9.876121143911547]}, {"name": "polynomial2", "class": "NASAPolynomial", "Tmin_value": 475.22004965266495, "Tmin_units": "K", "Tmax_value": 3000.0, "Tmax_units": "K", "coeffs": [3.929281147555054, 0.023944627444596824, -1.483491275782584e-05, 4.522081373764869e-09, -5.363688259710236e-13, -162559168.67600697, 7.644872861965232]}]

>  <H298_value>  (2) 
-323034.4124485172

>  <H298_units>  (2) 
kcal/mol

>  <S298_value>  (2) 
72.70695616719325

>  <S298_units>  (2) 
cal/(mol*K)

>  <Cp_T_value_list>  (2) 
[19.12361738874968, 22.615550030836857, 25.28641539443224, 27.548137379324015, 31.17181386304561, 33.83161117382913, 37.7853923663148, 39.89045753268841, 41.06584506816195]

>  <Cp_T_units>  (2) 
cal/(mol*K)

>  <T_list>  (2) 
[300.0, 400.0, 500.0, 600.0, 800.0, 1000.0, 1500.0, 2000.0, 2400.0]

>  <T_units>  (2) 
K

>  <yaml_path>  (2) 
/home/calvin/Dropbox/PersonalFolders/Calvin/HAb_Converged/rxn_1467/output/Species/rxn_1467_SCCtC/rxn_1467_SCCtC.yml

>  <frequencies_cm1>  (2) 
[173.19223675572, 229.15816711371997, 344.57158938696, 467.96444860203997, 686.8633396476799, 691.89683988724, 698.0771266752399, 793.7067642415599, 956.7495966943198, 1009.0760248327199, 1208.56881536404, 1272.7064582528399, 1449.8609455381998, 2225.7547498596796, 2705.54414718276, 3049.3603681845198, 3095.3691698285193, 3437.0291574397993]

>  <ZPE_kJmol>  (2) 
146.51536962244307

>  <E_elec_kJmol>  (2) 
-1351738.4772968667

>  <E0_minus_Eelec_plus_ZPE_kJmol>  (2) 
0.0

>  <rxn>  (2) 
rxn_1467

>  <species_type>  (2) 
p0

>  <species_folder>  (2) 
rxn_1467_SCCtC

>  <frequencies_cm1_list>  (2) 
[173.19223675572, 229.15816711371997, 344.57158938696, 467.96444860203997, 686.8633396476799, 691.89683988724, 698.0771266752399, 793.7067642415599, 956.7495966943198, 1009.0760248327199, 1208.56881536404, 1272.7064582528399, 1449.8609455381998, 2225.7547498596796, 2705.54414718276, 3049.3603681845198, 3095.3691698285193, 3437.0291574397993]

>  <E0_kJmol>  (2) 
-1.35159e+06

>  <H298_kJmol>  (2) 
-1.35158e+06

$$$$

     RDKit          3D

 22 21  0  0  0  0  0  0  0  0999 V2000
   -0.9285   -2.1074    0.6751 S   0  0  0  0  0  0  0  0  0  1  0  0
   -0.6003   -0.9916    2.0274 C   0  0  0  0  0  0  0  0  0  2  0  0
   -1.5660    0.0214    2.2984 C   0  0  0  0  0  0  0  0  0  3  0  0
   -2.3264    0.9319    2.4899 C   0  0  0  0  0  0  0  0  0  4  0  0
   -1.1252   -1.1591   -0.2529 H   0  0  0  0  0  0  0  0  0  5  0  0
   -0.2998   -1.5662    2.9008 H   0  0  0  0  0  0  0  0  0  6  0  0
   -3.0204    1.7167    2.6718 H   0  0  0  0  0  0  0  0  0  7  0  0
    1.5264    0.4521    1.2180 C   0  0  0  0  0  0  0  0  0  8  0  0
    1.1895    0.6274   -0.1867 C   0  0  0  0  0  0  0  0  0  9  0  0
    0.2219    1.5635   -0.5745 C   0  0  0  0  0  3  0  0  0 10  0  0
   -0.1713    1.6721   -1.8964 C   0  0  0  0  0  0  0  0  0 11  0  0
    0.3922    0.8505   -2.8640 C   0  0  0  0  0  0  0  0  0 12  0  0
    1.3541   -0.0812   -2.4964 C   0  0  0  0  0  0  0  0  0 13  0  0
    1.7440   -0.1956   -1.1745 C   0  0  0  0  0  0  0  0  0 14  0  0
    0.5107   -0.3268    1.6955 H   0  0  0  0  0  0  0  0  0 15  0  0
    2.4163   -0.1325    1.4340 H   0  0  0  0  0  0  0  0  0 16  0  0
    1.4051    1.3231    1.8565 H   0  0  0  0  0  0  0  0  0 17  0  0
   -0.2279    2.1990    0.1791 H   0  0  0  0  0  0  0  0  0 18  0  0
   -0.9217    2.4012   -2.1755 H   0  0  0  0  0  0  0  0  0 19  0  0
    0.0851    0.9373   -3.8983 H   0  0  0  0  0  0  0  0  0 20  0  0
    1.7984   -0.7250   -3.2451 H   0  0  0  0  0  0  0  0  0 21  0  0
    2.4844   -0.9344   -0.8916 H   0  0  0  0  0  0  0  0  0 22  0  0
  1  5  1  0
  1  2  1  0
  2 15  1  0
  2  6  1  0
  2  3  1  0
  3  4  1  0
  4  7  1  0
  8 16  1  0
  8 17  1  0
  8  9  1  0
  9 14  1  0
  9 10  1  0
 10 18  1  0
 10 11  1  0
 11 19  1  0
 11 12  1  0
 12 20  1  0
 12 13  1  0
 13 21  1  0
 13 14  1  0
 14 22  1  0
M  RAD  1  10   2
M  END
>  <rmg_smiles>  (3) 
[CH2][C]1[CH][CH][CH][CH][CH]1.[CH][C]CS

>  <rmg_adjacency_list>  (3) 
multiplicity 2
1  S u0 p2 c0 {2,S} {21,S}
2  C u0 p0 c0 {1,S} {10,S} {12,S} {13,S}
3  C u0 p0 c0 {4,S} {5,S} {9,S}
4  C u1 p0 c0 {3,S} {6,S} {14,S}
5  C u0 p0 c0 {3,S} {8,S} {18,S}
6  C u0 p0 c0 {4,S} {7,S} {15,S}
7  C u0 p0 c0 {6,S} {8,S} {16,S}
8  C u0 p0 c0 {5,S} {7,S} {17,S}
9  C u0 p0 c0 {3,S} {19,S} {20,S}
10 C u0 p1 c0 {2,S} {11,S}
11 C u0 p1 c0 {10,S} {22,S}
12 H u0 p0 c0 {2,S}
13 H u0 p0 c0 {2,S}
14 H u0 p0 c0 {4,S}
15 H u0 p0 c0 {6,S}
16 H u0 p0 c0 {7,S}
17 H u0 p0 c0 {8,S}
18 H u0 p0 c0 {5,S}
19 H u0 p0 c0 {9,S}
20 H u0 p0 c0 {9,S}
21 H u0 p0 c0 {1,S}
22 H u0 p0 c0 {11,S}


>  <multiplicity>  (3) 
2

>  <reaction>  (3) 
rxn_1467

>  <type>  (3) 
ts

>  <role_mapnums>  (3) 
{"*2": 15, "*1": 8, "*3": 2, "*0": 1, "*4": 9}

>  <role_mapidx>  (3) 
{"*2": 14, "*1": 7, "*3": 1, "*0": 0, "*4": 8}

>  <ordered_mapped_smiles>  (3) 
[S:1]([C:2]([CH2:3][CH2:4][H:7])([H:6])[H:15])[H:5].[CH:8]([CH:9]1[C:10]([H:18])[CH:11]([H:19])[CH:12]([H:20])[CH:13]([H:21])[CH:14]1[H:22])([H:16])[H:17]

>  <mol_properties>  (3) 
{"0": {"label": "*0", "atom_type": "S2s"}, "1": {"label": "*3", "atom_type": "Cs"}, "7": {"label": "*1", "atom_type": "Cs"}, "8": {"label": "*4", "atom_type": "Cs"}, "14": {"label": "*2", "atom_type": "H0"}}

>  <level_of_theory>  (3) 
wb97xd/def2tzvp

>  <lot_method>  (3) 
wb97xd

>  <lot_basis>  (3) 
def2tzvp

>  <spin_multiplicity>  (3) 
2.0

>  <optical_isomers>  (3) 
2.0

>  <modes>  (3) 
IdealGasTranslation(mass=(163.058, 'amu')),         NonlinearRotor(             inertia = ([368.433, 809.396, 899.187

>  <frequency_value>  (3) 
-1785.38

>  <frequency_units>  (3) 
cm^-1

>  <frequency_list>  (3) 
unknown

>  <arkane_path>  (3) 
/home/calvin/Dropbox/PersonalFolders/Calvin/HAb_Converged/rxn_1467/output/rxns/TS0/arkane/output.py

>  <path_exists>  (3) 
True

>  <E0_value>  (3) 
-2062530.0

>  <E0_units>  (3) 
kJ/mol

>  <thermo_class>  (3) 
unknown

>  <Cp0_value>  (3) 
unknown

>  <Cp0_units>  (3) 
unknown

>  <CpInf_value>  (3) 
unknown

>  <CpInf_units>  (3) 
unknown

>  <Tmin_value>  (3) 
unknown

>  <Tmin_units>  (3) 
unknown

>  <Tmax_value>  (3) 
unknown

>  <Tmax_units>  (3) 
unknown

>  <polynomials>  (3) 
unknown

>  <H298_value>  (3) 
unknown

>  <H298_units>  (3) 
unknown

>  <S298_value>  (3) 
unknown

>  <S298_units>  (3) 
unknown

>  <Cp_T_value_list>  (3) 
unknown

>  <Cp_T_units>  (3) 
unknown

>  <T_list>  (3) 
unknown

>  <T_units>  (3) 
unknown

>  <yaml_path>  (3) 
unknown

>  <frequencies_cm1>  (3) 
unknown

>  <ZPE_kJmol>  (3) 
unknown

>  <E_elec_kJmol>  (3) 
unknown

>  <E0_minus_Eelec_plus_ZPE_kJmol>  (3) 
unknown

>  <rxn>  (3) 
unknown

>  <species_type>  (3) 
unknown

>  <species_folder>  (3) 
unknown

>  <frequencies_cm1_list>  (3) 
[]

>  <ts_imag_freq_cm1>  (3) 
-1807.065

>  <ts_freq_out_path>  (3) 
/home/calvin/Dropbox/PersonalFolders/Calvin/HAb_Converged/rxn_1467/output/rxns/TS0/geometry/freq.out

>  <E0_kJmol>  (3) 
-2.06253e+06

>  <H298_kJmol>  (3) 
unknown

$$$$

     RDKit          3D

 14 14  0  0  0  0  0  0  0  0999 V2000
    2.3111    0.1295    0.0255 C   0  0  0  0  0  0  0  0  0  1  0  0
    0.9132    0.0511    0.0101 C   0  0  0  0  0  0  0  0  0  2  0  0
    0.2446   -1.1981    0.0389 C   0  0  0  0  0  3  0  0  0  3  0  0
   -1.1306   -1.2689    0.0235 C   0  0  0  0  0  0  0  0  0  4  0  0
   -1.8967   -0.1062   -0.0209 C   0  0  0  0  0  0  0  0  0  5  0  0
   -1.2644    1.1347   -0.0499 C   0  0  0  0  0  0  0  0  0  6  0  0
    0.1101    1.2180   -0.0350 C   0  0  0  0  0  0  0  0  0  7  0  0
    2.9188   -0.7647    0.0599 H   0  0  0  0  0  0  0  0  0  8  0  0
    2.8158    1.0859    0.0034 H   0  0  0  0  0  0  0  0  0  9  0  0
    0.8353   -2.1058    0.0735 H   0  0  0  0  0  0  0  0  0 10  0  0
   -1.6191   -2.2351    0.0461 H   0  0  0  0  0  0  0  0  0 11  0  0
   -2.9772   -0.1668   -0.0328 H   0  0  0  0  0  0  0  0  0 12  0  0
   -1.8572    2.0404   -0.0845 H   0  0  0  0  0  0  0  0  0 13  0  0
    0.5964    2.1860   -0.0577 H   0  0  0  0  0  0  0  0  0 14  0  0
  1  8  1  0
  1  9  1  0
  1  2  1  0
  2  7  1  0
  2  3  1  0
  3  4  1  0
  3 10  1  0
  4  5  1  0
  4 11  1  0
  5 12  1  0
  5  6  1  0
  6 13  1  0
  6  7  1  0
  7 14  1  0
M  RAD  1   3   2
M  END
>  <rmg_smiles>  (4) 
[CH2]C1[CH][CH][CH][CH][CH]1

>  <rmg_adjacency_list>  (4) 
multiplicity 2
1  C u0 p0 c0 {2,S} {3,S} {7,S}
2  C u1 p0 c0 {1,S} {4,S} {8,S}
3  C u0 p0 c0 {1,S} {6,S} {12,S}
4  C u0 p0 c0 {2,S} {5,S} {9,S}
5  C u0 p0 c0 {4,S} {6,S} {10,S}
6  C u0 p0 c0 {3,S} {5,S} {11,S}
7  C u0 p0 c0 {1,S} {13,S} {14,S}
8  H u0 p0 c0 {2,S}
9  H u0 p0 c0 {4,S}
10 H u0 p0 c0 {5,S}
11 H u0 p0 c0 {6,S}
12 H u0 p0 c0 {3,S}
13 H u0 p0 c0 {7,S}
14 H u0 p0 c0 {7,S}


>  <multiplicity>  (4) 
2

>  <reaction>  (4) 
rxn_1467

>  <type>  (4) 
r1

>  <role_mapnums>  (4) 
{}

>  <role_mapidx>  (4) 
{}

>  <ordered_mapped_smiles>  (4) 
[CH:1]([CH:2]1[C:3]([H:10])[CH:4]([H:11])[CH:5]([H:12])[CH:6]([H:13])[CH:7]1[H:14])([H:8])[H:9]

>  <level_of_theory>  (4) 
wb97xd/def2tzvp

>  <lot_method>  (4) 
wb97xd

>  <lot_basis>  (4) 
def2tzvp

>  <spin_multiplicity>  (4) 
2.0

>  <optical_isomers>  (4) 
1.0

>  <modes>  (4) 
IdealGasTranslation(mass=(91.0548, 'amu')),         NonlinearRotor(             inertia = ([90.2688, 184.999, 275.268

>  <frequency_value>  (4) 
unknown

>  <frequency_units>  (4) 
unknown

>  <frequency_list>  (4) 
unknown

>  <arkane_path>  (4) 
/home/calvin/Dropbox/PersonalFolders/Calvin/HAb_Converged/rxn_1467/output/Species/rxn_1467_[CH2]c1ccccc1/arkane/output.py

>  <path_exists>  (4) 
True

>  <E0_value>  (4) 
-710982.0623900568

>  <E0_units>  (4) 
kJ/mol

>  <thermo_class>  (4) 
NASA

>  <Cp0_value>  (4) 
33.257888

>  <Cp0_units>  (4) 
J/(mol*K)

>  <CpInf_value>  (4) 
332.57888

>  <CpInf_units>  (4) 
J/(mol*K)

>  <Tmin_value>  (4) 
10.0

>  <Tmin_units>  (4) 
K

>  <Tmax_value>  (4) 
3000.0

>  <Tmax_units>  (4) 
K

>  <polynomials>  (4) 
[{"name": "polynomial1", "class": "NASAPolynomial", "Tmin_value": 10.0, "Tmin_units": "K", "Tmax_value": 553.2111543820812, "Tmax_units": "K", "coeffs": [4.142543100339783, -0.014218751426311257, 0.00025768288845109076, -4.6329717299686994e-07, 2.6710359880098635e-10, -85511387.18345657, 10.487952528933349]}, {"name": "polynomial2", "class": "NASAPolynomial", "Tmin_value": 553.2111543820812, "Tmin_units": "K", "Tmax_value": 3000.0, "Tmax_units": "K", "coeffs": [-0.7942858141271507, 0.05799977662333905, -3.716272398168618e-05, 1.1355668259156845e-08, -1.3253477782048034e-12, -85511399.83716469, 26.33142406546513]}]

>  <H298_value>  (4) 
-169924.63454747986

>  <H298_units>  (4) 
kcal/mol

>  <S298_value>  (4) 
74.98251677136349

>  <S298_units>  (4) 
cal/(mol*K)

>  <Cp_T_value_list>  (4) 
[25.283015903963822, 33.526434594449704, 40.21254996448577, 45.52304336844698, 53.838654110521205, 59.76143460322508, 67.97251244989147, 71.92525639213041, 74.23565100621211]

>  <Cp_T_units>  (4) 
cal/(mol*K)

>  <T_list>  (4) 
[300.0, 400.0, 500.0, 600.0, 800.0, 1000.0, 1500.0, 2000.0, 2400.0]

>  <T_units>  (4) 
K

>  <yaml_path>  (4) 
/home/calvin/Dropbox/PersonalFolders/Calvin/HAb_Converged/rxn_1467/output/Species/rxn_1467_[CH2]c1ccccc1/rxn_1467_CH2c1ccccc1.yml

>  <frequencies_cm1>  (4) 
[200.24815891652, 361.60171298056, 390.17523889708, 478.87608827552, 500.34228438583995, 531.78621016612, 625.85017507948, 685.3594698625999, 711.2686054749599, 777.5487477835999, 833.0683240958, 836.50868374112, 906.74420959408, 969.6801300518798, 974.03379874476, 983.70251407532, 992.09397013636, 1038.3980521491198, 1114.7108600102797, 1165.8355657176799, 1178.3403459854, 1276.27729061924, 1315.886061945, 1345.4965026448397, 1472.9546171693598, 1482.97354875124, 1496.57704667016, 1589.63156474148, 1604.18957361988, 3131.52384753832, 3150.75140643432, 3153.26472306144, 3164.65705170732, 3171.3798303356, 3183.3901876602795, 3230.66251460316]

>  <ZPE_kJmol>  (4) 
299.2207520027369

>  <E_elec_kJmol>  (4) 
-711281.2831420596

>  <E0_minus_Eelec_plus_ZPE_kJmol>  (4) 
0.0

>  <rxn>  (4) 
rxn_1467

>  <species_type>  (4) 
p1

>  <species_folder>  (4) 
rxn_1467_[CH2]c1ccccc1

>  <frequencies_cm1_list>  (4) 
[200.24815891652, 361.60171298056, 390.17523889708, 478.87608827552, 500.34228438583995, 531.78621016612, 625.85017507948, 685.3594698625999, 711.2686054749599, 777.5487477835999, 833.0683240958, 836.50868374112, 906.74420959408, 969.6801300518798, 974.03379874476, 983.70251407532, 992.09397013636, 1038.3980521491198, 1114.7108600102797, 1165.8355657176799, 1178.3403459854, 1276.27729061924, 1315.886061945, 1345.4965026448397, 1472.9546171693598, 1482.97354875124, 1496.57704667016, 1589.63156474148, 1604.18957361988, 3131.52384753832, 3150.75140643432, 3153.26472306144, 3164.65705170732, 3171.3798303356, 3183.3901876602795, 3230.66251460316]

>  <E0_kJmol>  (4) 
-710982

>  <H298_kJmol>  (4) 
-710965

$$$$

     RDKit          3D

  7  6  0  0  0  0  0  0  0  0999 V2000
   -2.0652    0.3855   -0.2963 S   0  0  0  0  0  0  0  0  0  1  0  0
   -0.7169   -0.5853    0.1792 C   0  0  0  0  0  3  0  0  0  2  0  0
    0.5987   -0.2168    0.0254 C   0  0  0  0  0  0  0  0  0  3  0  0
    1.7547    0.1211   -0.1163 C   0  0  0  0  0  0  0  0  0  4  0  0
   -1.3643    1.4227   -0.7731 H   0  0  0  0  0  0  0  0  0  5  0  0
   -0.9781   -1.5363    0.6220 H   0  0  0  0  0  0  0  0  0  6  0  0
    2.7711    0.4089   -0.2366 H   0  0  0  0  0  0  0  0  0  7  0  0
  1  2  1  0
  1  5  1  0
  2  6  1  0
  2  3  1  0
  3  4  1  0
  4  7  1  0
M  RAD  1   2   2
M  END
>  <rmg_smiles>  (5) 
[CH][C][CH]S

>  <rmg_adjacency_list>  (5) 
multiplicity 2
1 S u0 p2 c0 {2,S} {6,S}
2 C u1 p0 c0 {1,S} {3,S} {5,S}
3 C u0 p1 c0 {2,S} {4,S}
4 C u0 p1 c0 {3,S} {7,S}
5 H u0 p0 c0 {2,S}
6 H u0 p0 c0 {1,S}
7 H u0 p0 c0 {4,S}


>  <multiplicity>  (5) 
2

>  <reaction>  (5) 
rxn_1467

>  <type>  (5) 
r2

>  <role_mapnums>  (5) 
{}

>  <role_mapidx>  (5) 
{}

>  <ordered_mapped_smiles>  (5) 
[S:1]([C:2]([CH2:3][CH2:4][H:7])[H:6])[H:5]

>  <level_of_theory>  (5) 
wb97xd/def2tzvp

>  <lot_method>  (5) 
wb97xd

>  <lot_basis>  (5) 
def2tzvp

>  <spin_multiplicity>  (5) 
2.0

>  <optical_isomers>  (5) 
1.0

>  <modes>  (5) 
IdealGasTranslation(mass=(70.9955, 'amu')),         NonlinearRotor(             inertia = ([14.9079, 166.925, 181.833

>  <frequency_value>  (5) 
unknown

>  <frequency_units>  (5) 
unknown

>  <frequency_list>  (5) 
unknown

>  <arkane_path>  (5) 
/home/calvin/Dropbox/PersonalFolders/Calvin/HAb_Converged/rxn_1467/output/Species/rxn_1467_S[CH]CtC/arkane/output.py

>  <path_exists>  (5) 
True

>  <E0_value>  (5) 
-1349941.413308029

>  <E0_units>  (5) 
kJ/mol

>  <thermo_class>  (5) 
NASA

>  <Cp0_value>  (5) 
33.257888

>  <Cp0_units>  (5) 
J/(mol*K)

>  <CpInf_value>  (5) 
157.97496800000002

>  <CpInf_units>  (5) 
J/(mol*K)

>  <Tmin_value>  (5) 
10.0

>  <Tmin_units>  (5) 
K

>  <Tmax_value>  (5) 
3000.0

>  <Tmax_units>  (5) 
K

>  <polynomials>  (5) 
[{"name": "polynomial1", "class": "NASAPolynomial", "Tmin_value": 10.0, "Tmin_units": "K", "Tmax_value": 486.66190406490847, "Tmax_units": "K", "coeffs": [3.8802869524217605, 0.007874013043416483, 9.41897516241898e-05, -2.421710560237248e-07, 1.7753050185904364e-10, -162360446.73129028, 9.503469700679648]}, {"name": "polynomial2", "class": "NASAPolynomial", "Tmin_value": 486.66190406490847, "Tmin_units": "K", "Tmax_value": 3000.0, "Tmax_units": "K", "coeffs": [5.479256308565889, 0.018534163812409542, -1.2031766074503896e-05, 3.8396867817958634e-09, -4.735346053028521e-13, -162360884.2316824, 0.04497994237746414]}]

>  <H298_value>  (5) 
-322639.87448503025

>  <H298_units>  (5) 
kcal/mol

>  <S298_value>  (5) 
72.23945901825128

>  <S298_units>  (5) 
cal/(mol*K)

>  <Cp_T_value_list>  (5) 
[19.114834138015066, 22.14957394682245, 24.221586351801534, 25.905861977285806, 28.57248615298476, 30.49926030168845, 33.326848653569606, 34.89824788543922, 35.824097360007265]

>  <Cp_T_units>  (5) 
cal/(mol*K)

>  <T_list>  (5) 
[300.0, 400.0, 500.0, 600.0, 800.0, 1000.0, 1500.0, 2000.0, 2400.0]

>  <T_units>  (5) 
K

>  <yaml_path>  (5) 
/home/calvin/Dropbox/PersonalFolders/Calvin/HAb_Converged/rxn_1467/output/Species/rxn_1467_S[CH]CtC/rxn_1467_SCHCtC.yml

>  <frequencies_cm1>  (5) 
[185.14079121252, 248.73594226104, 394.82418795872, 492.5619900182799, 498.371459599, 555.60091525588, 690.8187231919999, 740.57689882072, 984.5334192990399, 1090.8961549205198, 1319.94445026912, 2052.8165915608, 2702.0831865814794, 3183.2253800126, 3431.48750028656]

>  <ZPE_kJmol>  (5) 
111.08297344706106

>  <E_elec_kJmol>  (5) 
-1350052.4962814762

>  <E0_minus_Eelec_plus_ZPE_kJmol>  (5) 
0.0

>  <rxn>  (5) 
rxn_1467

>  <species_type>  (5) 
r0

>  <species_folder>  (5) 
rxn_1467_S[CH]CtC

>  <frequencies_cm1_list>  (5) 
[185.14079121252, 248.73594226104, 394.82418795872, 492.5619900182799, 498.371459599, 555.60091525588, 690.8187231919999, 740.57689882072, 984.5334192990399, 1090.8961549205198, 1319.94445026912, 2052.8165915608, 2702.0831865814794, 3183.2253800126, 3431.48750028656]

>  <E0_kJmol>  (5) 
-1.34994e+06

>  <H298_kJmol>  (5) 
-1.34993e+06

$$$$
