
     RDKit          3D

 12 11  0  0  0  0  0  0  0  0999 V2000
    0.1583   -0.4847   -1.8749 C   0  0  0  0  0  0  0  0  0  1  0  0
   -0.3196   -0.3366   -0.4706 C   0  0  0  0  0  0  0  0  0  2  0  0
    0.2951    0.3857    0.4804 C   0  0  0  0  0  0  0  0  0  3  0  0
   -0.1530    0.4778    1.8516 C   0  0  0  0  0  0  0  0  0  4  0  0
    0.3152   -1.5379   -2.1247 H   0  0  0  0  0  0  0  0  0  5  0  0
   -0.5854   -0.1058   -2.5812 H   0  0  0  0  0  0  0  0  0  6  0  0
    1.0932    0.0518   -2.0411 H   0  0  0  0  0  0  0  0  0  7  0  0
   -1.2427   -0.8486   -0.2119 H   0  0  0  0  0  0  0  0  0  8  0  0
    1.2260    0.8880    0.2267 H   0  0  0  0  0  0  0  0  0  9  0  0
    0.1998    1.3346    2.4196 H   0  0  0  0  0  0  0  0  0 10  0  0
   -1.2001    0.2404    2.0273 H   0  0  0  0  0  0  0  0  0 11  0  0
    0.3277   -0.3612    2.3492 H   0  0  0  0  0  0  0  0  0 12  0  0
  1  5  1  0
  1  7  1  0
  1  6  1  0
  1  2  1  0
  2  8  1  0
  2  3  1  0
  3  4  1  0
  3  9  1  0
  4 12  1  0
  4 10  1  0
  4 11  1  0
M  END
>  <rmg_smiles>  (1) 
C[CH][CH]C

>  <rmg_adjacency_list>  (1) 
1  C u0 p0 c0 {3,S} {5,S} {6,S} {7,S}
2  C u0 p0 c0 {4,S} {8,S} {9,S} {10,S}
3  C u0 p0 c0 {1,S} {4,S} {11,S}
4  C u0 p0 c0 {2,S} {3,S} {12,S}
5  H u0 p0 c0 {1,S}
6  H u0 p0 c0 {1,S}
7  H u0 p0 c0 {1,S}
8  H u0 p0 c0 {2,S}
9  H u0 p0 c0 {2,S}
10 H u0 p0 c0 {2,S}
11 H u0 p0 c0 {3,S}
12 H u0 p0 c0 {4,S}


>  <multiplicity>  (1) 
1

>  <reaction>  (1) 
rxn_32

>  <type>  (1) 
r1h

>  <role_mapnums>  (1) 
{"r1h_a": 4, "r1h_h": 12}

>  <role_mapidx>  (1) 
{"r1h_a": 3, "r1h_h": 11}

>  <ordered_mapped_smiles>  (1) 
[C:1]([CH:2]([CH:3]([C:4]([H:10])([H:11])[H:12])[H:9])[H:8])([H:5])([H:6])[H:7]

>  <mol_properties>  (1) 
{"3": {"label": "donator", "atom_type": "Cs"}, "11": {"label": "d_hydrogen", "atom_type": "H0"}}

>  <level_of_theory>  (1) 
wb97xd/def2tzvp

>  <lot_method>  (1) 
wb97xd

>  <lot_basis>  (1) 
def2tzvp

>  <spin_multiplicity>  (1) 
1.0

>  <optical_isomers>  (1) 
1.0

>  <modes>  (1) 
IdealGasTranslation(mass=(56.0626, 'amu')),         NonlinearRotor(             inertia = ([14.4223, 134.785, 142.994

>  <frequency_value>  (1) 
unknown

>  <frequency_units>  (1) 
unknown

>  <frequency_list>  (1) 
unknown

>  <arkane_path>  (1) 
/home/calvin/Dropbox/PersonalFolders/Calvin/HAb_Converged/rxn_32/output/Species/rxn_32_CC=CC/arkane/output.py

>  <path_exists>  (1) 
True

>  <E0_value>  (1) 
-412530.5319289876

>  <E0_units>  (1) 
kJ/mol

>  <thermo_class>  (1) 
NASA

>  <Cp0_value>  (1) 
33.257888

>  <Cp0_units>  (1) 
J/(mol*K)

>  <CpInf_value>  (1) 
282.692048

>  <CpInf_units>  (1) 
J/(mol*K)

>  <Tmin_value>  (1) 
10.0

>  <Tmin_units>  (1) 
K

>  <Tmax_value>  (1) 
3000.0

>  <Tmax_units>  (1) 
K

>  <polynomials>  (1) 
[{"name": "polynomial1", "class": "NASAPolynomial", "Tmin_value": 10.0, "Tmin_units": "K", "Tmax_value": 876.4212813791887, "Tmax_units": "K", "coeffs": [3.836787493780791, 0.014889614715966039, 3.7274785995319404e-05, -5.10150478184817e-08, 1.8986418253329456e-11, -49615962.114741184, 7.6253605924364605]}, {"name": "polynomial2", "class": "NASAPolynomial", "Tmin_value": 876.4212813791887, "Tmin_units": "K", "Tmax_value": 3000.0, "Tmax_units": "K", "coeffs": [0.35033664051999086, 0.03999048058068148, -2.1411917479032447e-05, 5.588729430633446e-09, -5.722086104095602e-13, -49615703.891505, 21.97229608357955]}]

>  <H298_value>  (1) 
-98593.10529459674

>  <H298_units>  (1) 
kcal/mol

>  <S298_value>  (1) 
69.87712883966965

>  <S298_units>  (1) 
cal/(mol*K)

>  <Cp_T_value_list>  (1) 
[20.736075260677012, 25.78934672867801, 30.6229744209846, 35.03617701442316, 42.2509408173962, 47.58449540971321, 55.8889883730975, 60.08939969803742, 62.13782616309376]

>  <Cp_T_units>  (1) 
cal/(mol*K)

>  <T_list>  (1) 
[300.0, 400.0, 500.0, 600.0, 800.0, 1000.0, 1500.0, 2000.0, 2400.0]

>  <T_units>  (1) 
K

>  <yaml_path>  (1) 
/home/calvin/Dropbox/PersonalFolders/Calvin/HAb_Converged/rxn_32/output/Species/rxn_32_CC=CC/rxn_32_CC=CC.yml

>  <frequencies_cm1>  (1) 
[173.71412764003998, 224.62595680252, 244.76682474607998, 285.68032328264, 504.75775594659996, 762.6473896391999, 875.3689536669999, 983.46216958912, 998.1231832473198, 1061.07283767576, 1070.0823224156, 1077.9793555336, 1162.59434864664, 1322.2860922632399, 1329.1736785391997, 1403.0281056558, 1403.75600609972, 1465.77861750996, 1466.2661734676797, 1476.07222850464, 1483.9623946373201, 1752.5645254291198, 3004.79363345772, 3005.3017903714, 3061.49433124496, 3061.9063503641596, 3086.38028604464, 3087.26612715092, 3105.2850966305996, 3110.86108871044]

>  <ZPE_kJmol>  (1) 
281.4278693072432

>  <E_elec_kJmol>  (1) 
-412811.9597982948

>  <E0_minus_Eelec_plus_ZPE_kJmol>  (1) 
0.0

>  <rxn>  (1) 
rxn_32

>  <species_type>  (1) 
r0

>  <species_folder>  (1) 
rxn_32_CC=CC

>  <frequencies_cm1_list>  (1) 
[173.71412764003998, 224.62595680252, 244.76682474607998, 285.68032328264, 504.75775594659996, 762.6473896391999, 875.3689536669999, 983.46216958912, 998.1231832473198, 1061.07283767576, 1070.0823224156, 1077.9793555336, 1162.59434864664, 1322.2860922632399, 1329.1736785391997, 1403.0281056558, 1403.75600609972, 1465.77861750996, 1466.2661734676797, 1476.07222850464, 1483.9623946373201, 1752.5645254291198, 3004.79363345772, 3005.3017903714, 3061.49433124496, 3061.9063503641596, 3086.38028604464, 3087.26612715092, 3105.2850966305996, 3110.86108871044]

>  <E0_kJmol>  (1) 
-412531

>  <H298_kJmol>  (1) 
-412514

$$$$

     RDKit          3D

  4  3  0  0  0  0  0  0  0  0999 V2000
   -0.2353    1.2382    0.2278 H   0  0  0  0  0  0  0  0  0  1  0  0
    0.1474    0.4113    0.5300 O   0  0  0  0  0  0  0  0  0  2  0  0
   -0.1620   -0.4793   -0.4704 O   0  0  0  0  0  0  0  0  0  3  0  0
    0.5777   -0.3988   -1.0858 H   0  0  0  0  0  0  0  0  0  4  0  0
  1  2  1  0
  2  3  1  0
  3  4  1  0
M  END
>  <rmg_smiles>  (2) 
OO

>  <rmg_adjacency_list>  (2) 
1 H u0 p0 c0 {2,S}
2 O u0 p2 c0 {1,S} {3,S}
3 O u0 p2 c0 {2,S} {4,S}
4 H u0 p0 c0 {3,S}


>  <multiplicity>  (2) 
1

>  <reaction>  (2) 
rxn_32

>  <type>  (2) 
r2h

>  <role_mapnums>  (2) 
{"r2h_a": 2, "r2h_h": 1}

>  <role_mapidx>  (2) 
{"r2h_a": 1, "r2h_h": 0}

>  <ordered_mapped_smiles>  (2) 
[H:1][O:2][O:3][H:4]

>  <mol_properties>  (2) 
{"0": {"label": "a_hydrogen", "atom_type": "H0"}, "1": {"label": "acceptor", "atom_type": "O2s"}}

>  <level_of_theory>  (2) 
wb97xd/def2tzvp

>  <lot_method>  (2) 
wb97xd

>  <lot_basis>  (2) 
def2tzvp

>  <spin_multiplicity>  (2) 
1.0

>  <optical_isomers>  (2) 
2.0

>  <modes>  (2) 
IdealGasTranslation(mass=(34.0055, 'amu')),         NonlinearRotor(             inertia = ([1.6422, 18.4839, 19.1306

>  <frequency_value>  (2) 
unknown

>  <frequency_units>  (2) 
unknown

>  <frequency_list>  (2) 
unknown

>  <arkane_path>  (2) 
/home/calvin/Dropbox/PersonalFolders/Calvin/HAb_Converged/rxn_32/output/Species/rxn_32_OO/arkane/output.py

>  <path_exists>  (2) 
True

>  <E0_value>  (2) 
-397869.6784032715

>  <E0_units>  (2) 
kJ/mol

>  <thermo_class>  (2) 
NASA

>  <Cp0_value>  (2) 
33.257888

>  <Cp0_units>  (2) 
J/(mol*K)

>  <CpInf_value>  (2) 
83.14472

>  <CpInf_units>  (2) 
J/(mol*K)

>  <Tmin_value>  (2) 
10.0

>  <Tmin_units>  (2) 
K

>  <Tmax_value>  (2) 
3000.0

>  <Tmax_units>  (2) 
K

>  <polynomials>  (2) 
[{"name": "polynomial1", "class": "NASAPolynomial", "Tmin_value": 10.0, "Tmin_units": "K", "Tmax_value": 455.78106288096404, "Tmax_units": "K", "coeffs": [3.993411036033662, 0.00039597769380578143, 1.891318343950514e-05, -3.2458663273975925e-08, 1.830389461818306e-11, -47852668.906908266, 4.504010200645888]}, {"name": "polynomial2", "class": "NASAPolynomial", "Tmin_value": 455.78106288096404, "Tmin_units": "K", "Tmax_value": 3000.0, "Tmax_units": "K", "coeffs": [3.1932894099772424, 0.0074090928900088, -4.13817425256861e-06, 1.2156565940750795e-09, -1.433593106081876e-13, -47852595.87875142, 7.736455149271243]}]

>  <H298_value>  (2) 
-95090.51348489316

>  <H298_units>  (2) 
kcal/mol

>  <S298_value>  (2) 
55.5670496873013

>  <S298_units>  (2) 
cal/(mol*K)

>  <Cp_T_value_list>  (2) 
[10.107465812395086, 11.06702468787646, 11.935737360557455, 12.7042208397447, 13.981643941817545, 14.976592388023054, 16.639120825815006, 17.666826111390996, 18.25874653130484]

>  <Cp_T_units>  (2) 
cal/(mol*K)

>  <T_list>  (2) 
[300.0, 400.0, 500.0, 600.0, 800.0, 1000.0, 1500.0, 2000.0, 2400.0]

>  <T_units>  (2) 
K

>  <yaml_path>  (2) 
/home/calvin/Dropbox/PersonalFolders/Calvin/HAb_Converged/rxn_32/output/Species/rxn_32_OO/rxn_32_OO.yml

>  <frequencies_cm1>  (2) 
[384.68165064108, 1007.86056843108, 1337.5514006295998, 1458.46527814416, 3787.7329647175193, 3788.3509933963196]

>  <ZPE_kJmol>  (2) 
70.36821125363778

>  <E_elec_kJmol>  (2) 
-397940.04661452514

>  <E0_minus_Eelec_plus_ZPE_kJmol>  (2) 
0.0

>  <rxn>  (2) 
rxn_32

>  <species_type>  (2) 
p1

>  <species_folder>  (2) 
rxn_32_OO

>  <frequencies_cm1_list>  (2) 
[384.68165064108, 1007.86056843108, 1337.5514006295998, 1458.46527814416, 3787.7329647175193, 3788.3509933963196]

>  <E0_kJmol>  (2) 
-397870

>  <H298_kJmol>  (2) 
-397859

$$$$

     RDKit          3D

 15 13  0  0  0  0  0  0  0  0999 V2000
    0.0010    0.2858   -2.6744 C   0  0  0  0  0  0  0  0  0  1  0  0
   -0.4769    0.4339   -1.2701 C   0  0  0  0  0  0  0  0  0  2  0  0
    0.1378    1.1562   -0.3191 C   0  0  0  0  0  0  0  0  0  3  0  0
   -0.3103    1.2483    1.0521 C   0  0  0  0  0  3  0  0  0  4  0  0
    0.1579   -0.7674   -2.9242 H   0  0  0  0  0  0  0  0  0  5  0  0
   -0.7427    0.6647   -3.3807 H   0  0  0  0  0  0  0  0  0  6  0  0
    0.9359    0.8223   -2.8406 H   0  0  0  0  0  0  0  0  0  7  0  0
   -1.4000   -0.0781   -1.0114 H   0  0  0  0  0  0  0  0  0  8  0  0
    1.0686    1.6585   -0.5728 H   0  0  0  0  0  0  0  0  0  9  0  0
    0.0425    2.1051    1.6201 H   0  0  0  0  0  0  0  0  0 10  0  0
   -1.3574    1.0109    1.2278 H   0  0  0  0  0  0  0  0  0 11  0  0
    0.2638    0.2462    1.6464 H   0  0  0  0  0  0  0  0  0 12  0  0
    0.7578   -0.8212    2.0365 O   0  0  0  0  0  0  0  0  0 13  0  0
    0.4484   -1.7118    1.0361 O   0  0  0  0  0  0  0  0  0 14  0  0
    1.1881   -1.6312    0.4206 H   0  0  0  0  0  0  0  0  0 15  0  0
  1  5  1  0
  1  7  1  0
  1  6  1  0
  1  2  1  0
  2  8  1  0
  2  3  1  0
  3  4  1  0
  3  9  1  0
  4 10  1  0
  4 11  1  0
 12 13  1  0
 13 14  1  0
 14 15  1  0
M  RAD  1   4   2
M  END
>  <rmg_smiles>  (3) 
OO.[CH2][CH][CH]C

>  <rmg_adjacency_list>  (3) 
multiplicity 2
1  O u0 p2 c0 {2,S} {14,S}
2  O u0 p2 c0 {1,S} {15,S}
3  C u0 p0 c0 {4,S} {7,S} {8,S} {9,S}
4  C u0 p0 c0 {3,S} {5,S} {10,S}
5  C u0 p0 c0 {4,S} {6,S} {11,S}
6  C u1 p0 c0 {5,S} {12,S} {13,S}
7  H u0 p0 c0 {3,S}
8  H u0 p0 c0 {3,S}
9  H u0 p0 c0 {3,S}
10 H u0 p0 c0 {4,S}
11 H u0 p0 c0 {5,S}
12 H u0 p0 c0 {6,S}
13 H u0 p0 c0 {6,S}
14 H u0 p0 c0 {1,S}
15 H u0 p0 c0 {2,S}


>  <multiplicity>  (3) 
2

>  <reaction>  (3) 
rxn_32

>  <type>  (3) 
ts

>  <role_mapnums>  (3) 
{"*2": 12, "*1": 13, "*3": 4, "*0": 14, "*4": 3}

>  <role_mapidx>  (3) 
{"*2": 11, "*1": 12, "*3": 3, "*0": 13, "*4": 2}

>  <ordered_mapped_smiles>  (3) 
[C:1]([CH:2]([CH:3]([C:4]([H:10])[H:11])[H:9])[H:8])([H:5])([H:6])[H:7].[H:12][O:13][O:14][H:15]

>  <mol_properties>  (3) 
{"2": {"label": "*4", "atom_type": "Cs"}, "3": {"label": "*3", "atom_type": "Cs"}, "11": {"label": "*2", "atom_type": "H0"}, "12": {"label": "*1", "atom_type": "O2s"}, "13": {"label": "*0", "atom_type": "O2s"}}

>  <level_of_theory>  (3) 
wb97xd/def2tzvp

>  <lot_method>  (3) 
wb97xd

>  <lot_basis>  (3) 
def2tzvp

>  <spin_multiplicity>  (3) 
2.0

>  <optical_isomers>  (3) 
2.0

>  <modes>  (3) 
IdealGasTranslation(mass=(89.0602, 'amu')),         NonlinearRotor(             inertia = ([101.893, 281.952, 358.024

>  <frequency_value>  (3) 
-1894.62

>  <frequency_units>  (3) 
cm^-1

>  <frequency_list>  (3) 
unknown

>  <arkane_path>  (3) 
/home/calvin/Dropbox/PersonalFolders/Calvin/HAb_Converged/rxn_32/output/rxns/TS0/arkane/output.py

>  <path_exists>  (3) 
True

>  <E0_value>  (3) 
-808683.0

>  <E0_units>  (3) 
kJ/mol

>  <thermo_class>  (3) 
unknown

>  <Cp0_value>  (3) 
unknown

>  <Cp0_units>  (3) 
unknown

>  <CpInf_value>  (3) 
unknown

>  <CpInf_units>  (3) 
unknown

>  <Tmin_value>  (3) 
unknown

>  <Tmin_units>  (3) 
unknown

>  <Tmax_value>  (3) 
unknown

>  <Tmax_units>  (3) 
unknown

>  <polynomials>  (3) 
unknown

>  <H298_value>  (3) 
unknown

>  <H298_units>  (3) 
unknown

>  <S298_value>  (3) 
unknown

>  <S298_units>  (3) 
unknown

>  <Cp_T_value_list>  (3) 
unknown

>  <Cp_T_units>  (3) 
unknown

>  <T_list>  (3) 
unknown

>  <T_units>  (3) 
unknown

>  <yaml_path>  (3) 
unknown

>  <frequencies_cm1>  (3) 
unknown

>  <ZPE_kJmol>  (3) 
unknown

>  <E_elec_kJmol>  (3) 
unknown

>  <E0_minus_Eelec_plus_ZPE_kJmol>  (3) 
unknown

>  <rxn>  (3) 
unknown

>  <species_type>  (3) 
unknown

>  <species_folder>  (3) 
unknown

>  <frequencies_cm1_list>  (3) 
[]

>  <ts_imag_freq_cm1>  (3) 
-1917.636

>  <ts_freq_out_path>  (3) 
/home/calvin/Dropbox/PersonalFolders/Calvin/HAb_Converged/rxn_32/output/rxns/TS0/geometry/freq.out

>  <E0_kJmol>  (3) 
-808683

>  <H298_kJmol>  (3) 
unknown

$$$$

     RDKit          3D

 11 10  0  0  0  0  0  0  0  0999 V2000
    2.0592    0.2507   -0.0997 C   0  0  0  0  0  0  0  0  0  1  0  0
    0.8040   -0.3121   -0.1492 C   0  0  0  0  0  0  0  0  0  2  0  0
   -0.3810    0.3947   -0.1916 C   0  0  0  0  0  3  0  0  0  3  0  0
   -1.7317   -0.2272   -0.2449 C   0  0  0  0  0  0  0  0  0  4  0  0
    2.9496   -0.3613   -0.0681 H   0  0  0  0  0  0  0  0  0  5  0  0
    2.1888    1.3262   -0.0910 H   0  0  0  0  0  0  0  0  0  6  0  0
    0.7365   -1.3979   -0.1556 H   0  0  0  0  0  0  0  0  0  7  0  0
   -0.3319    1.4800   -0.1859 H   0  0  0  0  0  0  0  0  0  8  0  0
   -1.6720   -1.3165   -0.2465 H   0  0  0  0  0  0  0  0  0  9  0  0
   -2.3432    0.0781    0.6103 H   0  0  0  0  0  0  0  0  0 10  0  0
   -2.2769    0.0842   -1.1417 H   0  0  0  0  0  0  0  0  0 11  0  0
  1  5  1  0
  1  6  1  0
  1  2  1  0
  2  7  1  0
  2  3  1  0
  3  4  1  0
  3  8  1  0
  4  9  1  0
  4 10  1  0
  4 11  1  0
M  RAD  1   3   2
M  END
>  <rmg_smiles>  (4) 
[CH2][CH][CH]C

>  <rmg_adjacency_list>  (4) 
multiplicity 2
1  C u0 p0 c0 {2,S} {5,S} {6,S} {7,S}
2  C u1 p0 c0 {1,S} {3,S} {8,S}
3  C u0 p0 c0 {2,S} {4,S} {9,S}
4  C u0 p0 c0 {3,S} {10,S} {11,S}
5  H u0 p0 c0 {1,S}
6  H u0 p0 c0 {1,S}
7  H u0 p0 c0 {1,S}
8  H u0 p0 c0 {2,S}
9  H u0 p0 c0 {3,S}
10 H u0 p0 c0 {4,S}
11 H u0 p0 c0 {4,S}


>  <multiplicity>  (4) 
2

>  <reaction>  (4) 
rxn_32

>  <type>  (4) 
r1

>  <role_mapnums>  (4) 
{}

>  <role_mapidx>  (4) 
{}

>  <ordered_mapped_smiles>  (4) 
[CH:1]([CH:2]([C:3]([C:4]([H:9])([H:10])[H:11])[H:8])[H:7])([H:5])[H:6]

>  <level_of_theory>  (4) 
wb97xd/def2tzvp

>  <lot_method>  (4) 
wb97xd

>  <lot_basis>  (4) 
def2tzvp

>  <spin_multiplicity>  (4) 
2.0

>  <optical_isomers>  (4) 
1.0

>  <modes>  (4) 
IdealGasTranslation(mass=(55.0548, 'amu')),         NonlinearRotor(             inertia = ([13.1906, 125.273, 135.366

>  <frequency_value>  (4) 
unknown

>  <frequency_units>  (4) 
unknown

>  <frequency_list>  (4) 
unknown

>  <arkane_path>  (4) 
/home/calvin/Dropbox/PersonalFolders/Calvin/HAb_Converged/rxn_32/output/Species/rxn_32_[CH2]C=CC/arkane/output.py

>  <path_exists>  (4) 
True

>  <E0_value>  (4) 
-410861.3152320571

>  <E0_units>  (4) 
kJ/mol

>  <thermo_class>  (4) 
NASA

>  <Cp0_value>  (4) 
33.257888

>  <Cp0_units>  (4) 
J/(mol*K)

>  <CpInf_value>  (4) 
257.748632

>  <CpInf_units>  (4) 
J/(mol*K)

>  <Tmin_value>  (4) 
10.0

>  <Tmin_units>  (4) 
K

>  <Tmax_value>  (4) 
3000.0

>  <Tmax_units>  (4) 
K

>  <polynomials>  (4) 
[{"name": "polynomial1", "class": "NASAPolynomial", "Tmin_value": 10.0, "Tmin_units": "K", "Tmax_value": 463.64246954531046, "Tmax_units": "K", "coeffs": [3.9040453375997504, 0.008185759300872827, 7.728092547101295e-05, -1.3744434899865474e-07, 7.689078472376475e-11, -49415200.70379381, 8.995586768649591]}, {"name": "polynomial2", "class": "NASAPolynomial", "Tmin_value": 463.64246954531046, "Tmin_units": "K", "Tmax_value": 3000.0, "Tmax_units": "K", "coeffs": [0.31792990892071993, 0.03912466876764488, -2.2815139960113778e-05, 6.484049637250689e-09, -7.173504322720996e-13, -49414868.17174046, 23.54005070336339]}]

>  <H298_value>  (4) 
-98194.2858497546

>  <H298_units>  (4) 
kcal/mol

>  <S298_value>  (4) 
71.63333213598494

>  <S298_units>  (4) 
cal/(mol*K)

>  <Cp_T_value_list>  (4) 
[20.322911199838124, 25.267853069070732, 29.693139814826782, 33.55769166357428, 39.82755697366882, 44.50181620490233, 51.51425300026369, 55.04859648538022, 56.908557144746766]

>  <Cp_T_units>  (4) 
cal/(mol*K)

>  <T_list>  (4) 
[300.0, 400.0, 500.0, 600.0, 800.0, 1000.0, 1500.0, 2000.0, 2400.0]

>  <T_units>  (4) 
K

>  <yaml_path>  (4) 
/home/calvin/Dropbox/PersonalFolders/Calvin/HAb_Converged/rxn_32/output/Species/rxn_32_[CH2]C=CC/rxn_32_CH2C=CC.yml

>  <frequencies_cm1>  (4) 
[145.86850216744, 217.17527773031998, 290.56961683048, 508.82301125604, 544.53820190536, 739.89020028872, 798.30764440596, 881.33636391008, 988.47506887272, 989.4158458615598, 1023.15334473872, 1138.3744914229999, 1188.9155033782, 1281.84641571376, 1335.3196304005999, 1400.47358711676, 1459.61893167792, 1463.37517264796, 1502.4895210306797, 1514.45180945812, 2991.0802637736797, 3039.3139686613595, 3086.1330745731198, 3108.5469146576, 3124.5332564825594, 3127.2937845812003, 3223.3011063401195]

>  <ZPE_kJmol>  (4) 
245.90815043438468

>  <E_elec_kJmol>  (4) 
-411107.2233824915

>  <E0_minus_Eelec_plus_ZPE_kJmol>  (4) 
0.0

>  <rxn>  (4) 
rxn_32

>  <species_type>  (4) 
p0

>  <species_folder>  (4) 
rxn_32_[CH2]C=CC

>  <frequencies_cm1_list>  (4) 
[145.86850216744, 217.17527773031998, 290.56961683048, 508.82301125604, 544.53820190536, 739.89020028872, 798.30764440596, 881.33636391008, 988.47506887272, 989.4158458615598, 1023.15334473872, 1138.3744914229999, 1188.9155033782, 1281.84641571376, 1335.3196304005999, 1400.47358711676, 1459.61893167792, 1463.37517264796, 1502.4895210306797, 1514.45180945812, 2991.0802637736797, 3039.3139686613595, 3086.1330745731198, 3108.5469146576, 3124.5332564825594, 3127.2937845812003, 3223.3011063401195]

>  <E0_kJmol>  (4) 
-410861

>  <H298_kJmol>  (4) 
-410845

$$$$

     RDKit          3D

  3  2  0  0  0  0  0  0  0  0999 V2000
    0.9943   -0.1797    0.0000 O   0  0  0  0  0  1  0  0  0  1  0  0
   -0.1595    0.4394    0.0000 O   0  0  0  0  0  0  0  0  0  2  0  0
   -0.8348   -0.2597    0.0000 H   0  0  0  0  0  0  0  0  0  3  0  0
  1  2  1  0
  2  3  1  0
M  RAD  1   1   2
M  END
>  <rmg_smiles>  (5) 
[O]O

>  <rmg_adjacency_list>  (5) 
multiplicity 2
1 O u1 p2 c0 {2,S}
2 O u0 p2 c0 {1,S} {3,S}
3 H u0 p0 c0 {2,S}


>  <multiplicity>  (5) 
2

>  <reaction>  (5) 
rxn_32

>  <type>  (5) 
r2

>  <role_mapnums>  (5) 
{}

>  <role_mapidx>  (5) 
{}

>  <ordered_mapped_smiles>  (5) 
[O:1][O:2][H:3]

>  <level_of_theory>  (5) 
wb97xd/def2tzvp

>  <lot_method>  (5) 
wb97xd

>  <lot_basis>  (5) 
def2tzvp

>  <spin_multiplicity>  (5) 
2.0

>  <optical_isomers>  (5) 
1.0

>  <modes>  (5) 
IdealGasTranslation(mass=(32.9977, 'amu')),         NonlinearRotor(             inertia = ([0.803517, 14.5889, 15.3924

>  <frequency_value>  (5) 
unknown

>  <frequency_units>  (5) 
unknown

>  <frequency_list>  (5) 
unknown

>  <arkane_path>  (5) 
/home/calvin/Dropbox/PersonalFolders/Calvin/HAb_Converged/rxn_32/output/Species/rxn_32_[O]O/arkane/output.py

>  <path_exists>  (5) 
True

>  <E0_value>  (5) 
-396214.7927695905

>  <E0_units>  (5) 
kJ/mol

>  <thermo_class>  (5) 
NASA

>  <Cp0_value>  (5) 
33.257888

>  <Cp0_units>  (5) 
J/(mol*K)

>  <CpInf_value>  (5) 
58.201304

>  <CpInf_units>  (5) 
J/(mol*K)

>  <Tmin_value>  (5) 
10.0

>  <Tmin_units>  (5) 
K

>  <Tmax_value>  (5) 
3000.0

>  <Tmax_units>  (5) 
K

>  <polynomials>  (5) 
[{"name": "polynomial1", "class": "NASAPolynomial", "Tmin_value": 10.0, "Tmin_units": "K", "Tmax_value": 938.1901641883775, "Tmax_units": "K", "coeffs": [4.028900763568748, -0.0017001850192041605, 1.0116513729421136e-05, -1.0102502975955476e-08, 3.2943616799556636e-12, -47653633.38795187, 4.661311963627797]}, {"name": "polynomial2", "class": "NASAPolynomial", "Tmin_value": 938.1901641883775, "Tmin_units": "K", "Tmax_value": 3000.0, "Tmax_units": "K", "coeffs": [3.0224709900106443, 0.00428209217697721, -2.152234978217665e-06, 5.370565329041951e-10, -5.2799153043016775e-14, -47653518.97920004, 9.055842364041489]}]

>  <H298_value>  (5) 
-94695.23338060976

>  <H298_units>  (5) 
kcal/mol

>  <S298_value>  (5) 
54.59701487407024

>  <S298_units>  (5) 
cal/(mol*K)

>  <Cp_T_value_list>  (5) 
[8.312978103030632, 8.754130351990018, 9.242540000567846, 9.728455522252242, 10.572357002256187, 11.201059485179156, 12.218042363471625, 12.776508208459937, 13.066159106759592]

>  <Cp_T_units>  (5) 
cal/(mol*K)

>  <T_list>  (5) 
[300.0, 400.0, 500.0, 600.0, 800.0, 1000.0, 1500.0, 2000.0, 2400.0]

>  <T_units>  (5) 
K

>  <yaml_path>  (5) 
/home/calvin/Dropbox/PersonalFolders/Calvin/HAb_Converged/rxn_32/output/Species/rxn_32_[O]O/rxn_32_OO.yml

>  <frequencies_cm1>  (5) 
[1229.25217514788, 1446.77766912952, 3624.6283293968795]

>  <ZPE_kJmol>  (5) 
37.68631575394318

>  <E_elec_kJmol>  (5) 
-396252.4790853445

>  <E0_minus_Eelec_plus_ZPE_kJmol>  (5) 
0.0

>  <rxn>  (5) 
rxn_32

>  <species_type>  (5) 
r1

>  <species_folder>  (5) 
rxn_32_[O]O

>  <frequencies_cm1_list>  (5) 
[1229.25217514788, 1446.77766912952, 3624.6283293968795]

>  <E0_kJmol>  (5) 
-396215

>  <H298_kJmol>  (5) 
-396205

$$$$
