
     RDKit          3D

 10  9  0  0  0  0  0  0  0  0999 V2000
   -0.2539   -0.8765   -1.0382 S   0  0  0  0  0  0  0  0  0  1  0  0
   -0.0877    0.9799    0.9810 C   0  0  0  0  0  0  0  0  0  2  0  0
    1.2555    0.4734    1.4411 C   0  0  0  0  0  0  0  0  0  3  0  0
   -0.6715    0.4871   -0.2448 C   0  0  0  0  0  0  0  0  0  4  0  0
   -0.2391    2.0516    1.1174 H   0  0  0  0  0  0  0  0  0  5  0  0
   -0.7905    0.6053    1.7265 H   0  0  0  0  0  0  0  0  0  6  0  0
    2.0470    0.8183    0.7723 H   0  0  0  0  0  0  0  0  0  7  0  0
    1.2825   -0.6160    1.4402 H   0  0  0  0  0  0  0  0  0  8  0  0
    1.4759    0.8334    2.4468 H   0  0  0  0  0  0  0  0  0  9  0  0
   -1.5096    1.0735   -0.6203 H   0  0  0  0  0  0  0  0  0 10  0  0
  1  4  1  0
  2  5  1  0
  2  6  1  0
  2  3  1  0
  2  4  1  0
  3  8  1  0
  3  7  1  0
  3  9  1  0
  4 10  1  0
M  END
>  <rmg_smiles>  (1) 
CC[CH][S]

>  <rmg_adjacency_list>  (1) 
1  S u0 p2 c0 {4,S}
2  C u0 p0 c0 {3,S} {4,S} {5,S} {6,S}
3  C u0 p0 c0 {2,S} {7,S} {8,S} {9,S}
4  C u0 p0 c0 {1,S} {2,S} {10,S}
5  H u0 p0 c0 {2,S}
6  H u0 p0 c0 {2,S}
7  H u0 p0 c0 {3,S}
8  H u0 p0 c0 {3,S}
9  H u0 p0 c0 {3,S}
10 H u0 p0 c0 {4,S}


>  <multiplicity>  (1) 
1

>  <reaction>  (1) 
rxn_2010

>  <type>  (1) 
r1h

>  <role_mapnums>  (1) 
{"r1h_a": 2, "r1h_h": 6}

>  <role_mapidx>  (1) 
{"r1h_a": 1, "r1h_h": 5}

>  <ordered_mapped_smiles>  (1) 
[SH:1][CH:4]([C:2]([C:3]([H:7])([H:8])[H:9])([H:5])[H:6])[H:10]

>  <mol_properties>  (1) 
{"1": {"label": "donator", "atom_type": "Cs"}, "5": {"label": "d_hydrogen", "atom_type": "H0"}}

>  <level_of_theory>  (1) 
wb97xd/def2tzvp

>  <lot_method>  (1) 
wb97xd

>  <lot_basis>  (1) 
def2tzvp

>  <spin_multiplicity>  (1) 
1.0

>  <optical_isomers>  (1) 
2.0

>  <modes>  (1) 
IdealGasTranslation(mass=(74.019, 'amu')),         NonlinearRotor(             inertia = ([22.4966, 186.361, 188.795

>  <frequency_value>  (1) 
unknown

>  <frequency_units>  (1) 
unknown

>  <frequency_list>  (1) 
unknown

>  <arkane_path>  (1) 
/home/calvin/Dropbox/PersonalFolders/Calvin/HAb_Converged/rxn_2010/output/Species/rxn_2010_CCC=S/arkane/output.py

>  <path_exists>  (1) 
True

>  <E0_value>  (1) 
-1354842.217301763

>  <E0_units>  (1) 
kJ/mol

>  <thermo_class>  (1) 
NASA

>  <Cp0_value>  (1) 
33.257888

>  <Cp0_units>  (1) 
J/(mol*K)

>  <CpInf_value>  (1) 
232.805216

>  <CpInf_units>  (1) 
J/(mol*K)

>  <Tmin_value>  (1) 
10.0

>  <Tmin_units>  (1) 
K

>  <Tmax_value>  (1) 
3000.0

>  <Tmax_units>  (1) 
K

>  <polynomials>  (1) 
[{"name": "polynomial1", "class": "NASAPolynomial", "Tmin_value": 10.0, "Tmin_units": "K", "Tmax_value": 1013.5613876204479, "Tmax_units": "K", "coeffs": [3.938264474030978, 0.013958577362371608, 2.4928299834323208e-05, -3.437968169284249e-08, 1.1996855715308475e-11, -162949884.83258396, 10.036718283867241]}, {"name": "polynomial2", "class": "NASAPolynomial", "Tmin_value": 1013.5613876204479, "Tmin_units": "K", "Tmax_value": 3000.0, "Tmax_units": "K", "coeffs": [3.4971174702987913, 0.02812100302113746, -1.4413974403757785e-05, 3.5888447591702137e-09, -3.50645414543858e-13, -162950433.43848506, 9.023464985603324]}]

>  <H298_value>  (1) 
-323811.1931375839

>  <H298_units>  (1) 
kcal/mol

>  <S298_value>  (1) 
74.44131966579386

>  <S298_units>  (1) 
cal/(mol*K)

>  <Cp_T_value_list>  (1) 
[18.95458725520134, 23.085463908908388, 27.029925960895593, 30.63553072981776, 36.506480449108224, 40.62310264010602, 46.867049640781964, 50.04512758032496, 51.55141314203573]

>  <Cp_T_units>  (1) 
cal/(mol*K)

>  <T_list>  (1) 
[300.0, 400.0, 500.0, 600.0, 800.0, 1000.0, 1500.0, 2000.0, 2400.0]

>  <T_units>  (1) 
K

>  <yaml_path>  (1) 
/home/calvin/Dropbox/PersonalFolders/Calvin/HAb_Converged/rxn_2010/output/Species/rxn_2010_CCC=S/rxn_2010_CCC=S.yml

>  <frequencies_cm1>  (1) 
[74.28704719176, 221.72122201215998, 335.63077450031994, 396.89115054004003, 760.5804270578799, 844.8108689929999, 880.5466605982799, 995.2665173541999, 1070.3913367549999, 1106.71082211248, 1174.46736626492, 1258.5398675376798, 1308.6619933883599, 1395.2272103322798, 1411.9963884837198, 1463.1416951470799, 1484.2233400794798, 1490.93925172244, 3001.8614307260796, 3019.9765380002395, 3047.92516825264, 3080.3167380070795, 3099.9288480809996, 3104.5915311132794]

>  <ZPE_kJmol>  (1) 
215.4991505651017

>  <E_elec_kJmol>  (1) 
-1355057.716452328

>  <E0_minus_Eelec_plus_ZPE_kJmol>  (1) 
0.0

>  <rxn>  (1) 
rxn_2010

>  <species_type>  (1) 
r1

>  <species_folder>  (1) 
rxn_2010_CCC=S

>  <frequencies_cm1_list>  (1) 
[74.28704719176, 221.72122201215998, 335.63077450031994, 396.89115054004003, 760.5804270578799, 844.8108689929999, 880.5466605982799, 995.2665173541999, 1070.3913367549999, 1106.71082211248, 1174.46736626492, 1258.5398675376798, 1308.6619933883599, 1395.2272103322798, 1411.9963884837198, 1463.1416951470799, 1484.2233400794798, 1490.93925172244, 3001.8614307260796, 3019.9765380002395, 3047.92516825264, 3080.3167380070795, 3099.9288480809996, 3104.5915311132794]

>  <E0_kJmol>  (1) 
-1.35484e+06

>  <H298_kJmol>  (1) 
-1.35483e+06

$$$$

     RDKit          3D

 15 15  0  0  0  0  0  0  0  0999 V2000
    0.8316   -0.1148    0.4551 C   0  0  0  0  0  0  0  0  0  1  0  0
    0.4072   -1.0330   -0.5146 C   0  0  0  0  0  0  0  0  0  2  0  0
   -0.0092    0.9642    0.7609 C   0  0  0  0  0  0  0  0  0  3  0  0
   -0.8152   -0.8827   -1.1441 C   0  0  0  0  0  0  0  0  0  4  0  0
   -1.6394    0.1868   -0.8233 C   0  0  0  0  0  0  0  0  0  5  0  0
   -1.2313    1.1091    0.1331 C   0  0  0  0  0  0  0  0  0  6  0  0
    2.1439   -0.2302    1.0524 C   0  0  0  0  0  0  0  0  0  7  0  0
    2.7834    0.2303    0.3058 H   0  0  0  0  0  0  0  0  0  8  0  0
    1.0516   -1.8638   -0.7748 H   0  0  0  0  0  0  0  0  0  9  0  0
   -1.1253   -1.6017   -1.8915 H   0  0  0  0  0  0  0  0  0 10  0  0
   -2.5962    0.3028   -1.3160 H   0  0  0  0  0  0  0  0  0 11  0  0
   -1.8715    1.9445    0.3871 H   0  0  0  0  0  0  0  0  0 12  0  0
    0.3064    1.6872    1.5043 H   0  0  0  0  0  0  0  0  0 13  0  0
    2.6135   -1.2092    1.0480 H   0  0  0  0  0  0  0  0  0 14  0  0
    2.3540    0.3712    1.9310 H   0  0  0  0  0  0  0  0  0 15  0  0
  1  3  1  0
  1  7  1  0
  1  2  1  0
  2  9  1  0
  2  4  1  0
  3  6  1  0
  3 13  1  0
  4  5  1  0
  4 10  1  0
  5 11  1  0
  5  6  1  0
  6 12  1  0
  7 14  1  0
  7  8  1  0
  7 15  1  0
M  END
>  <rmg_smiles>  (2) 
CC1[CH][CH][CH][CH][CH]1

>  <rmg_adjacency_list>  (2) 
1  C u0 p0 c0 {2,S} {8,S} {9,S} {10,S}
2  C u0 p0 c0 {1,S} {3,S} {4,S}
3  C u0 p0 c0 {2,S} {5,S} {11,S}
4  C u0 p0 c0 {2,S} {7,S} {15,S}
5  C u0 p0 c0 {3,S} {6,S} {12,S}
6  C u0 p0 c0 {5,S} {7,S} {13,S}
7  C u0 p0 c0 {4,S} {6,S} {14,S}
8  H u0 p0 c0 {1,S}
9  H u0 p0 c0 {1,S}
10 H u0 p0 c0 {1,S}
11 H u0 p0 c0 {3,S}
12 H u0 p0 c0 {5,S}
13 H u0 p0 c0 {6,S}
14 H u0 p0 c0 {7,S}
15 H u0 p0 c0 {4,S}


>  <multiplicity>  (2) 
1

>  <reaction>  (2) 
rxn_2010

>  <type>  (2) 
r2h

>  <role_mapnums>  (2) 
{"r2h_a": 7, "r2h_h": 8}

>  <role_mapidx>  (2) 
{"r2h_a": 6, "r2h_h": 7}

>  <ordered_mapped_smiles>  (2) 
[CH:1]1([C:7]([H:8])([H:14])[H:15])[CH:2]([H:9])[CH:4]([H:10])[CH:5]([H:11])[CH:6]([H:12])[CH:3]1[H:13]

>  <mol_properties>  (2) 
{"6": {"label": "acceptor", "atom_type": "Cs"}, "7": {"label": "a_hydrogen", "atom_type": "H0"}}

>  <level_of_theory>  (2) 
wb97xd/def2tzvp

>  <lot_method>  (2) 
wb97xd

>  <lot_basis>  (2) 
def2tzvp

>  <spin_multiplicity>  (2) 
1.0

>  <optical_isomers>  (2) 
1.0

>  <modes>  (2) 
IdealGasTranslation(mass=(92.0626, 'amu')),         NonlinearRotor(             inertia = ([90.1823, 198.896, 285.945

>  <frequency_value>  (2) 
unknown

>  <frequency_units>  (2) 
unknown

>  <frequency_list>  (2) 
unknown

>  <arkane_path>  (2) 
/home/calvin/Dropbox/PersonalFolders/Calvin/HAb_Converged/rxn_2010/output/Species/rxn_2010_Cc1ccccc1/arkane/output.py

>  <path_exists>  (2) 
True

>  <E0_value>  (2) 
-712667.4188363365

>  <E0_units>  (2) 
kJ/mol

>  <thermo_class>  (2) 
NASA

>  <Cp0_value>  (2) 
33.257888

>  <Cp0_units>  (2) 
J/(mol*K)

>  <CpInf_value>  (2) 
357.522296

>  <CpInf_units>  (2) 
J/(mol*K)

>  <Tmin_value>  (2) 
10.0

>  <Tmin_units>  (2) 
K

>  <Tmax_value>  (2) 
3000.0

>  <Tmax_units>  (2) 
K

>  <polynomials>  (2) 
[{"name": "polynomial1", "class": "NASAPolynomial", "Tmin_value": 10.0, "Tmin_units": "K", "Tmax_value": 551.6286889493217, "Tmax_units": "K", "coeffs": [3.9807869850599604, 0.00035579842450977005, 0.00017407979731871807, -2.980547273310665e-07, 1.6260076242920846e-10, -85714089.34704308, 11.95867328323678]}, {"name": "polynomial2", "class": "NASAPolynomial", "Tmin_value": 551.6286889493217, "Tmin_units": "K", "Tmax_value": 3000.0, "Tmax_units": "K", "coeffs": [-2.46416105866764, 0.06292224302864326, -3.9104177048123046e-05, 1.1617339590721879e-08, -1.3239329118858667e-12, -85713619.19009034, 37.03443716401262]}]

>  <H298_value>  (2) 
-170327.1711311273

>  <H298_units>  (2) 
kcal/mol

>  <S298_value>  (2) 
79.81511959820088

>  <S298_units>  (2) 
cal/(mol*K)

>  <Cp_T_value_list>  (2) 
[25.88196728889831, 33.907606943755674, 40.9053387618178, 46.797609536980374, 56.144058412255724, 62.88974335066932, 72.41562493411858, 76.94345718776336, 79.45318254005072]

>  <Cp_T_units>  (2) 
cal/(mol*K)

>  <T_list>  (2) 
[300.0, 400.0, 500.0, 600.0, 800.0, 1000.0, 1500.0, 2000.0, 2400.0]

>  <T_units>  (2) 
K

>  <yaml_path>  (2) 
/home/calvin/Dropbox/PersonalFolders/Calvin/HAb_Converged/rxn_2010/output/Species/rxn_2010_Cc1ccccc1/rxn_2010_Cc1ccccc1.yml

>  <frequencies_cm1>  (2) 
[32.64564821128, 208.88682644908, 346.6454189536, 414.1066827372799, 475.62800421915995, 527.95443235756, 633.69913930024, 711.73556047672, 745.6928028841199, 800.1617304423601, 861.86159354256, 915.5202168330399, 979.4449831769199, 991.60641417864, 997.6699622161999, 1015.82627140228, 1052.7363174972797, 1058.5389200926797, 1109.8078324918, 1173.8974064833599, 1201.1112693065197, 1232.0058362611999, 1316.04400260736, 1349.7815014845198, 1404.03755249784, 1462.1391152903598, 1476.8481978457999, 1495.6225357106798, 1530.4999541509599, 1640.12450779944, 1663.1975784746398, 3015.0391755551595, 3079.01201079628, 3101.6387274256795, 3145.0724095746796, 3146.5282104625194, 3159.5205466879593, 3168.9077156204, 3181.02107772488]

>  <ZPE_kJmol>  (2) 
333.8911077236124

>  <E_elec_kJmol>  (2) 
-713001.30994406

>  <E0_minus_Eelec_plus_ZPE_kJmol>  (2) 
0.0

>  <rxn>  (2) 
rxn_2010

>  <species_type>  (2) 
p0

>  <species_folder>  (2) 
rxn_2010_Cc1ccccc1

>  <frequencies_cm1_list>  (2) 
[32.64564821128, 208.88682644908, 346.6454189536, 414.1066827372799, 475.62800421915995, 527.95443235756, 633.69913930024, 711.73556047672, 745.6928028841199, 800.1617304423601, 861.86159354256, 915.5202168330399, 979.4449831769199, 991.60641417864, 997.6699622161999, 1015.82627140228, 1052.7363174972797, 1058.5389200926797, 1109.8078324918, 1173.8974064833599, 1201.1112693065197, 1232.0058362611999, 1316.04400260736, 1349.7815014845198, 1404.03755249784, 1462.1391152903598, 1476.8481978457999, 1495.6225357106798, 1530.4999541509599, 1640.12450779944, 1663.1975784746398, 3015.0391755551595, 3079.01201079628, 3101.6387274256795, 3145.0724095746796, 3146.5282104625194, 3159.5205466879593, 3168.9077156204, 3181.02107772488]

>  <E0_kJmol>  (2) 
-712667

>  <H298_kJmol>  (2) 
-712649

$$$$

     RDKit          3D

 24 23  0  0  0  0  0  0  0  0999 V2000
    1.9029   -1.1974   -2.4531 S   0  0  0  0  0  0  0  0  0  1  0  0
    2.0690    0.6590   -0.4338 C   0  0  0  0  0  0  0  0  0  2  0  0
    3.4122    0.1525    0.0262 C   0  0  0  0  0  0  0  0  0  3  0  0
   -0.9094   -0.2710    0.8258 C   0  0  0  0  0  0  0  0  0  4  0  0
   -1.3338   -1.1892   -0.1439 C   0  0  0  0  0  3  0  0  0  5  0  0
   -1.7502    0.8080    1.1316 C   0  0  0  0  0  0  0  0  0  6  0  0
   -2.5562   -1.0389   -0.7734 C   0  0  0  0  0  0  0  0  0  7  0  0
   -3.3804    0.0306   -0.4526 C   0  0  0  0  0  0  0  0  0  8  0  0
   -2.9723    0.9529    0.5037 C   0  0  0  0  0  0  0  0  0  9  0  0
    1.4852    0.1662   -1.6596 C   0  0  0  0  0  0  0  0  0 10  0  0
    0.4029   -0.3864    1.4230 C   0  0  0  0  0  0  0  0  0 11  0  0
    1.9176    1.7307   -0.2975 H   0  0  0  0  0  0  0  0  0 12  0  0
    1.2440    0.2193    0.4412 H   0  0  0  0  0  0  0  0  0 13  0  0
    4.2037    0.4974   -0.6426 H   0  0  0  0  0  0  0  0  0 14  0  0
    3.4392   -0.9368    0.0254 H   0  0  0  0  0  0  0  0  0 15  0  0
    3.6326    0.5125    1.0320 H   0  0  0  0  0  0  0  0  0 16  0  0
   -0.6894   -2.0200   -0.4041 H   0  0  0  0  0  0  0  0  0 17  0  0
   -2.8663   -1.7579   -1.5208 H   0  0  0  0  0  0  0  0  0 18  0  0
   -4.3372    0.1466   -0.9453 H   0  0  0  0  0  0  0  0  0 19  0  0
   -3.6125    1.7883    0.7578 H   0  0  0  0  0  0  0  0  0 20  0  0
   -1.4346    1.5310    1.8749 H   0  0  0  0  0  0  0  0  0 21  0  0
    0.6471    0.7526   -2.0352 H   0  0  0  0  0  0  0  0  0 22  0  0
    0.8725   -1.3654    1.4187 H   0  0  0  0  0  0  0  0  0 23  0  0
    0.6130    0.2150    2.3017 H   0  0  0  0  0  0  0  0  0 24  0  0
  1 10  1  0
  2 12  1  0
  2 13  1  0
  2  3  1  0
  2 10  1  0
  3 15  1  0
  3 16  1  0
  3 14  1  0
  4  6  1  0
  4 11  1  0
  4  5  1  0
  5  7  1  0
  5 17  1  0
  6  9  1  0
  6 21  1  0
  7 18  1  0
  7  8  1  0
  8 19  1  0
  8  9  1  0
  9 20  1  0
 10 22  1  0
 11 24  1  0
 11 23  1  0
M  RAD  1   5   2
M  END
>  <rmg_smiles>  (3) 
[CH2][C]1[CH][CH][CH][CH][CH]1.CC[CH][S]

>  <rmg_adjacency_list>  (3) 
multiplicity 2
1  S u0 p2 c0 {10,S}
2  C u0 p0 c0 {3,S} {10,S} {12,S} {13,S}
3  C u0 p0 c0 {2,S} {14,S} {15,S} {16,S}
4  C u0 p0 c0 {5,S} {6,S} {11,S}
5  C u1 p0 c0 {4,S} {7,S} {17,S}
6  C u0 p0 c0 {4,S} {9,S} {21,S}
7  C u0 p0 c0 {5,S} {8,S} {18,S}
8  C u0 p0 c0 {7,S} {9,S} {19,S}
9  C u0 p0 c0 {6,S} {8,S} {20,S}
10 C u0 p0 c0 {1,S} {2,S} {22,S}
11 C u0 p0 c0 {4,S} {23,S} {24,S}
12 H u0 p0 c0 {2,S}
13 H u0 p0 c0 {2,S}
14 H u0 p0 c0 {3,S}
15 H u0 p0 c0 {3,S}
16 H u0 p0 c0 {3,S}
17 H u0 p0 c0 {5,S}
18 H u0 p0 c0 {7,S}
19 H u0 p0 c0 {8,S}
20 H u0 p0 c0 {9,S}
21 H u0 p0 c0 {6,S}
22 H u0 p0 c0 {10,S}
23 H u0 p0 c0 {11,S}
24 H u0 p0 c0 {11,S}


>  <multiplicity>  (3) 
2

>  <reaction>  (3) 
rxn_2010

>  <type>  (3) 
ts

>  <role_mapnums>  (3) 
{"*2": 13, "*1": 2, "*3": 11, "*0": 10, "*4": 4}

>  <role_mapidx>  (3) 
{"*2": 12, "*1": 1, "*3": 10, "*0": 9, "*4": 3}

>  <ordered_mapped_smiles>  (3) 
[SH:1][CH:10]([C:2]([C:3]([H:14])([H:15])[H:16])([H:12])[H:13])[H:22].[CH:4]1([CH:11]([H:23])[H:24])[C:5]([H:17])[CH:7]([H:18])[CH:8]([H:19])[CH:9]([H:20])[CH:6]1[H:21]

>  <mol_properties>  (3) 
{"1": {"label": "*1", "atom_type": "Cs"}, "3": {"label": "*4", "atom_type": "Cs"}, "9": {"label": "*0", "atom_type": "Cs"}, "10": {"label": "*3", "atom_type": "Cs"}, "12": {"label": "*2", "atom_type": "H0"}}

>  <level_of_theory>  (3) 
wb97xd/def2tzvp

>  <lot_method>  (3) 
wb97xd

>  <lot_basis>  (3) 
def2tzvp

>  <spin_multiplicity>  (3) 
2.0

>  <optical_isomers>  (3) 
2.0

>  <modes>  (3) 
IdealGasTranslation(mass=(165.074, 'amu')),         NonlinearRotor(             inertia = ([329.405, 950.318, 1140.78

>  <frequency_value>  (3) 
-1582.77

>  <frequency_units>  (3) 
cm^-1

>  <frequency_list>  (3) 
unknown

>  <arkane_path>  (3) 
/home/calvin/Dropbox/PersonalFolders/Calvin/HAb_Converged/rxn_2010/output/rxns/TS0/arkane/output.py

>  <path_exists>  (3) 
True

>  <E0_value>  (3) 
-2065790.0

>  <E0_units>  (3) 
kJ/mol

>  <thermo_class>  (3) 
unknown

>  <Cp0_value>  (3) 
unknown

>  <Cp0_units>  (3) 
unknown

>  <CpInf_value>  (3) 
unknown

>  <CpInf_units>  (3) 
unknown

>  <Tmin_value>  (3) 
unknown

>  <Tmin_units>  (3) 
unknown

>  <Tmax_value>  (3) 
unknown

>  <Tmax_units>  (3) 
unknown

>  <polynomials>  (3) 
unknown

>  <H298_value>  (3) 
unknown

>  <H298_units>  (3) 
unknown

>  <S298_value>  (3) 
unknown

>  <S298_units>  (3) 
unknown

>  <Cp_T_value_list>  (3) 
unknown

>  <Cp_T_units>  (3) 
unknown

>  <T_list>  (3) 
unknown

>  <T_units>  (3) 
unknown

>  <yaml_path>  (3) 
unknown

>  <frequencies_cm1>  (3) 
unknown

>  <ZPE_kJmol>  (3) 
unknown

>  <E_elec_kJmol>  (3) 
unknown

>  <E0_minus_Eelec_plus_ZPE_kJmol>  (3) 
unknown

>  <rxn>  (3) 
unknown

>  <species_type>  (3) 
unknown

>  <species_folder>  (3) 
unknown

>  <frequencies_cm1_list>  (3) 
[]

>  <ts_imag_freq_cm1>  (3) 
-1601.9948

>  <ts_freq_out_path>  (3) 
/home/calvin/Dropbox/PersonalFolders/Calvin/HAb_Converged/rxn_2010/output/rxns/TS0/geometry/freq.out

>  <E0_kJmol>  (3) 
-2.06579e+06

>  <H298_kJmol>  (3) 
unknown

$$$$

     RDKit          3D

  9  8  0  0  0  0  0  0  0  0999 V2000
   -1.2704   -0.1236    0.1096 C   0  0  0  0  0  0  0  0  0  1  0  0
    0.0713   -0.5323    0.5887 C   0  0  0  0  0  0  0  0  0  2  0  0
    0.9521   -1.3639   -0.0464 C   0  0  0  0  0  0  0  0  0  3  0  0
    0.6900   -2.1109   -1.5335 S   0  0  0  0  0  1  0  0  0  4  0  0
   -1.3201    0.9657    0.0241 H   0  0  0  0  0  0  0  0  0  5  0  0
   -1.5103   -0.5706   -0.8526 H   0  0  0  0  0  0  0  0  0  6  0  0
   -2.0312   -0.4112    0.8411 H   0  0  0  0  0  0  0  0  0  7  0  0
    0.3863   -0.1265    1.5468 H   0  0  0  0  0  0  0  0  0  8  0  0
    1.8971   -1.5543    0.4552 H   0  0  0  0  0  0  0  0  0  9  0  0
  1  5  1  0
  1  7  1  0
  1  6  1  0
  1  2  1  0
  2  8  1  0
  2  3  1  0
  3  9  1  0
  3  4  1  0
M  RAD  1   4   2
M  END
>  <rmg_smiles>  (4) 
C[CH][CH][S]

>  <rmg_adjacency_list>  (4) 
multiplicity 2
1 S u1 p2 c0 {4,S}
2 C u0 p0 c0 {3,S} {5,S} {6,S} {7,S}
3 C u0 p0 c0 {2,S} {4,S} {8,S}
4 C u0 p0 c0 {1,S} {3,S} {9,S}
5 H u0 p0 c0 {2,S}
6 H u0 p0 c0 {2,S}
7 H u0 p0 c0 {2,S}
8 H u0 p0 c0 {3,S}
9 H u0 p0 c0 {4,S}


>  <multiplicity>  (4) 
2

>  <reaction>  (4) 
rxn_2010

>  <type>  (4) 
r1

>  <role_mapnums>  (4) 
{}

>  <role_mapidx>  (4) 
{}

>  <ordered_mapped_smiles>  (4) 
[C:1]([CH:2]([CH:3]([S:4])[H:9])[H:8])([H:5])([H:6])[H:7]

>  <level_of_theory>  (4) 
wb97xd/def2tzvp

>  <lot_method>  (4) 
wb97xd

>  <lot_basis>  (4) 
def2tzvp

>  <spin_multiplicity>  (4) 
2.0

>  <optical_isomers>  (4) 
1.0

>  <modes>  (4) 
IdealGasTranslation(mass=(73.0112, 'amu')),         NonlinearRotor(             inertia = ([33.6944, 136.887, 167.488

>  <frequency_value>  (4) 
unknown

>  <frequency_units>  (4) 
unknown

>  <frequency_list>  (4) 
unknown

>  <arkane_path>  (4) 
/home/calvin/Dropbox/PersonalFolders/Calvin/HAb_Converged/rxn_2010/output/Species/rxn_2010_C[CH]C=S/arkane/output.py

>  <path_exists>  (4) 
True

>  <E0_value>  (4) 
-1353215.6281101538

>  <E0_units>  (4) 
kJ/mol

>  <thermo_class>  (4) 
NASA

>  <Cp0_value>  (4) 
33.257888

>  <Cp0_units>  (4) 
J/(mol*K)

>  <CpInf_value>  (4) 
207.8618

>  <CpInf_units>  (4) 
J/(mol*K)

>  <Tmin_value>  (4) 
10.0

>  <Tmin_units>  (4) 
K

>  <Tmax_value>  (4) 
3000.0

>  <Tmax_units>  (4) 
K

>  <polynomials>  (4) 
[{"name": "polynomial1", "class": "NASAPolynomial", "Tmin_value": 10.0, "Tmin_units": "K", "Tmax_value": 725.9670831251275, "Tmax_units": "K", "coeffs": [3.8816748203713503, 0.011298408175925107, 3.675471007626225e-05, -5.977324289779361e-08, 2.695700402648573e-11, -162754245.86998293, 10.102760819727918]}, {"name": "polynomial2", "class": "NASAPolynomial", "Tmin_value": 725.9670831251275, "Tmin_units": "K", "Tmax_value": 3000.0, "Tmax_units": "K", "coeffs": [2.113334188366536, 0.02911249006728392, -1.6728703347228576e-05, 4.6550260025625346e-09, -5.035736545429853e-13, -162754201.7933275, 16.602901379195625]}]

>  <H298_value>  (4) 
-323422.5645571532

>  <H298_units>  (4) 
kcal/mol

>  <S298_value>  (4) 
73.01356091694491

>  <S298_units>  (4) 
cal/(mol*K)

>  <Cp_T_value_list>  (4) 
[18.249700390386565, 22.1502054191087, 25.699972971809594, 28.76485903066641, 33.53225294606782, 37.05856600875504, 42.33516489554981, 44.92384433755821, 46.24168569821556]

>  <Cp_T_units>  (4) 
cal/(mol*K)

>  <T_list>  (4) 
[300.0, 400.0, 500.0, 600.0, 800.0, 1000.0, 1500.0, 2000.0, 2400.0]

>  <T_units>  (4) 
K

>  <yaml_path>  (4) 
/home/calvin/Dropbox/PersonalFolders/Calvin/HAb_Converged/rxn_2010/output/Species/rxn_2010_C[CH]C=S/rxn_2010_CCHC=S.yml

>  <frequencies_cm1>  (4) 
[111.67778225915998, 241.84835598508, 328.91486285736, 569.66450119124, 701.4282155114, 825.4665713465598, 919.54427023056, 945.2817312099198, 1036.1937498614, 1093.82149066684, 1239.0307622435598, 1356.916299232, 1389.82289288544, 1434.05314533156, 1462.16658323164, 1523.85957934652, 3007.1696103784398, 3060.1209341809595, 3105.60097795532, 3123.1735933892, 3133.0620522499994]

>  <ZPE_kJmol>  (4) 
183.08144113792287

>  <E_elec_kJmol>  (4) 
-1353398.7095512918

>  <E0_minus_Eelec_plus_ZPE_kJmol>  (4) 
0.0

>  <rxn>  (4) 
rxn_2010

>  <species_type>  (4) 
p1

>  <species_folder>  (4) 
rxn_2010_C[CH]C=S

>  <frequencies_cm1_list>  (4) 
[111.67778225915998, 241.84835598508, 328.91486285736, 569.66450119124, 701.4282155114, 825.4665713465598, 919.54427023056, 945.2817312099198, 1036.1937498614, 1093.82149066684, 1239.0307622435598, 1356.916299232, 1389.82289288544, 1434.05314533156, 1462.16658323164, 1523.85957934652, 3007.1696103784398, 3060.1209341809595, 3105.60097795532, 3123.1735933892, 3133.0620522499994]

>  <E0_kJmol>  (4) 
-1.35322e+06

>  <H298_kJmol>  (4) 
-1.3532e+06

$$$$

     RDKit          3D

 14 14  0  0  0  0  0  0  0  0999 V2000
    2.3111    0.1295    0.0255 C   0  0  0  0  0  0  0  0  0  1  0  0
    0.9132    0.0511    0.0101 C   0  0  0  0  0  0  0  0  0  2  0  0
    0.1101    1.2180   -0.0350 C   0  0  0  0  0  3  0  0  0  3  0  0
   -1.2644    1.1347   -0.0499 C   0  0  0  0  0  0  0  0  0  4  0  0
   -1.8967   -0.1062   -0.0209 C   0  0  0  0  0  0  0  0  0  5  0  0
   -1.1306   -1.2689    0.0235 C   0  0  0  0  0  0  0  0  0  6  0  0
    0.2446   -1.1981    0.0389 C   0  0  0  0  0  0  0  0  0  7  0  0
    2.9188   -0.7647    0.0599 H   0  0  0  0  0  0  0  0  0  8  0  0
    2.8158    1.0859    0.0034 H   0  0  0  0  0  0  0  0  0  9  0  0
    0.5964    2.1860   -0.0577 H   0  0  0  0  0  0  0  0  0 10  0  0
   -1.8572    2.0404   -0.0845 H   0  0  0  0  0  0  0  0  0 11  0  0
   -2.9772   -0.1668   -0.0328 H   0  0  0  0  0  0  0  0  0 12  0  0
   -1.6191   -2.2351    0.0461 H   0  0  0  0  0  0  0  0  0 13  0  0
    0.8353   -2.1058    0.0735 H   0  0  0  0  0  0  0  0  0 14  0  0
  1  8  1  0
  1  9  1  0
  1  2  1  0
  2  7  1  0
  2  3  1  0
  3  4  1  0
  3 10  1  0
  4  5  1  0
  4 11  1  0
  5 12  1  0
  5  6  1  0
  6 13  1  0
  6  7  1  0
  7 14  1  0
M  RAD  1   3   2
M  END
>  <rmg_smiles>  (5) 
[CH2]C1[CH][CH][CH][CH][CH]1

>  <rmg_adjacency_list>  (5) 
multiplicity 2
1  C u0 p0 c0 {2,S} {3,S} {7,S}
2  C u1 p0 c0 {1,S} {4,S} {8,S}
3  C u0 p0 c0 {1,S} {6,S} {12,S}
4  C u0 p0 c0 {2,S} {5,S} {9,S}
5  C u0 p0 c0 {4,S} {6,S} {10,S}
6  C u0 p0 c0 {3,S} {5,S} {11,S}
7  C u0 p0 c0 {1,S} {13,S} {14,S}
8  H u0 p0 c0 {2,S}
9  H u0 p0 c0 {4,S}
10 H u0 p0 c0 {5,S}
11 H u0 p0 c0 {6,S}
12 H u0 p0 c0 {3,S}
13 H u0 p0 c0 {7,S}
14 H u0 p0 c0 {7,S}


>  <multiplicity>  (5) 
2

>  <reaction>  (5) 
rxn_2010

>  <type>  (5) 
r2

>  <role_mapnums>  (5) 
{}

>  <role_mapidx>  (5) 
{}

>  <ordered_mapped_smiles>  (5) 
[CH:1]([CH:2]1[C:3]([H:10])[CH:4]([H:11])[CH:5]([H:12])[CH:6]([H:13])[CH:7]1[H:14])([H:8])[H:9]

>  <level_of_theory>  (5) 
wb97xd/def2tzvp

>  <lot_method>  (5) 
wb97xd

>  <lot_basis>  (5) 
def2tzvp

>  <spin_multiplicity>  (5) 
2.0

>  <optical_isomers>  (5) 
1.0

>  <modes>  (5) 
IdealGasTranslation(mass=(91.0548, 'amu')),         NonlinearRotor(             inertia = ([90.2688, 184.999, 275.268

>  <frequency_value>  (5) 
unknown

>  <frequency_units>  (5) 
unknown

>  <frequency_list>  (5) 
unknown

>  <arkane_path>  (5) 
/home/calvin/Dropbox/PersonalFolders/Calvin/HAb_Converged/rxn_2010/output/Species/rxn_2010_[CH2]c1ccccc1/arkane/output.py

>  <path_exists>  (5) 
True

>  <E0_value>  (5) 
-710982.0438002025

>  <E0_units>  (5) 
kJ/mol

>  <thermo_class>  (5) 
NASA

>  <Cp0_value>  (5) 
33.257888

>  <Cp0_units>  (5) 
J/(mol*K)

>  <CpInf_value>  (5) 
332.57888

>  <CpInf_units>  (5) 
J/(mol*K)

>  <Tmin_value>  (5) 
10.0

>  <Tmin_units>  (5) 
K

>  <Tmax_value>  (5) 
3000.0

>  <Tmax_units>  (5) 
K

>  <polynomials>  (5) 
[{"name": "polynomial1", "class": "NASAPolynomial", "Tmin_value": 10.0, "Tmin_units": "K", "Tmax_value": 553.7998966986338, "Tmax_units": "K", "coeffs": [4.142730174563545, -0.01421534761620498, 0.00025735365439343114, -4.62233170401337e-07, 2.662042315532734e-10, -85511384.95879665, 10.48942282580581]}, {"name": "polynomial2", "class": "NASAPolynomial", "Tmin_value": 553.7998966986338, "Tmin_units": "K", "Tmax_value": 3000.0, "Tmax_units": "K", "coeffs": [-0.802653885777119, 0.05801356973500407, -3.7170205379282217e-05, 1.1357137676167264e-08, -1.325406392253103e-12, -85511397.0674787, 26.370850651533466]}]

>  <H298_value>  (5) 
-169924.63215823995

>  <H298_units>  (5) 
kcal/mol

>  <S298_value>  (5) 
74.97564978357416

>  <S298_units>  (5) 
cal/(mol*K)

>  <Cp_T_value_list>  (5) 
[25.269145893020568, 33.51439910532929, 40.205337073227675, 45.518123621257814, 53.835885249092485, 59.76015175288975, 67.97281251816678, 71.92547512912957, 74.23567305127965]

>  <Cp_T_units>  (5) 
cal/(mol*K)

>  <T_list>  (5) 
[300.0, 400.0, 500.0, 600.0, 800.0, 1000.0, 1500.0, 2000.0, 2400.0]

>  <T_units>  (5) 
K

>  <yaml_path>  (5) 
/home/calvin/Dropbox/PersonalFolders/Calvin/HAb_Converged/rxn_2010/output/Species/rxn_2010_[CH2]c1ccccc1/rxn_2010_CH2c1ccccc1.yml

>  <frequencies_cm1>  (5) 
[199.14257428, 361.66351584843994, 391.39069529872, 479.08896482043997, 504.48994351911995, 531.9510178137999, 625.3076832392, 685.2633320681199, 712.90294798112, 777.3702061652799, 832.74557578576, 837.1061114639599, 906.45579621064, 969.8312037289198, 974.4320838933199, 983.6750461340399, 991.86049263548, 1038.2744464133598, 1114.8275987607199, 1165.86303365896, 1178.56008951564, 1276.5588370173598, 1315.83799304776, 1345.5102366154802, 1473.0507549638398, 1482.88427794208, 1496.6388495380397, 1589.4255551818799, 1604.1003028107198, 3131.0156906246402, 3150.1883136380793, 3152.48875372028, 3164.5952488394396, 3170.66566386232, 3183.63053214648, 3230.1131557775598]

>  <ZPE_kJmol>  (5) 
299.239399464945

>  <E_elec_kJmol>  (5) 
-711281.2831996675

>  <E0_minus_Eelec_plus_ZPE_kJmol>  (5) 
0.0

>  <rxn>  (5) 
rxn_2010

>  <species_type>  (5) 
r0

>  <species_folder>  (5) 
rxn_2010_[CH2]c1ccccc1

>  <frequencies_cm1_list>  (5) 
[199.14257428, 361.66351584843994, 391.39069529872, 479.08896482043997, 504.48994351911995, 531.9510178137999, 625.3076832392, 685.2633320681199, 712.90294798112, 777.3702061652799, 832.74557578576, 837.1061114639599, 906.45579621064, 969.8312037289198, 974.4320838933199, 983.6750461340399, 991.86049263548, 1038.2744464133598, 1114.8275987607199, 1165.86303365896, 1178.56008951564, 1276.5588370173598, 1315.83799304776, 1345.5102366154802, 1473.0507549638398, 1482.88427794208, 1496.6388495380397, 1589.4255551818799, 1604.1003028107198, 3131.0156906246402, 3150.1883136380793, 3152.48875372028, 3164.5952488394396, 3170.66566386232, 3183.63053214648, 3230.1131557775598]

>  <E0_kJmol>  (5) 
-710982

>  <H298_kJmol>  (5) 
-710965

$$$$
