
     RDKit          3D

  6  5  0  0  0  0  0  0  0  0999 V2000
    0.0000   -0.0020   -1.2228 C   0  0  0  0  0  0  0  0  0  1  0  0
    0.0000   -0.0392    0.5850 S   0  0  0  0  0  0  0  0  0  2  0  0
    0.8931    0.4844   -1.6096 H   0  0  0  0  0  0  0  0  0  3  0  0
    0.0000   -1.0411   -1.5495 H   0  0  0  0  0  0  0  0  0  4  0  0
   -0.8931    0.4844   -1.6096 H   0  0  0  0  0  0  0  0  0  5  0  0
    0.0000    1.2889    0.7631 H   0  0  0  0  0  0  0  0  0  6  0  0
  1  5  1  0
  1  4  1  0
  1  3  1  0
  1  2  1  0
  2  6  1  0
M  END
>  <rmg_smiles>  (1) 
CS

>  <rmg_adjacency_list>  (1) 
1 S u0 p2 c0 {2,S} {6,S}
2 C u0 p0 c0 {1,S} {3,S} {4,S} {5,S}
3 H u0 p0 c0 {2,S}
4 H u0 p0 c0 {2,S}
5 H u0 p0 c0 {2,S}
6 H u0 p0 c0 {1,S}


>  <multiplicity>  (1) 
1

>  <reaction>  (1) 
rxn_89

>  <type>  (1) 
r1h

>  <role_mapnums>  (1) 
{"r1h_a": 2, "r1h_h": 6}

>  <role_mapidx>  (1) 
{"r1h_a": 1, "r1h_h": 5}

>  <ordered_mapped_smiles>  (1) 
[C:1]([S:2][H:6])([H:3])([H:4])[H:5]

>  <mol_properties>  (1) 
{"1": {"label": "donator", "atom_type": "S2s"}, "5": {"label": "d_hydrogen", "atom_type": "H0"}}

>  <level_of_theory>  (1) 
wb97xd/def2tzvp

>  <lot_method>  (1) 
wb97xd

>  <lot_basis>  (1) 
def2tzvp

>  <spin_multiplicity>  (1) 
1.0

>  <optical_isomers>  (1) 
1.0

>  <modes>  (1) 
IdealGasTranslation(mass=(48.0034, 'amu')),         NonlinearRotor(             inertia = ([4.88218, 38.8439, 40.5133

>  <frequency_value>  (1) 
unknown

>  <frequency_units>  (1) 
unknown

>  <frequency_list>  (1) 
unknown

>  <arkane_path>  (1) 
/home/calvin/Dropbox/PersonalFolders/Calvin/HAb_Converged/rxn_89/output/Species/rxn_89_CS/arkane/output.py

>  <path_exists>  (1) 
True

>  <E0_value>  (1) 
-1151727.007469626

>  <E0_units>  (1) 
kJ/mol

>  <thermo_class>  (1) 
NASA

>  <Cp0_value>  (1) 
33.257888

>  <Cp0_units>  (1) 
J/(mol*K)

>  <CpInf_value>  (1) 
133.031552

>  <CpInf_units>  (1) 
J/(mol*K)

>  <Tmin_value>  (1) 
10.0

>  <Tmin_units>  (1) 
K

>  <Tmax_value>  (1) 
3000.0

>  <Tmax_units>  (1) 
K

>  <polynomials>  (1) 
[{"name": "polynomial1", "class": "NASAPolynomial", "Tmin_value": 10.0, "Tmin_units": "K", "Tmax_value": 512.0046987811082, "Tmax_units": "K", "coeffs": [3.9928587497669135, 0.0002559754074249204, 3.857280640825913e-05, -5.9282603001709694e-08, 2.982147399711347e-11, -138520762.42988312, 6.388595841908656]}, {"name": "polynomial2", "class": "NASAPolynomial", "Tmin_value": 512.0046987811082, "Tmin_units": "K", "Tmax_value": 3000.0, "Tmax_units": "K", "coeffs": [1.9274442242810899, 0.01639190572497184, -8.700073442106705e-06, 2.2701656845537463e-09, -2.333640907578926e-13, -138520550.92985418, 14.970390653960273]}]

>  <H298_value>  (1) 
-275266.5007537992

>  <H298_units>  (1) 
kcal/mol

>  <S298_value>  (1) 
60.53254852214023

>  <S298_units>  (1) 
cal/(mol*K)

>  <Cp_T_value_list>  (1) 
[12.285164170505567, 14.379905317207566, 16.329998202821564, 18.065044527000737, 20.944482261362513, 23.163034177843237, 26.669386406809583, 28.493484761208425, 29.402518411604955]

>  <Cp_T_units>  (1) 
cal/(mol*K)

>  <T_list>  (1) 
[300.0, 400.0, 500.0, 600.0, 800.0, 1000.0, 1500.0, 2000.0, 2400.0]

>  <T_units>  (1) 
K

>  <yaml_path>  (1) 
/home/calvin/Dropbox/PersonalFolders/Calvin/HAb_Converged/rxn_89/output/Species/rxn_89_CS/rxn_89_CS.yml

>  <frequencies_cm1>  (1) 
[239.23203457815995, 718.5407429288399, 797.72395065376, 969.0552343877599, 1092.82577779544, 1352.90597980512, 1462.0155095546, 1475.7082782826799, 2706.3887863771197, 3036.2032243114, 3126.3324066364, 3127.7195376710397]

>  <ZPE_kJmol>  (1) 
120.25255493508004

>  <E_elec_kJmol>  (1) 
-1151847.260024561

>  <E0_minus_Eelec_plus_ZPE_kJmol>  (1) 
0.0

>  <rxn>  (1) 
rxn_89

>  <species_type>  (1) 
r0

>  <species_folder>  (1) 
rxn_89_CS

>  <frequencies_cm1_list>  (1) 
[239.23203457815995, 718.5407429288399, 797.72395065376, 969.0552343877599, 1092.82577779544, 1352.90597980512, 1462.0155095546, 1475.7082782826799, 2706.3887863771197, 3036.2032243114, 3126.3324066364, 3127.7195376710397]

>  <E0_kJmol>  (1) 
-1.15173e+06

>  <H298_kJmol>  (1) 
-1.15172e+06

$$$$

     RDKit          3D

  2  1  0  0  0  0  0  0  0  0999 V2000
    0.0000   -0.0757    0.0023 H   0  0  0  0  0  0  0  0  0  1  0  0
    0.0000    0.6640   -0.0202 H   0  0  0  0  0  0  0  0  0  2  0  0
  1  2  1  0
M  END
>  <rmg_smiles>  (2) 
[H][H]

>  <rmg_adjacency_list>  (2) 
1 H u0 p0 c0 {2,S}
2 H u0 p0 c0 {1,S}


>  <multiplicity>  (2) 
1

>  <reaction>  (2) 
rxn_89

>  <type>  (2) 
r2h

>  <role_mapnums>  (2) 
{"r2h_a": 2, "r2h_h": 1}

>  <role_mapidx>  (2) 
{"r2h_a": 1, "r2h_h": 0}

>  <ordered_mapped_smiles>  (2) 
[H:1][H:2]

>  <mol_properties>  (2) 
{"0": {"label": "a_hydrogen", "atom_type": "H0"}, "1": {"label": "acceptor", "atom_type": "H0"}}

>  <level_of_theory>  (2) 
wb97xd/def2tzvp

>  <lot_method>  (2) 
wb97xd

>  <lot_basis>  (2) 
def2tzvp

>  <spin_multiplicity>  (2) 
1.0

>  <optical_isomers>  (2) 
1.0

>  <modes>  (2) 
IdealGasTranslation(mass=(2.01565, 'amu')),         LinearRotor(inertia=(0.279051, 'amu*angstrom^2'), symmetry=2),         HarmonicOscillator(frequencies=([4384.98

>  <frequency_value>  (2) 
unknown

>  <frequency_units>  (2) 
unknown

>  <frequency_list>  (2) 
unknown

>  <arkane_path>  (2) 
/home/calvin/Dropbox/PersonalFolders/Calvin/HAb_Converged/rxn_89/output/Species/rxn_89_[H][H]/arkane/output.py

>  <path_exists>  (2) 
True

>  <E0_value>  (2) 
-3062.16965545063

>  <E0_units>  (2) 
kJ/mol

>  <thermo_class>  (2) 
NASA

>  <Cp0_value>  (2) 
29.100652

>  <Cp0_units>  (2) 
J/(mol*K)

>  <CpInf_value>  (2) 
37.415124

>  <CpInf_units>  (2) 
J/(mol*K)

>  <Tmin_value>  (2) 
10.0

>  <Tmin_units>  (2) 
K

>  <Tmax_value>  (2) 
3000.0

>  <Tmax_units>  (2) 
K

>  <polynomials>  (2) 
[{"name": "polynomial1", "class": "NASAPolynomial", "Tmin_value": 10.0, "Tmin_units": "K", "Tmax_value": 609.8839760798177, "Tmax_units": "K", "coeffs": [3.498630427760662, 8.118128927195725e-05, -2.559636751505851e-07, 1.12469612407288e-11, 3.0815171130046294e-13, -368293.8823611774, -4.277290681887199]}, {"name": "polynomial2", "class": "NASAPolynomial", "Tmin_value": 609.8839760798177, "Tmin_units": "K", "Tmax_value": 3000.0, "Tmax_units": "K", "coeffs": [3.686867766797846, -0.0007828622299568348, 9.578139376048542e-07, -3.193665739780837e-10, 3.533006631714403e-14, -368323.7341208647, -5.148841965058497]}]

>  <H298_value>  (2) 
-729.8011438890577

>  <H298_units>  (2) 
kcal/mol

>  <S298_value>  (2) 
31.136082854374543

>  <S298_units>  (2) 
cal/(mol*K)

>  <Cp_T_value_list>  (2) 
[6.960683160805141, 6.952753142081975, 6.947066275630451, 6.950370161364484, 7.003977696739648, 7.10979357060473, 7.489089863592967, 7.874797646413975, 8.112273708870758]

>  <Cp_T_units>  (2) 
cal/(mol*K)

>  <T_list>  (2) 
[300.0, 400.0, 500.0, 600.0, 800.0, 1000.0, 1500.0, 2000.0, 2400.0]

>  <T_units>  (2) 
K

>  <yaml_path>  (2) 
/home/calvin/Dropbox/PersonalFolders/Calvin/HAb_Converged/rxn_89/output/Species/rxn_89_[H][H]/rxn_89_HH.yml

>  <frequencies_cm1>  (2) 
[4384.97527895388]

>  <ZPE_kJmol>  (2) 
26.22798418526521

>  <E_elec_kJmol>  (2) 
-3088.3976396358958

>  <E0_minus_Eelec_plus_ZPE_kJmol>  (2) 
0.0

>  <rxn>  (2) 
rxn_89

>  <species_type>  (2) 
p1

>  <species_folder>  (2) 
rxn_89_[H][H]

>  <frequencies_cm1_list>  (2) 
[4384.97527895388]

>  <E0_kJmol>  (2) 
-3062.17

>  <H298_kJmol>  (2) 
-3053.49

$$$$

     RDKit          3D

  7  5  0  0  0  0  0  0  0  0999 V2000
    0.0000   -0.0790   -1.2187 C   0  0  0  0  0  0  0  0  0  1  0  0
    0.0000   -0.1162    0.5890 S   0  0  0  0  0  0  0  0  0  2  0  0
    0.8931    0.4073   -1.6056 H   0  0  0  0  0  0  0  0  0  3  0  0
    0.0000   -1.1181   -1.5455 H   0  0  0  0  0  0  0  0  0  4  0  0
   -0.8931    0.4073   -1.6056 H   0  0  0  0  0  0  0  0  0  5  0  0
    0.0000    1.2617    0.7739 H   0  0  0  0  0  0  0  0  0  6  0  0
    0.0000    2.5896    0.7335 H   0  0  0  0  0 15  0  0  0  7  0  0
  1  5  1  0
  1  4  1  0
  1  3  1  0
  1  2  1  0
  2  6  1  0
M  END
>  <rmg_smiles>  (3) 
CS

>  <rmg_adjacency_list>  (3) 
multiplicity 2
1 S u0 p2 c0 {2,S} {6,S}
2 C u0 p0 c0 {1,S} {3,S} {4,S} {5,S}
3 H u0 p0 c0 {2,S}
4 H u0 p0 c0 {2,S}
5 H u0 p0 c0 {2,S}
6 H u0 p0 c0 {1,S}
7 H u1 p0 c0


>  <multiplicity>  (3) 
2

>  <reaction>  (3) 
rxn_89

>  <type>  (3) 
ts

>  <role_mapnums>  (3) 
{"*2": 6, "*1": 2, "*3": 7, "*0": null, "*4": 1}

>  <role_mapidx>  (3) 
{"*2": 5, "*1": 1, "*3": 6, "*4": 0}

>  <ordered_mapped_smiles>  (3) 
[C:1]([S:2][H:6])([H:3])([H:4])[H:5].[H:7]

>  <mol_properties>  (3) 
{"0": {"label": "*4", "atom_type": "Cs"}, "1": {"label": "*1", "atom_type": "S2s"}, "5": {"label": "*2", "atom_type": "H0"}, "6": {"label": "*3", "atom_type": "H0"}}

>  <level_of_theory>  (3) 
wb97xd/def2tzvp

>  <lot_method>  (3) 
wb97xd

>  <lot_basis>  (3) 
def2tzvp

>  <spin_multiplicity>  (3) 
2.0

>  <optical_isomers>  (3) 
1.0

>  <modes>  (3) 
IdealGasTranslation(mass=(49.0112, 'amu')),         NonlinearRotor(             inertia = ([11.8529, 39.4508, 48.0879

>  <frequency_value>  (3) 
-804.985

>  <frequency_units>  (3) 
cm^-1

>  <frequency_list>  (3) 
unknown

>  <arkane_path>  (3) 
/home/calvin/Dropbox/PersonalFolders/Calvin/HAb_Converged/rxn_89/output/rxns/TS0/arkane/output.py

>  <path_exists>  (3) 
True

>  <E0_value>  (3) 
-1153030.0

>  <E0_units>  (3) 
kJ/mol

>  <thermo_class>  (3) 
unknown

>  <Cp0_value>  (3) 
unknown

>  <Cp0_units>  (3) 
unknown

>  <CpInf_value>  (3) 
unknown

>  <CpInf_units>  (3) 
unknown

>  <Tmin_value>  (3) 
unknown

>  <Tmin_units>  (3) 
unknown

>  <Tmax_value>  (3) 
unknown

>  <Tmax_units>  (3) 
unknown

>  <polynomials>  (3) 
unknown

>  <H298_value>  (3) 
unknown

>  <H298_units>  (3) 
unknown

>  <S298_value>  (3) 
unknown

>  <S298_units>  (3) 
unknown

>  <Cp_T_value_list>  (3) 
unknown

>  <Cp_T_units>  (3) 
unknown

>  <T_list>  (3) 
unknown

>  <T_units>  (3) 
unknown

>  <yaml_path>  (3) 
unknown

>  <frequencies_cm1>  (3) 
unknown

>  <ZPE_kJmol>  (3) 
unknown

>  <E_elec_kJmol>  (3) 
unknown

>  <E0_minus_Eelec_plus_ZPE_kJmol>  (3) 
unknown

>  <rxn>  (3) 
unknown

>  <species_type>  (3) 
unknown

>  <species_folder>  (3) 
unknown

>  <frequencies_cm1_list>  (3) 
[]

>  <ts_imag_freq_cm1>  (3) 
-814.7617

>  <ts_freq_out_path>  (3) 
/home/calvin/Dropbox/PersonalFolders/Calvin/HAb_Converged/rxn_89/output/rxns/TS0/geometry/freq.out

>  <E0_kJmol>  (3) 
-1.15303e+06

>  <H298_kJmol>  (3) 
unknown

$$$$

     RDKit          3D

  5  4  0  0  0  0  0  0  0  0999 V2000
   -0.1322   -0.0293    0.0034 C   0  0  0  0  0  0  0  0  0  1  0  0
    1.6514    0.0533   -0.0278 S   0  0  0  0  0  1  0  0  0  2  0  0
   -0.5276   -0.5578   -0.8632 H   0  0  0  0  0  0  0  0  0  3  0  0
   -0.5002   -0.4706    0.9289 H   0  0  0  0  0  0  0  0  0  4  0  0
   -0.4913    1.0044   -0.0413 H   0  0  0  0  0  0  0  0  0  5  0  0
  1  3  1  0
  1  5  1  0
  1  2  1  0
  1  4  1  0
M  RAD  1   2   2
M  END
>  <rmg_smiles>  (4) 
C[S]

>  <rmg_adjacency_list>  (4) 
multiplicity 2
1 S u1 p2 c0 {2,S}
2 C u0 p0 c0 {1,S} {3,S} {4,S} {5,S}
3 H u0 p0 c0 {2,S}
4 H u0 p0 c0 {2,S}
5 H u0 p0 c0 {2,S}


>  <multiplicity>  (4) 
2

>  <reaction>  (4) 
rxn_89

>  <type>  (4) 
r1

>  <role_mapnums>  (4) 
{}

>  <role_mapidx>  (4) 
{}

>  <ordered_mapped_smiles>  (4) 
[C:1]([S:2])([H:3])([H:4])[H:5]

>  <level_of_theory>  (4) 
wb97xd/def2tzvp

>  <lot_method>  (4) 
wb97xd

>  <lot_basis>  (4) 
def2tzvp

>  <spin_multiplicity>  (4) 
2.0

>  <optical_isomers>  (4) 
1.0

>  <modes>  (4) 
IdealGasTranslation(mass=(46.9956, 'amu')),         NonlinearRotor(             inertia = ([3.17407, 37.2839, 37.355

>  <frequency_value>  (4) 
unknown

>  <frequency_units>  (4) 
unknown

>  <frequency_list>  (4) 
unknown

>  <arkane_path>  (4) 
/home/calvin/Dropbox/PersonalFolders/Calvin/HAb_Converged/rxn_89/output/Species/rxn_89_C[S]/arkane/output.py

>  <path_exists>  (4) 
True

>  <E0_value>  (4) 
-1150056.1526011876

>  <E0_units>  (4) 
kJ/mol

>  <thermo_class>  (4) 
NASA

>  <Cp0_value>  (4) 
33.257888

>  <Cp0_units>  (4) 
J/(mol*K)

>  <CpInf_value>  (4) 
108.088136

>  <CpInf_units>  (4) 
J/(mol*K)

>  <Tmin_value>  (4) 
10.0

>  <Tmin_units>  (4) 
K

>  <Tmax_value>  (4) 
3000.0

>  <Tmax_units>  (4) 
K

>  <polynomials>  (4) 
[{"name": "polynomial1", "class": "NASAPolynomial", "Tmin_value": 10.0, "Tmin_units": "K", "Tmax_value": 566.3360976597459, "Tmax_units": "K", "coeffs": [4.0652899812801655, -0.005451480411037478, 5.2368725288434126e-05, -8.022998340238296e-08, 4.1344570161532364e-11, -138319806.13053706, 6.769037209336151]}, {"name": "polynomial2", "class": "NASAPolynomial", "Tmin_value": 566.3360976597459, "Tmin_units": "K", "Tmax_value": 3000.0, "Tmax_units": "K", "coeffs": [1.9471505648612775, 0.01331921911167488, -7.4396630281974114e-06, 2.0540511843576837e-09, -2.227028662992441e-13, -138319627.32150677, 15.244038360657584]}]

>  <H298_value>  (4) 
-274867.44926907064

>  <H298_units>  (4) 
kcal/mol

>  <S298_value>  (4) 
59.62393940961413

>  <S298_units>  (4) 
cal/(mol*K)

>  <Cp_T_value_list>  (4) 
[10.55546981066939, 12.295633398989601, 13.884649196899572, 15.252239342212782, 17.490590038967294, 19.192549615815086, 21.842831163336232, 23.242566531118, 23.980166029379262]

>  <Cp_T_units>  (4) 
cal/(mol*K)

>  <T_list>  (4) 
[300.0, 400.0, 500.0, 600.0, 800.0, 1000.0, 1500.0, 2000.0, 2400.0]

>  <T_units>  (4) 
K

>  <yaml_path>  (4) 
/home/calvin/Dropbox/PersonalFolders/Calvin/HAb_Converged/rxn_89/output/Species/rxn_89_C[S]/rxn_89_CS.yml

>  <frequencies_cm1>  (4) 
[662.60914749744, 732.1717087890399, 858.67531235408, 1327.08611500192, 1368.75498192368, 1459.4884589568398, 2999.842537042, 3077.3158654222398, 3102.56577044388]

>  <ZPE_kJmol>  (4) 
93.24002190480168

>  <E_elec_kJmol>  (4) 
-1150149.3926230925

>  <E0_minus_Eelec_plus_ZPE_kJmol>  (4) 
0.0

>  <rxn>  (4) 
rxn_89

>  <species_type>  (4) 
p0

>  <species_folder>  (4) 
rxn_89_C[S]

>  <frequencies_cm1_list>  (4) 
[662.60914749744, 732.1717087890399, 858.67531235408, 1327.08611500192, 1368.75498192368, 1459.4884589568398, 2999.842537042, 3077.3158654222398, 3102.56577044388]

>  <E0_kJmol>  (4) 
-1.15006e+06

>  <H298_kJmol>  (4) 
-1.15005e+06

$$$$

     RDKit          3D

  1  0  0  0  0  0  0  0  0  0999 V2000
    0.0000    0.0000    0.0000 H   0  0  0  0  0 15  0  0  0  1  0  0
M  END
>  <rmg_smiles>  (5) 
[H]

>  <rmg_adjacency_list>  (5) 
multiplicity 2
1 H u1 p0 c0


>  <multiplicity>  (5) 
2

>  <reaction>  (5) 
rxn_89

>  <type>  (5) 
r2

>  <role_mapnums>  (5) 
{}

>  <role_mapidx>  (5) 
{}

>  <ordered_mapped_smiles>  (5) 
[H:1]

>  <level_of_theory>  (5) 
wb97xd/def2tzvp

>  <lot_method>  (5) 
wb97xd

>  <lot_basis>  (5) 
def2tzvp

>  <spin_multiplicity>  (5) 
2.0

>  <optical_isomers>  (5) 
1.0

>  <modes>  (5) 
IdealGasTranslation(mass=(1.00797, 'amu')),

>  <frequency_value>  (5) 
unknown

>  <frequency_units>  (5) 
unknown

>  <frequency_list>  (5) 
unknown

>  <arkane_path>  (5) 
/home/calvin/Dropbox/PersonalFolders/Calvin/HAb_Converged/rxn_89/output/Species/rxn_89_[H]/arkane/output.py

>  <path_exists>  (5) 
True

>  <E0_value>  (5) 
-1319.7535890175566

>  <E0_units>  (5) 
kJ/mol

>  <thermo_class>  (5) 
NASA

>  <Cp0_value>  (5) 
20.78618

>  <Cp0_units>  (5) 
J/(mol*K)

>  <CpInf_value>  (5) 
20.78618

>  <CpInf_units>  (5) 
J/(mol*K)

>  <Tmin_value>  (5) 
10.0

>  <Tmin_units>  (5) 
K

>  <Tmax_value>  (5) 
3000.0

>  <Tmax_units>  (5) 
K

>  <polynomials>  (5) 
[{"name": "polynomial1", "class": "NASAPolynomial", "Tmin_value": 10.0, "Tmin_units": "K", "Tmax_value": 1853.5663026740365, "Tmax_units": "K", "coeffs": [2.500000000000126, -2.814048095438137e-15, 9.047587538332909e-18, -8.591944598242694e-21, 2.4182720553650057e-24, -158729.69562032758, -0.461069367474324]}, {"name": "polynomial2", "class": "NASAPolynomial", "Tmin_value": 1853.5663026740365, "Tmin_units": "K", "Tmax_value": 3000.0, "Tmax_units": "K", "coeffs": [2.500000000696122, -1.3129776766613561e-12, 9.140875080033424e-16, -2.782806647322001e-19, 3.1263265306749967e-23, -158729.69562061856, -0.4610693713504795]}]

>  <H298_value>  (5) 
-313.9482141882736

>  <H298_units>  (5) 
kcal/mol

>  <S298_value>  (5) 
27.387012987908147

>  <S298_units>  (5) 
cal/(mol*K)

>  <Cp_T_value_list>  (5) 
[4.968016252389826, 4.968016252389978, 4.968016252390173, 4.96801625239036, 4.968016252390567, 4.968016252390427, 4.968016252389077, 4.968016252391019, 4.968016252390868]

>  <Cp_T_units>  (5) 
cal/(mol*K)

>  <T_list>  (5) 
[300.0, 400.0, 500.0, 600.0, 800.0, 1000.0, 1500.0, 2000.0, 2400.0]

>  <T_units>  (5) 
K

>  <yaml_path>  (5) 
/home/calvin/Dropbox/PersonalFolders/Calvin/HAb_Converged/rxn_89/output/Species/rxn_89_[H]/rxn_89_H.yml

>  <frequencies_cm1>  (5) 
[]

>  <ZPE_kJmol>  (5) 
unknown

>  <E_elec_kJmol>  (5) 
unknown

>  <E0_minus_Eelec_plus_ZPE_kJmol>  (5) 
unknown

>  <rxn>  (5) 
rxn_89

>  <species_type>  (5) 
r1

>  <species_folder>  (5) 
rxn_89_[H]

>  <frequencies_cm1_list>  (5) 
[]

>  <E0_kJmol>  (5) 
-1319.75

>  <H298_kJmol>  (5) 
-1313.56

$$$$
