
     RDKit          3D

 19 20  0  0  0  0  0  0  0  0999 V2000
   -0.3442   -1.2787   -0.8094 C   0  0  0  0  0  0  0  0  0  1  0  0
   -0.3671   -1.3081    0.7439 C   0  0  0  0  0  0  0  0  0  2  0  0
   -0.2966    0.1808    1.1237 C   0  0  0  0  0  0  0  0  0  3  0  0
    1.1273    0.6882    0.8208 C   0  0  0  0  0  0  0  0  0  4  0  0
    1.1711    0.7053   -0.7345 C   0  0  0  0  0  0  0  0  0  5  0  0
   -0.2382    0.2209   -1.1303 C   0  0  0  0  0  0  0  0  0  6  0  0
   -1.0742    0.8309   -0.0134 C   0  0  0  0  0  0  0  0  0  7  0  0
   -1.2669   -1.6942   -1.2171 H   0  0  0  0  0  0  0  0  0  8  0  0
    0.4881   -1.8440   -1.2311 H   0  0  0  0  0  0  0  0  0  9  0  0
   -1.2902   -1.7591    1.1086 H   0  0  0  0  0  0  0  0  0 10  0  0
    0.4666   -1.8705    1.1666 H   0  0  0  0  0  0  0  0  0 11  0  0
   -0.6365    0.4008    2.1345 H   0  0  0  0  0  0  0  0  0 12  0  0
    1.8889    0.0400    1.2576 H   0  0  0  0  0  0  0  0  0 13  0  0
    1.2756    1.6895    1.2278 H   0  0  0  0  0  0  0  0  0 14  0  0
    1.9493    0.0574   -1.1415 H   0  0  0  0  0  0  0  0  0 15  0  0
    1.3538    1.7130   -1.1105 H   0  0  0  0  0  0  0  0  0 16  0  0
   -0.5236    0.4796   -2.1486 H   0  0  0  0  0  0  0  0  0 17  0  0
   -2.1015    0.4674   -0.0537 H   0  0  0  0  0  0  0  0  0 18  0  0
   -1.1526    1.9184    0.0061 H   0  0  0  0  0  0  0  0  0 19  0  0
  1  8  1  0
  1  6  1  0
  1  9  1  0
  1  2  1  0
  2 11  1  0
  2  3  1  0
  2 10  1  0
  3  4  1  0
  3 12  1  0
  3  7  1  0
  4 14  1  0
  4  5  1  0
  4 13  1  0
  5 16  1  0
  5 15  1  0
  5  6  1  0
  6  7  1  0
  6 17  1  0
  7 18  1  0
  7 19  1  0
M  END
>  <rmg_smiles>  (1) 
C1CC2CCC1C2

>  <rmg_adjacency_list>  (1) 
1  C u0 p0 c0 {3,S} {5,S} {6,S} {8,S}
2  C u0 p0 c0 {3,S} {4,S} {7,S} {9,S}
3  C u0 p0 c0 {1,S} {2,S} {18,S} {19,S}
4  C u0 p0 c0 {2,S} {5,S} {10,S} {11,S}
5  C u0 p0 c0 {1,S} {4,S} {12,S} {13,S}
6  C u0 p0 c0 {1,S} {7,S} {14,S} {15,S}
7  C u0 p0 c0 {2,S} {6,S} {16,S} {17,S}
8  H u0 p0 c0 {1,S}
9  H u0 p0 c0 {2,S}
10 H u0 p0 c0 {4,S}
11 H u0 p0 c0 {4,S}
12 H u0 p0 c0 {5,S}
13 H u0 p0 c0 {5,S}
14 H u0 p0 c0 {6,S}
15 H u0 p0 c0 {6,S}
16 H u0 p0 c0 {7,S}
17 H u0 p0 c0 {7,S}
18 H u0 p0 c0 {3,S}
19 H u0 p0 c0 {3,S}


>  <multiplicity>  (1) 
1

>  <reaction>  (1) 
rxn_550

>  <type>  (1) 
r1h

>  <role_mapnums>  (1) 
{"r1h_a": 7, "r1h_h": 18}

>  <role_mapidx>  (1) 
{"r1h_a": 6, "r1h_h": 17}

>  <ordered_mapped_smiles>  (1) 
[C:1]1([H:8])([H:9])[C:2]([H:10])([H:11])[C:3]2([H:12])[C:4]([H:13])([H:14])[C:5]([H:15])([H:16])[C:6]1([H:17])[C:7]2([H:18])[H:19]

>  <mol_properties>  (1) 
{"6": {"label": "donator", "atom_type": "Cs"}, "17": {"label": "d_hydrogen", "atom_type": "H0"}}

>  <level_of_theory>  (1) 
wb97xd/def2tzvp

>  <lot_method>  (1) 
wb97xd

>  <lot_basis>  (1) 
def2tzvp

>  <spin_multiplicity>  (1) 
1.0

>  <optical_isomers>  (1) 
1.0

>  <modes>  (1) 
IdealGasTranslation(mass=(96.0939, 'amu')),         NonlinearRotor(             inertia = ([135.336, 156.085, 180.607

>  <frequency_value>  (1) 
unknown

>  <frequency_units>  (1) 
unknown

>  <frequency_list>  (1) 
unknown

>  <arkane_path>  (1) 
/home/calvin/Dropbox/PersonalFolders/Calvin/HAb_Converged/rxn_550/output/Species/rxn_550_C1CC2CCC1C2/arkane/output.py

>  <path_exists>  (1) 
True

>  <E0_value>  (1) 
-718893.5806331062

>  <E0_units>  (1) 
kJ/mol

>  <thermo_class>  (1) 
NASA

>  <Cp0_value>  (1) 
33.257888

>  <Cp0_units>  (1) 
J/(mol*K)

>  <CpInf_value>  (1) 
457.29596

>  <CpInf_units>  (1) 
J/(mol*K)

>  <Tmin_value>  (1) 
10.0

>  <Tmin_units>  (1) 
K

>  <Tmax_value>  (1) 
3000.0

>  <Tmax_units>  (1) 
K

>  <polynomials>  (1) 
[{"name": "polynomial1", "class": "NASAPolynomial", "Tmin_value": 10.0, "Tmin_units": "K", "Tmax_value": 662.4178125457627, "Tmax_units": "K", "coeffs": [4.239403585768697, -0.01836828814634063, 0.0002578950712714286, -3.7381328534857083e-07, 1.74409927807895e-10, -86462928.5201383, 9.87949578073462]}, {"name": "polynomial2", "class": "NASAPolynomial", "Tmin_value": 662.4178125457627, "Tmin_units": "K", "Tmax_value": 3000.0, "Tmax_units": "K", "coeffs": [-6.999983226389214, 0.08370637401899614, -5.070273549604008e-05, 1.4717426455763106e-08, -1.6436943039919863e-12, -86462189.9567335, 53.80936817756756]}]

>  <H298_value>  (1) 
-171815.58472962098

>  <H298_units>  (1) 
kcal/mol

>  <S298_value>  (1) 
73.63684385034063

>  <S298_units>  (1) 
cal/(mol*K)

>  <Cp_T_value_list>  (1) 
[26.348838520541374, 37.15309814493767, 47.10273015631388, 55.48382566754763, 68.31505323621754, 77.6548383777145, 91.07076230422987, 97.45683083224962, 100.88536523646154]

>  <Cp_T_units>  (1) 
cal/(mol*K)

>  <T_list>  (1) 
[300.0, 400.0, 500.0, 600.0, 800.0, 1000.0, 1500.0, 2000.0, 2400.0]

>  <T_units>  (1) 
K

>  <yaml_path>  (1) 
/home/calvin/Dropbox/PersonalFolders/Calvin/HAb_Converged/rxn_550/output/Species/rxn_550_C1CC2CCC1C2/rxn_550_C1CC2CCC1C2.yml

>  <frequencies_cm1>  (1) 
[154.85738595131997, 340.37586135643994, 406.75900844488, 450.69398052224, 546.52276066284, 762.7915963309199, 767.83883054112, 803.5128192785198, 822.9257867781599, 828.1927645185999, 886.4866029000799, 904.4231685559199, 936.7804033837599, 957.0723450043599, 964.2964135609999, 966.8990009972799, 969.81060277296, 1009.5017779225599, 1041.98261848616, 1088.6987196181199, 1128.4585646209198, 1135.50409155924, 1162.87589504476, 1186.2717140299999, 1234.53288685896, 1241.50287695876, 1269.37597037264, 1285.33484425632, 1285.7125284489198, 1300.5726846814, 1328.01315802012, 1340.8956224804401, 1342.91451616452, 1343.99949984508, 1472.87221334552, 1484.7314969931601, 1486.79845957448, 1493.51437121744, 1517.5419528521197, 3027.37228118988, 3027.8598371476, 3028.0795806778397, 3039.1354270430397, 3039.76032270716, 3064.0831847106, 3066.3286889102396, 3077.8514902772, 3080.41974278688, 3084.8970172155196, 3085.2334994962002, 3090.71335378156]

>  <ZPE_kJmol>  (1) 
462.7371032824111

>  <E_elec_kJmol>  (1) 
-719356.3177363885

>  <E0_minus_Eelec_plus_ZPE_kJmol>  (1) 
0.0

>  <rxn>  (1) 
rxn_550

>  <species_type>  (1) 
r1

>  <species_folder>  (1) 
rxn_550_C1CC2CCC1C2

>  <frequencies_cm1_list>  (1) 
[154.85738595131997, 340.37586135643994, 406.75900844488, 450.69398052224, 546.52276066284, 762.7915963309199, 767.83883054112, 803.5128192785198, 822.9257867781599, 828.1927645185999, 886.4866029000799, 904.4231685559199, 936.7804033837599, 957.0723450043599, 964.2964135609999, 966.8990009972799, 969.81060277296, 1009.5017779225599, 1041.98261848616, 1088.6987196181199, 1128.4585646209198, 1135.50409155924, 1162.87589504476, 1186.2717140299999, 1234.53288685896, 1241.50287695876, 1269.37597037264, 1285.33484425632, 1285.7125284489198, 1300.5726846814, 1328.01315802012, 1340.8956224804401, 1342.91451616452, 1343.99949984508, 1472.87221334552, 1484.7314969931601, 1486.79845957448, 1493.51437121744, 1517.5419528521197, 3027.37228118988, 3027.8598371476, 3028.0795806778397, 3039.1354270430397, 3039.76032270716, 3064.0831847106, 3066.3286889102396, 3077.8514902772, 3080.41974278688, 3084.8970172155196, 3085.2334994962002, 3090.71335378156]

>  <E0_kJmol>  (1) 
-718894

>  <H298_kJmol>  (1) 
-718876

$$$$

     RDKit          3D

  6  5  0  0  0  0  0  0  0  0999 V2000
    0.2100    0.1975   -0.5848 C   0  0  0  0  0  0  0  0  0  1  0  0
   -0.2370   -0.2079    0.5818 C   0  0  0  0  0  0  0  0  0  2  0  0
   -0.3231    0.1966   -1.5290 H   0  0  0  0  0  0  0  0  0  3  0  0
   -1.2410   -0.6047    0.7132 H   0  0  0  0  0  0  0  0  0  4  0  0
    0.3843   -0.1613    1.4717 H   0  0  0  0  0  0  0  0  0  5  0  0
    1.2219    0.5862   -0.6130 H   0  0  0  0  0  0  0  0  0  6  0  0
  1  3  1  0
  1  6  1  0
  1  2  1  0
  2  4  1  0
  2  5  1  0
M  END
>  <rmg_smiles>  (2) 
[CH2][CH2]

>  <rmg_adjacency_list>  (2) 
1 C u0 p0 c0 {2,S} {3,S} {6,S}
2 C u0 p0 c0 {1,S} {4,S} {5,S}
3 H u0 p0 c0 {1,S}
4 H u0 p0 c0 {2,S}
5 H u0 p0 c0 {2,S}
6 H u0 p0 c0 {1,S}


>  <multiplicity>  (2) 
1

>  <reaction>  (2) 
rxn_550

>  <type>  (2) 
r2h

>  <role_mapnums>  (2) 
{"r2h_a": 1, "r2h_h": 6}

>  <role_mapidx>  (2) 
{"r2h_a": 0, "r2h_h": 5}

>  <ordered_mapped_smiles>  (2) 
[CH:1]([CH:2]([H:4])[H:5])([H:3])[H:6]

>  <mol_properties>  (2) 
{"0": {"label": "acceptor", "atom_type": "Cs"}, "5": {"label": "a_hydrogen", "atom_type": "H0"}}

>  <level_of_theory>  (2) 
wb97xd/def2tzvp

>  <lot_method>  (2) 
wb97xd

>  <lot_basis>  (2) 
def2tzvp

>  <spin_multiplicity>  (2) 
1.0

>  <optical_isomers>  (2) 
1.0

>  <modes>  (2) 
IdealGasTranslation(mass=(28.0313, 'amu')),         NonlinearRotor(             inertia = ([3.4313, 16.5733, 20.0046

>  <frequency_value>  (2) 
unknown

>  <frequency_units>  (2) 
unknown

>  <frequency_list>  (2) 
unknown

>  <arkane_path>  (2) 
/home/calvin/Dropbox/PersonalFolders/Calvin/HAb_Converged/rxn_550/output/Species/rxn_550_C=C/arkane/output.py

>  <path_exists>  (2) 
True

>  <E0_value>  (2) 
-206204.08464717612

>  <E0_units>  (2) 
kJ/mol

>  <thermo_class>  (2) 
NASA

>  <Cp0_value>  (2) 
33.257888

>  <Cp0_units>  (2) 
J/(mol*K)

>  <CpInf_value>  (2) 
133.031552

>  <CpInf_units>  (2) 
J/(mol*K)

>  <Tmin_value>  (2) 
10.0

>  <Tmin_units>  (2) 
K

>  <Tmax_value>  (2) 
3000.0

>  <Tmax_units>  (2) 
K

>  <polynomials>  (2) 
[{"name": "polynomial1", "class": "NASAPolynomial", "Tmin_value": 10.0, "Tmin_units": "K", "Tmax_value": 769.5217501758626, "Tmax_units": "K", "coeffs": [4.102594925382579, -0.006879522193259702, 5.062107249177076e-05, -5.972223289849955e-08, 2.3228029141840905e-11, -24800625.606387716, 3.2220821404236424]}, {"name": "polynomial2", "class": "NASAPolynomial", "Tmin_value": 769.5217501758626, "Tmin_units": "K", "Tmax_value": 3000.0, "Tmax_units": "K", "coeffs": [0.4501873055486705, 0.01806199469136872, -9.606651718966085e-06, 2.51372192351987e-09, -2.587294024527882e-13, -24800239.83662215, 18.740105419928828]}]

>  <H298_value>  (2) 
-49281.46687172266

>  <H298_units>  (2) 
kcal/mol

>  <S298_value>  (2) 
52.28638692235232

>  <S298_units>  (2) 
cal/(mol*K)

>  <Cp_T_value_list>  (2) 
[10.27441708697483, 12.365536101969841, 14.515698252557122, 16.511337099494305, 19.738079638388314, 22.178263460277243, 26.036790662755205, 28.054735064109895, 29.07349068569704]

>  <Cp_T_units>  (2) 
cal/(mol*K)

>  <T_list>  (2) 
[300.0, 400.0, 500.0, 600.0, 800.0, 1000.0, 1500.0, 2000.0, 2400.0]

>  <T_units>  (2) 
K

>  <yaml_path>  (2) 
/home/calvin/Dropbox/PersonalFolders/Calvin/HAb_Converged/rxn_550/output/Species/rxn_550_C=C/rxn_550_C=C.yml

>  <frequencies_cm1>  (2) 
[832.94471836004, 977.0690062561998, 990.3016869678398, 1058.52518612204, 1234.34061127, 1375.2030811391598, 1460.7588512410398, 1695.25953293372, 3111.1769700351597, 3128.9967969405598, 3189.2477261382396, 3215.2736005010397]

>  <ZPE_kJmol>  (2) 
133.19882255210345

>  <E_elec_kJmol>  (2) 
-206337.28346972825

>  <E0_minus_Eelec_plus_ZPE_kJmol>  (2) 
0.0

>  <rxn>  (2) 
rxn_550

>  <species_type>  (2) 
p0

>  <species_folder>  (2) 
rxn_550_C=C

>  <frequencies_cm1_list>  (2) 
[832.94471836004, 977.0690062561998, 990.3016869678398, 1058.52518612204, 1234.34061127, 1375.2030811391598, 1460.7588512410398, 1695.25953293372, 3111.1769700351597, 3128.9967969405598, 3189.2477261382396, 3215.2736005010397]

>  <E0_kJmol>  (2) 
-206204

>  <H298_kJmol>  (2) 
-206194

$$$$

     RDKit          3D

 24 24  0  0  0  0  0  0  0  0999 V2000
   -2.7425   -0.0151   -0.1542 C   0  0  0  0  0  3  0  0  0  1  0  0
   -3.1896   -0.4205    1.0123 C   0  0  0  0  0  0  0  0  0  2  0  0
   -3.2756   -0.0159   -1.0985 H   0  0  0  0  0  0  0  0  0  3  0  0
   -4.1936   -0.8173    1.1437 H   0  0  0  0  0  0  0  0  0  4  0  0
   -2.5683   -0.3738    1.9022 H   0  0  0  0  0  0  0  0  0  5  0  0
    0.4972   -1.1976   -0.9384 C   0  0  0  0  0  0  0  0  0  6  0  0
    0.4743   -1.2270    0.6148 C   0  0  0  0  0  0  0  0  0  7  0  0
    0.5448    0.2619    0.9946 C   0  0  0  0  0  0  0  0  0  8  0  0
    1.9687    0.7693    0.6917 C   0  0  0  0  0  0  0  0  0  9  0  0
    2.0124    0.7864   -0.8636 C   0  0  0  0  0  0  0  0  0 10  0  0
    0.6032    0.3020   -1.2594 C   0  0  0  0  0  0  0  0  0 11  0  0
   -0.2328    0.9120   -0.1424 C   0  0  0  0  0  0  0  0  0 12  0  0
   -0.4255   -1.6131   -1.3462 H   0  0  0  0  0  0  0  0  0 13  0  0
    1.3295   -1.7629   -1.3601 H   0  0  0  0  0  0  0  0  0 14  0  0
   -0.4488   -1.6780    0.9795 H   0  0  0  0  0  0  0  0  0 15  0  0
    1.3080   -1.7894    1.0376 H   0  0  0  0  0  0  0  0  0 16  0  0
    0.2049    0.4819    2.0054 H   0  0  0  0  0  0  0  0  0 17  0  0
    2.7302    0.1211    1.1286 H   0  0  0  0  0  0  0  0  0 18  0  0
    2.1169    1.7707    1.0988 H   0  0  0  0  0  0  0  0  0 19  0  0
    2.7907    0.1385   -1.2705 H   0  0  0  0  0  0  0  0  0 20  0  0
    2.1951    1.7941   -1.2396 H   0  0  0  0  0  0  0  0  0 21  0  0
    0.3178    0.5607   -2.2777 H   0  0  0  0  0  0  0  0  0 22  0  0
   -1.4512    0.4809   -0.1903 H   0  0  0  0  0  0  0  0  0 23  0  0
   -0.3112    1.9995   -0.1230 H   0  0  0  0  0  0  0  0  0 24  0  0
  1  3  1  0
  1  2  1  0
  2  5  1  0
  2  4  1  0
  6  7  1  0
  6 11  1  0
  6 13  1  0
  6 14  1  0
  7 15  1  0
  7  8  1  0
  7 16  1  0
  8 17  1  0
  8 12  1  0
  8  9  1  0
  9 18  1  0
  9 10  1  0
  9 19  1  0
 10 21  1  0
 10 11  1  0
 10 20  1  0
 11 12  1  0
 11 22  1  0
 12 24  1  0
 12 23  1  0
M  RAD  1   1   2
M  END
>  <rmg_smiles>  (3) 
C1CC2CCC1C2.[CH][CH2]

>  <rmg_adjacency_list>  (3) 
multiplicity 2
1  C u0 p0 c0 {3,S} {5,S} {6,S} {10,S}
2  C u0 p0 c0 {3,S} {4,S} {7,S} {11,S}
3  C u0 p0 c0 {1,S} {2,S} {20,S} {21,S}
4  C u0 p0 c0 {2,S} {5,S} {12,S} {13,S}
5  C u0 p0 c0 {1,S} {4,S} {14,S} {15,S}
6  C u0 p0 c0 {1,S} {7,S} {16,S} {17,S}
7  C u0 p0 c0 {2,S} {6,S} {18,S} {19,S}
8  C u0 p0 c0 {9,S} {22,S} {23,S}
9  C u1 p1 c0 {8,S} {24,S}
10 H u0 p0 c0 {1,S}
11 H u0 p0 c0 {2,S}
12 H u0 p0 c0 {4,S}
13 H u0 p0 c0 {4,S}
14 H u0 p0 c0 {5,S}
15 H u0 p0 c0 {5,S}
16 H u0 p0 c0 {6,S}
17 H u0 p0 c0 {6,S}
18 H u0 p0 c0 {7,S}
19 H u0 p0 c0 {7,S}
20 H u0 p0 c0 {3,S}
21 H u0 p0 c0 {3,S}
22 H u0 p0 c0 {8,S}
23 H u0 p0 c0 {8,S}
24 H u0 p0 c0 {9,S}


>  <multiplicity>  (3) 
2

>  <reaction>  (3) 
rxn_550

>  <type>  (3) 
ts

>  <role_mapnums>  (3) 
{"*2": 23, "*1": 12, "*3": 1, "*0": 8, "*4": 2}

>  <role_mapidx>  (3) 
{"*2": 22, "*1": 11, "*3": 0, "*0": 7, "*4": 1}

>  <ordered_mapped_smiles>  (3) 
[CH:1]([CH:2]([H:4])[H:5])[H:3].[C:6]1([H:13])([H:14])[C:7]([H:15])([H:16])[C:8]2([H:17])[C:9]([H:18])([H:19])[C:10]([H:20])([H:21])[C:11]1([H:22])[C:12]2([H:23])[H:24]

>  <mol_properties>  (3) 
{"0": {"label": "*3", "atom_type": "C2s"}, "1": {"label": "*4", "atom_type": "Cs"}, "7": {"label": "*0", "atom_type": "Cs"}, "11": {"label": "*1", "atom_type": "Cs"}, "22": {"label": "*2", "atom_type": "H0"}}

>  <level_of_theory>  (3) 
wb97xd/def2tzvp

>  <lot_method>  (3) 
wb97xd

>  <lot_basis>  (3) 
def2tzvp

>  <spin_multiplicity>  (3) 
2.0

>  <optical_isomers>  (3) 
2.0

>  <modes>  (3) 
IdealGasTranslation(mass=(123.117, 'amu')),         NonlinearRotor(             inertia = ([171.837, 483.797, 496.394

>  <frequency_value>  (3) 
-1591.73

>  <frequency_units>  (3) 
cm^-1

>  <frequency_list>  (3) 
unknown

>  <arkane_path>  (3) 
/home/calvin/Dropbox/PersonalFolders/Calvin/HAb_Converged/rxn_550/output/rxns/TS0/arkane/output.py

>  <path_exists>  (3) 
True

>  <E0_value>  (3) 
-923297.0

>  <E0_units>  (3) 
kJ/mol

>  <thermo_class>  (3) 
unknown

>  <Cp0_value>  (3) 
unknown

>  <Cp0_units>  (3) 
unknown

>  <CpInf_value>  (3) 
unknown

>  <CpInf_units>  (3) 
unknown

>  <Tmin_value>  (3) 
unknown

>  <Tmin_units>  (3) 
unknown

>  <Tmax_value>  (3) 
unknown

>  <Tmax_units>  (3) 
unknown

>  <polynomials>  (3) 
unknown

>  <H298_value>  (3) 
unknown

>  <H298_units>  (3) 
unknown

>  <S298_value>  (3) 
unknown

>  <S298_units>  (3) 
unknown

>  <Cp_T_value_list>  (3) 
unknown

>  <Cp_T_units>  (3) 
unknown

>  <T_list>  (3) 
unknown

>  <T_units>  (3) 
unknown

>  <yaml_path>  (3) 
unknown

>  <frequencies_cm1>  (3) 
unknown

>  <ZPE_kJmol>  (3) 
unknown

>  <E_elec_kJmol>  (3) 
unknown

>  <E0_minus_Eelec_plus_ZPE_kJmol>  (3) 
unknown

>  <rxn>  (3) 
unknown

>  <species_type>  (3) 
unknown

>  <species_folder>  (3) 
unknown

>  <frequencies_cm1_list>  (3) 
[]

>  <ts_imag_freq_cm1>  (3) 
-1611.0602

>  <ts_freq_out_path>  (3) 
/home/calvin/Dropbox/PersonalFolders/Calvin/HAb_Converged/rxn_550/output/rxns/TS0/geometry/freq.out

>  <E0_kJmol>  (3) 
-923297

>  <H298_kJmol>  (3) 
unknown

$$$$

     RDKit          3D

 18 19  0  0  0  0  0  0  0  0999 V2000
   -0.2352   -0.0323    1.4420 C   0  0  0  0  0  3  0  0  0  1  0  0
   -0.1734   -1.1359    0.4256 C   0  0  0  0  0  0  0  0  0  2  0  0
   -1.2562   -0.6812   -0.5734 C   0  0  0  0  0  0  0  0  0  3  0  0
   -1.1576    0.8706   -0.5226 C   0  0  0  0  0  0  0  0  0  4  0  0
   -0.0301    1.1185    0.4994 C   0  0  0  0  0  0  0  0  0  5  0  0
    1.3075    0.7028   -0.1632 C   0  0  0  0  0  0  0  0  0  6  0  0
    1.2087   -0.8504   -0.2141 C   0  0  0  0  0  0  0  0  0  7  0  0
    0.1290   -0.0888    2.4599 H   0  0  0  0  0  0  0  0  0  8  0  0
   -0.2924   -2.1557    0.7848 H   0  0  0  0  0  0  0  0  0  9  0  0
   -2.2417   -1.0206   -0.2534 H   0  0  0  0  0  0  0  0  0 10  0  0
   -1.0769   -1.0814   -1.5727 H   0  0  0  0  0  0  0  0  0 11  0  0
   -0.9249    1.3092   -1.4944 H   0  0  0  0  0  0  0  0  0 12  0  0
   -2.0935    1.3103   -0.1770 H   0  0  0  0  0  0  0  0  0 13  0  0
   -0.0206    2.1196    0.9249 H   0  0  0  0  0  0  0  0  0 14  0  0
    1.4248    1.1518   -1.1514 H   0  0  0  0  0  0  0  0  0 15  0  0
    2.1542    1.0215    0.4460 H   0  0  0  0  0  0  0  0  0 16  0  0
    1.2724   -1.2452   -1.2300 H   0  0  0  0  0  0  0  0  0 17  0  0
    2.0058   -1.3127    0.3695 H   0  0  0  0  0  0  0  0  0 18  0  0
  1  5  1  0
  1  8  1  0
  1  2  1  0
  2  3  1  0
  2  9  1  0
  2  7  1  0
  3  4  1  0
  3 11  1  0
  3 10  1  0
  4 12  1  0
  4  5  1  0
  4 13  1  0
  5 14  1  0
  5  6  1  0
  6  7  1  0
  6 16  1  0
  6 15  1  0
  7 17  1  0
  7 18  1  0
M  RAD  1   1   2
M  END
>  <rmg_smiles>  (4) 
[CH]1C2CCC1CC2

>  <rmg_adjacency_list>  (4) 
multiplicity 2
1  C u0 p0 c0 {3,S} {6,S} {7,S} {8,S}
2  C u0 p0 c0 {4,S} {5,S} {7,S} {9,S}
3  C u0 p0 c0 {1,S} {4,S} {10,S} {11,S}
4  C u0 p0 c0 {2,S} {3,S} {12,S} {13,S}
5  C u0 p0 c0 {2,S} {6,S} {14,S} {15,S}
6  C u0 p0 c0 {1,S} {5,S} {16,S} {17,S}
7  C u1 p0 c0 {1,S} {2,S} {18,S}
8  H u0 p0 c0 {1,S}
9  H u0 p0 c0 {2,S}
10 H u0 p0 c0 {3,S}
11 H u0 p0 c0 {3,S}
12 H u0 p0 c0 {4,S}
13 H u0 p0 c0 {4,S}
14 H u0 p0 c0 {5,S}
15 H u0 p0 c0 {5,S}
16 H u0 p0 c0 {6,S}
17 H u0 p0 c0 {6,S}
18 H u0 p0 c0 {7,S}


>  <multiplicity>  (4) 
2

>  <reaction>  (4) 
rxn_550

>  <type>  (4) 
r1

>  <role_mapnums>  (4) 
{}

>  <role_mapidx>  (4) 
{}

>  <ordered_mapped_smiles>  (4) 
[C:1]1([H:8])[C:2]2([H:9])[C:3]([H:10])([H:11])[C:4]([H:12])([H:13])[C:5]1([H:14])[C:6]([H:15])([H:16])[C:7]2([H:17])[H:18]

>  <level_of_theory>  (4) 
wb97xd/def2tzvp

>  <lot_method>  (4) 
wb97xd

>  <lot_basis>  (4) 
def2tzvp

>  <spin_multiplicity>  (4) 
2.0

>  <optical_isomers>  (4) 
1.0

>  <modes>  (4) 
IdealGasTranslation(mass=(95.0861, 'amu')),         NonlinearRotor(             inertia = ([131.698, 150.873, 179.768

>  <frequency_value>  (4) 
unknown

>  <frequency_units>  (4) 
unknown

>  <frequency_list>  (4) 
unknown

>  <arkane_path>  (4) 
/home/calvin/Dropbox/PersonalFolders/Calvin/HAb_Converged/rxn_550/output/Species/rxn_550_[CH]1C2CCC1CC2/arkane/output.py

>  <path_exists>  (4) 
True

>  <E0_value>  (4) 
-717147.6579749513

>  <E0_units>  (4) 
kJ/mol

>  <thermo_class>  (4) 
NASA

>  <Cp0_value>  (4) 
33.257888

>  <Cp0_units>  (4) 
J/(mol*K)

>  <CpInf_value>  (4) 
432.352544

>  <CpInf_units>  (4) 
J/(mol*K)

>  <Tmin_value>  (4) 
10.0

>  <Tmin_units>  (4) 
K

>  <Tmax_value>  (4) 
3000.0

>  <Tmax_units>  (4) 
K

>  <polynomials>  (4) 
[{"name": "polynomial1", "class": "NASAPolynomial", "Tmin_value": 10.0, "Tmin_units": "K", "Tmax_value": 635.4498092577459, "Tmax_units": "K", "coeffs": [4.184728400170363, -0.015020053566978274, 0.0002519980537941916, -3.8445072657376267e-07, 1.8817067904219946e-10, -86252940.34420538, 11.259462352099021]}, {"name": "polynomial2", "class": "NASAPolynomial", "Tmin_value": 635.4498092577459, "Tmin_units": "K", "Tmax_value": 3000.0, "Tmax_units": "K", "coeffs": [-5.266495648947054, 0.07829303837726027, -4.810367347510083e-05, 1.4148661403012806e-08, -1.5981910685037683e-12, -86252422.00760801, 47.19803798188497]}]

>  <H298_value>  (4) 
-171398.16399978104

>  <H298_units>  (4) 
kcal/mol

>  <S298_value>  (4) 
77.09002517122175

>  <S298_units>  (4) 
cal/(mol*K)

>  <Cp_T_value_list>  (4) 
[26.832355247397707, 37.17808695464531, 46.45799001661323, 54.126653698598815, 65.9177850357397, 74.4672640412527, 86.6435677559895, 92.45104915812537, 95.63746949779204]

>  <Cp_T_units>  (4) 
cal/(mol*K)

>  <T_list>  (4) 
[300.0, 400.0, 500.0, 600.0, 800.0, 1000.0, 1500.0, 2000.0, 2400.0]

>  <T_units>  (4) 
K

>  <yaml_path>  (4) 
/home/calvin/Dropbox/PersonalFolders/Calvin/HAb_Converged/rxn_550/output/Species/rxn_550_[CH]1C2CCC1CC2/rxn_550_CH1C2CCC1CC2.yml

>  <frequencies_cm1>  (4) 
[142.57921619916, 339.05740017499994, 342.51836077628, 406.3813242522799, 543.5493560192799, 660.4597810922799, 754.13919482772, 763.8834469968, 814.36952306944, 824.3472527393999, 832.64943799128, 877.8136004409199, 896.9656224984, 945.8036220942399, 950.5899108622799, 962.6414700988798, 996.8802589044, 1004.1867312848799, 1013.1275461715198, 1085.5399063709199, 1119.11946458572, 1163.69306629784, 1188.27687374344, 1199.57993158016, 1230.33715882844, 1235.5972695835599, 1270.0008660367598, 1274.4506725241201, 1280.5966243855198, 1295.7108590748398, 1325.0328863912398, 1339.21321107704, 1348.0235532425997, 1470.44816752756, 1485.7409438352, 1490.2662871610798, 1508.79341355444, 3026.5001740542393, 3030.34568583344, 3037.5697543900797, 3042.08823073064, 3066.5552994257996, 3070.6480226765193, 3086.5176257510398, 3091.4549881961198, 3096.85243865764, 3100.3408672001997, 3171.9703910731196]

>  <ZPE_kJmol>  (4) 
425.88988225412487

>  <E_elec_kJmol>  (4) 
-717573.5478572055

>  <E0_minus_Eelec_plus_ZPE_kJmol>  (4) 
0.0

>  <rxn>  (4) 
rxn_550

>  <species_type>  (4) 
p1

>  <species_folder>  (4) 
rxn_550_[CH]1C2CCC1CC2

>  <frequencies_cm1_list>  (4) 
[142.57921619916, 339.05740017499994, 342.51836077628, 406.3813242522799, 543.5493560192799, 660.4597810922799, 754.13919482772, 763.8834469968, 814.36952306944, 824.3472527393999, 832.64943799128, 877.8136004409199, 896.9656224984, 945.8036220942399, 950.5899108622799, 962.6414700988798, 996.8802589044, 1004.1867312848799, 1013.1275461715198, 1085.5399063709199, 1119.11946458572, 1163.69306629784, 1188.27687374344, 1199.57993158016, 1230.33715882844, 1235.5972695835599, 1270.0008660367598, 1274.4506725241201, 1280.5966243855198, 1295.7108590748398, 1325.0328863912398, 1339.21321107704, 1348.0235532425997, 1470.44816752756, 1485.7409438352, 1490.2662871610798, 1508.79341355444, 3026.5001740542393, 3030.34568583344, 3037.5697543900797, 3042.08823073064, 3066.5552994257996, 3070.6480226765193, 3086.5176257510398, 3091.4549881961198, 3096.85243865764, 3100.3408672001997, 3171.9703910731196]

>  <E0_kJmol>  (4) 
-717148

>  <H298_kJmol>  (4) 
-717130

$$$$

     RDKit          3D

  5  4  0  0  0  0  0  0  0  0999 V2000
    0.0397    0.7134    0.0000 C   0  0  0  0  0  3  0  0  0  1  0  0
    0.0458   -0.5870    0.0000 C   0  0  0  0  0  0  0  0  0  2  0  0
   -0.6871    1.5118    0.0000 H   0  0  0  0  0  0  0  0  0  3  0  0
   -0.8806   -1.1637    0.0000 H   0  0  0  0  0  0  0  0  0  4  0  0
    0.9690   -1.1600    0.0000 H   0  0  0  0  0  0  0  0  0  5  0  0
  1  3  1  0
  1  2  1  0
  2  5  1  0
  2  4  1  0
M  RAD  1   1   2
M  END
>  <rmg_smiles>  (5) 
[CH][CH2]

>  <rmg_adjacency_list>  (5) 
multiplicity 2
1 C u0 p0 c0 {2,S} {3,S} {4,S}
2 C u1 p1 c0 {1,S} {5,S}
3 H u0 p0 c0 {1,S}
4 H u0 p0 c0 {1,S}
5 H u0 p0 c0 {2,S}


>  <multiplicity>  (5) 
2

>  <reaction>  (5) 
rxn_550

>  <type>  (5) 
r2

>  <role_mapnums>  (5) 
{}

>  <role_mapidx>  (5) 
{}

>  <ordered_mapped_smiles>  (5) 
[CH:1]([CH:2]([H:4])[H:5])[H:3]

>  <level_of_theory>  (5) 
wb97xd/def2tzvp

>  <lot_method>  (5) 
wb97xd

>  <lot_basis>  (5) 
def2tzvp

>  <spin_multiplicity>  (5) 
2.0

>  <optical_isomers>  (5) 
1.0

>  <modes>  (5) 
IdealGasTranslation(mass=(27.0235, 'amu')),         NonlinearRotor(             inertia = ([2.14183, 15.3481, 17.4899

>  <frequency_value>  (5) 
unknown

>  <frequency_units>  (5) 
unknown

>  <frequency_list>  (5) 
unknown

>  <arkane_path>  (5) 
/home/calvin/Dropbox/PersonalFolders/Calvin/HAb_Converged/rxn_550/output/Species/rxn_550_[CH]=C/arkane/output.py

>  <path_exists>  (5) 
True

>  <E0_value>  (5) 
-204434.59610714423

>  <E0_units>  (5) 
kJ/mol

>  <thermo_class>  (5) 
NASA

>  <Cp0_value>  (5) 
33.257888

>  <Cp0_units>  (5) 
J/(mol*K)

>  <CpInf_value>  (5) 
108.088136

>  <CpInf_units>  (5) 
J/(mol*K)

>  <Tmin_value>  (5) 
10.0

>  <Tmin_units>  (5) 
K

>  <Tmax_value>  (5) 
3000.0

>  <Tmax_units>  (5) 
K

>  <polynomials>  (5) 
[{"name": "polynomial1", "class": "NASAPolynomial", "Tmin_value": 10.0, "Tmin_units": "K", "Tmax_value": 605.1562073532106, "Tmax_units": "K", "coeffs": [4.0732302477000095, -0.005855893423713469, 5.173301484019039e-05, -7.605753070838568e-08, 3.74067872861101e-11, -24587803.17884632, 4.922911546686311]}, {"name": "polynomial2", "class": "NASAPolynomial", "Tmin_value": 605.1562073532106, "Tmin_units": "K", "Tmax_value": 3000.0, "Tmax_units": "K", "coeffs": [1.907334803595395, 0.013219860447203871, -7.347353045060493e-06, 2.024442812279225e-09, -2.192078156816895e-13, -24587628.1872574, 13.564186384006128]}]

>  <H298_value>  (5) 
-48858.50309296871

>  <H298_units>  (5) 
kcal/mol

>  <S298_value>  (5) 
55.807333309528325

>  <S298_units>  (5) 
cal/(mol*K)

>  <Cp_T_value_list>  (5) 
[10.376944352757018, 12.118158212925861, 13.730146484867369, 15.108875169207579, 17.343631711777416, 19.047527728648078, 21.716860438361014, 23.14273061905272, 23.900837148526193]

>  <Cp_T_units>  (5) 
cal/(mol*K)

>  <T_list>  (5) 
[300.0, 400.0, 500.0, 600.0, 800.0, 1000.0, 1500.0, 2000.0, 2400.0]

>  <T_units>  (5) 
K

>  <yaml_path>  (5) 
/home/calvin/Dropbox/PersonalFolders/Calvin/HAb_Converged/rxn_550/output/Species/rxn_550_[CH]=C/rxn_550_CH=C.yml

>  <frequencies_cm1>  (5) 
[709.40765245324, 831.6056562226399, 928.3889473227199, 1044.4341322454, 1381.5275746188797, 1653.3915234376798, 3045.07536934484, 3137.58739557588, 3217.88305492264]

>  <ZPE_kJmol>  (5) 
95.3980343814778

>  <E_elec_kJmol>  (5) 
-204529.9941415257

>  <E0_minus_Eelec_plus_ZPE_kJmol>  (5) 
0.0

>  <rxn>  (5) 
rxn_550

>  <species_type>  (5) 
r0

>  <species_folder>  (5) 
rxn_550_[CH]=C

>  <frequencies_cm1_list>  (5) 
[709.40765245324, 831.6056562226399, 928.3889473227199, 1044.4341322454, 1381.5275746188797, 1653.3915234376798, 3045.07536934484, 3137.58739557588, 3217.88305492264]

>  <E0_kJmol>  (5) 
-204435

>  <H298_kJmol>  (5) 
-204424

$$$$
