
     RDKit          3D

 22 23  0  0  0  0  0  0  0  0999 V2000
    0.6846   -1.8448   -0.9386 C   0  0  0  0  0  0  0  0  0  1  0  0
    0.5223   -1.5947    0.5648 C   0  0  0  0  0  0  0  0  0  2  0  0
   -0.4731   -0.4558    0.6469 C   0  0  0  0  0  0  0  0  0  3  0  0
   -0.3242    0.6524    1.6653 C   0  0  0  0  0  0  0  0  0  4  0  0
    0.2028    1.8273    0.8279 C   0  0  0  0  0  0  0  0  0  5  0  0
   -0.5542    1.6880   -0.4968 C   0  0  0  0  0  0  0  0  0  6  0  0
   -0.6215    0.1737   -0.7401 C   0  0  0  0  0  0  0  0  0  7  0  0
    0.5298   -0.4496   -1.5442 C   0  0  0  0  0  0  0  0  0  8  0  0
    1.6310   -2.3239   -1.1914 H   0  0  0  0  0  0  0  0  0  9  0  0
   -0.1239   -2.4905   -1.2902 H   0  0  0  0  0  0  0  0  0 10  0  0
    0.2035   -2.4840    1.1143 H   0  0  0  0  0  0  0  0  0 11  0  0
    1.4754   -1.2759    1.0045 H   0  0  0  0  0  0  0  0  0 12  0  0
   -1.4408   -0.9187    0.8402 H   0  0  0  0  0  0  0  0  0 13  0  0
   -1.3002    0.9185    2.0864 H   0  0  0  0  0  0  0  0  0 14  0  0
    0.3297    0.3794    2.4949 H   0  0  0  0  0  0  0  0  0 15  0  0
    1.2769    1.7045    0.6608 H   0  0  0  0  0  0  0  0  0 16  0  0
    0.0548    2.7953    1.3079 H   0  0  0  0  0  0  0  0  0 17  0  0
   -1.5651    2.0862   -0.3825 H   0  0  0  0  0  0  0  0  0 18  0  0
   -0.0779    2.2235   -1.3197 H   0  0  0  0  0  0  0  0  0 19  0  0
   -1.5717   -0.1079   -1.2045 H   0  0  0  0  0  0  0  0  0 20  0  0
    0.3350   -0.4617   -2.6171 H   0  0  0  0  0  0  0  0  0 21  0  0
    1.4468    0.1272   -1.3811 H   0  0  0  0  0  0  0  0  0 22  0  0
  1  8  1  0
  1 10  1  0
  1  9  1  0
  1  2  1  0
  2 12  1  0
  2 11  1  0
  2  3  1  0
  3  4  1  0
  3 13  1  0
  3  7  1  0
  4 14  1  0
  4  5  1  0
  4 15  1  0
  5 16  1  0
  5 17  1  0
  5  6  1  0
  6  7  1  0
  6 19  1  0
  6 18  1  0
  7 20  1  0
  7  8  1  0
  8 22  1  0
  8 21  1  0
M  END
>  <rmg_smiles>  (1) 
C1CC2CCCC2C1

>  <rmg_adjacency_list>  (1) 
1  C u0 p0 c0 {2,S} {3,S} {4,S} {9,S}
2  C u0 p0 c0 {1,S} {5,S} {6,S} {10,S}
3  C u0 p0 c0 {1,S} {7,S} {13,S} {14,S}
4  C u0 p0 c0 {1,S} {8,S} {15,S} {16,S}
5  C u0 p0 c0 {2,S} {8,S} {19,S} {20,S}
6  C u0 p0 c0 {2,S} {7,S} {21,S} {22,S}
7  C u0 p0 c0 {3,S} {6,S} {11,S} {12,S}
8  C u0 p0 c0 {4,S} {5,S} {17,S} {18,S}
9  H u0 p0 c0 {1,S}
10 H u0 p0 c0 {2,S}
11 H u0 p0 c0 {7,S}
12 H u0 p0 c0 {7,S}
13 H u0 p0 c0 {3,S}
14 H u0 p0 c0 {3,S}
15 H u0 p0 c0 {4,S}
16 H u0 p0 c0 {4,S}
17 H u0 p0 c0 {8,S}
18 H u0 p0 c0 {8,S}
19 H u0 p0 c0 {5,S}
20 H u0 p0 c0 {5,S}
21 H u0 p0 c0 {6,S}
22 H u0 p0 c0 {6,S}


>  <multiplicity>  (1) 
1

>  <reaction>  (1) 
rxn_567

>  <type>  (1) 
r1h

>  <role_mapnums>  (1) 
{"r1h_a": 3, "r1h_h": 13}

>  <role_mapidx>  (1) 
{"r1h_a": 2, "r1h_h": 12}

>  <ordered_mapped_smiles>  (1) 
[C:1]1([H:9])([H:10])[C:2]([H:11])([H:12])[C:3]2([H:13])[C:4]([H:14])([H:15])[C:5]([H:16])([H:17])[C:6]([H:18])([H:19])[C:7]2([H:20])[C:8]1([H:21])[H:22]

>  <mol_properties>  (1) 
{"2": {"label": "donator", "atom_type": "Cs"}, "12": {"label": "d_hydrogen", "atom_type": "H0"}}

>  <level_of_theory>  (1) 
wb97xd/def2tzvp

>  <lot_method>  (1) 
wb97xd

>  <lot_basis>  (1) 
def2tzvp

>  <spin_multiplicity>  (1) 
1.0

>  <optical_isomers>  (1) 
1.0

>  <modes>  (1) 
IdealGasTranslation(mass=(110.11, 'amu')),         NonlinearRotor(             inertia = ([146.16, 254.143, 330.352

>  <frequency_value>  (1) 
unknown

>  <frequency_units>  (1) 
unknown

>  <frequency_list>  (1) 
unknown

>  <arkane_path>  (1) 
/home/calvin/Dropbox/PersonalFolders/Calvin/HAb_Converged/rxn_567/output/Species/rxn_567_C1CC2CCCC2C1/arkane/output.py

>  <path_exists>  (1) 
True

>  <E0_value>  (1) 
-822068.5647386889

>  <E0_units>  (1) 
kJ/mol

>  <thermo_class>  (1) 
NASA

>  <Cp0_value>  (1) 
33.257888

>  <Cp0_units>  (1) 
J/(mol*K)

>  <CpInf_value>  (1) 
532.126208

>  <CpInf_units>  (1) 
J/(mol*K)

>  <Tmin_value>  (1) 
10.0

>  <Tmin_units>  (1) 
K

>  <Tmax_value>  (1) 
3000.0

>  <Tmax_units>  (1) 
K

>  <polynomials>  (1) 
[{"name": "polynomial1", "class": "NASAPolynomial", "Tmin_value": 10.0, "Tmin_units": "K", "Tmax_value": 631.1554087767174, "Tmax_units": "K", "coeffs": [4.104892732192084, -0.00872402245613231, 0.0002586838352826795, -3.8715965058313203e-07, 1.8543893870085067e-10, -98872009.83151405, 11.711801191684385]}, {"name": "polynomial2", "class": "NASAPolynomial", "Tmin_value": 631.1554087767174, "Tmin_units": "K", "Tmax_value": 3000.0, "Tmax_units": "K", "coeffs": [-8.339564241366276, 0.09752899339998983, -5.8919991130410155e-05, 1.705923018149873e-08, -1.9017313185535466e-12, -98870984.4094117, 61.70104968838544]}]

>  <H298_value>  (1) 
-196474.24862839645

>  <H298_units>  (1) 
kcal/mol

>  <S298_value>  (1) 
81.34524085312425

>  <S298_units>  (1) 
cal/(mol*K)

>  <Cp_T_value_list>  (1) 
[31.433584756109013, 43.66631245461224, 54.86442195893942, 64.39157523859107, 79.34957857997146, 90.27270430862933, 105.98037139896968, 113.43888502925647, 117.40970049175486]

>  <Cp_T_units>  (1) 
cal/(mol*K)

>  <T_list>  (1) 
[300.0, 400.0, 500.0, 600.0, 800.0, 1000.0, 1500.0, 2000.0, 2400.0]

>  <T_units>  (1) 
K

>  <yaml_path>  (1) 
/home/calvin/Dropbox/PersonalFolders/Calvin/HAb_Converged/rxn_567/output/Species/rxn_567_C1CC2CCCC2C1/rxn_567_C1CC2CCCC2C1.yml

>  <frequencies_cm1>  (1) 
[104.48804862911999, 193.17516403692, 284.30005923332, 354.38451140924, 393.75980523412, 536.4076912864799, 546.84550897288, 589.015665823, 687.2204228843199, 771.9521547477999, 809.8922486408001, 842.5310298667599, 889.59048026472, 905.6866938548001, 914.3802972699199, 927.22155981832, 933.9649394025599, 960.1075525158, 996.54377662372, 1021.0245792895199, 1030.08899991192, 1051.48652616904, 1068.6333885130798, 1089.19314256116, 1150.77626691092, 1188.5515531562398, 1194.01080648564, 1212.42806111388, 1220.75771430704, 1259.1235612898797, 1274.34766774432, 1301.0327726978398, 1303.03793241128, 1323.01399270716, 1323.82429697492, 1335.4501031216798, 1337.88101592496, 1343.2166635186, 1357.4862590135597, 1367.1755753000798, 1477.40442365672, 1478.31086571896, 1479.4507852820798, 1483.57097647408, 1496.2336974041598, 1502.40025022152, 3003.36530051116, 3004.25800860276, 3014.3250090818797, 3016.1859621035996, 3016.74905489984, 3018.8846873343596, 3037.5079515222, 3052.3475067987197, 3066.73384104412, 3068.2514447998396, 3072.3785029771598, 3072.460906801, 3078.0849677780793, 3083.11846801764]

>  <ZPE_kJmol>  (1) 
537.8174543033537

>  <E_elec_kJmol>  (1) 
-822606.3821929923

>  <E0_minus_Eelec_plus_ZPE_kJmol>  (1) 
0.0

>  <rxn>  (1) 
rxn_567

>  <species_type>  (1) 
r1

>  <species_folder>  (1) 
rxn_567_C1CC2CCCC2C1

>  <frequencies_cm1_list>  (1) 
[104.48804862911999, 193.17516403692, 284.30005923332, 354.38451140924, 393.75980523412, 536.4076912864799, 546.84550897288, 589.015665823, 687.2204228843199, 771.9521547477999, 809.8922486408001, 842.5310298667599, 889.59048026472, 905.6866938548001, 914.3802972699199, 927.22155981832, 933.9649394025599, 960.1075525158, 996.54377662372, 1021.0245792895199, 1030.08899991192, 1051.48652616904, 1068.6333885130798, 1089.19314256116, 1150.77626691092, 1188.5515531562398, 1194.01080648564, 1212.42806111388, 1220.75771430704, 1259.1235612898797, 1274.34766774432, 1301.0327726978398, 1303.03793241128, 1323.01399270716, 1323.82429697492, 1335.4501031216798, 1337.88101592496, 1343.2166635186, 1357.4862590135597, 1367.1755753000798, 1477.40442365672, 1478.31086571896, 1479.4507852820798, 1483.57097647408, 1496.2336974041598, 1502.40025022152, 3003.36530051116, 3004.25800860276, 3014.3250090818797, 3016.1859621035996, 3016.74905489984, 3018.8846873343596, 3037.5079515222, 3052.3475067987197, 3066.73384104412, 3068.2514447998396, 3072.3785029771598, 3072.460906801, 3078.0849677780793, 3083.11846801764]

>  <E0_kJmol>  (1) 
-822069

>  <H298_kJmol>  (1) 
-822048

$$$$

     RDKit          3D

  9  8  0  0  0  0  0  0  0  0999 V2000
    0.3916   -2.0071   -1.1048 C   0  0  0  0  0  2  0  0  0  1  0  0
    0.4052   -1.1187   -0.2986 C   0  0  0  0  0  2  0  0  0  2  0  0
    0.5012   -0.0468    0.6546 C   0  0  0  0  0  0  0  0  0  3  0  0
   -0.3588    1.0855    0.4416 C   0  0  0  0  0  2  0  0  0  4  0  0
   -1.0164    2.0735    0.2646 C   0  0  0  0  0  2  0  0  0  5  0  0
    0.3548   -2.7977   -1.8147 H   0  0  0  0  0  0  0  0  0  6  0  0
    0.4919   -0.3964    1.6870 H   0  0  0  0  0  0  0  0  0  7  0  0
   -1.6221    2.9333    0.1084 H   0  0  0  0  0  0  0  0  0  8  0  0
    1.5109    0.3489    0.5454 H   0  0  0  0  0  0  0  0  0  9  0  0
  1  6  1  0
  1  2  1  0
  2  3  1  0
  3  4  1  0
  3  7  1  0
  3  9  1  0
  4  5  1  0
  5  8  1  0
M  RAD  4   1   3   2   3   4   3   5   3
M  END
>  <rmg_smiles>  (2) 
[CH][C]C[C][CH]

>  <rmg_adjacency_list>  (2) 
1 C u0 p0 c0 {2,S} {3,S} {6,S} {7,S}
2 C u0 p1 c0 {1,S} {4,S}
3 C u0 p1 c0 {1,S} {5,S}
4 C u0 p1 c0 {2,S} {8,S}
5 C u0 p1 c0 {3,S} {9,S}
6 H u0 p0 c0 {1,S}
7 H u0 p0 c0 {1,S}
8 H u0 p0 c0 {4,S}
9 H u0 p0 c0 {5,S}


>  <multiplicity>  (2) 
1

>  <reaction>  (2) 
rxn_567

>  <type>  (2) 
r2h

>  <role_mapnums>  (2) 
{"r2h_a": 3, "r2h_h": 9}

>  <role_mapidx>  (2) 
{"r2h_a": 2, "r2h_h": 8}

>  <ordered_mapped_smiles>  (2) 
[C:1]([C:2][C:3]([C:4][C:5][H:8])([H:7])[H:9])[H:6]

>  <mol_properties>  (2) 
{"2": {"label": "acceptor", "atom_type": "Cs"}, "8": {"label": "a_hydrogen", "atom_type": "H0"}}

>  <level_of_theory>  (2) 
wb97xd/def2tzvp

>  <lot_method>  (2) 
wb97xd

>  <lot_basis>  (2) 
def2tzvp

>  <spin_multiplicity>  (2) 
1.0

>  <optical_isomers>  (2) 
1.0

>  <modes>  (2) 
IdealGasTranslation(mass=(64.0313, 'amu')),         NonlinearRotor(             inertia = ([26.0751, 176.474, 199.453

>  <frequency_value>  (2) 
unknown

>  <frequency_units>  (2) 
unknown

>  <frequency_list>  (2) 
unknown

>  <arkane_path>  (2) 
/home/calvin/Dropbox/PersonalFolders/Calvin/HAb_Converged/rxn_567/output/Species/rxn_567_CtCCCtC/arkane/output.py

>  <path_exists>  (2) 
True

>  <E0_value>  (2) 
-505987.1937681529

>  <E0_units>  (2) 
kJ/mol

>  <thermo_class>  (2) 
NASA

>  <Cp0_value>  (2) 
33.257888

>  <Cp0_units>  (2) 
J/(mol*K)

>  <CpInf_value>  (2) 
207.8618

>  <CpInf_units>  (2) 
J/(mol*K)

>  <Tmin_value>  (2) 
10.0

>  <Tmin_units>  (2) 
K

>  <Tmax_value>  (2) 
3000.0

>  <Tmax_units>  (2) 
K

>  <polynomials>  (2) 
[{"name": "polynomial1", "class": "NASAPolynomial", "Tmin_value": 10.0, "Tmin_units": "K", "Tmax_value": 497.8593658816142, "Tmax_units": "K", "coeffs": [3.8915864576213126, 0.006957367241061819, 0.0001124682099447706, -2.5840703133431377e-07, 1.7695513704603586e-10, -60856199.45525289, 8.432136330915357]}, {"name": "polynomial2", "class": "NASAPolynomial", "Tmin_value": 497.8593658816142, "Tmin_units": "K", "Tmax_value": 3000.0, "Tmax_units": "K", "coeffs": [4.075884062024102, 0.02776260095654963, -1.736118740993935e-05, 5.3551737520056605e-09, -6.423292730160111e-13, -60856494.00033687, 4.897725289359391]}]

>  <H298_value>  (2) 
-120929.7923476968

>  <H298_units>  (2) 
kcal/mol

>  <S298_value>  (2) 
71.02155088616169

>  <S298_units>  (2) 
cal/(mol*K)

>  <Cp_T_value_list>  (2) 
[20.979499997159746, 25.160912667766237, 28.310019691035766, 30.91475060774189, 35.08126080246509, 38.13477511079626, 42.68327459382335, 45.15024180882392, 46.54964684058525]

>  <Cp_T_units>  (2) 
cal/(mol*K)

>  <T_list>  (2) 
[300.0, 400.0, 500.0, 600.0, 800.0, 1000.0, 1500.0, 2000.0, 2400.0]

>  <T_units>  (2) 
K

>  <yaml_path>  (2) 
/home/calvin/Dropbox/PersonalFolders/Calvin/HAb_Converged/rxn_567/output/Species/rxn_567_CtCCCtC/rxn_567_CtCCCtC.yml

>  <frequencies_cm1>  (2) 
[136.57060404415998, 317.76287869768, 341.09689481504, 341.70805650852003, 565.30396551304, 688.26420465296, 689.33545436288, 698.59215057424, 701.977574337, 902.24633420948, 929.56320181244, 996.6124464769199, 1233.63331178204, 1332.80631377348, 1444.34675632624, 2232.79340981268, 2237.0921426229997, 3019.1524997618394, 3054.0299182021195, 3436.67207420316, 3437.69525501584]

>  <ZPE_kJmol>  (2) 
171.88700812582363

>  <E_elec_kJmol>  (2) 
-506159.08077627874

>  <E0_minus_Eelec_plus_ZPE_kJmol>  (2) 
0.0

>  <rxn>  (2) 
rxn_567

>  <species_type>  (2) 
p0

>  <species_folder>  (2) 
rxn_567_CtCCCtC

>  <frequencies_cm1_list>  (2) 
[136.57060404415998, 317.76287869768, 341.09689481504, 341.70805650852003, 565.30396551304, 688.26420465296, 689.33545436288, 698.59215057424, 701.977574337, 902.24633420948, 929.56320181244, 996.6124464769199, 1233.63331178204, 1332.80631377348, 1444.34675632624, 2232.79340981268, 2237.0921426229997, 3019.1524997618394, 3054.0299182021195, 3436.67207420316, 3437.69525501584]

>  <E0_kJmol>  (2) 
-505987

>  <H298_kJmol>  (2) 
-505970

$$$$

     RDKit          3D

 30 30  0  0  0  0  0  0  0  0999 V2000
   -1.7495   -2.9002   -0.8661 C   0  0  0  0  0  0  0  0  0  1  0  0
   -1.7360   -2.0118   -0.0599 C   0  0  0  0  0  0  0  0  0  2  0  0
   -1.6400   -0.9399    0.8933 C   0  0  0  0  0  0  0  0  0  3  0  0
   -2.5000    0.1924    0.6803 C   0  0  0  0  0  0  0  0  0  4  0  0
   -3.1575    1.1804    0.5033 C   0  0  0  0  0  0  0  0  0  5  0  0
   -1.7864   -3.6908   -1.5760 H   0  0  0  0  0  0  0  0  0  6  0  0
   -1.6493   -1.2895    1.9257 H   0  0  0  0  0  0  0  0  0  7  0  0
   -3.7632    2.0402    0.3471 H   0  0  0  0  0  0  0  0  0  8  0  0
    1.9539   -1.2667   -1.0695 C   0  0  0  0  0  0  0  0  0  9  0  0
    1.7916   -1.0166    0.4340 C   0  0  0  0  0  0  0  0  0 10  0  0
    0.7962    0.1222    0.5160 C   0  0  0  0  0  3  0  0  0 11  0  0
    0.9451    1.2304    1.5344 C   0  0  0  0  0  0  0  0  0 12  0  0
    1.4721    2.4054    0.6970 C   0  0  0  0  0  0  0  0  0 13  0  0
    0.7151    2.2661   -0.6277 C   0  0  0  0  0  0  0  0  0 14  0  0
    0.6478    0.7518   -0.8710 C   0  0  0  0  0  0  0  0  0 15  0  0
    1.7991    0.1285   -1.6750 C   0  0  0  0  0  0  0  0  0 16  0  0
    2.9003   -1.7459   -1.3222 H   0  0  0  0  0  0  0  0  0 17  0  0
    1.1453   -1.9125   -1.4211 H   0  0  0  0  0  0  0  0  0 18  0  0
    1.4728   -1.9060    0.9835 H   0  0  0  0  0  0  0  0  0 19  0  0
    2.7447   -0.6978    0.8737 H   0  0  0  0  0  0  0  0  0 20  0  0
   -0.4460   -0.4720    0.7642 H   0  0  0  0  0  0  0  0  0 21  0  0
   -0.0309    1.4965    1.9555 H   0  0  0  0  0  0  0  0  0 22  0  0
    1.5990    0.9574    2.3640 H   0  0  0  0  0  0  0  0  0 23  0  0
    2.5462    2.2826    0.5299 H   0  0  0  0  0  0  0  0  0 24  0  0
    1.3241    3.3733    1.1771 H   0  0  0  0  0  0  0  0  0 25  0  0
   -0.2958    2.6643   -0.5134 H   0  0  0  0  0  0  0  0  0 26  0  0
    1.1914    2.8015   -1.4506 H   0  0  0  0  0  0  0  0  0 27  0  0
   -0.3024    0.4702   -1.3354 H   0  0  0  0  0  0  0  0  0 28  0  0
    1.6043    0.1163   -2.7480 H   0  0  0  0  0  0  0  0  0 29  0  0
    2.7161    0.7053   -1.5119 H   0  0  0  0  0  0  0  0  0 30  0  0
  1  6  1  0
  1  2  1  0
  2  3  1  0
  3  4  1  0
  3 21  1  0
  3  7  1  0
  4  5  1  0
  5  8  1  0
  9 17  1  0
  9 18  1  0
  9 16  1  0
  9 10  1  0
 10 11  1  0
 10 19  1  0
 10 20  1  0
 11 15  1  0
 11 12  1  0
 12 22  1  0
 12 23  1  0
 12 13  1  0
 13 25  1  0
 13 24  1  0
 13 14  1  0
 14 15  1  0
 14 26  1  0
 14 27  1  0
 15 16  1  0
 15 28  1  0
 16 29  1  0
 16 30  1  0
M  RAD  1  11   2
M  END
>  <rmg_smiles>  (3) 
C1C[C]2CCCC2C1.[CH]CCC[CH]

>  <rmg_adjacency_list>  (3) 
multiplicity 2
1  C u0 p0 c0 {2,S} {3,S} {9,S} {14,S}
2  C u0 p0 c0 {1,S} {5,S} {19,S} {20,S}
3  C u0 p0 c0 {1,S} {4,S} {21,S} {22,S}
4  C u0 p0 c0 {3,S} {6,S} {15,S} {16,S}
5  C u0 p0 c0 {2,S} {7,S} {17,S} {18,S}
6  C u0 p0 c0 {4,S} {9,S} {23,S} {24,S}
7  C u0 p0 c0 {5,S} {9,S} {25,S} {26,S}
8  C u0 p0 c0 {10,S} {11,S} {27,S} {28,S}
9  C u1 p0 c0 {1,S} {6,S} {7,S}
10 C u0 p1 c0 {8,S} {12,S}
11 C u0 p1 c0 {8,S} {13,S}
12 C u0 p1 c0 {10,S} {29,S}
13 C u0 p1 c0 {11,S} {30,S}
14 H u0 p0 c0 {1,S}
15 H u0 p0 c0 {4,S}
16 H u0 p0 c0 {4,S}
17 H u0 p0 c0 {5,S}
18 H u0 p0 c0 {5,S}
19 H u0 p0 c0 {2,S}
20 H u0 p0 c0 {2,S}
21 H u0 p0 c0 {3,S}
22 H u0 p0 c0 {3,S}
23 H u0 p0 c0 {6,S}
24 H u0 p0 c0 {6,S}
25 H u0 p0 c0 {7,S}
26 H u0 p0 c0 {7,S}
27 H u0 p0 c0 {8,S}
28 H u0 p0 c0 {8,S}
29 H u0 p0 c0 {12,S}
30 H u0 p0 c0 {13,S}


>  <multiplicity>  (3) 
2

>  <reaction>  (3) 
rxn_567

>  <type>  (3) 
ts

>  <role_mapnums>  (3) 
{"*2": 21, "*1": 11, "*3": 3, "*0": 2, "*4": 15}

>  <role_mapidx>  (3) 
{"*2": 20, "*1": 10, "*3": 2, "*0": 1, "*4": 14}

>  <ordered_mapped_smiles>  (3) 
[CH2:1]([CH2:2][C:3]([CH2:4][CH2:5][H:8])([H:7])[H:21])[H:6].[C:9]1([H:17])([H:18])[C:10]([H:19])([H:20])[C:11]2[C:12]([H:22])([H:23])[C:13]([H:24])([H:25])[C:14]([H:26])([H:27])[C:15]2([H:28])[C:16]1([H:29])[H:30]

>  <mol_properties>  (3) 
{"1": {"label": "*0", "atom_type": "C2s"}, "2": {"label": "*3", "atom_type": "Cs"}, "10": {"label": "*1", "atom_type": "Cs"}, "14": {"label": "*4", "atom_type": "Cs"}, "20": {"label": "*2", "atom_type": "H0"}}

>  <level_of_theory>  (3) 
wb97xd/def2tzvp

>  <lot_method>  (3) 
wb97xd

>  <lot_basis>  (3) 
def2tzvp

>  <spin_multiplicity>  (3) 
2.0

>  <optical_isomers>  (3) 
2.0

>  <modes>  (3) 
IdealGasTranslation(mass=(173.133, 'amu')),         NonlinearRotor(             inertia = ([526.854, 737.123, 1012.32

>  <frequency_value>  (3) 
-1465.97

>  <frequency_units>  (3) 
cm^-1

>  <frequency_list>  (3) 
unknown

>  <arkane_path>  (3) 
/home/calvin/Dropbox/PersonalFolders/Calvin/HAb_Converged/rxn_567/output/rxns/TS0/arkane/output.py

>  <path_exists>  (3) 
True

>  <E0_value>  (3) 
-1326330.0

>  <E0_units>  (3) 
kJ/mol

>  <thermo_class>  (3) 
unknown

>  <Cp0_value>  (3) 
unknown

>  <Cp0_units>  (3) 
unknown

>  <CpInf_value>  (3) 
unknown

>  <CpInf_units>  (3) 
unknown

>  <Tmin_value>  (3) 
unknown

>  <Tmin_units>  (3) 
unknown

>  <Tmax_value>  (3) 
unknown

>  <Tmax_units>  (3) 
unknown

>  <polynomials>  (3) 
unknown

>  <H298_value>  (3) 
unknown

>  <H298_units>  (3) 
unknown

>  <S298_value>  (3) 
unknown

>  <S298_units>  (3) 
unknown

>  <Cp_T_value_list>  (3) 
unknown

>  <Cp_T_units>  (3) 
unknown

>  <T_list>  (3) 
unknown

>  <T_units>  (3) 
unknown

>  <yaml_path>  (3) 
unknown

>  <frequencies_cm1>  (3) 
unknown

>  <ZPE_kJmol>  (3) 
unknown

>  <E_elec_kJmol>  (3) 
unknown

>  <E0_minus_Eelec_plus_ZPE_kJmol>  (3) 
unknown

>  <rxn>  (3) 
unknown

>  <species_type>  (3) 
unknown

>  <species_folder>  (3) 
unknown

>  <frequencies_cm1_list>  (3) 
[]

>  <ts_imag_freq_cm1>  (3) 
-1483.7762

>  <ts_freq_out_path>  (3) 
/home/calvin/Dropbox/PersonalFolders/Calvin/HAb_Converged/rxn_567/output/rxns/TS0/geometry/freq.out

>  <E0_kJmol>  (3) 
-1.32633e+06

>  <H298_kJmol>  (3) 
unknown

$$$$

     RDKit          3D

 21 22  0  0  0  0  0  0  0  0999 V2000
   -2.2298    0.3537    0.0543 C   0  0  0  0  0  0  0  0  0  1  0  0
   -1.1556    1.4284   -0.1994 C   0  0  0  0  0  0  0  0  0  2  0  0
    0.0609    0.6285   -0.5240 C   0  0  0  0  0  3  0  0  0  3  0  0
    1.4977    1.0080   -0.3953 C   0  0  0  0  0  0  0  0  0  4  0  0
    2.2141   -0.3503   -0.2737 C   0  0  0  0  0  0  0  0  0  5  0  0
    1.1785   -1.2652    0.3956 C   0  0  0  0  0  0  0  0  0  6  0  0
   -0.1494   -0.8311   -0.2398 C   0  0  0  0  0  0  0  0  0  7  0  0
   -1.4409   -0.8502    0.5889 C   0  0  0  0  0  0  0  0  0  8  0  0
   -2.7102    0.0864   -0.8907 H   0  0  0  0  0  0  0  0  0  9  0  0
   -3.0138    0.6865    0.7353 H   0  0  0  0  0  0  0  0  0 10  0  0
   -1.4459    2.1368   -0.9815 H   0  0  0  0  0  0  0  0  0 11  0  0
   -0.9857    2.0292    0.7068 H   0  0  0  0  0  0  0  0  0 12  0  0
    1.6525    1.6113    0.5121 H   0  0  0  0  0  0  0  0  0 13  0  0
    1.8766    1.6104   -1.2268 H   0  0  0  0  0  0  0  0  0 14  0  0
    3.1516   -0.2903    0.2803 H   0  0  0  0  0  0  0  0  0 15  0  0
    2.4485   -0.7309   -1.2715 H   0  0  0  0  0  0  0  0  0 16  0  0
    1.1473   -1.0612    1.4707 H   0  0  0  0  0  0  0  0  0 17  0  0
    1.4017   -2.3251    0.2670 H   0  0  0  0  0  0  0  0  0 18  0  0
   -0.3078   -1.3981   -1.1697 H   0  0  0  0  0  0  0  0  0 19  0  0
   -1.1949   -0.6901    1.6436 H   0  0  0  0  0  0  0  0  0 20  0  0
   -1.9953   -1.7869    0.5178 H   0  0  0  0  0  0  0  0  0 21  0  0
  1  8  1  0
  1 10  1  0
  1  9  1  0
  1  2  1  0
  2 12  1  0
  2 11  1  0
  2  3  1  0
  3  4  1  0
  3  7  1  0
  4 14  1  0
  4  5  1  0
  4 13  1  0
  5 16  1  0
  5 15  1  0
  5  6  1  0
  6  7  1  0
  6 17  1  0
  6 18  1  0
  7 19  1  0
  7  8  1  0
  8 20  1  0
  8 21  1  0
M  RAD  1   3   2
M  END
>  <rmg_smiles>  (4) 
C1C[C]2CCCC2C1

>  <rmg_adjacency_list>  (4) 
multiplicity 2
1  C u0 p0 c0 {2,S} {3,S} {8,S} {9,S}
2  C u0 p0 c0 {1,S} {5,S} {14,S} {15,S}
3  C u0 p0 c0 {1,S} {4,S} {16,S} {17,S}
4  C u0 p0 c0 {3,S} {6,S} {10,S} {11,S}
5  C u0 p0 c0 {2,S} {7,S} {12,S} {13,S}
6  C u0 p0 c0 {4,S} {8,S} {18,S} {19,S}
7  C u0 p0 c0 {5,S} {8,S} {20,S} {21,S}
8  C u1 p0 c0 {1,S} {6,S} {7,S}
9  H u0 p0 c0 {1,S}
10 H u0 p0 c0 {4,S}
11 H u0 p0 c0 {4,S}
12 H u0 p0 c0 {5,S}
13 H u0 p0 c0 {5,S}
14 H u0 p0 c0 {2,S}
15 H u0 p0 c0 {2,S}
16 H u0 p0 c0 {3,S}
17 H u0 p0 c0 {3,S}
18 H u0 p0 c0 {6,S}
19 H u0 p0 c0 {6,S}
20 H u0 p0 c0 {7,S}
21 H u0 p0 c0 {7,S}


>  <multiplicity>  (4) 
2

>  <reaction>  (4) 
rxn_567

>  <type>  (4) 
r1

>  <role_mapnums>  (4) 
{}

>  <role_mapidx>  (4) 
{}

>  <ordered_mapped_smiles>  (4) 
[C:1]1([H:9])([H:10])[C:2]([H:11])([H:12])[C:3]2[C:4]([H:13])([H:14])[C:5]([H:15])([H:16])[C:6]([H:17])([H:18])[C:7]2([H:19])[C:8]1([H:20])[H:21]

>  <level_of_theory>  (4) 
wb97xd/def2tzvp

>  <lot_method>  (4) 
wb97xd

>  <lot_basis>  (4) 
def2tzvp

>  <spin_multiplicity>  (4) 
2.0

>  <optical_isomers>  (4) 
1.0

>  <modes>  (4) 
IdealGasTranslation(mass=(109.102, 'amu')),         NonlinearRotor(             inertia = ([128.096, 276.317, 371.4

>  <frequency_value>  (4) 
unknown

>  <frequency_units>  (4) 
unknown

>  <frequency_list>  (4) 
unknown

>  <arkane_path>  (4) 
/home/calvin/Dropbox/PersonalFolders/Calvin/HAb_Converged/rxn_567/output/Species/rxn_567_C1C[C]2CCCC2C1/arkane/output.py

>  <path_exists>  (4) 
True

>  <E0_value>  (4) 
-820358.0894855347

>  <E0_units>  (4) 
kJ/mol

>  <thermo_class>  (4) 
NASA

>  <Cp0_value>  (4) 
33.257888

>  <Cp0_units>  (4) 
J/(mol*K)

>  <CpInf_value>  (4) 
507.182792

>  <CpInf_units>  (4) 
J/(mol*K)

>  <Tmin_value>  (4) 
10.0

>  <Tmin_units>  (4) 
K

>  <Tmax_value>  (4) 
3000.0

>  <Tmax_units>  (4) 
K

>  <polynomials>  (4) 
[{"name": "polynomial1", "class": "NASAPolynomial", "Tmin_value": 10.0, "Tmin_units": "K", "Tmax_value": 579.35086050788, "Tmax_units": "K", "coeffs": [4.0168197431565185, -0.0023297630194267305, 0.00023712396292664435, -3.756310989706859e-07, 1.906783516451148e-10, -98666285.54334764, 12.540459604510119]}, {"name": "polynomial2", "class": "NASAPolynomial", "Tmin_value": 579.35086050788, "Tmin_units": "K", "Tmax_value": 3000.0, "Tmax_units": "K", "coeffs": [-7.178507488411498, 0.09308274536709106, -5.6815413242134675e-05, 1.6584634856092287e-08, -1.8610860274994795e-12, -98665292.38247325, 57.816503635904304]}]

>  <H298_value>  (4) 
-196065.24781156375

>  <H298_units>  (4) 
kcal/mol

>  <S298_value>  (4) 
84.10171794049678

>  <S298_units>  (4) 
cal/(mol*K)

>  <Cp_T_value_list>  (4) 
[31.91752213710447, 43.45170902327354, 53.84621888221555, 62.7136048060052, 76.81518220931488, 87.06423337223478, 101.67010562403804, 108.55122006851184, 112.24323691068717]

>  <Cp_T_units>  (4) 
cal/(mol*K)

>  <T_list>  (4) 
[300.0, 400.0, 500.0, 600.0, 800.0, 1000.0, 1500.0, 2000.0, 2400.0]

>  <T_units>  (4) 
K

>  <yaml_path>  (4) 
/home/calvin/Dropbox/PersonalFolders/Calvin/HAb_Converged/rxn_567/output/Species/rxn_567_C1C[C]2CCCC2C1/rxn_567_C1CC2CCCC2C1.yml

>  <frequencies_cm1>  (4) 
[110.77134019692, 171.11154020376, 233.23028940848, 257.58748633851997, 365.8043079964, 501.11825372699997, 529.7535825114, 570.2001260461999, 607.59772809892, 733.54510585304, 827.3824602508398, 846.9465014275199, 869.77922761652, 898.1261430174801, 911.25581894932, 918.2326760344399, 937.4465009598, 970.46983336368, 989.62872240648, 1011.43140079748, 1048.2865110099199, 1056.8633756745999, 1096.30733935268, 1147.9745369003601, 1154.28529640944, 1200.28723106812, 1211.91303721488, 1214.6529643575598, 1226.3474403575199, 1232.83674148492, 1281.2009190936799, 1291.3846583232398, 1310.70835501372, 1325.28009786276, 1330.9453607517598, 1338.90419673764, 1347.22011596016, 1364.11976683268, 1457.1193490214398, 1464.1923439010397, 1476.69712416876, 1480.9752560231198, 1491.6808861369998, 1495.08691085572, 2931.77697855016, 2941.8851809412, 2944.8723195554, 3007.1146744958796, 3011.12499392276, 3011.5370130419597, 3012.60139576656, 3027.36541420456, 3028.16198450168, 3070.6411556912, 3073.4016837898394, 3079.81544807872, 3080.9416336711997]

>  <ZPE_kJmol>  (4) 
499.60810598606855

>  <E_elec_kJmol>  (4) 
-820857.6975915207

>  <E0_minus_Eelec_plus_ZPE_kJmol>  (4) 
0.0

>  <rxn>  (4) 
rxn_567

>  <species_type>  (4) 
p1

>  <species_folder>  (4) 
rxn_567_C1C[C]2CCCC2C1

>  <frequencies_cm1_list>  (4) 
[110.77134019692, 171.11154020376, 233.23028940848, 257.58748633851997, 365.8043079964, 501.11825372699997, 529.7535825114, 570.2001260461999, 607.59772809892, 733.54510585304, 827.3824602508398, 846.9465014275199, 869.77922761652, 898.1261430174801, 911.25581894932, 918.2326760344399, 937.4465009598, 970.46983336368, 989.62872240648, 1011.43140079748, 1048.2865110099199, 1056.8633756745999, 1096.30733935268, 1147.9745369003601, 1154.28529640944, 1200.28723106812, 1211.91303721488, 1214.6529643575598, 1226.3474403575199, 1232.83674148492, 1281.2009190936799, 1291.3846583232398, 1310.70835501372, 1325.28009786276, 1330.9453607517598, 1338.90419673764, 1347.22011596016, 1364.11976683268, 1457.1193490214398, 1464.1923439010397, 1476.69712416876, 1480.9752560231198, 1491.6808861369998, 1495.08691085572, 2931.77697855016, 2941.8851809412, 2944.8723195554, 3007.1146744958796, 3011.12499392276, 3011.5370130419597, 3012.60139576656, 3027.36541420456, 3028.16198450168, 3070.6411556912, 3073.4016837898394, 3079.81544807872, 3080.9416336711997]

>  <E0_kJmol>  (4) 
-820358

>  <H298_kJmol>  (4) 
-820337

$$$$

     RDKit          3D

  8  7  0  0  0  0  0  0  0  0999 V2000
   -2.2129    0.4855    0.7390 C   0  0  0  0  0  0  0  0  0  1  0  0
   -1.2226    0.0526    0.1974 C   0  0  0  0  0  0  0  0  0  2  0  0
   -0.1006   -0.4575   -0.4419 C   0  0  0  0  0  3  0  0  0  3  0  0
    1.1960   -0.1737   -0.0342 C   0  0  0  0  0  0  0  0  0  4  0  0
    2.3329    0.0603    0.3036 C   0  0  0  0  0  0  0  0  0  5  0  0
   -3.0803    0.8696    1.2198 H   0  0  0  0  0  0  0  0  0  6  0  0
   -0.2433   -1.1067   -1.2980 H   0  0  0  0  0  0  0  0  0  7  0  0
    3.3308    0.2700    0.6058 H   0  0  0  0  0  0  0  0  0  8  0  0
  1  6  1  0
  1  2  1  0
  2  3  1  0
  3  4  1  0
  3  7  1  0
  4  5  1  0
  5  8  1  0
M  RAD  1   3   2
M  END
>  <rmg_smiles>  (5) 
[CH]C[CH]C[CH]

>  <rmg_adjacency_list>  (5) 
multiplicity 2
1 C u1 p0 c0 {2,S} {3,S} {6,S}
2 C u0 p1 c0 {1,S} {4,S}
3 C u0 p1 c0 {1,S} {5,S}
4 C u0 p1 c0 {2,S} {7,S}
5 C u0 p1 c0 {3,S} {8,S}
6 H u0 p0 c0 {1,S}
7 H u0 p0 c0 {4,S}
8 H u0 p0 c0 {5,S}


>  <multiplicity>  (5) 
2

>  <reaction>  (5) 
rxn_567

>  <type>  (5) 
r2

>  <role_mapnums>  (5) 
{}

>  <role_mapidx>  (5) 
{}

>  <ordered_mapped_smiles>  (5) 
[CH2:1]([CH2:2][C:3]([CH2:4][CH2:5][H:8])[H:7])[H:6]

>  <level_of_theory>  (5) 
wb97xd/def2tzvp

>  <lot_method>  (5) 
wb97xd

>  <lot_basis>  (5) 
def2tzvp

>  <spin_multiplicity>  (5) 
2.0

>  <optical_isomers>  (5) 
1.0

>  <modes>  (5) 
IdealGasTranslation(mass=(63.0235, 'amu')),         NonlinearRotor(             inertia = ([17.4877, 183.017, 200.505

>  <frequency_value>  (5) 
unknown

>  <frequency_units>  (5) 
unknown

>  <frequency_list>  (5) 
unknown

>  <arkane_path>  (5) 
/home/calvin/Dropbox/PersonalFolders/Calvin/HAb_Converged/rxn_567/output/Species/rxn_567_CtC[CH]CtC/arkane/output.py

>  <path_exists>  (5) 
True

>  <E0_value>  (5) 
-504350.2602594301

>  <E0_units>  (5) 
kJ/mol

>  <thermo_class>  (5) 
NASA

>  <Cp0_value>  (5) 
33.257888

>  <Cp0_units>  (5) 
J/(mol*K)

>  <CpInf_value>  (5) 
182.918384

>  <CpInf_units>  (5) 
J/(mol*K)

>  <Tmin_value>  (5) 
10.0

>  <Tmin_units>  (5) 
K

>  <Tmax_value>  (5) 
3000.0

>  <Tmax_units>  (5) 
K

>  <polynomials>  (5) 
[{"name": "polynomial1", "class": "NASAPolynomial", "Tmin_value": 10.0, "Tmin_units": "K", "Tmax_value": 511.3919089489883, "Tmax_units": "K", "coeffs": [3.8659954757573973, 0.008525616172306112, 0.00010836986673963408, -2.626119315958765e-07, 1.8230598905311024e-10, -60659320.69120562, 8.776064020238547]}, {"name": "polynomial2", "class": "NASAPolynomial", "Tmin_value": 511.3919089489883, "Tmin_units": "K", "Tmax_value": 3000.0, "Tmax_units": "K", "coeffs": [5.628254952966442, 0.022649494843224656, -1.4916539685924306e-05, 4.8216558906608004e-09, -6.002662773476099e-13, -60659865.858327985, -2.111983316915381]}]

>  <H298_value>  (5) 
-120538.51368508991

>  <H298_units>  (5) 
kcal/mol

>  <S298_value>  (5) 
71.92961318485641

>  <S298_units>  (5) 
cal/(mol*K)

>  <Cp_T_value_list>  (5) 
[20.99111005886384, 24.790978026499133, 27.40139790751197, 29.433868246293493, 32.638046849521324, 34.940256474405714, 38.30245845445545, 40.20133175263048, 41.34770744760823]

>  <Cp_T_units>  (5) 
cal/(mol*K)

>  <T_list>  (5) 
[300.0, 400.0, 500.0, 600.0, 800.0, 1000.0, 1500.0, 2000.0, 2400.0]

>  <T_units>  (5) 
K

>  <yaml_path>  (5) 
/home/calvin/Dropbox/PersonalFolders/Calvin/HAb_Converged/rxn_567/output/Species/rxn_567_CtC[CH]CtC/rxn_567_CtCCHCtC.yml

>  <frequencies_cm1>  (5) 
[140.92427273703998, 354.42571332116, 356.18366156308, 383.39752438624004, 580.9812929985999, 582.4370938864399, 598.9659275516799, 670.81519495484, 678.8701687352, 681.5894949219199, 955.0809192615599, 1115.22588390928, 1366.0425227222797, 2023.89971637828, 2119.4194821794795, 3149.0140591483596, 3426.6737435772397, 3430.6016591802795]

>  <ZPE_kJmol>  (5) 
135.26507637113028

>  <E_elec_kJmol>  (5) 
-504485.5253358012

>  <E0_minus_Eelec_plus_ZPE_kJmol>  (5) 
0.0

>  <rxn>  (5) 
rxn_567

>  <species_type>  (5) 
r0

>  <species_folder>  (5) 
rxn_567_CtC[CH]CtC

>  <frequencies_cm1_list>  (5) 
[140.92427273703998, 354.42571332116, 356.18366156308, 383.39752438624004, 580.9812929985999, 582.4370938864399, 598.9659275516799, 670.81519495484, 678.8701687352, 681.5894949219199, 955.0809192615599, 1115.22588390928, 1366.0425227222797, 2023.89971637828, 2119.4194821794795, 3149.0140591483596, 3426.6737435772397, 3430.6016591802795]

>  <E0_kJmol>  (5) 
-504350

>  <H298_kJmol>  (5) 
-504333

$$$$
