
     RDKit          3D

 17 17  0  0  0  0  0  0  0  0999 V2000
   -1.7295   -0.1566   -3.0917 C   0  0  0  0  0  2  0  0  0  1  0  0
   -1.7298   -0.1486   -1.8947 C   0  0  0  0  0  2  0  0  0  2  0  0
   -1.7388   -0.1396   -0.4381 C   0  0  0  0  0  0  0  0  0  3  0  0
   -0.3746   -0.0280    0.2157 C   0  0  0  0  0  0  0  0  0  4  0  0
   -0.2673   -0.0104    1.5909 C   0  0  0  0  0  0  0  0  0  5  0  0
    0.9113    0.0869    2.2838 C   0  0  0  0  0  0  0  0  0  6  0  0
    2.0898    0.1746    1.5474 C   0  0  0  0  0  0  0  0  0  7  0  0
    2.0330    0.1609    0.1632 C   0  0  0  0  0  0  0  0  0  8  0  0
    0.8156    0.0608   -0.4989 C   0  0  0  0  0  0  0  0  0  9  0  0
   -1.7357   -0.1642   -4.1551 H   0  0  0  0  0  0  0  0  0 10  0  0
   -2.3643    0.6892   -0.0954 H   0  0  0  0  0  0  0  0  0 11  0  0
   -2.2275   -1.0513   -0.0838 H   0  0  0  0  0  0  0  0  0 12  0  0
   -1.1862   -0.0787    2.1732 H   0  0  0  0  0  0  0  0  0 13  0  0
    0.9262    0.0953    3.3668 H   0  0  0  0  0  0  0  0  0 14  0  0
    3.0425    0.2529    2.0559 H   0  0  0  0  0  0  0  0  0 15  0  0
    2.9465    0.2288   -0.4137 H   0  0  0  0  0  0  0  0  0 16  0  0
    0.7839    0.0511   -1.5816 H   0  0  0  0  0  0  0  0  0 17  0  0
  1 10  1  0
  1  2  1  0
  2  3  1  0
  3 11  1  0
  3  4  1  0
  3 12  1  0
  4  5  1  0
  4  9  1  0
  5  6  1  0
  5 13  1  0
  6 14  1  0
  6  7  1  0
  7  8  1  0
  7 15  1  0
  8  9  1  0
  8 16  1  0
  9 17  1  0
M  RAD  2   1   3   2   3
M  END
>  <rmg_smiles>  (1) 
[CH][C]CC1[CH][CH][CH][CH][CH]1

>  <rmg_adjacency_list>  (1) 
1  C u0 p0 c0 {2,S} {8,S} {10,S} {11,S}
2  C u0 p0 c0 {1,S} {3,S} {4,S}
3  C u0 p0 c0 {2,S} {5,S} {12,S}
4  C u0 p0 c0 {2,S} {7,S} {16,S}
5  C u0 p0 c0 {3,S} {6,S} {13,S}
6  C u0 p0 c0 {5,S} {7,S} {14,S}
7  C u0 p0 c0 {4,S} {6,S} {15,S}
8  C u0 p1 c0 {1,S} {9,S}
9  C u0 p1 c0 {8,S} {17,S}
10 H u0 p0 c0 {1,S}
11 H u0 p0 c0 {1,S}
12 H u0 p0 c0 {3,S}
13 H u0 p0 c0 {5,S}
14 H u0 p0 c0 {6,S}
15 H u0 p0 c0 {7,S}
16 H u0 p0 c0 {4,S}
17 H u0 p0 c0 {9,S}


>  <multiplicity>  (1) 
1

>  <reaction>  (1) 
rxn_184

>  <type>  (1) 
r1h

>  <role_mapnums>  (1) 
{"r1h_a": 5, "r1h_h": 13}

>  <role_mapidx>  (1) 
{"r1h_a": 4, "r1h_h": 12}

>  <ordered_mapped_smiles>  (1) 
[C:1]([C:2][C:3]([CH:4]1[CH:5]([H:13])[CH:6]([H:14])[CH:7]([H:15])[CH:8]([H:16])[CH:9]1[H:17])([H:11])[H:12])[H:10]

>  <mol_properties>  (1) 
{"4": {"label": "donator", "atom_type": "Cs"}, "12": {"label": "d_hydrogen", "atom_type": "H0"}}

>  <level_of_theory>  (1) 
wb97xd/def2tzvp

>  <lot_method>  (1) 
wb97xd

>  <lot_basis>  (1) 
def2tzvp

>  <spin_multiplicity>  (1) 
1.0

>  <optical_isomers>  (1) 
1.0

>  <modes>  (1) 
IdealGasTranslation(mass=(116.063, 'amu')),         NonlinearRotor(             inertia = ([114.846, 480.43, 592.202

>  <frequency_value>  (1) 
unknown

>  <frequency_units>  (1) 
unknown

>  <frequency_list>  (1) 
unknown

>  <arkane_path>  (1) 
/home/calvin/Dropbox/PersonalFolders/Calvin/HAb_Converged/rxn_184/output/Species/rxn_184_CtCCc1ccccc1/arkane/output.py

>  <path_exists>  (1) 
True

>  <E0_value>  (1) 
-912535.4329581972

>  <E0_units>  (1) 
kJ/mol

>  <thermo_class>  (1) 
NASA

>  <Cp0_value>  (1) 
33.257888

>  <Cp0_units>  (1) 
J/(mol*K)

>  <CpInf_value>  (1) 
407.409128

>  <CpInf_units>  (1) 
J/(mol*K)

>  <Tmin_value>  (1) 
10.0

>  <Tmin_units>  (1) 
K

>  <Tmax_value>  (1) 
3000.0

>  <Tmax_units>  (1) 
K

>  <polynomials>  (1) 
[{"name": "polynomial1", "class": "NASAPolynomial", "Tmin_value": 10.0, "Tmin_units": "K", "Tmax_value": 513.2049011045431, "Tmax_units": "K", "coeffs": [3.8616474586764493, 0.008544923211512392, 0.00021856937111396478, -4.364849309691469e-07, 2.7017383001975934e-10, -109752656.38994652, 13.896325386895668]}, {"name": "polynomial2", "class": "NASAPolynomial", "Tmin_value": 513.2049011045431, "Tmin_units": "K", "Tmax_value": 3000.0, "Tmax_units": "K", "coeffs": [-0.46242496538174566, 0.07056427509964809, -4.546610660570836e-05, 1.401768269611691e-08, -1.6553141368732446e-12, -109752585.46646513, 28.239886221461187]}]

>  <H298_value>  (1) 
-218095.77780258417

>  <H298_units>  (1) 
kcal/mol

>  <S298_value>  (1) 
89.08673463869745

>  <S298_units>  (1) 
cal/(mol*K)

>  <Cp_T_value_list>  (1) 
[32.78827674379178, 42.192627933613295, 49.88226112302309, 56.28093215526416, 66.35227611430477, 73.52288886397905, 83.49228063393727, 88.3474932828314, 91.14949880053551]

>  <Cp_T_units>  (1) 
cal/(mol*K)

>  <T_list>  (1) 
[300.0, 400.0, 500.0, 600.0, 800.0, 1000.0, 1500.0, 2000.0, 2400.0]

>  <T_units>  (1) 
K

>  <yaml_path>  (1) 
/home/calvin/Dropbox/PersonalFolders/Calvin/HAb_Converged/rxn_184/output/Species/rxn_184_CtCCc1ccccc1/rxn_184_CtCCc1ccccc1.yml

>  <frequencies_cm1>  (1) 
[20.88250235812, 133.48732763547997, 192.14511623891997, 315.03668552564, 335.30802619028, 414.30582531156, 428.25267249647993, 471.71382258675993, 618.8321160824399, 632.2982742949599, 680.3877724909199, 698.29687020548, 711.9896389335598, 742.19750735624, 805.2432995791601, 864.71139245036, 902.0334576645599, 969.3093128446, 970.9230543947999, 984.2381389302799, 998.3291928069199, 1017.5567517029198, 1053.59469066228, 1105.12454850356, 1174.1583519255198, 1200.8777918056398, 1203.98166917028, 1235.39812700928, 1294.6739442915198, 1339.3505507834398, 1360.0407775526, 1451.6120267948, 1484.5941572867598, 1529.6003790740397, 1642.4249478816398, 1663.1357756067598, 2227.88351530888, 3016.74905489984, 3049.3054323019596, 3142.4080192705196, 3156.1213889545597, 3165.851907153, 3175.02619954052, 3183.1773111153598, 3438.1622100176]

>  <ZPE_kJmol>  (1) 
360.0804415521865

>  <E_elec_kJmol>  (1) 
-912895.5133997494

>  <E0_minus_Eelec_plus_ZPE_kJmol>  (1) 
0.0

>  <rxn>  (1) 
rxn_184

>  <species_type>  (1) 
r0

>  <species_folder>  (1) 
rxn_184_CtCCc1ccccc1

>  <frequencies_cm1_list>  (1) 
[20.88250235812, 133.48732763547997, 192.14511623891997, 315.03668552564, 335.30802619028, 414.30582531156, 428.25267249647993, 471.71382258675993, 618.8321160824399, 632.2982742949599, 680.3877724909199, 698.29687020548, 711.9896389335598, 742.19750735624, 805.2432995791601, 864.71139245036, 902.0334576645599, 969.3093128446, 970.9230543947999, 984.2381389302799, 998.3291928069199, 1017.5567517029198, 1053.59469066228, 1105.12454850356, 1174.1583519255198, 1200.8777918056398, 1203.98166917028, 1235.39812700928, 1294.6739442915198, 1339.3505507834398, 1360.0407775526, 1451.6120267948, 1484.5941572867598, 1529.6003790740397, 1642.4249478816398, 1663.1357756067598, 2227.88351530888, 3016.74905489984, 3049.3054323019596, 3142.4080192705196, 3156.1213889545597, 3165.851907153, 3175.02619954052, 3183.1773111153598, 3438.1622100176]

>  <E0_kJmol>  (1) 
-912535

>  <H298_kJmol>  (1) 
-912513

$$$$

     RDKit          3D

  2  1  0  0  0  0  0  0  0  0999 V2000
    0.2570    0.0191   -0.1650 H   0  0  0  0  0  0  0  0  0  1  0  0
   -0.3645   -0.0271    0.2341 H   0  0  0  0  0  0  0  0  0  2  0  0
  1  2  1  0
M  END
>  <rmg_smiles>  (2) 
[H][H]

>  <rmg_adjacency_list>  (2) 
1 H u0 p0 c0 {2,S}
2 H u0 p0 c0 {1,S}


>  <multiplicity>  (2) 
1

>  <reaction>  (2) 
rxn_184

>  <type>  (2) 
r2h

>  <role_mapnums>  (2) 
{"r2h_a": 2, "r2h_h": 1}

>  <role_mapidx>  (2) 
{"r2h_a": 1, "r2h_h": 0}

>  <ordered_mapped_smiles>  (2) 
[H:1][H:2]

>  <mol_properties>  (2) 
{"0": {"label": "a_hydrogen", "atom_type": "H0"}, "1": {"label": "acceptor", "atom_type": "H0"}}

>  <level_of_theory>  (2) 
wb97xd/def2tzvp

>  <lot_method>  (2) 
wb97xd

>  <lot_basis>  (2) 
def2tzvp

>  <spin_multiplicity>  (2) 
1.0

>  <optical_isomers>  (2) 
1.0

>  <modes>  (2) 
IdealGasTranslation(mass=(2.01565, 'amu')),         LinearRotor(inertia=(0.279051, 'amu*angstrom^2'), symmetry=2),         HarmonicOscillator(frequencies=([4384.98

>  <frequency_value>  (2) 
unknown

>  <frequency_units>  (2) 
unknown

>  <frequency_list>  (2) 
unknown

>  <arkane_path>  (2) 
/home/calvin/Dropbox/PersonalFolders/Calvin/HAb_Converged/rxn_184/output/Species/rxn_184_[H][H]/arkane/output.py

>  <path_exists>  (2) 
True

>  <E0_value>  (2) 
-3062.16965545063

>  <E0_units>  (2) 
kJ/mol

>  <thermo_class>  (2) 
NASA

>  <Cp0_value>  (2) 
29.100652

>  <Cp0_units>  (2) 
J/(mol*K)

>  <CpInf_value>  (2) 
37.415124

>  <CpInf_units>  (2) 
J/(mol*K)

>  <Tmin_value>  (2) 
10.0

>  <Tmin_units>  (2) 
K

>  <Tmax_value>  (2) 
3000.0

>  <Tmax_units>  (2) 
K

>  <polynomials>  (2) 
[{"name": "polynomial1", "class": "NASAPolynomial", "Tmin_value": 10.0, "Tmin_units": "K", "Tmax_value": 609.8839760798177, "Tmax_units": "K", "coeffs": [3.498630427760662, 8.118128927195725e-05, -2.559636751505851e-07, 1.12469612407288e-11, 3.0815171130046294e-13, -368293.8823611774, -4.277290681887199]}, {"name": "polynomial2", "class": "NASAPolynomial", "Tmin_value": 609.8839760798177, "Tmin_units": "K", "Tmax_value": 3000.0, "Tmax_units": "K", "coeffs": [3.686867766797846, -0.0007828622299568348, 9.578139376048542e-07, -3.193665739780837e-10, 3.533006631714403e-14, -368323.7341208647, -5.148841965058497]}]

>  <H298_value>  (2) 
-729.8011438890577

>  <H298_units>  (2) 
kcal/mol

>  <S298_value>  (2) 
31.136082854374543

>  <S298_units>  (2) 
cal/(mol*K)

>  <Cp_T_value_list>  (2) 
[6.960683160805141, 6.952753142081975, 6.947066275630451, 6.950370161364484, 7.003977696739648, 7.10979357060473, 7.489089863592967, 7.874797646413975, 8.112273708870758]

>  <Cp_T_units>  (2) 
cal/(mol*K)

>  <T_list>  (2) 
[300.0, 400.0, 500.0, 600.0, 800.0, 1000.0, 1500.0, 2000.0, 2400.0]

>  <T_units>  (2) 
K

>  <yaml_path>  (2) 
/home/calvin/Dropbox/PersonalFolders/Calvin/HAb_Converged/rxn_184/output/Species/rxn_184_[H][H]/rxn_184_HH.yml

>  <frequencies_cm1>  (2) 
[4384.97527895388]

>  <ZPE_kJmol>  (2) 
26.22798418526521

>  <E_elec_kJmol>  (2) 
-3088.3976396358958

>  <E0_minus_Eelec_plus_ZPE_kJmol>  (2) 
0.0

>  <rxn>  (2) 
rxn_184

>  <species_type>  (2) 
p0

>  <species_folder>  (2) 
rxn_184_[H][H]

>  <frequencies_cm1_list>  (2) 
[4384.97527895388]

>  <E0_kJmol>  (2) 
-3062.17

>  <H298_kJmol>  (2) 
-3053.49

$$$$

     RDKit          3D

 18 17  0  0  0  0  0  0  0  0999 V2000
   -1.7008   -0.1578   -3.1228 C   0  0  0  0  0  0  0  0  0  1  0  0
   -1.7011   -0.1498   -1.9258 C   0  0  0  0  0  0  0  0  0  2  0  0
   -1.7101   -0.1408   -0.4692 C   0  0  0  0  0  0  0  0  0  3  0  0
   -0.3459   -0.0292    0.1846 C   0  0  0  0  0  0  0  0  0  4  0  0
   -0.2386   -0.0116    1.5597 C   0  0  0  0  0  0  0  0  0  5  0  0
    0.9399    0.0857    2.2527 C   0  0  0  0  0  0  0  0  0  6  0  0
    2.1184    0.1734    1.5163 C   0  0  0  0  0  0  0  0  0  7  0  0
    2.0616    0.1597    0.1321 C   0  0  0  0  0  0  0  0  0  8  0  0
    0.8443    0.0596   -0.5300 C   0  0  0  0  0  0  0  0  0  9  0  0
   -1.7071   -0.1653   -4.1862 H   0  0  0  0  0  0  0  0  0 10  0  0
   -2.3356    0.6880   -0.1265 H   0  0  0  0  0  0  0  0  0 11  0  0
   -2.1988   -1.0524   -0.1149 H   0  0  0  0  0  0  0  0  0 12  0  0
   -1.4581   -0.1023    2.3326 H   0  0  0  0  0  0  0  0  0 13  0  0
    0.9549    0.0941    3.3356 H   0  0  0  0  0  0  0  0  0 14  0  0
    3.0712    0.2517    2.0248 H   0  0  0  0  0  0  0  0  0 15  0  0
    2.9752    0.2276   -0.4448 H   0  0  0  0  0  0  0  0  0 16  0  0
    0.8125    0.0499   -1.6127 H   0  0  0  0  0  0  0  0  0 17  0  0
   -2.1871   -0.1564    2.8008 H   0  0  0  0  0 15  0  0  0 18  0  0
  1 10  1  0
  1  2  1  0
  2  3  1  0
  3 11  1  0
  3  4  1  0
  3 12  1  0
  4  5  1  0
  4  9  1  0
  5  6  1  0
  5 13  1  0
  6 14  1  0
  6  7  1  0
  7  8  1  0
  7 15  1  0
  8  9  1  0
  8 16  1  0
  9 17  1  0
M  END
>  <rmg_smiles>  (3) 
[CH]CCC1[CH][CH][CH][CH][CH]1.[H]

>  <rmg_adjacency_list>  (3) 
multiplicity 2
1  C u0 p0 c0 {2,S} {8,S} {10,S} {11,S}
2  C u0 p0 c0 {1,S} {3,S} {4,S}
3  C u0 p0 c0 {2,S} {5,S} {12,S}
4  C u0 p0 c0 {2,S} {7,S} {16,S}
5  C u0 p0 c0 {3,S} {6,S} {13,S}
6  C u0 p0 c0 {5,S} {7,S} {14,S}
7  C u0 p0 c0 {4,S} {6,S} {15,S}
8  C u0 p1 c0 {1,S} {9,S}
9  C u0 p1 c0 {8,S} {17,S}
10 H u0 p0 c0 {1,S}
11 H u0 p0 c0 {1,S}
12 H u0 p0 c0 {3,S}
13 H u0 p0 c0 {5,S}
14 H u0 p0 c0 {6,S}
15 H u0 p0 c0 {7,S}
16 H u0 p0 c0 {4,S}
17 H u0 p0 c0 {9,S}
18 H u1 p0 c0


>  <multiplicity>  (3) 
2

>  <reaction>  (3) 
rxn_184

>  <type>  (3) 
ts

>  <role_mapnums>  (3) 
{"*2": 13, "*1": 5, "*3": 18, "*0": null, "*4": 4}

>  <role_mapidx>  (3) 
{"*2": 12, "*1": 4, "*3": 17, "*4": 3}

>  <ordered_mapped_smiles>  (3) 
[CH2:1]([CH2:2][C:3]([CH:4]1[CH:5]([H:13])[CH:6]([H:14])[CH:7]([H:15])[CH:8]([H:16])[CH:9]1[H:17])([H:11])[H:12])[H:10].[H:18]

>  <mol_properties>  (3) 
{"3": {"label": "*4", "atom_type": "Cs"}, "4": {"label": "*1", "atom_type": "Cs"}, "12": {"label": "*2", "atom_type": "H0"}, "17": {"label": "*3", "atom_type": "H0"}}

>  <level_of_theory>  (3) 
wb97xd/def2tzvp

>  <lot_method>  (3) 
wb97xd

>  <lot_basis>  (3) 
def2tzvp

>  <spin_multiplicity>  (3) 
2.0

>  <optical_isomers>  (3) 
1.0

>  <modes>  (3) 
IdealGasTranslation(mass=(117.07, 'amu')),         NonlinearRotor(             inertia = ([127.726, 483.219, 607.872

>  <frequency_value>  (3) 
-1057.08

>  <frequency_units>  (3) 
cm^-1

>  <frequency_list>  (3) 
unknown

>  <arkane_path>  (3) 
/home/calvin/Dropbox/PersonalFolders/Calvin/HAb_Converged/rxn_184/output/rxns/TS0/arkane/output.py

>  <path_exists>  (3) 
True

>  <E0_value>  (3) 
-913797.0

>  <E0_units>  (3) 
kJ/mol

>  <thermo_class>  (3) 
unknown

>  <Cp0_value>  (3) 
unknown

>  <Cp0_units>  (3) 
unknown

>  <CpInf_value>  (3) 
unknown

>  <CpInf_units>  (3) 
unknown

>  <Tmin_value>  (3) 
unknown

>  <Tmin_units>  (3) 
unknown

>  <Tmax_value>  (3) 
unknown

>  <Tmax_units>  (3) 
unknown

>  <polynomials>  (3) 
unknown

>  <H298_value>  (3) 
unknown

>  <H298_units>  (3) 
unknown

>  <S298_value>  (3) 
unknown

>  <S298_units>  (3) 
unknown

>  <Cp_T_value_list>  (3) 
unknown

>  <Cp_T_units>  (3) 
unknown

>  <T_list>  (3) 
unknown

>  <T_units>  (3) 
unknown

>  <yaml_path>  (3) 
unknown

>  <frequencies_cm1>  (3) 
unknown

>  <ZPE_kJmol>  (3) 
unknown

>  <E_elec_kJmol>  (3) 
unknown

>  <E0_minus_Eelec_plus_ZPE_kJmol>  (3) 
unknown

>  <rxn>  (3) 
unknown

>  <species_type>  (3) 
unknown

>  <species_folder>  (3) 
unknown

>  <frequencies_cm1_list>  (3) 
[]

>  <ts_imag_freq_cm1>  (3) 
-1069.9154

>  <ts_freq_out_path>  (3) 
/home/calvin/Dropbox/PersonalFolders/Calvin/HAb_Converged/rxn_184/output/rxns/TS0/geometry/freq.out

>  <E0_kJmol>  (3) 
-913797

>  <H298_kJmol>  (3) 
unknown

$$$$

     RDKit          3D

 16 16  0  0  0  0  0  0  0  0999 V2000
    2.8538    0.5495   -2.0139 C   0  0  0  0  0  0  0  0  0  1  0  0
    1.6690    0.6398   -1.8690 C   0  0  0  0  0  0  0  0  0  2  0  0
    0.2260    0.7534   -1.7006 C   0  0  0  0  0  0  0  0  0  3  0  0
   -0.3119    0.2196   -0.3871 C   0  0  0  0  0  0  0  0  0  4  0  0
   -1.6551    0.2665   -0.1025 C   0  0  0  0  0  3  0  0  0  5  0  0
   -2.2657   -0.1766    1.0349 C   0  0  0  0  0  0  0  0  0  6  0  0
   -1.4380   -0.7354    2.0101 C   0  0  0  0  0  0  0  0  0  7  0  0
   -0.0726   -0.8139    1.7878 C   0  0  0  0  0  0  0  0  0  8  0  0
    0.4874   -0.3438    0.6062 C   0  0  0  0  0  0  0  0  0  9  0  0
    3.9059    0.4721   -2.1485 H   0  0  0  0  0  0  0  0  0 10  0  0
   -0.0579    1.8045   -1.7983 H   0  0  0  0  0  0  0  0  0 11  0  0
   -0.2666    0.2294   -2.5238 H   0  0  0  0  0  0  0  0  0 12  0  0
   -3.3359   -0.1029    1.1827 H   0  0  0  0  0  0  0  0  0 13  0  0
   -1.8658   -1.1044    2.9342 H   0  0  0  0  0  0  0  0  0 14  0  0
    0.5706   -1.2470    2.5431 H   0  0  0  0  0  0  0  0  0 15  0  0
    1.5567   -0.4110    0.4446 H   0  0  0  0  0  0  0  0  0 16  0  0
  1 10  1  0
  1  2  1  0
  2  3  1  0
  3 11  1  0
  3  4  1  0
  3 12  1  0
  4  5  1  0
  4  9  1  0
  5  6  1  0
  6 13  1  0
  6  7  1  0
  7 14  1  0
  7  8  1  0
  8  9  1  0
  8 15  1  0
  9 16  1  0
M  RAD  1   5   2
M  END
>  <rmg_smiles>  (4) 
[CH]CCC1[C][CH][CH][CH][CH]1

>  <rmg_adjacency_list>  (4) 
multiplicity 2
1  C u0 p0 c0 {2,S} {8,S} {10,S} {11,S}
2  C u0 p0 c0 {1,S} {3,S} {7,S}
3  C u0 p0 c0 {2,S} {4,S} {14,S}
4  C u0 p0 c0 {3,S} {5,S} {13,S}
5  C u0 p0 c0 {4,S} {6,S} {12,S}
6  C u0 p0 c0 {5,S} {7,S} {15,S}
7  C u1 p1 c0 {2,S} {6,S}
8  C u0 p1 c0 {1,S} {9,S}
9  C u0 p1 c0 {8,S} {16,S}
10 H u0 p0 c0 {1,S}
11 H u0 p0 c0 {1,S}
12 H u0 p0 c0 {5,S}
13 H u0 p0 c0 {4,S}
14 H u0 p0 c0 {3,S}
15 H u0 p0 c0 {6,S}
16 H u0 p0 c0 {9,S}


>  <multiplicity>  (4) 
2

>  <reaction>  (4) 
rxn_184

>  <type>  (4) 
r1

>  <role_mapnums>  (4) 
{}

>  <role_mapidx>  (4) 
{}

>  <ordered_mapped_smiles>  (4) 
[CH2:1]([CH2:2][C:3]([CH:4]1[CH:5][CH:6]([H:13])[CH:7]([H:14])[CH:8]([H:15])[CH:9]1[H:16])([H:11])[H:12])[H:10]

>  <level_of_theory>  (4) 
wb97xd/def2tzvp

>  <lot_method>  (4) 
wb97xd

>  <lot_basis>  (4) 
def2tzvp

>  <spin_multiplicity>  (4) 
2.0

>  <optical_isomers>  (4) 
1.0

>  <modes>  (4) 
IdealGasTranslation(mass=(115.055, 'amu')),         NonlinearRotor(             inertia = ([107.648, 483.145, 587.718

>  <frequency_value>  (4) 
unknown

>  <frequency_units>  (4) 
unknown

>  <frequency_list>  (4) 
unknown

>  <arkane_path>  (4) 
/home/calvin/Dropbox/PersonalFolders/Calvin/HAb_Converged/rxn_184/output/Species/rxn_184_CtCCc1[c]cccc1/arkane/output.py

>  <path_exists>  (4) 
True

>  <E0_value>  (4) 
-910755.4677841166

>  <E0_units>  (4) 
kJ/mol

>  <thermo_class>  (4) 
NASA

>  <Cp0_value>  (4) 
33.257888

>  <Cp0_units>  (4) 
J/(mol*K)

>  <CpInf_value>  (4) 
382.465712

>  <CpInf_units>  (4) 
J/(mol*K)

>  <Tmin_value>  (4) 
10.0

>  <Tmin_units>  (4) 
K

>  <Tmax_value>  (4) 
3000.0

>  <Tmax_units>  (4) 
K

>  <polynomials>  (4) 
[{"name": "polynomial1", "class": "NASAPolynomial", "Tmin_value": 10.0, "Tmin_units": "K", "Tmax_value": 504.29576807719667, "Tmax_units": "K", "coeffs": [3.849077900666908, 0.009476811080042436, 0.00021509238540586492, -4.4753022594523494e-07, 2.863469035147166e-10, -109538576.1049301, 14.41950581078937]}, {"name": "polynomial2", "class": "NASAPolynomial", "Tmin_value": 504.29576807719667, "Tmin_units": "K", "Tmax_value": 3000.0, "Tmax_units": "K", "coeffs": [0.6220632985478693, 0.0655983080230346, -4.2633714882704584e-05, 1.320719515366444e-08, -1.5631287665381755e-12, -109538638.78174794, 23.930352643793253]}]

>  <H298_value>  (4) 
-217670.3704038916

>  <H298_units>  (4) 
kcal/mol

>  <S298_value>  (4) 
90.09890046104958

>  <S298_units>  (4) 
cal/(mol*K)

>  <Cp_T_value_list>  (4) 
[32.36469775579103, 41.22088331696667, 48.32087953183683, 54.21712073764034, 63.46533168698698, 70.01072143321518, 79.00062164083496, 83.32619324471439, 85.85369911642825]

>  <Cp_T_units>  (4) 
cal/(mol*K)

>  <T_list>  (4) 
[300.0, 400.0, 500.0, 600.0, 800.0, 1000.0, 1500.0, 2000.0, 2400.0]

>  <T_units>  (4) 
K

>  <yaml_path>  (4) 
/home/calvin/Dropbox/PersonalFolders/Calvin/HAb_Converged/rxn_184/output/Species/rxn_184_CtCCc1[c]cccc1/rxn_184_CtCCc1ccccc1.yml

>  <frequencies_cm1>  (4) 
[24.247325164920003, 131.00834593495998, 188.49188004867997, 308.04609446987996, 334.88227310044, 418.28867679716, 425.69128697211994, 480.79884416512, 606.3067348587599, 627.39524677648, 680.33970359368, 687.1792209724, 699.83507491716, 746.0704870767199, 798.96687499668, 856.4504091104, 924.4678987049999, 967.51702967608, 968.29986600256, 989.4021118909199, 991.6338821199199, 1045.57405180852, 1119.91603488284, 1168.0810699173198, 1193.93526964712, 1232.6650668519198, 1265.9630786685998, 1306.1143418346398, 1333.9943022338398, 1447.69097817708, 1452.7176114313202, 1475.5572046056398, 1591.72599526408, 1648.70137246412, 2228.0071210446395, 3025.7516726543595, 3058.7269361609997, 3152.8458369569203, 3160.186644264, 3169.09999120936, 3181.39876191748, 3437.3038368526]

>  <ZPE_kJmol>  (4) 
326.28918634593424

>  <E_elec_kJmol>  (4) 
-911081.7569704624

>  <E0_minus_Eelec_plus_ZPE_kJmol>  (4) 
0.0

>  <rxn>  (4) 
rxn_184

>  <species_type>  (4) 
p1

>  <species_folder>  (4) 
rxn_184_CtCCc1[c]cccc1

>  <frequencies_cm1_list>  (4) 
[24.247325164920003, 131.00834593495998, 188.49188004867997, 308.04609446987996, 334.88227310044, 418.28867679716, 425.69128697211994, 480.79884416512, 606.3067348587599, 627.39524677648, 680.33970359368, 687.1792209724, 699.83507491716, 746.0704870767199, 798.96687499668, 856.4504091104, 924.4678987049999, 967.51702967608, 968.29986600256, 989.4021118909199, 991.6338821199199, 1045.57405180852, 1119.91603488284, 1168.0810699173198, 1193.93526964712, 1232.6650668519198, 1265.9630786685998, 1306.1143418346398, 1333.9943022338398, 1447.69097817708, 1452.7176114313202, 1475.5572046056398, 1591.72599526408, 1648.70137246412, 2228.0071210446395, 3025.7516726543595, 3058.7269361609997, 3152.8458369569203, 3160.186644264, 3169.09999120936, 3181.39876191748, 3437.3038368526]

>  <E0_kJmol>  (4) 
-910755

>  <H298_kJmol>  (4) 
-910733

$$$$

     RDKit          3D

  1  0  0  0  0  0  0  0  0  0999 V2000
    0.0000    0.0000    0.0000 H   0  0  0  0  0 15  0  0  0  1  0  0
M  END
>  <rmg_smiles>  (5) 
[H]

>  <rmg_adjacency_list>  (5) 
multiplicity 2
1 H u1 p0 c0


>  <multiplicity>  (5) 
2

>  <reaction>  (5) 
rxn_184

>  <type>  (5) 
r2

>  <role_mapnums>  (5) 
{}

>  <role_mapidx>  (5) 
{}

>  <ordered_mapped_smiles>  (5) 
[H:1]

>  <level_of_theory>  (5) 
wb97xd/def2tzvp

>  <lot_method>  (5) 
wb97xd

>  <lot_basis>  (5) 
def2tzvp

>  <spin_multiplicity>  (5) 
2.0

>  <optical_isomers>  (5) 
1.0

>  <modes>  (5) 
IdealGasTranslation(mass=(1.00797, 'amu')),

>  <frequency_value>  (5) 
unknown

>  <frequency_units>  (5) 
unknown

>  <frequency_list>  (5) 
unknown

>  <arkane_path>  (5) 
/home/calvin/Dropbox/PersonalFolders/Calvin/HAb_Converged/rxn_184/output/Species/rxn_184_[H]/arkane/output.py

>  <path_exists>  (5) 
True

>  <E0_value>  (5) 
-1319.7535890175566

>  <E0_units>  (5) 
kJ/mol

>  <thermo_class>  (5) 
NASA

>  <Cp0_value>  (5) 
20.78618

>  <Cp0_units>  (5) 
J/(mol*K)

>  <CpInf_value>  (5) 
20.78618

>  <CpInf_units>  (5) 
J/(mol*K)

>  <Tmin_value>  (5) 
10.0

>  <Tmin_units>  (5) 
K

>  <Tmax_value>  (5) 
3000.0

>  <Tmax_units>  (5) 
K

>  <polynomials>  (5) 
[{"name": "polynomial1", "class": "NASAPolynomial", "Tmin_value": 10.0, "Tmin_units": "K", "Tmax_value": 1853.5663026740365, "Tmax_units": "K", "coeffs": [2.500000000000126, -2.814048095438137e-15, 9.047587538332909e-18, -8.591944598242694e-21, 2.4182720553650057e-24, -158729.69562032758, -0.461069367474324]}, {"name": "polynomial2", "class": "NASAPolynomial", "Tmin_value": 1853.5663026740365, "Tmin_units": "K", "Tmax_value": 3000.0, "Tmax_units": "K", "coeffs": [2.500000000696122, -1.3129776766613561e-12, 9.140875080033424e-16, -2.782806647322001e-19, 3.1263265306749967e-23, -158729.69562061856, -0.4610693713504795]}]

>  <H298_value>  (5) 
-313.9482141882736

>  <H298_units>  (5) 
kcal/mol

>  <S298_value>  (5) 
27.387012987908147

>  <S298_units>  (5) 
cal/(mol*K)

>  <Cp_T_value_list>  (5) 
[4.968016252389826, 4.968016252389978, 4.968016252390173, 4.96801625239036, 4.968016252390567, 4.968016252390427, 4.968016252389077, 4.968016252391019, 4.968016252390868]

>  <Cp_T_units>  (5) 
cal/(mol*K)

>  <T_list>  (5) 
[300.0, 400.0, 500.0, 600.0, 800.0, 1000.0, 1500.0, 2000.0, 2400.0]

>  <T_units>  (5) 
K

>  <yaml_path>  (5) 
/home/calvin/Dropbox/PersonalFolders/Calvin/HAb_Converged/rxn_184/output/Species/rxn_184_[H]/rxn_184_H.yml

>  <frequencies_cm1>  (5) 
[]

>  <ZPE_kJmol>  (5) 
unknown

>  <E_elec_kJmol>  (5) 
unknown

>  <E0_minus_Eelec_plus_ZPE_kJmol>  (5) 
unknown

>  <rxn>  (5) 
rxn_184

>  <species_type>  (5) 
r1

>  <species_folder>  (5) 
rxn_184_[H]

>  <frequencies_cm1_list>  (5) 
[]

>  <E0_kJmol>  (5) 
-1319.75

>  <H298_kJmol>  (5) 
-1313.56

$$$$
