
     RDKit          3D

 12 11  0  0  0  0  0  0  0  0999 V2000
    0.4719    1.3147   -2.0003 C   0  0  0  0  0  2  0  0  0  1  0  0
    0.3283    0.7865   -0.9320 C   0  0  0  0  0  2  0  0  0  2  0  0
    0.2228    0.1901    0.3695 C   0  0  0  0  0  0  0  0  0  3  0  0
   -0.4054    1.0622    1.4459 C   0  0  0  0  0  0  0  0  0  4  0  0
   -0.1587   -1.1926    0.3844 C   0  0  0  0  0  2  0  0  0  5  0  0
   -0.4342   -2.3599    0.4425 C   0  0  0  0  0  2  0  0  0  6  0  0
    0.5821    1.7771   -2.9514 H   0  0  0  0  0  0  0  0  0  7  0  0
    1.2589    0.1605    0.7068 H   0  0  0  0  0  0  0  0  0  8  0  0
   -1.4665    1.2216    1.2457 H   0  0  0  0  0  0  0  0  0  9  0  0
    0.0943    2.0307    1.4738 H   0  0  0  0  0  0  0  0  0 10  0  0
   -0.3045    0.5775    2.4171 H   0  0  0  0  0  0  0  0  0 11  0  0
   -0.6929   -3.3904    0.4853 H   0  0  0  0  0  0  0  0  0 12  0  0
  1  7  1  0
  1  2  1  0
  2  3  1  0
  3  4  1  0
  3  5  1  0
  3  8  1  0
  4  9  1  0
  4 10  1  0
  4 11  1  0
  5  6  1  0
  6 12  1  0
M  RAD  4   1   3   2   3   5   3   6   3
M  END
>  <rmg_smiles>  (1) 
[CH][C]C(C)[C][CH]

>  <rmg_adjacency_list>  (1) 
1  C u0 p0 c0 {2,S} {3,S} {4,S} {7,S}
2  C u0 p0 c0 {1,S} {8,S} {9,S} {10,S}
3  C u0 p1 c0 {1,S} {5,S}
4  C u0 p1 c0 {1,S} {6,S}
5  C u0 p1 c0 {3,S} {11,S}
6  C u0 p1 c0 {4,S} {12,S}
7  H u0 p0 c0 {1,S}
8  H u0 p0 c0 {2,S}
9  H u0 p0 c0 {2,S}
10 H u0 p0 c0 {2,S}
11 H u0 p0 c0 {5,S}
12 H u0 p0 c0 {6,S}


>  <multiplicity>  (1) 
1

>  <reaction>  (1) 
rxn_1425

>  <type>  (1) 
r1h

>  <role_mapnums>  (1) 
{"r1h_a": 3, "r1h_h": 8}

>  <role_mapidx>  (1) 
{"r1h_a": 2, "r1h_h": 7}

>  <ordered_mapped_smiles>  (1) 
[C:1]([C:2][C:3]([C:4]([H:9])([H:10])[H:11])([C:5][C:6][H:12])[H:8])[H:7]

>  <mol_properties>  (1) 
{"2": {"label": "donator", "atom_type": "Cs"}, "7": {"label": "d_hydrogen", "atom_type": "H0"}}

>  <level_of_theory>  (1) 
wb97xd/def2tzvp

>  <lot_method>  (1) 
wb97xd

>  <lot_basis>  (1) 
def2tzvp

>  <spin_multiplicity>  (1) 
1.0

>  <optical_isomers>  (1) 
1.0

>  <modes>  (1) 
IdealGasTranslation(mass=(78.0469, 'amu')),         NonlinearRotor(             inertia = ([91.5038, 182.303, 256.884

>  <frequency_value>  (1) 
unknown

>  <frequency_units>  (1) 
unknown

>  <frequency_list>  (1) 
unknown

>  <arkane_path>  (1) 
/home/calvin/Dropbox/PersonalFolders/Calvin/HAb_Converged/rxn_1425/output/Species/rxn_1425_CtCC[C]CtC/arkane/output.py

>  <path_exists>  (1) 
True

>  <E0_value>  (1) 
-609140.5146388354

>  <E0_units>  (1) 
kJ/mol

>  <thermo_class>  (1) 
NASA

>  <Cp0_value>  (1) 
33.257888

>  <Cp0_units>  (1) 
J/(mol*K)

>  <CpInf_value>  (1) 
282.692048

>  <CpInf_units>  (1) 
J/(mol*K)

>  <Tmin_value>  (1) 
10.0

>  <Tmin_units>  (1) 
K

>  <Tmax_value>  (1) 
3000.0

>  <Tmax_units>  (1) 
K

>  <polynomials>  (1) 
[{"name": "polynomial1", "class": "NASAPolynomial", "Tmin_value": 10.0, "Tmin_units": "K", "Tmax_value": 428.30381772817856, "Tmax_units": "K", "coeffs": [3.843414737485958, 0.011059899510253308, 0.00017313206294384585, -4.5066861494576427e-07, 3.5431673194866504e-10, -73262680.70719364, 10.351537126465276]}, {"name": "polynomial2", "class": "NASAPolynomial", "Tmin_value": 428.30381772817856, "Tmin_units": "K", "Tmax_value": 3000.0, "Tmax_units": "K", "coeffs": [3.71225639608142, 0.03988512935119699, -2.4480757543004908e-05, 7.3774227474566334e-09, -8.647202101499329e-13, -73262922.62795044, 7.917757545343436]}]

>  <H298_value>  (1) 
-145583.22326588043

>  <H298_units>  (1) 
kcal/mol

>  <S298_value>  (1) 
79.39725011907349

>  <S298_units>  (1) 
cal/(mol*K)

>  <Cp_T_value_list>  (1) 
[26.71835542334415, 32.185236842440695, 36.57009328220792, 40.36357580076537, 46.452394866783735, 50.93077266482023, 57.588055372365, 61.09337215118473, 63.041253155202796]

>  <Cp_T_units>  (1) 
cal/(mol*K)

>  <T_list>  (1) 
[300.0, 400.0, 500.0, 600.0, 800.0, 1000.0, 1500.0, 2000.0, 2400.0]

>  <T_units>  (1) 
K

>  <yaml_path>  (1) 
/home/calvin/Dropbox/PersonalFolders/Calvin/HAb_Converged/rxn_1425/output/Species/rxn_1425_CtCC[C]CtC/rxn_1425_CtCCCCtC.yml

>  <frequencies_cm1>  (1) 
[133.58346542996, 199.16317523595998, 209.69026373152, 240.0698067872, 354.65919082204, 475.7310089989599, 567.46019890352, 568.12629647956, 689.5414639224799, 690.09082274808, 696.1063018883999, 699.3337849888, 789.86125246236, 930.3735060801998, 1032.6572524215999, 1082.42916202096, 1134.52211265848, 1298.31344651112, 1322.5745056466799, 1399.4092043921598, 1478.5306092491999, 1484.3400788299198, 2226.8946694228, 2231.41314576336, 3015.0597765111197, 3031.95942738364, 3117.4327936616796, 3119.7813026411195, 3437.7021220011598, 3438.6085640633996]

>  <ZPE_kJmol>  (1) 
245.805260802598

>  <E_elec_kJmol>  (1) 
-609386.3198996381

>  <E0_minus_Eelec_plus_ZPE_kJmol>  (1) 
0.0

>  <rxn>  (1) 
rxn_1425

>  <species_type>  (1) 
r1

>  <species_folder>  (1) 
rxn_1425_CtCC[C]CtC

>  <frequencies_cm1_list>  (1) 
[133.58346542996, 199.16317523595998, 209.69026373152, 240.0698067872, 354.65919082204, 475.7310089989599, 567.46019890352, 568.12629647956, 689.5414639224799, 690.09082274808, 696.1063018883999, 699.3337849888, 789.86125246236, 930.3735060801998, 1032.6572524215999, 1082.42916202096, 1134.52211265848, 1298.31344651112, 1322.5745056466799, 1399.4092043921598, 1478.5306092491999, 1484.3400788299198, 2226.8946694228, 2231.41314576336, 3015.0597765111197, 3031.95942738364, 3117.4327936616796, 3119.7813026411195, 3437.7021220011598, 3438.6085640633996]

>  <E0_kJmol>  (1) 
-609141

>  <H298_kJmol>  (1) 
-609120

$$$$

     RDKit          3D

 11 10  0  0  0  0  0  0  0  0999 V2000
    0.3326   -1.0238   -1.4924 C   0  0  0  0  0  0  0  0  0  1  0  0
   -0.2374   -0.1308   -0.4117 C   0  0  0  0  0  0  0  0  0  2  0  0
    0.1628    1.2351   -0.4226 C   0  0  0  0  0  2  0  0  0  3  0  0
    0.4335    2.4060   -0.4500 C   0  0  0  0  0  2  0  0  0  4  0  0
   -0.2593   -0.9267    1.1895 S   0  0  0  0  0  0  0  0  0  5  0  0
    1.4063   -1.1696   -1.3568 H   0  0  0  0  0  0  0  0  0  6  0  0
   -0.1623   -1.9960   -1.4756 H   0  0  0  0  0  0  0  0  0  7  0  0
    0.1607   -0.5669   -2.4671 H   0  0  0  0  0  0  0  0  0  8  0  0
    0.6897    3.4377   -0.4779 H   0  0  0  0  0  0  0  0  0  9  0  0
   -0.5644    0.1644    1.9029 H   0  0  0  0  0  0  0  0  0 10  0  0
   -1.2813   -0.0888   -0.7224 H   0  0  0  0  0  0  0  0  0 11  0  0
  1  8  1  0
  1  7  1  0
  1  6  1  0
  1  2  1  0
  2 11  1  0
  2  5  1  0
  2  3  1  0
  3  4  1  0
  4  9  1  0
  5 10  1  0
M  RAD  2   3   3   4   3
M  END
>  <rmg_smiles>  (2) 
[CH][C]C(S)C

>  <rmg_adjacency_list>  (2) 
1  S u0 p2 c0 {2,S} {10,S}
2  C u0 p0 c0 {1,S} {3,S} {4,S} {6,S}
3  C u0 p0 c0 {2,S} {7,S} {8,S} {9,S}
4  C u0 p1 c0 {2,S} {5,S}
5  C u0 p1 c0 {4,S} {11,S}
6  H u0 p0 c0 {2,S}
7  H u0 p0 c0 {3,S}
8  H u0 p0 c0 {3,S}
9  H u0 p0 c0 {3,S}
10 H u0 p0 c0 {1,S}
11 H u0 p0 c0 {5,S}


>  <multiplicity>  (2) 
1

>  <reaction>  (2) 
rxn_1425

>  <type>  (2) 
r2h

>  <role_mapnums>  (2) 
{"r2h_a": 2, "r2h_h": 11}

>  <role_mapidx>  (2) 
{"r2h_a": 1, "r2h_h": 10}

>  <ordered_mapped_smiles>  (2) 
[C:1]([C:2]([C:3][C:4][H:9])([S:5][H:10])[H:11])([H:6])([H:7])[H:8]

>  <mol_properties>  (2) 
{"1": {"label": "acceptor", "atom_type": "Cs"}, "10": {"label": "a_hydrogen", "atom_type": "H0"}}

>  <level_of_theory>  (2) 
wb97xd/def2tzvp

>  <lot_method>  (2) 
wb97xd

>  <lot_basis>  (2) 
def2tzvp

>  <spin_multiplicity>  (2) 
1.0

>  <optical_isomers>  (2) 
2.0

>  <modes>  (2) 
IdealGasTranslation(mass=(86.019, 'amu')),         NonlinearRotor(             inertia = ([87.6457, 170.909, 240.546

>  <frequency_value>  (2) 
unknown

>  <frequency_units>  (2) 
unknown

>  <frequency_list>  (2) 
unknown

>  <arkane_path>  (2) 
/home/calvin/Dropbox/PersonalFolders/Calvin/HAb_Converged/rxn_1425/output/Species/rxn_1425_CC[CtC]S/arkane/output.py

>  <path_exists>  (2) 
True

>  <E0_value>  (2) 
-1454747.9869848297

>  <E0_units>  (2) 
kJ/mol

>  <thermo_class>  (2) 
NASA

>  <Cp0_value>  (2) 
33.257888

>  <Cp0_units>  (2) 
J/(mol*K)

>  <CpInf_value>  (2) 
257.748632

>  <CpInf_units>  (2) 
J/(mol*K)

>  <Tmin_value>  (2) 
10.0

>  <Tmin_units>  (2) 
K

>  <Tmax_value>  (2) 
3000.0

>  <Tmax_units>  (2) 
K

>  <polynomials>  (2) 
[{"name": "polynomial1", "class": "NASAPolynomial", "Tmin_value": 10.0, "Tmin_units": "K", "Tmax_value": 390.9140632823983, "Tmax_units": "K", "coeffs": [3.858713419231629, 0.010564997140702595, 0.00016329814740577924, -4.5849893030170754e-07, 3.9198883509043327e-10, -174965770.0665913, 10.944004943270295]}, {"name": "polynomial2", "class": "NASAPolynomial", "Tmin_value": 390.9140632823983, "Tmin_units": "K", "Tmax_value": 3000.0, "Tmax_units": "K", "coeffs": [3.5910622176950087, 0.03608103984670987, -2.2011240144551834e-05, 6.581334463032912e-09, -7.656686735052077e-13, -174965923.17532238, 9.75787740899601]}]

>  <H298_value>  (2) 
-347688.46609237033

>  <H298_units>  (2) 
kcal/mol

>  <S298_value>  (2) 
79.59735907954581

>  <S298_units>  (2) 
cal/(mol*K)

>  <Cp_T_value_list>  (2) 
[24.881185185807908, 29.6159028918133, 33.59091324770937, 37.0375095709953, 42.57535430939504, 46.65270848395564, 52.70695189298071, 55.8567148263336, 57.58553478406499]

>  <Cp_T_units>  (2) 
cal/(mol*K)

>  <T_list>  (2) 
[300.0, 400.0, 500.0, 600.0, 800.0, 1000.0, 1500.0, 2000.0, 2400.0]

>  <T_units>  (2) 
K

>  <yaml_path>  (2) 
/home/calvin/Dropbox/PersonalFolders/Calvin/HAb_Converged/rxn_1425/output/Species/rxn_1425_CC[CtC]S/rxn_1425_CCCtCS.yml

>  <frequencies_cm1>  (2) 
[163.65399414624, 200.12455318076, 233.74531330747996, 265.924006517, 317.85214950683996, 472.54472781047997, 536.37335635988, 646.5678697899199, 685.57234640752, 689.34918833352, 869.1543319524001, 892.7836284385199, 1026.9988565179199, 1098.10648950652, 1109.5743549909198, 1265.9630786685998, 1311.01736935312, 1401.32509329644, 1474.4310190131598, 1479.8628044012798, 2220.3023635156, 2695.0513936138, 3023.47870051344, 3043.8255780166, 3101.2679102183997, 3116.5263515994397, 3437.4068416324]

>  <ZPE_kJmol>  (2) 
219.98604213251892

>  <E_elec_kJmol>  (2) 
-1454967.9730269625

>  <E0_minus_Eelec_plus_ZPE_kJmol>  (2) 
0.0

>  <rxn>  (2) 
rxn_1425

>  <species_type>  (2) 
p0

>  <species_folder>  (2) 
rxn_1425_CC[CtC]S

>  <frequencies_cm1_list>  (2) 
[163.65399414624, 200.12455318076, 233.74531330747996, 265.924006517, 317.85214950683996, 472.54472781047997, 536.37335635988, 646.5678697899199, 685.57234640752, 689.34918833352, 869.1543319524001, 892.7836284385199, 1026.9988565179199, 1098.10648950652, 1109.5743549909198, 1265.9630786685998, 1311.01736935312, 1401.32509329644, 1474.4310190131598, 1479.8628044012798, 2220.3023635156, 2695.0513936138, 3023.47870051344, 3043.8255780166, 3101.2679102183997, 3116.5263515994397, 3437.4068416324]

>  <E0_kJmol>  (2) 
-1.45475e+06

>  <H298_kJmol>  (2) 
-1.45473e+06

$$$$

     RDKit          3D

 22 20  0  0  0  0  0  0  0  0999 V2000
    1.8588   -0.7333   -0.7438 C   0  0  0  0  0  0  0  0  0  1  0  0
    1.2888    0.1597    0.3369 C   0  0  0  0  0  3  0  0  0  2  0  0
    1.6890    1.5256    0.3260 C   0  0  0  0  0  0  0  0  0  3  0  0
    1.9597    2.6965    0.2986 C   0  0  0  0  0  0  0  0  0  4  0  0
    1.2669   -0.6362    1.9381 S   0  0  0  0  0  0  0  0  0  5  0  0
    2.9324   -0.8791   -0.6082 H   0  0  0  0  0  0  0  0  0  6  0  0
    1.3639   -1.7055   -0.7270 H   0  0  0  0  0  0  0  0  0  7  0  0
    1.6869   -0.2765   -1.7185 H   0  0  0  0  0  0  0  0  0  8  0  0
    2.2159    3.7282    0.2707 H   0  0  0  0  0  0  0  0  0  9  0  0
    0.9618    0.4549    2.6514 H   0  0  0  0  0  0  0  0  0 10  0  0
   -1.0352    1.3729   -2.8343 C   0  0  0  0  0  0  0  0  0 11  0  0
   -1.1788    0.8447   -1.7660 C   0  0  0  0  0  0  0  0  0 12  0  0
   -1.2843    0.2483   -0.4645 C   0  0  0  0  0  0  0  0  0 13  0  0
   -1.9125    1.1204    0.6119 C   0  0  0  0  0  0  0  0  0 14  0  0
   -1.6658   -1.1344   -0.4496 C   0  0  0  0  0  0  0  0  0 15  0  0
   -1.9413   -2.3017   -0.3914 C   0  0  0  0  0  0  0  0  0 16  0  0
   -0.9250    1.8354   -3.7854 H   0  0  0  0  0  0  0  0  0 17  0  0
   -0.0135    0.2121   -0.0507 H   0  0  0  0  0  0  0  0  0 18  0  0
   -2.9736    1.2799    0.4117 H   0  0  0  0  0  0  0  0  0 19  0  0
   -1.4128    2.0889    0.6399 H   0  0  0  0  0  0  0  0  0 20  0  0
   -1.8116    0.6357    1.5831 H   0  0  0  0  0  0  0  0  0 21  0  0
   -2.2000   -3.3321   -0.3486 H   0  0  0  0  0  0  0  0  0 22  0  0
  1  7  1  0
  1  8  1  0
  1  6  1  0
  1  2  1  0
  2  3  1  0
  2  5  1  0
  3  4  1  0
  4  9  1  0
  5 10  1  0
 11 17  1  0
 11 12  1  0
 12 13  1  0
 13 15  1  0
 13 18  1  0
 13 14  1  0
 14 19  1  0
 14 20  1  0
 14 21  1  0
 15 16  1  0
 16 22  1  0
M  RAD  1   2   2
M  END
>  <rmg_smiles>  (3) 
[CH][C]C([C][CH])C.[CH][C][C](S)C

>  <rmg_adjacency_list>  (3) 
multiplicity 2
1  S u0 p2 c0 {5,S} {19,S}
2  C u0 p0 c0 {3,S} {6,S} {7,S} {12,S}
3  C u0 p0 c0 {2,S} {13,S} {14,S} {15,S}
4  C u0 p0 c0 {5,S} {16,S} {17,S} {18,S}
5  C u1 p0 c0 {1,S} {4,S} {8,S}
6  C u0 p1 c0 {2,S} {9,S}
7  C u0 p1 c0 {2,S} {10,S}
8  C u0 p1 c0 {5,S} {11,S}
9  C u0 p1 c0 {6,S} {21,S}
10 C u0 p1 c0 {7,S} {22,S}
11 C u0 p1 c0 {8,S} {20,S}
12 H u0 p0 c0 {2,S}
13 H u0 p0 c0 {3,S}
14 H u0 p0 c0 {3,S}
15 H u0 p0 c0 {3,S}
16 H u0 p0 c0 {4,S}
17 H u0 p0 c0 {4,S}
18 H u0 p0 c0 {4,S}
19 H u0 p0 c0 {1,S}
20 H u0 p0 c0 {11,S}
21 H u0 p0 c0 {9,S}
22 H u0 p0 c0 {10,S}


>  <multiplicity>  (3) 
2

>  <reaction>  (3) 
rxn_1425

>  <type>  (3) 
ts

>  <role_mapnums>  (3) 
{"*2": 18, "*1": 13, "*3": 2, "*0": 12, "*4": 5}

>  <role_mapidx>  (3) 
{"*2": 17, "*1": 12, "*3": 1, "*0": 11, "*4": 4}

>  <ordered_mapped_smiles>  (3) 
[C:1]([C:2]([CH2:3][CH2:4][H:9])[S:5][H:10])([H:6])([H:7])[H:8].[CH2:11]([CH2:12][C:13]([C:14]([H:19])([H:20])[H:21])([CH2:15][CH2:16][H:22])[H:18])[H:17]

>  <mol_properties>  (3) 
{"1": {"label": "*3", "atom_type": "Cs"}, "4": {"label": "*4", "atom_type": "S2s"}, "11": {"label": "*0", "atom_type": "C2s"}, "12": {"label": "*1", "atom_type": "Cs"}, "17": {"label": "*2", "atom_type": "H0"}}

>  <level_of_theory>  (3) 
wb97xd/def2tzvp

>  <lot_method>  (3) 
wb97xd

>  <lot_basis>  (3) 
def2tzvp

>  <spin_multiplicity>  (3) 
2.0

>  <optical_isomers>  (3) 
2.0

>  <modes>  (3) 
IdealGasTranslation(mass=(163.058, 'amu')),         NonlinearRotor(             inertia = ([488.242, 659.282, 856.299

>  <frequency_value>  (3) 
-1744.74

>  <frequency_units>  (3) 
cm^-1

>  <frequency_list>  (3) 
unknown

>  <arkane_path>  (3) 
/home/calvin/Dropbox/PersonalFolders/Calvin/HAb_Converged/rxn_1425/output/rxns/TS0/arkane/output.py

>  <path_exists>  (3) 
True

>  <E0_value>  (3) 
-2062190.0

>  <E0_units>  (3) 
kJ/mol

>  <thermo_class>  (3) 
unknown

>  <Cp0_value>  (3) 
unknown

>  <Cp0_units>  (3) 
unknown

>  <CpInf_value>  (3) 
unknown

>  <CpInf_units>  (3) 
unknown

>  <Tmin_value>  (3) 
unknown

>  <Tmin_units>  (3) 
unknown

>  <Tmax_value>  (3) 
unknown

>  <Tmax_units>  (3) 
unknown

>  <polynomials>  (3) 
unknown

>  <H298_value>  (3) 
unknown

>  <H298_units>  (3) 
unknown

>  <S298_value>  (3) 
unknown

>  <S298_units>  (3) 
unknown

>  <Cp_T_value_list>  (3) 
unknown

>  <Cp_T_units>  (3) 
unknown

>  <T_list>  (3) 
unknown

>  <T_units>  (3) 
unknown

>  <yaml_path>  (3) 
unknown

>  <frequencies_cm1>  (3) 
unknown

>  <ZPE_kJmol>  (3) 
unknown

>  <E_elec_kJmol>  (3) 
unknown

>  <E0_minus_Eelec_plus_ZPE_kJmol>  (3) 
unknown

>  <rxn>  (3) 
unknown

>  <species_type>  (3) 
unknown

>  <species_folder>  (3) 
unknown

>  <frequencies_cm1_list>  (3) 
[]

>  <ts_imag_freq_cm1>  (3) 
-1765.9296

>  <ts_freq_out_path>  (3) 
/home/calvin/Dropbox/PersonalFolders/Calvin/HAb_Converged/rxn_1425/output/rxns/TS0/geometry/freq.out

>  <E0_kJmol>  (3) 
-2.06219e+06

>  <H298_kJmol>  (3) 
unknown

$$$$

     RDKit          3D

 11 10  0  0  0  0  0  0  0  0999 V2000
   -0.9580    1.1013   -2.2955 C   0  0  0  0  0  0  0  0  0  1  0  0
   -0.5129    0.5941   -1.2929 C   0  0  0  0  0  0  0  0  0  2  0  0
   -0.0301   -0.0160   -0.1357 C   0  0  0  0  0  3  0  0  0  3  0  0
   -0.6593   -1.2845    0.3661 C   0  0  0  0  0  0  0  0  0  4  0  0
    1.0691    0.5292    0.5269 C   0  0  0  0  0  0  0  0  0  5  0  0
    2.0168    0.9794    1.1266 C   0  0  0  0  0  0  0  0  0  6  0  0
   -1.3415    1.5561   -3.1769 H   0  0  0  0  0  0  0  0  0  7  0  0
   -1.7166   -1.3186    0.1054 H   0  0  0  0  0  0  0  0  0  8  0  0
   -0.1742   -2.1550   -0.0865 H   0  0  0  0  0  0  0  0  0  9  0  0
   -0.5505   -1.3663    1.4470 H   0  0  0  0  0  0  0  0  0 10  0  0
    2.8514    1.3842    1.6465 H   0  0  0  0  0  0  0  0  0 11  0  0
  1  7  1  0
  1  2  1  0
  2  3  1  0
  3  4  1  0
  3  5  1  0
  4  8  1  0
  4  9  1  0
  4 10  1  0
  5  6  1  0
  6 11  1  0
M  RAD  1   3   2
M  END
>  <rmg_smiles>  (4) 
[CH]C[C](C)C[CH]

>  <rmg_adjacency_list>  (4) 
multiplicity 2
1  C u0 p0 c0 {2,S} {7,S} {8,S} {9,S}
2  C u1 p0 c0 {1,S} {3,S} {4,S}
3  C u0 p1 c0 {2,S} {5,S}
4  C u0 p1 c0 {2,S} {6,S}
5  C u0 p1 c0 {3,S} {10,S}
6  C u0 p1 c0 {4,S} {11,S}
7  H u0 p0 c0 {1,S}
8  H u0 p0 c0 {1,S}
9  H u0 p0 c0 {1,S}
10 H u0 p0 c0 {5,S}
11 H u0 p0 c0 {6,S}


>  <multiplicity>  (4) 
2

>  <reaction>  (4) 
rxn_1425

>  <type>  (4) 
r1

>  <role_mapnums>  (4) 
{}

>  <role_mapidx>  (4) 
{}

>  <ordered_mapped_smiles>  (4) 
[CH2:1]([CH2:2][C:3]([C:4]([H:8])([H:9])[H:10])[CH2:5][CH2:6][H:11])[H:7]

>  <level_of_theory>  (4) 
wb97xd/def2tzvp

>  <lot_method>  (4) 
wb97xd

>  <lot_basis>  (4) 
def2tzvp

>  <spin_multiplicity>  (4) 
2.0

>  <optical_isomers>  (4) 
1.0

>  <modes>  (4) 
IdealGasTranslation(mass=(77.0391, 'amu')),         NonlinearRotor(             inertia = ([87.0558, 182.116, 266.037

>  <frequency_value>  (4) 
unknown

>  <frequency_units>  (4) 
unknown

>  <frequency_list>  (4) 
unknown

>  <arkane_path>  (4) 
/home/calvin/Dropbox/PersonalFolders/Calvin/HAb_Converged/rxn_1425/output/Species/rxn_1425_CtC[C][C]CtC/arkane/output.py

>  <path_exists>  (4) 
True

>  <E0_value>  (4) 
-607514.9395077111

>  <E0_units>  (4) 
kJ/mol

>  <thermo_class>  (4) 
NASA

>  <Cp0_value>  (4) 
33.257888

>  <Cp0_units>  (4) 
J/(mol*K)

>  <CpInf_value>  (4) 
257.748632

>  <CpInf_units>  (4) 
J/(mol*K)

>  <Tmin_value>  (4) 
10.0

>  <Tmin_units>  (4) 
K

>  <Tmax_value>  (4) 
3000.0

>  <Tmax_units>  (4) 
K

>  <polynomials>  (4) 
[{"name": "polynomial1", "class": "NASAPolynomial", "Tmin_value": 10.0, "Tmin_units": "K", "Tmax_value": 349.46173600351864, "Tmax_units": "K", "coeffs": [3.766270434672447, 0.01962559465306403, 0.00015807938455067891, -5.467775010691105e-07, 5.441205279863145e-10, -73067173.52596356, 12.15378396539221]}, {"name": "polynomial2", "class": "NASAPolynomial", "Tmin_value": 349.46173600351864, "Tmin_units": "K", "Tmax_value": 3000.0, "Tmax_units": "K", "coeffs": [4.503025724813377, 0.03655999643186892, -2.3493426390627616e-05, 7.3276612126098215e-09, -8.780851036309253e-13, -73067379.9175016, 7.157724853906072]}]

>  <H298_value>  (4) 
-145194.46313324326

>  <H298_units>  (4) 
kcal/mol

>  <S298_value>  (4) 
84.90850212036293

>  <S298_units>  (4) 
cal/(mol*K)

>  <Cp_T_value_list>  (4) 
[26.877916196478143, 31.4268111749371, 35.31413934636125, 38.6518919246016, 43.93182763476164, 47.731054497646795, 53.19426248781607, 56.08143371701518, 57.80726761952239]

>  <Cp_T_units>  (4) 
cal/(mol*K)

>  <T_list>  (4) 
[300.0, 400.0, 500.0, 600.0, 800.0, 1000.0, 1500.0, 2000.0, 2400.0]

>  <T_units>  (4) 
K

>  <yaml_path>  (4) 
/home/calvin/Dropbox/PersonalFolders/Calvin/HAb_Converged/rxn_1425/output/Species/rxn_1425_CtC[C][C]CtC/rxn_1425_CtCCCCtC.yml

>  <frequencies_cm1>  (4) 
[29.02674694764, 135.43068448103998, 196.03869691536002, 226.34270313252, 381.02154746552, 485.94221616979996, 534.67721098584, 574.6774004748399, 575.94779275904, 598.55390843248, 680.22296484324, 681.74056859896, 705.74754927768, 980.1110807529599, 1012.7155270523198, 1219.2332435659998, 1286.1314145534398, 1393.02290804456, 1464.30221566616, 1471.2447378246798, 2036.0405464240396, 2119.5911568124798, 3006.0502917712797, 3079.4034289595193, 3119.3280816099996, 3427.5321167422394, 3431.14415102056]

>  <ZPE_kJmol>  (4) 
208.4566530536649

>  <E_elec_kJmol>  (4) 
-607723.3961607647

>  <E0_minus_Eelec_plus_ZPE_kJmol>  (4) 
0.0

>  <rxn>  (4) 
rxn_1425

>  <species_type>  (4) 
p1

>  <species_folder>  (4) 
rxn_1425_CtC[C][C]CtC

>  <frequencies_cm1_list>  (4) 
[29.02674694764, 135.43068448103998, 196.03869691536002, 226.34270313252, 381.02154746552, 485.94221616979996, 534.67721098584, 574.6774004748399, 575.94779275904, 598.55390843248, 680.22296484324, 681.74056859896, 705.74754927768, 980.1110807529599, 1012.7155270523198, 1219.2332435659998, 1286.1314145534398, 1393.02290804456, 1464.30221566616, 1471.2447378246798, 2036.0405464240396, 2119.5911568124798, 3006.0502917712797, 3079.4034289595193, 3119.3280816099996, 3427.5321167422394, 3431.14415102056]

>  <E0_kJmol>  (4) 
-607515

>  <H298_kJmol>  (4) 
-607494

$$$$

     RDKit          3D

 10  9  0  0  0  0  0  0  0  0999 V2000
   -1.2648    0.1959    0.8197 C   0  0  0  0  0  0  0  0  0  1  0  0
   -0.2805    0.0995   -0.3030 C   0  0  0  0  0  3  0  0  0  2  0  0
   -0.0444    1.1347   -1.1797 C   0  0  0  0  0  0  0  0  0  3  0  0
    0.1640    2.0467   -1.9525 C   0  0  0  0  0  0  0  0  0  4  0  0
    0.5686   -1.4168   -0.4488 S   0  0  0  0  0  0  0  0  0  5  0  0
   -2.0466   -0.5638    0.7258 H   0  0  0  0  0  0  0  0  0  6  0  0
   -0.7765    0.0454    1.7871 H   0  0  0  0  0  0  0  0  0  7  0  0
   -1.7371    1.1762    0.8222 H   0  0  0  0  0  0  0  0  0  8  0  0
    0.3433    2.8484   -2.6273 H   0  0  0  0  0  0  0  0  0  9  0  0
    1.3075   -1.0953   -1.5176 H   0  0  0  0  0  0  0  0  0 10  0  0
  1  8  1  0
  1  7  1  0
  1  6  1  0
  1  2  1  0
  2  5  1  0
  2  3  1  0
  3  4  1  0
  4  9  1  0
  5 10  1  0
M  RAD  1   2   2
M  END
>  <rmg_smiles>  (5) 
[CH][C][C](S)C

>  <rmg_adjacency_list>  (5) 
multiplicity 2
1  S u0 p2 c0 {3,S} {9,S}
2  C u0 p0 c0 {3,S} {6,S} {7,S} {8,S}
3  C u1 p0 c0 {1,S} {2,S} {4,S}
4  C u0 p1 c0 {3,S} {5,S}
5  C u0 p1 c0 {4,S} {10,S}
6  H u0 p0 c0 {2,S}
7  H u0 p0 c0 {2,S}
8  H u0 p0 c0 {2,S}
9  H u0 p0 c0 {1,S}
10 H u0 p0 c0 {5,S}


>  <multiplicity>  (5) 
2

>  <reaction>  (5) 
rxn_1425

>  <type>  (5) 
r2

>  <role_mapnums>  (5) 
{}

>  <role_mapidx>  (5) 
{}

>  <ordered_mapped_smiles>  (5) 
[C:1]([C:2]([CH2:3][CH2:4][H:9])[S:5][H:10])([H:6])([H:7])[H:8]

>  <level_of_theory>  (5) 
wb97xd/def2tzvp

>  <lot_method>  (5) 
wb97xd

>  <lot_basis>  (5) 
def2tzvp

>  <spin_multiplicity>  (5) 
2.0

>  <optical_isomers>  (5) 
1.0

>  <modes>  (5) 
IdealGasTranslation(mass=(85.0112, 'amu')),         NonlinearRotor(             inertia = ([82.4047, 167.495, 246.765

>  <frequency_value>  (5) 
unknown

>  <frequency_units>  (5) 
unknown

>  <frequency_list>  (5) 
unknown

>  <arkane_path>  (5) 
/home/calvin/Dropbox/PersonalFolders/Calvin/HAb_Converged/rxn_1425/output/Species/rxn_1425_C[C][CtC]S/arkane/output.py

>  <path_exists>  (5) 
True

>  <E0_value>  (5) 
-1453105.3612422314

>  <E0_units>  (5) 
kJ/mol

>  <thermo_class>  (5) 
NASA

>  <Cp0_value>  (5) 
33.257888

>  <Cp0_units>  (5) 
J/(mol*K)

>  <CpInf_value>  (5) 
232.805216

>  <CpInf_units>  (5) 
J/(mol*K)

>  <Tmin_value>  (5) 
10.0

>  <Tmin_units>  (5) 
K

>  <Tmax_value>  (5) 
3000.0

>  <Tmax_units>  (5) 
K

>  <polynomials>  (5) 
[{"name": "polynomial1", "class": "NASAPolynomial", "Tmin_value": 10.0, "Tmin_units": "K", "Tmax_value": 273.1683789679481, "Tmax_units": "K", "coeffs": [3.7753814811155935, 0.021657527899277617, 0.00015828869971507256, -7.276144873974002e-07, 9.437697922519883e-10, -174768209.8714672, 11.90943942573215]}, {"name": "polynomial2", "class": "NASAPolynomial", "Tmin_value": 273.1683789679481, "Tmin_units": "K", "Tmax_value": 3000.0, "Tmax_units": "K", "coeffs": [4.594318769947566, 0.03191679788121869, -2.0228805295381523e-05, 6.243366588572276e-09, -7.431112905857346e-13, -174768337.63240626, 7.5016838847910154]}]

>  <H298_value>  (5) 
-347295.5706324715

>  <H298_units>  (5) 
kcal/mol

>  <S298_value>  (5) 
84.1434158183064

>  <S298_units>  (5) 
cal/(mol*K)

>  <Cp_T_value_list>  (5) 
[24.862571181723663, 28.82439231648624, 32.25135350920243, 35.2019473835623, 39.890283084922174, 43.28645806188217, 48.21770771757209, 50.81256302732231, 52.32387398967946]

>  <Cp_T_units>  (5) 
cal/(mol*K)

>  <T_list>  (5) 
[300.0, 400.0, 500.0, 600.0, 800.0, 1000.0, 1500.0, 2000.0, 2400.0]

>  <T_units>  (5) 
K

>  <yaml_path>  (5) 
/home/calvin/Dropbox/PersonalFolders/Calvin/HAb_Converged/rxn_1425/output/Species/rxn_1425_C[C][CtC]S/rxn_1425_CCCtCS.yml

>  <frequencies_cm1>  (5) 
[28.99241202104, 167.81538725015997, 203.42757311967998, 241.77968613187997, 295.34217162787996, 453.06309045763993, 470.87605037772, 523.76557131236, 631.26822649696, 687.0968171485599, 897.5561832359199, 949.84827644772, 1016.29322640404, 1147.0200259408798, 1305.15983087516, 1398.8735795372, 1461.4936186702798, 1475.6670763707598, 2045.4963852096796, 2715.8240242068, 2997.8579782845195, 3050.7749671604397, 3117.61133528, 3430.2308419729998]

>  <ZPE_kJmol>  (5) 
183.7053917951971

>  <E_elec_kJmol>  (5) 
-1453289.0666340266

>  <E0_minus_Eelec_plus_ZPE_kJmol>  (5) 
0.0

>  <rxn>  (5) 
rxn_1425

>  <species_type>  (5) 
r0

>  <species_folder>  (5) 
rxn_1425_C[C][CtC]S

>  <frequencies_cm1_list>  (5) 
[28.99241202104, 167.81538725015997, 203.42757311967998, 241.77968613187997, 295.34217162787996, 453.06309045763993, 470.87605037772, 523.76557131236, 631.26822649696, 687.0968171485599, 897.5561832359199, 949.84827644772, 1016.29322640404, 1147.0200259408798, 1305.15983087516, 1398.8735795372, 1461.4936186702798, 1475.6670763707598, 2045.4963852096796, 2715.8240242068, 2997.8579782845195, 3050.7749671604397, 3117.61133528, 3430.2308419729998]

>  <E0_kJmol>  (5) 
-1.45311e+06

>  <H298_kJmol>  (5) 
-1.45308e+06

$$$$
