
     RDKit          3D

  7  6  0  0  0  0  0  0  0  0999 V2000
   -0.2235    1.2068    0.2167 C   0  0  0  0  0  0  0  0  0  1  0  0
    0.4059   -0.1221    0.1255 C   0  0  0  0  0  0  0  0  0  2  0  0
   -0.1346   -1.0836   -0.3659 O   0  0  0  0  0  0  0  0  0  3  0  0
   -0.8422    1.0745    1.1007 H   0  0  0  0  0  0  0  0  0  4  0  0
    0.4415    2.0296    0.4662 H   0  0  0  0  0  0  0  0  0  5  0  0
   -0.9286    1.4227   -0.5823 H   0  0  0  0  0  0  0  0  0  6  0  0
    1.4079   -0.2204    0.5864 H   0  0  0  0  0  0  0  0  0  7  0  0
  1  5  1  0
  1  4  1  0
  1  6  1  0
  1  2  1  0
  2  7  1  0
  2  3  1  0
M  END
>  <rmg_smiles>  (1) 
C[CH]O

>  <rmg_adjacency_list>  (1) 
1 O u0 p2 c0 {3,S}
2 C u0 p0 c0 {3,S} {4,S} {5,S} {6,S}
3 C u0 p0 c0 {1,S} {2,S} {7,S}
4 H u0 p0 c0 {2,S}
5 H u0 p0 c0 {2,S}
6 H u0 p0 c0 {2,S}
7 H u0 p0 c0 {3,S}


>  <multiplicity>  (1) 
1

>  <reaction>  (1) 
rxn_3216

>  <type>  (1) 
r1h

>  <role_mapnums>  (1) 
{"r1h_a": 1, "r1h_h": 4}

>  <role_mapidx>  (1) 
{"r1h_a": 0, "r1h_h": 3}

>  <ordered_mapped_smiles>  (1) 
[C:1]([CH:2]([OH:3])[H:7])([H:4])([H:5])[H:6]

>  <mol_properties>  (1) 
{"0": {"label": "donator", "atom_type": "Cs"}, "3": {"label": "d_hydrogen", "atom_type": "H0"}}

>  <level_of_theory>  (1) 
wb97xd/def2tzvp

>  <lot_method>  (1) 
wb97xd

>  <lot_basis>  (1) 
def2tzvp

>  <spin_multiplicity>  (1) 
1.0

>  <optical_isomers>  (1) 
1.0

>  <modes>  (1) 
IdealGasTranslation(mass=(44.0262, 'amu')),         NonlinearRotor(             inertia = ([8.78933, 49.4181, 55.1019

>  <frequency_value>  (1) 
unknown

>  <frequency_units>  (1) 
unknown

>  <frequency_list>  (1) 
unknown

>  <arkane_path>  (1) 
/home/calvin/Dropbox/PersonalFolders/Calvin/ATLAS_Converged/NonRMG/rxn_3216/output/Species/rxn_3216_r2_CC=O/arkane/output.py

>  <path_exists>  (1) 
True

>  <E0_value>  (1) 
-403770.189646592

>  <E0_units>  (1) 
kJ/mol

>  <thermo_class>  (1) 
NASA

>  <Cp0_value>  (1) 
33.257888

>  <Cp0_units>  (1) 
J/(mol*K)

>  <CpInf_value>  (1) 
157.97496800000002

>  <CpInf_units>  (1) 
J/(mol*K)

>  <Tmin_value>  (1) 
10.0

>  <Tmin_units>  (1) 
K

>  <Tmax_value>  (1) 
3000.0

>  <Tmax_units>  (1) 
K

>  <polynomials>  (1) 
[{"name": "polynomial1", "class": "NASAPolynomial", "Tmin_value": 10.0, "Tmin_units": "K", "Tmax_value": 551.6940831710222, "Tmax_units": "K", "coeffs": [3.975078582156827, 0.0013023407796533366, 4.262071507584786e-05, -6.204072157391714e-08, 2.9097725165822707e-11, -48562335.212708175, 7.111516549596461]}, {"name": "polynomial2", "class": "NASAPolynomial", "Tmin_value": 551.6940831710222, "Tmin_units": "K", "Tmax_value": 3000.0, "Tmax_units": "K", "coeffs": [1.2539423523334228, 0.021030881510190627, -1.1017078922007928e-05, 2.7726082860525932e-09, -2.7126595038427437e-13, -48562034.95401308, 18.621105033098246]}]

>  <H298_value>  (1) 
-96500.38809812289

>  <H298_units>  (1) 
kcal/mol

>  <S298_value>  (1) 
62.69347809778408

>  <S298_units>  (1) 
cal/(mol*K)

>  <Cp_T_value_list>  (1) 
[13.437961852478047, 16.075755171044268, 18.57033618451985, 20.806151761455684, 24.51454098705852, 27.36201974746458, 31.787566100875523, 33.95738621243511, 34.971390860101835]

>  <Cp_T_units>  (1) 
cal/(mol*K)

>  <T_list>  (1) 
[300.0, 400.0, 500.0, 600.0, 800.0, 1000.0, 1500.0, 2000.0, 2400.0]

>  <T_units>  (1) 
K

>  <yaml_path>  (1) 
/home/calvin/Dropbox/PersonalFolders/Calvin/ATLAS_Converged/NonRMG/rxn_3216/output/Species/rxn_3216_r2_CC=O/rxn_3216_r2_CC=O.yml

>  <frequencies_cm1>  (1) 
[154.22562330188, 509.85992603936, 771.9521547477999, 887.042828711, 1124.5718509298, 1132.0911998551999, 1368.1506872155198, 1416.2127174702, 1447.6566432504799, 1456.3502466656, 1831.5073886678397, 2863.5603463812795, 3014.3936789350796, 3081.3536527904, 3132.28608290884]

>  <ZPE_kJmol>  (1) 
144.69564018265137

>  <E_elec_kJmol>  (1) 
-403914.88528677466

>  <E0_minus_Eelec_plus_ZPE_kJmol>  (1) 
0.0

>  <rxn>  (1) 
rxn_3216

>  <species_type>  (1) 
r1

>  <species_folder>  (1) 
rxn_3216_r2_CC=O

>  <frequencies_cm1_list>  (1) 
[154.22562330188, 509.85992603936, 771.9521547477999, 887.042828711, 1124.5718509298, 1132.0911998551999, 1368.1506872155198, 1416.2127174702, 1447.6566432504799, 1456.3502466656, 1831.5073886678397, 2863.5603463812795, 3014.3936789350796, 3081.3536527904, 3132.28608290884]

>  <E0_kJmol>  (1) 
-403770

>  <H298_kJmol>  (1) 
-403758

$$$$

     RDKit          3D

  8  7  0  0  0  0  0  0  0  0999 V2000
    1.1546    0.0973    1.2209 N   0  0  0  0  0  0  0  0  0  1  0  0
    0.1884   -0.7101    0.4948 C   0  0  0  0  0  0  0  0  0  2  0  0
   -0.5376    0.0021   -0.5638 C   0  0  0  0  0  2  0  0  0  3  0  0
   -1.0779    0.6058   -1.3759 N   0  0  0  0  0  0  0  0  0  4  0  0
    0.7879    1.0453    1.3128 H   0  0  0  0  0  0  0  0  0  5  0  0
   -0.5422   -1.0970    1.2134 H   0  0  0  0  0  0  0  0  0  6  0  0
    0.6951   -1.5713    0.0550 H   0  0  0  0  0  0  0  0  0  7  0  0
    1.9320    0.2419    0.5756 H   0  0  0  0  0  0  0  0  0  8  0  0
  1  5  1  0
  1  2  1  0
  1  8  1  0
  2  7  1  0
  2  6  1  0
  2  3  1  0
  3  4  1  0
M  RAD  1   3   3
M  END
>  <rmg_smiles>  (2) 
[N][C]CN

>  <rmg_adjacency_list>  (2) 
1 N u0 p1 c0 {3,S} {7,S} {8,S}
2 N u0 p2 c0 {4,S}
3 C u0 p0 c0 {1,S} {4,S} {5,S} {6,S}
4 C u0 p1 c0 {2,S} {3,S}
5 H u0 p0 c0 {3,S}
6 H u0 p0 c0 {3,S}
7 H u0 p0 c0 {1,S}
8 H u0 p0 c0 {1,S}


>  <multiplicity>  (2) 
1

>  <reaction>  (2) 
rxn_3216

>  <type>  (2) 
r2h

>  <role_mapnums>  (2) 
{"r2h_a": 1, "r2h_h": 8}

>  <role_mapidx>  (2) 
{"r2h_a": 0, "r2h_h": 7}

>  <ordered_mapped_smiles>  (2) 
[N:1]([C:2]([C:3][NH2:4])([H:6])[H:7])([H:5])[H:8]

>  <mol_properties>  (2) 
{"0": {"label": "acceptor", "atom_type": "N3s"}, "7": {"label": "a_hydrogen", "atom_type": "H0"}}

>  <level_of_theory>  (2) 
wb97xd/def2tzvp

>  <lot_method>  (2) 
wb97xd

>  <lot_basis>  (2) 
def2tzvp

>  <spin_multiplicity>  (2) 
1.0

>  <optical_isomers>  (2) 
1.0

>  <modes>  (2) 
IdealGasTranslation(mass=(56.0374, 'amu')),         NonlinearRotor(             inertia = ([16.5185, 105.395, 116.141

>  <frequency_value>  (2) 
unknown

>  <frequency_units>  (2) 
unknown

>  <frequency_list>  (2) 
unknown

>  <arkane_path>  (2) 
/home/calvin/Dropbox/PersonalFolders/Calvin/ATLAS_Converged/NonRMG/rxn_3216/output/Species/rxn_3216_p1_NCCtN/arkane/output.py

>  <path_exists>  (2) 
True

>  <E0_value>  (2) 
-493707.24096395954

>  <E0_units>  (2) 
kJ/mol

>  <thermo_class>  (2) 
NASA

>  <Cp0_value>  (2) 
33.257888

>  <Cp0_units>  (2) 
J/(mol*K)

>  <CpInf_value>  (2) 
182.918384

>  <CpInf_units>  (2) 
J/(mol*K)

>  <Tmin_value>  (2) 
10.0

>  <Tmin_units>  (2) 
K

>  <Tmax_value>  (2) 
3000.0

>  <Tmax_units>  (2) 
K

>  <polynomials>  (2) 
[{"name": "polynomial1", "class": "NASAPolynomial", "Tmin_value": 10.0, "Tmin_units": "K", "Tmax_value": 310.3656944426032, "Tmax_units": "K", "coeffs": [3.9731943208296037, 0.002034998905401934, 9.475709370659397e-05, -2.3009470252826854e-07, 1.8817978896599532e-10, -59379266.29095806, 8.166466583720501]}, {"name": "polynomial2", "class": "NASAPolynomial", "Tmin_value": 310.3656944426032, "Tmin_units": "K", "Tmax_value": 3000.0, "Tmax_units": "K", "coeffs": [2.222751666825024, 0.024594558995586543, -1.4272560220765838e-05, 4.0994905264842876e-09, -4.624224001756621e-13, -59379157.63460226, 14.563329871704575]}]

>  <H298_value>  (2) 
-117995.39622498966

>  <H298_units>  (2) 
kcal/mol

>  <S298_value>  (2) 
67.48007386059012

>  <S298_units>  (2) 
cal/(mol*K)

>  <Cp_T_value_list>  (2) 
[16.739297051439777, 19.926703272151446, 22.72455293853158, 25.171796492782516, 29.159257216543025, 32.15661505552977, 36.755563782360284, 39.185316788338156, 40.47748472918174]

>  <Cp_T_units>  (2) 
cal/(mol*K)

>  <T_list>  (2) 
[300.0, 400.0, 500.0, 600.0, 800.0, 1000.0, 1500.0, 2000.0, 2400.0]

>  <T_units>  (2) 
K

>  <yaml_path>  (2) 
/home/calvin/Dropbox/PersonalFolders/Calvin/ATLAS_Converged/NonRMG/rxn_3216/output/Species/rxn_3216_p1_NCCtN/rxn_3216_p1_NCCtN.yml

>  <frequencies_cm1>  (2) 
[216.01475721123998, 261.31625936728, 391.90571919772, 575.1100205500001, 821.9438078774, 892.22053564228, 915.49274889176, 1117.7804024483198, 1189.6365368368, 1359.3815469618798, 1375.3816227574798, 1458.4996130707598, 1659.1529241211601, 2352.78024430904, 3046.929455381239, 3089.3536906882, 3509.5925913162396, 3590.1972650023995]

>  <ZPE_kJmol>  (2) 
166.41668883231094

>  <E_elec_kJmol>  (2) 
-493873.6576527919

>  <E0_minus_Eelec_plus_ZPE_kJmol>  (2) 
0.0

>  <rxn>  (2) 
rxn_3216

>  <species_type>  (2) 
p0

>  <species_folder>  (2) 
rxn_3216_p1_NCCtN

>  <frequencies_cm1_list>  (2) 
[216.01475721123998, 261.31625936728, 391.90571919772, 575.1100205500001, 821.9438078774, 892.22053564228, 915.49274889176, 1117.7804024483198, 1189.6365368368, 1359.3815469618798, 1375.3816227574798, 1458.4996130707598, 1659.1529241211601, 2352.78024430904, 3046.929455381239, 3089.3536906882, 3509.5925913162396, 3590.1972650023995]

>  <E0_kJmol>  (2) 
-493707

>  <H298_kJmol>  (2) 
-493693

$$$$

     RDKit          3D

 14 12  0  0  0  0  0  0  0  0999 V2000
   -0.2691    0.4614    1.8367 N   0  0  0  0  0  2  0  0  0  1  0  0
   -1.2353   -0.3460    1.1106 C   0  0  0  0  0  0  0  0  0  2  0  0
   -1.9612    0.3663    0.0519 C   0  0  0  0  0  0  0  0  0  3  0  0
   -2.5016    0.9700   -0.7601 N   0  0  0  0  0  0  0  0  0  4  0  0
   -0.6358    1.4095    1.9286 H   0  0  0  0  0  0  0  0  0  5  0  0
   -1.9659   -0.7328    1.8291 H   0  0  0  0  0  0  0  0  0  6  0  0
   -0.7285   -1.2072    0.6707 H   0  0  0  0  0  0  0  0  0  7  0  0
    1.4615    0.8037   -0.0386 C   0  0  0  0  0  0  0  0  0  8  0  0
    2.0909   -0.5253   -0.1297 C   0  0  0  0  0  0  0  0  0  9  0  0
    1.5503   -1.4867   -0.6212 O   0  0  0  0  0  0  0  0  0 10  0  0
    0.7286    0.6469    1.0086 H   0  0  0  0  0  0  0  0  0 11  0  0
    2.1265    1.6265    0.2110 H   0  0  0  0  0  0  0  0  0 12  0  0
    0.7564    1.0195   -0.8376 H   0  0  0  0  0  0  0  0  0 13  0  0
    3.0928   -0.6235    0.3312 H   0  0  0  0  0  0  0  0  0 14  0  0
  1  5  1  0
  1  2  1  0
  2  7  1  0
  2  6  1  0
  2  3  1  0
  3  4  1  0
  8  9  1  0
  8 13  1  0
  8 12  1  0
  8 11  1  0
  9 10  1  0
  9 14  1  0
M  RAD  1   1   2
M  END
>  <rmg_smiles>  (3) 
[N][C]C[NH].C[CH][O]

>  <rmg_adjacency_list>  (3) 
multiplicity 2
1  O u0 p2 c0 {6,S}
2  N u1 p1 c0 {4,S} {14,S}
3  N u0 p2 c0 {7,S}
4  C u0 p0 c0 {2,S} {7,S} {8,S} {9,S}
5  C u0 p0 c0 {6,S} {10,S} {11,S} {12,S}
6  C u0 p0 c0 {1,S} {5,S} {13,S}
7  C u0 p1 c0 {3,S} {4,S}
8  H u0 p0 c0 {4,S}
9  H u0 p0 c0 {4,S}
10 H u0 p0 c0 {5,S}
11 H u0 p0 c0 {5,S}
12 H u0 p0 c0 {5,S}
13 H u0 p0 c0 {6,S}
14 H u0 p0 c0 {2,S}


>  <multiplicity>  (3) 
2

>  <reaction>  (3) 
rxn_3216

>  <type>  (3) 
ts

>  <role_mapnums>  (3) 
{"*2": 11, "*1": 8, "*3": 1, "*0": 9, "*4": 2}

>  <role_mapidx>  (3) 
{"*2": 10, "*1": 7, "*3": 0, "*0": 8, "*4": 1}

>  <ordered_mapped_smiles>  (3) 
[N:1]([C:2]([CH2:3][NH2:4])([H:6])[H:7])[H:5].[C:8]([CH:9]([OH:10])[H:14])([H:11])([H:12])[H:13]

>  <mol_properties>  (3) 
{"0": {"label": "*3", "atom_type": "N3s"}, "1": {"label": "*4", "atom_type": "Cs"}, "7": {"label": "*1", "atom_type": "Cs"}, "8": {"label": "*0", "atom_type": "Cs"}, "10": {"label": "*2", "atom_type": "H0"}}

>  <level_of_theory>  (3) 
wb97xd/def2tzvp

>  <lot_method>  (3) 
wb97xd

>  <lot_basis>  (3) 
def2tzvp

>  <spin_multiplicity>  (3) 
2.0

>  <optical_isomers>  (3) 
2.0

>  <modes>  (3) 
IdealGasTranslation(mass=(99.0558, 'amu')),         NonlinearRotor(             inertia = ([131.766, 364.245, 393.028

>  <frequency_value>  (3) 
-1762.69

>  <frequency_units>  (3) 
cm^-1

>  <frequency_list>  (3) 
unknown

>  <arkane_path>  (3) 
/home/calvin/Dropbox/PersonalFolders/Calvin/ATLAS_Converged/NonRMG/rxn_3216/output/rxns/TS0/arkane/output.py

>  <path_exists>  (3) 
True

>  <E0_value>  (3) 
-895705.0

>  <E0_units>  (3) 
kJ/mol

>  <thermo_class>  (3) 
unknown

>  <Cp0_value>  (3) 
unknown

>  <Cp0_units>  (3) 
unknown

>  <CpInf_value>  (3) 
unknown

>  <CpInf_units>  (3) 
unknown

>  <Tmin_value>  (3) 
unknown

>  <Tmin_units>  (3) 
unknown

>  <Tmax_value>  (3) 
unknown

>  <Tmax_units>  (3) 
unknown

>  <polynomials>  (3) 
unknown

>  <H298_value>  (3) 
unknown

>  <H298_units>  (3) 
unknown

>  <S298_value>  (3) 
unknown

>  <S298_units>  (3) 
unknown

>  <Cp_T_value_list>  (3) 
unknown

>  <Cp_T_units>  (3) 
unknown

>  <T_list>  (3) 
unknown

>  <T_units>  (3) 
unknown

>  <yaml_path>  (3) 
unknown

>  <frequencies_cm1>  (3) 
unknown

>  <ZPE_kJmol>  (3) 
unknown

>  <E_elec_kJmol>  (3) 
unknown

>  <E0_minus_Eelec_plus_ZPE_kJmol>  (3) 
unknown

>  <rxn>  (3) 
unknown

>  <species_type>  (3) 
unknown

>  <species_folder>  (3) 
unknown

>  <frequencies_cm1_list>  (3) 
[]

>  <ts_imag_freq_cm1>  (3) 
-1784.1027

>  <ts_freq_out_path>  (3) 
/home/calvin/Dropbox/PersonalFolders/Calvin/ATLAS_Converged/NonRMG/rxn_3216/output/rxns/TS0/geometry/freq.out

>  <E0_kJmol>  (3) 
-895705

>  <H298_kJmol>  (3) 
unknown

$$$$

     RDKit          3D

  6  5  0  0  0  0  0  0  0  0999 V2000
   -0.7133   -0.0465   -0.1138 C   0  0  0  0  0  0  0  0  0  1  0  0
    0.6837    0.0990    0.1040 C   0  0  0  0  0  0  0  0  0  2  0  0
    1.4284   -0.8504    0.3164 O   0  0  0  0  0  1  0  0  0  3  0  0
   -1.3425    0.8143   -0.2988 H   0  0  0  0  0  0  0  0  0  4  0  0
   -1.1519   -1.0358   -0.0939 H   0  0  0  0  0  0  0  0  0  5  0  0
    1.0889    1.1261    0.0750 H   0  0  0  0  0  0  0  0  0  6  0  0
  1  5  1  0
  1  4  1  0
  1  2  1  0
  2  3  1  0
  2  6  1  0
M  RAD  1   3   2
M  END
>  <rmg_smiles>  (4) 
[CH2][CH][O]

>  <rmg_adjacency_list>  (4) 
multiplicity 2
1 O u1 p2 c0 {3,S}
2 C u0 p0 c0 {3,S} {4,S} {5,S}
3 C u0 p0 c0 {1,S} {2,S} {6,S}
4 H u0 p0 c0 {2,S}
5 H u0 p0 c0 {2,S}
6 H u0 p0 c0 {3,S}


>  <multiplicity>  (4) 
2

>  <reaction>  (4) 
rxn_3216

>  <type>  (4) 
r1

>  <role_mapnums>  (4) 
{}

>  <role_mapidx>  (4) 
{}

>  <ordered_mapped_smiles>  (4) 
[CH:1]([CH:2]([O:3])[H:6])([H:4])[H:5]

>  <level_of_theory>  (4) 
wb97xd/def2tzvp

>  <lot_method>  (4) 
wb97xd

>  <lot_basis>  (4) 
def2tzvp

>  <spin_multiplicity>  (4) 
2.0

>  <optical_isomers>  (4) 
1.0

>  <modes>  (4) 
IdealGasTranslation(mass=(43.0184, 'amu')),         NonlinearRotor(             inertia = ([7.46923, 43.7555, 51.2248

>  <frequency_value>  (4) 
unknown

>  <frequency_units>  (4) 
unknown

>  <frequency_list>  (4) 
unknown

>  <arkane_path>  (4) 
/home/calvin/Dropbox/PersonalFolders/Calvin/ATLAS_Converged/NonRMG/rxn_3216/output/Species/rxn_3216_p2_sbr-CH2-sbrC=O/arkane/output.py

>  <path_exists>  (4) 
True

>  <E0_value>  (4) 
-402064.87130422087

>  <E0_units>  (4) 
kJ/mol

>  <thermo_class>  (4) 
NASA

>  <Cp0_value>  (4) 
33.257888

>  <Cp0_units>  (4) 
J/(mol*K)

>  <CpInf_value>  (4) 
133.031552

>  <CpInf_units>  (4) 
J/(mol*K)

>  <Tmin_value>  (4) 
10.0

>  <Tmin_units>  (4) 
K

>  <Tmax_value>  (4) 
3000.0

>  <Tmax_units>  (4) 
K

>  <polynomials>  (4) 
[{"name": "polynomial1", "class": "NASAPolynomial", "Tmin_value": 10.0, "Tmin_units": "K", "Tmax_value": 528.0748402100389, "Tmax_units": "K", "coeffs": [4.069067336765105, -0.006445807098002502, 8.245162136125616e-05, -1.430326326596903e-07, 8.214576012265843e-11, -48357233.95180795, 7.28666094755534]}, {"name": "polynomial2", "class": "NASAPolynomial", "Tmin_value": 528.0748402100389, "Tmin_units": "K", "Tmax_value": 3000.0, "Tmax_units": "K", "coeffs": [1.7695899641139592, 0.01876969411109609, -1.13225531356883e-05, 3.314748242479202e-09, -3.755954094068601e-13, -48357099.81691166, 15.882613480232616]}]

>  <H298_value>  (4) 
-96093.00709441645

>  <H298_units>  (4) 
kcal/mol

>  <S298_value>  (4) 
61.81984552160025

>  <S298_units>  (4) 
cal/(mol*K)

>  <Cp_T_value_list>  (4) 
[12.637581527733234, 15.166055742752055, 17.31671627586472, 19.122084844859575, 22.022656581855568, 24.156251257764804, 27.292711663193668, 28.868596026183845, 29.72995105205114]

>  <Cp_T_units>  (4) 
cal/(mol*K)

>  <T_list>  (4) 
[300.0, 400.0, 500.0, 600.0, 800.0, 1000.0, 1500.0, 2000.0, 2400.0]

>  <T_units>  (4) 
K

>  <yaml_path>  (4) 
/home/calvin/Dropbox/PersonalFolders/Calvin/ATLAS_Converged/NonRMG/rxn_3216/output/Species/rxn_3216_p2_sbr-CH2-sbrC=O/rxn_3216_p2_sbr-CH2-sbrC=O.yml

>  <frequencies_cm1>  (4) 
[449.66393272424, 506.48823624724, 754.00185512132, 972.8389432990799, 977.2269469185599, 1153.37198736188, 1391.8692545108001, 1463.54684728096, 1583.9044989846002, 2931.70144171164, 3126.8886324473197, 3242.4599953829197]

>  <ZPE_kJmol>  (4) 
110.97737295072427

>  <E_elec_kJmol>  (4) 
-402175.8486771716

>  <E0_minus_Eelec_plus_ZPE_kJmol>  (4) 
0.0

>  <rxn>  (4) 
rxn_3216

>  <species_type>  (4) 
p1

>  <species_folder>  (4) 
rxn_3216_p2_sbr-CH2-sbrC=O

>  <frequencies_cm1_list>  (4) 
[449.66393272424, 506.48823624724, 754.00185512132, 972.8389432990799, 977.2269469185599, 1153.37198736188, 1391.8692545108001, 1463.54684728096, 1583.9044989846002, 2931.70144171164, 3126.8886324473197, 3242.4599953829197]

>  <E0_kJmol>  (4) 
-402065

>  <H298_kJmol>  (4) 
-402053

$$$$

     RDKit          3D

  7  6  0  0  0  0  0  0  0  0999 V2000
   -1.3059    0.5497   -0.1304 N   0  0  0  0  0  2  0  0  0  1  0  0
   -0.2700   -0.4288    0.0448 C   0  0  0  0  0  0  0  0  0  2  0  0
    1.1109    0.0669    0.0401 C   0  0  0  0  0  0  0  0  0  3  0  0
    2.1758    0.4925    0.0308 N   0  0  0  0  0  0  0  0  0  4  0  0
   -0.8815    1.4733   -0.2339 H   0  0  0  0  0  0  0  0  0  5  0  0
   -0.3767   -1.1909   -0.7373 H   0  0  0  0  0  0  0  0  0  6  0  0
   -0.4527   -0.9628    0.9858 H   0  0  0  0  0  0  0  0  0  7  0  0
  1  5  1  0
  1  2  1  0
  2  7  1  0
  2  6  1  0
  2  3  1  0
  3  4  1  0
M  RAD  1   1   2
M  END
>  <rmg_smiles>  (5) 
[N][C]C[NH]

>  <rmg_adjacency_list>  (5) 
multiplicity 2
1 N u1 p1 c0 {3,S} {7,S}
2 N u0 p2 c0 {4,S}
3 C u0 p0 c0 {1,S} {4,S} {5,S} {6,S}
4 C u0 p1 c0 {2,S} {3,S}
5 H u0 p0 c0 {3,S}
6 H u0 p0 c0 {3,S}
7 H u0 p0 c0 {1,S}


>  <multiplicity>  (5) 
2

>  <reaction>  (5) 
rxn_3216

>  <type>  (5) 
r2

>  <role_mapnums>  (5) 
{}

>  <role_mapidx>  (5) 
{}

>  <ordered_mapped_smiles>  (5) 
[N:1]([C:2]([CH2:3][NH2:4])([H:6])[H:7])[H:5]

>  <level_of_theory>  (5) 
wb97xd/def2tzvp

>  <lot_method>  (5) 
wb97xd

>  <lot_basis>  (5) 
def2tzvp

>  <spin_multiplicity>  (5) 
2.0

>  <optical_isomers>  (5) 
1.0

>  <modes>  (5) 
IdealGasTranslation(mass=(55.0296, 'amu')),         NonlinearRotor(             inertia = ([14.3798, 101.116, 112.445

>  <frequency_value>  (5) 
unknown

>  <frequency_units>  (5) 
unknown

>  <frequency_list>  (5) 
unknown

>  <arkane_path>  (5) 
/home/calvin/Dropbox/PersonalFolders/Calvin/ATLAS_Converged/NonRMG/rxn_3216/output/Species/rxn_3216_r1_sbr-NH-sbrCCtN/arkane/output.py

>  <path_exists>  (5) 
True

>  <E0_value>  (5) 
-491973.9107065931

>  <E0_units>  (5) 
kJ/mol

>  <thermo_class>  (5) 
NASA

>  <Cp0_value>  (5) 
33.257888

>  <Cp0_units>  (5) 
J/(mol*K)

>  <CpInf_value>  (5) 
157.97496800000002

>  <CpInf_units>  (5) 
J/(mol*K)

>  <Tmin_value>  (5) 
10.0

>  <Tmin_units>  (5) 
K

>  <Tmax_value>  (5) 
3000.0

>  <Tmax_units>  (5) 
K

>  <polynomials>  (5) 
[{"name": "polynomial1", "class": "NASAPolynomial", "Tmin_value": 10.0, "Tmin_units": "K", "Tmax_value": 441.5888552627719, "Tmax_units": "K", "coeffs": [3.8074387231682363, 0.01890513209384672, -2.384570888732855e-05, 4.838233157000235e-08, -4.1393745668634286e-11, -59170793.396980785, 9.226799164772778]}, {"name": "polynomial2", "class": "NASAPolynomial", "Tmin_value": 441.5888552627719, "Tmin_units": "K", "Tmax_value": 3000.0, "Tmax_units": "K", "coeffs": [2.9869977814233555, 0.020949312305084667, -1.2488909357575524e-05, 3.6086756240984913e-09, -4.0428709073473696e-13, -59170668.40878062, 13.109112838271622]}]

>  <H298_value>  (5) 
-117580.92958719996

>  <H298_units>  (5) 
kcal/mol

>  <S298_value>  (5) 
71.21799638955733

>  <S298_units>  (5) 
cal/(mol*K)

>  <Cp_T_value_list>  (5) 
[16.50156041465201, 19.059232907035433, 21.392761081461902, 23.42450687983812, 26.69929489980552, 29.116130872672766, 32.67662417459433, 34.43987147616164, 35.37681819280643]

>  <Cp_T_units>  (5) 
cal/(mol*K)

>  <T_list>  (5) 
[300.0, 400.0, 500.0, 600.0, 800.0, 1000.0, 1500.0, 2000.0, 2400.0]

>  <T_units>  (5) 
K

>  <yaml_path>  (5) 
/home/calvin/Dropbox/PersonalFolders/Calvin/ATLAS_Converged/NonRMG/rxn_3216/output/Species/rxn_3216_r1_sbr-NH-sbrCCtN/rxn_3216_r1_sbr-NH-sbrCCtN.yml

>  <frequencies_cm1>  (5) 
[63.7942936228, 224.96930606852, 349.44028197883995, 587.4774611113199, 879.8668290515999, 884.95526517372, 1044.48906812796, 1212.8469472184, 1240.74064158824, 1356.4012753329998, 1409.47620487128, 2361.53565059204, 2988.3609375869596, 3014.2975411406, 3431.2265548443993]

>  <ZPE_kJmol>  (5) 
125.90626832277542

>  <E_elec_kJmol>  (5) 
-492099.8169749159

>  <E0_minus_Eelec_plus_ZPE_kJmol>  (5) 
0.0

>  <rxn>  (5) 
rxn_3216

>  <species_type>  (5) 
r0

>  <species_folder>  (5) 
rxn_3216_r1_sbr-NH-sbrCCtN

>  <frequencies_cm1_list>  (5) 
[63.7942936228, 224.96930606852, 349.44028197883995, 587.4774611113199, 879.8668290515999, 884.95526517372, 1044.48906812796, 1212.8469472184, 1240.74064158824, 1356.4012753329998, 1409.47620487128, 2361.53565059204, 2988.3609375869596, 3014.2975411406, 3431.2265548443993]

>  <E0_kJmol>  (5) 
-491974

>  <H298_kJmol>  (5) 
-491959

$$$$
