
     RDKit          3D

  9  8  0  0  0  0  0  0  0  0999 V2000
   -0.5127   -0.4431   -1.0689 C   0  0  0  0  0  0  0  0  0  1  0  0
    0.1940   -0.4083    0.0628 C   0  0  0  0  0  0  0  0  0  2  0  0
    0.3285    0.7673    0.9196 C   0  0  0  0  0  0  0  0  0  3  0  0
   -0.6015   -1.3502   -1.6525 H   0  0  0  0  0  0  0  0  0  4  0  0
   -1.0132    0.4415   -1.4471 H   0  0  0  0  0  0  0  0  0  5  0  0
    0.6719   -1.3218    0.4045 H   0  0  0  0  0  0  0  0  0  6  0  0
   -0.4273    0.7129    1.7011 H   0  0  0  0  0  0  0  0  0  7  0  0
    0.0985    1.7119    0.4296 H   0  0  0  0  0  0  0  0  0  8  0  0
    1.2529    0.8139    1.4924 H   0  0  0  0  0  0  0  0  0  9  0  0
  1  5  1  0
  1  4  1  0
  1  2  1  0
  2  6  1  0
  2  3  1  0
  3  8  1  0
  3  7  1  0
  3  9  1  0
M  END
>  <rmg_smiles>  (1) 
[CH2][CH]C

>  <rmg_adjacency_list>  (1) 
1 C u0 p0 c0 {2,S} {4,S} {5,S} {6,S}
2 C u0 p0 c0 {1,S} {3,S} {7,S}
3 C u0 p0 c0 {2,S} {8,S} {9,S}
4 H u0 p0 c0 {1,S}
5 H u0 p0 c0 {1,S}
6 H u0 p0 c0 {1,S}
7 H u0 p0 c0 {2,S}
8 H u0 p0 c0 {3,S}
9 H u0 p0 c0 {3,S}


>  <multiplicity>  (1) 
1

>  <reaction>  (1) 
rxn_415

>  <type>  (1) 
r1h

>  <role_mapnums>  (1) 
{"r1h_a": 3, "r1h_h": 7}

>  <role_mapidx>  (1) 
{"r1h_a": 2, "r1h_h": 6}

>  <ordered_mapped_smiles>  (1) 
[CH:1]([CH:2]([C:3]([H:7])([H:8])[H:9])[H:6])([H:4])[H:5]

>  <mol_properties>  (1) 
{"2": {"label": "donator", "atom_type": "Cs"}, "6": {"label": "d_hydrogen", "atom_type": "H0"}}

>  <level_of_theory>  (1) 
wb97xd/def2tzvp

>  <lot_method>  (1) 
wb97xd

>  <lot_basis>  (1) 
def2tzvp

>  <spin_multiplicity>  (1) 
1.0

>  <optical_isomers>  (1) 
1.0

>  <modes>  (1) 
IdealGasTranslation(mass=(42.047, 'amu')),         NonlinearRotor(             inertia = ([10.7194, 53.9495, 61.5633

>  <frequency_value>  (1) 
unknown

>  <frequency_units>  (1) 
unknown

>  <frequency_list>  (1) 
unknown

>  <arkane_path>  (1) 
/home/calvin/Dropbox/PersonalFolders/Calvin/HAb_Converged/rxn_415/output/Species/rxn_415_C=CC/arkane/output.py

>  <path_exists>  (1) 
True

>  <E0_value>  (1) 
-309367.8832800635

>  <E0_units>  (1) 
kJ/mol

>  <thermo_class>  (1) 
NASA

>  <Cp0_value>  (1) 
33.257888

>  <Cp0_units>  (1) 
J/(mol*K)

>  <CpInf_value>  (1) 
207.8618

>  <CpInf_units>  (1) 
J/(mol*K)

>  <Tmin_value>  (1) 
10.0

>  <Tmin_units>  (1) 
K

>  <Tmax_value>  (1) 
3000.0

>  <Tmax_units>  (1) 
K

>  <polynomials>  (1) 
[{"name": "polynomial1", "class": "NASAPolynomial", "Tmin_value": 10.0, "Tmin_units": "K", "Tmax_value": 531.9066404514887, "Tmax_units": "K", "coeffs": [4.0204367106395305, -0.0017312814973888466, 7.469369070858841e-05, -1.103989586823944e-07, 5.357411953540602e-11, -37208361.619619094, 6.984063163619424]}, {"name": "polynomial2", "class": "NASAPolynomial", "Tmin_value": 531.9066404514887, "Tmin_units": "K", "Tmax_value": 3000.0, "Tmax_units": "K", "coeffs": [-0.30746978474152303, 0.03081497539241948, -1.7087881859194207e-05, 4.635359552359225e-09, -4.926745989402899e-13, -37207901.209693715, 25.131571818199003]}]

>  <H298_value>  (1) 
-73937.54315081466

>  <H298_units>  (1) 
kcal/mol

>  <S298_value>  (1) 
63.235428095961645

>  <S298_units>  (1) 
cal/(mol*K)

>  <Cp_T_value_list>  (1) 
[15.255114438428619, 19.0471333221202, 22.6079143488244, 25.768633340780376, 30.96022164704354, 34.89993402421754, 40.97109580318192, 44.05842766532305, 45.61775865339882]

>  <Cp_T_units>  (1) 
cal/(mol*K)

>  <T_list>  (1) 
[300.0, 400.0, 500.0, 600.0, 800.0, 1000.0, 1500.0, 2000.0, 2400.0]

>  <T_units>  (1) 
K

>  <yaml_path>  (1) 
/home/calvin/Dropbox/PersonalFolders/Calvin/HAb_Converged/rxn_415/output/Species/rxn_415_C=CC/rxn_415_C=CC.yml

>  <frequencies_cm1>  (1) 
[200.92112347787997, 429.72220735495995, 590.1693193567598, 925.5460154002399, 944.49202789812, 949.7315376972799, 1024.05291981564, 1068.7501272635197, 1186.76613697304, 1322.2792252779197, 1396.37399688072, 1440.26090006084, 1466.0326959668, 1481.02332492036, 1720.5094379553598, 3007.2932161142003, 3065.80679802592, 3091.5648599612396, 3111.3280437122, 3123.2628641983597, 3201.2855514042]

>  <ZPE_kJmol>  (1) 
207.8343042708976

>  <E_elec_kJmol>  (1) 
-309575.71758433443

>  <E0_minus_Eelec_plus_ZPE_kJmol>  (1) 
0.0

>  <rxn>  (1) 
rxn_415

>  <species_type>  (1) 
r0

>  <species_folder>  (1) 
rxn_415_C=CC

>  <frequencies_cm1_list>  (1) 
[200.92112347787997, 429.72220735495995, 590.1693193567598, 925.5460154002399, 944.49202789812, 949.7315376972799, 1024.05291981564, 1068.7501272635197, 1186.76613697304, 1322.2792252779197, 1396.37399688072, 1440.26090006084, 1466.0326959668, 1481.02332492036, 1720.5094379553598, 3007.2932161142003, 3065.80679802592, 3091.5648599612396, 3111.3280437122, 3123.2628641983597, 3201.2855514042]

>  <E0_kJmol>  (1) 
-309368

>  <H298_kJmol>  (1) 
-309355

$$$$

     RDKit          3D

 15 14  0  0  0  0  0  0  0  0999 V2000
    1.1759    1.9301   -0.7579 H   0  0  0  0  0  0  0  0  0  1  0  0
    0.2021   -0.5905    1.4804 C   0  0  0  0  0  0  0  0  0  2  0  0
    0.2119   -0.5628   -0.0428 C   0  0  0  0  0  0  0  0  0  3  0  0
   -0.5909   -1.7138   -0.6376 C   0  0  0  0  0  0  0  0  0  4  0  0
   -0.3105    0.7716   -0.5717 C   0  0  0  0  0  0  0  0  0  5  0  0
    0.4181    1.8776   -0.1708 O   0  0  0  0  0  0  0  0  0  6  0  0
    0.6522   -1.5095    1.8610 H   0  0  0  0  0  0  0  0  0  7  0  0
   -0.8235   -0.5391    1.8580 H   0  0  0  0  0  0  0  0  0  8  0  0
    0.7538    0.2577    1.8869 H   0  0  0  0  0  0  0  0  0  9  0  0
    1.2502   -0.6535   -0.3819 H   0  0  0  0  0  0  0  0  0 10  0  0
   -1.6438   -1.6417   -0.3495 H   0  0  0  0  0  0  0  0  0 11  0  0
   -0.5414   -1.7119   -1.7290 H   0  0  0  0  0  0  0  0  0 12  0  0
   -0.2180   -2.6768   -0.2847 H   0  0  0  0  0  0  0  0  0 13  0  0
   -1.3406    0.9391   -0.2171 H   0  0  0  0  0  0  0  0  0 14  0  0
   -0.3826    0.7359   -1.6713 H   0  0  0  0  0  0  0  0  0 15  0  0
  1  6  1  0
  2  9  1  0
  2  8  1  0
  2  7  1  0
  2  3  1  0
  3  4  1  0
  3  5  1  0
  3 10  1  0
  4 13  1  0
  4 12  1  0
  4 11  1  0
  5 14  1  0
  5  6  1  0
  5 15  1  0
M  END
>  <rmg_smiles>  (2) 
CC(C)CO

>  <rmg_adjacency_list>  (2) 
1  O u0 p2 c0 {3,S} {15,S}
2  C u0 p0 c0 {3,S} {4,S} {5,S} {6,S}
3  C u0 p0 c0 {1,S} {2,S} {7,S} {8,S}
4  C u0 p0 c0 {2,S} {9,S} {10,S} {11,S}
5  C u0 p0 c0 {2,S} {12,S} {13,S} {14,S}
6  H u0 p0 c0 {2,S}
7  H u0 p0 c0 {3,S}
8  H u0 p0 c0 {3,S}
9  H u0 p0 c0 {4,S}
10 H u0 p0 c0 {4,S}
11 H u0 p0 c0 {4,S}
12 H u0 p0 c0 {5,S}
13 H u0 p0 c0 {5,S}
14 H u0 p0 c0 {5,S}
15 H u0 p0 c0 {1,S}


>  <multiplicity>  (2) 
1

>  <reaction>  (2) 
rxn_415

>  <type>  (2) 
r2h

>  <role_mapnums>  (2) 
{"r2h_a": 6, "r2h_h": 1}

>  <role_mapidx>  (2) 
{"r2h_a": 5, "r2h_h": 0}

>  <ordered_mapped_smiles>  (2) 
[H:1][O:6][C:5]([C:3]([C:2]([H:7])([H:8])[H:9])([C:4]([H:11])([H:12])[H:13])[H:10])([H:14])[H:15]

>  <mol_properties>  (2) 
{"0": {"label": "a_hydrogen", "atom_type": "H0"}, "5": {"label": "acceptor", "atom_type": "O2s"}}

>  <level_of_theory>  (2) 
wb97xd/def2tzvp

>  <lot_method>  (2) 
wb97xd

>  <lot_basis>  (2) 
def2tzvp

>  <spin_multiplicity>  (2) 
1.0

>  <optical_isomers>  (2) 
2.0

>  <modes>  (2) 
IdealGasTranslation(mass=(74.0732, 'amu')),         NonlinearRotor(             inertia = ([66.603, 143.905, 189.515

>  <frequency_value>  (2) 
unknown

>  <frequency_units>  (2) 
unknown

>  <frequency_list>  (2) 
unknown

>  <arkane_path>  (2) 
/home/calvin/Dropbox/PersonalFolders/Calvin/HAb_Converged/rxn_415/output/Species/rxn_415_CC[C]CO/arkane/output.py

>  <path_exists>  (2) 
True

>  <E0_value>  (2) 
-613201.798563127

>  <E0_units>  (2) 
kJ/mol

>  <thermo_class>  (2) 
NASA

>  <Cp0_value>  (2) 
33.257888

>  <Cp0_units>  (2) 
J/(mol*K)

>  <CpInf_value>  (2) 
357.522296

>  <CpInf_units>  (2) 
J/(mol*K)

>  <Tmin_value>  (2) 
10.0

>  <Tmin_units>  (2) 
K

>  <Tmax_value>  (2) 
3000.0

>  <Tmax_units>  (2) 
K

>  <polynomials>  (2) 
[{"name": "polynomial1", "class": "NASAPolynomial", "Tmin_value": 10.0, "Tmin_units": "K", "Tmax_value": 575.0651176416371, "Tmax_units": "K", "coeffs": [3.712805799436365, 0.02341794423636385, 4.945520881208784e-05, -8.422411516035852e-08, 3.9345456013228885e-11, -73751136.90729754, 10.481383297442903]}, {"name": "polynomial2", "class": "NASAPolynomial", "Tmin_value": 575.0651176416371, "Tmin_units": "K", "Tmax_value": 3000.0, "Tmax_units": "K", "coeffs": [-0.6878246335024606, 0.05402765028160735, -3.0387394291557736e-05, 8.336812494957577e-09, -8.939885093345157e-13, -73750630.77899487, 29.27712262817248]}]

>  <H298_value>  (2) 
-146553.90003462895

>  <H298_units>  (2) 
kcal/mol

>  <S298_value>  (2) 
79.77174717591569

>  <S298_units>  (2) 
cal/(mol*K)

>  <Cp_T_value_list>  (2) 
[26.298303224673802, 33.0069380139673, 39.18106842386457, 44.660864775466386, 53.63198804085297, 60.401649014178936, 70.73051971901154, 75.92834368294982, 78.56390633588433]

>  <Cp_T_units>  (2) 
cal/(mol*K)

>  <T_list>  (2) 
[300.0, 400.0, 500.0, 600.0, 800.0, 1000.0, 1500.0, 2000.0, 2400.0]

>  <T_units>  (2) 
K

>  <yaml_path>  (2) 
/home/calvin/Dropbox/PersonalFolders/Calvin/HAb_Converged/rxn_415/output/Species/rxn_415_CC[C]CO/rxn_415_CCCCO.yml

>  <frequencies_cm1>  (2) 
[130.82980431664, 216.90746530284, 234.24660323583998, 266.73431078476, 284.49233482228, 352.62656316731994, 430.94453074191995, 496.53797451855996, 825.04768524204, 903.1871111983199, 929.7966793133199, 953.3298380049599, 972.0423730019598, 1079.3527525975999, 1116.63361589988, 1149.4372047735199, 1195.51467627072, 1246.91406139092, 1321.76420137892, 1364.46311609868, 1379.29580438988, 1394.3345022406797, 1400.81006939744, 1419.04878240736, 1474.01899989396, 1475.3855299726397, 1489.2293723777598, 1494.17360180816, 1499.15903315048, 2968.2269366287196, 2974.66816885888, 3005.13698272372, 3008.8176868552396, 3047.7397596489996, 3073.490954599, 3077.9132931450795, 3086.88844295832, 3102.6138393411197, 3839.6611077073594]

>  <ZPE_kJmol>  (2) 
356.9742425885658

>  <E_elec_kJmol>  (2) 
-613558.7728057157

>  <E0_minus_Eelec_plus_ZPE_kJmol>  (2) 
0.0

>  <rxn>  (2) 
rxn_415

>  <species_type>  (2) 
p0

>  <species_folder>  (2) 
rxn_415_CC[C]CO

>  <frequencies_cm1_list>  (2) 
[130.82980431664, 216.90746530284, 234.24660323583998, 266.73431078476, 284.49233482228, 352.62656316731994, 430.94453074191995, 496.53797451855996, 825.04768524204, 903.1871111983199, 929.7966793133199, 953.3298380049599, 972.0423730019598, 1079.3527525975999, 1116.63361589988, 1149.4372047735199, 1195.51467627072, 1246.91406139092, 1321.76420137892, 1364.46311609868, 1379.29580438988, 1394.3345022406797, 1400.81006939744, 1419.04878240736, 1474.01899989396, 1475.3855299726397, 1489.2293723777598, 1494.17360180816, 1499.15903315048, 2968.2269366287196, 2974.66816885888, 3005.13698272372, 3008.8176868552396, 3047.7397596489996, 3073.490954599, 3077.9132931450795, 3086.88844295832, 3102.6138393411197, 3839.6611077073594]

>  <E0_kJmol>  (2) 
-613202

>  <H298_kJmol>  (2) 
-613182

$$$$

     RDKit          3D

 23 21  0  0  0  0  0  0  0  0999 V2000
    0.7963    0.3534   -2.8330 C   0  0  0  0  0  0  0  0  0  1  0  0
    1.5029    0.3881   -1.7014 C   0  0  0  0  0  0  0  0  0  2  0  0
    1.6375    1.5638   -0.8445 C   0  0  0  0  0  0  0  0  0  3  0  0
    0.7075   -0.5537   -3.4167 H   0  0  0  0  0  0  0  0  0  4  0  0
    0.2958    1.2379   -3.2113 H   0  0  0  0  0  0  0  0  0  5  0  0
    1.9809   -0.5254   -1.3596 H   0  0  0  0  0  0  0  0  0  6  0  0
    0.7834    1.5023    0.0386 H   0  0  0  0  0  0  0  0  0  7  0  0
    1.4075    2.5083   -1.3345 H   0  0  0  0  0  0  0  0  0  8  0  0
    2.5618    1.6104   -0.2717 H   0  0  0  0  0  0  0  0  0  9  0  0
   -0.4760   -1.0381    2.4981 C   0  0  0  0  0  0  0  0  0 10  0  0
   -0.4662   -1.0104    0.9749 C   0  0  0  0  0  0  0  0  0 11  0  0
   -1.2690   -2.1613    0.3802 C   0  0  0  0  0  0  0  0  0 12  0  0
   -0.9886    0.3240    0.4461 C   0  0  0  0  0  0  0  0  0 13  0  0
   -0.2600    1.4301    0.8470 O   0  0  0  0  0  1  0  0  0 14  0  0
   -0.0259   -1.9571    2.8788 H   0  0  0  0  0  0  0  0  0 15  0  0
   -1.5016   -0.9866    2.8758 H   0  0  0  0  0  0  0  0  0 16  0  0
    0.0757   -0.1899    2.9047 H   0  0  0  0  0  0  0  0  0 17  0  0
    0.5721   -1.1011    0.6359 H   0  0  0  0  0  0  0  0  0 18  0  0
   -2.3219   -2.0893    0.6683 H   0  0  0  0  0  0  0  0  0 19  0  0
   -1.2195   -2.1594   -0.7112 H   0  0  0  0  0  0  0  0  0 20  0  0
   -0.8961   -3.1244    0.7331 H   0  0  0  0  0  0  0  0  0 21  0  0
   -2.0187    0.4915    0.8007 H   0  0  0  0  0  0  0  0  0 22  0  0
   -1.0607    0.2883   -0.6536 H   0  0  0  0  0  0  0  0  0 23  0  0
  1  4  1  0
  1  5  1  0
  1  2  1  0
  2  6  1  0
  2  3  1  0
  3  8  1  0
  3  7  1  0
  3  9  1  0
 10 16  1  0
 10 15  1  0
 10 11  1  0
 10 17  1  0
 11 13  1  0
 11 12  1  0
 11 18  1  0
 12 19  1  0
 12 20  1  0
 12 21  1  0
 13 23  1  0
 13 22  1  0
 13 14  1  0
M  RAD  1  14   2
M  END
>  <rmg_smiles>  (3) 
CC(C)C[O].[CH2][CH]C

>  <rmg_adjacency_list>  (3) 
multiplicity 2
1  O u1 p2 c0 {5,S}
2  C u0 p0 c0 {3,S} {4,S} {5,S} {9,S}
3  C u0 p0 c0 {2,S} {10,S} {11,S} {12,S}
4  C u0 p0 c0 {2,S} {13,S} {14,S} {15,S}
5  C u0 p0 c0 {1,S} {2,S} {16,S} {17,S}
6  C u0 p0 c0 {7,S} {18,S} {19,S} {20,S}
7  C u0 p0 c0 {6,S} {8,S} {21,S}
8  C u0 p0 c0 {7,S} {22,S} {23,S}
9  H u0 p0 c0 {2,S}
10 H u0 p0 c0 {3,S}
11 H u0 p0 c0 {3,S}
12 H u0 p0 c0 {3,S}
13 H u0 p0 c0 {4,S}
14 H u0 p0 c0 {4,S}
15 H u0 p0 c0 {4,S}
16 H u0 p0 c0 {5,S}
17 H u0 p0 c0 {5,S}
18 H u0 p0 c0 {6,S}
19 H u0 p0 c0 {6,S}
20 H u0 p0 c0 {6,S}
21 H u0 p0 c0 {7,S}
22 H u0 p0 c0 {8,S}
23 H u0 p0 c0 {8,S}


>  <multiplicity>  (3) 
2

>  <reaction>  (3) 
rxn_415

>  <type>  (3) 
ts

>  <role_mapnums>  (3) 
{"*2": 7, "*1": 3, "*3": 14, "*0": 2, "*4": 13}

>  <role_mapidx>  (3) 
{"*2": 6, "*1": 2, "*3": 13, "*0": 1, "*4": 12}

>  <ordered_mapped_smiles>  (3) 
[CH:1]([CH:2]([C:3]([H:7])([H:8])[H:9])[H:6])([H:4])[H:5].[C:10]([C:11]([C:12]([H:19])([H:20])[H:21])([C:13]([O:14])([H:22])[H:23])[H:18])([H:15])([H:16])[H:17]

>  <mol_properties>  (3) 
{"1": {"label": "*0", "atom_type": "Cs"}, "2": {"label": "*1", "atom_type": "Cs"}, "6": {"label": "*2", "atom_type": "H0"}, "12": {"label": "*4", "atom_type": "Cs"}, "13": {"label": "*3", "atom_type": "O2s"}}

>  <level_of_theory>  (3) 
wb97xd/def2tzvp

>  <lot_method>  (3) 
wb97xd

>  <lot_basis>  (3) 
def2tzvp

>  <spin_multiplicity>  (3) 
2.0

>  <optical_isomers>  (3) 
2.0

>  <modes>  (3) 
IdealGasTranslation(mass=(115.112, 'amu')),         NonlinearRotor(             inertia = ([192.57, 470.966, 567.88

>  <frequency_value>  (3) 
-1512.07

>  <frequency_units>  (3) 
cm^-1

>  <frequency_list>  (3) 
unknown

>  <arkane_path>  (3) 
/home/calvin/Dropbox/PersonalFolders/Calvin/HAb_Converged/rxn_415/output/rxns/TS0/arkane/output.py

>  <path_exists>  (3) 
True

>  <E0_value>  (3) 
-920816.0

>  <E0_units>  (3) 
kJ/mol

>  <thermo_class>  (3) 
unknown

>  <Cp0_value>  (3) 
unknown

>  <Cp0_units>  (3) 
unknown

>  <CpInf_value>  (3) 
unknown

>  <CpInf_units>  (3) 
unknown

>  <Tmin_value>  (3) 
unknown

>  <Tmin_units>  (3) 
unknown

>  <Tmax_value>  (3) 
unknown

>  <Tmax_units>  (3) 
unknown

>  <polynomials>  (3) 
unknown

>  <H298_value>  (3) 
unknown

>  <H298_units>  (3) 
unknown

>  <S298_value>  (3) 
unknown

>  <S298_units>  (3) 
unknown

>  <Cp_T_value_list>  (3) 
unknown

>  <Cp_T_units>  (3) 
unknown

>  <T_list>  (3) 
unknown

>  <T_units>  (3) 
unknown

>  <yaml_path>  (3) 
unknown

>  <frequencies_cm1>  (3) 
unknown

>  <ZPE_kJmol>  (3) 
unknown

>  <E_elec_kJmol>  (3) 
unknown

>  <E0_minus_Eelec_plus_ZPE_kJmol>  (3) 
unknown

>  <rxn>  (3) 
unknown

>  <species_type>  (3) 
unknown

>  <species_folder>  (3) 
unknown

>  <frequencies_cm1_list>  (3) 
[]

>  <ts_imag_freq_cm1>  (3) 
-1530.4352

>  <ts_freq_out_path>  (3) 
/home/calvin/Dropbox/PersonalFolders/Calvin/HAb_Converged/rxn_415/output/rxns/TS0/geometry/freq.out

>  <E0_kJmol>  (3) 
-920816

>  <H298_kJmol>  (3) 
unknown

$$$$

     RDKit          3D

  8  7  0  0  0  0  0  0  0  0999 V2000
   -1.2262   -0.1032    0.0429 C   0  0  0  0  0  0  0  0  0  1  0  0
    0.0344    0.4295    0.2005 C   0  0  0  0  0  0  0  0  0  2  0  0
    1.2024   -0.1933   -0.1813 C   0  0  0  0  0  3  0  0  0  3  0  0
   -2.1090    0.4329    0.3624 H   0  0  0  0  0  0  0  0  0  4  0  0
   -1.3659   -1.0784   -0.4078 H   0  0  0  0  0  0  0  0  0  5  0  0
    0.1132    1.4113    0.6589 H   0  0  0  0  0  0  0  0  0  6  0  0
    2.1658    0.2743   -0.0323 H   0  0  0  0  0  0  0  0  0  7  0  0
    1.1853   -1.1731   -0.6434 H   0  0  0  0  0  0  0  0  0  8  0  0
  1  5  1  0
  1  4  1  0
  1  2  1  0
  2  6  1  0
  2  3  1  0
  3  8  1  0
  3  7  1  0
M  RAD  1   3   2
M  END
>  <rmg_smiles>  (4) 
[CH2][CH][CH2]

>  <rmg_adjacency_list>  (4) 
multiplicity 2
1 C u0 p0 c0 {2,S} {3,S} {4,S}
2 C u1 p0 c0 {1,S} {7,S} {8,S}
3 C u0 p0 c0 {1,S} {5,S} {6,S}
4 H u0 p0 c0 {1,S}
5 H u0 p0 c0 {3,S}
6 H u0 p0 c0 {3,S}
7 H u0 p0 c0 {2,S}
8 H u0 p0 c0 {2,S}


>  <multiplicity>  (4) 
2

>  <reaction>  (4) 
rxn_415

>  <type>  (4) 
r1

>  <role_mapnums>  (4) 
{}

>  <role_mapidx>  (4) 
{}

>  <ordered_mapped_smiles>  (4) 
[CH:1]([CH:2]([C:3]([H:7])[H:8])[H:6])([H:4])[H:5]

>  <level_of_theory>  (4) 
wb97xd/def2tzvp

>  <lot_method>  (4) 
wb97xd

>  <lot_basis>  (4) 
def2tzvp

>  <spin_multiplicity>  (4) 
2.0

>  <optical_isomers>  (4) 
1.0

>  <modes>  (4) 
IdealGasTranslation(mass=(41.0391, 'amu')),         NonlinearRotor(             inertia = ([9.18678, 48.3525, 57.5393

>  <frequency_value>  (4) 
unknown

>  <frequency_units>  (4) 
unknown

>  <frequency_list>  (4) 
unknown

>  <arkane_path>  (4) 
/home/calvin/Dropbox/PersonalFolders/Calvin/HAb_Converged/rxn_415/output/Species/rxn_415_[CH2]C=C/arkane/output.py

>  <path_exists>  (4) 
True

>  <E0_value>  (4) 
-307695.8239419476

>  <E0_units>  (4) 
kJ/mol

>  <thermo_class>  (4) 
NASA

>  <Cp0_value>  (4) 
33.257888

>  <Cp0_units>  (4) 
J/(mol*K)

>  <CpInf_value>  (4) 
182.918384

>  <CpInf_units>  (4) 
J/(mol*K)

>  <Tmin_value>  (4) 
10.0

>  <Tmin_units>  (4) 
K

>  <Tmax_value>  (4) 
3000.0

>  <Tmax_units>  (4) 
K

>  <polynomials>  (4) 
[{"name": "polynomial1", "class": "NASAPolynomial", "Tmin_value": 10.0, "Tmin_units": "K", "Tmax_value": 532.7267436952769, "Tmax_units": "K", "coeffs": [4.120476242700736, -0.01110500746607337, 0.00013118962632593044, -2.295122998736072e-07, 1.327617546042694e-10, -37007258.9235638, 6.732627685136077]}, {"name": "polynomial2", "class": "NASAPolynomial", "Tmin_value": 532.7267436952769, "Tmin_units": "K", "Tmax_value": 3000.0, "Tmax_units": "K", "coeffs": [0.911699466954835, 0.027118425571894478, -1.6222639840263127e-05, 4.752540164453407e-09, -5.404199600895895e-13, -37007117.54936121, 18.310519838179516]}]

>  <H298_value>  (4) 
-73538.08078140329

>  <H298_units>  (4) 
kcal/mol

>  <S298_value>  (4) 
61.52456331648896

>  <S298_units>  (4) 
cal/(mol*K)

>  <Cp_T_value_list>  (4) 
[14.853530963099974, 18.637467651362382, 21.80750730434748, 24.44088072021761, 28.68710434193412, 31.834263999492475, 36.54938793194129, 39.012029638884556, 40.38558701326713]

>  <Cp_T_units>  (4) 
cal/(mol*K)

>  <T_list>  (4) 
[300.0, 400.0, 500.0, 600.0, 800.0, 1000.0, 1500.0, 2000.0, 2400.0]

>  <T_units>  (4) 
K

>  <yaml_path>  (4) 
/home/calvin/Dropbox/PersonalFolders/Calvin/HAb_Converged/rxn_415/output/Species/rxn_415_[CH2]C=C/rxn_415_CH2C=C.yml

>  <frequencies_cm1>  (4) 
[432.19432207015996, 530.70122648556, 552.78545127468, 794.8604177753199, 818.87426543936, 934.1091460942799, 1008.91808417036, 1035.1568350780801, 1186.33351689788, 1269.2386306662397, 1410.5886564931197, 1500.8483115392, 1510.5101598844399, 3121.9787379435197, 3123.6542823616, 3129.68349547256, 3223.1843675896794, 3225.69081723148]

>  <ZPE_kJmol>  (4) 
172.31799451557927

>  <E_elec_kJmol>  (4) 
-307868.1419364632

>  <E0_minus_Eelec_plus_ZPE_kJmol>  (4) 
0.0

>  <rxn>  (4) 
rxn_415

>  <species_type>  (4) 
p1

>  <species_folder>  (4) 
rxn_415_[CH2]C=C

>  <frequencies_cm1_list>  (4) 
[432.19432207015996, 530.70122648556, 552.78545127468, 794.8604177753199, 818.87426543936, 934.1091460942799, 1008.91808417036, 1035.1568350780801, 1186.33351689788, 1269.2386306662397, 1410.5886564931197, 1500.8483115392, 1510.5101598844399, 3121.9787379435197, 3123.6542823616, 3129.68349547256, 3223.1843675896794, 3225.69081723148]

>  <E0_kJmol>  (4) 
-307696

>  <H298_kJmol>  (4) 
-307683

$$$$

     RDKit          3D

 14 13  0  0  0  0  0  0  0  0999 V2000
    0.1523    1.4701    0.0231 C   0  0  0  0  0  0  0  0  0  1  0  0
    0.0724   -0.0001   -0.3729 C   0  0  0  0  0  0  0  0  0  2  0  0
    1.2474   -0.8003    0.1743 C   0  0  0  0  0  0  0  0  0  3  0  0
   -0.0121   -0.1270   -1.8938 C   0  0  0  0  0  0  0  0  0  4  0  0
   -0.1587   -1.3813   -2.3858 O   0  0  0  0  0  1  0  0  0  5  0  0
    1.0591    1.9320   -0.3785 H   0  0  0  0  0  0  0  0  0  6  0  0
    0.1790    1.5804    1.1081 H   0  0  0  0  0  0  0  0  0  7  0  0
   -0.7050    2.0354   -0.3496 H   0  0  0  0  0  0  0  0  0  8  0  0
   -0.8541   -0.4208    0.0314 H   0  0  0  0  0  0  0  0  0  9  0  0
    1.2629   -0.7766    1.2653 H   0  0  0  0  0  0  0  0  0 10  0  0
    1.1914   -1.8416   -0.1445 H   0  0  0  0  0  0  0  0  0 11  0  0
    2.1953   -0.3860   -0.1823 H   0  0  0  0  0  0  0  0  0 12  0  0
    0.9157    0.2677   -2.3596 H   0  0  0  0  0  0  0  0  0 13  0  0
   -0.8026    0.5214   -2.3140 H   0  0  0  0  0  0  0  0  0 14  0  0
  1  8  1  0
  1  7  1  0
  1  6  1  0
  1  2  1  0
  2  9  1  0
  2  3  1  0
  2  4  1  0
  3 11  1  0
  3 12  1  0
  3 10  1  0
  4 14  1  0
  4 13  1  0
  4  5  1  0
M  RAD  1   5   2
M  END
>  <rmg_smiles>  (5) 
CC(C)C[O]

>  <rmg_adjacency_list>  (5) 
multiplicity 2
1  O u1 p2 c0 {5,S}
2  C u0 p0 c0 {3,S} {4,S} {5,S} {6,S}
3  C u0 p0 c0 {2,S} {7,S} {8,S} {9,S}
4  C u0 p0 c0 {2,S} {10,S} {11,S} {12,S}
5  C u0 p0 c0 {1,S} {2,S} {13,S} {14,S}
6  H u0 p0 c0 {2,S}
7  H u0 p0 c0 {3,S}
8  H u0 p0 c0 {3,S}
9  H u0 p0 c0 {3,S}
10 H u0 p0 c0 {4,S}
11 H u0 p0 c0 {4,S}
12 H u0 p0 c0 {4,S}
13 H u0 p0 c0 {5,S}
14 H u0 p0 c0 {5,S}


>  <multiplicity>  (5) 
2

>  <reaction>  (5) 
rxn_415

>  <type>  (5) 
r2

>  <role_mapnums>  (5) 
{}

>  <role_mapidx>  (5) 
{}

>  <ordered_mapped_smiles>  (5) 
[C:1]([C:2]([C:3]([H:10])([H:11])[H:12])([C:4]([O:5])([H:13])[H:14])[H:9])([H:6])([H:7])[H:8]

>  <level_of_theory>  (5) 
wb97xd/def2tzvp

>  <lot_method>  (5) 
wb97xd

>  <lot_basis>  (5) 
def2tzvp

>  <spin_multiplicity>  (5) 
2.0

>  <optical_isomers>  (5) 
2.0

>  <modes>  (5) 
IdealGasTranslation(mass=(73.0653, 'amu')),         NonlinearRotor(             inertia = ([65.5347, 137.197, 184.039

>  <frequency_value>  (5) 
unknown

>  <frequency_units>  (5) 
unknown

>  <frequency_list>  (5) 
unknown

>  <arkane_path>  (5) 
/home/calvin/Dropbox/PersonalFolders/Calvin/HAb_Converged/rxn_415/output/Species/rxn_415_CC[C]C[O]/arkane/output.py

>  <path_exists>  (5) 
True

>  <E0_value>  (5) 
-611470.3785911108

>  <E0_units>  (5) 
kJ/mol

>  <thermo_class>  (5) 
NASA

>  <Cp0_value>  (5) 
33.257888

>  <Cp0_units>  (5) 
J/(mol*K)

>  <CpInf_value>  (5) 
332.57888

>  <CpInf_units>  (5) 
J/(mol*K)

>  <Tmin_value>  (5) 
10.0

>  <Tmin_units>  (5) 
K

>  <Tmax_value>  (5) 
3000.0

>  <Tmax_units>  (5) 
K

>  <polynomials>  (5) 
[{"name": "polynomial1", "class": "NASAPolynomial", "Tmin_value": 10.0, "Tmin_units": "K", "Tmax_value": 499.7525485207683, "Tmax_units": "K", "coeffs": [3.738111829082219, 0.020389756305539054, 6.140084068983483e-05, -1.1214221119589229e-07, 5.918349684163085e-11, -73542894.08623853, 11.171786778239893]}, {"name": "polynomial2", "class": "NASAPolynomial", "Tmin_value": 499.7525485207683, "Tmin_units": "K", "Tmax_value": 3000.0, "Tmax_units": "K", "coeffs": [-0.005968818901845908, 0.05035721006842606, -2.854596829989094e-05, 7.846160358335144e-09, -8.403500432756229e-13, -73542519.8631895, 26.637762062770207]}]

>  <H298_value>  (5) 
-146140.21220443596

>  <H298_units>  (5) 
kcal/mol

>  <S298_value>  (5) 
80.27932870068969

>  <S298_units>  (5) 
cal/(mol*K)

>  <Cp_T_value_list>  (5) 
[25.501147373615773, 31.906875454588988, 37.686163679996575, 42.760053522599016, 51.03823186600041, 57.25357196318279, 66.62693382213317, 71.23789590153302, 73.54866104045787]

>  <Cp_T_units>  (5) 
cal/(mol*K)

>  <T_list>  (5) 
[300.0, 400.0, 500.0, 600.0, 800.0, 1000.0, 1500.0, 2000.0, 2400.0]

>  <T_units>  (5) 
K

>  <yaml_path>  (5) 
/home/calvin/Dropbox/PersonalFolders/Calvin/HAb_Converged/rxn_415/output/Species/rxn_415_CC[C]C[O]/rxn_415_CCCCO.yml

>  <frequencies_cm1>  (5) 
[124.82119216164, 221.32980384892, 239.85006325695997, 265.84160269316, 344.39991475395993, 394.72118317891994, 481.29326710815997, 506.4676352912799, 825.8991914217199, 928.5743559263599, 934.7752436703199, 968.931628652, 1009.0142219648399, 1081.85233525408, 1143.2637849708399, 1190.6322497081999, 1217.64696995708, 1308.1332355187199, 1340.6758789501998, 1353.73001804352, 1370.38932442984, 1396.3121940128399, 1413.0676381936398, 1473.8816601875599, 1479.6361938857199, 1489.09203267136, 1497.6826313066797, 2852.53883494268, 2905.5382276424402, 3002.67860197916, 3004.57388992748, 3014.13273349292, 3070.9021011333593, 3077.44633814332, 3089.20948399648, 3099.81897631588]

>  <ZPE_kJmol>  (5) 
317.72080068245094

>  <E_elec_kJmol>  (5) 
-611788.0993917933

>  <E0_minus_Eelec_plus_ZPE_kJmol>  (5) 
0.0

>  <rxn>  (5) 
rxn_415

>  <species_type>  (5) 
r1

>  <species_folder>  (5) 
rxn_415_CC[C]C[O]

>  <frequencies_cm1_list>  (5) 
[124.82119216164, 221.32980384892, 239.85006325695997, 265.84160269316, 344.39991475395993, 394.72118317891994, 481.29326710815997, 506.4676352912799, 825.8991914217199, 928.5743559263599, 934.7752436703199, 968.931628652, 1009.0142219648399, 1081.85233525408, 1143.2637849708399, 1190.6322497081999, 1217.64696995708, 1308.1332355187199, 1340.6758789501998, 1353.73001804352, 1370.38932442984, 1396.3121940128399, 1413.0676381936398, 1473.8816601875599, 1479.6361938857199, 1489.09203267136, 1497.6826313066797, 2852.53883494268, 2905.5382276424402, 3002.67860197916, 3004.57388992748, 3014.13273349292, 3070.9021011333593, 3077.44633814332, 3089.20948399648, 3099.81897631588]

>  <E0_kJmol>  (5) 
-611470

>  <H298_kJmol>  (5) 
-611451

$$$$
