
     RDKit          3D

 15 14  0  0  0  0  0  0  0  0999 V2000
    0.7178   -1.0711   -1.5522 C   0  0  0  0  0  0  0  0  0  1  0  0
   -0.2931   -0.4842   -0.9085 C   0  0  0  0  0  0  0  0  0  2  0  0
   -0.1965    0.4601    0.2129 C   0  0  0  0  0  0  0  0  0  3  0  0
    1.1442    0.5574    0.9044 C   0  0  0  0  0  0  0  0  0  4  0  0
   -1.3807    0.4298    1.1582 C   0  0  0  0  0  0  0  0  0  5  0  0
    0.5356   -1.7278   -2.3932 H   0  0  0  0  0  0  0  0  0  6  0  0
    1.7501   -0.9283   -1.2569 H   0  0  0  0  0  0  0  0  0  7  0  0
   -1.3040   -0.6839   -1.2584 H   0  0  0  0  0  0  0  0  0  8  0  0
   -0.2783    1.4298   -0.2781 H   0  0  0  0  0  0  0  0  0  9  0  0
    1.9382    0.8207    0.2037 H   0  0  0  0  0  0  0  0  0 10  0  0
    1.4110   -0.3915    1.3808 H   0  0  0  0  0  0  0  0  0 11  0  0
    1.1189    1.3272    1.6777 H   0  0  0  0  0  0  0  0  0 12  0  0
   -1.3539   -0.4604    1.7949 H   0  0  0  0  0  0  0  0  0 13  0  0
   -2.3260    0.4179    0.6114 H   0  0  0  0  0  0  0  0  0 14  0  0
   -1.3790    1.3039    1.8132 H   0  0  0  0  0  0  0  0  0 15  0  0
  1  7  1  0
  1  6  1  0
  1  2  1  0
  2  8  1  0
  2  3  1  0
  3  4  1  0
  3  5  1  0
  3  9  1  0
  4 12  1  0
  4 10  1  0
  4 11  1  0
  5 14  1  0
  5 15  1  0
  5 13  1  0
M  END
>  <rmg_smiles>  (1) 
[CH2][CH]C(C)C

>  <rmg_adjacency_list>  (1) 
1  C u0 p0 c0 {2,S} {3,S} {4,S} {6,S}
2  C u0 p0 c0 {1,S} {7,S} {8,S} {9,S}
3  C u0 p0 c0 {1,S} {10,S} {11,S} {12,S}
4  C u0 p0 c0 {1,S} {5,S} {13,S}
5  C u0 p0 c0 {4,S} {14,S} {15,S}
6  H u0 p0 c0 {1,S}
7  H u0 p0 c0 {2,S}
8  H u0 p0 c0 {2,S}
9  H u0 p0 c0 {2,S}
10 H u0 p0 c0 {3,S}
11 H u0 p0 c0 {3,S}
12 H u0 p0 c0 {3,S}
13 H u0 p0 c0 {4,S}
14 H u0 p0 c0 {5,S}
15 H u0 p0 c0 {5,S}


>  <multiplicity>  (1) 
1

>  <reaction>  (1) 
rxn_1104

>  <type>  (1) 
r1h

>  <role_mapnums>  (1) 
{"r1h_a": 3, "r1h_h": 9}

>  <role_mapidx>  (1) 
{"r1h_a": 2, "r1h_h": 8}

>  <ordered_mapped_smiles>  (1) 
[CH:1]([CH:2]([C:3]([C:4]([H:10])([H:11])[H:12])([C:5]([H:13])([H:14])[H:15])[H:9])[H:8])([H:6])[H:7]

>  <mol_properties>  (1) 
{"2": {"label": "donator", "atom_type": "Cs"}, "8": {"label": "d_hydrogen", "atom_type": "H0"}}

>  <level_of_theory>  (1) 
wb97xd/def2tzvp

>  <lot_method>  (1) 
wb97xd

>  <lot_basis>  (1) 
def2tzvp

>  <spin_multiplicity>  (1) 
1.0

>  <optical_isomers>  (1) 
1.0

>  <modes>  (1) 
IdealGasTranslation(mass=(70.0782, 'amu')),         NonlinearRotor(             inertia = ([66.6607, 141.472, 183.078

>  <frequency_value>  (1) 
unknown

>  <frequency_units>  (1) 
unknown

>  <frequency_list>  (1) 
unknown

>  <arkane_path>  (1) 
/home/calvin/Dropbox/PersonalFolders/Calvin/HAb_Converged/rxn_1104/output/Species/rxn_1104_C=CC[C]C/arkane/output.py

>  <path_exists>  (1) 
True

>  <E0_value>  (1) 
-515673.39324585546

>  <E0_units>  (1) 
kJ/mol

>  <thermo_class>  (1) 
NASA

>  <Cp0_value>  (1) 
33.257888

>  <Cp0_units>  (1) 
J/(mol*K)

>  <CpInf_value>  (1) 
357.522296

>  <CpInf_units>  (1) 
J/(mol*K)

>  <Tmin_value>  (1) 
10.0

>  <Tmin_units>  (1) 
K

>  <Tmax_value>  (1) 
3000.0

>  <Tmax_units>  (1) 
K

>  <polynomials>  (1) 
[{"name": "polynomial1", "class": "NASAPolynomial", "Tmin_value": 10.0, "Tmin_units": "K", "Tmax_value": 762.6259256662777, "Tmax_units": "K", "coeffs": [3.7805630066461116, 0.019797986670776584, 5.857266645022857e-05, -8.86131018261695e-08, 3.7243189367650955e-11, -62021181.75094403, 9.748211811202758]}, {"name": "polynomial2", "class": "NASAPolynomial", "Tmin_value": 762.6259256662777, "Tmin_units": "K", "Tmax_value": 3000.0, "Tmax_units": "K", "coeffs": [-0.4157030903016456, 0.0531989962048097, -2.952908804328555e-05, 7.989483937703187e-09, -8.452857033515653e-13, -62020872.97693975, 26.683780974058042]}]

>  <H298_value>  (1) 
-123244.19551150435

>  <H298_units>  (1) 
kcal/mol

>  <S298_value>  (1) 
77.6575042108039

>  <S298_units>  (1) 
cal/(mol*K)

>  <Cp_T_value_list>  (1) 
[25.636186139339337, 32.49792347530389, 38.8971519295187, 44.57662331657021, 53.633241428972816, 60.407904667519965, 70.79938350105355, 76.0250308583244, 78.64651051431285]

>  <Cp_T_units>  (1) 
cal/(mol*K)

>  <T_list>  (1) 
[300.0, 400.0, 500.0, 600.0, 800.0, 1000.0, 1500.0, 2000.0, 2400.0]

>  <T_units>  (1) 
K

>  <yaml_path>  (1) 
/home/calvin/Dropbox/PersonalFolders/Calvin/HAb_Converged/rxn_1104/output/Species/rxn_1104_C=CC[C]C/rxn_1104_C=CCCC.yml

>  <frequencies_cm1>  (1) 
[93.77555152992, 225.48432996752, 247.28700835851998, 315.42810368887996, 324.58866210575997, 349.19307050732, 507.29854051499996, 697.7200434385999, 806.34888421568, 929.2473204877199, 937.7005794166399, 952.3409921188799, 965.8071503314, 1001.86569024672, 1033.4400887480801, 1123.83021651524, 1181.8562424692398, 1216.2804398783999, 1311.19591097144, 1330.56767655916, 1335.24409356208, 1388.0924125848, 1406.48906625708, 1448.35707575312, 1473.26363150876, 1475.5846725469198, 1487.4233552386, 1496.81739115636, 1715.9840946294798, 3005.1781846356403, 3007.41682184996, 3013.4735029022, 3074.4317315878397, 3079.6025715337996, 3091.8944752566, 3093.5974876159594, 3095.41723872576, 3114.39071916492, 3199.6031400007996]

>  <ZPE_kJmol>  (1) 
356.20924482727736

>  <E_elec_kJmol>  (1) 
-516029.60249068274

>  <E0_minus_Eelec_plus_ZPE_kJmol>  (1) 
0.0

>  <rxn>  (1) 
rxn_1104

>  <species_type>  (1) 
r1

>  <species_folder>  (1) 
rxn_1104_C=CC[C]C

>  <frequencies_cm1_list>  (1) 
[93.77555152992, 225.48432996752, 247.28700835851998, 315.42810368887996, 324.58866210575997, 349.19307050732, 507.29854051499996, 697.7200434385999, 806.34888421568, 929.2473204877199, 937.7005794166399, 952.3409921188799, 965.8071503314, 1001.86569024672, 1033.4400887480801, 1123.83021651524, 1181.8562424692398, 1216.2804398783999, 1311.19591097144, 1330.56767655916, 1335.24409356208, 1388.0924125848, 1406.48906625708, 1448.35707575312, 1473.26363150876, 1475.5846725469198, 1487.4233552386, 1496.81739115636, 1715.9840946294798, 3005.1781846356403, 3007.41682184996, 3013.4735029022, 3074.4317315878397, 3079.6025715337996, 3091.8944752566, 3093.5974876159594, 3095.41723872576, 3114.39071916492, 3199.6031400007996]

>  <E0_kJmol>  (1) 
-515673

>  <H298_kJmol>  (1) 
-515654

$$$$

     RDKit          3D

  9  8  0  0  0  0  0  0  0  0999 V2000
   -1.7609   -0.1305   -0.0245 C   0  0  0  0  0  0  0  0  0  1  0  0
   -0.4447    0.0020    0.6895 C   0  0  0  0  0  0  0  0  0  2  0  0
    1.0250    0.1102   -0.2883 S   0  0  0  0  0  0  0  0  0  3  0  0
   -2.5765   -0.2163    0.6967 H   0  0  0  0  0  0  0  0  0  4  0  0
   -1.7692   -1.0255   -0.6520 H   0  0  0  0  0  0  0  0  0  5  0  0
   -1.9618    0.7294   -0.6694 H   0  0  0  0  0  0  0  0  0  6  0  0
   -0.4102    0.7649    1.4644 H   0  0  0  0  0  0  0  0  0  7  0  0
    0.8107   -1.0002   -1.0109 H   0  0  0  0  0  0  0  0  0  8  0  0
   -0.3709   -0.9359    1.2359 H   0  0  0  0  0  0  0  0  0  9  0  0
  1  5  1  0
  1  4  1  0
  1  6  1  0
  1  2  1  0
  2  9  1  0
  2  7  1  0
  2  3  1  0
  3  8  1  0
M  END
>  <rmg_smiles>  (2) 
CCS

>  <rmg_adjacency_list>  (2) 
1 S u0 p2 c0 {2,S} {9,S}
2 C u0 p0 c0 {1,S} {3,S} {4,S} {5,S}
3 C u0 p0 c0 {2,S} {6,S} {7,S} {8,S}
4 H u0 p0 c0 {2,S}
5 H u0 p0 c0 {2,S}
6 H u0 p0 c0 {3,S}
7 H u0 p0 c0 {3,S}
8 H u0 p0 c0 {3,S}
9 H u0 p0 c0 {1,S}


>  <multiplicity>  (2) 
1

>  <reaction>  (2) 
rxn_1104

>  <type>  (2) 
r2h

>  <role_mapnums>  (2) 
{"r2h_a": 2, "r2h_h": 9}

>  <role_mapidx>  (2) 
{"r2h_a": 1, "r2h_h": 8}

>  <ordered_mapped_smiles>  (2) 
[C:1]([C:2]([S:3][H:8])([H:7])[H:9])([H:4])([H:5])[H:6]

>  <mol_properties>  (2) 
{"1": {"label": "acceptor", "atom_type": "Cs"}, "8": {"label": "a_hydrogen", "atom_type": "H0"}}

>  <level_of_theory>  (2) 
wb97xd/def2tzvp

>  <lot_method>  (2) 
wb97xd

>  <lot_basis>  (2) 
def2tzvp

>  <spin_multiplicity>  (2) 
1.0

>  <optical_isomers>  (2) 
2.0

>  <modes>  (2) 
IdealGasTranslation(mass=(62.019, 'amu')),         NonlinearRotor(             inertia = ([17.3187, 95.472, 104.033

>  <frequency_value>  (2) 
unknown

>  <frequency_units>  (2) 
unknown

>  <frequency_list>  (2) 
unknown

>  <arkane_path>  (2) 
/home/calvin/Dropbox/PersonalFolders/Calvin/HAb_Converged/rxn_1104/output/Species/rxn_1104_CCS/arkane/output.py

>  <path_exists>  (2) 
True

>  <E0_value>  (2) 
-1254880.5529024522

>  <E0_units>  (2) 
kJ/mol

>  <thermo_class>  (2) 
NASA

>  <Cp0_value>  (2) 
33.257888

>  <Cp0_units>  (2) 
J/(mol*K)

>  <CpInf_value>  (2) 
207.8618

>  <CpInf_units>  (2) 
J/(mol*K)

>  <Tmin_value>  (2) 
10.0

>  <Tmin_units>  (2) 
K

>  <Tmax_value>  (2) 
3000.0

>  <Tmax_units>  (2) 
K

>  <polynomials>  (2) 
[{"name": "polynomial1", "class": "NASAPolynomial", "Tmin_value": 10.0, "Tmin_units": "K", "Tmax_value": 456.94948299224984, "Tmax_units": "K", "coeffs": [3.912577314484764, 0.006155835235539537, 5.7903825438107485e-05, -1.0305013689181765e-07, 5.821300208274409e-11, -150927266.1091598, 9.021117963799174]}, {"name": "polynomial2", "class": "NASAPolynomial", "Tmin_value": 456.94948299224984, "Tmin_units": "K", "Tmax_value": 3000.0, "Tmax_units": "K", "coeffs": [1.355855578836548, 0.028536757084491292, -1.5565109771775804e-05, 4.138069148493327e-09, -4.3071999280991065e-13, -150927032.45208073, 19.35342692911781]}]

>  <H298_value>  (2) 
-299920.11857407144

>  <H298_units>  (2) 
kcal/mol

>  <S298_value>  (2) 
69.39854649104441

>  <S298_units>  (2) 
cal/(mol*K)

>  <Cp_T_value_list>  (2) 
[17.20889788741788, 20.934361161930582, 24.290211927280414, 27.249513376784144, 32.124901067035445, 35.83897523204632, 41.58221183782978, 44.477584292835935, 45.911331144631184]

>  <Cp_T_units>  (2) 
cal/(mol*K)

>  <T_list>  (2) 
[300.0, 400.0, 500.0, 600.0, 800.0, 1000.0, 1500.0, 2000.0, 2400.0]

>  <T_units>  (2) 
K

>  <yaml_path>  (2) 
/home/calvin/Dropbox/PersonalFolders/Calvin/HAb_Converged/rxn_1104/output/Species/rxn_1104_CCS/rxn_1104_CCS.yml

>  <frequencies_cm1>  (2) 
[202.32885546847996, 256.50936964327997, 331.52431727896, 667.1482247939599, 735.969151671, 875.5955641825599, 988.159187548, 1063.6273562148, 1117.6087278153198, 1273.38628979952, 1303.10660226448, 1402.5542836687198, 1466.616389719, 1477.4456255686398, 1483.85938985752, 2700.25656848636, 3013.3430301811195, 3044.51914353392, 3080.6051513905195, 3088.40604671404, 3107.9357529641197]

>  <ZPE_kJmol>  (2) 
195.4728851436989

>  <E_elec_kJmol>  (2) 
-1255076.025787596

>  <E0_minus_Eelec_plus_ZPE_kJmol>  (2) 
0.0

>  <rxn>  (2) 
rxn_1104

>  <species_type>  (2) 
p0

>  <species_folder>  (2) 
rxn_1104_CCS

>  <frequencies_cm1_list>  (2) 
[202.32885546847996, 256.50936964327997, 331.52431727896, 667.1482247939599, 735.969151671, 875.5955641825599, 988.159187548, 1063.6273562148, 1117.6087278153198, 1273.38628979952, 1303.10660226448, 1402.5542836687198, 1466.616389719, 1477.4456255686398, 1483.85938985752, 2700.25656848636, 3013.3430301811195, 3044.51914353392, 3080.6051513905195, 3088.40604671404, 3107.9357529641197]

>  <E0_kJmol>  (2) 
-1.25488e+06

>  <H298_kJmol>  (2) 
-1.25487e+06

$$$$

     RDKit          3D

 23 21  0  0  0  0  0  0  0  0999 V2000
   -1.7615    1.2828   -1.0066 C   0  0  0  0  0  0  0  0  0  1  0  0
   -0.4454    1.4153   -0.2926 C   0  0  0  0  0  3  0  0  0  2  0  0
    1.0243    1.5235   -1.2704 S   0  0  0  0  0  0  0  0  0  3  0  0
   -2.5772    1.1970   -0.2854 H   0  0  0  0  0  0  0  0  0  4  0  0
   -1.7699    0.3878   -1.6341 H   0  0  0  0  0  0  0  0  0  5  0  0
   -1.9624    2.1427   -1.6515 H   0  0  0  0  0  0  0  0  0  6  0  0
   -0.4109    2.1782    0.4823 H   0  0  0  0  0  0  0  0  0  7  0  0
    0.8100    0.4131   -1.9930 H   0  0  0  0  0  0  0  0  0  8  0  0
    0.6618   -2.4842   -0.7656 C   0  0  0  0  0  0  0  0  0  9  0  0
   -0.3491   -1.8973   -0.1218 C   0  0  0  0  0  0  0  0  0 10  0  0
   -0.2526   -0.9530    0.9996 C   0  0  0  0  0  0  0  0  0 11  0  0
    1.0882   -0.8557    1.6910 C   0  0  0  0  0  0  0  0  0 12  0  0
   -1.4367   -0.9832    1.9448 C   0  0  0  0  0  0  0  0  0 13  0  0
    0.4795   -3.1408   -1.6065 H   0  0  0  0  0  0  0  0  0 14  0  0
    1.6940   -2.3414   -0.4703 H   0  0  0  0  0  0  0  0  0 15  0  0
   -1.3600   -2.0969   -0.4718 H   0  0  0  0  0  0  0  0  0 16  0  0
   -0.3494    0.1948    0.4184 H   0  0  0  0  0  0  0  0  0 17  0  0
    1.8822   -0.5924    0.9904 H   0  0  0  0  0  0  0  0  0 18  0  0
    1.3550   -1.8045    2.1674 H   0  0  0  0  0  0  0  0  0 19  0  0
    1.0628   -0.0859    2.4644 H   0  0  0  0  0  0  0  0  0 20  0  0
   -1.4100   -1.8735    2.5815 H   0  0  0  0  0  0  0  0  0 21  0  0
   -2.3820   -0.9952    1.3981 H   0  0  0  0  0  0  0  0  0 22  0  0
   -1.4350   -0.1092    2.5998 H   0  0  0  0  0  0  0  0  0 23  0  0
  1  4  1  0
  1  5  1  0
  1  6  1  0
  1  2  1  0
  2  3  1  0
  2  7  1  0
  3  8  1  0
  9 15  1  0
  9 14  1  0
  9 10  1  0
 10 16  1  0
 10 11  1  0
 11 13  1  0
 11 17  1  0
 11 12  1  0
 12 19  1  0
 12 18  1  0
 12 20  1  0
 13 23  1  0
 13 21  1  0
 13 22  1  0
M  RAD  1   2   2
M  END
>  <rmg_smiles>  (3) 
[CH2][CH]C(C)C.C[CH]S

>  <rmg_adjacency_list>  (3) 
multiplicity 2
1  S u0 p2 c0 {7,S} {23,S}
2  C u0 p0 c0 {3,S} {4,S} {6,S} {9,S}
3  C u0 p0 c0 {2,S} {10,S} {11,S} {12,S}
4  C u0 p0 c0 {2,S} {13,S} {14,S} {15,S}
5  C u0 p0 c0 {7,S} {16,S} {17,S} {18,S}
6  C u0 p0 c0 {2,S} {8,S} {19,S}
7  C u1 p0 c0 {1,S} {5,S} {20,S}
8  C u0 p0 c0 {6,S} {21,S} {22,S}
9  H u0 p0 c0 {2,S}
10 H u0 p0 c0 {3,S}
11 H u0 p0 c0 {3,S}
12 H u0 p0 c0 {3,S}
13 H u0 p0 c0 {4,S}
14 H u0 p0 c0 {4,S}
15 H u0 p0 c0 {4,S}
16 H u0 p0 c0 {5,S}
17 H u0 p0 c0 {5,S}
18 H u0 p0 c0 {5,S}
19 H u0 p0 c0 {6,S}
20 H u0 p0 c0 {7,S}
21 H u0 p0 c0 {8,S}
22 H u0 p0 c0 {8,S}
23 H u0 p0 c0 {1,S}


>  <multiplicity>  (3) 
2

>  <reaction>  (3) 
rxn_1104

>  <type>  (3) 
ts

>  <role_mapnums>  (3) 
{"*2": 17, "*1": 11, "*3": 2, "*0": 10, "*4": 3}

>  <role_mapidx>  (3) 
{"*2": 16, "*1": 10, "*3": 1, "*0": 9, "*4": 2}

>  <ordered_mapped_smiles>  (3) 
[C:1]([C:2]([S:3][H:8])[H:7])([H:4])([H:5])[H:6].[CH:9]([CH:10]([C:11]([C:12]([H:18])([H:19])[H:20])([C:13]([H:21])([H:22])[H:23])[H:17])[H:16])([H:14])[H:15]

>  <mol_properties>  (3) 
{"1": {"label": "*3", "atom_type": "Cs"}, "2": {"label": "*4", "atom_type": "S2s"}, "9": {"label": "*0", "atom_type": "Cs"}, "10": {"label": "*1", "atom_type": "Cs"}, "16": {"label": "*2", "atom_type": "H0"}}

>  <level_of_theory>  (3) 
wb97xd/def2tzvp

>  <lot_method>  (3) 
wb97xd

>  <lot_basis>  (3) 
def2tzvp

>  <spin_multiplicity>  (3) 
2.0

>  <optical_isomers>  (3) 
2.0

>  <modes>  (3) 
IdealGasTranslation(mass=(131.089, 'amu')),         NonlinearRotor(             inertia = ([279.722, 490.702, 557.764

>  <frequency_value>  (3) 
-1646.51

>  <frequency_units>  (3) 
cm^-1

>  <frequency_list>  (3) 
unknown

>  <arkane_path>  (3) 
/home/calvin/Dropbox/PersonalFolders/Calvin/HAb_Converged/rxn_1104/output/rxns/TS0/arkane/output.py

>  <path_exists>  (3) 
True

>  <E0_value>  (3) 
-1768820.0

>  <E0_units>  (3) 
kJ/mol

>  <thermo_class>  (3) 
unknown

>  <Cp0_value>  (3) 
unknown

>  <Cp0_units>  (3) 
unknown

>  <CpInf_value>  (3) 
unknown

>  <CpInf_units>  (3) 
unknown

>  <Tmin_value>  (3) 
unknown

>  <Tmin_units>  (3) 
unknown

>  <Tmax_value>  (3) 
unknown

>  <Tmax_units>  (3) 
unknown

>  <polynomials>  (3) 
unknown

>  <H298_value>  (3) 
unknown

>  <H298_units>  (3) 
unknown

>  <S298_value>  (3) 
unknown

>  <S298_units>  (3) 
unknown

>  <Cp_T_value_list>  (3) 
unknown

>  <Cp_T_units>  (3) 
unknown

>  <T_list>  (3) 
unknown

>  <T_units>  (3) 
unknown

>  <yaml_path>  (3) 
unknown

>  <frequencies_cm1>  (3) 
unknown

>  <ZPE_kJmol>  (3) 
unknown

>  <E_elec_kJmol>  (3) 
unknown

>  <E0_minus_Eelec_plus_ZPE_kJmol>  (3) 
unknown

>  <rxn>  (3) 
unknown

>  <species_type>  (3) 
unknown

>  <species_folder>  (3) 
unknown

>  <frequencies_cm1_list>  (3) 
[]

>  <ts_imag_freq_cm1>  (3) 
-1666.5044

>  <ts_freq_out_path>  (3) 
/home/calvin/Dropbox/PersonalFolders/Calvin/HAb_Converged/rxn_1104/output/rxns/TS0/geometry/freq.out

>  <E0_kJmol>  (3) 
-1.76882e+06

>  <H298_kJmol>  (3) 
unknown

$$$$

     RDKit          3D

 14 13  0  0  0  0  0  0  0  0999 V2000
    1.0767   -1.6838    1.2931 C   0  0  0  0  0  0  0  0  0  1  0  0
    1.0020   -0.3665    0.9163 C   0  0  0  0  0  0  0  0  0  2  0  0
    1.3965    0.7260    1.6806 C   0  0  0  0  0  3  0  0  0  3  0  0
    1.2666    2.1197    1.1619 C   0  0  0  0  0  0  0  0  0  4  0  0
    1.9670    0.5479    3.0536 C   0  0  0  0  0  0  0  0  0  5  0  0
    0.7448   -2.4705    0.6300 H   0  0  0  0  0  0  0  0  0  6  0  0
    1.4663   -1.9826    2.2578 H   0  0  0  0  0  0  0  0  0  7  0  0
    0.5980   -0.1511   -0.0695 H   0  0  0  0  0  0  0  0  0  8  0  0
    0.6296    2.7241    1.8172 H   0  0  0  0  0  0  0  0  0  9  0  0
    2.2410    2.6200    1.1341 H   0  0  0  0  0  0  0  0  0 10  0  0
    0.8426    2.1448    0.1579 H   0  0  0  0  0  0  0  0  0 11  0  0
    2.8745   -0.0634    3.0328 H   0  0  0  0  0  0  0  0  0 12  0  0
    1.2599    0.0408    3.7173 H   0  0  0  0  0  0  0  0  0 13  0  0
    2.2205    1.5071    3.5054 H   0  0  0  0  0  0  0  0  0 14  0  0
  1  7  1  0
  1  6  1  0
  1  2  1  0
  2  8  1  0
  2  3  1  0
  3  4  1  0
  3  5  1  0
  4  9  1  0
  4 10  1  0
  4 11  1  0
  5 12  1  0
  5 14  1  0
  5 13  1  0
M  RAD  1   3   2
M  END
>  <rmg_smiles>  (4) 
[CH2][CH][C](C)C

>  <rmg_adjacency_list>  (4) 
multiplicity 2
1  C u0 p0 c0 {3,S} {6,S} {7,S} {8,S}
2  C u0 p0 c0 {3,S} {9,S} {10,S} {11,S}
3  C u1 p0 c0 {1,S} {2,S} {4,S}
4  C u0 p0 c0 {3,S} {5,S} {12,S}
5  C u0 p0 c0 {4,S} {13,S} {14,S}
6  H u0 p0 c0 {1,S}
7  H u0 p0 c0 {1,S}
8  H u0 p0 c0 {1,S}
9  H u0 p0 c0 {2,S}
10 H u0 p0 c0 {2,S}
11 H u0 p0 c0 {2,S}
12 H u0 p0 c0 {4,S}
13 H u0 p0 c0 {5,S}
14 H u0 p0 c0 {5,S}


>  <multiplicity>  (4) 
2

>  <reaction>  (4) 
rxn_1104

>  <type>  (4) 
r1

>  <role_mapnums>  (4) 
{}

>  <role_mapidx>  (4) 
{}

>  <ordered_mapped_smiles>  (4) 
[CH:1]([CH:2]([C:3]([C:4]([H:9])([H:10])[H:11])[C:5]([H:12])([H:13])[H:14])[H:8])([H:6])[H:7]

>  <level_of_theory>  (4) 
wb97xd/def2tzvp

>  <lot_method>  (4) 
wb97xd

>  <lot_basis>  (4) 
def2tzvp

>  <spin_multiplicity>  (4) 
2.0

>  <optical_isomers>  (4) 
1.0

>  <modes>  (4) 
IdealGasTranslation(mass=(69.0704, 'amu')),         NonlinearRotor(             inertia = ([61.3549, 130.413, 185.559

>  <frequency_value>  (4) 
unknown

>  <frequency_units>  (4) 
unknown

>  <frequency_list>  (4) 
unknown

>  <arkane_path>  (4) 
/home/calvin/Dropbox/PersonalFolders/Calvin/HAb_Converged/rxn_1104/output/Species/rxn_1104_C=C[C][C]C/arkane/output.py

>  <path_exists>  (4) 
True

>  <E0_value>  (4) 
-514025.9755079239

>  <E0_units>  (4) 
kJ/mol

>  <thermo_class>  (4) 
NASA

>  <Cp0_value>  (4) 
33.257888

>  <Cp0_units>  (4) 
J/(mol*K)

>  <CpInf_value>  (4) 
332.57888

>  <CpInf_units>  (4) 
J/(mol*K)

>  <Tmin_value>  (4) 
10.0

>  <Tmin_units>  (4) 
K

>  <Tmax_value>  (4) 
3000.0

>  <Tmax_units>  (4) 
K

>  <polynomials>  (4) 
[{"name": "polynomial1", "class": "NASAPolynomial", "Tmin_value": 10.0, "Tmin_units": "K", "Tmax_value": 869.6920679830255, "Tmax_units": "K", "coeffs": [3.7251534266099315, 0.026124983740037182, 2.9283649756322525e-05, -5.054120287970429e-08, 2.023244225001157e-11, -61823043.86817725, 10.74219344334208]}, {"name": "polynomial2", "class": "NASAPolynomial", "Tmin_value": 869.6920679830255, "Tmin_units": "K", "Tmax_value": 3000.0, "Tmax_units": "K", "coeffs": [2.049387595722733, 0.04566272803591952, -2.48184133745368e-05, 6.572064258076298e-09, -6.813784120606917e-13, -61823199.79068455, 16.020641566778316]}]

>  <H298_value>  (4) 
-122850.30931833542

>  <H298_units>  (4) 
kcal/mol

>  <S298_value>  (4) 
80.76860453620434

>  <S298_units>  (4) 
cal/(mol*K)

>  <Cp_T_value_list>  (4) 
[25.828611832321002, 32.0811525837059, 37.867084343079156, 43.01801750917861, 51.22380214574075, 57.20052316456338, 66.43884769284972, 71.0936035426273, 73.39069523043335]

>  <Cp_T_units>  (4) 
cal/(mol*K)

>  <T_list>  (4) 
[300.0, 400.0, 500.0, 600.0, 800.0, 1000.0, 1500.0, 2000.0, 2400.0]

>  <T_units>  (4) 
K

>  <yaml_path>  (4) 
/home/calvin/Dropbox/PersonalFolders/Calvin/HAb_Converged/rxn_1104/output/Species/rxn_1104_C=C[C][C]C/rxn_1104_C=CCCC.yml

>  <frequencies_cm1>  (4) 
[55.11442417832, 159.33466037996, 226.55557967744, 278.64853031495994, 356.053188842, 383.12971195875997, 537.2797984221199, 582.97958572672, 765.24311009016, 793.8921728451999, 933.2782408705599, 980.1316817089199, 985.8381465098398, 986.5797809243999, 1056.26594795176, 1065.45397430992, 1225.2624566769598, 1249.45484595932, 1354.32057878104, 1397.4040446787199, 1400.8306703534, 1443.5021171318801, 1461.08159955108, 1469.6378632598, 1480.13061682876, 1493.1229530541998, 1520.0758704352, 2982.7506105805196, 2995.00817937672, 3028.9585547987995, 3046.0710822162396, 3091.5030570933595, 3094.47646173692, 3117.3709907937996, 3132.2036790849997, 3223.1775006043595]

>  <ZPE_kJmol>  (4) 
319.1166494835046

>  <E_elec_kJmol>  (4) 
-514345.0921574074

>  <E0_minus_Eelec_plus_ZPE_kJmol>  (4) 
0.0

>  <rxn>  (4) 
rxn_1104

>  <species_type>  (4) 
p1

>  <species_folder>  (4) 
rxn_1104_C=C[C][C]C

>  <frequencies_cm1_list>  (4) 
[55.11442417832, 159.33466037996, 226.55557967744, 278.64853031495994, 356.053188842, 383.12971195875997, 537.2797984221199, 582.97958572672, 765.24311009016, 793.8921728451999, 933.2782408705599, 980.1316817089199, 985.8381465098398, 986.5797809243999, 1056.26594795176, 1065.45397430992, 1225.2624566769598, 1249.45484595932, 1354.32057878104, 1397.4040446787199, 1400.8306703534, 1443.5021171318801, 1461.08159955108, 1469.6378632598, 1480.13061682876, 1493.1229530541998, 1520.0758704352, 2982.7506105805196, 2995.00817937672, 3028.9585547987995, 3046.0710822162396, 3091.5030570933595, 3094.47646173692, 3117.3709907937996, 3132.2036790849997, 3223.1775006043595]

>  <E0_kJmol>  (4) 
-514026

>  <H298_kJmol>  (4) 
-514006

$$$$

     RDKit          3D

  8  7  0  0  0  0  0  0  0  0999 V2000
   -1.0607    0.1793   -0.1423 C   0  0  0  0  0  0  0  0  0  1  0  0
    0.2796    0.0327    0.4820 C   0  0  0  0  0  3  0  0  0  2  0  0
    0.8817   -1.4663    1.0791 S   0  0  0  0  0  0  0  0  0  3  0  0
   -1.3043    1.2328   -0.2850 H   0  0  0  0  0  0  0  0  0  4  0  0
   -1.8444   -0.2641    0.4799 H   0  0  0  0  0  0  0  0  0  5  0  0
   -1.1164   -0.3100   -1.1237 H   0  0  0  0  0  0  0  0  0  6  0  0
    1.0449    0.7826    0.3391 H   0  0  0  0  0  0  0  0  0  7  0  0
   -0.2993   -2.0726    1.2718 H   0  0  0  0  0  0  0  0  0  8  0  0
  1  5  1  0
  1  4  1  0
  1  6  1  0
  1  2  1  0
  2  7  1  0
  2  3  1  0
  3  8  1  0
M  RAD  1   2   2
M  END
>  <rmg_smiles>  (5) 
C[CH]S

>  <rmg_adjacency_list>  (5) 
multiplicity 2
1 S u0 p2 c0 {3,S} {8,S}
2 C u0 p0 c0 {3,S} {4,S} {5,S} {6,S}
3 C u1 p0 c0 {1,S} {2,S} {7,S}
4 H u0 p0 c0 {2,S}
5 H u0 p0 c0 {2,S}
6 H u0 p0 c0 {2,S}
7 H u0 p0 c0 {3,S}
8 H u0 p0 c0 {1,S}


>  <multiplicity>  (5) 
2

>  <reaction>  (5) 
rxn_1104

>  <type>  (5) 
r2

>  <role_mapnums>  (5) 
{}

>  <role_mapidx>  (5) 
{}

>  <ordered_mapped_smiles>  (5) 
[C:1]([C:2]([S:3][H:8])[H:7])([H:4])([H:5])[H:6]

>  <level_of_theory>  (5) 
wb97xd/def2tzvp

>  <lot_method>  (5) 
wb97xd

>  <lot_basis>  (5) 
def2tzvp

>  <spin_multiplicity>  (5) 
2.0

>  <optical_isomers>  (5) 
2.0

>  <modes>  (5) 
IdealGasTranslation(mass=(61.0112, 'amu')),         NonlinearRotor(             inertia = ([13.046, 92.7553, 102.244

>  <frequency_value>  (5) 
unknown

>  <frequency_units>  (5) 
unknown

>  <frequency_list>  (5) 
unknown

>  <arkane_path>  (5) 
/home/calvin/Dropbox/PersonalFolders/Calvin/HAb_Converged/rxn_1104/output/Species/rxn_1104_C[CH]S/arkane/output.py

>  <path_exists>  (5) 
True

>  <E0_value>  (5) 
-1253184.5981829516

>  <E0_units>  (5) 
kJ/mol

>  <thermo_class>  (5) 
NASA

>  <Cp0_value>  (5) 
33.257888

>  <Cp0_units>  (5) 
J/(mol*K)

>  <CpInf_value>  (5) 
182.918384

>  <CpInf_units>  (5) 
J/(mol*K)

>  <Tmin_value>  (5) 
10.0

>  <Tmin_units>  (5) 
K

>  <Tmax_value>  (5) 
3000.0

>  <Tmax_units>  (5) 
K

>  <polynomials>  (5) 
[{"name": "polynomial1", "class": "NASAPolynomial", "Tmin_value": 10.0, "Tmin_units": "K", "Tmax_value": 413.8010480726284, "Tmax_units": "K", "coeffs": [3.7950295729261647, 0.016457708367529925, 9.731711480509379e-06, -3.2015572359360355e-08, 2.0934508459004603e-11, -150723288.9505719, 9.662663267236853]}, {"name": "polynomial2", "class": "NASAPolynomial", "Tmin_value": 413.8010480726284, "Tmin_units": "K", "Tmax_value": 3000.0, "Tmax_units": "K", "coeffs": [3.171701388229353, 0.02248310275825266, -1.2109939387600553e-05, 3.1731034874071525e-09, -3.249234972610705e-13, -150723237.3638374, 12.119854918634292]}]

>  <H298_value>  (5) 
-299514.53540410154

>  <H298_units>  (5) 
kcal/mol

>  <S298_value>  (5) 
72.29191673058813

>  <S298_units>  (5) 
cal/(mol*K)

>  <Cp_T_value_list>  (5) 
[17.712657489437476, 20.710891785101634, 23.373717884324098, 25.72491502627314, 29.60811043312427, 32.57636509573052, 37.18717346712741, 39.514014084536406, 40.66360633897774]

>  <Cp_T_units>  (5) 
cal/(mol*K)

>  <T_list>  (5) 
[300.0, 400.0, 500.0, 600.0, 800.0, 1000.0, 1500.0, 2000.0, 2400.0]

>  <T_units>  (5) 
K

>  <yaml_path>  (5) 
/home/calvin/Dropbox/PersonalFolders/Calvin/HAb_Converged/rxn_1104/output/Species/rxn_1104_C[CH]S/rxn_1104_CCHS.yml

>  <frequencies_cm1>  (5) 
[128.26155180696, 206.51084952836, 328.47537579688, 383.06104210556, 719.5433227855599, 910.4180467402799, 999.9292003864799, 1062.5698404755199, 1120.95294966616, 1318.91440247112, 1398.79117571336, 1459.19317858808, 1469.92627664324, 2677.2315667084, 2962.1771225617995, 3023.7808478675192, 3086.80603913448, 3183.9601474418396]

>  <ZPE_kJmol>  (5) 
158.14937342870658

>  <E_elec_kJmol>  (5) 
-1253342.7475563802

>  <E0_minus_Eelec_plus_ZPE_kJmol>  (5) 
0.0

>  <rxn>  (5) 
rxn_1104

>  <species_type>  (5) 
r0

>  <species_folder>  (5) 
rxn_1104_C[CH]S

>  <frequencies_cm1_list>  (5) 
[128.26155180696, 206.51084952836, 328.47537579688, 383.06104210556, 719.5433227855599, 910.4180467402799, 999.9292003864799, 1062.5698404755199, 1120.95294966616, 1318.91440247112, 1398.79117571336, 1459.19317858808, 1469.92627664324, 2677.2315667084, 2962.1771225617995, 3023.7808478675192, 3086.80603913448, 3183.9601474418396]

>  <E0_kJmol>  (5) 
-1.25318e+06

>  <H298_kJmol>  (5) 
-1.25317e+06

$$$$
