
     RDKit          3D

 12 11  0  0  0  0  0  0  0  0999 V2000
   -1.1353   -0.8614    0.0732 C   0  0  0  0  0  0  0  0  0  1  0  0
   -0.0699   -0.0578   -0.0191 C   0  0  0  0  0  0  0  0  0  2  0  0
   -0.2071    1.3525   -0.3965 C   0  0  0  0  0  0  0  0  0  3  0  0
    1.3156   -0.5250    0.3199 C   0  0  0  0  0  0  0  0  0  4  0  0
   -2.1280   -0.5101   -0.1817 H   0  0  0  0  0  0  0  0  0  5  0  0
   -1.0411   -1.8929    0.3899 H   0  0  0  0  0  0  0  0  0  6  0  0
   -0.2203    1.9319    0.5252 H   0  0  0  0  0  0  0  0  0  7  0  0
    0.6512    1.7744   -0.9185 H   0  0  0  0  0  0  0  0  0  8  0  0
   -1.1495    1.6109   -0.8748 H   0  0  0  0  0  0  0  0  0  9  0  0
    1.9557   -0.4915   -0.5654 H   0  0  0  0  0  0  0  0  0 10  0  0
    1.7675    0.1359    1.0642 H   0  0  0  0  0  0  0  0  0 11  0  0
    1.3178   -1.5423    0.7096 H   0  0  0  0  0  0  0  0  0 12  0  0
  1  5  1  0
  1  6  1  0
  1  2  1  0
  2  3  1  0
  2  4  1  0
  3  7  1  0
  3  9  1  0
  3  8  1  0
  4 12  1  0
  4 10  1  0
  4 11  1  0
M  END
>  <rmg_smiles>  (1) 
[CH2]C(C)C

>  <rmg_adjacency_list>  (1) 
1  C u0 p0 c0 {3,S} {5,S} {6,S} {7,S}
2  C u0 p0 c0 {3,S} {8,S} {9,S} {10,S}
3  C u0 p0 c0 {1,S} {2,S} {4,S}
4  C u0 p0 c0 {3,S} {11,S} {12,S}
5  H u0 p0 c0 {1,S}
6  H u0 p0 c0 {1,S}
7  H u0 p0 c0 {1,S}
8  H u0 p0 c0 {2,S}
9  H u0 p0 c0 {2,S}
10 H u0 p0 c0 {2,S}
11 H u0 p0 c0 {4,S}
12 H u0 p0 c0 {4,S}


>  <multiplicity>  (1) 
1

>  <reaction>  (1) 
rxn_15

>  <type>  (1) 
r1h

>  <role_mapnums>  (1) 
{"r1h_a": 3, "r1h_h": 7}

>  <role_mapidx>  (1) 
{"r1h_a": 2, "r1h_h": 6}

>  <ordered_mapped_smiles>  (1) 
[CH:1]([CH:2]([C:3]([H:7])([H:8])[H:9])[C:4]([H:10])([H:11])[H:12])([H:5])[H:6]

>  <mol_properties>  (1) 
{"2": {"label": "donator", "atom_type": "Cs"}, "6": {"label": "d_hydrogen", "atom_type": "H0"}}

>  <level_of_theory>  (1) 
wb97xd/def2tzvp

>  <lot_method>  (1) 
wb97xd

>  <lot_basis>  (1) 
def2tzvp

>  <spin_multiplicity>  (1) 
1.0

>  <optical_isomers>  (1) 
1.0

>  <modes>  (1) 
IdealGasTranslation(mass=(56.0626, 'amu')),         NonlinearRotor(             inertia = ([54.8518, 59.7501, 108.39

>  <frequency_value>  (1) 
unknown

>  <frequency_units>  (1) 
unknown

>  <frequency_list>  (1) 
unknown

>  <arkane_path>  (1) 
/home/calvin/Dropbox/PersonalFolders/Calvin/HAb_Converged/rxn_15/output/Species/rxn_15_C=C[C]C/arkane/output.py

>  <path_exists>  (1) 
True

>  <E0_value>  (1) 
-412534.10297182825

>  <E0_units>  (1) 
kJ/mol

>  <thermo_class>  (1) 
NASA

>  <Cp0_value>  (1) 
33.257888

>  <Cp0_units>  (1) 
J/(mol*K)

>  <CpInf_value>  (1) 
282.692048

>  <CpInf_units>  (1) 
J/(mol*K)

>  <Tmin_value>  (1) 
10.0

>  <Tmin_units>  (1) 
K

>  <Tmax_value>  (1) 
3000.0

>  <Tmax_units>  (1) 
K

>  <polynomials>  (1) 
[{"name": "polynomial1", "class": "NASAPolynomial", "Tmin_value": 10.0, "Tmin_units": "K", "Tmax_value": 498.95038699364414, "Tmax_units": "K", "coeffs": [3.901727145998344, 0.007464022643265422, 8.140069101399911e-05, -1.34043578279297e-07, 6.97293044621997e-11, -49616389.46495108, 7.853222616117349]}, {"name": "polynomial2", "class": "NASAPolynomial", "Tmin_value": 498.95038699364414, "Tmin_units": "K", "Tmax_value": 3000.0, "Tmax_units": "K", "coeffs": [-0.46305569031982813, 0.04245581638085562, -2.3795747865523038e-05, 6.513704454155295e-09, -6.973300076201757e-13, -49615953.903874084, 25.876158086063345]}]

>  <H298_value>  (1) 
-98594.07566738632

>  <H298_units>  (1) 
kcal/mol

>  <S298_value>  (1) 
69.30463799070704

>  <S298_units>  (1) 
cal/(mol*K)

>  <Cp_T_value_list>  (1) 
[20.692039833610465, 26.067634259817133, 30.973684475535098, 35.29388260591572, 42.37063891481565, 47.719559295994536, 55.907581930700104, 60.049289040400026, 62.15407678364104]

>  <Cp_T_units>  (1) 
cal/(mol*K)

>  <T_list>  (1) 
[300.0, 400.0, 500.0, 600.0, 800.0, 1000.0, 1500.0, 2000.0, 2400.0]

>  <T_units>  (1) 
K

>  <yaml_path>  (1) 
/home/calvin/Dropbox/PersonalFolders/Calvin/HAb_Converged/rxn_15/output/Species/rxn_15_C=C[C]C/rxn_15_C=CCC.yml

>  <frequencies_cm1>  (1) 
[164.27888981035997, 208.61214703628, 383.62413490179995, 441.5128211494, 443.51798086284, 703.1586958120399, 819.4785601475199, 926.9743483468, 958.5968157454, 983.81238584044, 1013.07947727428, 1078.1853650931998, 1100.5786042217198, 1296.5623652545198, 1400.6040598378397, 1403.53626256948, 1434.8222476873998, 1457.25668872784, 1469.6378632598, 1476.3812428440397, 1489.7855981886796, 1728.3034662935597, 3000.4949006473994, 3004.42281625044, 3056.59130372648, 3058.7475371169594, 3099.70910455076, 3101.8172690439997, 3116.5675535113596, 3199.42459838248]

>  <ZPE_kJmol>  (1) 
281.2425858226165

>  <E_elec_kJmol>  (1) 
-412815.3455576509

>  <E0_minus_Eelec_plus_ZPE_kJmol>  (1) 
0.0

>  <rxn>  (1) 
rxn_15

>  <species_type>  (1) 
r0

>  <species_folder>  (1) 
rxn_15_C=C[C]C

>  <frequencies_cm1_list>  (1) 
[164.27888981035997, 208.61214703628, 383.62413490179995, 441.5128211494, 443.51798086284, 703.1586958120399, 819.4785601475199, 926.9743483468, 958.5968157454, 983.81238584044, 1013.07947727428, 1078.1853650931998, 1100.5786042217198, 1296.5623652545198, 1400.6040598378397, 1403.53626256948, 1434.8222476873998, 1457.25668872784, 1469.6378632598, 1476.3812428440397, 1489.7855981886796, 1728.3034662935597, 3000.4949006473994, 3004.42281625044, 3056.59130372648, 3058.7475371169594, 3099.70910455076, 3101.8172690439997, 3116.5675535113596, 3199.42459838248]

>  <E0_kJmol>  (1) 
-412534

>  <H298_kJmol>  (1) 
-412518

$$$$

     RDKit          3D

 15 14  0  0  0  0  0  0  0  0999 V2000
    0.3030    0.7968   -2.2972 H   0  0  0  0  0  0  0  0  0  1  0  0
    1.0732    0.2376    1.1696 C   0  0  0  0  0  0  0  0  0  2  0  0
    0.1740   -0.5410    0.2178 C   0  0  0  0  0  0  0  0  0  3  0  0
   -0.7723   -1.4732    0.9650 C   0  0  0  0  0  0  0  0  0  4  0  0
   -0.6232    0.4045   -0.6785 C   0  0  0  0  0  0  0  0  0  5  0  0
    0.1471    1.2479   -1.4643 O   0  0  0  0  0  0  0  0  0  6  0  0
    1.6976   -0.4352    1.7609 H   0  0  0  0  0  0  0  0  0  7  0  0
    0.4732    0.8337    1.8640 H   0  0  0  0  0  0  0  0  0  8  0  0
    1.7243    0.9174    0.6190 H   0  0  0  0  0  0  0  0  0  9  0  0
    0.8048   -1.1482   -0.4386 H   0  0  0  0  0  0  0  0  0 10  0  0
   -1.4512   -0.9053    1.6080 H   0  0  0  0  0  0  0  0  0 11  0  0
   -1.3787   -2.0616    0.2724 H   0  0  0  0  0  0  0  0  0 12  0  0
   -0.2192   -2.1666    1.6009 H   0  0  0  0  0  0  0  0  0 13  0  0
   -1.2686    1.0507   -0.0615 H   0  0  0  0  0  0  0  0  0 14  0  0
   -1.3112   -0.1808   -1.3096 H   0  0  0  0  0  0  0  0  0 15  0  0
  1  6  1  0
  2  9  1  0
  2  7  1  0
  2  8  1  0
  2  3  1  0
  3  4  1  0
  3  5  1  0
  3 10  1  0
  4 13  1  0
  4 12  1  0
  4 11  1  0
  5  6  1  0
  5 14  1  0
  5 15  1  0
M  END
>  <rmg_smiles>  (2) 
CC(C)CO

>  <rmg_adjacency_list>  (2) 
1  O u0 p2 c0 {3,S} {15,S}
2  C u0 p0 c0 {3,S} {4,S} {5,S} {6,S}
3  C u0 p0 c0 {1,S} {2,S} {7,S} {8,S}
4  C u0 p0 c0 {2,S} {9,S} {10,S} {11,S}
5  C u0 p0 c0 {2,S} {12,S} {13,S} {14,S}
6  H u0 p0 c0 {2,S}
7  H u0 p0 c0 {3,S}
8  H u0 p0 c0 {3,S}
9  H u0 p0 c0 {4,S}
10 H u0 p0 c0 {4,S}
11 H u0 p0 c0 {4,S}
12 H u0 p0 c0 {5,S}
13 H u0 p0 c0 {5,S}
14 H u0 p0 c0 {5,S}
15 H u0 p0 c0 {1,S}


>  <multiplicity>  (2) 
1

>  <reaction>  (2) 
rxn_15

>  <type>  (2) 
r2h

>  <role_mapnums>  (2) 
{"r2h_a": 6, "r2h_h": 1}

>  <role_mapidx>  (2) 
{"r2h_a": 5, "r2h_h": 0}

>  <ordered_mapped_smiles>  (2) 
[H:1][O:6][C:5]([C:3]([C:2]([H:7])([H:8])[H:9])([C:4]([H:11])([H:12])[H:13])[H:10])([H:14])[H:15]

>  <mol_properties>  (2) 
{"0": {"label": "a_hydrogen", "atom_type": "H0"}, "5": {"label": "acceptor", "atom_type": "O2s"}}

>  <level_of_theory>  (2) 
wb97xd/def2tzvp

>  <lot_method>  (2) 
wb97xd

>  <lot_basis>  (2) 
def2tzvp

>  <spin_multiplicity>  (2) 
1.0

>  <optical_isomers>  (2) 
2.0

>  <modes>  (2) 
IdealGasTranslation(mass=(74.0732, 'amu')),         NonlinearRotor(             inertia = ([66.603, 143.905, 189.515

>  <frequency_value>  (2) 
unknown

>  <frequency_units>  (2) 
unknown

>  <frequency_list>  (2) 
unknown

>  <arkane_path>  (2) 
/home/calvin/Dropbox/PersonalFolders/Calvin/HAb_Converged/rxn_15/output/Species/rxn_15_CC[C]CO/arkane/output.py

>  <path_exists>  (2) 
True

>  <E0_value>  (2) 
-613201.7985649897

>  <E0_units>  (2) 
kJ/mol

>  <thermo_class>  (2) 
NASA

>  <Cp0_value>  (2) 
33.257888

>  <Cp0_units>  (2) 
J/(mol*K)

>  <CpInf_value>  (2) 
357.522296

>  <CpInf_units>  (2) 
J/(mol*K)

>  <Tmin_value>  (2) 
10.0

>  <Tmin_units>  (2) 
K

>  <Tmax_value>  (2) 
3000.0

>  <Tmax_units>  (2) 
K

>  <polynomials>  (2) 
[{"name": "polynomial1", "class": "NASAPolynomial", "Tmin_value": 10.0, "Tmin_units": "K", "Tmax_value": 575.0820722549333, "Tmax_units": "K", "coeffs": [3.712801150495733, 0.023418492048998256, 4.9452172840161095e-05, -8.421860970236057e-08, 3.934217938274299e-11, -73751136.90771984, 10.481378155357929]}, {"name": "polynomial2", "class": "NASAPolynomial", "Tmin_value": 575.0820722549333, "Tmin_units": "K", "Tmax_value": 3000.0, "Tmax_units": "K", "coeffs": [-0.6878623504423118, 0.054027748373386184, -3.0387484216706206e-05, 8.33684724444376e-09, -8.939933047326686e-13, -73750630.76437442, 29.27735644774587]}]

>  <H298_value>  (2) 
-146553.90002459448

>  <H298_units>  (2) 
kcal/mol

>  <S298_value>  (2) 
79.77182452223813

>  <S298_units>  (2) 
cal/(mol*K)

>  <Cp_T_value_list>  (2) 
[26.298320243180413, 33.00693242629291, 39.1810558194892, 44.6608561300836, 53.63198611709804, 60.40164981657028, 70.7305199017492, 75.92834375358102, 78.5639083460816]

>  <Cp_T_units>  (2) 
cal/(mol*K)

>  <T_list>  (2) 
[300.0, 400.0, 500.0, 600.0, 800.0, 1000.0, 1500.0, 2000.0, 2400.0]

>  <T_units>  (2) 
K

>  <yaml_path>  (2) 
/home/calvin/Dropbox/PersonalFolders/Calvin/HAb_Converged/rxn_15/output/Species/rxn_15_CC[C]CO/rxn_15_CCCCO.yml

>  <frequencies_cm1>  (2) 
[130.82980431664, 216.90746530284, 234.24660323583998, 266.73431078476, 284.47860085163995, 352.62656316731994, 430.94453074191995, 496.53797451855996, 825.04768524204, 903.1871111983199, 929.80354629864, 953.3298380049599, 972.0423730019598, 1079.3527525975999, 1116.63361589988, 1149.4440717588398, 1195.51467627072, 1246.91406139092, 1321.76420137892, 1364.46311609868, 1379.29580438988, 1394.3345022406797, 1400.81006939744, 1419.04878240736, 1474.01899989396, 1475.3855299726397, 1489.2293723777598, 1494.17360180816, 1499.15903315048, 2968.2200696433997, 2974.66816885888, 3005.13698272372, 3008.8176868552396, 3047.7397596489996, 3073.490954599, 3077.90642615976, 3086.88844295832, 3102.6138393411197, 3839.6679746926798]

>  <ZPE_kJmol>  (2) 
356.9742015148605

>  <E_elec_kJmol>  (2) 
-613558.7727665046

>  <E0_minus_Eelec_plus_ZPE_kJmol>  (2) 
0.0

>  <rxn>  (2) 
rxn_15

>  <species_type>  (2) 
p1

>  <species_folder>  (2) 
rxn_15_CC[C]CO

>  <frequencies_cm1_list>  (2) 
[130.82980431664, 216.90746530284, 234.24660323583998, 266.73431078476, 284.47860085163995, 352.62656316731994, 430.94453074191995, 496.53797451855996, 825.04768524204, 903.1871111983199, 929.80354629864, 953.3298380049599, 972.0423730019598, 1079.3527525975999, 1116.63361589988, 1149.4440717588398, 1195.51467627072, 1246.91406139092, 1321.76420137892, 1364.46311609868, 1379.29580438988, 1394.3345022406797, 1400.81006939744, 1419.04878240736, 1474.01899989396, 1475.3855299726397, 1489.2293723777598, 1494.17360180816, 1499.15903315048, 2968.2200696433997, 2974.66816885888, 3005.13698272372, 3008.8176868552396, 3047.7397596489996, 3073.490954599, 3077.90642615976, 3086.88844295832, 3102.6138393411197, 3839.6679746926798]

>  <E0_kJmol>  (2) 
-613202

>  <H298_kJmol>  (2) 
-613182

$$$$

     RDKit          3D

 26 24  0  0  0  0  0  0  0  0999 V2000
   -0.6410   -1.5447   -1.7574 C   0  0  0  0  0  0  0  0  0  1  0  0
    0.4244   -0.7411   -1.8496 C   0  0  0  0  0  0  0  0  0  2  0  0
    0.2871    0.6692   -2.2271 C   0  0  0  0  0  0  0  0  0  3  0  0
    1.8099   -1.2083   -1.5107 C   0  0  0  0  0  0  0  0  0  4  0  0
   -1.6337   -1.1935   -2.0122 H   0  0  0  0  0  0  0  0  0  5  0  0
   -0.5468   -2.5762   -1.4406 H   0  0  0  0  0  0  0  0  0  6  0  0
    0.2723    1.3236   -1.1860 H   0  0  0  0  0  0  0  0  0  7  0  0
    1.1455    1.0910   -2.7490 H   0  0  0  0  0  0  0  0  0  8  0  0
   -0.6552    0.9275   -2.7053 H   0  0  0  0  0  0  0  0  0  9  0  0
    2.4500   -1.1748   -2.3960 H   0  0  0  0  0  0  0  0  0 10  0  0
    2.2618   -0.5474   -0.7663 H   0  0  0  0  0  0  0  0  0 11  0  0
    1.8121   -2.2257   -1.1209 H   0  0  0  0  0  0  0  0  0 12  0  0
    0.9843    0.9328    2.5918 C   0  0  0  0  0  0  0  0  0 13  0  0
    0.0852    0.1542    1.6400 C   0  0  0  0  0  0  0  0  0 14  0  0
   -0.8612   -0.7780    2.3871 C   0  0  0  0  0  0  0  0  0 15  0  0
   -0.7120    1.0996    0.7436 C   0  0  0  0  0  0  0  0  0 16  0  0
    0.0582    1.9431   -0.0421 O   0  0  0  0  0  1  0  0  0 17  0  0
    1.6087    0.2600    3.1831 H   0  0  0  0  0  0  0  0  0 18  0  0
    0.3844    1.5289    3.2861 H   0  0  0  0  0  0  0  0  0 19  0  0
    1.6354    1.6126    2.0411 H   0  0  0  0  0  0  0  0  0 20  0  0
    0.7159   -0.4530    0.9835 H   0  0  0  0  0  0  0  0  0 21  0  0
   -1.5400   -0.2101    3.0301 H   0  0  0  0  0  0  0  0  0 22  0  0
   -1.4676   -1.3665    1.6945 H   0  0  0  0  0  0  0  0  0 23  0  0
   -0.3080   -1.4714    3.0230 H   0  0  0  0  0  0  0  0  0 24  0  0
   -1.3574    1.7459    1.3606 H   0  0  0  0  0  0  0  0  0 25  0  0
   -1.4001    0.5143    0.1125 H   0  0  0  0  0  0  0  0  0 26  0  0
  1  5  1  0
  1  6  1  0
  1  2  1  0
  2  3  1  0
  2  4  1  0
  3  8  1  0
  3  7  1  0
  3  9  1  0
  4 10  1  0
  4 11  1  0
  4 12  1  0
 13 19  1  0
 13 18  1  0
 13 20  1  0
 13 14  1  0
 14 15  1  0
 14 16  1  0
 14 21  1  0
 15 23  1  0
 15 22  1  0
 15 24  1  0
 16 17  1  0
 16 26  1  0
 16 25  1  0
M  RAD  1  17   2
M  END
>  <rmg_smiles>  (3) 
CC(C)C[O].[CH2]C(C)C

>  <rmg_adjacency_list>  (3) 
multiplicity 2
1  O u1 p2 c0 {5,S}
2  C u0 p0 c0 {3,S} {4,S} {5,S} {10,S}
3  C u0 p0 c0 {2,S} {11,S} {12,S} {13,S}
4  C u0 p0 c0 {2,S} {14,S} {15,S} {16,S}
5  C u0 p0 c0 {1,S} {2,S} {17,S} {18,S}
6  C u0 p0 c0 {8,S} {19,S} {20,S} {21,S}
7  C u0 p0 c0 {8,S} {22,S} {23,S} {24,S}
8  C u0 p0 c0 {6,S} {7,S} {9,S}
9  C u0 p0 c0 {8,S} {25,S} {26,S}
10 H u0 p0 c0 {2,S}
11 H u0 p0 c0 {3,S}
12 H u0 p0 c0 {3,S}
13 H u0 p0 c0 {3,S}
14 H u0 p0 c0 {4,S}
15 H u0 p0 c0 {4,S}
16 H u0 p0 c0 {4,S}
17 H u0 p0 c0 {5,S}
18 H u0 p0 c0 {5,S}
19 H u0 p0 c0 {6,S}
20 H u0 p0 c0 {6,S}
21 H u0 p0 c0 {6,S}
22 H u0 p0 c0 {7,S}
23 H u0 p0 c0 {7,S}
24 H u0 p0 c0 {7,S}
25 H u0 p0 c0 {9,S}
26 H u0 p0 c0 {9,S}


>  <multiplicity>  (3) 
2

>  <reaction>  (3) 
rxn_15

>  <type>  (3) 
ts

>  <role_mapnums>  (3) 
{"*2": 7, "*1": 3, "*3": 17, "*0": 2, "*4": 16}

>  <role_mapidx>  (3) 
{"*2": 6, "*1": 2, "*3": 16, "*0": 1, "*4": 15}

>  <ordered_mapped_smiles>  (3) 
[CH:1]([CH:2]([C:3]([H:7])([H:8])[H:9])[C:4]([H:10])([H:11])[H:12])([H:5])[H:6].[C:13]([C:14]([C:15]([H:22])([H:23])[H:24])([C:16]([O:17])([H:25])[H:26])[H:21])([H:18])([H:19])[H:20]

>  <mol_properties>  (3) 
{"1": {"label": "*0", "atom_type": "Cs"}, "2": {"label": "*1", "atom_type": "Cs"}, "6": {"label": "*2", "atom_type": "H0"}, "15": {"label": "*4", "atom_type": "Cs"}, "16": {"label": "*3", "atom_type": "O2s"}}

>  <level_of_theory>  (3) 
wb97xd/def2tzvp

>  <lot_method>  (3) 
wb97xd

>  <lot_basis>  (3) 
def2tzvp

>  <spin_multiplicity>  (3) 
2.0

>  <optical_isomers>  (3) 
2.0

>  <modes>  (3) 
IdealGasTranslation(mass=(129.128, 'amu')),         NonlinearRotor(             inertia = ([166.571, 873.618, 915.957

>  <frequency_value>  (3) 
-1475.29

>  <frequency_units>  (3) 
cm^-1

>  <frequency_list>  (3) 
unknown

>  <arkane_path>  (3) 
/home/calvin/Dropbox/PersonalFolders/Calvin/HAb_Converged/rxn_15/output/rxns/TS0/arkane/output.py

>  <path_exists>  (3) 
True

>  <E0_value>  (3) 
-1023980.0

>  <E0_units>  (3) 
kJ/mol

>  <thermo_class>  (3) 
unknown

>  <Cp0_value>  (3) 
unknown

>  <Cp0_units>  (3) 
unknown

>  <CpInf_value>  (3) 
unknown

>  <CpInf_units>  (3) 
unknown

>  <Tmin_value>  (3) 
unknown

>  <Tmin_units>  (3) 
unknown

>  <Tmax_value>  (3) 
unknown

>  <Tmax_units>  (3) 
unknown

>  <polynomials>  (3) 
unknown

>  <H298_value>  (3) 
unknown

>  <H298_units>  (3) 
unknown

>  <S298_value>  (3) 
unknown

>  <S298_units>  (3) 
unknown

>  <Cp_T_value_list>  (3) 
unknown

>  <Cp_T_units>  (3) 
unknown

>  <T_list>  (3) 
unknown

>  <T_units>  (3) 
unknown

>  <yaml_path>  (3) 
unknown

>  <frequencies_cm1>  (3) 
unknown

>  <ZPE_kJmol>  (3) 
unknown

>  <E_elec_kJmol>  (3) 
unknown

>  <E0_minus_Eelec_plus_ZPE_kJmol>  (3) 
unknown

>  <rxn>  (3) 
unknown

>  <species_type>  (3) 
unknown

>  <species_folder>  (3) 
unknown

>  <frequencies_cm1_list>  (3) 
[]

>  <ts_imag_freq_cm1>  (3) 
-1529.3854

>  <ts_freq_out_path>  (3) 
/home/calvin/Dropbox/PersonalFolders/Calvin/HAb_Converged/rxn_15/output/rxns/TS0/geometry/freq.out

>  <E0_kJmol>  (3) 
-1.02398e+06

>  <H298_kJmol>  (3) 
unknown

$$$$

     RDKit          3D

 11 10  0  0  0  0  0  0  0  0999 V2000
    1.4192   -0.3322   -0.2373 C   0  0  0  0  0  0  0  0  0  1  0  0
    0.1353    0.1259    0.0104 C   0  0  0  0  0  0  0  0  0  2  0  0
   -0.0994    1.4387    0.3575 C   0  0  0  0  0  3  0  0  0  3  0  0
   -1.0184   -0.8432   -0.0948 C   0  0  0  0  0  0  0  0  0  4  0  0
    1.6064   -1.3616   -0.5143 H   0  0  0  0  0  0  0  0  0  5  0  0
    2.2713    0.3306   -0.1599 H   0  0  0  0  0  0  0  0  0  6  0  0
    0.7172    2.1438    0.4483 H   0  0  0  0  0  0  0  0  0  7  0  0
   -1.1000    1.8033    0.5485 H   0  0  0  0  0  0  0  0  0  8  0  0
   -0.9674   -1.5884    0.7016 H   0  0  0  0  0  0  0  0  0  9  0  0
   -1.9775   -0.3322   -0.0170 H   0  0  0  0  0  0  0  0  0 10  0  0
   -0.9929   -1.3773   -1.0460 H   0  0  0  0  0  0  0  0  0 11  0  0
  1  5  1  0
  1  6  1  0
  1  2  1  0
  2  3  1  0
  2  4  1  0
  3  7  1  0
  3  8  1  0
  4  9  1  0
  4 10  1  0
  4 11  1  0
M  RAD  1   3   2
M  END
>  <rmg_smiles>  (4) 
[CH2]C([CH2])C

>  <rmg_adjacency_list>  (4) 
multiplicity 2
1  C u0 p0 c0 {2,S} {5,S} {6,S} {7,S}
2  C u0 p0 c0 {1,S} {3,S} {4,S}
3  C u1 p0 c0 {2,S} {10,S} {11,S}
4  C u0 p0 c0 {2,S} {8,S} {9,S}
5  H u0 p0 c0 {1,S}
6  H u0 p0 c0 {1,S}
7  H u0 p0 c0 {1,S}
8  H u0 p0 c0 {4,S}
9  H u0 p0 c0 {4,S}
10 H u0 p0 c0 {3,S}
11 H u0 p0 c0 {3,S}


>  <multiplicity>  (4) 
2

>  <reaction>  (4) 
rxn_15

>  <type>  (4) 
r1

>  <role_mapnums>  (4) 
{}

>  <role_mapidx>  (4) 
{}

>  <ordered_mapped_smiles>  (4) 
[CH:1]([CH:2]([C:3]([H:7])[H:8])[C:4]([H:9])([H:10])[H:11])([H:5])[H:6]

>  <level_of_theory>  (4) 
wb97xd/def2tzvp

>  <lot_method>  (4) 
wb97xd

>  <lot_basis>  (4) 
def2tzvp

>  <spin_multiplicity>  (4) 
2.0

>  <optical_isomers>  (4) 
2.0

>  <modes>  (4) 
IdealGasTranslation(mass=(55.0548, 'amu')),         NonlinearRotor(             inertia = ([50.2749, 56.9544, 104.106

>  <frequency_value>  (4) 
unknown

>  <frequency_units>  (4) 
unknown

>  <frequency_list>  (4) 
unknown

>  <arkane_path>  (4) 
/home/calvin/Dropbox/PersonalFolders/Calvin/HAb_Converged/rxn_15/output/Species/rxn_15_[CH2]C[=C]C/arkane/output.py

>  <path_exists>  (4) 
True

>  <E0_value>  (4) 
-410855.17444158817

>  <E0_units>  (4) 
kJ/mol

>  <thermo_class>  (4) 
NASA

>  <Cp0_value>  (4) 
33.257888

>  <Cp0_units>  (4) 
J/(mol*K)

>  <CpInf_value>  (4) 
257.748632

>  <CpInf_units>  (4) 
J/(mol*K)

>  <Tmin_value>  (4) 
10.0

>  <Tmin_units>  (4) 
K

>  <Tmax_value>  (4) 
3000.0

>  <Tmax_units>  (4) 
K

>  <polynomials>  (4) 
[{"name": "polynomial1", "class": "NASAPolynomial", "Tmin_value": 10.0, "Tmin_units": "K", "Tmax_value": 470.1146438794014, "Tmax_units": "K", "coeffs": [3.954796647402233, 0.002872450157006195, 0.00011674632592322161, -2.2511570634289398e-07, 1.3994868424571672e-10, -49414462.35793003, 11.57794818049774]}, {"name": "polynomial2", "class": "NASAPolynomial", "Tmin_value": 470.1146438794014, "Tmin_units": "K", "Tmax_value": 3000.0, "Tmax_units": "K", "coeffs": [0.4415935725994241, 0.03992026263782331, -2.4293683125638006e-05, 7.26896081991733e-09, -8.474885181164997e-13, -49414211.107381605, 25.0344546585906]}]

>  <H298_value>  (4) 
-98192.85015060692

>  <H298_units>  (4) 
kcal/mol

>  <S298_value>  (4) 
76.385592670644

>  <S298_units>  (4) 
cal/(mol*K)

>  <Cp_T_value_list>  (4) 
[20.62553680729987, 25.751155764175074, 30.17365643154264, 33.99769766658572, 40.15036098251711, 44.691569516418454, 51.475668461733136, 55.0441428173123, 57.00716859293214]

>  <Cp_T_units>  (4) 
cal/(mol*K)

>  <T_list>  (4) 
[300.0, 400.0, 500.0, 600.0, 800.0, 1000.0, 1500.0, 2000.0, 2400.0]

>  <T_units>  (4) 
K

>  <yaml_path>  (4) 
/home/calvin/Dropbox/PersonalFolders/Calvin/HAb_Converged/rxn_15/output/Species/rxn_15_[CH2]C[=C]C/rxn_15_CH2C=CC.yml

>  <frequencies_cm1>  (4) 
[16.961453740399996, 408.55815859872, 440.6201130578, 480.13274658908, 535.1785009142001, 564.7958085993599, 772.28863702848, 809.22615106476, 852.6048973311998, 966.3153072450799, 1010.98504675168, 1044.81868342332, 1051.75433859652, 1312.85085443356, 1369.4485474409998, 1412.2985358377998, 1471.4644813549198, 1475.4061309286, 1486.0499581746, 1528.0072384798, 3020.1688135892, 3085.2128985402396, 3104.9005454526796, 3120.7701485272, 3127.7401386269994, 3218.37061088036, 3220.73285383044]

>  <ZPE_kJmol>  (4) 
244.68222355217392

>  <E_elec_kJmol>  (4) 
-411099.8566651404

>  <E0_minus_Eelec_plus_ZPE_kJmol>  (4) 
0.0

>  <rxn>  (4) 
rxn_15

>  <species_type>  (4) 
p0

>  <species_folder>  (4) 
rxn_15_[CH2]C[=C]C

>  <frequencies_cm1_list>  (4) 
[16.961453740399996, 408.55815859872, 440.6201130578, 480.13274658908, 535.1785009142001, 564.7958085993599, 772.28863702848, 809.22615106476, 852.6048973311998, 966.3153072450799, 1010.98504675168, 1044.81868342332, 1051.75433859652, 1312.85085443356, 1369.4485474409998, 1412.2985358377998, 1471.4644813549198, 1475.4061309286, 1486.0499581746, 1528.0072384798, 3020.1688135892, 3085.2128985402396, 3104.9005454526796, 3120.7701485272, 3127.7401386269994, 3218.37061088036, 3220.73285383044]

>  <E0_kJmol>  (4) 
-410855

>  <H298_kJmol>  (4) 
-410839

$$$$

     RDKit          3D

 14 13  0  0  0  0  0  0  0  0999 V2000
    0.1523    1.4701    0.0231 C   0  0  0  0  0  0  0  0  0  1  0  0
    0.0724   -0.0001   -0.3729 C   0  0  0  0  0  0  0  0  0  2  0  0
    1.2475   -0.8003    0.1742 C   0  0  0  0  0  0  0  0  0  3  0  0
   -0.0122   -0.1270   -1.8938 C   0  0  0  0  0  0  0  0  0  4  0  0
   -0.1589   -1.3812   -2.3858 O   0  0  0  0  0  1  0  0  0  5  0  0
    1.0590    1.9320   -0.3785 H   0  0  0  0  0  0  0  0  0  6  0  0
    0.1791    1.5803    1.1081 H   0  0  0  0  0  0  0  0  0  7  0  0
   -0.7050    2.0353   -0.3494 H   0  0  0  0  0  0  0  0  0  8  0  0
   -0.8540   -0.4209    0.0315 H   0  0  0  0  0  0  0  0  0  9  0  0
    1.2631   -0.7766    1.2651 H   0  0  0  0  0  0  0  0  0 10  0  0
    1.1915   -1.8416   -0.1447 H   0  0  0  0  0  0  0  0  0 11  0  0
    2.1953   -0.3859   -0.1825 H   0  0  0  0  0  0  0  0  0 12  0  0
    0.9155    0.2678   -2.3597 H   0  0  0  0  0  0  0  0  0 13  0  0
   -0.8028    0.5214   -2.3139 H   0  0  0  0  0  0  0  0  0 14  0  0
  1  8  1  0
  1  7  1  0
  1  6  1  0
  1  2  1  0
  2  9  1  0
  2  3  1  0
  2  4  1  0
  3 11  1  0
  3 12  1  0
  3 10  1  0
  4 14  1  0
  4 13  1  0
  4  5  1  0
M  RAD  1   5   2
M  END
>  <rmg_smiles>  (5) 
CC(C)C[O]

>  <rmg_adjacency_list>  (5) 
multiplicity 2
1  O u1 p2 c0 {5,S}
2  C u0 p0 c0 {3,S} {4,S} {5,S} {6,S}
3  C u0 p0 c0 {2,S} {7,S} {8,S} {9,S}
4  C u0 p0 c0 {2,S} {10,S} {11,S} {12,S}
5  C u0 p0 c0 {1,S} {2,S} {13,S} {14,S}
6  H u0 p0 c0 {2,S}
7  H u0 p0 c0 {3,S}
8  H u0 p0 c0 {3,S}
9  H u0 p0 c0 {3,S}
10 H u0 p0 c0 {4,S}
11 H u0 p0 c0 {4,S}
12 H u0 p0 c0 {4,S}
13 H u0 p0 c0 {5,S}
14 H u0 p0 c0 {5,S}


>  <multiplicity>  (5) 
2

>  <reaction>  (5) 
rxn_15

>  <type>  (5) 
r2

>  <role_mapnums>  (5) 
{}

>  <role_mapidx>  (5) 
{}

>  <ordered_mapped_smiles>  (5) 
[C:1]([C:2]([C:3]([H:10])([H:11])[H:12])([C:4]([O:5])([H:13])[H:14])[H:9])([H:6])([H:7])[H:8]

>  <level_of_theory>  (5) 
wb97xd/def2tzvp

>  <lot_method>  (5) 
wb97xd

>  <lot_basis>  (5) 
def2tzvp

>  <spin_multiplicity>  (5) 
2.0

>  <optical_isomers>  (5) 
2.0

>  <modes>  (5) 
IdealGasTranslation(mass=(73.0653, 'amu')),         NonlinearRotor(             inertia = ([65.5347, 137.197, 184.039

>  <frequency_value>  (5) 
unknown

>  <frequency_units>  (5) 
unknown

>  <frequency_list>  (5) 
unknown

>  <arkane_path>  (5) 
/home/calvin/Dropbox/PersonalFolders/Calvin/HAb_Converged/rxn_15/output/Species/rxn_15_CC[C]C[O]/arkane/output.py

>  <path_exists>  (5) 
True

>  <E0_value>  (5) 
-611470.37833502

>  <E0_units>  (5) 
kJ/mol

>  <thermo_class>  (5) 
NASA

>  <Cp0_value>  (5) 
33.257888

>  <Cp0_units>  (5) 
J/(mol*K)

>  <CpInf_value>  (5) 
332.57888

>  <CpInf_units>  (5) 
J/(mol*K)

>  <Tmin_value>  (5) 
10.0

>  <Tmin_units>  (5) 
K

>  <Tmax_value>  (5) 
3000.0

>  <Tmax_units>  (5) 
K

>  <polynomials>  (5) 
[{"name": "polynomial1", "class": "NASAPolynomial", "Tmin_value": 10.0, "Tmin_units": "K", "Tmax_value": 499.7575202547068, "Tmax_units": "K", "coeffs": [3.738116353922495, 0.020389458248016978, 6.140178531256933e-05, -1.1214320637285991e-07, 5.918380694157964e-11, -73542894.05561884, 11.171784541431645]}, {"name": "polynomial2", "class": "NASAPolynomial", "Tmin_value": 499.7575202547068, "Tmin_units": "K", "Tmax_value": 3000.0, "Tmax_units": "K", "coeffs": [-0.006036939198520291, 0.05035738792223526, -2.854613534748327e-05, 7.846225570769851e-09, -8.403590092827977e-13, -73542519.82399097, 26.63807309265739]}]

>  <H298_value>  (5) 
-146140.21215425868

>  <H298_units>  (5) 
kcal/mol

>  <S298_value>  (5) 
80.279266096428

>  <S298_units>  (5) 
cal/(mol*K)

>  <Cp_T_value_list>  (5) 
[25.501099214980197, 31.906837079051513, 37.68613712274778, 42.76003639038894, 51.038225841946115, 57.253569841537264, 66.62692886383475, 71.23789121235217, 73.54866215490581]

>  <Cp_T_units>  (5) 
cal/(mol*K)

>  <T_list>  (5) 
[300.0, 400.0, 500.0, 600.0, 800.0, 1000.0, 1500.0, 2000.0, 2400.0]

>  <T_units>  (5) 
K

>  <yaml_path>  (5) 
/home/calvin/Dropbox/PersonalFolders/Calvin/HAb_Converged/rxn_15/output/Species/rxn_15_CC[C]C[O]/rxn_15_CCCCO.yml

>  <frequencies_cm1>  (5) 
[124.82119216164, 221.32980384892, 239.85006325695997, 265.84160269316, 344.39991475395993, 394.72805016424, 481.30700107879994, 506.4676352912799, 825.8991914217199, 928.5743559263599, 934.7752436703199, 968.931628652, 1009.0142219648399, 1081.85233525408, 1143.2637849708399, 1190.6322497081999, 1217.64696995708, 1308.1332355187199, 1340.6758789501998, 1353.73001804352, 1370.38932442984, 1396.3121940128399, 1413.0676381936398, 1473.8816601875599, 1479.6361938857199, 1489.09203267136, 1497.6826313066797, 2852.53883494268, 2905.54509462776, 3002.67860197916, 3004.57388992748, 3014.13273349292, 3070.9021011333593, 3077.44633814332, 3089.20948399648, 3099.81210933056]

>  <ZPE_kJmol>  (5) 
317.72092390356687

>  <E_elec_kJmol>  (5) 
-611788.0992589236

>  <E0_minus_Eelec_plus_ZPE_kJmol>  (5) 
0.0

>  <rxn>  (5) 
rxn_15

>  <species_type>  (5) 
r1

>  <species_folder>  (5) 
rxn_15_CC[C]C[O]

>  <frequencies_cm1_list>  (5) 
[124.82119216164, 221.32980384892, 239.85006325695997, 265.84160269316, 344.39991475395993, 394.72805016424, 481.30700107879994, 506.4676352912799, 825.8991914217199, 928.5743559263599, 934.7752436703199, 968.931628652, 1009.0142219648399, 1081.85233525408, 1143.2637849708399, 1190.6322497081999, 1217.64696995708, 1308.1332355187199, 1340.6758789501998, 1353.73001804352, 1370.38932442984, 1396.3121940128399, 1413.0676381936398, 1473.8816601875599, 1479.6361938857199, 1489.09203267136, 1497.6826313066797, 2852.53883494268, 2905.54509462776, 3002.67860197916, 3004.57388992748, 3014.13273349292, 3070.9021011333593, 3077.44633814332, 3089.20948399648, 3099.81210933056]

>  <E0_kJmol>  (5) 
-611470

>  <H298_kJmol>  (5) 
-611451

$$$$
