
     RDKit          3D

  4  3  0  0  0  0  0  0  0  0999 V2000
    0.6184    0.0328   -0.3233 O   0  0  0  0  0  0  0  0  0  1  0  0
   -0.6435   -0.0682    0.2483 O   0  0  0  0  0  0  0  0  0  2  0  0
    1.1892   -0.4187    0.3096 H   0  0  0  0  0  0  0  0  0  3  0  0
   -0.7581    0.7480    0.7406 H   0  0  0  0  0  0  0  0  0  4  0  0
  1  2  1  0
  1  3  1  0
  2  4  1  0
M  END
>  <rmg_smiles>  (1) 
OO

>  <rmg_adjacency_list>  (1) 
1 O u0 p2 c0 {2,S} {3,S}
2 O u0 p2 c0 {1,S} {4,S}
3 H u0 p0 c0 {1,S}
4 H u0 p0 c0 {2,S}


>  <multiplicity>  (1) 
1

>  <reaction>  (1) 
rxn_779

>  <type>  (1) 
r1h

>  <role_mapnums>  (1) 
{"r1h_a": 2, "r1h_h": 4}

>  <role_mapidx>  (1) 
{"r1h_a": 1, "r1h_h": 3}

>  <ordered_mapped_smiles>  (1) 
[O:1]([O:2][H:4])[H:3]

>  <mol_properties>  (1) 
{"1": {"label": "donator", "atom_type": "O2s"}, "3": {"label": "d_hydrogen", "atom_type": "H0"}}

>  <level_of_theory>  (1) 
wb97xd/def2tzvp

>  <lot_method>  (1) 
wb97xd

>  <lot_basis>  (1) 
def2tzvp

>  <spin_multiplicity>  (1) 
1.0

>  <optical_isomers>  (1) 
2.0

>  <modes>  (1) 
IdealGasTranslation(mass=(34.0055, 'amu')),         NonlinearRotor(             inertia = ([1.6422, 18.4839, 19.1306

>  <frequency_value>  (1) 
unknown

>  <frequency_units>  (1) 
unknown

>  <frequency_list>  (1) 
unknown

>  <arkane_path>  (1) 
/home/calvin/Dropbox/PersonalFolders/Calvin/HAb_Converged/rxn_779/output/Species/rxn_779_OO/arkane/output.py

>  <path_exists>  (1) 
True

>  <E0_value>  (1) 
-397869.6784032715

>  <E0_units>  (1) 
kJ/mol

>  <thermo_class>  (1) 
NASA

>  <Cp0_value>  (1) 
33.257888

>  <Cp0_units>  (1) 
J/(mol*K)

>  <CpInf_value>  (1) 
83.14472

>  <CpInf_units>  (1) 
J/(mol*K)

>  <Tmin_value>  (1) 
10.0

>  <Tmin_units>  (1) 
K

>  <Tmax_value>  (1) 
3000.0

>  <Tmax_units>  (1) 
K

>  <polynomials>  (1) 
[{"name": "polynomial1", "class": "NASAPolynomial", "Tmin_value": 10.0, "Tmin_units": "K", "Tmax_value": 455.78106288096404, "Tmax_units": "K", "coeffs": [3.993411036033662, 0.00039597769380578143, 1.891318343950514e-05, -3.2458663273975925e-08, 1.830389461818306e-11, -47852668.906908266, 4.504010200645888]}, {"name": "polynomial2", "class": "NASAPolynomial", "Tmin_value": 455.78106288096404, "Tmin_units": "K", "Tmax_value": 3000.0, "Tmax_units": "K", "coeffs": [3.1932894099772424, 0.0074090928900088, -4.13817425256861e-06, 1.2156565940750795e-09, -1.433593106081876e-13, -47852595.87875142, 7.736455149271243]}]

>  <H298_value>  (1) 
-95090.51348489316

>  <H298_units>  (1) 
kcal/mol

>  <S298_value>  (1) 
55.5670496873013

>  <S298_units>  (1) 
cal/(mol*K)

>  <Cp_T_value_list>  (1) 
[10.107465812395086, 11.06702468787646, 11.935737360557455, 12.7042208397447, 13.981643941817545, 14.976592388023054, 16.639120825815006, 17.666826111390996, 18.25874653130484]

>  <Cp_T_units>  (1) 
cal/(mol*K)

>  <T_list>  (1) 
[300.0, 400.0, 500.0, 600.0, 800.0, 1000.0, 1500.0, 2000.0, 2400.0]

>  <T_units>  (1) 
K

>  <yaml_path>  (1) 
/home/calvin/Dropbox/PersonalFolders/Calvin/HAb_Converged/rxn_779/output/Species/rxn_779_OO/rxn_779_OO.yml

>  <frequencies_cm1>  (1) 
[384.68165064108, 1007.86056843108, 1337.5514006295998, 1458.46527814416, 3787.7329647175193, 3788.3509933963196]

>  <ZPE_kJmol>  (1) 
70.36821125363778

>  <E_elec_kJmol>  (1) 
-397940.04661452514

>  <E0_minus_Eelec_plus_ZPE_kJmol>  (1) 
0.0

>  <rxn>  (1) 
rxn_779

>  <species_type>  (1) 
r0

>  <species_folder>  (1) 
rxn_779_OO

>  <frequencies_cm1_list>  (1) 
[384.68165064108, 1007.86056843108, 1337.5514006295998, 1458.46527814416, 3787.7329647175193, 3788.3509933963196]

>  <E0_kJmol>  (1) 
-397870

>  <H298_kJmol>  (1) 
-397859

$$$$

     RDKit          3D

 15 14  0  0  0  0  0  0  0  0999 V2000
   -0.2433   -1.3277   -0.2457 H   0  0  0  0  0  0  0  0  0  1  0  0
    0.6607   -0.4330    1.3851 C   0  0  0  0  0  0  0  0  0  2  0  0
   -0.3395   -0.3671    0.2604 C   0  0  0  0  0  0  0  0  0  3  0  0
   -1.7857   -0.3301    0.6839 C   0  0  0  0  0  0  0  0  0  4  0  0
   -0.0033    0.6167   -0.8437 C   0  0  0  0  0  0  0  0  0  5  0  0
    1.3138    0.5103   -1.3231 O   0  0  0  0  0  0  0  0  0  6  0  0
    0.6149    0.4887    1.9772 H   0  0  0  0  0  0  0  0  0  7  0  0
    1.6779   -0.5234    1.0051 H   0  0  0  0  0  0  0  0  0  8  0  0
    0.4492   -1.2686    2.0540 H   0  0  0  0  0  0  0  0  0  9  0  0
   -2.0028    0.6128    1.1992 H   0  0  0  0  0  0  0  0  0 10  0  0
   -2.4569   -0.4040   -0.1732 H   0  0  0  0  0  0  0  0  0 11  0  0
   -2.0173   -1.1422    1.3743 H   0  0  0  0  0  0  0  0  0 12  0  0
   -0.1091    1.6354   -0.4511 H   0  0  0  0  0  0  0  0  0 13  0  0
   -0.7333    0.5064   -1.6560 H   0  0  0  0  0  0  0  0  0 14  0  0
    1.4282   -0.3781   -1.6779 H   0  0  0  0  0  0  0  0  0 15  0  0
  1  3  1  0
  2  9  1  0
  2  8  1  0
  2  7  1  0
  2  3  1  0
  3  4  1  0
  3  5  1  0
  4 12  1  0
  4 10  1  0
  4 11  1  0
  5  6  1  0
  5 14  1  0
  5 13  1  0
  6 15  1  0
M  END
>  <rmg_smiles>  (2) 
CC(C)CO

>  <rmg_adjacency_list>  (2) 
1  O u0 p2 c0 {3,S} {15,S}
2  C u0 p0 c0 {3,S} {4,S} {5,S} {6,S}
3  C u0 p0 c0 {1,S} {2,S} {7,S} {8,S}
4  C u0 p0 c0 {2,S} {9,S} {10,S} {11,S}
5  C u0 p0 c0 {2,S} {12,S} {13,S} {14,S}
6  H u0 p0 c0 {2,S}
7  H u0 p0 c0 {3,S}
8  H u0 p0 c0 {3,S}
9  H u0 p0 c0 {4,S}
10 H u0 p0 c0 {4,S}
11 H u0 p0 c0 {4,S}
12 H u0 p0 c0 {5,S}
13 H u0 p0 c0 {5,S}
14 H u0 p0 c0 {5,S}
15 H u0 p0 c0 {1,S}


>  <multiplicity>  (2) 
1

>  <reaction>  (2) 
rxn_779

>  <type>  (2) 
r2h

>  <role_mapnums>  (2) 
{"r2h_a": 3, "r2h_h": 1}

>  <role_mapidx>  (2) 
{"r2h_a": 2, "r2h_h": 0}

>  <ordered_mapped_smiles>  (2) 
[H:1][C:3]([C:2]([H:7])([H:8])[H:9])([C:4]([H:10])([H:11])[H:12])[C:5]([O:6][H:15])([H:13])[H:14]

>  <mol_properties>  (2) 
{"0": {"label": "a_hydrogen", "atom_type": "H0"}, "2": {"label": "acceptor", "atom_type": "Cs"}}

>  <level_of_theory>  (2) 
wb97xd/def2tzvp

>  <lot_method>  (2) 
wb97xd

>  <lot_basis>  (2) 
def2tzvp

>  <spin_multiplicity>  (2) 
1.0

>  <optical_isomers>  (2) 
2.0

>  <modes>  (2) 
IdealGasTranslation(mass=(74.0732, 'amu')),         NonlinearRotor(             inertia = ([66.603, 143.905, 189.515

>  <frequency_value>  (2) 
unknown

>  <frequency_units>  (2) 
unknown

>  <frequency_list>  (2) 
unknown

>  <arkane_path>  (2) 
/home/calvin/Dropbox/PersonalFolders/Calvin/HAb_Converged/rxn_779/output/Species/rxn_779_CC[C]CO/arkane/output.py

>  <path_exists>  (2) 
True

>  <E0_value>  (2) 
-613201.798563127

>  <E0_units>  (2) 
kJ/mol

>  <thermo_class>  (2) 
NASA

>  <Cp0_value>  (2) 
33.257888

>  <Cp0_units>  (2) 
J/(mol*K)

>  <CpInf_value>  (2) 
357.522296

>  <CpInf_units>  (2) 
J/(mol*K)

>  <Tmin_value>  (2) 
10.0

>  <Tmin_units>  (2) 
K

>  <Tmax_value>  (2) 
3000.0

>  <Tmax_units>  (2) 
K

>  <polynomials>  (2) 
[{"name": "polynomial1", "class": "NASAPolynomial", "Tmin_value": 10.0, "Tmin_units": "K", "Tmax_value": 575.0651176416371, "Tmax_units": "K", "coeffs": [3.712805799436365, 0.02341794423636385, 4.945520881208784e-05, -8.422411516035852e-08, 3.9345456013228885e-11, -73751136.90729754, 10.481383297442903]}, {"name": "polynomial2", "class": "NASAPolynomial", "Tmin_value": 575.0651176416371, "Tmin_units": "K", "Tmax_value": 3000.0, "Tmax_units": "K", "coeffs": [-0.6878246335024606, 0.05402765028160735, -3.0387394291557736e-05, 8.336812494957577e-09, -8.939885093345157e-13, -73750630.77899487, 29.27712262817248]}]

>  <H298_value>  (2) 
-146553.90003462895

>  <H298_units>  (2) 
kcal/mol

>  <S298_value>  (2) 
79.77174717591569

>  <S298_units>  (2) 
cal/(mol*K)

>  <Cp_T_value_list>  (2) 
[26.298303224673802, 33.0069380139673, 39.18106842386457, 44.660864775466386, 53.63198804085297, 60.401649014178936, 70.73051971901154, 75.92834368294982, 78.56390633588433]

>  <Cp_T_units>  (2) 
cal/(mol*K)

>  <T_list>  (2) 
[300.0, 400.0, 500.0, 600.0, 800.0, 1000.0, 1500.0, 2000.0, 2400.0]

>  <T_units>  (2) 
K

>  <yaml_path>  (2) 
/home/calvin/Dropbox/PersonalFolders/Calvin/HAb_Converged/rxn_779/output/Species/rxn_779_CC[C]CO/rxn_779_CCCCO.yml

>  <frequencies_cm1>  (2) 
[130.82980431664, 216.90746530284, 234.24660323583998, 266.73431078476, 284.49233482228, 352.62656316731994, 430.94453074191995, 496.53797451855996, 825.04768524204, 903.1871111983199, 929.7966793133199, 953.3298380049599, 972.0423730019598, 1079.3527525975999, 1116.63361589988, 1149.4372047735199, 1195.51467627072, 1246.91406139092, 1321.76420137892, 1364.46311609868, 1379.29580438988, 1394.3345022406797, 1400.81006939744, 1419.04878240736, 1474.01899989396, 1475.3855299726397, 1489.2293723777598, 1494.17360180816, 1499.15903315048, 2968.2269366287196, 2974.66816885888, 3005.13698272372, 3008.8176868552396, 3047.7397596489996, 3073.490954599, 3077.9132931450795, 3086.88844295832, 3102.6138393411197, 3839.6611077073594]

>  <ZPE_kJmol>  (2) 
356.9742425885658

>  <E_elec_kJmol>  (2) 
-613558.7728057157

>  <E0_minus_Eelec_plus_ZPE_kJmol>  (2) 
0.0

>  <rxn>  (2) 
rxn_779

>  <species_type>  (2) 
p0

>  <species_folder>  (2) 
rxn_779_CC[C]CO

>  <frequencies_cm1_list>  (2) 
[130.82980431664, 216.90746530284, 234.24660323583998, 266.73431078476, 284.49233482228, 352.62656316731994, 430.94453074191995, 496.53797451855996, 825.04768524204, 903.1871111983199, 929.7966793133199, 953.3298380049599, 972.0423730019598, 1079.3527525975999, 1116.63361589988, 1149.4372047735199, 1195.51467627072, 1246.91406139092, 1321.76420137892, 1364.46311609868, 1379.29580438988, 1394.3345022406797, 1400.81006939744, 1419.04878240736, 1474.01899989396, 1475.3855299726397, 1489.2293723777598, 1494.17360180816, 1499.15903315048, 2968.2269366287196, 2974.66816885888, 3005.13698272372, 3008.8176868552396, 3047.7397596489996, 3073.490954599, 3077.9132931450795, 3086.88844295832, 3102.6138393411197, 3839.6611077073594]

>  <E0_kJmol>  (2) 
-613202

>  <H298_kJmol>  (2) 
-613182

$$$$

     RDKit          3D

 18 16  0  0  0  0  0  0  0  0999 V2000
    1.0730   -1.6581   -1.2682 O   0  0  0  0  0  0  0  0  0  1  0  0
   -0.1890   -1.7591   -0.6965 O   0  0  0  0  0  0  0  0  0  2  0  0
    1.6437   -2.1096   -0.6353 H   0  0  0  0  0  0  0  0  0  3  0  0
   -0.3361   -0.7109   -0.0642 H   0  0  0  0  0  0  0  0  0  4  0  0
    0.5495    0.3669    1.6630 C   0  0  0  0  0  0  0  0  0  5  0  0
   -0.4507    0.4329    0.5383 C   0  0  0  0  0  3  0  0  0  6  0  0
   -1.8968    0.4698    0.9618 C   0  0  0  0  0  0  0  0  0  7  0  0
   -0.1145    1.4167   -0.5657 C   0  0  0  0  0  0  0  0  0  8  0  0
    1.2026    1.3103   -1.0452 O   0  0  0  0  0  0  0  0  0  9  0  0
    0.5037    1.2887    2.2551 H   0  0  0  0  0  0  0  0  0 10  0  0
    1.5668    0.2766    1.2830 H   0  0  0  0  0  0  0  0  0 11  0  0
    0.3381   -0.4687    2.3320 H   0  0  0  0  0  0  0  0  0 12  0  0
   -2.1140    1.4128    1.4771 H   0  0  0  0  0  0  0  0  0 13  0  0
   -2.5681    0.3960    0.1048 H   0  0  0  0  0  0  0  0  0 14  0  0
   -2.1285   -0.3423    1.6522 H   0  0  0  0  0  0  0  0  0 15  0  0
   -0.2203    2.4354   -0.1731 H   0  0  0  0  0  0  0  0  0 16  0  0
   -0.8444    1.3064   -1.3781 H   0  0  0  0  0  0  0  0  0 17  0  0
    1.3171    0.4219   -1.3999 H   0  0  0  0  0  0  0  0  0 18  0  0
  1  2  1  0
  1  3  1  0
  2  4  1  0
  5 11  1  0
  5 12  1  0
  5  6  1  0
  5 10  1  0
  6  8  1  0
  6  7  1  0
  7 13  1  0
  7 14  1  0
  7 15  1  0
  8 16  1  0
  8  9  1  0
  8 17  1  0
  9 18  1  0
M  RAD  1   6   2
M  END
>  <rmg_smiles>  (3) 
C[C](C)CO.OO

>  <rmg_adjacency_list>  (3) 
multiplicity 2
1  O u0 p2 c0 {4,S} {16,S}
2  O u0 p2 c0 {3,S} {17,S}
3  O u0 p2 c0 {2,S} {18,S}
4  C u0 p0 c0 {1,S} {7,S} {8,S} {9,S}
5  C u0 p0 c0 {7,S} {10,S} {11,S} {12,S}
6  C u0 p0 c0 {7,S} {13,S} {14,S} {15,S}
7  C u1 p0 c0 {4,S} {5,S} {6,S}
8  H u0 p0 c0 {4,S}
9  H u0 p0 c0 {4,S}
10 H u0 p0 c0 {5,S}
11 H u0 p0 c0 {5,S}
12 H u0 p0 c0 {5,S}
13 H u0 p0 c0 {6,S}
14 H u0 p0 c0 {6,S}
15 H u0 p0 c0 {6,S}
16 H u0 p0 c0 {1,S}
17 H u0 p0 c0 {2,S}
18 H u0 p0 c0 {3,S}


>  <multiplicity>  (3) 
2

>  <reaction>  (3) 
rxn_779

>  <type>  (3) 
ts

>  <role_mapnums>  (3) 
{"*2": 4, "*1": 2, "*3": 6, "*0": 1, "*4": 8}

>  <role_mapidx>  (3) 
{"*2": 3, "*1": 1, "*3": 5, "*0": 0, "*4": 7}

>  <ordered_mapped_smiles>  (3) 
[O:1]([O:2][H:4])[H:3].[C:5]([C:6]([C:7]([H:13])([H:14])[H:15])[C:8]([O:9][H:18])([H:16])[H:17])([H:10])([H:11])[H:12]

>  <mol_properties>  (3) 
{"0": {"label": "*0", "atom_type": "O2s"}, "1": {"label": "*1", "atom_type": "O2s"}, "3": {"label": "*2", "atom_type": "H0"}, "5": {"label": "*3", "atom_type": "Cs"}, "7": {"label": "*4", "atom_type": "Cs"}}

>  <level_of_theory>  (3) 
wb97xd/def2tzvp

>  <lot_method>  (3) 
wb97xd

>  <lot_basis>  (3) 
def2tzvp

>  <spin_multiplicity>  (3) 
2.0

>  <optical_isomers>  (3) 
2.0

>  <modes>  (3) 
IdealGasTranslation(mass=(107.071, 'amu')),         NonlinearRotor(             inertia = ([192.437, 273.799, 346.542

>  <frequency_value>  (3) 
-1759.37

>  <frequency_units>  (3) 
cm^-1

>  <frequency_list>  (3) 
unknown

>  <arkane_path>  (3) 
/home/calvin/Dropbox/PersonalFolders/Calvin/HAb_Converged/rxn_779/output/rxns/TS0/arkane/output.py

>  <path_exists>  (3) 
True

>  <E0_value>  (3) 
-1009360.0

>  <E0_units>  (3) 
kJ/mol

>  <thermo_class>  (3) 
unknown

>  <Cp0_value>  (3) 
unknown

>  <Cp0_units>  (3) 
unknown

>  <CpInf_value>  (3) 
unknown

>  <CpInf_units>  (3) 
unknown

>  <Tmin_value>  (3) 
unknown

>  <Tmin_units>  (3) 
unknown

>  <Tmax_value>  (3) 
unknown

>  <Tmax_units>  (3) 
unknown

>  <polynomials>  (3) 
unknown

>  <H298_value>  (3) 
unknown

>  <H298_units>  (3) 
unknown

>  <S298_value>  (3) 
unknown

>  <S298_units>  (3) 
unknown

>  <Cp_T_value_list>  (3) 
unknown

>  <Cp_T_units>  (3) 
unknown

>  <T_list>  (3) 
unknown

>  <T_units>  (3) 
unknown

>  <yaml_path>  (3) 
unknown

>  <frequencies_cm1>  (3) 
unknown

>  <ZPE_kJmol>  (3) 
unknown

>  <E_elec_kJmol>  (3) 
unknown

>  <E0_minus_Eelec_plus_ZPE_kJmol>  (3) 
unknown

>  <rxn>  (3) 
unknown

>  <species_type>  (3) 
unknown

>  <species_folder>  (3) 
unknown

>  <frequencies_cm1_list>  (3) 
[]

>  <ts_imag_freq_cm1>  (3) 
-1780.7358

>  <ts_freq_out_path>  (3) 
/home/calvin/Dropbox/PersonalFolders/Calvin/HAb_Converged/rxn_779/output/rxns/TS0/geometry/freq.out

>  <E0_kJmol>  (3) 
-1.00936e+06

>  <H298_kJmol>  (3) 
unknown

$$$$

     RDKit          3D

  3  2  0  0  0  0  0  0  0  0999 V2000
    0.9943   -0.1797    0.0000 O   0  0  0  0  0  1  0  0  0  1  0  0
   -0.1595    0.4394    0.0000 O   0  0  0  0  0  0  0  0  0  2  0  0
   -0.8348   -0.2597    0.0000 H   0  0  0  0  0  0  0  0  0  3  0  0
  1  2  1  0
  2  3  1  0
M  RAD  1   1   2
M  END
>  <rmg_smiles>  (4) 
[O]O

>  <rmg_adjacency_list>  (4) 
multiplicity 2
1 O u1 p2 c0 {2,S}
2 O u0 p2 c0 {1,S} {3,S}
3 H u0 p0 c0 {2,S}


>  <multiplicity>  (4) 
2

>  <reaction>  (4) 
rxn_779

>  <type>  (4) 
r1

>  <role_mapnums>  (4) 
{}

>  <role_mapidx>  (4) 
{}

>  <ordered_mapped_smiles>  (4) 
[O:1][O:2][H:3]

>  <level_of_theory>  (4) 
wb97xd/def2tzvp

>  <lot_method>  (4) 
wb97xd

>  <lot_basis>  (4) 
def2tzvp

>  <spin_multiplicity>  (4) 
2.0

>  <optical_isomers>  (4) 
1.0

>  <modes>  (4) 
IdealGasTranslation(mass=(32.9977, 'amu')),         NonlinearRotor(             inertia = ([0.803517, 14.5889, 15.3924

>  <frequency_value>  (4) 
unknown

>  <frequency_units>  (4) 
unknown

>  <frequency_list>  (4) 
unknown

>  <arkane_path>  (4) 
/home/calvin/Dropbox/PersonalFolders/Calvin/HAb_Converged/rxn_779/output/Species/rxn_779_[O]O/arkane/output.py

>  <path_exists>  (4) 
True

>  <E0_value>  (4) 
-396214.7927695905

>  <E0_units>  (4) 
kJ/mol

>  <thermo_class>  (4) 
NASA

>  <Cp0_value>  (4) 
33.257888

>  <Cp0_units>  (4) 
J/(mol*K)

>  <CpInf_value>  (4) 
58.201304

>  <CpInf_units>  (4) 
J/(mol*K)

>  <Tmin_value>  (4) 
10.0

>  <Tmin_units>  (4) 
K

>  <Tmax_value>  (4) 
3000.0

>  <Tmax_units>  (4) 
K

>  <polynomials>  (4) 
[{"name": "polynomial1", "class": "NASAPolynomial", "Tmin_value": 10.0, "Tmin_units": "K", "Tmax_value": 938.1901641883775, "Tmax_units": "K", "coeffs": [4.028900763568748, -0.0017001850192041605, 1.0116513729421136e-05, -1.0102502975955476e-08, 3.2943616799556636e-12, -47653633.38795187, 4.661311963627797]}, {"name": "polynomial2", "class": "NASAPolynomial", "Tmin_value": 938.1901641883775, "Tmin_units": "K", "Tmax_value": 3000.0, "Tmax_units": "K", "coeffs": [3.0224709900106443, 0.00428209217697721, -2.152234978217665e-06, 5.370565329041951e-10, -5.2799153043016775e-14, -47653518.97920004, 9.055842364041489]}]

>  <H298_value>  (4) 
-94695.23338060976

>  <H298_units>  (4) 
kcal/mol

>  <S298_value>  (4) 
54.59701487407024

>  <S298_units>  (4) 
cal/(mol*K)

>  <Cp_T_value_list>  (4) 
[8.312978103030632, 8.754130351990018, 9.242540000567846, 9.728455522252242, 10.572357002256187, 11.201059485179156, 12.218042363471625, 12.776508208459937, 13.066159106759592]

>  <Cp_T_units>  (4) 
cal/(mol*K)

>  <T_list>  (4) 
[300.0, 400.0, 500.0, 600.0, 800.0, 1000.0, 1500.0, 2000.0, 2400.0]

>  <T_units>  (4) 
K

>  <yaml_path>  (4) 
/home/calvin/Dropbox/PersonalFolders/Calvin/HAb_Converged/rxn_779/output/Species/rxn_779_[O]O/rxn_779_OO.yml

>  <frequencies_cm1>  (4) 
[1229.25217514788, 1446.77766912952, 3624.6283293968795]

>  <ZPE_kJmol>  (4) 
37.68631575394318

>  <E_elec_kJmol>  (4) 
-396252.4790853445

>  <E0_minus_Eelec_plus_ZPE_kJmol>  (4) 
0.0

>  <rxn>  (4) 
rxn_779

>  <species_type>  (4) 
p1

>  <species_folder>  (4) 
rxn_779_[O]O

>  <frequencies_cm1_list>  (4) 
[1229.25217514788, 1446.77766912952, 3624.6283293968795]

>  <E0_kJmol>  (4) 
-396215

>  <H298_kJmol>  (4) 
-396205

$$$$

     RDKit          3D

 14 13  0  0  0  0  0  0  0  0999 V2000
   -0.0263    1.3824   -0.7006 C   0  0  0  0  0  0  0  0  0  1  0  0
   -0.2039   -0.0453   -0.3213 C   0  0  0  0  0  3  0  0  0  2  0  0
   -1.1121   -0.3782    0.8104 C   0  0  0  0  0  0  0  0  0  3  0  0
    0.8313   -1.0381   -0.7322 C   0  0  0  0  0  0  0  0  0  4  0  0
    0.3307   -2.3541   -0.9005 O   0  0  0  0  0  0  0  0  0  5  0  0
    0.6071    1.9181    0.0231 H   0  0  0  0  0  0  0  0  0  6  0  0
   -0.9831    1.9109   -0.7211 H   0  0  0  0  0  0  0  0  0  7  0  0
    0.4475    1.4899   -1.6787 H   0  0  0  0  0  0  0  0  0  8  0  0
   -2.0864    0.1051    0.6984 H   0  0  0  0  0  0  0  0  0  9  0  0
   -1.2623   -1.4541    0.9003 H   0  0  0  0  0  0  0  0  0 10  0  0
   -0.6968   -0.0235    1.7662 H   0  0  0  0  0  0  0  0  0 11  0  0
    1.6088   -1.1338    0.0391 H   0  0  0  0  0  0  0  0  0 12  0  0
    1.3350   -0.6925   -1.6447 H   0  0  0  0  0  0  0  0  0 13  0  0
   -0.3997   -2.3102   -1.5208 H   0  0  0  0  0  0  0  0  0 14  0  0
  1  8  1  0
  1  7  1  0
  1  6  1  0
  1  2  1  0
  2  3  1  0
  2  4  1  0
  3 11  1  0
  3  9  1  0
  3 10  1  0
  4 13  1  0
  4 12  1  0
  4  5  1  0
  5 14  1  0
M  RAD  1   2   2
M  END
>  <rmg_smiles>  (5) 
C[C](C)CO

>  <rmg_adjacency_list>  (5) 
multiplicity 2
1  O u0 p2 c0 {2,S} {14,S}
2  C u0 p0 c0 {1,S} {5,S} {6,S} {7,S}
3  C u0 p0 c0 {5,S} {8,S} {9,S} {10,S}
4  C u0 p0 c0 {5,S} {11,S} {12,S} {13,S}
5  C u1 p0 c0 {2,S} {3,S} {4,S}
6  H u0 p0 c0 {2,S}
7  H u0 p0 c0 {2,S}
8  H u0 p0 c0 {3,S}
9  H u0 p0 c0 {3,S}
10 H u0 p0 c0 {3,S}
11 H u0 p0 c0 {4,S}
12 H u0 p0 c0 {4,S}
13 H u0 p0 c0 {4,S}
14 H u0 p0 c0 {1,S}


>  <multiplicity>  (5) 
2

>  <reaction>  (5) 
rxn_779

>  <type>  (5) 
r2

>  <role_mapnums>  (5) 
{}

>  <role_mapidx>  (5) 
{}

>  <ordered_mapped_smiles>  (5) 
[C:1]([C:2]([C:3]([H:9])([H:10])[H:11])[C:4]([O:5][H:14])([H:12])[H:13])([H:6])([H:7])[H:8]

>  <level_of_theory>  (5) 
wb97xd/def2tzvp

>  <lot_method>  (5) 
wb97xd

>  <lot_basis>  (5) 
def2tzvp

>  <spin_multiplicity>  (5) 
2.0

>  <optical_isomers>  (5) 
2.0

>  <modes>  (5) 
IdealGasTranslation(mass=(73.0653, 'amu')),         NonlinearRotor(             inertia = ([66.6519, 141.392, 190.234

>  <frequency_value>  (5) 
unknown

>  <frequency_units>  (5) 
unknown

>  <frequency_list>  (5) 
unknown

>  <arkane_path>  (5) 
/home/calvin/Dropbox/PersonalFolders/Calvin/HAb_Converged/rxn_779/output/Species/rxn_779_C[C][C]CO/arkane/output.py

>  <path_exists>  (5) 
True

>  <E0_value>  (5) 
-611495.1349430596

>  <E0_units>  (5) 
kJ/mol

>  <thermo_class>  (5) 
NASA

>  <Cp0_value>  (5) 
33.257888

>  <Cp0_units>  (5) 
J/(mol*K)

>  <CpInf_value>  (5) 
332.57888

>  <CpInf_units>  (5) 
J/(mol*K)

>  <Tmin_value>  (5) 
10.0

>  <Tmin_units>  (5) 
K

>  <Tmax_value>  (5) 
3000.0

>  <Tmax_units>  (5) 
K

>  <polynomials>  (5) 
[{"name": "polynomial1", "class": "NASAPolynomial", "Tmin_value": 10.0, "Tmin_units": "K", "Tmax_value": 444.89285803448655, "Tmax_units": "K", "coeffs": [3.5516497294481084, 0.04549119231203356, -9.35500556411164e-05, 2.2415821551796147e-07, -1.89017142507032e-10, -73545875.69862285, 11.47675931749065]}, {"name": "polynomial2", "class": "NASAPolynomial", "Tmin_value": 444.89285803448655, "Tmin_units": "K", "Tmax_value": 3000.0, "Tmax_units": "K", "coeffs": [0.48125722327110365, 0.0496265058412315, -2.8360023030992606e-05, 7.892390846890453e-09, -8.565813367019484e-13, -73545370.22540295, 26.41330014079809]}]

>  <H298_value>  (5) 
-146145.66332159776

>  <H298_units>  (5) 
kcal/mol

>  <S298_value>  (5) 
84.88967618109803

>  <S298_units>  (5) 
cal/(mol*K)

>  <Cp_T_value_list>  (5) 
[26.431307814702723, 32.36643649688936, 38.03019801263985, 43.00572393844454, 51.11511550414589, 57.19885677382744, 66.39523256354266, 70.99891817771157, 73.36018555026162]

>  <Cp_T_units>  (5) 
cal/(mol*K)

>  <T_list>  (5) 
[300.0, 400.0, 500.0, 600.0, 800.0, 1000.0, 1500.0, 2000.0, 2400.0]

>  <T_units>  (5) 
K

>  <yaml_path>  (5) 
/home/calvin/Dropbox/PersonalFolders/Calvin/HAb_Converged/rxn_779/output/Species/rxn_779_C[C][C]CO/rxn_779_CCCCO.yml

>  <frequencies_cm1>  (5) 
[74.39691895688, 115.57822992092, 128.84524555916, 237.25434280599998, 298.41858105124, 342.64883349736, 362.94764210328, 501.66074556727995, 775.74273064444, 910.0884314449199, 933.4911174154801, 969.65952909592, 994.96437000012, 1046.9268479165598, 1072.89091941148, 1184.8433810834401, 1259.4188416586398, 1297.5237431993198, 1363.9824271262798, 1384.1782309523999, 1395.42635290656, 1412.97150039916, 1456.05496629684, 1458.62321880652, 1472.01384018052, 1478.3314666749197, 1482.21131338072, 2937.81305864644, 2941.3838910128397, 2951.21054700576, 2983.71885551064, 3027.32421229264, 3032.9002043724804, 3076.5398960810794, 3098.1708998390795, 3827.0464556745196]

>  <ZPE_kJmol>  (5) 
318.7283386735599

>  <E_elec_kJmol>  (5) 
-611813.8632817332

>  <E0_minus_Eelec_plus_ZPE_kJmol>  (5) 
0.0

>  <rxn>  (5) 
rxn_779

>  <species_type>  (5) 
r1

>  <species_folder>  (5) 
rxn_779_C[C][C]CO

>  <frequencies_cm1_list>  (5) 
[74.39691895688, 115.57822992092, 128.84524555916, 237.25434280599998, 298.41858105124, 342.64883349736, 362.94764210328, 501.66074556727995, 775.74273064444, 910.0884314449199, 933.4911174154801, 969.65952909592, 994.96437000012, 1046.9268479165598, 1072.89091941148, 1184.8433810834401, 1259.4188416586398, 1297.5237431993198, 1363.9824271262798, 1384.1782309523999, 1395.42635290656, 1412.97150039916, 1456.05496629684, 1458.62321880652, 1472.01384018052, 1478.3314666749197, 1482.21131338072, 2937.81305864644, 2941.3838910128397, 2951.21054700576, 2983.71885551064, 3027.32421229264, 3032.9002043724804, 3076.5398960810794, 3098.1708998390795, 3827.0464556745196]

>  <E0_kJmol>  (5) 
-611495

>  <H298_kJmol>  (5) 
-611473

$$$$
