
     RDKit          3D

 19 20  0  0  0  0  0  0  0  0999 V2000
   -0.3250   -1.1143   -1.0234 C   0  0  0  0  0  0  0  0  0  1  0  0
   -0.1804   -1.4654    0.4838 C   0  0  0  0  0  0  0  0  0  2  0  0
   -0.1568   -0.0867    1.1616 C   0  0  0  0  0  0  0  0  0  3  0  0
    1.1735    0.6103    0.8113 C   0  0  0  0  0  0  0  0  0  4  0  0
    0.9979    0.9754   -0.6904 C   0  0  0  0  0  0  0  0  0  5  0  0
   -0.4023    0.4224   -1.0202 C   0  0  0  0  0  0  0  0  0  6  0  0
   -1.1301    0.6951    0.2897 C   0  0  0  0  0  0  0  0  0  7  0  0
   -1.2356   -1.5476   -1.4370 H   0  0  0  0  0  0  0  0  0  8  0  0
    0.5148   -1.4721   -1.6208 H   0  0  0  0  0  0  0  0  0  9  0  0
   -1.0364   -2.0463    0.8308 H   0  0  0  0  0  0  0  0  0 10  0  0
    0.7212   -2.0401    0.6999 H   0  0  0  0  0  0  0  0  0 11  0  0
   -0.3656   -0.1116    2.2301 H   0  0  0  0  0  0  0  0  0 12  0  0
    2.0289   -0.0438    0.9892 H   0  0  0  0  0  0  0  0  0 13  0  0
    1.3132    1.5053    1.4192 H   0  0  0  0  0  0  0  0  0 14  0  0
    1.7673    0.5333   -1.3256 H   0  0  0  0  0  0  0  0  0 15  0  0
    1.0312    2.0560   -0.8373 H   0  0  0  0  0  0  0  0  0 16  0  0
   -0.8433    0.8491   -1.9198 H   0  0  0  0  0  0  0  0  0 17  0  0
   -2.1172    0.2324    0.2754 H   0  0  0  0  0  0  0  0  0 18  0  0
   -1.3044    1.7392    0.5508 H   0  0  0  0  0  0  0  0  0 19  0  0
  1  8  1  0
  1  6  1  0
  1  9  1  0
  1  2  1  0
  2 11  1  0
  2  3  1  0
  2 10  1  0
  3  4  1  0
  3 12  1  0
  3  7  1  0
  4 14  1  0
  4  5  1  0
  4 13  1  0
  5 16  1  0
  5 15  1  0
  5  6  1  0
  6  7  1  0
  6 17  1  0
  7 18  1  0
  7 19  1  0
M  END
>  <rmg_smiles>  (1) 
C1CC2CCC1C2

>  <rmg_adjacency_list>  (1) 
1  C u0 p0 c0 {3,S} {5,S} {6,S} {8,S}
2  C u0 p0 c0 {3,S} {4,S} {7,S} {9,S}
3  C u0 p0 c0 {1,S} {2,S} {18,S} {19,S}
4  C u0 p0 c0 {2,S} {5,S} {10,S} {11,S}
5  C u0 p0 c0 {1,S} {4,S} {12,S} {13,S}
6  C u0 p0 c0 {1,S} {7,S} {14,S} {15,S}
7  C u0 p0 c0 {2,S} {6,S} {16,S} {17,S}
8  H u0 p0 c0 {1,S}
9  H u0 p0 c0 {2,S}
10 H u0 p0 c0 {4,S}
11 H u0 p0 c0 {4,S}
12 H u0 p0 c0 {5,S}
13 H u0 p0 c0 {5,S}
14 H u0 p0 c0 {6,S}
15 H u0 p0 c0 {6,S}
16 H u0 p0 c0 {7,S}
17 H u0 p0 c0 {7,S}
18 H u0 p0 c0 {3,S}
19 H u0 p0 c0 {3,S}


>  <multiplicity>  (1) 
1

>  <reaction>  (1) 
rxn_552

>  <type>  (1) 
r1h

>  <role_mapnums>  (1) 
{"r1h_a": 7, "r1h_h": 18}

>  <role_mapidx>  (1) 
{"r1h_a": 6, "r1h_h": 17}

>  <ordered_mapped_smiles>  (1) 
[C:1]1([H:8])([H:9])[C:2]([H:10])([H:11])[C:3]2([H:12])[C:4]([H:13])([H:14])[C:5]([H:15])([H:16])[C:6]1([H:17])[C:7]2([H:18])[H:19]

>  <mol_properties>  (1) 
{"6": {"label": "donator", "atom_type": "Cs"}, "17": {"label": "d_hydrogen", "atom_type": "H0"}}

>  <level_of_theory>  (1) 
wb97xd/def2tzvp

>  <lot_method>  (1) 
wb97xd

>  <lot_basis>  (1) 
def2tzvp

>  <spin_multiplicity>  (1) 
1.0

>  <optical_isomers>  (1) 
1.0

>  <modes>  (1) 
IdealGasTranslation(mass=(96.0939, 'amu')),         NonlinearRotor(             inertia = ([135.336, 156.085, 180.607

>  <frequency_value>  (1) 
unknown

>  <frequency_units>  (1) 
unknown

>  <frequency_list>  (1) 
unknown

>  <arkane_path>  (1) 
/home/calvin/Dropbox/PersonalFolders/Calvin/HAb_Converged/rxn_552/output/Species/rxn_552_C1CC2CCC1C2/arkane/output.py

>  <path_exists>  (1) 
True

>  <E0_value>  (1) 
-718893.5806331062

>  <E0_units>  (1) 
kJ/mol

>  <thermo_class>  (1) 
NASA

>  <Cp0_value>  (1) 
33.257888

>  <Cp0_units>  (1) 
J/(mol*K)

>  <CpInf_value>  (1) 
457.29596

>  <CpInf_units>  (1) 
J/(mol*K)

>  <Tmin_value>  (1) 
10.0

>  <Tmin_units>  (1) 
K

>  <Tmax_value>  (1) 
3000.0

>  <Tmax_units>  (1) 
K

>  <polynomials>  (1) 
[{"name": "polynomial1", "class": "NASAPolynomial", "Tmin_value": 10.0, "Tmin_units": "K", "Tmax_value": 662.4178125457627, "Tmax_units": "K", "coeffs": [4.239403585768697, -0.01836828814634063, 0.0002578950712714286, -3.7381328534857083e-07, 1.74409927807895e-10, -86462928.5201383, 9.87949578073462]}, {"name": "polynomial2", "class": "NASAPolynomial", "Tmin_value": 662.4178125457627, "Tmin_units": "K", "Tmax_value": 3000.0, "Tmax_units": "K", "coeffs": [-6.999983226389214, 0.08370637401899614, -5.070273549604008e-05, 1.4717426455763106e-08, -1.6436943039919863e-12, -86462189.9567335, 53.80936817756756]}]

>  <H298_value>  (1) 
-171815.58472962098

>  <H298_units>  (1) 
kcal/mol

>  <S298_value>  (1) 
73.63684385034063

>  <S298_units>  (1) 
cal/(mol*K)

>  <Cp_T_value_list>  (1) 
[26.348838520541374, 37.15309814493767, 47.10273015631388, 55.48382566754763, 68.31505323621754, 77.6548383777145, 91.07076230422987, 97.45683083224962, 100.88536523646154]

>  <Cp_T_units>  (1) 
cal/(mol*K)

>  <T_list>  (1) 
[300.0, 400.0, 500.0, 600.0, 800.0, 1000.0, 1500.0, 2000.0, 2400.0]

>  <T_units>  (1) 
K

>  <yaml_path>  (1) 
/home/calvin/Dropbox/PersonalFolders/Calvin/HAb_Converged/rxn_552/output/Species/rxn_552_C1CC2CCC1C2/rxn_552_C1CC2CCC1C2.yml

>  <frequencies_cm1>  (1) 
[154.85738595131997, 340.37586135643994, 406.75900844488, 450.69398052224, 546.52276066284, 762.7915963309199, 767.83883054112, 803.5128192785198, 822.9257867781599, 828.1927645185999, 886.4866029000799, 904.4231685559199, 936.7804033837599, 957.0723450043599, 964.2964135609999, 966.8990009972799, 969.81060277296, 1009.5017779225599, 1041.98261848616, 1088.6987196181199, 1128.4585646209198, 1135.50409155924, 1162.87589504476, 1186.2717140299999, 1234.53288685896, 1241.50287695876, 1269.37597037264, 1285.33484425632, 1285.7125284489198, 1300.5726846814, 1328.01315802012, 1340.8956224804401, 1342.91451616452, 1343.99949984508, 1472.87221334552, 1484.7314969931601, 1486.79845957448, 1493.51437121744, 1517.5419528521197, 3027.37228118988, 3027.8598371476, 3028.0795806778397, 3039.1354270430397, 3039.76032270716, 3064.0831847106, 3066.3286889102396, 3077.8514902772, 3080.41974278688, 3084.8970172155196, 3085.2334994962002, 3090.71335378156]

>  <ZPE_kJmol>  (1) 
462.7371032824111

>  <E_elec_kJmol>  (1) 
-719356.3177363885

>  <E0_minus_Eelec_plus_ZPE_kJmol>  (1) 
0.0

>  <rxn>  (1) 
rxn_552

>  <species_type>  (1) 
r1

>  <species_folder>  (1) 
rxn_552_C1CC2CCC1C2

>  <frequencies_cm1_list>  (1) 
[154.85738595131997, 340.37586135643994, 406.75900844488, 450.69398052224, 546.52276066284, 762.7915963309199, 767.83883054112, 803.5128192785198, 822.9257867781599, 828.1927645185999, 886.4866029000799, 904.4231685559199, 936.7804033837599, 957.0723450043599, 964.2964135609999, 966.8990009972799, 969.81060277296, 1009.5017779225599, 1041.98261848616, 1088.6987196181199, 1128.4585646209198, 1135.50409155924, 1162.87589504476, 1186.2717140299999, 1234.53288685896, 1241.50287695876, 1269.37597037264, 1285.33484425632, 1285.7125284489198, 1300.5726846814, 1328.01315802012, 1340.8956224804401, 1342.91451616452, 1343.99949984508, 1472.87221334552, 1484.7314969931601, 1486.79845957448, 1493.51437121744, 1517.5419528521197, 3027.37228118988, 3027.8598371476, 3028.0795806778397, 3039.1354270430397, 3039.76032270716, 3064.0831847106, 3066.3286889102396, 3077.8514902772, 3080.41974278688, 3084.8970172155196, 3085.2334994962002, 3090.71335378156]

>  <E0_kJmol>  (1) 
-718894

>  <H298_kJmol>  (1) 
-718876

$$$$

     RDKit          3D

 10  9  0  0  0  0  0  0  0  0999 V2000
   -0.2267    0.3249   -1.8115 C   0  0  0  0  0  0  0  0  0  1  0  0
    0.2656    0.2783   -0.5870 C   0  0  0  0  0  0  0  0  0  2  0  0
   -0.3162   -0.3126    0.5991 C   0  0  0  0  0  0  0  0  0  3  0  0
    0.2511   -0.3046    1.8012 C   0  0  0  0  0  0  0  0  0  4  0  0
    0.3164    0.7982   -2.6221 H   0  0  0  0  0  0  0  0  0  5  0  0
   -1.1950   -0.1077   -2.0562 H   0  0  0  0  0  0  0  0  0  6  0  0
   -1.2870   -0.7915    0.4698 H   0  0  0  0  0  0  0  0  0  7  0  0
   -0.2303   -0.7631    2.6550 H   0  0  0  0  0  0  0  0  0  8  0  0
    1.2141    0.1640    1.9638 H   0  0  0  0  0  0  0  0  0  9  0  0
    1.2425    0.7458   -0.4637 H   0  0  0  0  0  0  0  0  0 10  0  0
  1  5  1  0
  1  6  1  0
  1  2  1  0
  2 10  1  0
  2  3  1  0
  3  4  1  0
  3  7  1  0
  4  8  1  0
  4  9  1  0
M  END
>  <rmg_smiles>  (2) 
[CH2][CH][CH][CH2]

>  <rmg_adjacency_list>  (2) 
1  C u0 p0 c0 {2,S} {3,S} {6,S}
2  C u0 p0 c0 {1,S} {4,S} {5,S}
3  C u0 p0 c0 {1,S} {7,S} {8,S}
4  C u0 p0 c0 {2,S} {9,S} {10,S}
5  H u0 p0 c0 {2,S}
6  H u0 p0 c0 {1,S}
7  H u0 p0 c0 {3,S}
8  H u0 p0 c0 {3,S}
9  H u0 p0 c0 {4,S}
10 H u0 p0 c0 {4,S}


>  <multiplicity>  (2) 
1

>  <reaction>  (2) 
rxn_552

>  <type>  (2) 
r2h

>  <role_mapnums>  (2) 
{"r2h_a": 2, "r2h_h": 10}

>  <role_mapidx>  (2) 
{"r2h_a": 1, "r2h_h": 9}

>  <ordered_mapped_smiles>  (2) 
[CH:1]([CH:2]([CH:3]([CH:4]([H:8])[H:9])[H:7])[H:10])([H:5])[H:6]

>  <mol_properties>  (2) 
{"1": {"label": "acceptor", "atom_type": "Cs"}, "9": {"label": "a_hydrogen", "atom_type": "H0"}}

>  <level_of_theory>  (2) 
wb97xd/def2tzvp

>  <lot_method>  (2) 
wb97xd

>  <lot_basis>  (2) 
def2tzvp

>  <spin_multiplicity>  (2) 
1.0

>  <optical_isomers>  (2) 
1.0

>  <modes>  (2) 
IdealGasTranslation(mass=(54.047, 'amu')),         NonlinearRotor(             inertia = ([11.9182, 113.061, 124.979

>  <frequency_value>  (2) 
unknown

>  <frequency_units>  (2) 
unknown

>  <frequency_list>  (2) 
unknown

>  <arkane_path>  (2) 
/home/calvin/Dropbox/PersonalFolders/Calvin/HAb_Converged/rxn_552/output/Species/rxn_552_C=CC=C/arkane/output.py

>  <path_exists>  (2) 
True

>  <E0_value>  (2) 
-409338.1696024378

>  <E0_units>  (2) 
kJ/mol

>  <thermo_class>  (2) 
NASA

>  <Cp0_value>  (2) 
33.257888

>  <Cp0_units>  (2) 
J/(mol*K)

>  <CpInf_value>  (2) 
232.805216

>  <CpInf_units>  (2) 
J/(mol*K)

>  <Tmin_value>  (2) 
10.0

>  <Tmin_units>  (2) 
K

>  <Tmax_value>  (2) 
3000.0

>  <Tmax_units>  (2) 
K

>  <polynomials>  (2) 
[{"name": "polynomial1", "class": "NASAPolynomial", "Tmin_value": 10.0, "Tmin_units": "K", "Tmax_value": 477.25150837589547, "Tmax_units": "K", "coeffs": [3.9644918263777202, 0.0020596769963902215, 8.674853780374631e-05, -1.450839919461119e-07, 7.838009270341474e-11, -49232008.066253, 7.365433669817705]}, {"name": "polynomial2", "class": "NASAPolynomial", "Tmin_value": 477.25150837589547, "Tmin_units": "K", "Tmax_value": 3000.0, "Tmax_units": "K", "coeffs": [-0.2016346126607574, 0.03684948174336166, -2.2193862153022103e-05, 6.534948821102615e-09, -7.488372760157006e-13, -49231608.95215794, 24.398107945208505]}]

>  <H298_value>  (2) 
-97830.61157155824

>  <H298_units>  (2) 
kcal/mol

>  <S298_value>  (2) 
66.15772377359508

>  <S298_units>  (2) 
cal/(mol*K)

>  <Cp_T_value_list>  (2) 
[18.098233407620363, 22.632858336014493, 26.717409141232952, 30.270647037570512, 35.994368828752485, 40.221251390017414, 46.50234453691136, 49.720054530985024, 51.45868146938158]

>  <Cp_T_units>  (2) 
cal/(mol*K)

>  <T_list>  (2) 
[300.0, 400.0, 500.0, 600.0, 800.0, 1000.0, 1500.0, 2000.0, 2400.0]

>  <T_units>  (2) 
K

>  <yaml_path>  (2) 
/home/calvin/Dropbox/PersonalFolders/Calvin/HAb_Converged/rxn_552/output/Species/rxn_552_C=CC=C/rxn_552_C=CC=C.yml

>  <frequencies_cm1>  (2) 
[162.86429083444, 299.37995899604, 518.85567680856, 535.67292385724, 782.5273121405999, 895.6128263903599, 951.29034336492, 952.5882035904, 1000.9317802431998, 1006.4047675432399, 1052.23502756892, 1221.82209703164, 1311.4568564135998, 1314.3066553213998, 1409.56547568044, 1464.2884816955202, 1663.07397273888, 1726.1678338590398, 3116.4851496875194, 3119.6920318319594, 3127.2663166399198, 3132.3341518060793, 3211.3044829860796, 3211.503625560359]

>  <ZPE_kJmol>  (2) 
222.43148839891296

>  <E_elec_kJmol>  (2) 
-409560.6010908368

>  <E0_minus_Eelec_plus_ZPE_kJmol>  (2) 
0.0

>  <rxn>  (2) 
rxn_552

>  <species_type>  (2) 
p0

>  <species_folder>  (2) 
rxn_552_C=CC=C

>  <frequencies_cm1_list>  (2) 
[162.86429083444, 299.37995899604, 518.85567680856, 535.67292385724, 782.5273121405999, 895.6128263903599, 951.29034336492, 952.5882035904, 1000.9317802431998, 1006.4047675432399, 1052.23502756892, 1221.82209703164, 1311.4568564135998, 1314.3066553213998, 1409.56547568044, 1464.2884816955202, 1663.07397273888, 1726.1678338590398, 3116.4851496875194, 3119.6920318319594, 3127.2663166399198, 3132.3341518060793, 3211.3044829860796, 3211.503625560359]

>  <E0_kJmol>  (2) 
-409338

>  <H298_kJmol>  (2) 
-409323

$$$$

     RDKit          3D

 28 28  0  0  0  0  0  0  0  0999 V2000
   -2.6734   -0.1455   -1.3462 C   0  0  0  0  0  0  0  0  0  1  0  0
   -2.1811   -0.1920   -0.1217 C   0  0  0  0  0  3  0  0  0  2  0  0
   -2.7629   -0.7830    1.0644 C   0  0  0  0  0  0  0  0  0  3  0  0
   -2.1956   -0.7750    2.2666 C   0  0  0  0  0  0  0  0  0  4  0  0
   -2.1303    0.3278   -2.1568 H   0  0  0  0  0  0  0  0  0  5  0  0
   -3.6417   -0.5781   -1.5909 H   0  0  0  0  0  0  0  0  0  6  0  0
   -3.7337   -1.2618    0.9351 H   0  0  0  0  0  0  0  0  0  7  0  0
   -2.6770   -1.2334    3.1203 H   0  0  0  0  0  0  0  0  0  8  0  0
   -1.2326   -0.3063    2.4291 H   0  0  0  0  0  0  0  0  0  9  0  0
    1.0398   -0.8569   -1.2624 C   0  0  0  0  0  0  0  0  0 10  0  0
    1.1844   -1.2080    0.2448 C   0  0  0  0  0  0  0  0  0 11  0  0
    1.2080    0.1707    0.9226 C   0  0  0  0  0  0  0  0  0 12  0  0
    2.5384    0.8677    0.5723 C   0  0  0  0  0  0  0  0  0 13  0  0
    2.3627    1.2328   -0.9294 C   0  0  0  0  0  0  0  0  0 14  0  0
    0.9625    0.6798   -1.2592 C   0  0  0  0  0  0  0  0  0 15  0  0
    0.2347    0.9525    0.0507 C   0  0  0  0  0  0  0  0  0 16  0  0
    0.1292   -1.2902   -1.6760 H   0  0  0  0  0  0  0  0  0 17  0  0
    1.8796   -1.2148   -1.8598 H   0  0  0  0  0  0  0  0  0 18  0  0
    0.3285   -1.7889    0.5918 H   0  0  0  0  0  0  0  0  0 19  0  0
    2.0860   -1.7828    0.4609 H   0  0  0  0  0  0  0  0  0 20  0  0
    0.9992    0.1457    1.9911 H   0  0  0  0  0  0  0  0  0 21  0  0
    3.3937    0.2135    0.7502 H   0  0  0  0  0  0  0  0  0 22  0  0
    2.6781    1.7627    1.1802 H   0  0  0  0  0  0  0  0  0 23  0  0
    3.1321    0.7907   -1.5646 H   0  0  0  0  0  0  0  0  0 24  0  0
    2.3960    2.3134   -1.0763 H   0  0  0  0  0  0  0  0  0 25  0  0
    0.5215    1.1065   -2.1588 H   0  0  0  0  0  0  0  0  0 26  0  0
   -0.9509    0.3967    0.0335 H   0  0  0  0  0  0  0  0  0 27  0  0
    0.0604    1.9965    0.3118 H   0  0  0  0  0  0  0  0  0 28  0  0
  1  5  1  0
  1  6  1  0
  1  2  1  0
  2  3  1  0
  3  4  1  0
  3  7  1  0
  4  9  1  0
  4  8  1  0
 10 18  1  0
 10 11  1  0
 10 15  1  0
 10 17  1  0
 11 19  1  0
 11 12  1  0
 11 20  1  0
 12 16  1  0
 12 21  1  0
 12 13  1  0
 13 23  1  0
 13 14  1  0
 13 22  1  0
 14 15  1  0
 14 24  1  0
 14 25  1  0
 15 16  1  0
 15 26  1  0
 16 28  1  0
 16 27  1  0
M  RAD  1   2   2
M  END
>  <rmg_smiles>  (3) 
C1CC2CCC1C2.[CH2][C][CH][CH2]

>  <rmg_adjacency_list>  (3) 
multiplicity 2
1  C u0 p0 c0 {3,S} {5,S} {6,S} {12,S}
2  C u0 p0 c0 {3,S} {4,S} {7,S} {13,S}
3  C u0 p0 c0 {1,S} {2,S} {22,S} {23,S}
4  C u0 p0 c0 {2,S} {5,S} {14,S} {15,S}
5  C u0 p0 c0 {1,S} {4,S} {16,S} {17,S}
6  C u0 p0 c0 {1,S} {7,S} {18,S} {19,S}
7  C u0 p0 c0 {2,S} {6,S} {20,S} {21,S}
8  C u0 p0 c0 {9,S} {11,S} {24,S}
9  C u0 p0 c0 {8,S} {25,S} {26,S}
10 C u0 p0 c0 {11,S} {27,S} {28,S}
11 C u1 p1 c0 {8,S} {10,S}
12 H u0 p0 c0 {1,S}
13 H u0 p0 c0 {2,S}
14 H u0 p0 c0 {4,S}
15 H u0 p0 c0 {4,S}
16 H u0 p0 c0 {5,S}
17 H u0 p0 c0 {5,S}
18 H u0 p0 c0 {6,S}
19 H u0 p0 c0 {6,S}
20 H u0 p0 c0 {7,S}
21 H u0 p0 c0 {7,S}
22 H u0 p0 c0 {3,S}
23 H u0 p0 c0 {3,S}
24 H u0 p0 c0 {8,S}
25 H u0 p0 c0 {9,S}
26 H u0 p0 c0 {9,S}
27 H u0 p0 c0 {10,S}
28 H u0 p0 c0 {10,S}


>  <multiplicity>  (3) 
2

>  <reaction>  (3) 
rxn_552

>  <type>  (3) 
ts

>  <role_mapnums>  (3) 
{"*2": 27, "*1": 16, "*3": 2, "*0": 12, "*4": 3}

>  <role_mapidx>  (3) 
{"*2": 26, "*1": 15, "*3": 1, "*0": 11, "*4": 2}

>  <ordered_mapped_smiles>  (3) 
[CH:1]([CH:2][CH:3]([CH:4]([H:8])[H:9])[H:7])([H:5])[H:6].[C:10]1([H:17])([H:18])[C:11]([H:19])([H:20])[C:12]2([H:21])[C:13]([H:22])([H:23])[C:14]([H:24])([H:25])[C:15]1([H:26])[C:16]2([H:27])[H:28]

>  <mol_properties>  (3) 
{"1": {"label": "*3", "atom_type": "C2s"}, "2": {"label": "*4", "atom_type": "Cs"}, "11": {"label": "*0", "atom_type": "Cs"}, "15": {"label": "*1", "atom_type": "Cs"}, "26": {"label": "*2", "atom_type": "H0"}}

>  <level_of_theory>  (3) 
wb97xd/def2tzvp

>  <lot_method>  (3) 
wb97xd

>  <lot_basis>  (3) 
def2tzvp

>  <spin_multiplicity>  (3) 
2.0

>  <optical_isomers>  (3) 
2.0

>  <modes>  (3) 
IdealGasTranslation(mass=(149.133, 'amu')),         NonlinearRotor(             inertia = ([272.758, 708.409, 819.768

>  <frequency_value>  (3) 
-1636.24

>  <frequency_units>  (3) 
cm^-1

>  <frequency_list>  (3) 
unknown

>  <arkane_path>  (3) 
/home/calvin/Dropbox/PersonalFolders/Calvin/HAb_Converged/rxn_552/output/rxns/TS0/arkane/output.py

>  <path_exists>  (3) 
True

>  <E0_value>  (3) 
-1126440.0

>  <E0_units>  (3) 
kJ/mol

>  <thermo_class>  (3) 
unknown

>  <Cp0_value>  (3) 
unknown

>  <Cp0_units>  (3) 
unknown

>  <CpInf_value>  (3) 
unknown

>  <CpInf_units>  (3) 
unknown

>  <Tmin_value>  (3) 
unknown

>  <Tmin_units>  (3) 
unknown

>  <Tmax_value>  (3) 
unknown

>  <Tmax_units>  (3) 
unknown

>  <polynomials>  (3) 
unknown

>  <H298_value>  (3) 
unknown

>  <H298_units>  (3) 
unknown

>  <S298_value>  (3) 
unknown

>  <S298_units>  (3) 
unknown

>  <Cp_T_value_list>  (3) 
unknown

>  <Cp_T_units>  (3) 
unknown

>  <T_list>  (3) 
unknown

>  <T_units>  (3) 
unknown

>  <yaml_path>  (3) 
unknown

>  <frequencies_cm1>  (3) 
unknown

>  <ZPE_kJmol>  (3) 
unknown

>  <E_elec_kJmol>  (3) 
unknown

>  <E0_minus_Eelec_plus_ZPE_kJmol>  (3) 
unknown

>  <rxn>  (3) 
unknown

>  <species_type>  (3) 
unknown

>  <species_folder>  (3) 
unknown

>  <frequencies_cm1_list>  (3) 
[]

>  <ts_imag_freq_cm1>  (3) 
-1656.1083

>  <ts_freq_out_path>  (3) 
/home/calvin/Dropbox/PersonalFolders/Calvin/HAb_Converged/rxn_552/output/rxns/TS0/geometry/freq.out

>  <E0_kJmol>  (3) 
-1.12644e+06

>  <H298_kJmol>  (3) 
unknown

$$$$

     RDKit          3D

 18 19  0  0  0  0  0  0  0  0999 V2000
   -0.2352   -0.0323    1.4420 C   0  0  0  0  0  3  0  0  0  1  0  0
   -0.1734   -1.1359    0.4256 C   0  0  0  0  0  0  0  0  0  2  0  0
   -1.2562   -0.6812   -0.5734 C   0  0  0  0  0  0  0  0  0  3  0  0
   -1.1576    0.8706   -0.5226 C   0  0  0  0  0  0  0  0  0  4  0  0
   -0.0301    1.1185    0.4994 C   0  0  0  0  0  0  0  0  0  5  0  0
    1.3075    0.7028   -0.1632 C   0  0  0  0  0  0  0  0  0  6  0  0
    1.2087   -0.8504   -0.2141 C   0  0  0  0  0  0  0  0  0  7  0  0
    0.1290   -0.0888    2.4599 H   0  0  0  0  0  0  0  0  0  8  0  0
   -0.2924   -2.1557    0.7848 H   0  0  0  0  0  0  0  0  0  9  0  0
   -2.2417   -1.0206   -0.2534 H   0  0  0  0  0  0  0  0  0 10  0  0
   -1.0769   -1.0814   -1.5727 H   0  0  0  0  0  0  0  0  0 11  0  0
   -0.9249    1.3092   -1.4944 H   0  0  0  0  0  0  0  0  0 12  0  0
   -2.0935    1.3103   -0.1770 H   0  0  0  0  0  0  0  0  0 13  0  0
   -0.0206    2.1196    0.9249 H   0  0  0  0  0  0  0  0  0 14  0  0
    1.4248    1.1518   -1.1514 H   0  0  0  0  0  0  0  0  0 15  0  0
    2.1542    1.0215    0.4460 H   0  0  0  0  0  0  0  0  0 16  0  0
    1.2724   -1.2452   -1.2300 H   0  0  0  0  0  0  0  0  0 17  0  0
    2.0058   -1.3127    0.3695 H   0  0  0  0  0  0  0  0  0 18  0  0
  1  5  1  0
  1  8  1  0
  1  2  1  0
  2  3  1  0
  2  9  1  0
  2  7  1  0
  3  4  1  0
  3 11  1  0
  3 10  1  0
  4 12  1  0
  4  5  1  0
  4 13  1  0
  5 14  1  0
  5  6  1  0
  6  7  1  0
  6 16  1  0
  6 15  1  0
  7 17  1  0
  7 18  1  0
M  RAD  1   1   2
M  END
>  <rmg_smiles>  (4) 
[CH]1C2CCC1CC2

>  <rmg_adjacency_list>  (4) 
multiplicity 2
1  C u0 p0 c0 {3,S} {6,S} {7,S} {8,S}
2  C u0 p0 c0 {4,S} {5,S} {7,S} {9,S}
3  C u0 p0 c0 {1,S} {4,S} {10,S} {11,S}
4  C u0 p0 c0 {2,S} {3,S} {12,S} {13,S}
5  C u0 p0 c0 {2,S} {6,S} {14,S} {15,S}
6  C u0 p0 c0 {1,S} {5,S} {16,S} {17,S}
7  C u1 p0 c0 {1,S} {2,S} {18,S}
8  H u0 p0 c0 {1,S}
9  H u0 p0 c0 {2,S}
10 H u0 p0 c0 {3,S}
11 H u0 p0 c0 {3,S}
12 H u0 p0 c0 {4,S}
13 H u0 p0 c0 {4,S}
14 H u0 p0 c0 {5,S}
15 H u0 p0 c0 {5,S}
16 H u0 p0 c0 {6,S}
17 H u0 p0 c0 {6,S}
18 H u0 p0 c0 {7,S}


>  <multiplicity>  (4) 
2

>  <reaction>  (4) 
rxn_552

>  <type>  (4) 
r1

>  <role_mapnums>  (4) 
{}

>  <role_mapidx>  (4) 
{}

>  <ordered_mapped_smiles>  (4) 
[C:1]1([H:8])[C:2]2([H:9])[C:3]([H:10])([H:11])[C:4]([H:12])([H:13])[C:5]1([H:14])[C:6]([H:15])([H:16])[C:7]2([H:17])[H:18]

>  <level_of_theory>  (4) 
wb97xd/def2tzvp

>  <lot_method>  (4) 
wb97xd

>  <lot_basis>  (4) 
def2tzvp

>  <spin_multiplicity>  (4) 
2.0

>  <optical_isomers>  (4) 
1.0

>  <modes>  (4) 
IdealGasTranslation(mass=(95.0861, 'amu')),         NonlinearRotor(             inertia = ([131.698, 150.873, 179.768

>  <frequency_value>  (4) 
unknown

>  <frequency_units>  (4) 
unknown

>  <frequency_list>  (4) 
unknown

>  <arkane_path>  (4) 
/home/calvin/Dropbox/PersonalFolders/Calvin/HAb_Converged/rxn_552/output/Species/rxn_552_[CH]1C2CCC1CC2/arkane/output.py

>  <path_exists>  (4) 
True

>  <E0_value>  (4) 
-717147.6579749513

>  <E0_units>  (4) 
kJ/mol

>  <thermo_class>  (4) 
NASA

>  <Cp0_value>  (4) 
33.257888

>  <Cp0_units>  (4) 
J/(mol*K)

>  <CpInf_value>  (4) 
432.352544

>  <CpInf_units>  (4) 
J/(mol*K)

>  <Tmin_value>  (4) 
10.0

>  <Tmin_units>  (4) 
K

>  <Tmax_value>  (4) 
3000.0

>  <Tmax_units>  (4) 
K

>  <polynomials>  (4) 
[{"name": "polynomial1", "class": "NASAPolynomial", "Tmin_value": 10.0, "Tmin_units": "K", "Tmax_value": 635.4498092577459, "Tmax_units": "K", "coeffs": [4.184728400170363, -0.015020053566978274, 0.0002519980537941916, -3.8445072657376267e-07, 1.8817067904219946e-10, -86252940.34420538, 11.259462352099021]}, {"name": "polynomial2", "class": "NASAPolynomial", "Tmin_value": 635.4498092577459, "Tmin_units": "K", "Tmax_value": 3000.0, "Tmax_units": "K", "coeffs": [-5.266495648947054, 0.07829303837726027, -4.810367347510083e-05, 1.4148661403012806e-08, -1.5981910685037683e-12, -86252422.00760801, 47.19803798188497]}]

>  <H298_value>  (4) 
-171398.16399978104

>  <H298_units>  (4) 
kcal/mol

>  <S298_value>  (4) 
77.09002517122175

>  <S298_units>  (4) 
cal/(mol*K)

>  <Cp_T_value_list>  (4) 
[26.832355247397707, 37.17808695464531, 46.45799001661323, 54.126653698598815, 65.9177850357397, 74.4672640412527, 86.6435677559895, 92.45104915812537, 95.63746949779204]

>  <Cp_T_units>  (4) 
cal/(mol*K)

>  <T_list>  (4) 
[300.0, 400.0, 500.0, 600.0, 800.0, 1000.0, 1500.0, 2000.0, 2400.0]

>  <T_units>  (4) 
K

>  <yaml_path>  (4) 
/home/calvin/Dropbox/PersonalFolders/Calvin/HAb_Converged/rxn_552/output/Species/rxn_552_[CH]1C2CCC1CC2/rxn_552_CH1C2CCC1CC2.yml

>  <frequencies_cm1>  (4) 
[142.57921619916, 339.05740017499994, 342.51836077628, 406.3813242522799, 543.5493560192799, 660.4597810922799, 754.13919482772, 763.8834469968, 814.36952306944, 824.3472527393999, 832.64943799128, 877.8136004409199, 896.9656224984, 945.8036220942399, 950.5899108622799, 962.6414700988798, 996.8802589044, 1004.1867312848799, 1013.1275461715198, 1085.5399063709199, 1119.11946458572, 1163.69306629784, 1188.27687374344, 1199.57993158016, 1230.33715882844, 1235.5972695835599, 1270.0008660367598, 1274.4506725241201, 1280.5966243855198, 1295.7108590748398, 1325.0328863912398, 1339.21321107704, 1348.0235532425997, 1470.44816752756, 1485.7409438352, 1490.2662871610798, 1508.79341355444, 3026.5001740542393, 3030.34568583344, 3037.5697543900797, 3042.08823073064, 3066.5552994257996, 3070.6480226765193, 3086.5176257510398, 3091.4549881961198, 3096.85243865764, 3100.3408672001997, 3171.9703910731196]

>  <ZPE_kJmol>  (4) 
425.88988225412487

>  <E_elec_kJmol>  (4) 
-717573.5478572055

>  <E0_minus_Eelec_plus_ZPE_kJmol>  (4) 
0.0

>  <rxn>  (4) 
rxn_552

>  <species_type>  (4) 
p1

>  <species_folder>  (4) 
rxn_552_[CH]1C2CCC1CC2

>  <frequencies_cm1_list>  (4) 
[142.57921619916, 339.05740017499994, 342.51836077628, 406.3813242522799, 543.5493560192799, 660.4597810922799, 754.13919482772, 763.8834469968, 814.36952306944, 824.3472527393999, 832.64943799128, 877.8136004409199, 896.9656224984, 945.8036220942399, 950.5899108622799, 962.6414700988798, 996.8802589044, 1004.1867312848799, 1013.1275461715198, 1085.5399063709199, 1119.11946458572, 1163.69306629784, 1188.27687374344, 1199.57993158016, 1230.33715882844, 1235.5972695835599, 1270.0008660367598, 1274.4506725241201, 1280.5966243855198, 1295.7108590748398, 1325.0328863912398, 1339.21321107704, 1348.0235532425997, 1470.44816752756, 1485.7409438352, 1490.2662871610798, 1508.79341355444, 3026.5001740542393, 3030.34568583344, 3037.5697543900797, 3042.08823073064, 3066.5552994257996, 3070.6480226765193, 3086.5176257510398, 3091.4549881961198, 3096.85243865764, 3100.3408672001997, 3171.9703910731196]

>  <E0_kJmol>  (4) 
-717148

>  <H298_kJmol>  (4) 
-717130

$$$$

     RDKit          3D

  9  8  0  0  0  0  0  0  0  0999 V2000
    1.8963   -0.1405   -0.2150 C   0  0  0  0  0  0  0  0  0  1  0  0
    0.6340    0.1486   -0.2254 C   0  0  0  0  0  3  0  0  0  2  0  0
   -0.6770    0.4501   -0.2373 C   0  0  0  0  0  0  0  0  0  3  0  0
   -1.6600   -0.2303    0.4662 C   0  0  0  0  0  0  0  0  0  4  0  0
    2.3274   -0.8354   -0.9313 H   0  0  0  0  0  0  0  0  0  5  0  0
    2.5751    0.2988    0.5117 H   0  0  0  0  0  0  0  0  0  6  0  0
   -0.9723    1.2966   -0.8520 H   0  0  0  0  0  0  0  0  0  7  0  0
   -2.6934    0.0777    0.4015 H   0  0  0  0  0  0  0  0  0  8  0  0
   -1.4140   -1.0782    1.0904 H   0  0  0  0  0  0  0  0  0  9  0  0
  1  5  1  0
  1  6  1  0
  1  2  1  0
  2  3  1  0
  3  4  1  0
  3  7  1  0
  4  8  1  0
  4  9  1  0
M  RAD  1   2   2
M  END
>  <rmg_smiles>  (5) 
[CH2][C][CH][CH2]

>  <rmg_adjacency_list>  (5) 
multiplicity 2
1 C u0 p0 c0 {2,S} {4,S} {5,S}
2 C u0 p0 c0 {1,S} {6,S} {7,S}
3 C u0 p0 c0 {4,S} {8,S} {9,S}
4 C u1 p1 c0 {1,S} {3,S}
5 H u0 p0 c0 {1,S}
6 H u0 p0 c0 {2,S}
7 H u0 p0 c0 {2,S}
8 H u0 p0 c0 {3,S}
9 H u0 p0 c0 {3,S}


>  <multiplicity>  (5) 
2

>  <reaction>  (5) 
rxn_552

>  <type>  (5) 
r2

>  <role_mapnums>  (5) 
{}

>  <role_mapidx>  (5) 
{}

>  <ordered_mapped_smiles>  (5) 
[CH:1]([CH:2][CH:3]([CH:4]([H:8])[H:9])[H:7])([H:5])[H:6]

>  <level_of_theory>  (5) 
wb97xd/def2tzvp

>  <lot_method>  (5) 
wb97xd

>  <lot_basis>  (5) 
def2tzvp

>  <spin_multiplicity>  (5) 
2.0

>  <optical_isomers>  (5) 
1.0

>  <modes>  (5) 
IdealGasTranslation(mass=(53.0391, 'amu')),         NonlinearRotor(             inertia = ([12.0347, 113.266, 121.844

>  <frequency_value>  (5) 
unknown

>  <frequency_units>  (5) 
unknown

>  <frequency_list>  (5) 
unknown

>  <arkane_path>  (5) 
/home/calvin/Dropbox/PersonalFolders/Calvin/HAb_Converged/rxn_552/output/Species/rxn_552_C=[C]C=C/arkane/output.py

>  <path_exists>  (5) 
True

>  <E0_value>  (5) 
-407618.73102202936

>  <E0_units>  (5) 
kJ/mol

>  <thermo_class>  (5) 
NASA

>  <Cp0_value>  (5) 
33.257888

>  <Cp0_units>  (5) 
J/(mol*K)

>  <CpInf_value>  (5) 
207.8618

>  <CpInf_units>  (5) 
J/(mol*K)

>  <Tmin_value>  (5) 
10.0

>  <Tmin_units>  (5) 
K

>  <Tmax_value>  (5) 
3000.0

>  <Tmax_units>  (5) 
K

>  <polynomials>  (5) 
[{"name": "polynomial1", "class": "NASAPolynomial", "Tmin_value": 10.0, "Tmin_units": "K", "Tmax_value": 513.96992949071, "Tmax_units": "K", "coeffs": [3.9420802999541826, 0.0035685760014192327, 9.465791812405604e-05, -1.8686526671215408e-07, 1.1507173469765572e-10, -49025207.15718319, 8.65621190884103]}, {"name": "polynomial2", "class": "NASAPolynomial", "Tmin_value": 513.96992949071, "Tmin_units": "K", "Tmax_value": 3000.0, "Tmax_units": "K", "coeffs": [2.0283894812979866, 0.030453216730392172, -1.8799715383868938e-05, 5.69276117666148e-09, -6.699501956082314e-13, -49025168.8245439, 15.074146021629948]}]

>  <H298_value>  (5) 
-97419.52636783152

>  <H298_units>  (5) 
kcal/mol

>  <S298_value>  (5) 
69.47182773714773

>  <S298_units>  (5) 
cal/(mol*K)

>  <Cp_T_value_list>  (5) 
[18.71667250989835, 22.85533281432161, 26.28015598227693, 29.162718122858536, 33.78137212963757, 37.17010503303923, 42.188992301862434, 44.829088783976054, 46.30020231473576]

>  <Cp_T_units>  (5) 
cal/(mol*K)

>  <T_list>  (5) 
[300.0, 400.0, 500.0, 600.0, 800.0, 1000.0, 1500.0, 2000.0, 2400.0]

>  <T_units>  (5) 
K

>  <yaml_path>  (5) 
/home/calvin/Dropbox/PersonalFolders/Calvin/HAb_Converged/rxn_552/output/Species/rxn_552_C=[C]C=C/rxn_552_C=CC=C.yml

>  <frequencies_cm1>  (5) 
[209.82760343791998, 213.04821955299997, 498.83154761543994, 525.2763080827599, 574.87654304912, 748.94088694048, 893.75874035396, 905.4944182658398, 936.5057239709599, 975.15311735192, 1080.3828003955998, 1184.87084902472, 1365.78157728012, 1440.54244645896, 1485.45939743708, 1902.75236136284, 3071.21111547276, 3118.0645563111198, 3138.67237925644, 3141.51531117892, 3241.1690021427603]

>  <ZPE_kJmol>  (5) 
183.34053407098105

>  <E_elec_kJmol>  (5) 
-407802.07155610033

>  <E0_minus_Eelec_plus_ZPE_kJmol>  (5) 
0.0

>  <rxn>  (5) 
rxn_552

>  <species_type>  (5) 
r0

>  <species_folder>  (5) 
rxn_552_C=[C]C=C

>  <frequencies_cm1_list>  (5) 
[209.82760343791998, 213.04821955299997, 498.83154761543994, 525.2763080827599, 574.87654304912, 748.94088694048, 893.75874035396, 905.4944182658398, 936.5057239709599, 975.15311735192, 1080.3828003955998, 1184.87084902472, 1365.78157728012, 1440.54244645896, 1485.45939743708, 1902.75236136284, 3071.21111547276, 3118.0645563111198, 3138.67237925644, 3141.51531117892, 3241.1690021427603]

>  <E0_kJmol>  (5) 
-407619

>  <H298_kJmol>  (5) 
-407603

$$$$
