
     RDKit          3D

 14 13  0  0  0  0  0  0  0  0999 V2000
    0.3332   -0.2421   -1.4088 C   0  0  0  0  0  0  0  0  0  1  0  0
    0.2203   -0.0985    0.0863 C   0  0  0  0  0  0  0  0  0  2  0  0
    0.2748    1.3165    0.6000 C   0  0  0  0  0  0  0  0  0  3  0  0
   -0.8264   -0.9733    0.7249 C   0  0  0  0  0  0  0  0  0  4  0  0
    1.1857    0.3164   -1.7996 H   0  0  0  0  0  0  0  0  0  5  0  0
   -0.5704    0.1387   -1.9006 H   0  0  0  0  0  0  0  0  0  6  0  0
    0.4529   -1.2888   -1.6949 H   0  0  0  0  0  0  0  0  0  7  0  0
    1.1494   -0.5537    0.4294 H   0  0  0  0  0  0  0  0  0  8  0  0
   -0.6206    1.8713    0.2927 H   0  0  0  0  0  0  0  0  0  9  0  0
    0.3184    1.3449    1.6907 H   0  0  0  0  0  0  0  0  0 10  0  0
    1.1422    1.8509    0.2079 H   0  0  0  0  0  0  0  0  0 11  0  0
   -0.6803   -2.0216    0.4554 H   0  0  0  0  0  0  0  0  0 12  0  0
   -1.8294   -0.6819    0.3897 H   0  0  0  0  0  0  0  0  0 13  0  0
   -0.8073   -0.8912    1.8135 H   0  0  0  0  0  0  0  0  0 14  0  0
  1  5  1  0
  1  7  1  0
  1  6  1  0
  1  2  1  0
  2  8  1  0
  2  3  1  0
  2  4  1  0
  3 11  1  0
  3  9  1  0
  3 10  1  0
  4 14  1  0
  4 13  1  0
  4 12  1  0
M  END
>  <rmg_smiles>  (1) 
CC(C)C

>  <rmg_adjacency_list>  (1) 
1  C u0 p0 c0 {2,S} {3,S} {4,S} {5,S}
2  C u0 p0 c0 {1,S} {6,S} {7,S} {8,S}
3  C u0 p0 c0 {1,S} {9,S} {10,S} {11,S}
4  C u0 p0 c0 {1,S} {12,S} {13,S} {14,S}
5  H u0 p0 c0 {1,S}
6  H u0 p0 c0 {2,S}
7  H u0 p0 c0 {2,S}
8  H u0 p0 c0 {2,S}
9  H u0 p0 c0 {3,S}
10 H u0 p0 c0 {3,S}
11 H u0 p0 c0 {3,S}
12 H u0 p0 c0 {4,S}
13 H u0 p0 c0 {4,S}
14 H u0 p0 c0 {4,S}


>  <multiplicity>  (1) 
1

>  <reaction>  (1) 
rxn_987

>  <type>  (1) 
r1h

>  <role_mapnums>  (1) 
{"r1h_a": 2, "r1h_h": 8}

>  <role_mapidx>  (1) 
{"r1h_a": 1, "r1h_h": 7}

>  <ordered_mapped_smiles>  (1) 
[C:1]([C:2]([C:3]([H:9])([H:10])[H:11])([C:4]([H:12])([H:13])[H:14])[H:8])([H:5])([H:6])[H:7]

>  <mol_properties>  (1) 
{"1": {"label": "donator", "atom_type": "Cs"}, "7": {"label": "d_hydrogen", "atom_type": "H0"}}

>  <level_of_theory>  (1) 
wb97xd/def2tzvp

>  <lot_method>  (1) 
wb97xd

>  <lot_basis>  (1) 
def2tzvp

>  <spin_multiplicity>  (1) 
1.0

>  <optical_isomers>  (1) 
1.0

>  <modes>  (1) 
IdealGasTranslation(mass=(58.0782, 'amu')),         NonlinearRotor(             inertia = ([64.4722, 64.4726, 111.216

>  <frequency_value>  (1) 
unknown

>  <frequency_units>  (1) 
unknown

>  <frequency_list>  (1) 
unknown

>  <arkane_path>  (1) 
/home/calvin/Dropbox/PersonalFolders/Calvin/HAb_Converged/rxn_987/output/Species/rxn_987_CC[C]C/arkane/output.py

>  <path_exists>  (1) 
True

>  <E0_value>  (1) 
-415716.8372832763

>  <E0_units>  (1) 
kJ/mol

>  <thermo_class>  (1) 
NASA

>  <Cp0_value>  (1) 
33.257888

>  <Cp0_units>  (1) 
J/(mol*K)

>  <CpInf_value>  (1) 
332.57888

>  <CpInf_units>  (1) 
J/(mol*K)

>  <Tmin_value>  (1) 
10.0

>  <Tmin_units>  (1) 
K

>  <Tmax_value>  (1) 
3000.0

>  <Tmax_units>  (1) 
K

>  <polynomials>  (1) 
[{"name": "polynomial1", "class": "NASAPolynomial", "Tmin_value": 10.0, "Tmin_units": "K", "Tmax_value": 538.3497163543377, "Tmax_units": "K", "coeffs": [3.862610389440881, 0.009578306081065344, 8.494057858949807e-05, -1.3124389269475364e-07, 6.347175859280688e-11, -49999182.1886647, 7.5583347810517925]}, {"name": "polynomial2", "class": "NASAPolynomial", "Tmin_value": 538.3497163543377, "Tmin_units": "K", "Tmax_value": 3000.0, "Tmax_units": "K", "coeffs": [-1.5286364058426054, 0.049636130754603686, -2.6672934372860207e-05, 6.973811634896901e-09, -7.144674375461087e-13, -49998601.71696424, 30.229438429258074]}]

>  <H298_value>  (1) 
-99354.53328842134

>  <H298_units>  (1) 
kcal/mol

>  <S298_value>  (1) 
69.86474106665496

>  <S298_units>  (1) 
cal/(mol*K)

>  <Cp_T_value_list>  (1) 
[22.557358134070444, 28.83375682024327, 34.673586634478596, 39.87237241522077, 48.46306987057326, 55.033506409938845, 65.24213611083375, 70.3687740438008, 72.85820905618513]

>  <Cp_T_units>  (1) 
cal/(mol*K)

>  <T_list>  (1) 
[300.0, 400.0, 500.0, 600.0, 800.0, 1000.0, 1500.0, 2000.0, 2400.0]

>  <T_units>  (1) 
K

>  <yaml_path>  (1) 
/home/calvin/Dropbox/PersonalFolders/Calvin/HAb_Converged/rxn_987/output/Species/rxn_987_CC[C]C/rxn_987_CCCC.yml

>  <frequencies_cm1>  (1) 
[211.00872491295996, 262.4218440038, 263.177212389, 369.12792889127996, 369.47127815728, 435.21579561095996, 804.0209761921999, 925.27820297276, 925.47734554704, 953.4328427847599, 976.12136228204, 976.4166426508, 1191.09920470996, 1191.16787456316, 1204.1602107886, 1353.0982553940798, 1353.1943931885598, 1393.20144966288, 1393.46239510504, 1417.37323798928, 1467.5296987665597, 1474.0945367324798, 1474.2318764388801, 1492.52552533136, 1492.58046121392, 1500.95818330432, 2997.89918019644, 3000.02794564564, 3000.13781741076, 3005.48719897504, 3068.6771978896795, 3068.80080362544, 3077.43260417268, 3079.7467782255194, 3083.2695416946794, 3083.5510880927995]

>  <ZPE_kJmol>  (1) 
342.93882352799415

>  <E_elec_kJmol>  (1) 
-416059.7761068043

>  <E0_minus_Eelec_plus_ZPE_kJmol>  (1) 
0.0

>  <rxn>  (1) 
rxn_987

>  <species_type>  (1) 
r1

>  <species_folder>  (1) 
rxn_987_CC[C]C

>  <frequencies_cm1_list>  (1) 
[211.00872491295996, 262.4218440038, 263.177212389, 369.12792889127996, 369.47127815728, 435.21579561095996, 804.0209761921999, 925.27820297276, 925.47734554704, 953.4328427847599, 976.12136228204, 976.4166426508, 1191.09920470996, 1191.16787456316, 1204.1602107886, 1353.0982553940798, 1353.1943931885598, 1393.20144966288, 1393.46239510504, 1417.37323798928, 1467.5296987665597, 1474.0945367324798, 1474.2318764388801, 1492.52552533136, 1492.58046121392, 1500.95818330432, 2997.89918019644, 3000.02794564564, 3000.13781741076, 3005.48719897504, 3068.6771978896795, 3068.80080362544, 3077.43260417268, 3079.7467782255194, 3083.2695416946794, 3083.5510880927995]

>  <E0_kJmol>  (1) 
-415717

>  <H298_kJmol>  (1) 
-415699

$$$$

     RDKit          3D

 11 10  0  0  0  0  0  0  0  0999 V2000
   -0.5813    0.1161    1.7499 C   0  0  0  0  0  0  0  0  0  1  0  0
   -0.4368    0.1268    0.2416 C   0  0  0  0  0  0  0  0  0  2  0  0
   -0.4747   -1.1557   -0.3870 C   0  0  0  0  0  2  0  0  0  3  0  0
   -0.5528   -2.2331   -0.9151 C   0  0  0  0  0  2  0  0  0  4  0  0
    0.8337    1.2325   -0.4066 S   0  0  0  0  0  0  0  0  0  5  0  0
    0.3034   -0.3138    2.2263 H   0  0  0  0  0  0  0  0  0  6  0  0
   -0.7080    1.1330    2.1216 H   0  0  0  0  0  0  0  0  0  7  0  0
   -1.4479   -0.4804    2.0411 H   0  0  0  0  0  0  0  0  0  8  0  0
   -0.6049   -3.1860   -1.3837 H   0  0  0  0  0  0  0  0  0  9  0  0
    1.8968    0.4609   -0.1308 H   0  0  0  0  0  0  0  0  0 10  0  0
   -1.3357    0.6339   -0.1091 H   0  0  0  0  0  0  0  0  0 11  0  0
  1  8  1  0
  1  7  1  0
  1  6  1  0
  1  2  1  0
  2 11  1  0
  2  5  1  0
  2  3  1  0
  3  4  1  0
  4  9  1  0
  5 10  1  0
M  RAD  2   3   3   4   3
M  END
>  <rmg_smiles>  (2) 
[CH][C]C(S)C

>  <rmg_adjacency_list>  (2) 
1  S u0 p2 c0 {2,S} {10,S}
2  C u0 p0 c0 {1,S} {3,S} {4,S} {6,S}
3  C u0 p0 c0 {2,S} {7,S} {8,S} {9,S}
4  C u0 p1 c0 {2,S} {5,S}
5  C u0 p1 c0 {4,S} {11,S}
6  H u0 p0 c0 {2,S}
7  H u0 p0 c0 {3,S}
8  H u0 p0 c0 {3,S}
9  H u0 p0 c0 {3,S}
10 H u0 p0 c0 {1,S}
11 H u0 p0 c0 {5,S}


>  <multiplicity>  (2) 
1

>  <reaction>  (2) 
rxn_987

>  <type>  (2) 
r2h

>  <role_mapnums>  (2) 
{"r2h_a": 2, "r2h_h": 11}

>  <role_mapidx>  (2) 
{"r2h_a": 1, "r2h_h": 10}

>  <ordered_mapped_smiles>  (2) 
[C:1]([C:2]([C:3][C:4][H:9])([S:5][H:10])[H:11])([H:6])([H:7])[H:8]

>  <mol_properties>  (2) 
{"1": {"label": "acceptor", "atom_type": "Cs"}, "10": {"label": "a_hydrogen", "atom_type": "H0"}}

>  <level_of_theory>  (2) 
wb97xd/def2tzvp

>  <lot_method>  (2) 
wb97xd

>  <lot_basis>  (2) 
def2tzvp

>  <spin_multiplicity>  (2) 
1.0

>  <optical_isomers>  (2) 
2.0

>  <modes>  (2) 
IdealGasTranslation(mass=(86.019, 'amu')),         NonlinearRotor(             inertia = ([87.6457, 170.909, 240.546

>  <frequency_value>  (2) 
unknown

>  <frequency_units>  (2) 
unknown

>  <frequency_list>  (2) 
unknown

>  <arkane_path>  (2) 
/home/calvin/Dropbox/PersonalFolders/Calvin/HAb_Converged/rxn_987/output/Species/rxn_987_CC[CtC]S/arkane/output.py

>  <path_exists>  (2) 
True

>  <E0_value>  (2) 
-1454747.9869848297

>  <E0_units>  (2) 
kJ/mol

>  <thermo_class>  (2) 
NASA

>  <Cp0_value>  (2) 
33.257888

>  <Cp0_units>  (2) 
J/(mol*K)

>  <CpInf_value>  (2) 
257.748632

>  <CpInf_units>  (2) 
J/(mol*K)

>  <Tmin_value>  (2) 
10.0

>  <Tmin_units>  (2) 
K

>  <Tmax_value>  (2) 
3000.0

>  <Tmax_units>  (2) 
K

>  <polynomials>  (2) 
[{"name": "polynomial1", "class": "NASAPolynomial", "Tmin_value": 10.0, "Tmin_units": "K", "Tmax_value": 390.9140632823983, "Tmax_units": "K", "coeffs": [3.858713419231629, 0.010564997140702595, 0.00016329814740577924, -4.5849893030170754e-07, 3.9198883509043327e-10, -174965770.0665913, 10.944004943270295]}, {"name": "polynomial2", "class": "NASAPolynomial", "Tmin_value": 390.9140632823983, "Tmin_units": "K", "Tmax_value": 3000.0, "Tmax_units": "K", "coeffs": [3.5910622176950087, 0.03608103984670987, -2.2011240144551834e-05, 6.581334463032912e-09, -7.656686735052077e-13, -174965923.17532238, 9.75787740899601]}]

>  <H298_value>  (2) 
-347688.46609237033

>  <H298_units>  (2) 
kcal/mol

>  <S298_value>  (2) 
79.59735907954581

>  <S298_units>  (2) 
cal/(mol*K)

>  <Cp_T_value_list>  (2) 
[24.881185185807908, 29.6159028918133, 33.59091324770937, 37.0375095709953, 42.57535430939504, 46.65270848395564, 52.70695189298071, 55.8567148263336, 57.58553478406499]

>  <Cp_T_units>  (2) 
cal/(mol*K)

>  <T_list>  (2) 
[300.0, 400.0, 500.0, 600.0, 800.0, 1000.0, 1500.0, 2000.0, 2400.0]

>  <T_units>  (2) 
K

>  <yaml_path>  (2) 
/home/calvin/Dropbox/PersonalFolders/Calvin/HAb_Converged/rxn_987/output/Species/rxn_987_CC[CtC]S/rxn_987_CCCtCS.yml

>  <frequencies_cm1>  (2) 
[163.65399414624, 200.12455318076, 233.74531330747996, 265.924006517, 317.85214950683996, 472.54472781047997, 536.37335635988, 646.5678697899199, 685.57234640752, 689.34918833352, 869.1543319524001, 892.7836284385199, 1026.9988565179199, 1098.10648950652, 1109.5743549909198, 1265.9630786685998, 1311.01736935312, 1401.32509329644, 1474.4310190131598, 1479.8628044012798, 2220.3023635156, 2695.0513936138, 3023.47870051344, 3043.8255780166, 3101.2679102183997, 3116.5263515994397, 3437.4068416324]

>  <ZPE_kJmol>  (2) 
219.98604213251892

>  <E_elec_kJmol>  (2) 
-1454967.9730269625

>  <E0_minus_Eelec_plus_ZPE_kJmol>  (2) 
0.0

>  <rxn>  (2) 
rxn_987

>  <species_type>  (2) 
p0

>  <species_folder>  (2) 
rxn_987_CC[CtC]S

>  <frequencies_cm1_list>  (2) 
[163.65399414624, 200.12455318076, 233.74531330747996, 265.924006517, 317.85214950683996, 472.54472781047997, 536.37335635988, 646.5678697899199, 685.57234640752, 689.34918833352, 869.1543319524001, 892.7836284385199, 1026.9988565179199, 1098.10648950652, 1109.5743549909198, 1265.9630786685998, 1311.01736935312, 1401.32509329644, 1474.4310190131598, 1479.8628044012798, 2220.3023635156, 2695.0513936138, 3023.47870051344, 3043.8255780166, 3101.2679102183997, 3116.5263515994397, 3437.4068416324]

>  <E0_kJmol>  (2) 
-1.45475e+06

>  <H298_kJmol>  (2) 
-1.45473e+06

$$$$

     RDKit          3D

 24 22  0  0  0  0  0  0  0  0999 V2000
    0.5811   -0.4264    2.0486 C   0  0  0  0  0  0  0  0  0  1  0  0
    0.7255   -0.4157    0.5403 C   0  0  0  0  0  0  0  0  0  2  0  0
    0.6877   -1.6982   -0.0883 C   0  0  0  0  0  0  0  0  0  3  0  0
    0.6096   -2.7755   -0.6164 C   0  0  0  0  0  0  0  0  0  4  0  0
    1.9961    0.6900   -0.1079 S   0  0  0  0  0  0  0  0  0  5  0  0
    1.4658   -0.8563    2.5250 H   0  0  0  0  0  0  0  0  0  6  0  0
    0.4544    0.5906    2.4203 H   0  0  0  0  0  0  0  0  0  7  0  0
   -0.2855   -1.0228    2.3398 H   0  0  0  0  0  0  0  0  0  8  0  0
    0.5575   -3.7284   -1.0850 H   0  0  0  0  0  0  0  0  0  9  0  0
    3.0592   -0.0815    0.1679 H   0  0  0  0  0  0  0  0  0 10  0  0
   -1.4223    0.6297   -1.8125 C   0  0  0  0  0  0  0  0  0 11  0  0
   -1.5353    0.7733   -0.3174 C   0  0  0  0  0  3  0  0  0 12  0  0
   -1.4808    2.1882    0.1963 C   0  0  0  0  0  0  0  0  0 13  0  0
   -2.5820   -0.1016    0.3212 C   0  0  0  0  0  0  0  0  0 14  0  0
   -0.5699    1.1882   -2.2033 H   0  0  0  0  0  0  0  0  0 15  0  0
   -2.3260    1.0105   -2.3042 H   0  0  0  0  0  0  0  0  0 16  0  0
   -1.3027   -0.4170   -2.0986 H   0  0  0  0  0  0  0  0  0 17  0  0
   -0.3699    0.2023    0.1130 H   0  0  0  0  0  0  0  0  0 18  0  0
   -2.3762    2.7430   -0.1109 H   0  0  0  0  0  0  0  0  0 19  0  0
   -1.4372    2.2167    1.2870 H   0  0  0  0  0  0  0  0  0 20  0  0
   -0.6134    2.7227   -0.1958 H   0  0  0  0  0  0  0  0  0 21  0  0
   -2.4359   -1.1498    0.0517 H   0  0  0  0  0  0  0  0  0 22  0  0
   -3.5850    0.1899   -0.0140 H   0  0  0  0  0  0  0  0  0 23  0  0
   -2.5629   -0.0195    1.4098 H   0  0  0  0  0  0  0  0  0 24  0  0
  1  7  1  0
  1  8  1  0
  1  6  1  0
  1  2  1  0
  2  3  1  0
  2 18  1  0
  2  5  1  0
  3  4  1  0
  4  9  1  0
  5 10  1  0
 11 17  1  0
 11 12  1  0
 11 16  1  0
 11 15  1  0
 12 13  1  0
 12 14  1  0
 13 19  1  0
 13 21  1  0
 13 20  1  0
 14 24  1  0
 14 23  1  0
 14 22  1  0
M  RAD  1  12   2
M  END
>  <rmg_smiles>  (3) 
C[C](C)C.[CH][C]C(S)C

>  <rmg_adjacency_list>  (3) 
multiplicity 2
1  S u0 p2 c0 {2,S} {23,S}
2  C u0 p0 c0 {1,S} {3,S} {8,S} {10,S}
3  C u0 p0 c0 {2,S} {11,S} {12,S} {13,S}
4  C u0 p0 c0 {7,S} {14,S} {15,S} {16,S}
5  C u0 p0 c0 {7,S} {17,S} {18,S} {19,S}
6  C u0 p0 c0 {7,S} {20,S} {21,S} {22,S}
7  C u1 p0 c0 {4,S} {5,S} {6,S}
8  C u0 p1 c0 {2,S} {9,S}
9  C u0 p1 c0 {8,S} {24,S}
10 H u0 p0 c0 {2,S}
11 H u0 p0 c0 {3,S}
12 H u0 p0 c0 {3,S}
13 H u0 p0 c0 {3,S}
14 H u0 p0 c0 {4,S}
15 H u0 p0 c0 {4,S}
16 H u0 p0 c0 {4,S}
17 H u0 p0 c0 {5,S}
18 H u0 p0 c0 {5,S}
19 H u0 p0 c0 {5,S}
20 H u0 p0 c0 {6,S}
21 H u0 p0 c0 {6,S}
22 H u0 p0 c0 {6,S}
23 H u0 p0 c0 {1,S}
24 H u0 p0 c0 {9,S}


>  <multiplicity>  (3) 
2

>  <reaction>  (3) 
rxn_987

>  <type>  (3) 
ts

>  <role_mapnums>  (3) 
{"*2": 18, "*1": 12, "*3": 2, "*0": 5, "*4": 11}

>  <role_mapidx>  (3) 
{"*2": 17, "*1": 11, "*3": 1, "*0": 4, "*4": 10}

>  <ordered_mapped_smiles>  (3) 
[C:1]([C:2]([CH2:3][CH2:4][H:9])([S:5][H:10])[H:18])([H:6])([H:7])[H:8].[C:11]([C:12]([C:13]([H:19])([H:20])[H:21])[C:14]([H:22])([H:23])[H:24])([H:15])([H:16])[H:17]

>  <mol_properties>  (3) 
{"1": {"label": "*3", "atom_type": "Cs"}, "4": {"label": "*0", "atom_type": "S2s"}, "10": {"label": "*4", "atom_type": "Cs"}, "11": {"label": "*1", "atom_type": "Cs"}, "17": {"label": "*2", "atom_type": "H0"}}

>  <level_of_theory>  (3) 
wb97xd/def2tzvp

>  <lot_method>  (3) 
wb97xd

>  <lot_basis>  (3) 
def2tzvp

>  <spin_multiplicity>  (3) 
2.0

>  <optical_isomers>  (3) 
2.0

>  <modes>  (3) 
IdealGasTranslation(mass=(143.089, 'amu')),         NonlinearRotor(             inertia = ([352.411, 534.549, 623.263

>  <frequency_value>  (3) 
-1620.97

>  <frequency_units>  (3) 
cm^-1

>  <frequency_list>  (3) 
unknown

>  <arkane_path>  (3) 
/home/calvin/Dropbox/PersonalFolders/Calvin/HAb_Converged/rxn_987/output/rxns/TS0/arkane/output.py

>  <path_exists>  (3) 
True

>  <E0_value>  (3) 
-1868740.0

>  <E0_units>  (3) 
kJ/mol

>  <thermo_class>  (3) 
unknown

>  <Cp0_value>  (3) 
unknown

>  <Cp0_units>  (3) 
unknown

>  <CpInf_value>  (3) 
unknown

>  <CpInf_units>  (3) 
unknown

>  <Tmin_value>  (3) 
unknown

>  <Tmin_units>  (3) 
unknown

>  <Tmax_value>  (3) 
unknown

>  <Tmax_units>  (3) 
unknown

>  <polynomials>  (3) 
unknown

>  <H298_value>  (3) 
unknown

>  <H298_units>  (3) 
unknown

>  <S298_value>  (3) 
unknown

>  <S298_units>  (3) 
unknown

>  <Cp_T_value_list>  (3) 
unknown

>  <Cp_T_units>  (3) 
unknown

>  <T_list>  (3) 
unknown

>  <T_units>  (3) 
unknown

>  <yaml_path>  (3) 
unknown

>  <frequencies_cm1>  (3) 
unknown

>  <ZPE_kJmol>  (3) 
unknown

>  <E_elec_kJmol>  (3) 
unknown

>  <E0_minus_Eelec_plus_ZPE_kJmol>  (3) 
unknown

>  <rxn>  (3) 
unknown

>  <species_type>  (3) 
unknown

>  <species_folder>  (3) 
unknown

>  <frequencies_cm1_list>  (3) 
[]

>  <ts_imag_freq_cm1>  (3) 
-1640.6564

>  <ts_freq_out_path>  (3) 
/home/calvin/Dropbox/PersonalFolders/Calvin/HAb_Converged/rxn_987/output/rxns/TS0/geometry/freq.out

>  <E0_kJmol>  (3) 
-1.86874e+06

>  <H298_kJmol>  (3) 
unknown

$$$$

     RDKit          3D

 13 12  0  0  0  0  0  0  0  0999 V2000
   -1.3649   -0.5967   -0.3477 C   0  0  0  0  0  0  0  0  0  1  0  0
   -0.1601   -0.2776    0.4669 C   0  0  0  0  0  3  0  0  0  2  0  0
    1.1241   -0.9571    0.1414 C   0  0  0  0  0  0  0  0  0  3  0  0
   -0.1188    1.0130    1.2081 C   0  0  0  0  0  0  0  0  0  4  0  0
   -1.4266   -1.6632   -0.5770 H   0  0  0  0  0  0  0  0  0  5  0  0
   -2.2858   -0.3004    0.1602 H   0  0  0  0  0  0  0  0  0  6  0  0
   -1.3532   -0.0668   -1.3138 H   0  0  0  0  0  0  0  0  0  7  0  0
    1.6174   -0.4963   -0.7297 H   0  0  0  0  0  0  0  0  0  8  0  0
    0.9723   -2.0104   -0.1064 H   0  0  0  0  0  0  0  0  0  9  0  0
    1.8338   -0.8977    0.9701 H   0  0  0  0  0  0  0  0  0 10  0  0
   -1.0852    1.2507    1.6593 H   0  0  0  0  0  0  0  0  0 11  0  0
    0.6358    1.0009    1.9983 H   0  0  0  0  0  0  0  0  0 12  0  0
    0.1343    1.8546    0.5434 H   0  0  0  0  0  0  0  0  0 13  0  0
  1  5  1  0
  1  7  1  0
  1  6  1  0
  1  2  1  0
  2  3  1  0
  2  4  1  0
  3  9  1  0
  3 10  1  0
  3  8  1  0
  4 13  1  0
  4 12  1  0
  4 11  1  0
M  RAD  1   2   2
M  END
>  <rmg_smiles>  (4) 
C[C](C)C

>  <rmg_adjacency_list>  (4) 
multiplicity 2
1  C u0 p0 c0 {4,S} {5,S} {6,S} {7,S}
2  C u0 p0 c0 {4,S} {8,S} {9,S} {10,S}
3  C u0 p0 c0 {4,S} {11,S} {12,S} {13,S}
4  C u1 p0 c0 {1,S} {2,S} {3,S}
5  H u0 p0 c0 {1,S}
6  H u0 p0 c0 {1,S}
7  H u0 p0 c0 {1,S}
8  H u0 p0 c0 {2,S}
9  H u0 p0 c0 {2,S}
10 H u0 p0 c0 {2,S}
11 H u0 p0 c0 {3,S}
12 H u0 p0 c0 {3,S}
13 H u0 p0 c0 {3,S}


>  <multiplicity>  (4) 
2

>  <reaction>  (4) 
rxn_987

>  <type>  (4) 
r1

>  <role_mapnums>  (4) 
{}

>  <role_mapidx>  (4) 
{}

>  <ordered_mapped_smiles>  (4) 
[C:1]([C:2]([C:3]([H:8])([H:9])[H:10])[C:4]([H:11])([H:12])[H:13])([H:5])([H:6])[H:7]

>  <level_of_theory>  (4) 
wb97xd/def2tzvp

>  <lot_method>  (4) 
wb97xd

>  <lot_basis>  (4) 
def2tzvp

>  <spin_multiplicity>  (4) 
2.0

>  <optical_isomers>  (4) 
1.0

>  <modes>  (4) 
IdealGasTranslation(mass=(57.0704, 'amu')),         NonlinearRotor(             inertia = ([62.7477, 62.7516, 115.628

>  <frequency_value>  (4) 
unknown

>  <frequency_units>  (4) 
unknown

>  <frequency_list>  (4) 
unknown

>  <arkane_path>  (4) 
/home/calvin/Dropbox/PersonalFolders/Calvin/HAb_Converged/rxn_987/output/Species/rxn_987_C[C][C]C/arkane/output.py

>  <path_exists>  (4) 
True

>  <E0_value>  (4) 
-414011.7599541272

>  <E0_units>  (4) 
kJ/mol

>  <thermo_class>  (4) 
NASA

>  <Cp0_value>  (4) 
33.257888

>  <Cp0_units>  (4) 
J/(mol*K)

>  <CpInf_value>  (4) 
307.635464

>  <CpInf_units>  (4) 
J/(mol*K)

>  <Tmin_value>  (4) 
10.0

>  <Tmin_units>  (4) 
K

>  <Tmax_value>  (4) 
3000.0

>  <Tmax_units>  (4) 
K

>  <polynomials>  (4) 
[{"name": "polynomial1", "class": "NASAPolynomial", "Tmin_value": 10.0, "Tmin_units": "K", "Tmax_value": 466.08578215014654, "Tmax_units": "K", "coeffs": [3.635514673636708, 0.03664536073409816, -8.049474721842952e-05, 2.069709721496505e-07, -1.731074738595803e-10, -49794112.659609355, 8.363358986121874]}, {"name": "polynomial2", "class": "NASAPolynomial", "Tmin_value": 466.08578215014654, "Tmin_units": "K", "Tmax_value": 3000.0, "Tmax_units": "K", "coeffs": [-0.5045792003459204, 0.045838843430762694, -2.532106084201158e-05, 6.815139487870927e-09, -7.175981367422742e-13, -49793440.66180305, 28.24528674649704]}]

>  <H298_value>  (4) 
-98946.55988145624

>  <H298_units>  (4) 
kcal/mol

>  <S298_value>  (4) 
75.32677058074276

>  <S298_units>  (4) 
cal/(mol*K)

>  <Cp_T_value_list>  (4) 
[22.99325371887051, 28.276140745061053, 33.56713679144864, 38.27799761061737, 46.01662776193379, 51.88744169120494, 60.906993468090285, 65.43555043448843, 67.69148471250399]

>  <Cp_T_units>  (4) 
cal/(mol*K)

>  <T_list>  (4) 
[300.0, 400.0, 500.0, 600.0, 800.0, 1000.0, 1500.0, 2000.0, 2400.0]

>  <T_units>  (4) 
K

>  <yaml_path>  (4) 
/home/calvin/Dropbox/PersonalFolders/Calvin/HAb_Converged/rxn_987/output/Species/rxn_987_C[C][C]C/rxn_987_CCCC.yml

>  <frequencies_cm1>  (4) 
[127.66412408411998, 132.21006836595998, 133.7002041804, 257.46388060276, 382.77949570743993, 383.17091387067995, 764.0894565563999, 931.00526872964, 931.3142830690399, 964.27581260504, 1004.44767672704, 1004.7223561398399, 1088.2111636604, 1293.76063524396, 1293.8430390678, 1387.45378295004, 1387.5773886858, 1410.79466605272, 1453.7201912880398, 1456.5699901958399, 1457.0026102709999, 1475.8387510037599, 1478.2627968217198, 1478.3520676308801, 2924.1340238889998, 2924.3400334486, 2931.91431825656, 3026.76798648172, 3027.0220649385597, 3028.1413835457197, 3072.48837474228, 3076.3476204921194, 3076.70470372876]

>  <ZPE_kJmol>  (4) 
303.6487438767481

>  <E_elec_kJmol>  (4) 
-414315.4086980039

>  <E0_minus_Eelec_plus_ZPE_kJmol>  (4) 
0.0

>  <rxn>  (4) 
rxn_987

>  <species_type>  (4) 
p1

>  <species_folder>  (4) 
rxn_987_C[C][C]C

>  <frequencies_cm1_list>  (4) 
[127.66412408411998, 132.21006836595998, 133.7002041804, 257.46388060276, 382.77949570743993, 383.17091387067995, 764.0894565563999, 931.00526872964, 931.3142830690399, 964.27581260504, 1004.44767672704, 1004.7223561398399, 1088.2111636604, 1293.76063524396, 1293.8430390678, 1387.45378295004, 1387.5773886858, 1410.79466605272, 1453.7201912880398, 1456.5699901958399, 1457.0026102709999, 1475.8387510037599, 1478.2627968217198, 1478.3520676308801, 2924.1340238889998, 2924.3400334486, 2931.91431825656, 3026.76798648172, 3027.0220649385597, 3028.1413835457197, 3072.48837474228, 3076.3476204921194, 3076.70470372876]

>  <E0_kJmol>  (4) 
-414012

>  <H298_kJmol>  (4) 
-413992

$$$$

     RDKit          3D

 10  9  0  0  0  0  0  0  0  0999 V2000
   -1.2648    0.1959    0.8197 C   0  0  0  0  0  0  0  0  0  1  0  0
   -0.2805    0.0995   -0.3030 C   0  0  0  0  0  3  0  0  0  2  0  0
   -0.0444    1.1347   -1.1797 C   0  0  0  0  0  0  0  0  0  3  0  0
    0.1640    2.0467   -1.9525 C   0  0  0  0  0  0  0  0  0  4  0  0
    0.5686   -1.4168   -0.4488 S   0  0  0  0  0  0  0  0  0  5  0  0
   -2.0466   -0.5638    0.7258 H   0  0  0  0  0  0  0  0  0  6  0  0
   -0.7765    0.0454    1.7871 H   0  0  0  0  0  0  0  0  0  7  0  0
   -1.7371    1.1762    0.8222 H   0  0  0  0  0  0  0  0  0  8  0  0
    0.3433    2.8484   -2.6273 H   0  0  0  0  0  0  0  0  0  9  0  0
    1.3075   -1.0953   -1.5176 H   0  0  0  0  0  0  0  0  0 10  0  0
  1  8  1  0
  1  7  1  0
  1  6  1  0
  1  2  1  0
  2  5  1  0
  2  3  1  0
  3  4  1  0
  4  9  1  0
  5 10  1  0
M  RAD  1   2   2
M  END
>  <rmg_smiles>  (5) 
[CH][C][C](S)C

>  <rmg_adjacency_list>  (5) 
multiplicity 2
1  S u0 p2 c0 {3,S} {9,S}
2  C u0 p0 c0 {3,S} {6,S} {7,S} {8,S}
3  C u1 p0 c0 {1,S} {2,S} {4,S}
4  C u0 p1 c0 {3,S} {5,S}
5  C u0 p1 c0 {4,S} {10,S}
6  H u0 p0 c0 {2,S}
7  H u0 p0 c0 {2,S}
8  H u0 p0 c0 {2,S}
9  H u0 p0 c0 {1,S}
10 H u0 p0 c0 {5,S}


>  <multiplicity>  (5) 
2

>  <reaction>  (5) 
rxn_987

>  <type>  (5) 
r2

>  <role_mapnums>  (5) 
{}

>  <role_mapidx>  (5) 
{}

>  <ordered_mapped_smiles>  (5) 
[C:1]([C:2]([CH2:3][CH2:4][H:9])[S:5][H:10])([H:6])([H:7])[H:8]

>  <level_of_theory>  (5) 
wb97xd/def2tzvp

>  <lot_method>  (5) 
wb97xd

>  <lot_basis>  (5) 
def2tzvp

>  <spin_multiplicity>  (5) 
2.0

>  <optical_isomers>  (5) 
1.0

>  <modes>  (5) 
IdealGasTranslation(mass=(85.0112, 'amu')),         NonlinearRotor(             inertia = ([82.4047, 167.495, 246.765

>  <frequency_value>  (5) 
unknown

>  <frequency_units>  (5) 
unknown

>  <frequency_list>  (5) 
unknown

>  <arkane_path>  (5) 
/home/calvin/Dropbox/PersonalFolders/Calvin/HAb_Converged/rxn_987/output/Species/rxn_987_C[C][CtC]S/arkane/output.py

>  <path_exists>  (5) 
True

>  <E0_value>  (5) 
-1453105.3612422314

>  <E0_units>  (5) 
kJ/mol

>  <thermo_class>  (5) 
NASA

>  <Cp0_value>  (5) 
33.257888

>  <Cp0_units>  (5) 
J/(mol*K)

>  <CpInf_value>  (5) 
232.805216

>  <CpInf_units>  (5) 
J/(mol*K)

>  <Tmin_value>  (5) 
10.0

>  <Tmin_units>  (5) 
K

>  <Tmax_value>  (5) 
3000.0

>  <Tmax_units>  (5) 
K

>  <polynomials>  (5) 
[{"name": "polynomial1", "class": "NASAPolynomial", "Tmin_value": 10.0, "Tmin_units": "K", "Tmax_value": 273.1683789679481, "Tmax_units": "K", "coeffs": [3.7753814811155935, 0.021657527899277617, 0.00015828869971507256, -7.276144873974002e-07, 9.437697922519883e-10, -174768209.8714672, 11.90943942573215]}, {"name": "polynomial2", "class": "NASAPolynomial", "Tmin_value": 273.1683789679481, "Tmin_units": "K", "Tmax_value": 3000.0, "Tmax_units": "K", "coeffs": [4.594318769947566, 0.03191679788121869, -2.0228805295381523e-05, 6.243366588572276e-09, -7.431112905857346e-13, -174768337.63240626, 7.5016838847910154]}]

>  <H298_value>  (5) 
-347295.5706324715

>  <H298_units>  (5) 
kcal/mol

>  <S298_value>  (5) 
84.1434158183064

>  <S298_units>  (5) 
cal/(mol*K)

>  <Cp_T_value_list>  (5) 
[24.862571181723663, 28.82439231648624, 32.25135350920243, 35.2019473835623, 39.890283084922174, 43.28645806188217, 48.21770771757209, 50.81256302732231, 52.32387398967946]

>  <Cp_T_units>  (5) 
cal/(mol*K)

>  <T_list>  (5) 
[300.0, 400.0, 500.0, 600.0, 800.0, 1000.0, 1500.0, 2000.0, 2400.0]

>  <T_units>  (5) 
K

>  <yaml_path>  (5) 
/home/calvin/Dropbox/PersonalFolders/Calvin/HAb_Converged/rxn_987/output/Species/rxn_987_C[C][CtC]S/rxn_987_CCCtCS.yml

>  <frequencies_cm1>  (5) 
[28.99241202104, 167.81538725015997, 203.42757311967998, 241.77968613187997, 295.34217162787996, 453.06309045763993, 470.87605037772, 523.76557131236, 631.26822649696, 687.0968171485599, 897.5561832359199, 949.84827644772, 1016.29322640404, 1147.0200259408798, 1305.15983087516, 1398.8735795372, 1461.4936186702798, 1475.6670763707598, 2045.4963852096796, 2715.8240242068, 2997.8579782845195, 3050.7749671604397, 3117.61133528, 3430.2308419729998]

>  <ZPE_kJmol>  (5) 
183.7053917951971

>  <E_elec_kJmol>  (5) 
-1453289.0666340266

>  <E0_minus_Eelec_plus_ZPE_kJmol>  (5) 
0.0

>  <rxn>  (5) 
rxn_987

>  <species_type>  (5) 
r0

>  <species_folder>  (5) 
rxn_987_C[C][CtC]S

>  <frequencies_cm1_list>  (5) 
[28.99241202104, 167.81538725015997, 203.42757311967998, 241.77968613187997, 295.34217162787996, 453.06309045763993, 470.87605037772, 523.76557131236, 631.26822649696, 687.0968171485599, 897.5561832359199, 949.84827644772, 1016.29322640404, 1147.0200259408798, 1305.15983087516, 1398.8735795372, 1461.4936186702798, 1475.6670763707598, 2045.4963852096796, 2715.8240242068, 2997.8579782845195, 3050.7749671604397, 3117.61133528, 3430.2308419729998]

>  <E0_kJmol>  (5) 
-1.45311e+06

>  <H298_kJmol>  (5) 
-1.45308e+06

$$$$
