
     RDKit          3D

 13 12  0  0  0  0  0  0  0  0999 V2000
   -0.4377   -0.5699   -2.0552 C   0  0  0  0  0  2  0  0  0  1  0  0
   -0.2001   -0.3416   -0.8978 C   0  0  0  0  0  2  0  0  0  2  0  0
    0.0820   -0.1401    0.4929 C   0  0  0  0  0  0  0  0  0  3  0  0
   -1.0175    0.5638    1.2640 C   0  0  0  0  0  0  0  0  0  4  0  0
    1.4853    0.3548    0.7865 C   0  0  0  0  0  0  0  0  0  5  0  0
   -0.6469   -0.7436   -3.0832 H   0  0  0  0  0  0  0  0  0  6  0  0
    0.0562   -1.1532    0.8944 H   0  0  0  0  0  0  0  0  0  7  0  0
   -1.9794    0.0770    1.1026 H   0  0  0  0  0  0  0  0  0  8  0  0
   -1.1051    1.6093    0.9547 H   0  0  0  0  0  0  0  0  0  9  0  0
   -0.7963    0.5444    2.3331 H   0  0  0  0  0  0  0  0  0 10  0  0
    1.6014    1.4007    0.4878 H   0  0  0  0  0  0  0  0  0 11  0  0
    2.2314   -0.2322    0.2504 H   0  0  0  0  0  0  0  0  0 12  0  0
    1.6916    0.2864    1.8567 H   0  0  0  0  0  0  0  0  0 13  0  0
  1  6  1  0
  1  2  1  0
  2  3  1  0
  3  4  1  0
  3  5  1  0
  3  7  1  0
  4  8  1  0
  4  9  1  0
  4 10  1  0
  5 11  1  0
  5 12  1  0
  5 13  1  0
M  RAD  2   1   3   2   3
M  END
>  <rmg_smiles>  (1) 
[CH][C]C(C)C

>  <rmg_adjacency_list>  (1) 
1  C u0 p0 c0 {2,S} {3,S} {4,S} {6,S}
2  C u0 p0 c0 {1,S} {7,S} {8,S} {9,S}
3  C u0 p0 c0 {1,S} {10,S} {11,S} {12,S}
4  C u0 p1 c0 {1,S} {5,S}
5  C u0 p1 c0 {4,S} {13,S}
6  H u0 p0 c0 {1,S}
7  H u0 p0 c0 {2,S}
8  H u0 p0 c0 {2,S}
9  H u0 p0 c0 {2,S}
10 H u0 p0 c0 {3,S}
11 H u0 p0 c0 {3,S}
12 H u0 p0 c0 {3,S}
13 H u0 p0 c0 {5,S}


>  <multiplicity>  (1) 
1

>  <reaction>  (1) 
rxn_1324

>  <type>  (1) 
r1h

>  <role_mapnums>  (1) 
{"r1h_a": 3, "r1h_h": 7}

>  <role_mapidx>  (1) 
{"r1h_a": 2, "r1h_h": 6}

>  <ordered_mapped_smiles>  (1) 
[C:1]([C:2][C:3]([C:4]([H:8])([H:9])[H:10])([C:5]([H:11])([H:12])[H:13])[H:7])[H:6]

>  <mol_properties>  (1) 
{"2": {"label": "donator", "atom_type": "Cs"}, "6": {"label": "d_hydrogen", "atom_type": "H0"}}

>  <level_of_theory>  (1) 
wb97xd/def2tzvp

>  <lot_method>  (1) 
wb97xd

>  <lot_basis>  (1) 
def2tzvp

>  <spin_multiplicity>  (1) 
1.0

>  <optical_isomers>  (1) 
1.0

>  <modes>  (1) 
IdealGasTranslation(mass=(68.0626, 'amu')),         NonlinearRotor(             inertia = ([63.031, 131.338, 177.504

>  <frequency_value>  (1) 
unknown

>  <frequency_units>  (1) 
unknown

>  <frequency_list>  (1) 
unknown

>  <arkane_path>  (1) 
/home/calvin/Dropbox/PersonalFolders/Calvin/HAb_Converged/rxn_1324/output/Species/rxn_1324_CtCC[C]C/arkane/output.py

>  <path_exists>  (1) 
True

>  <E0_value>  (1) 
-512436.2321226376

>  <E0_units>  (1) 
kJ/mol

>  <thermo_class>  (1) 
NASA

>  <Cp0_value>  (1) 
33.257888

>  <Cp0_units>  (1) 
J/(mol*K)

>  <CpInf_value>  (1) 
307.635464

>  <CpInf_units>  (1) 
J/(mol*K)

>  <Tmin_value>  (1) 
10.0

>  <Tmin_units>  (1) 
K

>  <Tmax_value>  (1) 
3000.0

>  <Tmax_units>  (1) 
K

>  <polynomials>  (1) 
[{"name": "polynomial1", "class": "NASAPolynomial", "Tmin_value": 10.0, "Tmin_units": "K", "Tmax_value": 293.0407624013314, "Tmax_units": "K", "coeffs": [3.9101886097059264, 0.0069849319055039685, 0.00016661855350475234, -4.2944025859153837e-07, 3.715868629965923e-10, -61631842.919720486, 9.420104844549218]}, {"name": "polynomial2", "class": "NASAPolynomial", "Tmin_value": 293.0407624013314, "Tmin_units": "K", "Tmax_value": 3000.0, "Tmax_units": "K", "coeffs": [1.1644442010838205, 0.04446438207111068, -2.52295815987051e-05, 7.014702784040353e-09, -7.641632564807846e-13, -61631681.99713866, 19.29648088401905]}]

>  <H298_value>  (1) 
-122470.68169768815

>  <H298_units>  (1) 
kcal/mol

>  <S298_value>  (1) 
75.75418343380927

>  <S298_units>  (1) 
cal/(mol*K)

>  <Cp_T_value_list>  (1) 
[24.673759492733886, 30.48939610587082, 35.607396985307304, 40.0949997668281, 47.42973897696881, 52.95862441339962, 61.40568267180244, 65.70875577504152, 67.91222494070715]

>  <Cp_T_units>  (1) 
cal/(mol*K)

>  <T_list>  (1) 
[300.0, 400.0, 500.0, 600.0, 800.0, 1000.0, 1500.0, 2000.0, 2400.0]

>  <T_units>  (1) 
K

>  <yaml_path>  (1) 
/home/calvin/Dropbox/PersonalFolders/Calvin/HAb_Converged/rxn_1324/output/Species/rxn_1324_CtCC[C]C/rxn_1324_CtCCCC.yml

>  <frequencies_cm1>  (1) 
[181.78970237636, 214.59329125, 227.57876049012, 284.68461041124, 357.7218662747599, 538.28237827884, 546.74250419308, 681.47275617148, 684.6727713305999, 777.09552675248, 934.7477757290399, 938.00959375604, 968.90416071072, 1120.3143200313998, 1127.90233881, 1188.30434168472, 1322.0938166742799, 1344.4252529349199, 1390.50272443212, 1410.02556369688, 1473.5177099656, 1475.7288792386398, 1485.74781082052, 1496.61824858208, 2216.82766894368, 3013.5353057700795, 3017.3808175492795, 3019.5370509397603, 3091.98374606576, 3096.2206760082004, 3103.6370201537993, 3105.55290905808, 3437.4617775149595]

>  <ZPE_kJmol>  (1) 
294.721743692255

>  <E_elec_kJmol>  (1) 
-512730.9538663298

>  <E0_minus_Eelec_plus_ZPE_kJmol>  (1) 
0.0

>  <rxn>  (1) 
rxn_1324

>  <species_type>  (1) 
r0

>  <species_folder>  (1) 
rxn_1324_CtCC[C]C

>  <frequencies_cm1_list>  (1) 
[181.78970237636, 214.59329125, 227.57876049012, 284.68461041124, 357.7218662747599, 538.28237827884, 546.74250419308, 681.47275617148, 684.6727713305999, 777.09552675248, 934.7477757290399, 938.00959375604, 968.90416071072, 1120.3143200313998, 1127.90233881, 1188.30434168472, 1322.0938166742799, 1344.4252529349199, 1390.50272443212, 1410.02556369688, 1473.5177099656, 1475.7288792386398, 1485.74781082052, 1496.61824858208, 2216.82766894368, 3013.5353057700795, 3017.3808175492795, 3019.5370509397603, 3091.98374606576, 3096.2206760082004, 3103.6370201537993, 3105.55290905808, 3437.4617775149595]

>  <E0_kJmol>  (1) 
-512436

>  <H298_kJmol>  (1) 
-512417

$$$$

     RDKit          3D

  9  8  0  0  0  0  0  0  0  0999 V2000
    0.6024    1.4703    0.0998 H   0  0  0  0  0  0  0  0  0  1  0  0
    1.7236   -0.1885   -0.3433 C   0  0  0  0  0  0  0  0  0  2  0  0
    0.5730    0.4263    0.4057 C   0  0  0  0  0  0  0  0  0  3  0  0
   -1.0630   -0.1292    0.0211 S   0  0  0  0  0  0  0  0  0  4  0  0
    2.6679    0.2498   -0.0139 H   0  0  0  0  0  0  0  0  0  5  0  0
    1.6232   -0.0071   -1.4160 H   0  0  0  0  0  0  0  0  0  6  0  0
    1.7737   -1.2694   -0.1866 H   0  0  0  0  0  0  0  0  0  7  0  0
    0.6873    0.4558    1.4877 H   0  0  0  0  0  0  0  0  0  8  0  0
   -0.9865    0.0825   -1.3019 H   0  0  0  0  0  0  0  0  0  9  0  0
  1  3  1  0
  2  7  1  0
  2  5  1  0
  2  6  1  0
  2  3  1  0
  3  8  1  0
  3  4  1  0
  4  9  1  0
M  END
>  <rmg_smiles>  (2) 
CCS

>  <rmg_adjacency_list>  (2) 
1 S u0 p2 c0 {2,S} {9,S}
2 C u0 p0 c0 {1,S} {3,S} {4,S} {5,S}
3 C u0 p0 c0 {2,S} {6,S} {7,S} {8,S}
4 H u0 p0 c0 {2,S}
5 H u0 p0 c0 {2,S}
6 H u0 p0 c0 {3,S}
7 H u0 p0 c0 {3,S}
8 H u0 p0 c0 {3,S}
9 H u0 p0 c0 {1,S}


>  <multiplicity>  (2) 
1

>  <reaction>  (2) 
rxn_1324

>  <type>  (2) 
r2h

>  <role_mapnums>  (2) 
{"r2h_a": 3, "r2h_h": 1}

>  <role_mapidx>  (2) 
{"r2h_a": 2, "r2h_h": 0}

>  <ordered_mapped_smiles>  (2) 
[H:1][C:3]([C:2]([H:5])([H:6])[H:7])([S:4][H:9])[H:8]

>  <mol_properties>  (2) 
{"0": {"label": "a_hydrogen", "atom_type": "H0"}, "2": {"label": "acceptor", "atom_type": "Cs"}}

>  <level_of_theory>  (2) 
wb97xd/def2tzvp

>  <lot_method>  (2) 
wb97xd

>  <lot_basis>  (2) 
def2tzvp

>  <spin_multiplicity>  (2) 
1.0

>  <optical_isomers>  (2) 
2.0

>  <modes>  (2) 
IdealGasTranslation(mass=(62.019, 'amu')),         NonlinearRotor(             inertia = ([17.3187, 95.472, 104.033

>  <frequency_value>  (2) 
unknown

>  <frequency_units>  (2) 
unknown

>  <frequency_list>  (2) 
unknown

>  <arkane_path>  (2) 
/home/calvin/Dropbox/PersonalFolders/Calvin/HAb_Converged/rxn_1324/output/Species/rxn_1324_CCS/arkane/output.py

>  <path_exists>  (2) 
True

>  <E0_value>  (2) 
-1254880.5529024522

>  <E0_units>  (2) 
kJ/mol

>  <thermo_class>  (2) 
NASA

>  <Cp0_value>  (2) 
33.257888

>  <Cp0_units>  (2) 
J/(mol*K)

>  <CpInf_value>  (2) 
207.8618

>  <CpInf_units>  (2) 
J/(mol*K)

>  <Tmin_value>  (2) 
10.0

>  <Tmin_units>  (2) 
K

>  <Tmax_value>  (2) 
3000.0

>  <Tmax_units>  (2) 
K

>  <polynomials>  (2) 
[{"name": "polynomial1", "class": "NASAPolynomial", "Tmin_value": 10.0, "Tmin_units": "K", "Tmax_value": 456.94948299224984, "Tmax_units": "K", "coeffs": [3.912577314484764, 0.006155835235539537, 5.7903825438107485e-05, -1.0305013689181765e-07, 5.821300208274409e-11, -150927266.1091598, 9.021117963799174]}, {"name": "polynomial2", "class": "NASAPolynomial", "Tmin_value": 456.94948299224984, "Tmin_units": "K", "Tmax_value": 3000.0, "Tmax_units": "K", "coeffs": [1.355855578836548, 0.028536757084491292, -1.5565109771775804e-05, 4.138069148493327e-09, -4.3071999280991065e-13, -150927032.45208073, 19.35342692911781]}]

>  <H298_value>  (2) 
-299920.11857407144

>  <H298_units>  (2) 
kcal/mol

>  <S298_value>  (2) 
69.39854649104441

>  <S298_units>  (2) 
cal/(mol*K)

>  <Cp_T_value_list>  (2) 
[17.20889788741788, 20.934361161930582, 24.290211927280414, 27.249513376784144, 32.124901067035445, 35.83897523204632, 41.58221183782978, 44.477584292835935, 45.911331144631184]

>  <Cp_T_units>  (2) 
cal/(mol*K)

>  <T_list>  (2) 
[300.0, 400.0, 500.0, 600.0, 800.0, 1000.0, 1500.0, 2000.0, 2400.0]

>  <T_units>  (2) 
K

>  <yaml_path>  (2) 
/home/calvin/Dropbox/PersonalFolders/Calvin/HAb_Converged/rxn_1324/output/Species/rxn_1324_CCS/rxn_1324_CCS.yml

>  <frequencies_cm1>  (2) 
[202.32885546847996, 256.50936964327997, 331.52431727896, 667.1482247939599, 735.969151671, 875.5955641825599, 988.159187548, 1063.6273562148, 1117.6087278153198, 1273.38628979952, 1303.10660226448, 1402.5542836687198, 1466.616389719, 1477.4456255686398, 1483.85938985752, 2700.25656848636, 3013.3430301811195, 3044.51914353392, 3080.6051513905195, 3088.40604671404, 3107.9357529641197]

>  <ZPE_kJmol>  (2) 
195.4728851436989

>  <E_elec_kJmol>  (2) 
-1255076.025787596

>  <E0_minus_Eelec_plus_ZPE_kJmol>  (2) 
0.0

>  <rxn>  (2) 
rxn_1324

>  <species_type>  (2) 
p0

>  <species_folder>  (2) 
rxn_1324_CCS

>  <frequencies_cm1_list>  (2) 
[202.32885546847996, 256.50936964327997, 331.52431727896, 667.1482247939599, 735.969151671, 875.5955641825599, 988.159187548, 1063.6273562148, 1117.6087278153198, 1273.38628979952, 1303.10660226448, 1402.5542836687198, 1466.616389719, 1477.4456255686398, 1483.85938985752, 2700.25656848636, 3013.3430301811195, 3044.51914353392, 3080.6051513905195, 3088.40604671404, 3107.9357529641197]

>  <E0_kJmol>  (2) 
-1.25488e+06

>  <H298_kJmol>  (2) 
-1.25487e+06

$$$$

     RDKit          3D

 21 19  0  0  0  0  0  0  0  0999 V2000
   -0.2964    0.9143   -2.7160 C   0  0  0  0  0  0  0  0  0  1  0  0
   -0.0587    1.1426   -1.5586 C   0  0  0  0  0  0  0  0  0  2  0  0
    0.2233    1.3441   -0.1679 C   0  0  0  0  0  0  0  0  0  3  0  0
   -0.8762    2.0480    0.6032 C   0  0  0  0  0  0  0  0  0  4  0  0
    1.6266    1.8390    0.1257 C   0  0  0  0  0  0  0  0  0  5  0  0
   -0.5055    0.7406   -3.7439 H   0  0  0  0  0  0  0  0  0  6  0  0
    0.1923    0.1263    0.3147 H   0  0  0  0  0  0  0  0  0  7  0  0
   -1.8381    1.5611    0.4418 H   0  0  0  0  0  0  0  0  0  8  0  0
   -0.9637    3.0935    0.2939 H   0  0  0  0  0  0  0  0  0  9  0  0
   -0.6550    2.0286    1.6723 H   0  0  0  0  0  0  0  0  0 10  0  0
    1.7427    2.8849   -0.1730 H   0  0  0  0  0  0  0  0  0 11  0  0
    2.3727    1.2520   -0.4104 H   0  0  0  0  0  0  0  0  0 12  0  0
    1.8329    1.7705    1.1960 H   0  0  0  0  0  0  0  0  0 13  0  0
    1.3056   -1.8171   -0.0450 C   0  0  0  0  0  0  0  0  0 14  0  0
    0.1550   -1.2023    0.7040 C   0  0  0  0  0  3  0  0  0 15  0  0
   -1.4810   -1.7577    0.3193 S   0  0  0  0  0  0  0  0  0 16  0  0
    2.2499   -1.3787    0.2843 H   0  0  0  0  0  0  0  0  0 17  0  0
    1.2051   -1.6357   -1.1178 H   0  0  0  0  0  0  0  0  0 18  0  0
    1.3557   -2.8980    0.1117 H   0  0  0  0  0  0  0  0  0 19  0  0
    0.2693   -1.1728    1.7859 H   0  0  0  0  0  0  0  0  0 20  0  0
   -1.4045   -1.5460   -1.0037 H   0  0  0  0  0  0  0  0  0 21  0  0
  1  6  1  0
  1  2  1  0
  2  3  1  0
  3  4  1  0
  3  5  1  0
  3  7  1  0
  4 10  1  0
  4  9  1  0
  4  8  1  0
  5 12  1  0
  5 11  1  0
  5 13  1  0
 14 15  1  0
 14 17  1  0
 14 19  1  0
 14 18  1  0
 15 20  1  0
 15 16  1  0
 16 21  1  0
M  RAD  1  15   2
M  END
>  <rmg_smiles>  (3) 
[CH][C]C(C)C.C[CH]S

>  <rmg_adjacency_list>  (3) 
multiplicity 2
1  S u0 p2 c0 {6,S} {20,S}
2  C u0 p0 c0 {3,S} {4,S} {7,S} {9,S}
3  C u0 p0 c0 {2,S} {10,S} {11,S} {12,S}
4  C u0 p0 c0 {2,S} {13,S} {14,S} {15,S}
5  C u0 p0 c0 {6,S} {16,S} {17,S} {18,S}
6  C u1 p0 c0 {1,S} {5,S} {19,S}
7  C u0 p1 c0 {2,S} {8,S}
8  C u0 p1 c0 {7,S} {21,S}
9  H u0 p0 c0 {2,S}
10 H u0 p0 c0 {3,S}
11 H u0 p0 c0 {3,S}
12 H u0 p0 c0 {3,S}
13 H u0 p0 c0 {4,S}
14 H u0 p0 c0 {4,S}
15 H u0 p0 c0 {4,S}
16 H u0 p0 c0 {5,S}
17 H u0 p0 c0 {5,S}
18 H u0 p0 c0 {5,S}
19 H u0 p0 c0 {6,S}
20 H u0 p0 c0 {1,S}
21 H u0 p0 c0 {8,S}


>  <multiplicity>  (3) 
2

>  <reaction>  (3) 
rxn_1324

>  <type>  (3) 
ts

>  <role_mapnums>  (3) 
{"*2": 7, "*1": 3, "*3": 15, "*0": 2, "*4": 16}

>  <role_mapidx>  (3) 
{"*2": 6, "*1": 2, "*3": 14, "*0": 1, "*4": 15}

>  <ordered_mapped_smiles>  (3) 
[CH2:1]([CH2:2][C:3]([C:4]([H:8])([H:9])[H:10])([C:5]([H:11])([H:12])[H:13])[H:7])[H:6].[C:14]([C:15]([S:16][H:21])[H:20])([H:17])([H:18])[H:19]

>  <mol_properties>  (3) 
{"1": {"label": "*0", "atom_type": "C2s"}, "2": {"label": "*1", "atom_type": "Cs"}, "6": {"label": "*2", "atom_type": "H0"}, "14": {"label": "*3", "atom_type": "Cs"}, "15": {"label": "*4", "atom_type": "S2s"}}

>  <level_of_theory>  (3) 
wb97xd/def2tzvp

>  <lot_method>  (3) 
wb97xd

>  <lot_basis>  (3) 
def2tzvp

>  <spin_multiplicity>  (3) 
2.0

>  <optical_isomers>  (3) 
2.0

>  <modes>  (3) 
IdealGasTranslation(mass=(129.074, 'amu')),         NonlinearRotor(             inertia = ([274.424, 504.839, 522.167

>  <frequency_value>  (3) 
-1688.11

>  <frequency_units>  (3) 
cm^-1

>  <frequency_list>  (3) 
unknown

>  <arkane_path>  (3) 
/home/calvin/Dropbox/PersonalFolders/Calvin/HAb_Converged/rxn_1324/output/rxns/TS0/arkane/output.py

>  <path_exists>  (3) 
True

>  <E0_value>  (3) 
-1765580.0

>  <E0_units>  (3) 
kJ/mol

>  <thermo_class>  (3) 
unknown

>  <Cp0_value>  (3) 
unknown

>  <Cp0_units>  (3) 
unknown

>  <CpInf_value>  (3) 
unknown

>  <CpInf_units>  (3) 
unknown

>  <Tmin_value>  (3) 
unknown

>  <Tmin_units>  (3) 
unknown

>  <Tmax_value>  (3) 
unknown

>  <Tmax_units>  (3) 
unknown

>  <polynomials>  (3) 
unknown

>  <H298_value>  (3) 
unknown

>  <H298_units>  (3) 
unknown

>  <S298_value>  (3) 
unknown

>  <S298_units>  (3) 
unknown

>  <Cp_T_value_list>  (3) 
unknown

>  <Cp_T_units>  (3) 
unknown

>  <T_list>  (3) 
unknown

>  <T_units>  (3) 
unknown

>  <yaml_path>  (3) 
unknown

>  <frequencies_cm1>  (3) 
unknown

>  <ZPE_kJmol>  (3) 
unknown

>  <E_elec_kJmol>  (3) 
unknown

>  <E0_minus_Eelec_plus_ZPE_kJmol>  (3) 
unknown

>  <rxn>  (3) 
unknown

>  <species_type>  (3) 
unknown

>  <species_folder>  (3) 
unknown

>  <frequencies_cm1_list>  (3) 
[]

>  <ts_imag_freq_cm1>  (3) 
-1708.6131

>  <ts_freq_out_path>  (3) 
/home/calvin/Dropbox/PersonalFolders/Calvin/HAb_Converged/rxn_1324/output/rxns/TS0/geometry/freq.out

>  <E0_kJmol>  (3) 
-1.76558e+06

>  <H298_kJmol>  (3) 
unknown

$$$$

     RDKit          3D

 12 11  0  0  0  0  0  0  0  0999 V2000
    2.5164   -0.5559   -0.0242 C   0  0  0  0  0  0  0  0  0  1  0  0
    1.3287   -0.2938   -0.0132 C   0  0  0  0  0  0  0  0  0  2  0  0
   -0.0146    0.0027   -0.0006 C   0  0  0  0  0  3  0  0  0  3  0  0
   -1.0396   -1.0729   -0.1642 C   0  0  0  0  0  0  0  0  0  4  0  0
   -0.4887    1.4091    0.1769 C   0  0  0  0  0  0  0  0  0  5  0  0
    3.5543   -0.7850   -0.0339 H   0  0  0  0  0  0  0  0  0  6  0  0
   -1.7064   -1.1056    0.7044 H   0  0  0  0  0  0  0  0  0  7  0  0
   -0.5831   -2.0533   -0.2854 H   0  0  0  0  0  0  0  0  0  8  0  0
   -1.6716   -0.8741   -1.0367 H   0  0  0  0  0  0  0  0  0  9  0  0
   -1.0951    1.7228   -0.6798 H   0  0  0  0  0  0  0  0  0 10  0  0
    0.3401    2.1059    0.2861 H   0  0  0  0  0  0  0  0  0 11  0  0
   -1.1300    1.4913    1.0613 H   0  0  0  0  0  0  0  0  0 12  0  0
  1  6  1  0
  1  2  1  0
  2  3  1  0
  3  4  1  0
  3  5  1  0
  4  8  1  0
  4  9  1  0
  4  7  1  0
  5 11  1  0
  5 12  1  0
  5 10  1  0
M  RAD  1   3   2
M  END
>  <rmg_smiles>  (4) 
[CH]C[C](C)C

>  <rmg_adjacency_list>  (4) 
multiplicity 2
1  C u0 p0 c0 {3,S} {6,S} {7,S} {8,S}
2  C u0 p0 c0 {3,S} {9,S} {10,S} {11,S}
3  C u1 p0 c0 {1,S} {2,S} {4,S}
4  C u0 p1 c0 {3,S} {5,S}
5  C u0 p1 c0 {4,S} {12,S}
6  H u0 p0 c0 {1,S}
7  H u0 p0 c0 {1,S}
8  H u0 p0 c0 {1,S}
9  H u0 p0 c0 {2,S}
10 H u0 p0 c0 {2,S}
11 H u0 p0 c0 {2,S}
12 H u0 p0 c0 {5,S}


>  <multiplicity>  (4) 
2

>  <reaction>  (4) 
rxn_1324

>  <type>  (4) 
r1

>  <role_mapnums>  (4) 
{}

>  <role_mapidx>  (4) 
{}

>  <ordered_mapped_smiles>  (4) 
[CH2:1]([CH2:2][C:3]([C:4]([H:7])([H:8])[H:9])[C:5]([H:10])([H:11])[H:12])[H:6]

>  <level_of_theory>  (4) 
wb97xd/def2tzvp

>  <lot_method>  (4) 
wb97xd

>  <lot_basis>  (4) 
def2tzvp

>  <spin_multiplicity>  (4) 
2.0

>  <optical_isomers>  (4) 
1.0

>  <modes>  (4) 
IdealGasTranslation(mass=(67.0548, 'amu')),         NonlinearRotor(             inertia = ([59.1627, 131.378, 184.32

>  <frequency_value>  (4) 
unknown

>  <frequency_units>  (4) 
unknown

>  <frequency_list>  (4) 
unknown

>  <arkane_path>  (4) 
/home/calvin/Dropbox/PersonalFolders/Calvin/HAb_Converged/rxn_1324/output/Species/rxn_1324_CtC[C][C]C/arkane/output.py

>  <path_exists>  (4) 
True

>  <E0_value>  (4) 
-510778.06103061617

>  <E0_units>  (4) 
kJ/mol

>  <thermo_class>  (4) 
NASA

>  <Cp0_value>  (4) 
33.257888

>  <Cp0_units>  (4) 
J/(mol*K)

>  <CpInf_value>  (4) 
282.692048

>  <CpInf_units>  (4) 
J/(mol*K)

>  <Tmin_value>  (4) 
10.0

>  <Tmin_units>  (4) 
K

>  <Tmax_value>  (4) 
3000.0

>  <Tmax_units>  (4) 
K

>  <polynomials>  (4) 
[{"name": "polynomial1", "class": "NASAPolynomial", "Tmin_value": 10.0, "Tmin_units": "K", "Tmax_value": 1039.297839376542, "Tmax_units": "K", "coeffs": [3.598818116233137, 0.033392740321885155, -9.378432171899418e-06, -5.856696266128411e-09, 3.271376899501553e-12, -61432406.274320535, 9.976237246510115]}, {"name": "polynomial2", "class": "NASAPolynomial", "Tmin_value": 1039.297839376542, "Tmin_units": "K", "Tmax_value": 3000.0, "Tmax_units": "K", "coeffs": [5.079452673281011, 0.033284570157804484, -1.7290873427004894e-05, 4.394457265686428e-09, -4.3949451822427094e-13, -61433015.96049292, 1.3234305447781438]}]

>  <H298_value>  (4) 
-122073.9837922916

>  <H298_units>  (4) 
kcal/mol

>  <S298_value>  (4) 
79.4255488393029

>  <S298_units>  (4) 
cal/(mol*K)

>  <Cp_T_value_list>  (4) 
[25.1201753773187, 30.13456332004963, 34.623007965675164, 38.58588826040132, 45.014482399280844, 49.735420575541255, 57.04911167988228, 60.826095998833885, 62.665750252433256]

>  <Cp_T_units>  (4) 
cal/(mol*K)

>  <T_list>  (4) 
[300.0, 400.0, 500.0, 600.0, 800.0, 1000.0, 1500.0, 2000.0, 2400.0]

>  <T_units>  (4) 
K

>  <yaml_path>  (4) 
/home/calvin/Dropbox/PersonalFolders/Calvin/HAb_Converged/rxn_1324/output/Species/rxn_1324_CtC[C][C]C/rxn_1324_CtCCCC.yml

>  <frequencies_cm1>  (4) 
[99.21420390335999, 101.22623060211998, 185.93736150964, 255.63726250763995, 344.22137313563996, 457.05280892856, 461.24166997375994, 585.753847796, 665.5688181703599, 727.2892822265198, 951.3864811594, 965.6148747424401, 1006.9197914422399, 1043.12253804928, 1243.10975152364, 1333.7402237769998, 1389.39027281028, 1401.68217653308, 1454.72277114476, 1460.9648608006398, 1470.11168524688, 1490.7813110600798, 2012.45245184984, 2983.54718087764, 2987.02874243488, 3032.15856995792, 3032.5293871651998, 3111.8568015818396, 3113.09285893944, 3430.21024101704]

>  <ZPE_kJmol>  (4) 
255.9863644311404

>  <E_elec_kJmol>  (4) 
-511034.0473950473

>  <E0_minus_Eelec_plus_ZPE_kJmol>  (4) 
0.0

>  <rxn>  (4) 
rxn_1324

>  <species_type>  (4) 
p1

>  <species_folder>  (4) 
rxn_1324_CtC[C][C]C

>  <frequencies_cm1_list>  (4) 
[99.21420390335999, 101.22623060211998, 185.93736150964, 255.63726250763995, 344.22137313563996, 457.05280892856, 461.24166997375994, 585.753847796, 665.5688181703599, 727.2892822265198, 951.3864811594, 965.6148747424401, 1006.9197914422399, 1043.12253804928, 1243.10975152364, 1333.7402237769998, 1389.39027281028, 1401.68217653308, 1454.72277114476, 1460.9648608006398, 1470.11168524688, 1490.7813110600798, 2012.45245184984, 2983.54718087764, 2987.02874243488, 3032.15856995792, 3032.5293871651998, 3111.8568015818396, 3113.09285893944, 3430.21024101704]

>  <E0_kJmol>  (4) 
-510778

>  <H298_kJmol>  (4) 
-510758

$$$$

     RDKit          3D

  8  7  0  0  0  0  0  0  0  0999 V2000
   -1.0607    0.1793   -0.1423 C   0  0  0  0  0  0  0  0  0  1  0  0
    0.2796    0.0327    0.4820 C   0  0  0  0  0  3  0  0  0  2  0  0
    0.8817   -1.4663    1.0791 S   0  0  0  0  0  0  0  0  0  3  0  0
   -1.3043    1.2328   -0.2850 H   0  0  0  0  0  0  0  0  0  4  0  0
   -1.8444   -0.2641    0.4799 H   0  0  0  0  0  0  0  0  0  5  0  0
   -1.1164   -0.3100   -1.1237 H   0  0  0  0  0  0  0  0  0  6  0  0
    1.0449    0.7826    0.3391 H   0  0  0  0  0  0  0  0  0  7  0  0
   -0.2993   -2.0726    1.2718 H   0  0  0  0  0  0  0  0  0  8  0  0
  1  5  1  0
  1  4  1  0
  1  6  1  0
  1  2  1  0
  2  7  1  0
  2  3  1  0
  3  8  1  0
M  RAD  1   2   2
M  END
>  <rmg_smiles>  (5) 
C[CH]S

>  <rmg_adjacency_list>  (5) 
multiplicity 2
1 S u0 p2 c0 {3,S} {8,S}
2 C u0 p0 c0 {3,S} {4,S} {5,S} {6,S}
3 C u1 p0 c0 {1,S} {2,S} {7,S}
4 H u0 p0 c0 {2,S}
5 H u0 p0 c0 {2,S}
6 H u0 p0 c0 {2,S}
7 H u0 p0 c0 {3,S}
8 H u0 p0 c0 {1,S}


>  <multiplicity>  (5) 
2

>  <reaction>  (5) 
rxn_1324

>  <type>  (5) 
r2

>  <role_mapnums>  (5) 
{}

>  <role_mapidx>  (5) 
{}

>  <ordered_mapped_smiles>  (5) 
[C:1]([C:2]([S:3][H:8])[H:7])([H:4])([H:5])[H:6]

>  <level_of_theory>  (5) 
wb97xd/def2tzvp

>  <lot_method>  (5) 
wb97xd

>  <lot_basis>  (5) 
def2tzvp

>  <spin_multiplicity>  (5) 
2.0

>  <optical_isomers>  (5) 
2.0

>  <modes>  (5) 
IdealGasTranslation(mass=(61.0112, 'amu')),         NonlinearRotor(             inertia = ([13.046, 92.7553, 102.244

>  <frequency_value>  (5) 
unknown

>  <frequency_units>  (5) 
unknown

>  <frequency_list>  (5) 
unknown

>  <arkane_path>  (5) 
/home/calvin/Dropbox/PersonalFolders/Calvin/HAb_Converged/rxn_1324/output/Species/rxn_1324_C[CH]S/arkane/output.py

>  <path_exists>  (5) 
True

>  <E0_value>  (5) 
-1253184.5981829516

>  <E0_units>  (5) 
kJ/mol

>  <thermo_class>  (5) 
NASA

>  <Cp0_value>  (5) 
33.257888

>  <Cp0_units>  (5) 
J/(mol*K)

>  <CpInf_value>  (5) 
182.918384

>  <CpInf_units>  (5) 
J/(mol*K)

>  <Tmin_value>  (5) 
10.0

>  <Tmin_units>  (5) 
K

>  <Tmax_value>  (5) 
3000.0

>  <Tmax_units>  (5) 
K

>  <polynomials>  (5) 
[{"name": "polynomial1", "class": "NASAPolynomial", "Tmin_value": 10.0, "Tmin_units": "K", "Tmax_value": 413.8010480726284, "Tmax_units": "K", "coeffs": [3.7950295729261647, 0.016457708367529925, 9.731711480509379e-06, -3.2015572359360355e-08, 2.0934508459004603e-11, -150723288.9505719, 9.662663267236853]}, {"name": "polynomial2", "class": "NASAPolynomial", "Tmin_value": 413.8010480726284, "Tmin_units": "K", "Tmax_value": 3000.0, "Tmax_units": "K", "coeffs": [3.171701388229353, 0.02248310275825266, -1.2109939387600553e-05, 3.1731034874071525e-09, -3.249234972610705e-13, -150723237.3638374, 12.119854918634292]}]

>  <H298_value>  (5) 
-299514.53540410154

>  <H298_units>  (5) 
kcal/mol

>  <S298_value>  (5) 
72.29191673058813

>  <S298_units>  (5) 
cal/(mol*K)

>  <Cp_T_value_list>  (5) 
[17.712657489437476, 20.710891785101634, 23.373717884324098, 25.72491502627314, 29.60811043312427, 32.57636509573052, 37.18717346712741, 39.514014084536406, 40.66360633897774]

>  <Cp_T_units>  (5) 
cal/(mol*K)

>  <T_list>  (5) 
[300.0, 400.0, 500.0, 600.0, 800.0, 1000.0, 1500.0, 2000.0, 2400.0]

>  <T_units>  (5) 
K

>  <yaml_path>  (5) 
/home/calvin/Dropbox/PersonalFolders/Calvin/HAb_Converged/rxn_1324/output/Species/rxn_1324_C[CH]S/rxn_1324_CCHS.yml

>  <frequencies_cm1>  (5) 
[128.26155180696, 206.51084952836, 328.47537579688, 383.06104210556, 719.5433227855599, 910.4180467402799, 999.9292003864799, 1062.5698404755199, 1120.95294966616, 1318.91440247112, 1398.79117571336, 1459.19317858808, 1469.92627664324, 2677.2315667084, 2962.1771225617995, 3023.7808478675192, 3086.80603913448, 3183.9601474418396]

>  <ZPE_kJmol>  (5) 
158.14937342870658

>  <E_elec_kJmol>  (5) 
-1253342.7475563802

>  <E0_minus_Eelec_plus_ZPE_kJmol>  (5) 
0.0

>  <rxn>  (5) 
rxn_1324

>  <species_type>  (5) 
r1

>  <species_folder>  (5) 
rxn_1324_C[CH]S

>  <frequencies_cm1_list>  (5) 
[128.26155180696, 206.51084952836, 328.47537579688, 383.06104210556, 719.5433227855599, 910.4180467402799, 999.9292003864799, 1062.5698404755199, 1120.95294966616, 1318.91440247112, 1398.79117571336, 1459.19317858808, 1469.92627664324, 2677.2315667084, 2962.1771225617995, 3023.7808478675192, 3086.80603913448, 3183.9601474418396]

>  <E0_kJmol>  (5) 
-1.25318e+06

>  <H298_kJmol>  (5) 
-1.25317e+06

$$$$
