
     RDKit          3D

 14 13  0  0  0  0  0  0  0  0999 V2000
    0.2887   -0.2414   -1.4238 C   0  0  0  0  0  0  0  0  0  1  0  0
    0.2318   -0.0966    0.0762 C   0  0  0  0  0  0  0  0  0  2  0  0
    0.2577    1.3227    0.5837 C   0  0  0  0  0  0  0  0  0  3  0  0
   -0.7706   -0.9882    0.7638 C   0  0  0  0  0  0  0  0  0  4  0  0
    1.1210    0.3232   -1.8465 H   0  0  0  0  0  0  0  0  0  5  0  0
   -0.6348    0.1414   -1.8750 H   0  0  0  0  0  0  0  0  0  6  0  0
    0.3934   -1.2862   -1.7209 H   0  0  0  0  0  0  0  0  0  7  0  0
    1.1893   -0.4906    0.4170 H   0  0  0  0  0  0  0  0  0  8  0  0
   -0.6892    1.8253    0.3515 H   0  0  0  0  0  0  0  0  0  9  0  0
    0.3942    1.3498    1.6660 H   0  0  0  0  0  0  0  0  0 10  0  0
    1.0628    1.8952    0.1215 H   0  0  0  0  0  0  0  0  0 11  0  0
   -0.6677   -2.0267    0.4436 H   0  0  0  0  0  0  0  0  0 12  0  0
   -1.7919   -0.6670    0.5261 H   0  0  0  0  0  0  0  0  0 13  0  0
   -0.6586   -0.9424    1.8489 H   0  0  0  0  0  0  0  0  0 14  0  0
  1  5  1  0
  1  7  1  0
  1  6  1  0
  1  2  1  0
  2  8  1  0
  2  3  1  0
  2  4  1  0
  3 11  1  0
  3  9  1  0
  3 10  1  0
  4 14  1  0
  4 13  1  0
  4 12  1  0
M  END
>  <rmg_smiles>  (1) 
CC(C)C

>  <rmg_adjacency_list>  (1) 
1  C u0 p0 c0 {2,S} {3,S} {4,S} {5,S}
2  C u0 p0 c0 {1,S} {6,S} {7,S} {8,S}
3  C u0 p0 c0 {1,S} {9,S} {10,S} {11,S}
4  C u0 p0 c0 {1,S} {12,S} {13,S} {14,S}
5  H u0 p0 c0 {1,S}
6  H u0 p0 c0 {2,S}
7  H u0 p0 c0 {2,S}
8  H u0 p0 c0 {2,S}
9  H u0 p0 c0 {3,S}
10 H u0 p0 c0 {3,S}
11 H u0 p0 c0 {3,S}
12 H u0 p0 c0 {4,S}
13 H u0 p0 c0 {4,S}
14 H u0 p0 c0 {4,S}


>  <multiplicity>  (1) 
1

>  <reaction>  (1) 
rxn_298

>  <type>  (1) 
r1h

>  <role_mapnums>  (1) 
{"r1h_a": 2, "r1h_h": 8}

>  <role_mapidx>  (1) 
{"r1h_a": 1, "r1h_h": 7}

>  <ordered_mapped_smiles>  (1) 
[C:1]([C:2]([C:3]([H:9])([H:10])[H:11])([C:4]([H:12])([H:13])[H:14])[H:8])([H:5])([H:6])[H:7]

>  <mol_properties>  (1) 
{"1": {"label": "donator", "atom_type": "Cs"}, "7": {"label": "d_hydrogen", "atom_type": "H0"}}

>  <level_of_theory>  (1) 
wb97xd/def2tzvp

>  <lot_method>  (1) 
wb97xd

>  <lot_basis>  (1) 
def2tzvp

>  <spin_multiplicity>  (1) 
1.0

>  <optical_isomers>  (1) 
1.0

>  <modes>  (1) 
IdealGasTranslation(mass=(58.0782, 'amu')),         NonlinearRotor(             inertia = ([64.4719, 64.4729, 111.216

>  <frequency_value>  (1) 
unknown

>  <frequency_units>  (1) 
unknown

>  <frequency_list>  (1) 
unknown

>  <arkane_path>  (1) 
/home/calvin/Dropbox/PersonalFolders/Calvin/HAb_Converged/rxn_298/output/Species/rxn_298_CC[C]C/arkane/output.py

>  <path_exists>  (1) 
True

>  <E0_value>  (1) 
-415716.8447606188

>  <E0_units>  (1) 
kJ/mol

>  <thermo_class>  (1) 
NASA

>  <Cp0_value>  (1) 
33.257888

>  <Cp0_units>  (1) 
J/(mol*K)

>  <CpInf_value>  (1) 
332.57888

>  <CpInf_units>  (1) 
J/(mol*K)

>  <Tmin_value>  (1) 
10.0

>  <Tmin_units>  (1) 
K

>  <Tmax_value>  (1) 
3000.0

>  <Tmax_units>  (1) 
K

>  <polynomials>  (1) 
[{"name": "polynomial1", "class": "NASAPolynomial", "Tmin_value": 10.0, "Tmin_units": "K", "Tmax_value": 537.7145015336737, "Tmax_units": "K", "coeffs": [3.8630538535240015, 0.009536987894173702, 8.517668559649441e-05, -1.3169258474082077e-07, 6.37542020229518e-11, -49999183.080117024, 7.55806953405211]}, {"name": "polynomial2", "class": "NASAPolynomial", "Tmin_value": 537.7145015336737, "Tmin_units": "K", "Tmax_value": 3000.0, "Tmax_units": "K", "coeffs": [-1.52677075758958, 0.04963081658463264, -2.6667058040943407e-05, 6.971293328428207e-09, -7.141036672875519e-13, -49998603.43561247, 30.2169284561297]}]

>  <H298_value>  (1) 
-99354.5357983116

>  <H298_units>  (1) 
kcal/mol

>  <S298_value>  (1) 
69.85884077181609

>  <S298_units>  (1) 
cal/(mol*K)

>  <Cp_T_value_list>  (1) 
[22.556306395462723, 28.834169307298506, 34.67433646911876, 39.87296026307408, 48.463536450938626, 55.034049461785614, 65.2430471311701, 70.36960173193243, 72.85863683749908]

>  <Cp_T_units>  (1) 
cal/(mol*K)

>  <T_list>  (1) 
[300.0, 400.0, 500.0, 600.0, 800.0, 1000.0, 1500.0, 2000.0, 2400.0]

>  <T_units>  (1) 
K

>  <yaml_path>  (1) 
/home/calvin/Dropbox/PersonalFolders/Calvin/HAb_Converged/rxn_298/output/Species/rxn_298_CC[C]C/rxn_298_CCCC.yml

>  <frequencies_cm1>  (1) 
[211.25593638447998, 262.63472054871994, 263.57549753756, 369.07985999403996, 369.45067720131993, 435.30506642011994, 804.00724222156, 925.10652833976, 925.29880392872, 953.25430116644, 976.1419632379999, 976.3823077241999, 1191.09233772464, 1191.10607169528, 1204.15334380328, 1353.06392046748, 1353.1943931885598, 1393.2083166481998, 1393.48986304632, 1417.40757291588, 1467.5090978106, 1474.0945367324798, 1474.2662113654796, 1492.55299327264, 1492.5941951845598, 1500.97191727496, 2997.8854462257996, 2999.9043399098796, 2999.9455418218, 3005.3292583126795, 3068.56732612456, 3068.62226200712, 3077.3089984369203, 3079.44463087144, 3083.0429311791195, 3083.1802708855193]

>  <ZPE_kJmol>  (1) 
342.93015697617506

>  <E_elec_kJmol>  (1) 
-416059.774917595

>  <E0_minus_Eelec_plus_ZPE_kJmol>  (1) 
0.0

>  <rxn>  (1) 
rxn_298

>  <species_type>  (1) 
r1

>  <species_folder>  (1) 
rxn_298_CC[C]C

>  <frequencies_cm1_list>  (1) 
[211.25593638447998, 262.63472054871994, 263.57549753756, 369.07985999403996, 369.45067720131993, 435.30506642011994, 804.00724222156, 925.10652833976, 925.29880392872, 953.25430116644, 976.1419632379999, 976.3823077241999, 1191.09233772464, 1191.10607169528, 1204.15334380328, 1353.06392046748, 1353.1943931885598, 1393.2083166481998, 1393.48986304632, 1417.40757291588, 1467.5090978106, 1474.0945367324798, 1474.2662113654796, 1492.55299327264, 1492.5941951845598, 1500.97191727496, 2997.8854462257996, 2999.9043399098796, 2999.9455418218, 3005.3292583126795, 3068.56732612456, 3068.62226200712, 3077.3089984369203, 3079.44463087144, 3083.0429311791195, 3083.1802708855193]

>  <E0_kJmol>  (1) 
-415717

>  <H298_kJmol>  (1) 
-415699

$$$$

     RDKit          3D

  4  3  0  0  0  0  0  0  0  0999 V2000
    0.1433   -0.0113   -0.6773 O   0  0  0  0  0  0  0  0  0  1  0  0
   -0.0650    0.0384    0.6931 O   0  0  0  0  0  0  0  0  0  2  0  0
   -0.3586   -0.8561    0.9019 H   0  0  0  0  0  0  0  0  0  3  0  0
   -0.6694    0.3348   -1.0532 H   0  0  0  0  0  0  0  0  0  4  0  0
  1  2  1  0
  1  4  1  0
  2  3  1  0
M  END
>  <rmg_smiles>  (2) 
OO

>  <rmg_adjacency_list>  (2) 
1 O u0 p2 c0 {2,S} {4,S}
2 O u0 p2 c0 {1,S} {3,S}
3 H u0 p0 c0 {2,S}
4 H u0 p0 c0 {1,S}


>  <multiplicity>  (2) 
1

>  <reaction>  (2) 
rxn_298

>  <type>  (2) 
r2h

>  <role_mapnums>  (2) 
{"r2h_a": 1, "r2h_h": 4}

>  <role_mapidx>  (2) 
{"r2h_a": 0, "r2h_h": 3}

>  <ordered_mapped_smiles>  (2) 
[O:1]([O:2][H:3])[H:4]

>  <mol_properties>  (2) 
{"0": {"label": "acceptor", "atom_type": "O2s"}, "3": {"label": "a_hydrogen", "atom_type": "H0"}}

>  <level_of_theory>  (2) 
wb97xd/def2tzvp

>  <lot_method>  (2) 
wb97xd

>  <lot_basis>  (2) 
def2tzvp

>  <spin_multiplicity>  (2) 
1.0

>  <optical_isomers>  (2) 
2.0

>  <modes>  (2) 
IdealGasTranslation(mass=(34.0055, 'amu')),         NonlinearRotor(             inertia = ([1.6422, 18.4839, 19.1306

>  <frequency_value>  (2) 
unknown

>  <frequency_units>  (2) 
unknown

>  <frequency_list>  (2) 
unknown

>  <arkane_path>  (2) 
/home/calvin/Dropbox/PersonalFolders/Calvin/HAb_Converged/rxn_298/output/Species/rxn_298_OO/arkane/output.py

>  <path_exists>  (2) 
True

>  <E0_value>  (2) 
-397869.6784032715

>  <E0_units>  (2) 
kJ/mol

>  <thermo_class>  (2) 
NASA

>  <Cp0_value>  (2) 
33.257888

>  <Cp0_units>  (2) 
J/(mol*K)

>  <CpInf_value>  (2) 
83.14472

>  <CpInf_units>  (2) 
J/(mol*K)

>  <Tmin_value>  (2) 
10.0

>  <Tmin_units>  (2) 
K

>  <Tmax_value>  (2) 
3000.0

>  <Tmax_units>  (2) 
K

>  <polynomials>  (2) 
[{"name": "polynomial1", "class": "NASAPolynomial", "Tmin_value": 10.0, "Tmin_units": "K", "Tmax_value": 455.78106288096404, "Tmax_units": "K", "coeffs": [3.993411036033662, 0.00039597769380578143, 1.891318343950514e-05, -3.2458663273975925e-08, 1.830389461818306e-11, -47852668.906908266, 4.504010200645888]}, {"name": "polynomial2", "class": "NASAPolynomial", "Tmin_value": 455.78106288096404, "Tmin_units": "K", "Tmax_value": 3000.0, "Tmax_units": "K", "coeffs": [3.1932894099772424, 0.0074090928900088, -4.13817425256861e-06, 1.2156565940750795e-09, -1.433593106081876e-13, -47852595.87875142, 7.736455149271243]}]

>  <H298_value>  (2) 
-95090.51348489316

>  <H298_units>  (2) 
kcal/mol

>  <S298_value>  (2) 
55.5670496873013

>  <S298_units>  (2) 
cal/(mol*K)

>  <Cp_T_value_list>  (2) 
[10.107465812395086, 11.06702468787646, 11.935737360557455, 12.7042208397447, 13.981643941817545, 14.976592388023054, 16.639120825815006, 17.666826111390996, 18.25874653130484]

>  <Cp_T_units>  (2) 
cal/(mol*K)

>  <T_list>  (2) 
[300.0, 400.0, 500.0, 600.0, 800.0, 1000.0, 1500.0, 2000.0, 2400.0]

>  <T_units>  (2) 
K

>  <yaml_path>  (2) 
/home/calvin/Dropbox/PersonalFolders/Calvin/HAb_Converged/rxn_298/output/Species/rxn_298_OO/rxn_298_OO.yml

>  <frequencies_cm1>  (2) 
[384.68165064108, 1007.86056843108, 1337.5514006295998, 1458.46527814416, 3787.7329647175193, 3788.3509933963196]

>  <ZPE_kJmol>  (2) 
70.36821125363778

>  <E_elec_kJmol>  (2) 
-397940.04661452514

>  <E0_minus_Eelec_plus_ZPE_kJmol>  (2) 
0.0

>  <rxn>  (2) 
rxn_298

>  <species_type>  (2) 
p0

>  <species_folder>  (2) 
rxn_298_OO

>  <frequencies_cm1_list>  (2) 
[384.68165064108, 1007.86056843108, 1337.5514006295998, 1458.46527814416, 3787.7329647175193, 3788.3509933963196]

>  <E0_kJmol>  (2) 
-397870

>  <H298_kJmol>  (2) 
-397859

$$$$

     RDKit          3D

 17 15  0  0  0  0  0  0  0  0999 V2000
    1.5276   -0.6106    0.3918 O   0  0  0  0  0  0  0  0  0  1  0  0
    1.3194   -0.5610    1.7621 O   0  0  0  0  0  0  0  0  0  2  0  0
    1.0257   -1.4555    1.9709 H   0  0  0  0  0  0  0  0  0  3  0  0
   -0.5920    0.1549   -1.9924 C   0  0  0  0  0  0  0  0  0  4  0  0
   -0.6488    0.2997   -0.4924 C   0  0  0  0  0  3  0  0  0  5  0  0
   -0.6230    1.7190    0.0151 C   0  0  0  0  0  0  0  0  0  6  0  0
   -1.6513   -0.5919    0.1952 C   0  0  0  0  0  0  0  0  0  7  0  0
    0.2404    0.7195   -2.4152 H   0  0  0  0  0  0  0  0  0  8  0  0
   -1.5155    0.5377   -2.4436 H   0  0  0  0  0  0  0  0  0  9  0  0
   -0.4873   -0.8899   -2.2896 H   0  0  0  0  0  0  0  0  0 10  0  0
    0.4999   -0.1730   -0.0836 H   0  0  0  0  0  0  0  0  0 11  0  0
   -1.5698    2.2216   -0.2172 H   0  0  0  0  0  0  0  0  0 12  0  0
   -0.4864    1.7461    1.0973 H   0  0  0  0  0  0  0  0  0 13  0  0
    0.1822    2.2915   -0.4471 H   0  0  0  0  0  0  0  0  0 14  0  0
   -1.5484   -1.6304   -0.1251 H   0  0  0  0  0  0  0  0  0 15  0  0
   -2.6725   -0.2707   -0.0426 H   0  0  0  0  0  0  0  0  0 16  0  0
   -1.5392   -0.5461    1.2803 H   0  0  0  0  0  0  0  0  0 17  0  0
  1  2  1  0
  1 11  1  0
  2  3  1  0
  4  8  1  0
  4  5  1  0
  4  9  1  0
  4 10  1  0
  5  7  1  0
  5  6  1  0
  6 14  1  0
  6 13  1  0
  6 12  1  0
  7 17  1  0
  7 15  1  0
  7 16  1  0
M  RAD  1   5   2
M  END
>  <rmg_smiles>  (3) 
C[C](C)C.OO

>  <rmg_adjacency_list>  (3) 
multiplicity 2
1  O u0 p2 c0 {2,S} {17,S}
2  O u0 p2 c0 {1,S} {16,S}
3  C u0 p0 c0 {6,S} {7,S} {8,S} {9,S}
4  C u0 p0 c0 {6,S} {10,S} {11,S} {12,S}
5  C u0 p0 c0 {6,S} {13,S} {14,S} {15,S}
6  C u1 p0 c0 {3,S} {4,S} {5,S}
7  H u0 p0 c0 {3,S}
8  H u0 p0 c0 {3,S}
9  H u0 p0 c0 {3,S}
10 H u0 p0 c0 {4,S}
11 H u0 p0 c0 {4,S}
12 H u0 p0 c0 {4,S}
13 H u0 p0 c0 {5,S}
14 H u0 p0 c0 {5,S}
15 H u0 p0 c0 {5,S}
16 H u0 p0 c0 {2,S}
17 H u0 p0 c0 {1,S}


>  <multiplicity>  (3) 
2

>  <reaction>  (3) 
rxn_298

>  <type>  (3) 
ts

>  <role_mapnums>  (3) 
{"*2": 11, "*1": 5, "*3": 1, "*0": 2, "*4": 4}

>  <role_mapidx>  (3) 
{"*2": 10, "*1": 4, "*3": 0, "*0": 1, "*4": 3}

>  <ordered_mapped_smiles>  (3) 
[O:1]([O:2][H:3])[H:11].[C:4]([C:5]([C:6]([H:12])([H:13])[H:14])[C:7]([H:15])([H:16])[H:17])([H:8])([H:9])[H:10]

>  <mol_properties>  (3) 
{"0": {"label": "*3", "atom_type": "O2s"}, "1": {"label": "*0", "atom_type": "O2s"}, "3": {"label": "*4", "atom_type": "Cs"}, "4": {"label": "*1", "atom_type": "Cs"}, "10": {"label": "*2", "atom_type": "H0"}}

>  <level_of_theory>  (3) 
wb97xd/def2tzvp

>  <lot_method>  (3) 
wb97xd

>  <lot_basis>  (3) 
def2tzvp

>  <spin_multiplicity>  (3) 
2.0

>  <optical_isomers>  (3) 
2.0

>  <modes>  (3) 
IdealGasTranslation(mass=(91.0759, 'amu')),         NonlinearRotor(             inertia = ([120.998, 265.885, 272.311

>  <frequency_value>  (3) 
-1804.25

>  <frequency_units>  (3) 
cm^-1

>  <frequency_list>  (3) 
unknown

>  <arkane_path>  (3) 
/home/calvin/Dropbox/PersonalFolders/Calvin/HAb_Converged/rxn_298/output/rxns/TS0/arkane/output.py

>  <path_exists>  (3) 
True

>  <E0_value>  (3) 
-811868.0

>  <E0_units>  (3) 
kJ/mol

>  <thermo_class>  (3) 
unknown

>  <Cp0_value>  (3) 
unknown

>  <Cp0_units>  (3) 
unknown

>  <CpInf_value>  (3) 
unknown

>  <CpInf_units>  (3) 
unknown

>  <Tmin_value>  (3) 
unknown

>  <Tmin_units>  (3) 
unknown

>  <Tmax_value>  (3) 
unknown

>  <Tmax_units>  (3) 
unknown

>  <polynomials>  (3) 
unknown

>  <H298_value>  (3) 
unknown

>  <H298_units>  (3) 
unknown

>  <S298_value>  (3) 
unknown

>  <S298_units>  (3) 
unknown

>  <Cp_T_value_list>  (3) 
unknown

>  <Cp_T_units>  (3) 
unknown

>  <T_list>  (3) 
unknown

>  <T_units>  (3) 
unknown

>  <yaml_path>  (3) 
unknown

>  <frequencies_cm1>  (3) 
unknown

>  <ZPE_kJmol>  (3) 
unknown

>  <E_elec_kJmol>  (3) 
unknown

>  <E0_minus_Eelec_plus_ZPE_kJmol>  (3) 
unknown

>  <rxn>  (3) 
unknown

>  <species_type>  (3) 
unknown

>  <species_folder>  (3) 
unknown

>  <frequencies_cm1_list>  (3) 
[]

>  <ts_imag_freq_cm1>  (3) 
-1826.1688

>  <ts_freq_out_path>  (3) 
/home/calvin/Dropbox/PersonalFolders/Calvin/HAb_Converged/rxn_298/output/rxns/TS0/geometry/freq.out

>  <E0_kJmol>  (3) 
-811868

>  <H298_kJmol>  (3) 
unknown

$$$$

     RDKit          3D

 13 12  0  0  0  0  0  0  0  0999 V2000
   -1.3649   -0.5967   -0.3477 C   0  0  0  0  0  0  0  0  0  1  0  0
   -0.1601   -0.2776    0.4669 C   0  0  0  0  0  3  0  0  0  2  0  0
    1.1241   -0.9571    0.1414 C   0  0  0  0  0  0  0  0  0  3  0  0
   -0.1188    1.0130    1.2081 C   0  0  0  0  0  0  0  0  0  4  0  0
   -1.4266   -1.6632   -0.5770 H   0  0  0  0  0  0  0  0  0  5  0  0
   -2.2858   -0.3004    0.1602 H   0  0  0  0  0  0  0  0  0  6  0  0
   -1.3532   -0.0668   -1.3138 H   0  0  0  0  0  0  0  0  0  7  0  0
    1.6174   -0.4963   -0.7297 H   0  0  0  0  0  0  0  0  0  8  0  0
    0.9723   -2.0104   -0.1064 H   0  0  0  0  0  0  0  0  0  9  0  0
    1.8338   -0.8977    0.9701 H   0  0  0  0  0  0  0  0  0 10  0  0
   -1.0852    1.2507    1.6593 H   0  0  0  0  0  0  0  0  0 11  0  0
    0.6358    1.0009    1.9983 H   0  0  0  0  0  0  0  0  0 12  0  0
    0.1343    1.8546    0.5434 H   0  0  0  0  0  0  0  0  0 13  0  0
  1  5  1  0
  1  7  1  0
  1  6  1  0
  1  2  1  0
  2  3  1  0
  2  4  1  0
  3  9  1  0
  3 10  1  0
  3  8  1  0
  4 13  1  0
  4 12  1  0
  4 11  1  0
M  RAD  1   2   2
M  END
>  <rmg_smiles>  (4) 
C[C](C)C

>  <rmg_adjacency_list>  (4) 
multiplicity 2
1  C u0 p0 c0 {4,S} {5,S} {6,S} {7,S}
2  C u0 p0 c0 {4,S} {8,S} {9,S} {10,S}
3  C u0 p0 c0 {4,S} {11,S} {12,S} {13,S}
4  C u1 p0 c0 {1,S} {2,S} {3,S}
5  H u0 p0 c0 {1,S}
6  H u0 p0 c0 {1,S}
7  H u0 p0 c0 {1,S}
8  H u0 p0 c0 {2,S}
9  H u0 p0 c0 {2,S}
10 H u0 p0 c0 {2,S}
11 H u0 p0 c0 {3,S}
12 H u0 p0 c0 {3,S}
13 H u0 p0 c0 {3,S}


>  <multiplicity>  (4) 
2

>  <reaction>  (4) 
rxn_298

>  <type>  (4) 
r1

>  <role_mapnums>  (4) 
{}

>  <role_mapidx>  (4) 
{}

>  <ordered_mapped_smiles>  (4) 
[C:1]([C:2]([C:3]([H:8])([H:9])[H:10])[C:4]([H:11])([H:12])[H:13])([H:5])([H:6])[H:7]

>  <level_of_theory>  (4) 
wb97xd/def2tzvp

>  <lot_method>  (4) 
wb97xd

>  <lot_basis>  (4) 
def2tzvp

>  <spin_multiplicity>  (4) 
2.0

>  <optical_isomers>  (4) 
1.0

>  <modes>  (4) 
IdealGasTranslation(mass=(57.0704, 'amu')),         NonlinearRotor(             inertia = ([62.7477, 62.7516, 115.628

>  <frequency_value>  (4) 
unknown

>  <frequency_units>  (4) 
unknown

>  <frequency_list>  (4) 
unknown

>  <arkane_path>  (4) 
/home/calvin/Dropbox/PersonalFolders/Calvin/HAb_Converged/rxn_298/output/Species/rxn_298_C[C][C]C/arkane/output.py

>  <path_exists>  (4) 
True

>  <E0_value>  (4) 
-414011.75995937816

>  <E0_units>  (4) 
kJ/mol

>  <thermo_class>  (4) 
NASA

>  <Cp0_value>  (4) 
33.257888

>  <Cp0_units>  (4) 
J/(mol*K)

>  <CpInf_value>  (4) 
307.635464

>  <CpInf_units>  (4) 
J/(mol*K)

>  <Tmin_value>  (4) 
10.0

>  <Tmin_units>  (4) 
K

>  <Tmax_value>  (4) 
3000.0

>  <Tmax_units>  (4) 
K

>  <polynomials>  (4) 
[{"name": "polynomial1", "class": "NASAPolynomial", "Tmin_value": 10.0, "Tmin_units": "K", "Tmax_value": 466.08578215014654, "Tmax_units": "K", "coeffs": [3.635514673636708, 0.03664536073409816, -8.049474721842952e-05, 2.069709721496505e-07, -1.731074738595803e-10, -49794112.6602409, 8.363358986121874]}, {"name": "polynomial2", "class": "NASAPolynomial", "Tmin_value": 466.08578215014654, "Tmin_units": "K", "Tmax_value": 3000.0, "Tmax_units": "K", "coeffs": [-0.5045792003459204, 0.045838843430762694, -2.532106084201158e-05, 6.815139487870927e-09, -7.175981367422742e-13, -49793440.662434615, 28.24528674649704]}]

>  <H298_value>  (4) 
-98946.55988271124

>  <H298_units>  (4) 
kcal/mol

>  <S298_value>  (4) 
75.32677058074276

>  <S298_units>  (4) 
cal/(mol*K)

>  <Cp_T_value_list>  (4) 
[22.99325371887051, 28.276140745061053, 33.56713679144864, 38.27799761061737, 46.01662776193379, 51.88744169120494, 60.906993468090285, 65.43555043448843, 67.69148471250399]

>  <Cp_T_units>  (4) 
cal/(mol*K)

>  <T_list>  (4) 
[300.0, 400.0, 500.0, 600.0, 800.0, 1000.0, 1500.0, 2000.0, 2400.0]

>  <T_units>  (4) 
K

>  <yaml_path>  (4) 
/home/calvin/Dropbox/PersonalFolders/Calvin/HAb_Converged/rxn_298/output/Species/rxn_298_C[C][C]C/rxn_298_CCCC.yml

>  <frequencies_cm1>  (4) 
[127.66412408411998, 132.21006836595998, 133.7002041804, 257.46388060276, 382.77949570743993, 383.17091387067995, 764.0894565563999, 931.00526872964, 931.3142830690399, 964.27581260504, 1004.44767672704, 1004.7223561398399, 1088.2111636604, 1293.76063524396, 1293.8430390678, 1387.45378295004, 1387.5773886858, 1410.79466605272, 1453.7201912880398, 1456.5699901958399, 1457.0026102709999, 1475.8387510037599, 1478.2627968217198, 1478.3520676308801, 2924.1340238889998, 2924.3400334486, 2931.91431825656, 3026.76798648172, 3027.0220649385597, 3028.1413835457197, 3072.48837474228, 3076.3476204921194, 3076.70470372876]

>  <ZPE_kJmol>  (4) 
303.6487438767481

>  <E_elec_kJmol>  (4) 
-414315.4087032549

>  <E0_minus_Eelec_plus_ZPE_kJmol>  (4) 
0.0

>  <rxn>  (4) 
rxn_298

>  <species_type>  (4) 
p1

>  <species_folder>  (4) 
rxn_298_C[C][C]C

>  <frequencies_cm1_list>  (4) 
[127.66412408411998, 132.21006836595998, 133.7002041804, 257.46388060276, 382.77949570743993, 383.17091387067995, 764.0894565563999, 931.00526872964, 931.3142830690399, 964.27581260504, 1004.44767672704, 1004.7223561398399, 1088.2111636604, 1293.76063524396, 1293.8430390678, 1387.45378295004, 1387.5773886858, 1410.79466605272, 1453.7201912880398, 1456.5699901958399, 1457.0026102709999, 1475.8387510037599, 1478.2627968217198, 1478.3520676308801, 2924.1340238889998, 2924.3400334486, 2931.91431825656, 3026.76798648172, 3027.0220649385597, 3028.1413835457197, 3072.48837474228, 3076.3476204921194, 3076.70470372876]

>  <E0_kJmol>  (4) 
-414012

>  <H298_kJmol>  (4) 
-413992

$$$$

     RDKit          3D

  3  2  0  0  0  0  0  0  0  0999 V2000
    0.9943   -0.1797    0.0000 O   0  0  0  0  0  1  0  0  0  1  0  0
   -0.1595    0.4394    0.0000 O   0  0  0  0  0  0  0  0  0  2  0  0
   -0.8348   -0.2597    0.0000 H   0  0  0  0  0  0  0  0  0  3  0  0
  1  2  1  0
  2  3  1  0
M  RAD  1   1   2
M  END
>  <rmg_smiles>  (5) 
[O]O

>  <rmg_adjacency_list>  (5) 
multiplicity 2
1 O u1 p2 c0 {2,S}
2 O u0 p2 c0 {1,S} {3,S}
3 H u0 p0 c0 {2,S}


>  <multiplicity>  (5) 
2

>  <reaction>  (5) 
rxn_298

>  <type>  (5) 
r2

>  <role_mapnums>  (5) 
{}

>  <role_mapidx>  (5) 
{}

>  <ordered_mapped_smiles>  (5) 
[O:1][O:2][H:3]

>  <level_of_theory>  (5) 
wb97xd/def2tzvp

>  <lot_method>  (5) 
wb97xd

>  <lot_basis>  (5) 
def2tzvp

>  <spin_multiplicity>  (5) 
2.0

>  <optical_isomers>  (5) 
1.0

>  <modes>  (5) 
IdealGasTranslation(mass=(32.9977, 'amu')),         NonlinearRotor(             inertia = ([0.803517, 14.5889, 15.3924

>  <frequency_value>  (5) 
unknown

>  <frequency_units>  (5) 
unknown

>  <frequency_list>  (5) 
unknown

>  <arkane_path>  (5) 
/home/calvin/Dropbox/PersonalFolders/Calvin/HAb_Converged/rxn_298/output/Species/rxn_298_[O]O/arkane/output.py

>  <path_exists>  (5) 
True

>  <E0_value>  (5) 
-396214.7927695905

>  <E0_units>  (5) 
kJ/mol

>  <thermo_class>  (5) 
NASA

>  <Cp0_value>  (5) 
33.257888

>  <Cp0_units>  (5) 
J/(mol*K)

>  <CpInf_value>  (5) 
58.201304

>  <CpInf_units>  (5) 
J/(mol*K)

>  <Tmin_value>  (5) 
10.0

>  <Tmin_units>  (5) 
K

>  <Tmax_value>  (5) 
3000.0

>  <Tmax_units>  (5) 
K

>  <polynomials>  (5) 
[{"name": "polynomial1", "class": "NASAPolynomial", "Tmin_value": 10.0, "Tmin_units": "K", "Tmax_value": 938.1901641883775, "Tmax_units": "K", "coeffs": [4.028900763568748, -0.0017001850192041605, 1.0116513729421136e-05, -1.0102502975955476e-08, 3.2943616799556636e-12, -47653633.38795187, 4.661311963627797]}, {"name": "polynomial2", "class": "NASAPolynomial", "Tmin_value": 938.1901641883775, "Tmin_units": "K", "Tmax_value": 3000.0, "Tmax_units": "K", "coeffs": [3.0224709900106443, 0.00428209217697721, -2.152234978217665e-06, 5.370565329041951e-10, -5.2799153043016775e-14, -47653518.97920004, 9.055842364041489]}]

>  <H298_value>  (5) 
-94695.23338060976

>  <H298_units>  (5) 
kcal/mol

>  <S298_value>  (5) 
54.59701487407024

>  <S298_units>  (5) 
cal/(mol*K)

>  <Cp_T_value_list>  (5) 
[8.312978103030632, 8.754130351990018, 9.242540000567846, 9.728455522252242, 10.572357002256187, 11.201059485179156, 12.218042363471625, 12.776508208459937, 13.066159106759592]

>  <Cp_T_units>  (5) 
cal/(mol*K)

>  <T_list>  (5) 
[300.0, 400.0, 500.0, 600.0, 800.0, 1000.0, 1500.0, 2000.0, 2400.0]

>  <T_units>  (5) 
K

>  <yaml_path>  (5) 
/home/calvin/Dropbox/PersonalFolders/Calvin/HAb_Converged/rxn_298/output/Species/rxn_298_[O]O/rxn_298_OO.yml

>  <frequencies_cm1>  (5) 
[1229.25217514788, 1446.77766912952, 3624.6283293968795]

>  <ZPE_kJmol>  (5) 
37.68631575394318

>  <E_elec_kJmol>  (5) 
-396252.4790853445

>  <E0_minus_Eelec_plus_ZPE_kJmol>  (5) 
0.0

>  <rxn>  (5) 
rxn_298

>  <species_type>  (5) 
r0

>  <species_folder>  (5) 
rxn_298_[O]O

>  <frequencies_cm1_list>  (5) 
[1229.25217514788, 1446.77766912952, 3624.6283293968795]

>  <E0_kJmol>  (5) 
-396215

>  <H298_kJmol>  (5) 
-396205

$$$$
