
     RDKit          3D

  7  6  0  0  0  0  0  0  0  0999 V2000
   -0.0348   -0.1217   -1.2507 C   0  0  0  0  0  0  0  0  0  1  0  0
    0.1824   -0.3981    0.0986 C   0  0  0  0  0  0  0  0  0  2  0  0
   -0.1300    0.3923    1.0351 O   0  0  0  0  0  0  0  0  0  3  0  0
    0.4590   -0.7168   -2.0064 H   0  0  0  0  0  0  0  0  0  4  0  0
   -0.8525    0.5087   -1.5616 H   0  0  0  0  0  0  0  0  0  5  0  0
    0.6812   -1.3308    0.3781 H   0  0  0  0  0  0  0  0  0  6  0  0
   -0.0168    1.2448    0.6086 H   0  0  0  0  0  0  0  0  0  7  0  0
  1  5  1  0
  1  4  1  0
  1  2  1  0
  2  3  1  0
  2  6  1  0
  3  7  1  0
M  END
>  <rmg_smiles>  (1) 
[CH2][CH]O

>  <rmg_adjacency_list>  (1) 
1 O u0 p2 c0 {2,S} {7,S}
2 C u0 p0 c0 {1,S} {3,S} {4,S}
3 C u0 p0 c0 {2,S} {5,S} {6,S}
4 H u0 p0 c0 {2,S}
5 H u0 p0 c0 {3,S}
6 H u0 p0 c0 {3,S}
7 H u0 p0 c0 {1,S}


>  <multiplicity>  (1) 
1

>  <reaction>  (1) 
rxn_480

>  <type>  (1) 
r1h

>  <role_mapnums>  (1) 
{"r1h_a": 3, "r1h_h": 7}

>  <role_mapidx>  (1) 
{"r1h_a": 2, "r1h_h": 6}

>  <ordered_mapped_smiles>  (1) 
[CH:1]([CH:2]([O:3][H:7])[H:6])([H:4])[H:5]

>  <mol_properties>  (1) 
{"2": {"label": "donator", "atom_type": "O2s"}, "6": {"label": "d_hydrogen", "atom_type": "H0"}}

>  <level_of_theory>  (1) 
wb97xd/def2tzvp

>  <lot_method>  (1) 
wb97xd

>  <lot_basis>  (1) 
def2tzvp

>  <spin_multiplicity>  (1) 
1.0

>  <optical_isomers>  (1) 
1.0

>  <modes>  (1) 
IdealGasTranslation(mass=(44.0262, 'amu')),         NonlinearRotor(             inertia = ([8.2807, 47.382, 55.6627

>  <frequency_value>  (1) 
unknown

>  <frequency_units>  (1) 
unknown

>  <frequency_list>  (1) 
unknown

>  <arkane_path>  (1) 
/home/calvin/Dropbox/PersonalFolders/Calvin/HAb_Converged/rxn_480/output/Species/rxn_480_C=CO/arkane/output.py

>  <path_exists>  (1) 
True

>  <E0_value>  (1) 
-403721.5747116701

>  <E0_units>  (1) 
kJ/mol

>  <thermo_class>  (1) 
NASA

>  <Cp0_value>  (1) 
33.257888

>  <Cp0_units>  (1) 
J/(mol*K)

>  <CpInf_value>  (1) 
157.97496800000002

>  <CpInf_units>  (1) 
J/(mol*K)

>  <Tmin_value>  (1) 
10.0

>  <Tmin_units>  (1) 
K

>  <Tmax_value>  (1) 
3000.0

>  <Tmax_units>  (1) 
K

>  <polynomials>  (1) 
[{"name": "polynomial1", "class": "NASAPolynomial", "Tmin_value": 10.0, "Tmin_units": "K", "Tmax_value": 555.2056569165115, "Tmax_units": "K", "coeffs": [4.097338498876175, -0.00864469935446395, 0.00010145195156182729, -1.7128067915122144e-07, 9.529325863832859e-11, -48556489.371090114, 6.758025660711023]}, {"name": "polynomial2", "class": "NASAPolynomial", "Tmin_value": 555.2056569165115, "Tmin_units": "K", "Tmax_value": 3000.0, "Tmax_units": "K", "coeffs": [1.4147655229747191, 0.022233618372519234, -1.3181078214137359e-05, 3.84008672844003e-09, -4.348743997465106e-13, -48556369.536413625, 16.518037716160666]}]

>  <H298_value>  (1) 
-96488.9113631066

>  <H298_units>  (1) 
kcal/mol

>  <S298_value>  (1) 
61.02009452592069

>  <S298_units>  (1) 
cal/(mol*K)

>  <Cp_T_value_list>  (1) 
[13.477038533015893, 16.591812971902087, 19.243552297445156, 21.42774445315535, 24.946933384852407, 27.567557974201097, 31.530028162453263, 33.624314656418505, 34.79540785772666]

>  <Cp_T_units>  (1) 
cal/(mol*K)

>  <T_list>  (1) 
[300.0, 400.0, 500.0, 600.0, 800.0, 1000.0, 1500.0, 2000.0, 2400.0]

>  <T_units>  (1) 
K

>  <yaml_path>  (1) 
/home/calvin/Dropbox/PersonalFolders/Calvin/HAb_Converged/rxn_480/output/Species/rxn_480_C=CO/rxn_480_C=CO.yml

>  <frequencies_cm1>  (1) 
[455.30172767195995, 498.1036471715199, 716.6317210098798, 841.3430414064, 964.0904040014, 1001.73521752564, 1127.5727235146398, 1324.1539122702798, 1349.32141346808, 1440.0754914571999, 1708.66388827836, 3129.0998017203597, 3174.0098857131597, 3232.0839805644, 3817.6661537273994]

>  <ZPE_kJmol>  (1) 
148.2164782013167

>  <E_elec_kJmol>  (1) 
-403869.7911898714

>  <E0_minus_Eelec_plus_ZPE_kJmol>  (1) 
0.0

>  <rxn>  (1) 
rxn_480

>  <species_type>  (1) 
r1

>  <species_folder>  (1) 
rxn_480_C=CO

>  <frequencies_cm1_list>  (1) 
[455.30172767195995, 498.1036471715199, 716.6317210098798, 841.3430414064, 964.0904040014, 1001.73521752564, 1127.5727235146398, 1324.1539122702798, 1349.32141346808, 1440.0754914571999, 1708.66388827836, 3129.0998017203597, 3174.0098857131597, 3232.0839805644, 3817.6661537273994]

>  <E0_kJmol>  (1) 
-403722

>  <H298_kJmol>  (1) 
-403710

$$$$

     RDKit          3D

  3  2  0  0  0  0  0  0  0  0999 V2000
    0.0526    0.0156   -0.0204 S   0  0  0  0  0  0  0  0  0  1  0  0
   -1.1297    0.5036   -0.4214 H   0  0  0  0  0  0  0  0  0  2  0  0
   -0.4413   -0.8329    0.8916 H   0  0  0  0  0  0  0  0  0  3  0  0
  1  2  1  0
  1  3  1  0
M  END
>  <rmg_smiles>  (2) 
S

>  <rmg_adjacency_list>  (2) 
1 S u0 p2 c0 {2,S} {3,S}
2 H u0 p0 c0 {1,S}
3 H u0 p0 c0 {1,S}


>  <multiplicity>  (2) 
1

>  <reaction>  (2) 
rxn_480

>  <type>  (2) 
r2h

>  <role_mapnums>  (2) 
{"r2h_a": 1, "r2h_h": 3}

>  <role_mapidx>  (2) 
{"r2h_a": 0, "r2h_h": 2}

>  <ordered_mapped_smiles>  (2) 
[S:1]([H:2])[H:3]

>  <mol_properties>  (2) 
{"0": {"label": "acceptor", "atom_type": "S2s"}, "2": {"label": "a_hydrogen", "atom_type": "H0"}}

>  <level_of_theory>  (2) 
wb97xd/def2tzvp

>  <lot_method>  (2) 
wb97xd

>  <lot_basis>  (2) 
def2tzvp

>  <spin_multiplicity>  (2) 
1.0

>  <optical_isomers>  (2) 
1.0

>  <modes>  (2) 
IdealGasTranslation(mass=(33.9877, 'amu')),         NonlinearRotor(             inertia = ([1.61731, 1.89259, 3.50989

>  <frequency_value>  (2) 
unknown

>  <frequency_units>  (2) 
unknown

>  <frequency_list>  (2) 
unknown

>  <arkane_path>  (2) 
/home/calvin/Dropbox/PersonalFolders/Calvin/HAb_Converged/rxn_480/output/Species/rxn_480_S/arkane/output.py

>  <path_exists>  (2) 
True

>  <E0_value>  (2) 
-1048594.6738581122

>  <E0_units>  (2) 
kJ/mol

>  <thermo_class>  (2) 
NASA

>  <Cp0_value>  (2) 
33.257888

>  <Cp0_units>  (2) 
J/(mol*K)

>  <CpInf_value>  (2) 
58.201304

>  <CpInf_units>  (2) 
J/(mol*K)

>  <Tmin_value>  (2) 
10.0

>  <Tmin_units>  (2) 
K

>  <Tmax_value>  (2) 
3000.0

>  <Tmax_units>  (2) 
K

>  <polynomials>  (2) 
[{"name": "polynomial1", "class": "NASAPolynomial", "Tmin_value": 10.0, "Tmin_units": "K", "Tmax_value": 722.900956707324, "Tmax_units": "K", "coeffs": [4.009659811562683, -0.0005195783322458554, 2.881051738529555e-06, 4.736144081300265e-10, -1.5223433184334072e-12, -126116809.07139717, 1.8984639463092803]}, {"name": "polynomial2", "class": "NASAPolynomial", "Tmin_value": 722.900956707324, "Tmin_units": "K", "Tmax_value": 3000.0, "Tmax_units": "K", "coeffs": [2.902964182729169, 0.003494262240046146, -1.069790062325483e-06, 7.989759049716491e-11, 1.0003668324100045e-14, -126116593.93766859, 7.25981997739117]}]

>  <H298_value>  (2) 
-250617.763304253

>  <H298_units>  (2) 
kcal/mol

>  <S298_value>  (2) 
49.11606881488968

>  <S298_units>  (2) 
cal/(mol*K)

>  <Cp_T_value_list>  (2) 
[8.174448613941296, 8.45384689399466, 8.811649055616625, 9.220829842769842, 10.052708162421021, 10.765368534889147, 12.037757426771954, 12.741109274452668, 13.043238122438884]

>  <Cp_T_units>  (2) 
cal/(mol*K)

>  <T_list>  (2) 
[300.0, 400.0, 500.0, 600.0, 800.0, 1000.0, 1500.0, 2000.0, 2400.0]

>  <T_units>  (2) 
K

>  <yaml_path>  (2) 
/home/calvin/Dropbox/PersonalFolders/Calvin/HAb_Converged/rxn_480/output/Species/rxn_480_S/rxn_480_S.yml

>  <frequencies_cm1>  (2) 
[1207.6967082284, 2718.3442078192397, 2731.4189478685203]

>  <ZPE_kJmol>  (2) 
39.82046440783764

>  <E_elec_kJmol>  (2) 
-1048634.49432252

>  <E0_minus_Eelec_plus_ZPE_kJmol>  (2) 
0.0

>  <rxn>  (2) 
rxn_480

>  <species_type>  (2) 
p0

>  <species_folder>  (2) 
rxn_480_S

>  <frequencies_cm1_list>  (2) 
[1207.6967082284, 2718.3442078192397, 2731.4189478685203]

>  <E0_kJmol>  (2) 
-1.04859e+06

>  <H298_kJmol>  (2) 
-1.04858e+06

$$$$

     RDKit          3D

  9  7  0  0  0  0  0  0  0  0999 V2000
    0.4547    1.2710   -0.2324 S   0  0  0  0  0  1  0  0  0  1  0  0
   -0.7276    1.7590   -0.6333 H   0  0  0  0  0  0  0  0  0  2  0  0
   -0.1878   -1.3679   -0.8724 C   0  0  0  0  0  0  0  0  0  3  0  0
    0.0294   -1.6442    0.4769 C   0  0  0  0  0  0  0  0  0  4  0  0
   -0.2831   -0.8539    1.4134 O   0  0  0  0  0  0  0  0  0  5  0  0
    0.3059   -1.9629   -1.6281 H   0  0  0  0  0  0  0  0  0  6  0  0
   -1.0055   -0.7374   -1.1833 H   0  0  0  0  0  0  0  0  0  7  0  0
    0.5281   -2.5769    0.7564 H   0  0  0  0  0  0  0  0  0  8  0  0
   -0.1356    0.2568    0.8577 H   0  0  0  0  0  0  0  0  0  9  0  0
  1  2  1  0
  3  4  1  0
  3  6  1  0
  3  7  1  0
  4  8  1  0
  4  5  1  0
  5  9  1  0
M  RAD  1   1   2
M  END
>  <rmg_smiles>  (3) 
[CH2][CH]O.[SH]

>  <rmg_adjacency_list>  (3) 
multiplicity 2
1 S u1 p2 c0 {9,S}
2 O u0 p2 c0 {3,S} {8,S}
3 C u0 p0 c0 {2,S} {4,S} {5,S}
4 C u0 p0 c0 {3,S} {6,S} {7,S}
5 H u0 p0 c0 {3,S}
6 H u0 p0 c0 {4,S}
7 H u0 p0 c0 {4,S}
8 H u0 p0 c0 {2,S}
9 H u0 p0 c0 {1,S}


>  <multiplicity>  (3) 
2

>  <reaction>  (3) 
rxn_480

>  <type>  (3) 
ts

>  <role_mapnums>  (3) 
{"*2": 9, "*1": 5, "*3": 1, "*0": 4, "*4": 2}

>  <role_mapidx>  (3) 
{"*2": 8, "*1": 4, "*3": 0, "*0": 3, "*4": 1}

>  <ordered_mapped_smiles>  (3) 
[S:1][H:2].[CH:3]([CH:4]([O:5][H:9])[H:8])([H:6])[H:7]

>  <mol_properties>  (3) 
{"0": {"label": "*3", "atom_type": "S2s"}, "1": {"label": "*4", "atom_type": "H0"}, "3": {"label": "*0", "atom_type": "Cs"}, "4": {"label": "*1", "atom_type": "O2s"}, "8": {"label": "*2", "atom_type": "H0"}}

>  <level_of_theory>  (3) 
wb97xd/def2tzvp

>  <lot_method>  (3) 
wb97xd

>  <lot_basis>  (3) 
def2tzvp

>  <spin_multiplicity>  (3) 
2.0

>  <optical_isomers>  (3) 
2.0

>  <modes>  (3) 
IdealGasTranslation(mass=(77.0061, 'amu')),         NonlinearRotor(             inertia = ([50.1763, 145.36, 185.481

>  <frequency_value>  (3) 
-1613.32

>  <frequency_units>  (3) 
cm^-1

>  <frequency_list>  (3) 
unknown

>  <arkane_path>  (3) 
/home/calvin/Dropbox/PersonalFolders/Calvin/HAb_Converged/rxn_480/output/rxns/TS0/arkane/output.py

>  <path_exists>  (3) 
True

>  <E0_value>  (3) 
-1450600.0

>  <E0_units>  (3) 
kJ/mol

>  <thermo_class>  (3) 
unknown

>  <Cp0_value>  (3) 
unknown

>  <Cp0_units>  (3) 
unknown

>  <CpInf_value>  (3) 
unknown

>  <CpInf_units>  (3) 
unknown

>  <Tmin_value>  (3) 
unknown

>  <Tmin_units>  (3) 
unknown

>  <Tmax_value>  (3) 
unknown

>  <Tmax_units>  (3) 
unknown

>  <polynomials>  (3) 
unknown

>  <H298_value>  (3) 
unknown

>  <H298_units>  (3) 
unknown

>  <S298_value>  (3) 
unknown

>  <S298_units>  (3) 
unknown

>  <Cp_T_value_list>  (3) 
unknown

>  <Cp_T_units>  (3) 
unknown

>  <T_list>  (3) 
unknown

>  <T_units>  (3) 
unknown

>  <yaml_path>  (3) 
unknown

>  <frequencies_cm1>  (3) 
unknown

>  <ZPE_kJmol>  (3) 
unknown

>  <E_elec_kJmol>  (3) 
unknown

>  <E0_minus_Eelec_plus_ZPE_kJmol>  (3) 
unknown

>  <rxn>  (3) 
unknown

>  <species_type>  (3) 
unknown

>  <species_folder>  (3) 
unknown

>  <frequencies_cm1_list>  (3) 
[]

>  <ts_imag_freq_cm1>  (3) 
-1632.9103

>  <ts_freq_out_path>  (3) 
/home/calvin/Dropbox/PersonalFolders/Calvin/HAb_Converged/rxn_480/output/rxns/TS0/geometry/freq.out

>  <E0_kJmol>  (3) 
-1.4506e+06

>  <H298_kJmol>  (3) 
unknown

$$$$

     RDKit          3D

  6  5  0  0  0  0  0  0  0  0999 V2000
   -0.7133   -0.0465   -0.1138 C   0  0  0  0  0  0  0  0  0  1  0  0
    0.6837    0.0990    0.1040 C   0  0  0  0  0  0  0  0  0  2  0  0
    1.4284   -0.8504    0.3164 O   0  0  0  0  0  1  0  0  0  3  0  0
   -1.3425    0.8143   -0.2988 H   0  0  0  0  0  0  0  0  0  4  0  0
   -1.1519   -1.0358   -0.0939 H   0  0  0  0  0  0  0  0  0  5  0  0
    1.0889    1.1261    0.0750 H   0  0  0  0  0  0  0  0  0  6  0  0
  1  5  1  0
  1  4  1  0
  1  2  1  0
  2  3  1  0
  2  6  1  0
M  RAD  1   3   2
M  END
>  <rmg_smiles>  (4) 
[CH2][CH][O]

>  <rmg_adjacency_list>  (4) 
multiplicity 2
1 O u1 p2 c0 {3,S}
2 C u0 p0 c0 {3,S} {4,S} {5,S}
3 C u0 p0 c0 {1,S} {2,S} {6,S}
4 H u0 p0 c0 {2,S}
5 H u0 p0 c0 {2,S}
6 H u0 p0 c0 {3,S}


>  <multiplicity>  (4) 
2

>  <reaction>  (4) 
rxn_480

>  <type>  (4) 
r1

>  <role_mapnums>  (4) 
{}

>  <role_mapidx>  (4) 
{}

>  <ordered_mapped_smiles>  (4) 
[CH:1]([CH:2]([O:3])[H:6])([H:4])[H:5]

>  <level_of_theory>  (4) 
wb97xd/def2tzvp

>  <lot_method>  (4) 
wb97xd

>  <lot_basis>  (4) 
def2tzvp

>  <spin_multiplicity>  (4) 
2.0

>  <optical_isomers>  (4) 
1.0

>  <modes>  (4) 
IdealGasTranslation(mass=(43.0184, 'amu')),         NonlinearRotor(             inertia = ([7.46923, 43.7555, 51.2248

>  <frequency_value>  (4) 
unknown

>  <frequency_units>  (4) 
unknown

>  <frequency_list>  (4) 
unknown

>  <arkane_path>  (4) 
/home/calvin/Dropbox/PersonalFolders/Calvin/HAb_Converged/rxn_480/output/Species/rxn_480_C=C[O]/arkane/output.py

>  <path_exists>  (4) 
True

>  <E0_value>  (4) 
-402064.8713042213

>  <E0_units>  (4) 
kJ/mol

>  <thermo_class>  (4) 
NASA

>  <Cp0_value>  (4) 
33.257888

>  <Cp0_units>  (4) 
J/(mol*K)

>  <CpInf_value>  (4) 
133.031552

>  <CpInf_units>  (4) 
J/(mol*K)

>  <Tmin_value>  (4) 
10.0

>  <Tmin_units>  (4) 
K

>  <Tmax_value>  (4) 
3000.0

>  <Tmax_units>  (4) 
K

>  <polynomials>  (4) 
[{"name": "polynomial1", "class": "NASAPolynomial", "Tmin_value": 10.0, "Tmin_units": "K", "Tmax_value": 528.0713723584518, "Tmax_units": "K", "coeffs": [4.069068181720393, -0.006445847334327831, 8.24519976252606e-05, -1.4303373223005544e-07, 8.214673664772e-11, -48357233.95188342, 7.286659191587968]}, {"name": "polynomial2", "class": "NASAPolynomial", "Tmin_value": 528.0713723584518, "Tmin_units": "K", "Tmax_value": 3000.0, "Tmax_units": "K", "coeffs": [1.7695732635792571, 0.01876974415384689, -1.1322603147409724e-05, 3.314768491708994e-09, -3.755982674490112e-13, -48357099.81311182, 15.882697555195485]}]

>  <H298_value>  (4) 
-96093.00709441646

>  <H298_units>  (4) 
kcal/mol

>  <S298_value>  (4) 
61.819845521600215

>  <S298_units>  (4) 
cal/(mol*K)

>  <Cp_T_value_list>  (4) 
[12.637583235282603, 15.166054906543657, 17.31671305522784, 19.122083502158667, 22.022657621394718, 24.156252691896597, 27.29271108597069, 28.86859523774997, 29.72995192031171]

>  <Cp_T_units>  (4) 
cal/(mol*K)

>  <T_list>  (4) 
[300.0, 400.0, 500.0, 600.0, 800.0, 1000.0, 1500.0, 2000.0, 2400.0]

>  <T_units>  (4) 
K

>  <yaml_path>  (4) 
/home/calvin/Dropbox/PersonalFolders/Calvin/HAb_Converged/rxn_480/output/Species/rxn_480_C=C[O]/rxn_480_C=CO.yml

>  <frequencies_cm1>  (4) 
[449.66393272424, 506.48823624724, 754.00185512132, 972.8389432990799, 977.2269469185599, 1153.37198736188, 1391.8692545108001, 1463.54684728096, 1583.9044989846002, 2931.70144171164, 3126.8886324473197, 3242.4599953829197]

>  <ZPE_kJmol>  (4) 
110.97737295072427

>  <E_elec_kJmol>  (4) 
-402175.848677172

>  <E0_minus_Eelec_plus_ZPE_kJmol>  (4) 
0.0

>  <rxn>  (4) 
rxn_480

>  <species_type>  (4) 
p1

>  <species_folder>  (4) 
rxn_480_C=C[O]

>  <frequencies_cm1_list>  (4) 
[449.66393272424, 506.48823624724, 754.00185512132, 972.8389432990799, 977.2269469185599, 1153.37198736188, 1391.8692545108001, 1463.54684728096, 1583.9044989846002, 2931.70144171164, 3126.8886324473197, 3242.4599953829197]

>  <E0_kJmol>  (4) 
-402065

>  <H298_kJmol>  (4) 
-402053

$$$$

     RDKit          3D

  2  1  0  0  0  0  0  0  0  0999 V2000
    0.0000    0.0000    0.6715 S   0  0  0  0  0  1  0  0  0  1  0  0
    0.0000    0.0000   -0.6715 H   0  0  0  0  0  0  0  0  0  2  0  0
  1  2  1  0
M  RAD  1   1   2
M  END
>  <rmg_smiles>  (5) 
[SH]

>  <rmg_adjacency_list>  (5) 
multiplicity 2
1 S u1 p2 c0 {2,S}
2 H u0 p0 c0 {1,S}


>  <multiplicity>  (5) 
2

>  <reaction>  (5) 
rxn_480

>  <type>  (5) 
r2

>  <role_mapnums>  (5) 
{}

>  <role_mapidx>  (5) 
{}

>  <ordered_mapped_smiles>  (5) 
[S:1][H:2]

>  <level_of_theory>  (5) 
wb97xd/def2tzvp

>  <lot_method>  (5) 
wb97xd

>  <lot_basis>  (5) 
def2tzvp

>  <spin_multiplicity>  (5) 
2.0

>  <optical_isomers>  (5) 
1.0

>  <modes>  (5) 
IdealGasTranslation(mass=(32.9799, 'amu')),         LinearRotor(inertia=(1.76198, 'amu*angstrom^2'), symmetry=1),         HarmonicOscillator(frequencies=([2717.16

>  <frequency_value>  (5) 
unknown

>  <frequency_units>  (5) 
unknown

>  <frequency_list>  (5) 
unknown

>  <arkane_path>  (5) 
/home/calvin/Dropbox/PersonalFolders/Calvin/HAb_Converged/rxn_480/output/Species/rxn_480_[SH]/arkane/output.py

>  <path_exists>  (5) 
True

>  <E0_value>  (5) 
-1046902.9325518068

>  <E0_units>  (5) 
kJ/mol

>  <thermo_class>  (5) 
NASA

>  <Cp0_value>  (5) 
29.100652

>  <Cp0_units>  (5) 
J/(mol*K)

>  <CpInf_value>  (5) 
37.415124

>  <CpInf_units>  (5) 
J/(mol*K)

>  <Tmin_value>  (5) 
10.0

>  <Tmin_units>  (5) 
K

>  <Tmax_value>  (5) 
3000.0

>  <Tmax_units>  (5) 
K

>  <polynomials>  (5) 
[{"name": "polynomial1", "class": "NASAPolynomial", "Tmin_value": 10.0, "Tmin_units": "K", "Tmax_value": 748.2083962671832, "Tmax_units": "K", "coeffs": [3.4962734696716993, 0.0003200336195155241, -2.3068880701203956e-06, 4.8431093069994824e-09, -2.5806871378578145e-12, -125913339.12936324, 3.1406606290570003]}, {"name": "polynomial2", "class": "NASAPolynomial", "Tmin_value": 748.2083962671832, "Tmin_units": "K", "Tmax_value": 3000.0, "Tmax_units": "K", "coeffs": [3.1438042800112806, 0.0006407746502682161, 1.84773884894919e-07, -1.7005907804644896e-10, 2.761783535342592e-14, -125913242.6189953, 5.031352575041994]}]

>  <H298_value>  (5) 
-250213.73126141136

>  <H298_units>  (5) 
kcal/mol

>  <S298_value>  (5) 
45.88426249941152

>  <S298_units>  (5) 
cal/(mol*K)

>  <Cp_T_value_list>  (5) 
[6.944340839734653, 6.953391008349536, 7.002247966567712, 7.093270995008769, 7.350520461753213, 7.60486355541886, 8.120865226114644, 8.437404293156408, 8.567558281805402]

>  <Cp_T_units>  (5) 
cal/(mol*K)

>  <T_list>  (5) 
[300.0, 400.0, 500.0, 600.0, 800.0, 1000.0, 1500.0, 2000.0, 2400.0]

>  <T_units>  (5) 
K

>  <yaml_path>  (5) 
/home/calvin/Dropbox/PersonalFolders/Calvin/HAb_Converged/rxn_480/output/Species/rxn_480_[SH]/rxn_480_SH.yml

>  <frequencies_cm1>  (5) 
[2684.5586400448396]

>  <ZPE_kJmol>  (5) 
16.0572311304594

>  <E_elec_kJmol>  (5) 
-1046918.9897829372

>  <E0_minus_Eelec_plus_ZPE_kJmol>  (5) 
0.0

>  <rxn>  (5) 
rxn_480

>  <species_type>  (5) 
r0

>  <species_folder>  (5) 
rxn_480_[SH]

>  <frequencies_cm1_list>  (5) 
[2684.5586400448396]

>  <E0_kJmol>  (5) 
-1.0469e+06

>  <H298_kJmol>  (5) 
-1.04689e+06

$$$$
