
     RDKit          3D

  6  5  0  0  0  0  0  0  0  0999 V2000
    0.2596    0.0055   -0.6701 C   0  0  0  0  0  0  0  0  0  1  0  0
   -0.2612   -0.0637    0.6256 O   0  0  0  0  0  0  0  0  0  2  0  0
    1.3336    0.2206   -0.6827 H   0  0  0  0  0  0  0  0  0  3  0  0
    0.1077   -0.9873   -1.1043 H   0  0  0  0  0  0  0  0  0  4  0  0
   -0.2648    0.7342   -1.2978 H   0  0  0  0  0  0  0  0  0  5  0  0
   -0.1474    0.7924    1.0447 H   0  0  0  0  0  0  0  0  0  6  0  0
  1  5  1  0
  1  4  1  0
  1  3  1  0
  1  2  1  0
  2  6  1  0
M  END
>  <rmg_smiles>  (1) 
CO

>  <rmg_adjacency_list>  (1) 
1 C u0 p0 c0 {2,S} {3,S} {4,S} {5,S}
2 O u0 p2 c0 {1,S} {6,S}
3 H u0 p0 c0 {1,S}
4 H u0 p0 c0 {1,S}
5 H u0 p0 c0 {1,S}
6 H u0 p0 c0 {2,S}


>  <multiplicity>  (1) 
1

>  <reaction>  (1) 
rxn_387

>  <type>  (1) 
r1h

>  <role_mapnums>  (1) 
{"r1h_a": 2, "r1h_h": 6}

>  <role_mapidx>  (1) 
{"r1h_a": 1, "r1h_h": 5}

>  <ordered_mapped_smiles>  (1) 
[C:1]([O:2][H:6])([H:3])([H:4])[H:5]

>  <mol_properties>  (1) 
{"1": {"label": "donator", "atom_type": "O2s"}, "5": {"label": "d_hydrogen", "atom_type": "H0"}}

>  <level_of_theory>  (1) 
wb97xd/def2tzvp

>  <lot_method>  (1) 
wb97xd

>  <lot_basis>  (1) 
def2tzvp

>  <spin_multiplicity>  (1) 
1.0

>  <optical_isomers>  (1) 
1.0

>  <modes>  (1) 
IdealGasTranslation(mass=(32.0262, 'amu')),         NonlinearRotor(             inertia = ([3.92427, 20.1792, 20.9046

>  <frequency_value>  (1) 
unknown

>  <frequency_units>  (1) 
unknown

>  <frequency_list>  (1) 
unknown

>  <arkane_path>  (1) 
/home/calvin/Dropbox/PersonalFolders/Calvin/HAb_Converged/rxn_387/output/Species/rxn_387_CO/arkane/output.py

>  <path_exists>  (1) 
True

>  <E0_value>  (1) 
-303729.7991258424

>  <E0_units>  (1) 
kJ/mol

>  <thermo_class>  (1) 
NASA

>  <Cp0_value>  (1) 
33.257888

>  <Cp0_units>  (1) 
J/(mol*K)

>  <CpInf_value>  (1) 
133.031552

>  <CpInf_units>  (1) 
J/(mol*K)

>  <Tmin_value>  (1) 
10.0

>  <Tmin_units>  (1) 
K

>  <Tmax_value>  (1) 
3000.0

>  <Tmax_units>  (1) 
K

>  <polynomials>  (1) 
[{"name": "polynomial1", "class": "NASAPolynomial", "Tmin_value": 10.0, "Tmin_units": "K", "Tmax_value": 698.3341813253346, "Tmax_units": "K", "coeffs": [4.0215567421085705, -0.0013918275597151857, 3.088654492877698e-05, -3.5619840730823004e-08, 1.3319640500111606e-11, -36530257.7067979, 5.049565126331713]}, {"name": "polynomial2", "class": "NASAPolynomial", "Tmin_value": 698.3341813253346, "Tmin_units": "K", "Tmax_value": 3000.0, "Tmax_units": "K", "coeffs": [0.8030292187352491, 0.017044670475023747, -8.716711867271086e-06, 2.1896521783613246e-09, -2.167249261470434e-13, -36529808.21061414, 19.421281761974193]}]

>  <H298_value>  (1) 
-72590.49257555492

>  <H298_units>  (1) 
kcal/mol

>  <S298_value>  (1) 
56.892649290373726

>  <S298_units>  (1) 
cal/(mol*K)

>  <Cp_T_value_list>  (1) 
[10.989154390574786, 12.853223622326096, 14.759532412177741, 16.569240748625823, 19.65824435082755, 22.065772230460606, 25.93371928197072, 27.970212309601845, 28.976087551849815]

>  <Cp_T_units>  (1) 
cal/(mol*K)

>  <T_list>  (1) 
[300.0, 400.0, 500.0, 600.0, 800.0, 1000.0, 1500.0, 2000.0, 2400.0]

>  <T_units>  (1) 
K

>  <yaml_path>  (1) 
/home/calvin/Dropbox/PersonalFolders/Calvin/HAb_Converged/rxn_387/output/Species/rxn_387_CO/rxn_387_CO.yml

>  <frequencies_cm1>  (1) 
[308.3894437358799, 1061.07283767576, 1096.6987575159199, 1170.2098353665199, 1363.8038855079599, 1472.6044009180396, 1484.93063956744, 1497.8268379983997, 2973.4595794425595, 3026.27356353868, 3097.9030874116, 3862.39082911656]

>  <ZPE_kJmol>  (1) 
134.07488361253408

>  <E_elec_kJmol>  (1) 
-303863.8740094549

>  <E0_minus_Eelec_plus_ZPE_kJmol>  (1) 
0.0

>  <rxn>  (1) 
rxn_387

>  <species_type>  (1) 
r1

>  <species_folder>  (1) 
rxn_387_CO

>  <frequencies_cm1_list>  (1) 
[308.3894437358799, 1061.07283767576, 1096.6987575159199, 1170.2098353665199, 1363.8038855079599, 1472.6044009180396, 1484.93063956744, 1497.8268379983997, 2973.4595794425595, 3026.27356353868, 3097.9030874116, 3862.39082911656]

>  <E0_kJmol>  (1) 
-303730

>  <H298_kJmol>  (1) 
-303719

$$$$

     RDKit          3D

  4  3  0  0  0  0  0  0  0  0999 V2000
    0.0065    0.0226    0.0020 C   0  0  0  0  0  3  0  0  0  1  0  0
   -0.7908    0.7383   -0.1392 H   0  0  0  0  0  0  0  0  0  2  0  0
    0.9379    0.1829    0.5260 H   0  0  0  0  0  0  0  0  0  3  0  0
   -0.1849   -0.9842   -0.3411 H   0  0  0  0  0  0  0  0  0  4  0  0
  1  3  1  0
  1  4  1  0
  1  2  1  0
M  RAD  1   1   2
M  END
>  <rmg_smiles>  (2) 
[CH3]

>  <rmg_adjacency_list>  (2) 
multiplicity 2
1 C u1 p0 c0 {2,S} {3,S} {4,S}
2 H u0 p0 c0 {1,S}
3 H u0 p0 c0 {1,S}
4 H u0 p0 c0 {1,S}


>  <multiplicity>  (2) 
2

>  <reaction>  (2) 
rxn_387

>  <type>  (2) 
r2h

>  <role_mapnums>  (2) 
{"r2h_a": 1, "r2h_h": 4}

>  <role_mapidx>  (2) 
{"r2h_a": 0, "r2h_h": 3}

>  <ordered_mapped_smiles>  (2) 
[C:1]([H:2])([H:3])[H:4]

>  <mol_properties>  (2) 
{"0": {"label": "acceptor", "atom_type": "Cs"}, "3": {"label": "a_hydrogen", "atom_type": "H0"}}

>  <level_of_theory>  (2) 
wb97xd/def2tzvp

>  <lot_method>  (2) 
wb97xd

>  <lot_basis>  (2) 
def2tzvp

>  <spin_multiplicity>  (2) 
2.0

>  <optical_isomers>  (2) 
1.0

>  <modes>  (2) 
IdealGasTranslation(mass=(15.0235, 'amu')),         NonlinearRotor(             inertia = ([1.76141, 1.76141, 3.52282

>  <frequency_value>  (2) 
unknown

>  <frequency_units>  (2) 
unknown

>  <frequency_list>  (2) 
unknown

>  <arkane_path>  (2) 
/home/calvin/Dropbox/PersonalFolders/Calvin/HAb_Converged/rxn_387/output/Species/rxn_387_[CH3]/arkane/output.py

>  <path_exists>  (2) 
True

>  <E0_value>  (2) 
-104520.13119505512

>  <E0_units>  (2) 
kJ/mol

>  <thermo_class>  (2) 
NASA

>  <Cp0_value>  (2) 
33.257888

>  <Cp0_units>  (2) 
J/(mol*K)

>  <CpInf_value>  (2) 
83.14472

>  <CpInf_units>  (2) 
J/(mol*K)

>  <Tmin_value>  (2) 
10.0

>  <Tmin_units>  (2) 
K

>  <Tmax_value>  (2) 
3000.0

>  <Tmax_units>  (2) 
K

>  <polynomials>  (2) 
[{"name": "polynomial1", "class": "NASAPolynomial", "Tmin_value": 10.0, "Tmin_units": "K", "Tmax_value": 646.6680568167106, "Tmax_units": "K", "coeffs": [3.9912271000461548, 0.0004274218009639198, 9.38132315134313e-06, -1.0944874554220949e-08, 4.263406085556096e-12, -12570867.748368958, 0.20527673099681187]}, {"name": "polynomial2", "class": "NASAPolynomial", "Tmin_value": 646.6680568167106, "Tmin_units": "K", "Tmax_value": 3000.0, "Tmax_units": "K", "coeffs": [3.2488827598675174, 0.0050187516265713635, -1.2675301815554908e-06, 3.215102013021586e-11, 2.0164394281080815e-14, -12570771.728238096, 3.4631324604304954]}]

>  <H298_value>  (2) 
-24978.383291331436

>  <H298_units>  (2) 
kcal/mol

>  <S298_value>  (2) 
46.49953999396709

>  <S298_units>  (2) 
cal/(mol*K)

>  <Cp_T_value_list>  (2) 
[9.345424201068383, 10.07887042200736, 10.827537754048599, 11.552428339520182, 12.871902382304132, 14.014614114932202, 16.167234911840477, 17.479674567657305, 18.096247059343543]

>  <Cp_T_units>  (2) 
cal/(mol*K)

>  <T_list>  (2) 
[300.0, 400.0, 500.0, 600.0, 800.0, 1000.0, 1500.0, 2000.0, 2400.0]

>  <T_units>  (2) 
K

>  <yaml_path>  (2) 
/home/calvin/Dropbox/PersonalFolders/Calvin/HAb_Converged/rxn_387/output/Species/rxn_387_[CH3]/rxn_387_CH3.yml

>  <frequencies_cm1>  (2) 
[520.22220688724, 1393.4280601784399, 1393.43492716376, 3088.8592677451597, 3268.6163424668, 3268.6232094521197]

>  <ZPE_kJmol>  (2) 
77.35764153782172

>  <E_elec_kJmol>  (2) 
-104597.48883659294

>  <E0_minus_Eelec_plus_ZPE_kJmol>  (2) 
0.0

>  <rxn>  (2) 
rxn_387

>  <species_type>  (2) 
p0

>  <species_folder>  (2) 
rxn_387_[CH3]

>  <frequencies_cm1_list>  (2) 
[520.22220688724, 1393.4280601784399, 1393.43492716376, 3088.8592677451597, 3268.6163424668, 3268.6232094521197]

>  <E0_kJmol>  (2) 
-104520

>  <H298_kJmol>  (2) 
-104510

$$$$

     RDKit          3D

  9  7  0  0  0  0  0  0  0  0999 V2000
   -0.0600    1.4519    1.0209 C   0  0  0  0  0  2  0  0  0  1  0  0
   -0.8572    2.1677    0.8796 H   0  0  0  0  0  0  0  0  0  2  0  0
    0.8715    1.6123    1.5449 H   0  0  0  0  0  0  0  0  0  3  0  0
    0.0919   -0.7336   -1.1983 C   0  0  0  0  0  0  0  0  0  4  0  0
   -0.4289   -0.8028    0.0974 O   0  0  0  0  0  0  0  0  0  5  0  0
    1.1659   -0.5184   -1.2109 H   0  0  0  0  0  0  0  0  0  6  0  0
   -0.0600   -1.7264   -1.6325 H   0  0  0  0  0  0  0  0  0  7  0  0
   -0.4326   -0.0049   -1.8259 H   0  0  0  0  0  0  0  0  0  8  0  0
   -0.2905    0.2394    0.6077 H   0  0  0  0  0  0  0  0  0  9  0  0
  1  3  1  0
  1  2  1  0
  4  8  1  0
  4  5  1  0
  4  7  1  0
  4  6  1  0
  5  9  1  0
M  RAD  1   1   3
M  END
>  <rmg_smiles>  (3) 
CO.[CH2]

>  <rmg_adjacency_list>  (3) 
multiplicity 3
1 O u0 p2 c0 {2,S} {7,S}
2 C u0 p0 c0 {1,S} {4,S} {5,S} {6,S}
3 C u2 p1 c0 {8,S} {9,S}
4 H u0 p0 c0 {2,S}
5 H u0 p0 c0 {2,S}
6 H u0 p0 c0 {2,S}
7 H u0 p0 c0 {1,S}
8 H u0 p0 c0 {3,S}
9 H u0 p0 c0 {3,S}


>  <multiplicity>  (3) 
3

>  <reaction>  (3) 
rxn_387

>  <type>  (3) 
ts

>  <role_mapnums>  (3) 
{"*2": 9, "*1": 5, "*3": 1, "*0": 4, "*4": 2}

>  <role_mapidx>  (3) 
{"*2": 8, "*1": 4, "*3": 0, "*0": 3, "*4": 1}

>  <ordered_mapped_smiles>  (3) 
[C:1]([H:2])[H:3].[C:4]([O:5][H:9])([H:6])([H:7])[H:8]

>  <mol_properties>  (3) 
{"0": {"label": "*3", "atom_type": "C2s"}, "1": {"label": "*4", "atom_type": "H0"}, "3": {"label": "*0", "atom_type": "Cs"}, "4": {"label": "*1", "atom_type": "O2s"}, "8": {"label": "*2", "atom_type": "H0"}}

>  <level_of_theory>  (3) 
wb97xd/def2tzvp

>  <lot_method>  (3) 
wb97xd

>  <lot_basis>  (3) 
def2tzvp

>  <spin_multiplicity>  (3) 
3.0

>  <optical_isomers>  (3) 
1.0

>  <modes>  (3) 
IdealGasTranslation(mass=(46.0419, 'amu')),         NonlinearRotor(             inertia = ([16.6616, 85.7582, 95.4287

>  <frequency_value>  (3) 
-1778.95

>  <frequency_units>  (3) 
cm^-1

>  <frequency_list>  (3) 
unknown

>  <arkane_path>  (3) 
/home/calvin/Dropbox/PersonalFolders/Calvin/HAb_Converged/rxn_387/output/rxns/TS0/arkane/output.py

>  <path_exists>  (3) 
True

>  <E0_value>  (3) 
-406462.0

>  <E0_units>  (3) 
kJ/mol

>  <thermo_class>  (3) 
unknown

>  <Cp0_value>  (3) 
unknown

>  <Cp0_units>  (3) 
unknown

>  <CpInf_value>  (3) 
unknown

>  <CpInf_units>  (3) 
unknown

>  <Tmin_value>  (3) 
unknown

>  <Tmin_units>  (3) 
unknown

>  <Tmax_value>  (3) 
unknown

>  <Tmax_units>  (3) 
unknown

>  <polynomials>  (3) 
unknown

>  <H298_value>  (3) 
unknown

>  <H298_units>  (3) 
unknown

>  <S298_value>  (3) 
unknown

>  <S298_units>  (3) 
unknown

>  <Cp_T_value_list>  (3) 
unknown

>  <Cp_T_units>  (3) 
unknown

>  <T_list>  (3) 
unknown

>  <T_units>  (3) 
unknown

>  <yaml_path>  (3) 
unknown

>  <frequencies_cm1>  (3) 
unknown

>  <ZPE_kJmol>  (3) 
unknown

>  <E_elec_kJmol>  (3) 
unknown

>  <E0_minus_Eelec_plus_ZPE_kJmol>  (3) 
unknown

>  <rxn>  (3) 
unknown

>  <species_type>  (3) 
unknown

>  <species_folder>  (3) 
unknown

>  <frequencies_cm1_list>  (3) 
[]

>  <ts_imag_freq_cm1>  (3) 
-1800.5604

>  <ts_freq_out_path>  (3) 
/home/calvin/Dropbox/PersonalFolders/Calvin/HAb_Converged/rxn_387/output/rxns/TS0/geometry/freq.out

>  <E0_kJmol>  (3) 
-406462

>  <H298_kJmol>  (3) 
unknown

$$$$

     RDKit          3D

  5  4  0  0  0  0  0  0  0  0999 V2000
   -0.0419    0.0056   -0.0340 C   0  0  0  0  0  0  0  0  0  1  0  0
    1.3118    0.0049   -0.1263 O   0  0  0  0  0  1  0  0  0  2  0  0
   -0.2615   -0.1535    1.0387 H   0  0  0  0  0  0  0  0  0  3  0  0
   -0.4946    0.9694   -0.3042 H   0  0  0  0  0  0  0  0  0  4  0  0
   -0.5138   -0.8264   -0.5743 H   0  0  0  0  0  0  0  0  0  5  0  0
  1  3  1  0
  1  5  1  0
  1  2  1  0
  1  4  1  0
M  RAD  1   2   2
M  END
>  <rmg_smiles>  (4) 
C[O]

>  <rmg_adjacency_list>  (4) 
multiplicity 2
1 O u1 p2 c0 {2,S}
2 C u0 p0 c0 {1,S} {3,S} {4,S} {5,S}
3 H u0 p0 c0 {2,S}
4 H u0 p0 c0 {2,S}
5 H u0 p0 c0 {2,S}


>  <multiplicity>  (4) 
2

>  <reaction>  (4) 
rxn_387

>  <type>  (4) 
r1

>  <role_mapnums>  (4) 
{}

>  <role_mapidx>  (4) 
{}

>  <ordered_mapped_smiles>  (4) 
[C:1]([O:2])([H:3])([H:4])[H:5]

>  <level_of_theory>  (4) 
wb97xd/def2tzvp

>  <lot_method>  (4) 
wb97xd

>  <lot_basis>  (4) 
def2tzvp

>  <spin_multiplicity>  (4) 
2.0

>  <optical_isomers>  (4) 
1.0

>  <modes>  (4) 
IdealGasTranslation(mass=(31.0184, 'amu')),         NonlinearRotor(             inertia = ([3.20006, 17.856, 17.9799

>  <frequency_value>  (4) 
unknown

>  <frequency_units>  (4) 
unknown

>  <frequency_list>  (4) 
unknown

>  <arkane_path>  (4) 
/home/calvin/Dropbox/PersonalFolders/Calvin/HAb_Converged/rxn_387/output/Species/rxn_387_C[O]/arkane/output.py

>  <path_exists>  (4) 
True

>  <E0_value>  (4) 
-301997.45928448613

>  <E0_units>  (4) 
kJ/mol

>  <thermo_class>  (4) 
NASA

>  <Cp0_value>  (4) 
33.257888

>  <Cp0_units>  (4) 
J/(mol*K)

>  <CpInf_value>  (4) 
108.088136

>  <CpInf_units>  (4) 
J/(mol*K)

>  <Tmin_value>  (4) 
10.0

>  <Tmin_units>  (4) 
K

>  <Tmax_value>  (4) 
3000.0

>  <Tmax_units>  (4) 
K

>  <polynomials>  (4) 
[{"name": "polynomial1", "class": "NASAPolynomial", "Tmin_value": 10.0, "Tmin_units": "K", "Tmax_value": 768.057552390832, "Tmax_units": "K", "coeffs": [4.0715315236056, -0.00478848678472436, 3.764604730142716e-05, -4.457053501568186e-08, 1.7325380457940867e-11, -36321906.564501256, 5.398159941496132]}, {"name": "polynomial2", "class": "NASAPolynomial", "Tmin_value": 768.057552390832, "Tmin_units": "K", "Tmax_value": 3000.0, "Tmax_units": "K", "coeffs": [1.2713926508141096, 0.014092492467544463, -7.622034409770404e-06, 2.0075839708421608e-09, -2.0715094896997972e-13, -36321603.203570485, 17.343000208238326]}]

>  <H298_value>  (4) 
-72176.63877919012

>  <H298_units>  (4) 
kcal/mol

>  <S298_value>  (4) 
56.59492287066672

>  <S298_units>  (4) 
cal/(mol*K)

>  <Cp_T_value_list>  (4) 
[9.856665229058443, 11.467214612802346, 13.116197537122705, 14.644023234131616, 17.11048103158454, 18.962488263137697, 21.834328397722558, 23.279123659920334, 23.98662746097461]

>  <Cp_T_units>  (4) 
cal/(mol*K)

>  <T_list>  (4) 
[300.0, 400.0, 500.0, 600.0, 800.0, 1000.0, 1500.0, 2000.0, 2400.0]

>  <T_units>  (4) 
K

>  <yaml_path>  (4) 
/home/calvin/Dropbox/PersonalFolders/Calvin/HAb_Converged/rxn_387/output/Species/rxn_387_C[O]/rxn_387_CO.yml

>  <frequencies_cm1>  (4) 
[717.9295812353599, 959.00196787928, 1127.7649991035998, 1355.17895194604, 1359.9103048315199, 1501.9538961757198, 2892.6488961967993, 2963.9213368330797, 3005.76874537316]

>  <ZPE_kJmol>  (4) 
95.00791632849968

>  <E_elec_kJmol>  (4) 
-302092.46720081463

>  <E0_minus_Eelec_plus_ZPE_kJmol>  (4) 
0.0

>  <rxn>  (4) 
rxn_387

>  <species_type>  (4) 
p1

>  <species_folder>  (4) 
rxn_387_C[O]

>  <frequencies_cm1_list>  (4) 
[717.9295812353599, 959.00196787928, 1127.7649991035998, 1355.17895194604, 1359.9103048315199, 1501.9538961757198, 2892.6488961967993, 2963.9213368330797, 3005.76874537316]

>  <E0_kJmol>  (4) 
-301997

>  <H298_kJmol>  (4) 
-301987

$$$$

     RDKit          3D

  3  2  0  0  0  0  0  0  0  0999 V2000
    0.0000    0.0000    0.1037 C   0  0  0  0  0  2  0  0  0  1  0  0
    0.0000    0.9954   -0.3147 H   0  0  0  0  0  0  0  0  0  2  0  0
    0.0000   -0.9954   -0.3147 H   0  0  0  0  0  0  0  0  0  3  0  0
  1  3  1  0
  1  2  1  0
M  RAD  1   1   3
M  END
>  <rmg_smiles>  (5) 
[CH2]

>  <rmg_adjacency_list>  (5) 
multiplicity 3
1 C u2 p1 c0 {2,S} {3,S}
2 H u0 p0 c0 {1,S}
3 H u0 p0 c0 {1,S}


>  <multiplicity>  (5) 
3

>  <reaction>  (5) 
rxn_387

>  <type>  (5) 
r2

>  <role_mapnums>  (5) 
{}

>  <role_mapidx>  (5) 
{}

>  <ordered_mapped_smiles>  (5) 
[C:1]([H:2])[H:3]

>  <level_of_theory>  (5) 
wb97xd/def2tzvp

>  <lot_method>  (5) 
wb97xd

>  <lot_basis>  (5) 
def2tzvp

>  <spin_multiplicity>  (5) 
3.0

>  <optical_isomers>  (5) 
1.0

>  <modes>  (5) 
IdealGasTranslation(mass=(14.0157, 'amu')),         NonlinearRotor(             inertia = ([0.302189, 1.99708, 2.29927

>  <frequency_value>  (5) 
unknown

>  <frequency_units>  (5) 
unknown

>  <frequency_list>  (5) 
unknown

>  <arkane_path>  (5) 
/home/calvin/Dropbox/PersonalFolders/Calvin/HAb_Converged/rxn_387/output/Species/rxn_387_[CH2]/arkane/output.py

>  <path_exists>  (5) 
True

>  <E0_value>  (5) 
-102746.36040970244

>  <E0_units>  (5) 
kJ/mol

>  <thermo_class>  (5) 
NASA

>  <Cp0_value>  (5) 
33.257888

>  <Cp0_units>  (5) 
J/(mol*K)

>  <CpInf_value>  (5) 
58.201304

>  <CpInf_units>  (5) 
J/(mol*K)

>  <Tmin_value>  (5) 
10.0

>  <Tmin_units>  (5) 
K

>  <Tmax_value>  (5) 
3000.0

>  <Tmax_units>  (5) 
K

>  <polynomials>  (5) 
[{"name": "polynomial1", "class": "NASAPolynomial", "Tmin_value": 10.0, "Tmin_units": "K", "Tmax_value": 961.1848340880101, "Tmax_units": "K", "coeffs": [4.00356701730429, -0.00017627771560466018, 3.2423644330237094e-06, -2.3236475777247656e-09, 5.264894606763762e-13, -12357532.895904586, 0.5988313283751463]}, {"name": "polynomial2", "class": "NASAPolynomial", "Tmin_value": 961.1848340880101, "Tmin_units": "K", "Tmax_value": 3000.0, "Tmax_units": "K", "coeffs": [3.235933876251074, 0.002682755757139259, -6.958035382747246e-07, 4.468138534846478e-11, 4.948189571554621e-15, -12357369.83063247, 4.352446252239715]}]

>  <H298_value>  (5) 
-24554.56617285692

>  <H298_units>  (5) 
kcal/mol

>  <S298_value>  (5) 
46.65862348821438

>  <S298_units>  (5) 
cal/(mol*K)

>  <Cp_T_value_list>  (5) 
[8.314516874357837, 8.577973446902849, 8.879770470917533, 9.203501968380138, 9.863699390909401, 10.4775774158873, 11.665616434364258, 12.429685246330102, 12.814627981318104]

>  <Cp_T_units>  (5) 
cal/(mol*K)

>  <T_list>  (5) 
[300.0, 400.0, 500.0, 600.0, 800.0, 1000.0, 1500.0, 2000.0, 2400.0]

>  <T_units>  (5) 
K

>  <yaml_path>  (5) 
/home/calvin/Dropbox/PersonalFolders/Calvin/HAb_Converged/rxn_387/output/Species/rxn_387_[CH2]/rxn_387_CH2.yml

>  <frequencies_cm1>  (5) 
[1058.90973729996, 3101.0619006588, 3329.06641423876]

>  <ZPE_kJmol>  (5) 
44.79440797275059

>  <E_elec_kJmol>  (5) 
-102791.15481767518

>  <E0_minus_Eelec_plus_ZPE_kJmol>  (5) 
0.0

>  <rxn>  (5) 
rxn_387

>  <species_type>  (5) 
r0

>  <species_folder>  (5) 
rxn_387_[CH2]

>  <frequencies_cm1_list>  (5) 
[1058.90973729996, 3101.0619006588, 3329.06641423876]

>  <E0_kJmol>  (5) 
-102746

>  <H298_kJmol>  (5) 
-102736

$$$$
