
     RDKit          3D

 18 18  0  0  0  0  0  0  0  0999 V2000
   -0.1617   -2.0445   -2.1764 C   0  0  0  0  0  0  0  0  0  1  0  0
    0.2482   -1.8167   -0.7524 C   0  0  0  0  0  0  0  0  0  2  0  0
    0.1351   -0.5130   -0.1219 C   0  0  0  0  0  0  0  0  0  3  0  0
   -0.6484    0.5162   -0.6625 C   0  0  0  0  0  0  0  0  0  4  0  0
   -0.7835    1.7251   -0.0028 C   0  0  0  0  0  0  0  0  0  5  0  0
   -0.1454    1.9391    1.2110 C   0  0  0  0  0  0  0  0  0  6  0  0
    0.6398    0.9321    1.7593 C   0  0  0  0  0  0  0  0  0  7  0  0
    0.7790   -0.2747    1.1022 C   0  0  0  0  0  0  0  0  0  8  0  0
    0.4534   -1.4565   -2.8644 H   0  0  0  0  0  0  0  0  0  9  0  0
   -1.2053   -1.7666   -2.3427 H   0  0  0  0  0  0  0  0  0 10  0  0
   -0.0504   -3.0962   -2.4403 H   0  0  0  0  0  0  0  0  0 11  0  0
   -0.5282   -2.3997   -0.2614 H   0  0  0  0  0  0  0  0  0 12  0  0
    1.0925   -2.4111   -0.4095 H   0  0  0  0  0  0  0  0  0 13  0  0
   -1.1569    0.3660   -1.6057 H   0  0  0  0  0  0  0  0  0 14  0  0
   -1.3915    2.5075   -0.4392 H   0  0  0  0  0  0  0  0  0 15  0  0
   -0.2544    2.8856    1.7246 H   0  0  0  0  0  0  0  0  0 16  0  0
    1.1472    1.0930    2.7021 H   0  0  0  0  0  0  0  0  0 17  0  0
    1.3928   -1.0570    1.5338 H   0  0  0  0  0  0  0  0  0 18  0  0
  1 10  1  0
  1 11  1  0
  1  9  1  0
  1  2  1  0
  2 12  1  0
  2 13  1  0
  2  3  1  0
  3  4  1  0
  3  8  1  0
  4  5  1  0
  4 14  1  0
  5  6  1  0
  5 15  1  0
  6  7  1  0
  6 16  1  0
  7 17  1  0
  7  8  1  0
  8 18  1  0
M  END
>  <rmg_smiles>  (1) 
CCC1[CH][CH][CH][CH][CH]1

>  <rmg_adjacency_list>  (1) 
1  C u0 p0 c0 {2,S} {3,S} {9,S} {10,S}
2  C u0 p0 c0 {1,S} {11,S} {12,S} {13,S}
3  C u0 p0 c0 {1,S} {4,S} {5,S}
4  C u0 p0 c0 {3,S} {6,S} {14,S}
5  C u0 p0 c0 {3,S} {8,S} {18,S}
6  C u0 p0 c0 {4,S} {7,S} {15,S}
7  C u0 p0 c0 {6,S} {8,S} {16,S}
8  C u0 p0 c0 {5,S} {7,S} {17,S}
9  H u0 p0 c0 {1,S}
10 H u0 p0 c0 {1,S}
11 H u0 p0 c0 {2,S}
12 H u0 p0 c0 {2,S}
13 H u0 p0 c0 {2,S}
14 H u0 p0 c0 {4,S}
15 H u0 p0 c0 {6,S}
16 H u0 p0 c0 {7,S}
17 H u0 p0 c0 {8,S}
18 H u0 p0 c0 {5,S}


>  <multiplicity>  (1) 
1

>  <reaction>  (1) 
rxn_1510

>  <type>  (1) 
r1h

>  <role_mapnums>  (1) 
{"r1h_a": 2, "r1h_h": 12}

>  <role_mapidx>  (1) 
{"r1h_a": 1, "r1h_h": 11}

>  <ordered_mapped_smiles>  (1) 
[C:1]([C:2]([CH:3]1[CH:4]([H:14])[CH:5]([H:15])[CH:6]([H:16])[CH:7]([H:17])[CH:8]1[H:18])([H:12])[H:13])([H:9])([H:10])[H:11]

>  <mol_properties>  (1) 
{"1": {"label": "donator", "atom_type": "Cs"}, "11": {"label": "d_hydrogen", "atom_type": "H0"}}

>  <level_of_theory>  (1) 
wb97xd/def2tzvp

>  <lot_method>  (1) 
wb97xd

>  <lot_basis>  (1) 
def2tzvp

>  <spin_multiplicity>  (1) 
1.0

>  <optical_isomers>  (1) 
1.0

>  <modes>  (1) 
IdealGasTranslation(mass=(106.078, 'amu')),         NonlinearRotor(             inertia = ([110.416, 341.874, 411.865

>  <frequency_value>  (1) 
unknown

>  <frequency_units>  (1) 
unknown

>  <frequency_list>  (1) 
unknown

>  <arkane_path>  (1) 
/home/calvin/Dropbox/PersonalFolders/Calvin/HAb_Converged/rxn_1510/output/Species/rxn_1510_CCc1ccccc1/arkane/output.py

>  <path_exists>  (1) 
True

>  <E0_value>  (1) 
-815817.9037561571

>  <E0_units>  (1) 
kJ/mol

>  <thermo_class>  (1) 
NASA

>  <Cp0_value>  (1) 
33.257888

>  <Cp0_units>  (1) 
J/(mol*K)

>  <CpInf_value>  (1) 
432.352544

>  <CpInf_units>  (1) 
J/(mol*K)

>  <Tmin_value>  (1) 
10.0

>  <Tmin_units>  (1) 
K

>  <Tmax_value>  (1) 
3000.0

>  <Tmax_units>  (1) 
K

>  <polynomials>  (1) 
[{"name": "polynomial1", "class": "NASAPolynomial", "Tmin_value": 10.0, "Tmin_units": "K", "Tmax_value": 423.64221286564066, "Tmax_units": "K", "coeffs": [3.9313576428136847, 0.00433548241275686, 0.00021072402908531117, -3.936647014575837e-07, 2.39299197946727e-10, -98120227.55481465, 12.959903756557797]}, {"name": "polynomial2", "class": "NASAPolynomial", "Tmin_value": 423.64221286564066, "Tmin_units": "K", "Tmax_value": 3000.0, "Tmax_units": "K", "coeffs": [-3.831744087351853, 0.07763434183173747, -4.880767835098557e-05, 1.474976136685413e-08, -1.7152455638411797e-12, -98119569.80107659, 43.744896821921714]}]

>  <H298_value>  (1) 
-194980.06834128423

>  <H298_units>  (1) 
kcal/mol

>  <S298_value>  (1) 
85.45971865285561

>  <S298_units>  (1) 
cal/(mol*K)

>  <Cp_T_value_list>  (1) 
[30.814700172190967, 40.3659544276965, 48.72635221695798, 55.92346742650604, 67.34270920138786, 75.5723408499977, 87.237384341353, 92.9225471908414, 96.08425401549664]

>  <Cp_T_units>  (1) 
cal/(mol*K)

>  <T_list>  (1) 
[300.0, 400.0, 500.0, 600.0, 800.0, 1000.0, 1500.0, 2000.0, 2400.0]

>  <T_units>  (1) 
K

>  <yaml_path>  (1) 
/home/calvin/Dropbox/PersonalFolders/Calvin/HAb_Converged/rxn_1510/output/Species/rxn_1510_CCc1ccccc1/rxn_1510_CCc1ccccc1.yml

>  <frequencies_cm1>  (1) 
[34.3349266, 135.74656580575999, 222.50405833863996, 311.72679860139993, 360.38625657892, 413.90067317767995, 501.90109005348, 566.8971061072799, 633.36952400488, 715.5124024027199, 770.2697433443999, 787.05265546648, 789.67584385872, 862.2324107498398, 927.82585452648, 978.1333889808, 979.96687406124, 993.1308849196799, 1016.5747728021599, 1052.53030793768, 1054.54920162176, 1082.5459007714, 1116.4276063402797, 1174.3094256025597, 1199.89581290488, 1226.84186330056, 1261.7192817408397, 1329.56509670244, 1349.48622111576, 1353.9360276031198, 1398.4615604179999, 1477.6173002016399, 1482.14951051284, 1484.5254874335599, 1494.4826161475598, 1529.46990635296, 1639.9047642691999, 1662.1469297206797, 3013.28809429856, 3020.8349111652396, 3058.19131130604, 3090.8506934879597, 3092.1760216547195, 3142.7239005952397, 3143.62347567216, 3158.5385677872, 3168.2416180443593, 3180.7601322827195]

>  <ZPE_kJmol>  (1) 
409.36782000073936

>  <E_elec_kJmol>  (1) 
-816227.2715761579

>  <E0_minus_Eelec_plus_ZPE_kJmol>  (1) 
0.0

>  <rxn>  (1) 
rxn_1510

>  <species_type>  (1) 
r1

>  <species_folder>  (1) 
rxn_1510_CCc1ccccc1

>  <frequencies_cm1_list>  (1) 
[34.3349266, 135.74656580575999, 222.50405833863996, 311.72679860139993, 360.38625657892, 413.90067317767995, 501.90109005348, 566.8971061072799, 633.36952400488, 715.5124024027199, 770.2697433443999, 787.05265546648, 789.67584385872, 862.2324107498398, 927.82585452648, 978.1333889808, 979.96687406124, 993.1308849196799, 1016.5747728021599, 1052.53030793768, 1054.54920162176, 1082.5459007714, 1116.4276063402797, 1174.3094256025597, 1199.89581290488, 1226.84186330056, 1261.7192817408397, 1329.56509670244, 1349.48622111576, 1353.9360276031198, 1398.4615604179999, 1477.6173002016399, 1482.14951051284, 1484.5254874335599, 1494.4826161475598, 1529.46990635296, 1639.9047642691999, 1662.1469297206797, 3013.28809429856, 3020.8349111652396, 3058.19131130604, 3090.8506934879597, 3092.1760216547195, 3142.7239005952397, 3143.62347567216, 3158.5385677872, 3168.2416180443593, 3180.7601322827195]

>  <E0_kJmol>  (1) 
-815818

>  <H298_kJmol>  (1) 
-815797

$$$$

     RDKit          3D

 11 10  0  0  0  0  0  0  0  0999 V2000
    0.7478    0.4722    1.5263 C   0  0  0  0  0  0  0  0  0  1  0  0
    0.1654    0.5968    0.1385 C   0  0  0  0  0  0  0  0  0  2  0  0
    0.0367   -0.5939   -0.6844 C   0  0  0  0  0  0  0  0  0  3  0  0
    0.8477   -1.9902   -0.4889 S   0  0  0  0  0  0  0  0  0  4  0  0
   -1.2805    1.6592   -0.0072 S   0  0  0  0  0  0  0  0  0  5  0  0
    0.0519   -0.0496    2.1854 H   0  0  0  0  0  0  0  0  0  6  0  0
    1.6770   -0.0968    1.4936 H   0  0  0  0  0  0  0  0  0  7  0  0
    0.9465    1.4602    1.9428 H   0  0  0  0  0  0  0  0  0  8  0  0
   -0.6243   -0.4809   -1.5445 H   0  0  0  0  0  0  0  0  0  9  0  0
   -0.6951    2.7661    0.4733 H   0  0  0  0  0  0  0  0  0 10  0  0
    0.9362    1.1510   -0.3970 H   0  0  0  0  0  0  0  0  0 11  0  0
  1  8  1  0
  1  7  1  0
  1  6  1  0
  1  2  1  0
  2 11  1  0
  2  5  1  0
  2  3  1  0
  3  9  1  0
  3  4  1  0
  5 10  1  0
M  END
>  <rmg_smiles>  (2) 
[S][CH]C(S)C

>  <rmg_adjacency_list>  (2) 
1  S u0 p2 c0 {3,S} {11,S}
2  S u0 p2 c0 {5,S}
3  C u0 p0 c0 {1,S} {4,S} {5,S} {6,S}
4  C u0 p0 c0 {3,S} {7,S} {8,S} {9,S}
5  C u0 p0 c0 {2,S} {3,S} {10,S}
6  H u0 p0 c0 {3,S}
7  H u0 p0 c0 {4,S}
8  H u0 p0 c0 {4,S}
9  H u0 p0 c0 {4,S}
10 H u0 p0 c0 {5,S}
11 H u0 p0 c0 {1,S}


>  <multiplicity>  (2) 
1

>  <reaction>  (2) 
rxn_1510

>  <type>  (2) 
r2h

>  <role_mapnums>  (2) 
{"r2h_a": 2, "r2h_h": 11}

>  <role_mapidx>  (2) 
{"r2h_a": 1, "r2h_h": 10}

>  <ordered_mapped_smiles>  (2) 
[C:1]([C:2]([CH:3]([SH:4])[H:9])([S:5][H:10])[H:11])([H:6])([H:7])[H:8]

>  <mol_properties>  (2) 
{"1": {"label": "acceptor", "atom_type": "Cs"}, "10": {"label": "a_hydrogen", "atom_type": "H0"}}

>  <level_of_theory>  (2) 
wb97xd/def2tzvp

>  <lot_method>  (2) 
wb97xd

>  <lot_basis>  (2) 
def2tzvp

>  <spin_multiplicity>  (2) 
1.0

>  <optical_isomers>  (2) 
2.0

>  <modes>  (2) 
IdealGasTranslation(mass=(105.991, 'amu')),         NonlinearRotor(             inertia = ([89.5708, 281.116, 334.996

>  <frequency_value>  (2) 
unknown

>  <frequency_units>  (2) 
unknown

>  <frequency_list>  (2) 
unknown

>  <arkane_path>  (2) 
/home/calvin/Dropbox/PersonalFolders/Calvin/HAb_Converged/rxn_1510/output/Species/rxn_1510_CC[C=S]S/arkane/output.py

>  <path_exists>  (2) 
True

>  <E0_value>  (2) 
-2400319.162228284

>  <E0_units>  (2) 
kJ/mol

>  <thermo_class>  (2) 
NASA

>  <Cp0_value>  (2) 
33.257888

>  <Cp0_units>  (2) 
J/(mol*K)

>  <CpInf_value>  (2) 
257.748632

>  <CpInf_units>  (2) 
J/(mol*K)

>  <Tmin_value>  (2) 
10.0

>  <Tmin_units>  (2) 
K

>  <Tmax_value>  (2) 
3000.0

>  <Tmax_units>  (2) 
K

>  <polynomials>  (2) 
[{"name": "polynomial1", "class": "NASAPolynomial", "Tmin_value": 10.0, "Tmin_units": "K", "Tmax_value": 213.3428365177288, "Tmax_units": "K", "coeffs": [3.8247536777855875, 0.017151661039531946, 0.0001271021828908449, -4.6488747379545374e-07, 5.523324360529866e-10, -288691715.4758794, 11.853392235392128]}, {"name": "polynomial2", "class": "NASAPolynomial", "Tmin_value": 213.3428365177288, "Tmin_units": "K", "Tmax_value": 3000.0, "Tmax_units": "K", "coeffs": [2.678743717831134, 0.03863806708059261, -2.3965105109095725e-05, 7.169663786122436e-09, -8.265503532835025e-13, -288691666.57653993, 15.611826052912015]}]

>  <H298_value>  (2) 
-573685.353787409

>  <H298_units>  (2) 
kcal/mol

>  <S298_value>  (2) 
82.23962747696542

>  <S298_units>  (2) 
cal/(mol*K)

>  <Cp_T_value_list>  (2) 
[24.443018020947996, 29.285964025660572, 33.4865152276792, 37.11241795857413, 42.89155301844894, 47.086498598547244, 53.11318487748382, 56.092802545780735, 57.751349697154865]

>  <Cp_T_units>  (2) 
cal/(mol*K)

>  <T_list>  (2) 
[300.0, 400.0, 500.0, 600.0, 800.0, 1000.0, 1500.0, 2000.0, 2400.0]

>  <T_units>  (2) 
K

>  <yaml_path>  (2) 
/home/calvin/Dropbox/PersonalFolders/Calvin/HAb_Converged/rxn_1510/output/Species/rxn_1510_CC[C=S]S/rxn_1510_CCC=SS.yml

>  <frequencies_cm1>  (2) 
[78.0776230884, 237.83116957288, 246.27756151647998, 261.803815325, 307.07098255444, 347.94327917908, 536.8403113616399, 647.2133664099999, 834.3799182919199, 854.93280535468, 904.74591686596, 1011.0331156489199, 1061.16897547024, 1102.98891606904, 1189.20391676164, 1225.11138299992, 1326.20714088096, 1372.0717358332397, 1412.7036879716798, 1470.8601866467598, 1475.4954017377597, 2690.43677947876, 3024.5224822820796, 3028.22378736956, 3082.0197503664394, 3103.4310105942004, 3117.84481278088]

>  <ZPE_kJmol>  (2) 
215.03144428280424

>  <E_elec_kJmol>  (2) 
-2400534.1936725667

>  <E0_minus_Eelec_plus_ZPE_kJmol>  (2) 
0.0

>  <rxn>  (2) 
rxn_1510

>  <species_type>  (2) 
p0

>  <species_folder>  (2) 
rxn_1510_CC[C=S]S

>  <frequencies_cm1_list>  (2) 
[78.0776230884, 237.83116957288, 246.27756151647998, 261.803815325, 307.07098255444, 347.94327917908, 536.8403113616399, 647.2133664099999, 834.3799182919199, 854.93280535468, 904.74591686596, 1011.0331156489199, 1061.16897547024, 1102.98891606904, 1189.20391676164, 1225.11138299992, 1326.20714088096, 1372.0717358332397, 1412.7036879716798, 1470.8601866467598, 1475.4954017377597, 2690.43677947876, 3024.5224822820796, 3028.22378736956, 3082.0197503664394, 3103.4310105942004, 3117.84481278088]

>  <E0_kJmol>  (2) 
-2.40032e+06

>  <H298_kJmol>  (2) 
-2.4003e+06

$$$$

     RDKit          3D

 28 27  0  0  0  0  0  0  0  0999 V2000
   -0.0649   -1.4483    1.7243 C   0  0  0  0  0  0  0  0  0  1  0  0
   -0.6473   -1.3237    0.3366 C   0  0  0  0  0  0  0  0  0  2  0  0
   -0.7760   -2.5144   -0.4863 C   0  0  0  0  0  0  0  0  0  3  0  0
    0.0350   -3.9107   -0.2909 S   0  0  0  0  0  0  0  0  0  4  0  0
   -2.0932   -0.2613    0.1909 S   0  0  0  0  0  0  0  0  0  5  0  0
   -0.7608   -1.9701    2.3834 H   0  0  0  0  0  0  0  0  0  6  0  0
    0.8643   -2.0173    1.6916 H   0  0  0  0  0  0  0  0  0  7  0  0
    0.1338   -0.4603    2.1409 H   0  0  0  0  0  0  0  0  0  8  0  0
   -1.4370   -2.4014   -1.3465 H   0  0  0  0  0  0  0  0  0  9  0  0
   -1.5077    0.8456    0.6714 H   0  0  0  0  0  0  0  0  0 10  0  0
    0.8673   -0.1350   -2.3606 C   0  0  0  0  0  0  0  0  0 11  0  0
    1.2772    0.0928   -0.9366 C   0  0  0  0  0  0  0  0  0 12  0  0
    1.1641    1.3965   -0.3061 C   0  0  0  0  0  0  0  0  0 13  0  0
    0.3806    2.4257   -0.8468 C   0  0  0  0  0  3  0  0  0 14  0  0
    0.2455    3.6346   -0.1870 C   0  0  0  0  0  0  0  0  0 15  0  0
    0.8836    3.8486    1.0268 C   0  0  0  0  0  0  0  0  0 16  0  0
    1.6688    2.8416    1.5751 C   0  0  0  0  0  0  0  0  0 17  0  0
    1.8080    1.6348    0.9180 C   0  0  0  0  0  0  0  0  0 18  0  0
    1.4824    0.4529   -3.0486 H   0  0  0  0  0  0  0  0  0 19  0  0
   -0.1763    0.1429   -2.5269 H   0  0  0  0  0  0  0  0  0 20  0  0
    0.9786   -1.1867   -2.6246 H   0  0  0  0  0  0  0  0  0 21  0  0
    0.2519   -0.6772   -0.2882 H   0  0  0  0  0  0  0  0  0 22  0  0
    2.1215   -0.5016   -0.5938 H   0  0  0  0  0  0  0  0  0 23  0  0
   -0.1279    2.2755   -1.7899 H   0  0  0  0  0  0  0  0  0 24  0  0
   -0.3625    4.4170   -0.6235 H   0  0  0  0  0  0  0  0  0 25  0  0
    0.7746    4.7951    1.5404 H   0  0  0  0  0  0  0  0  0 26  0  0
    2.1762    3.0025    2.5179 H   0  0  0  0  0  0  0  0  0 27  0  0
    2.4218    0.8525    1.3496 H   0  0  0  0  0  0  0  0  0 28  0  0
  1  7  1  0
  1  8  1  0
  1  6  1  0
  1  2  1  0
  2  3  1  0
  2 22  1  0
  2  5  1  0
  3  9  1  0
  3  4  1  0
  5 10  1  0
 11 21  1  0
 11 19  1  0
 11 12  1  0
 11 20  1  0
 12 23  1  0
 12 13  1  0
 13 14  1  0
 13 18  1  0
 14 15  1  0
 14 24  1  0
 15 25  1  0
 15 16  1  0
 16 26  1  0
 16 17  1  0
 17 18  1  0
 17 27  1  0
 18 28  1  0
M  RAD  1  14   2
M  END
>  <rmg_smiles>  (3) 
C[CH][C]1[CH][CH][CH][CH][CH]1.[S][CH]C(S)C

>  <rmg_adjacency_list>  (3) 
multiplicity 2
1  S u0 p2 c0 {3,S} {28,S}
2  S u0 p2 c0 {13,S}
3  C u0 p0 c0 {1,S} {4,S} {13,S} {14,S}
4  C u0 p0 c0 {3,S} {15,S} {16,S} {17,S}
5  C u0 p0 c0 {7,S} {18,S} {19,S} {20,S}
6  C u0 p0 c0 {7,S} {8,S} {9,S}
7  C u0 p0 c0 {5,S} {6,S} {21,S}
8  C u1 p0 c0 {6,S} {10,S} {22,S}
9  C u0 p0 c0 {6,S} {12,S} {26,S}
10 C u0 p0 c0 {8,S} {11,S} {23,S}
11 C u0 p0 c0 {10,S} {12,S} {24,S}
12 C u0 p0 c0 {9,S} {11,S} {25,S}
13 C u0 p0 c0 {2,S} {3,S} {27,S}
14 H u0 p0 c0 {3,S}
15 H u0 p0 c0 {4,S}
16 H u0 p0 c0 {4,S}
17 H u0 p0 c0 {4,S}
18 H u0 p0 c0 {5,S}
19 H u0 p0 c0 {5,S}
20 H u0 p0 c0 {5,S}
21 H u0 p0 c0 {7,S}
22 H u0 p0 c0 {8,S}
23 H u0 p0 c0 {10,S}
24 H u0 p0 c0 {11,S}
25 H u0 p0 c0 {12,S}
26 H u0 p0 c0 {9,S}
27 H u0 p0 c0 {13,S}
28 H u0 p0 c0 {1,S}


>  <multiplicity>  (3) 
2

>  <reaction>  (3) 
rxn_1510

>  <type>  (3) 
ts

>  <role_mapnums>  (3) 
{"*2": 22, "*1": 12, "*3": 2, "*0": 3, "*4": 13}

>  <role_mapidx>  (3) 
{"*2": 21, "*1": 11, "*3": 1, "*0": 2, "*4": 12}

>  <ordered_mapped_smiles>  (3) 
[C:1]([C:2]([CH:3]([SH:4])[H:9])([S:5][H:10])[H:22])([H:6])([H:7])[H:8].[C:11]([CH:12]([CH:13]1[C:14]([H:24])[CH:15]([H:25])[CH:16]([H:26])[CH:17]([H:27])[CH:18]1[H:28])[H:23])([H:19])([H:20])[H:21]

>  <mol_properties>  (3) 
{"1": {"label": "*3", "atom_type": "Cs"}, "2": {"label": "*0", "atom_type": "Cs"}, "11": {"label": "*1", "atom_type": "Cs"}, "12": {"label": "*4", "atom_type": "Cs"}, "21": {"label": "*2", "atom_type": "H0"}}

>  <level_of_theory>  (3) 
wb97xd/def2tzvp

>  <lot_method>  (3) 
wb97xd

>  <lot_basis>  (3) 
def2tzvp

>  <spin_multiplicity>  (3) 
2.0

>  <optical_isomers>  (3) 
2.0

>  <modes>  (3) 
IdealGasTranslation(mass=(211.062, 'amu')),         NonlinearRotor(             inertia = ([476.813, 1528.72, 1572.04

>  <frequency_value>  (3) 
-1498.14

>  <frequency_units>  (3) 
cm^-1

>  <frequency_list>  (3) 
unknown

>  <arkane_path>  (3) 
/home/calvin/Dropbox/PersonalFolders/Calvin/HAb_Converged/rxn_1510/output/rxns/TS0/arkane/output.py

>  <path_exists>  (3) 
True

>  <E0_value>  (3) 
-3214430.0

>  <E0_units>  (3) 
kJ/mol

>  <thermo_class>  (3) 
unknown

>  <Cp0_value>  (3) 
unknown

>  <Cp0_units>  (3) 
unknown

>  <CpInf_value>  (3) 
unknown

>  <CpInf_units>  (3) 
unknown

>  <Tmin_value>  (3) 
unknown

>  <Tmin_units>  (3) 
unknown

>  <Tmax_value>  (3) 
unknown

>  <Tmax_units>  (3) 
unknown

>  <polynomials>  (3) 
unknown

>  <H298_value>  (3) 
unknown

>  <H298_units>  (3) 
unknown

>  <S298_value>  (3) 
unknown

>  <S298_units>  (3) 
unknown

>  <Cp_T_value_list>  (3) 
unknown

>  <Cp_T_units>  (3) 
unknown

>  <T_list>  (3) 
unknown

>  <T_units>  (3) 
unknown

>  <yaml_path>  (3) 
unknown

>  <frequencies_cm1>  (3) 
unknown

>  <ZPE_kJmol>  (3) 
unknown

>  <E_elec_kJmol>  (3) 
unknown

>  <E0_minus_Eelec_plus_ZPE_kJmol>  (3) 
unknown

>  <rxn>  (3) 
unknown

>  <species_type>  (3) 
unknown

>  <species_folder>  (3) 
unknown

>  <frequencies_cm1_list>  (3) 
[]

>  <ts_imag_freq_cm1>  (3) 
-1516.3409

>  <ts_freq_out_path>  (3) 
/home/calvin/Dropbox/PersonalFolders/Calvin/HAb_Converged/rxn_1510/output/rxns/TS0/geometry/freq.out

>  <E0_kJmol>  (3) 
-3.21443e+06

>  <H298_kJmol>  (3) 
unknown

$$$$

     RDKit          3D

 17 17  0  0  0  0  0  0  0  0999 V2000
    2.7069    0.2860   -0.1817 C   0  0  0  0  0  0  0  0  0  1  0  0
    1.6304   -0.7245    0.0085 C   0  0  0  0  0  0  0  0  0  2  0  0
    1.4786   -1.8800   -0.7837 C   0  0  0  0  0  0  0  0  0  3  0  0
    0.4231   -2.7891   -0.5312 C   0  0  0  0  0  3  0  0  0  4  0  0
    0.2582   -3.9235   -1.2940 C   0  0  0  0  0  0  0  0  0  5  0  0
    1.1348   -4.2030   -2.3401 C   0  0  0  0  0  0  0  0  0  6  0  0
    2.1804   -3.3260   -2.6093 C   0  0  0  0  0  0  0  0  0  7  0  0
    2.3549   -2.1866   -1.8513 C   0  0  0  0  0  0  0  0  0  8  0  0
    2.6698    0.7343   -1.1808 H   0  0  0  0  0  0  0  0  0  9  0  0
    3.7029   -0.1584   -0.0766 H   0  0  0  0  0  0  0  0  0 10  0  0
    2.6250    1.0917    0.5463 H   0  0  0  0  0  0  0  0  0 11  0  0
    0.9136   -0.5677    0.8059 H   0  0  0  0  0  0  0  0  0 12  0  0
   -0.2629   -2.5783    0.2811 H   0  0  0  0  0  0  0  0  0 13  0  0
   -0.5582   -4.6017   -1.0785 H   0  0  0  0  0  0  0  0  0 14  0  0
    1.0033   -5.0952   -2.9384 H   0  0  0  0  0  0  0  0  0 15  0  0
    2.8650   -3.5382   -3.4214 H   0  0  0  0  0  0  0  0  0 16  0  0
    3.1750   -1.5169   -2.0772 H   0  0  0  0  0  0  0  0  0 17  0  0
  1 10  1  0
  1 11  1  0
  1  9  1  0
  1  2  1  0
  2 12  1  0
  2  3  1  0
  3  4  1  0
  3  8  1  0
  4  5  1  0
  4 13  1  0
  5 14  1  0
  5  6  1  0
  6 15  1  0
  6  7  1  0
  7  8  1  0
  7 16  1  0
  8 17  1  0
M  RAD  1   4   2
M  END
>  <rmg_smiles>  (4) 
C[CH]C1[CH][CH][CH][CH][CH]1

>  <rmg_adjacency_list>  (4) 
multiplicity 2
1  C u0 p0 c0 {3,S} {9,S} {10,S} {11,S}
2  C u0 p0 c0 {3,S} {4,S} {5,S}
3  C u0 p0 c0 {1,S} {2,S} {12,S}
4  C u1 p0 c0 {2,S} {6,S} {13,S}
5  C u0 p0 c0 {2,S} {8,S} {17,S}
6  C u0 p0 c0 {4,S} {7,S} {14,S}
7  C u0 p0 c0 {6,S} {8,S} {15,S}
8  C u0 p0 c0 {5,S} {7,S} {16,S}
9  H u0 p0 c0 {1,S}
10 H u0 p0 c0 {1,S}
11 H u0 p0 c0 {1,S}
12 H u0 p0 c0 {3,S}
13 H u0 p0 c0 {4,S}
14 H u0 p0 c0 {6,S}
15 H u0 p0 c0 {7,S}
16 H u0 p0 c0 {8,S}
17 H u0 p0 c0 {5,S}


>  <multiplicity>  (4) 
2

>  <reaction>  (4) 
rxn_1510

>  <type>  (4) 
r1

>  <role_mapnums>  (4) 
{}

>  <role_mapidx>  (4) 
{}

>  <ordered_mapped_smiles>  (4) 
[C:1]([CH:2]([CH:3]1[C:4]([H:13])[CH:5]([H:14])[CH:6]([H:15])[CH:7]([H:16])[CH:8]1[H:17])[H:12])([H:9])([H:10])[H:11]

>  <level_of_theory>  (4) 
wb97xd/def2tzvp

>  <lot_method>  (4) 
wb97xd

>  <lot_basis>  (4) 
def2tzvp

>  <spin_multiplicity>  (4) 
2.0

>  <optical_isomers>  (4) 
1.0

>  <modes>  (4) 
IdealGasTranslation(mass=(105.07, 'amu')),         NonlinearRotor(             inertia = ([100.906, 335.03, 432.828

>  <frequency_value>  (4) 
unknown

>  <frequency_units>  (4) 
unknown

>  <frequency_list>  (4) 
unknown

>  <arkane_path>  (4) 
/home/calvin/Dropbox/PersonalFolders/Calvin/HAb_Converged/rxn_1510/output/Species/rxn_1510_C[CH]c1ccccc1/arkane/output.py

>  <path_exists>  (4) 
True

>  <E0_value>  (4) 
-814145.4390471868

>  <E0_units>  (4) 
kJ/mol

>  <thermo_class>  (4) 
NASA

>  <Cp0_value>  (4) 
33.257888

>  <Cp0_units>  (4) 
J/(mol*K)

>  <CpInf_value>  (4) 
407.409128

>  <CpInf_units>  (4) 
J/(mol*K)

>  <Tmin_value>  (4) 
10.0

>  <Tmin_units>  (4) 
K

>  <Tmax_value>  (4) 
3000.0

>  <Tmax_units>  (4) 
K

>  <polynomials>  (4) 
[{"name": "polynomial1", "class": "NASAPolynomial", "Tmin_value": 10.0, "Tmin_units": "K", "Tmax_value": 500.0181965945725, "Tmax_units": "K", "coeffs": [3.899986948526094, 0.0061904905300886525, 0.00020706851194563026, -3.977105955988957e-07, 2.4150499526027994e-10, -97919075.07363199, 12.718849532292747]}, {"name": "polynomial2", "class": "NASAPolynomial", "Tmin_value": 500.0181965945725, "Tmin_units": "K", "Tmax_value": 3000.0, "Tmax_units": "K", "coeffs": [-1.970517894513406, 0.07180867834424715, -4.574442536416197e-05, 1.397905514411292e-08, -1.6399820111971568e-12, -97918721.21698426, 34.639664550558976]}]

>  <H298_value>  (4) 
-194580.26959244045

>  <H298_units>  (4) 
kcal/mol

>  <S298_value>  (4) 
85.3392210607043

>  <S298_units>  (4) 
cal/(mol*K)

>  <Cp_T_value_list>  (4) 
[31.02288591619177, 40.21349792515304, 47.9763276039249, 54.55603245481067, 64.9529019753296, 72.39951333986244, 82.85547162555633, 87.95746847782826, 90.85152645234143]

>  <Cp_T_units>  (4) 
cal/(mol*K)

>  <T_list>  (4) 
[300.0, 400.0, 500.0, 600.0, 800.0, 1000.0, 1500.0, 2000.0, 2400.0]

>  <T_units>  (4) 
K

>  <yaml_path>  (4) 
/home/calvin/Dropbox/PersonalFolders/Calvin/HAb_Converged/rxn_1510/output/Species/rxn_1510_C[CH]c1ccccc1/rxn_1510_CCHc1ccccc1.yml

>  <frequencies_cm1>  (4) 
[105.45629355923998, 120.83147369072, 216.25510169744, 238.46979920763997, 411.38735655056, 430.68358529975995, 477.9078433454, 558.86273328288, 625.17721051812, 625.35575213644, 690.24189642512, 769.39763620876, 797.72395065376, 833.5833479948, 901.31929119128, 970.7101778498799, 980.6055036959999, 988.6055415938, 1000.11460899012, 1025.94134077864, 1044.8942202618398, 1074.80680831576, 1128.88431771076, 1167.6621838128, 1182.4262022508, 1237.72603503276, 1316.38048488804, 1342.4681621187199, 1389.5344795019998, 1422.2556645518, 1466.88420214648, 1475.4885347524398, 1484.7520979491198, 1503.6912434616797, 1594.2805138031197, 1610.7269436445201, 2982.0364441072397, 3025.80660853692, 3101.1374374973198, 3147.482721422, 3152.804635045, 3154.61751916948, 3165.4673559750795, 3173.5635316673593, 3183.0811733208798]

>  <ZPE_kJmol>  (4) 
372.6218456560276

>  <E_elec_kJmol>  (4) 
-814518.0608928428

>  <E0_minus_Eelec_plus_ZPE_kJmol>  (4) 
0.0

>  <rxn>  (4) 
rxn_1510

>  <species_type>  (4) 
p1

>  <species_folder>  (4) 
rxn_1510_C[CH]c1ccccc1

>  <frequencies_cm1_list>  (4) 
[105.45629355923998, 120.83147369072, 216.25510169744, 238.46979920763997, 411.38735655056, 430.68358529975995, 477.9078433454, 558.86273328288, 625.17721051812, 625.35575213644, 690.24189642512, 769.39763620876, 797.72395065376, 833.5833479948, 901.31929119128, 970.7101778498799, 980.6055036959999, 988.6055415938, 1000.11460899012, 1025.94134077864, 1044.8942202618398, 1074.80680831576, 1128.88431771076, 1167.6621838128, 1182.4262022508, 1237.72603503276, 1316.38048488804, 1342.4681621187199, 1389.5344795019998, 1422.2556645518, 1466.88420214648, 1475.4885347524398, 1484.7520979491198, 1503.6912434616797, 1594.2805138031197, 1610.7269436445201, 2982.0364441072397, 3025.80660853692, 3101.1374374973198, 3147.482721422, 3152.804635045, 3154.61751916948, 3165.4673559750795, 3173.5635316673593, 3183.0811733208798]

>  <E0_kJmol>  (4) 
-814145

>  <H298_kJmol>  (4) 
-814124

$$$$

     RDKit          3D

 10  9  0  0  0  0  0  0  0  0999 V2000
   -1.3354   -0.2069    0.0525 C   0  0  0  0  0  0  0  0  0  1  0  0
    0.0851    0.2624    0.0266 C   0  0  0  0  0  0  0  0  0  2  0  0
    0.4841    1.3876    0.7359 C   0  0  0  0  0  0  0  0  0  3  0  0
    2.0191    2.0303    0.8057 S   0  0  0  0  0  1  0  0  0  4  0  0
    1.1566   -0.6823   -0.9297 S   0  0  0  0  0  0  0  0  0  5  0  0
   -1.7589   -0.2174   -0.9545 H   0  0  0  0  0  0  0  0  0  6  0  0
   -1.4004   -1.2253    0.4427 H   0  0  0  0  0  0  0  0  0  7  0  0
   -1.9442    0.4442    0.6783 H   0  0  0  0  0  0  0  0  0  8  0  0
   -0.3073    1.8814    1.2951 H   0  0  0  0  0  0  0  0  0  9  0  0
    2.2383    0.0827   -0.6554 H   0  0  0  0  0  0  0  0  0 10  0  0
  1  8  1  0
  1  7  1  0
  1  6  1  0
  1  2  1  0
  2  5  1  0
  2  3  1  0
  3  9  1  0
  3  4  1  0
  5 10  1  0
M  RAD  1   4   2
M  END
>  <rmg_smiles>  (5) 
[S][CH][C](S)C

>  <rmg_adjacency_list>  (5) 
multiplicity 2
1  S u0 p2 c0 {4,S} {10,S}
2  S u1 p2 c0 {5,S}
3  C u0 p0 c0 {4,S} {6,S} {7,S} {8,S}
4  C u0 p0 c0 {1,S} {3,S} {5,S}
5  C u0 p0 c0 {2,S} {4,S} {9,S}
6  H u0 p0 c0 {3,S}
7  H u0 p0 c0 {3,S}
8  H u0 p0 c0 {3,S}
9  H u0 p0 c0 {5,S}
10 H u0 p0 c0 {1,S}


>  <multiplicity>  (5) 
2

>  <reaction>  (5) 
rxn_1510

>  <type>  (5) 
r2

>  <role_mapnums>  (5) 
{}

>  <role_mapidx>  (5) 
{}

>  <ordered_mapped_smiles>  (5) 
[C:1]([CH:2]([CH:3]([S:4])[H:9])[S:5][H:10])([H:6])([H:7])[H:8]

>  <level_of_theory>  (5) 
wb97xd/def2tzvp

>  <lot_method>  (5) 
wb97xd

>  <lot_basis>  (5) 
def2tzvp

>  <spin_multiplicity>  (5) 
2.0

>  <optical_isomers>  (5) 
1.0

>  <modes>  (5) 
IdealGasTranslation(mass=(104.983, 'amu')),         NonlinearRotor(             inertia = ([100.49, 235.605, 332.975

>  <frequency_value>  (5) 
unknown

>  <frequency_units>  (5) 
unknown

>  <frequency_list>  (5) 
unknown

>  <arkane_path>  (5) 
/home/calvin/Dropbox/PersonalFolders/Calvin/HAb_Converged/rxn_1510/output/Species/rxn_1510_C[C][C=S]S/arkane/output.py

>  <path_exists>  (5) 
True

>  <E0_value>  (5) 
-2398728.4301470886

>  <E0_units>  (5) 
kJ/mol

>  <thermo_class>  (5) 
NASA

>  <Cp0_value>  (5) 
33.257888

>  <Cp0_units>  (5) 
J/(mol*K)

>  <CpInf_value>  (5) 
232.805216

>  <CpInf_units>  (5) 
J/(mol*K)

>  <Tmin_value>  (5) 
10.0

>  <Tmin_units>  (5) 
K

>  <Tmax_value>  (5) 
3000.0

>  <Tmax_units>  (5) 
K

>  <polynomials>  (5) 
[{"name": "polynomial1", "class": "NASAPolynomial", "Tmin_value": 10.0, "Tmin_units": "K", "Tmax_value": 174.01726113942388, "Tmax_units": "K", "coeffs": [3.9082014614847895, 0.009872915439602193, 0.0002057584614251195, -8.728618456878904e-07, 1.263986644581055e-09, -288500402.10474426, 11.702702284946598]}, {"name": "polynomial2", "class": "NASAPolynomial", "Tmin_value": 174.01726113942388, "Tmin_units": "K", "Tmax_value": 3000.0, "Tmax_units": "K", "coeffs": [2.7483218276330854, 0.03653436950450788, -2.4060579297723113e-05, 7.590116446699495e-09, -9.145171304727525e-13, -288500361.7372306, 15.270275939437306]}]

>  <H298_value>  (5) 
-573305.3360940289

>  <H298_units>  (5) 
kcal/mol

>  <S298_value>  (5) 
81.10142956929253

>  <S298_units>  (5) 
cal/(mol*K)

>  <Cp_T_value_list>  (5) 
[23.331207482754937, 27.77067978154661, 31.580624091189616, 34.831911972780674, 39.92019668355091, 43.51527435205942, 48.488777974072114, 50.99847756573189, 52.51423316121439]

>  <Cp_T_units>  (5) 
cal/(mol*K)

>  <T_list>  (5) 
[300.0, 400.0, 500.0, 600.0, 800.0, 1000.0, 1500.0, 2000.0, 2400.0]

>  <T_units>  (5) 
K

>  <yaml_path>  (5) 
/home/calvin/Dropbox/PersonalFolders/Calvin/HAb_Converged/rxn_1510/output/Species/rxn_1510_C[C][C=S]S/rxn_1510_CCC=SS.yml

>  <frequencies_cm1>  (5) 
[87.10770878419999, 202.9537511326, 210.78211439739997, 327.18438255672, 442.76261247763995, 467.34641992324003, 480.1258796037599, 647.00048986508, 830.9944945291601, 879.7157553745599, 933.5735212393199, 1024.4992738614399, 1031.5035988878399, 1155.4389499432, 1323.3985438850798, 1397.47958151724, 1408.19207861644, 1459.59833072196, 1480.63877374244, 2543.7099041463202, 3014.00912775716, 3075.6540549747997, 3103.56148331528, 3112.8731154092]

>  <ZPE_kJmol>  (5) 
183.26857293928828

>  <E_elec_kJmol>  (5) 
-2398911.698720028

>  <E0_minus_Eelec_plus_ZPE_kJmol>  (5) 
0.0

>  <rxn>  (5) 
rxn_1510

>  <species_type>  (5) 
r0

>  <species_folder>  (5) 
rxn_1510_C[C][C=S]S

>  <frequencies_cm1_list>  (5) 
[87.10770878419999, 202.9537511326, 210.78211439739997, 327.18438255672, 442.76261247763995, 467.34641992324003, 480.1258796037599, 647.00048986508, 830.9944945291601, 879.7157553745599, 933.5735212393199, 1024.4992738614399, 1031.5035988878399, 1155.4389499432, 1323.3985438850798, 1397.47958151724, 1408.19207861644, 1459.59833072196, 1480.63877374244, 2543.7099041463202, 3014.00912775716, 3075.6540549747997, 3103.56148331528, 3112.8731154092]

>  <E0_kJmol>  (5) 
-2.39873e+06

>  <H298_kJmol>  (5) 
-2.39871e+06

$$$$
