
     RDKit          3D

 10  9  0  0  0  0  0  0  0  0999 V2000
   -0.0530   -0.8193   -1.4277 C   0  0  0  0  0  0  0  0  0  1  0  0
    0.2444   -0.8913    0.0555 C   0  0  0  0  0  0  0  0  0  2  0  0
    0.5207    0.3791    0.6358 O   0  0  0  0  0  0  0  0  0  3  0  0
   -0.6369    1.1196    0.7011 O   0  0  0  0  0  0  0  0  0  4  0  0
    0.7671   -0.3413   -1.9672 H   0  0  0  0  0  0  0  0  0  5  0  0
   -0.1774   -1.8273   -1.8268 H   0  0  0  0  0  0  0  0  0  6  0  0
   -0.9734   -0.2678   -1.6189 H   0  0  0  0  0  0  0  0  0  7  0  0
    1.1563   -1.4604    0.2472 H   0  0  0  0  0  0  0  0  0  8  0  0
   -0.5801   -1.3541    0.6033 H   0  0  0  0  0  0  0  0  0  9  0  0
   -0.6304    1.6708   -0.0849 H   0  0  0  0  0  0  0  0  0 10  0  0
  1  5  1  0
  1  7  1  0
  1  6  1  0
  1  2  1  0
  2  9  1  0
  2  8  1  0
  2  3  1  0
  3  4  1  0
  4 10  1  0
M  END
>  <rmg_smiles>  (1) 
CCOO

>  <rmg_adjacency_list>  (1) 
1  O u0 p2 c0 {2,S} {3,S}
2  O u0 p2 c0 {1,S} {10,S}
3  C u0 p0 c0 {1,S} {4,S} {5,S} {6,S}
4  C u0 p0 c0 {3,S} {7,S} {8,S} {9,S}
5  H u0 p0 c0 {3,S}
6  H u0 p0 c0 {3,S}
7  H u0 p0 c0 {4,S}
8  H u0 p0 c0 {4,S}
9  H u0 p0 c0 {4,S}
10 H u0 p0 c0 {2,S}


>  <multiplicity>  (1) 
1

>  <reaction>  (1) 
rxn_456

>  <type>  (1) 
r1h

>  <role_mapnums>  (1) 
{"r1h_a": 4, "r1h_h": 10}

>  <role_mapidx>  (1) 
{"r1h_a": 3, "r1h_h": 9}

>  <ordered_mapped_smiles>  (1) 
[C:1]([C:2]([O:3][O:4][H:10])([H:8])[H:9])([H:5])([H:6])[H:7]

>  <mol_properties>  (1) 
{"3": {"label": "donator", "atom_type": "O2s"}, "9": {"label": "d_hydrogen", "atom_type": "H0"}}

>  <level_of_theory>  (1) 
wb97xd/def2tzvp

>  <lot_method>  (1) 
wb97xd

>  <lot_basis>  (1) 
def2tzvp

>  <spin_multiplicity>  (1) 
1.0

>  <optical_isomers>  (1) 
2.0

>  <modes>  (1) 
IdealGasTranslation(mass=(62.0368, 'amu')),         NonlinearRotor(             inertia = ([31.901, 90.8076, 107.715

>  <frequency_value>  (1) 
unknown

>  <frequency_units>  (1) 
unknown

>  <frequency_list>  (1) 
unknown

>  <arkane_path>  (1) 
/home/calvin/Dropbox/PersonalFolders/Calvin/HAb_Converged/rxn_456/output/Species/rxn_456_CCOO/arkane/output.py

>  <path_exists>  (1) 
True

>  <E0_value>  (1) 
-604159.1399942553

>  <E0_units>  (1) 
kJ/mol

>  <thermo_class>  (1) 
NASA

>  <Cp0_value>  (1) 
33.257888

>  <Cp0_units>  (1) 
J/(mol*K)

>  <CpInf_value>  (1) 
232.805216

>  <CpInf_units>  (1) 
J/(mol*K)

>  <Tmin_value>  (1) 
10.0

>  <Tmin_units>  (1) 
K

>  <Tmax_value>  (1) 
3000.0

>  <Tmax_units>  (1) 
K

>  <polynomials>  (1) 
[{"name": "polynomial1", "class": "NASAPolynomial", "Tmin_value": 10.0, "Tmin_units": "K", "Tmax_value": 514.1724528691229, "Tmax_units": "K", "coeffs": [3.8336344453475952, 0.01409920805556482, 3.6898200657499844e-05, -6.719543334122714e-08, 3.4675594662751285e-11, -72663558.31922284, 9.308822818089814]}, {"name": "polynomial2", "class": "NASAPolynomial", "Tmin_value": 514.1724528691229, "Tmin_units": "K", "Tmax_value": 3000.0, "Tmax_units": "K", "coeffs": [1.3693904641168975, 0.03326945732933675, -1.9026424691886852e-05, 5.314229938719563e-09, -5.793438015673505e-13, -72663304.90578787, 19.558209403678077]}]

>  <H298_value>  (1) 
-144393.56525281267

>  <H298_units>  (1) 
kcal/mol

>  <S298_value>  (1) 
72.46335512166218

>  <S298_units>  (1) 
cal/(mol*K)

>  <Cp_T_value_list>  (1) 
[19.57563448442731, 23.775370322495604, 27.573651000165018, 30.909690897198878, 36.349248100438004, 40.434305196144955, 46.63321645179998, 49.77345201242097, 51.402195377068814]

>  <Cp_T_units>  (1) 
cal/(mol*K)

>  <T_list>  (1) 
[300.0, 400.0, 500.0, 600.0, 800.0, 1000.0, 1500.0, 2000.0, 2400.0]

>  <T_units>  (1) 
K

>  <yaml_path>  (1) 
/home/calvin/Dropbox/PersonalFolders/Calvin/HAb_Converged/rxn_456/output/Species/rxn_456_CCOO/rxn_456_CCOO.yml

>  <frequencies_cm1>  (1) 
[154.28742616975998, 228.43026666979998, 261.43299811772, 369.51934705452, 514.6187468661199, 797.28446359328, 876.7972866135599, 960.7324481799199, 1074.19564662228, 1109.30654256344, 1184.9807207898398, 1309.68517420104, 1375.6013662877199, 1383.9378864661999, 1404.4289706610798, 1467.1588815592797, 1474.3280142333601, 1493.5349721733999, 3013.8580540801195, 3020.84177815056, 3069.0136801703593, 3096.50908939164, 3107.0911137697603, 3784.1071964685593]

>  <ZPE_kJmol>  (1) 
218.50804592085709

>  <E_elec_kJmol>  (1) 
-604377.6480401761

>  <E0_minus_Eelec_plus_ZPE_kJmol>  (1) 
0.0

>  <rxn>  (1) 
rxn_456

>  <species_type>  (1) 
r0

>  <species_folder>  (1) 
rxn_456_CCOO

>  <frequencies_cm1_list>  (1) 
[154.28742616975998, 228.43026666979998, 261.43299811772, 369.51934705452, 514.6187468661199, 797.28446359328, 876.7972866135599, 960.7324481799199, 1074.19564662228, 1109.30654256344, 1184.9807207898398, 1309.68517420104, 1375.6013662877199, 1383.9378864661999, 1404.4289706610798, 1467.1588815592797, 1474.3280142333601, 1493.5349721733999, 3013.8580540801195, 3020.84177815056, 3069.0136801703593, 3096.50908939164, 3107.0911137697603, 3784.1071964685593]

>  <E0_kJmol>  (1) 
-604159

>  <H298_kJmol>  (1) 
-604143

$$$$

     RDKit          3D

  7  6  0  0  0  0  0  0  0  0999 V2000
   -0.3881   -0.8606    1.1317 H   0  0  0  0  0  0  0  0  0  1  0  0
    1.2022    0.3038    0.3087 C   0  0  0  0  0  0  0  0  0  2  0  0
   -0.1962   -0.2379    0.2580 C   0  0  0  0  0  0  0  0  0  3  0  0
   -1.0184   -0.0684   -0.5737 O   0  0  0  0  0  0  0  0  0  4  0  0
    1.2687    0.9736    1.1684 H   0  0  0  0  0  0  0  0  0  5  0  0
    1.8903   -0.5207    0.4973 H   0  0  0  0  0  0  0  0  0  6  0  0
    1.4513    0.8307   -0.6112 H   0  0  0  0  0  0  0  0  0  7  0  0
  1  3  1  0
  2  7  1  0
  2  5  1  0
  2  6  1  0
  2  3  1  0
  3  4  1  0
M  END
>  <rmg_smiles>  (2) 
C[CH]O

>  <rmg_adjacency_list>  (2) 
1 O u0 p2 c0 {3,S}
2 C u0 p0 c0 {3,S} {4,S} {5,S} {6,S}
3 C u0 p0 c0 {1,S} {2,S} {7,S}
4 H u0 p0 c0 {2,S}
5 H u0 p0 c0 {2,S}
6 H u0 p0 c0 {2,S}
7 H u0 p0 c0 {3,S}


>  <multiplicity>  (2) 
1

>  <reaction>  (2) 
rxn_456

>  <type>  (2) 
r2h

>  <role_mapnums>  (2) 
{"r2h_a": 3, "r2h_h": 1}

>  <role_mapidx>  (2) 
{"r2h_a": 2, "r2h_h": 0}

>  <ordered_mapped_smiles>  (2) 
[H:1][CH:3]([C:2]([H:5])([H:6])[H:7])[OH:4]

>  <mol_properties>  (2) 
{"0": {"label": "a_hydrogen", "atom_type": "H0"}, "2": {"label": "acceptor", "atom_type": "Cs"}}

>  <level_of_theory>  (2) 
wb97xd/def2tzvp

>  <lot_method>  (2) 
wb97xd

>  <lot_basis>  (2) 
def2tzvp

>  <spin_multiplicity>  (2) 
1.0

>  <optical_isomers>  (2) 
1.0

>  <modes>  (2) 
IdealGasTranslation(mass=(44.0262, 'amu')),         NonlinearRotor(             inertia = ([8.78933, 49.4181, 55.1019

>  <frequency_value>  (2) 
unknown

>  <frequency_units>  (2) 
unknown

>  <frequency_list>  (2) 
unknown

>  <arkane_path>  (2) 
/home/calvin/Dropbox/PersonalFolders/Calvin/HAb_Converged/rxn_456/output/Species/rxn_456_CC=O/arkane/output.py

>  <path_exists>  (2) 
True

>  <E0_value>  (2) 
-403770.1896465916

>  <E0_units>  (2) 
kJ/mol

>  <thermo_class>  (2) 
NASA

>  <Cp0_value>  (2) 
33.257888

>  <Cp0_units>  (2) 
J/(mol*K)

>  <CpInf_value>  (2) 
157.97496800000002

>  <CpInf_units>  (2) 
J/(mol*K)

>  <Tmin_value>  (2) 
10.0

>  <Tmin_units>  (2) 
K

>  <Tmax_value>  (2) 
3000.0

>  <Tmax_units>  (2) 
K

>  <polynomials>  (2) 
[{"name": "polynomial1", "class": "NASAPolynomial", "Tmin_value": 10.0, "Tmin_units": "K", "Tmax_value": 551.7368857165849, "Tmax_units": "K", "coeffs": [3.97507673873536, 0.0013024114860969774, 4.26202346281644e-05, -6.20396934088937e-08, 2.909703548783593e-11, -48562335.21276312, 7.1115196041382465]}, {"name": "polynomial2", "class": "NASAPolynomial", "Tmin_value": 551.7368857165849, "Tmin_units": "K", "Tmax_value": 3000.0, "Tmax_units": "K", "coeffs": [1.253916366948188, 0.02103096863478627, -1.101717280527888e-05, 2.7726483449040734e-09, -2.712718236361615e-13, -48562034.9489899, 18.621232079227195]}]

>  <H298_value>  (2) 
-96500.38809812289

>  <H298_units>  (2) 
kcal/mol

>  <S298_value>  (2) 
62.69347809778407

>  <S298_units>  (2) 
cal/(mol*K)

>  <Cp_T_value_list>  (2) 
[13.437958478765879, 16.075750628949308, 18.57033382696412, 20.8061525224228, 24.51454443177339, 27.362022612100347, 31.78756397344111, 33.95738468130023, 34.97139336232206]

>  <Cp_T_units>  (2) 
cal/(mol*K)

>  <T_list>  (2) 
[300.0, 400.0, 500.0, 600.0, 800.0, 1000.0, 1500.0, 2000.0, 2400.0]

>  <T_units>  (2) 
K

>  <yaml_path>  (2) 
/home/calvin/Dropbox/PersonalFolders/Calvin/HAb_Converged/rxn_456/output/Species/rxn_456_CC=O/rxn_456_CC=O.yml

>  <frequencies_cm1>  (2) 
[154.22562330188, 509.85992603936, 771.9521547477999, 887.042828711, 1124.5718509298, 1132.0911998551999, 1368.1506872155198, 1416.2127174702, 1447.6566432504799, 1456.3502466656, 1831.5073886678397, 2863.5603463812795, 3014.3936789350796, 3081.3536527904, 3132.28608290884]

>  <ZPE_kJmol>  (2) 
144.69564018265137

>  <E_elec_kJmol>  (2) 
-403914.8852867742

>  <E0_minus_Eelec_plus_ZPE_kJmol>  (2) 
0.0

>  <rxn>  (2) 
rxn_456

>  <species_type>  (2) 
p0

>  <species_folder>  (2) 
rxn_456_CC=O

>  <frequencies_cm1_list>  (2) 
[154.22562330188, 509.85992603936, 771.9521547477999, 887.042828711, 1124.5718509298, 1132.0911998551999, 1368.1506872155198, 1416.2127174702, 1447.6566432504799, 1456.3502466656, 1831.5073886678397, 2863.5603463812795, 3014.3936789350796, 3081.3536527904, 3132.28608290884]

>  <E0_kJmol>  (2) 
-403770

>  <H298_kJmol>  (2) 
-403758

$$$$

     RDKit          3D

 16 14  0  0  0  0  0  0  0  0999 V2000
    0.1378   -2.1046   -0.8282 C   0  0  0  0  0  0  0  0  0  1  0  0
    0.4352   -2.1766    0.6551 C   0  0  0  0  0  0  0  0  0  2  0  0
    0.7114   -0.9063    1.2354 O   0  0  0  0  0  0  0  0  0  3  0  0
   -0.4461   -0.1657    1.3007 O   0  0  0  0  0  0  0  0  0  4  0  0
    0.9579   -1.6266   -1.3677 H   0  0  0  0  0  0  0  0  0  5  0  0
    0.0133   -3.1126   -1.2273 H   0  0  0  0  0  0  0  0  0  6  0  0
   -0.7827   -1.5531   -1.0194 H   0  0  0  0  0  0  0  0  0  7  0  0
    1.3470   -2.7457    0.8468 H   0  0  0  0  0  0  0  0  0  8  0  0
   -0.3893   -2.6394    1.2029 H   0  0  0  0  0  0  0  0  0  9  0  0
   -0.4377    0.5485    0.2821 H   0  0  0  0  0  0  0  0  0 10  0  0
    1.1902    1.8350   -0.7121 C   0  0  0  0  0  0  0  0  0 11  0  0
   -0.2082    1.2932   -0.7628 C   0  0  0  0  0  3  0  0  0 12  0  0
   -1.0304    1.4627   -1.5945 O   0  0  0  0  0  0  0  0  0 13  0  0
    1.2567    2.5047    0.1476 H   0  0  0  0  0  0  0  0  0 14  0  0
    1.8782    1.0104   -0.5235 H   0  0  0  0  0  0  0  0  0 15  0  0
    1.4393    2.3618   -1.6320 H   0  0  0  0  0  0  0  0  0 16  0  0
  1  5  1  0
  1  7  1  0
  1  6  1  0
  1  2  1  0
  2  9  1  0
  2  8  1  0
  2  3  1  0
  3  4  1  0
  4 10  1  0
 11 14  1  0
 11 12  1  0
 11 16  1  0
 11 15  1  0
 12 13  1  0
M  RAD  1  12   2
M  END
>  <rmg_smiles>  (3) 
CCOO.C[C]O

>  <rmg_adjacency_list>  (3) 
multiplicity 2
1  O u0 p2 c0 {2,S} {4,S}
2  O u0 p2 c0 {1,S} {16,S}
3  O u0 p2 c0 {7,S}
4  C u0 p0 c0 {1,S} {5,S} {8,S} {9,S}
5  C u0 p0 c0 {4,S} {10,S} {11,S} {12,S}
6  C u0 p0 c0 {7,S} {13,S} {14,S} {15,S}
7  C u1 p1 c0 {3,S} {6,S}
8  H u0 p0 c0 {4,S}
9  H u0 p0 c0 {4,S}
10 H u0 p0 c0 {5,S}
11 H u0 p0 c0 {5,S}
12 H u0 p0 c0 {5,S}
13 H u0 p0 c0 {6,S}
14 H u0 p0 c0 {6,S}
15 H u0 p0 c0 {6,S}
16 H u0 p0 c0 {2,S}


>  <multiplicity>  (3) 
2

>  <reaction>  (3) 
rxn_456

>  <type>  (3) 
ts

>  <role_mapnums>  (3) 
{"*2": 10, "*1": 4, "*3": 12, "*0": 3, "*4": 13}

>  <role_mapidx>  (3) 
{"*2": 9, "*1": 3, "*3": 11, "*0": 2, "*4": 12}

>  <ordered_mapped_smiles>  (3) 
[C:1]([C:2]([O:3][O:4][H:10])([H:8])[H:9])([H:5])([H:6])[H:7].[C:11]([CH:12][OH:13])([H:14])([H:15])[H:16]

>  <mol_properties>  (3) 
{"2": {"label": "*0", "atom_type": "O2s"}, "3": {"label": "*1", "atom_type": "O2s"}, "9": {"label": "*2", "atom_type": "H0"}, "11": {"label": "*3", "atom_type": "C2s"}, "12": {"label": "*4", "atom_type": "O2s"}}

>  <level_of_theory>  (3) 
wb97xd/def2tzvp

>  <lot_method>  (3) 
wb97xd

>  <lot_basis>  (3) 
def2tzvp

>  <spin_multiplicity>  (3) 
2.0

>  <optical_isomers>  (3) 
2.0

>  <modes>  (3) 
IdealGasTranslation(mass=(105.055, 'amu')),         NonlinearRotor(             inertia = ([140.979, 354.953, 394.147

>  <frequency_value>  (3) 
-1823.28

>  <frequency_units>  (3) 
cm^-1

>  <frequency_list>  (3) 
unknown

>  <arkane_path>  (3) 
/home/calvin/Dropbox/PersonalFolders/Calvin/HAb_Converged/rxn_456/output/rxns/TS0/arkane/output.py

>  <path_exists>  (3) 
True

>  <E0_value>  (3) 
-1006230.0

>  <E0_units>  (3) 
kJ/mol

>  <thermo_class>  (3) 
unknown

>  <Cp0_value>  (3) 
unknown

>  <Cp0_units>  (3) 
unknown

>  <CpInf_value>  (3) 
unknown

>  <CpInf_units>  (3) 
unknown

>  <Tmin_value>  (3) 
unknown

>  <Tmin_units>  (3) 
unknown

>  <Tmax_value>  (3) 
unknown

>  <Tmax_units>  (3) 
unknown

>  <polynomials>  (3) 
unknown

>  <H298_value>  (3) 
unknown

>  <H298_units>  (3) 
unknown

>  <S298_value>  (3) 
unknown

>  <S298_units>  (3) 
unknown

>  <Cp_T_value_list>  (3) 
unknown

>  <Cp_T_units>  (3) 
unknown

>  <T_list>  (3) 
unknown

>  <T_units>  (3) 
unknown

>  <yaml_path>  (3) 
unknown

>  <frequencies_cm1>  (3) 
unknown

>  <ZPE_kJmol>  (3) 
unknown

>  <E_elec_kJmol>  (3) 
unknown

>  <E0_minus_Eelec_plus_ZPE_kJmol>  (3) 
unknown

>  <rxn>  (3) 
unknown

>  <species_type>  (3) 
unknown

>  <species_folder>  (3) 
unknown

>  <frequencies_cm1_list>  (3) 
[]

>  <ts_imag_freq_cm1>  (3) 
-1845.4244

>  <ts_freq_out_path>  (3) 
/home/calvin/Dropbox/PersonalFolders/Calvin/HAb_Converged/rxn_456/output/rxns/TS0/geometry/freq.out

>  <E0_kJmol>  (3) 
-1.00623e+06

>  <H298_kJmol>  (3) 
unknown

$$$$

     RDKit          3D

  9  8  0  0  0  0  0  0  0  0999 V2000
   -1.0711   -0.0249   -0.1013 C   0  0  0  0  0  0  0  0  0  1  0  0
    0.3810    0.2227    0.2319 C   0  0  0  0  0  0  0  0  0  2  0  0
    1.2537   -0.5858   -0.5916 O   0  0  0  0  0  0  0  0  0  3  0  0
    1.2869   -0.1577   -1.8179 O   0  0  0  0  0  1  0  0  0  4  0  0
   -1.3307   -1.0736    0.0458 H   0  0  0  0  0  0  0  0  0  5  0  0
   -1.2739    0.2494   -1.1360 H   0  0  0  0  0  0  0  0  0  6  0  0
   -1.7027    0.5823    0.5487 H   0  0  0  0  0  0  0  0  0  7  0  0
    0.6282   -0.0825    1.2487 H   0  0  0  0  0  0  0  0  0  8  0  0
    0.6664    1.2642    0.0812 H   0  0  0  0  0  0  0  0  0  9  0  0
  1  5  1  0
  1  7  1  0
  1  6  1  0
  1  2  1  0
  2  9  1  0
  2  8  1  0
  2  3  1  0
  3  4  1  0
M  RAD  1   4   2
M  END
>  <rmg_smiles>  (4) 
CCO[O]

>  <rmg_adjacency_list>  (4) 
multiplicity 2
1 O u0 p2 c0 {2,S} {3,S}
2 O u1 p2 c0 {1,S}
3 C u0 p0 c0 {1,S} {4,S} {5,S} {6,S}
4 C u0 p0 c0 {3,S} {7,S} {8,S} {9,S}
5 H u0 p0 c0 {3,S}
6 H u0 p0 c0 {3,S}
7 H u0 p0 c0 {4,S}
8 H u0 p0 c0 {4,S}
9 H u0 p0 c0 {4,S}


>  <multiplicity>  (4) 
2

>  <reaction>  (4) 
rxn_456

>  <type>  (4) 
r1

>  <role_mapnums>  (4) 
{}

>  <role_mapidx>  (4) 
{}

>  <ordered_mapped_smiles>  (4) 
[C:1]([C:2]([O:3][O:4])([H:8])[H:9])([H:5])([H:6])[H:7]

>  <level_of_theory>  (4) 
wb97xd/def2tzvp

>  <lot_method>  (4) 
wb97xd

>  <lot_basis>  (4) 
def2tzvp

>  <spin_multiplicity>  (4) 
2.0

>  <optical_isomers>  (4) 
2.0

>  <modes>  (4) 
IdealGasTranslation(mass=(61.029, 'amu')),         NonlinearRotor(             inertia = ([27.7829, 88.8965, 102.663

>  <frequency_value>  (4) 
unknown

>  <frequency_units>  (4) 
unknown

>  <frequency_list>  (4) 
unknown

>  <arkane_path>  (4) 
/home/calvin/Dropbox/PersonalFolders/Calvin/HAb_Converged/rxn_456/output/Species/rxn_456_CCO[O]/arkane/output.py

>  <path_exists>  (4) 
True

>  <E0_value>  (4) 
-602511.8781085239

>  <E0_units>  (4) 
kJ/mol

>  <thermo_class>  (4) 
NASA

>  <Cp0_value>  (4) 
33.257888

>  <Cp0_units>  (4) 
J/(mol*K)

>  <CpInf_value>  (4) 
207.8618

>  <CpInf_units>  (4) 
J/(mol*K)

>  <Tmin_value>  (4) 
10.0

>  <Tmin_units>  (4) 
K

>  <Tmax_value>  (4) 
3000.0

>  <Tmax_units>  (4) 
K

>  <polynomials>  (4) 
[{"name": "polynomial1", "class": "NASAPolynomial", "Tmin_value": 10.0, "Tmin_units": "K", "Tmax_value": 950.1424237548658, "Tmax_units": "K", "coeffs": [3.93765922994912, 0.011329033147355935, 2.6199527613739717e-05, -3.625004179756809e-08, 1.3200953900360137e-11, -72465444.0478557, 9.740040064378418]}, {"name": "polynomial2", "class": "NASAPolynomial", "Tmin_value": 950.1424237548658, "Tmin_units": "K", "Tmax_value": 3000.0, "Tmax_units": "K", "coeffs": [2.95347382330703, 0.02606524844560525, -1.3787814137392651e-05, 3.5408088403417233e-09, -3.5612287092533147e-13, -72465735.1724477, 11.921640741267124]}]

>  <H298_value>  (4) 
-144000.14047264186

>  <H298_units>  (4) 
kcal/mol

>  <S298_value>  (4) 
72.37182222319979

>  <S298_units>  (4) 
cal/(mol*K)

>  <Cp_T_value_list>  (4) 
[17.532135827912423, 21.221653753655907, 24.732498077384648, 27.915767518002156, 33.018772882433026, 36.595588316347445, 42.0813282665877, 44.83380097264623, 46.15306952223199]

>  <Cp_T_units>  (4) 
cal/(mol*K)

>  <T_list>  (4) 
[300.0, 400.0, 500.0, 600.0, 800.0, 1000.0, 1500.0, 2000.0, 2400.0]

>  <T_units>  (4) 
K

>  <yaml_path>  (4) 
/home/calvin/Dropbox/PersonalFolders/Calvin/HAb_Converged/rxn_456/output/Species/rxn_456_CCO[O]/rxn_456_CCOO.yml

>  <frequencies_cm1>  (4) 
[114.46577829907999, 233.80024919004, 364.78799416904, 536.9776510680399, 803.4578833959599, 860.8315457445599, 1009.6734525555598, 1096.83609722232, 1176.59613171412, 1240.8367793827201, 1309.47916464144, 1373.64427547152, 1402.22466837336, 1470.393231645, 1475.7906821065199, 1490.9804536343597, 3028.4572648704398, 3049.84105715692, 3100.7803542606794, 3107.8808170815596, 3123.9358287597197]

>  <ZPE_kJmol>  (4) 
187.64431906015267

>  <E_elec_kJmol>  (4) 
-602699.522427584

>  <E0_minus_Eelec_plus_ZPE_kJmol>  (4) 
0.0

>  <rxn>  (4) 
rxn_456

>  <species_type>  (4) 
p1

>  <species_folder>  (4) 
rxn_456_CCO[O]

>  <frequencies_cm1_list>  (4) 
[114.46577829907999, 233.80024919004, 364.78799416904, 536.9776510680399, 803.4578833959599, 860.8315457445599, 1009.6734525555598, 1096.83609722232, 1176.59613171412, 1240.8367793827201, 1309.47916464144, 1373.64427547152, 1402.22466837336, 1470.393231645, 1475.7906821065199, 1490.9804536343597, 3028.4572648704398, 3049.84105715692, 3100.7803542606794, 3107.8808170815596, 3123.9358287597197]

>  <E0_kJmol>  (4) 
-602512

>  <H298_kJmol>  (4) 
-602497

$$$$

     RDKit          3D

  6  5  0  0  0  0  0  0  0  0999 V2000
   -0.4556    0.0419   -0.0850 C   0  0  0  0  0  0  0  0  0  1  0  0
    0.9351    0.2849    0.4399 C   0  0  0  0  0  3  0  0  0  2  0  0
    1.9128   -0.3354    0.2428 O   0  0  0  0  0  0  0  0  0  3  0  0
   -1.1294   -0.0755    0.7639 H   0  0  0  0  0  0  0  0  0  4  0  0
   -0.7760    0.9264   -0.6360 H   0  0  0  0  0  0  0  0  0  5  0  0
   -0.4869   -0.8422   -0.7256 H   0  0  0  0  0  0  0  0  0  6  0  0
  1  5  1  0
  1  4  1  0
  1  6  1  0
  1  2  1  0
  2  3  1  0
M  RAD  1   2   2
M  END
>  <rmg_smiles>  (5) 
C[C]O

>  <rmg_adjacency_list>  (5) 
multiplicity 2
1 O u0 p2 c0 {3,S}
2 C u0 p0 c0 {3,S} {4,S} {5,S} {6,S}
3 C u1 p1 c0 {1,S} {2,S}
4 H u0 p0 c0 {2,S}
5 H u0 p0 c0 {2,S}
6 H u0 p0 c0 {2,S}


>  <multiplicity>  (5) 
2

>  <reaction>  (5) 
rxn_456

>  <type>  (5) 
r2

>  <role_mapnums>  (5) 
{}

>  <role_mapidx>  (5) 
{}

>  <ordered_mapped_smiles>  (5) 
[C:1]([CH:2][OH:3])([H:4])([H:5])[H:6]

>  <level_of_theory>  (5) 
wb97xd/def2tzvp

>  <lot_method>  (5) 
wb97xd

>  <lot_basis>  (5) 
def2tzvp

>  <spin_multiplicity>  (5) 
2.0

>  <optical_isomers>  (5) 
1.0

>  <modes>  (5) 
IdealGasTranslation(mass=(43.0184, 'amu')),         NonlinearRotor(             inertia = ([5.94606, 50.3608, 53.1944

>  <frequency_value>  (5) 
unknown

>  <frequency_units>  (5) 
unknown

>  <frequency_list>  (5) 
unknown

>  <arkane_path>  (5) 
/home/calvin/Dropbox/PersonalFolders/Calvin/HAb_Converged/rxn_456/output/Species/rxn_456_C[C]=O/arkane/output.py

>  <path_exists>  (5) 
True

>  <E0_value>  (5) 
-402090.6190215665

>  <E0_units>  (5) 
kJ/mol

>  <thermo_class>  (5) 
NASA

>  <Cp0_value>  (5) 
33.257888

>  <Cp0_units>  (5) 
J/(mol*K)

>  <CpInf_value>  (5) 
133.031552

>  <CpInf_units>  (5) 
J/(mol*K)

>  <Tmin_value>  (5) 
10.0

>  <Tmin_units>  (5) 
K

>  <Tmax_value>  (5) 
3000.0

>  <Tmax_units>  (5) 
K

>  <polynomials>  (5) 
[{"name": "polynomial1", "class": "NASAPolynomial", "Tmin_value": 10.0, "Tmin_units": "K", "Tmax_value": 427.9256911902668, "Tmax_units": "K", "coeffs": [3.8930136471132912, 0.012010158548068027, -3.467422657487797e-05, 1.0913232036961328e-07, -1.0189719248409202e-10, -48360330.77660788, 7.410472219253365]}, {"name": "polynomial2", "class": "NASAPolynomial", "Tmin_value": 427.9256911902668, "Tmin_units": "K", "Tmax_value": 3000.0, "Tmax_units": "K", "coeffs": [2.0197530655729623, 0.017179142954562323, -9.533718551637114e-06, 2.5721351733383334e-09, -2.7096150317793855e-13, -48360057.457400106, 16.178112662675886]}]

>  <H298_value>  (5) 
-96098.8740183852

>  <H298_units>  (5) 
kcal/mol

>  <S298_value>  (5) 
64.36669312154291

>  <S298_units>  (5) 
cal/(mol*K)

>  <Cp_T_value_list>  (5) 
[12.910058351831086, 14.953930005959542, 16.951818769722866, 18.710671474119493, 21.595837348016552, 23.77961077546481, 27.119038206400916, 28.784412138537824, 29.614983901494824]

>  <Cp_T_units>  (5) 
cal/(mol*K)

>  <T_list>  (5) 
[300.0, 400.0, 500.0, 600.0, 800.0, 1000.0, 1500.0, 2000.0, 2400.0]

>  <T_units>  (5) 
K

>  <yaml_path>  (5) 
/home/calvin/Dropbox/PersonalFolders/Calvin/HAb_Converged/rxn_456/output/Species/rxn_456_C[C]=O/rxn_456_CC=O.yml

>  <frequencies_cm1>  (5) 
[101.31550141127998, 469.68806191735996, 856.5328129342399, 946.5452565088, 1046.10967666348, 1345.98405860256, 1441.5656272716399, 1444.3330223556002, 1945.5199459358, 3011.2279987025595, 3109.3297509840795, 3115.9701257885195]

>  <ZPE_kJmol>  (5) 
112.65309797971996

>  <E_elec_kJmol>  (5) 
-402203.2721195463

>  <E0_minus_Eelec_plus_ZPE_kJmol>  (5) 
0.0

>  <rxn>  (5) 
rxn_456

>  <species_type>  (5) 
r1

>  <species_folder>  (5) 
rxn_456_C[C]=O

>  <frequencies_cm1_list>  (5) 
[101.31550141127998, 469.68806191735996, 856.5328129342399, 946.5452565088, 1046.10967666348, 1345.98405860256, 1441.5656272716399, 1444.3330223556002, 1945.5199459358, 3011.2279987025595, 3109.3297509840795, 3115.9701257885195]

>  <E0_kJmol>  (5) 
-402091

>  <H298_kJmol>  (5) 
-402078

$$$$
