
     RDKit          3D

 11 10  0  0  0  0  0  0  0  0999 V2000
   -0.5747   -1.0311   -0.5511 C   0  0  0  0  0  0  0  0  0  1  0  0
    0.0841   -0.1804    0.4989 C   0  0  0  0  0  0  0  0  0  2  0  0
    0.4638    1.2156    0.0855 C   0  0  0  0  0  0  0  0  0  3  0  0
    0.0625   -1.1174   -1.4348 H   0  0  0  0  0  0  0  0  0  4  0  0
   -1.5277   -0.5943   -0.8720 H   0  0  0  0  0  0  0  0  0  5  0  0
   -0.7764   -2.0384   -0.1841 H   0  0  0  0  0  0  0  0  0  6  0  0
    1.0375   -0.6844    0.6661 H   0  0  0  0  0  0  0  0  0  7  0  0
   -0.4036   -0.2332    1.4736 H   0  0  0  0  0  0  0  0  0  8  0  0
   -0.4220    1.8128   -0.1579 H   0  0  0  0  0  0  0  0  0  9  0  0
    1.0079    1.7384    0.8748 H   0  0  0  0  0  0  0  0  0 10  0  0
    1.0979    1.1955   -0.8046 H   0  0  0  0  0  0  0  0  0 11  0  0
  1  5  1  0
  1  4  1  0
  1  6  1  0
  1  2  1  0
  2  7  1  0
  2  8  1  0
  2  3  1  0
  3 11  1  0
  3  9  1  0
  3 10  1  0
M  END
>  <rmg_smiles>  (1) 
CCC

>  <rmg_adjacency_list>  (1) 
1  C u0 p0 c0 {2,S} {4,S} {5,S} {6,S}
2  C u0 p0 c0 {1,S} {3,S} {7,S} {8,S}
3  C u0 p0 c0 {2,S} {9,S} {10,S} {11,S}
4  H u0 p0 c0 {1,S}
5  H u0 p0 c0 {1,S}
6  H u0 p0 c0 {1,S}
7  H u0 p0 c0 {2,S}
8  H u0 p0 c0 {2,S}
9  H u0 p0 c0 {3,S}
10 H u0 p0 c0 {3,S}
11 H u0 p0 c0 {3,S}


>  <multiplicity>  (1) 
1

>  <reaction>  (1) 
rxn_950

>  <type>  (1) 
r1h

>  <role_mapnums>  (1) 
{"r1h_a": 2, "r1h_h": 7}

>  <role_mapidx>  (1) 
{"r1h_a": 1, "r1h_h": 6}

>  <ordered_mapped_smiles>  (1) 
[C:1]([C:2]([C:3]([H:9])([H:10])[H:11])([H:7])[H:8])([H:4])([H:5])[H:6]

>  <mol_properties>  (1) 
{"1": {"label": "donator", "atom_type": "Cs"}, "6": {"label": "d_hydrogen", "atom_type": "H0"}}

>  <level_of_theory>  (1) 
wb97xd/def2tzvp

>  <lot_method>  (1) 
wb97xd

>  <lot_basis>  (1) 
def2tzvp

>  <spin_multiplicity>  (1) 
1.0

>  <optical_isomers>  (1) 
1.0

>  <modes>  (1) 
IdealGasTranslation(mass=(44.0626, 'amu')),         NonlinearRotor(             inertia = ([17.0625, 59.5808, 67.2958

>  <frequency_value>  (1) 
unknown

>  <frequency_units>  (1) 
unknown

>  <frequency_list>  (1) 
unknown

>  <arkane_path>  (1) 
/home/calvin/Dropbox/PersonalFolders/Calvin/HAb_Converged/rxn_950/output/Species/rxn_950_CCC/arkane/output.py

>  <path_exists>  (1) 
True

>  <E0_value>  (1) 
-312559.7664121831

>  <E0_units>  (1) 
kJ/mol

>  <thermo_class>  (1) 
NASA

>  <Cp0_value>  (1) 
33.257888

>  <Cp0_units>  (1) 
J/(mol*K)

>  <CpInf_value>  (1) 
257.748632

>  <CpInf_units>  (1) 
J/(mol*K)

>  <Tmin_value>  (1) 
10.0

>  <Tmin_units>  (1) 
K

>  <Tmax_value>  (1) 
3000.0

>  <Tmax_units>  (1) 
K

>  <polynomials>  (1) 
[{"name": "polynomial1", "class": "NASAPolynomial", "Tmin_value": 10.0, "Tmin_units": "K", "Tmax_value": 577.4310568776192, "Tmax_units": "K", "coeffs": [3.9747269033817734, 0.0011347804367172543, 7.533889062875609e-05, -1.0470498139729524e-07, 4.699078499553375e-11, -37592254.8773633, 6.773591698117238]}, {"name": "polynomial2", "class": "NASAPolynomial", "Tmin_value": 577.4310568776192, "Tmin_units": "K", "Tmax_value": 3000.0, "Tmax_units": "K", "coeffs": [-1.3041055241664254, 0.03770227026025092, -1.9652378532074013e-05, 4.9654907444475164e-09, -4.909963524622396e-13, -37591645.24138486, 29.34198158192454]}]

>  <H298_value>  (1) 
-74700.16503809701

>  <H298_units>  (1) 
kcal/mol

>  <S298_value>  (1) 
64.12787959081382

>  <S298_units>  (1) 
cal/(mol*K)

>  <Cp_T_value_list>  (1) 
[17.187849905588877, 21.82888089347945, 26.282080105357306, 30.30750880664003, 37.00458219733553, 42.16907955247373, 50.28489012355217, 54.3677942411287, 56.31048938168173]

>  <Cp_T_units>  (1) 
cal/(mol*K)

>  <T_list>  (1) 
[300.0, 400.0, 500.0, 600.0, 800.0, 1000.0, 1500.0, 2000.0, 2400.0]

>  <T_units>  (1) 
K

>  <yaml_path>  (1) 
/home/calvin/Dropbox/PersonalFolders/Calvin/HAb_Converged/rxn_950/output/Species/rxn_950_CCC/rxn_950_CCC.yml

>  <frequencies_cm1>  (1) 
[219.27657523823999, 274.69314677064, 369.88329727648, 749.53831466332, 878.21188558948, 908.3991530561998, 929.9271520343999, 1065.0968910732797, 1172.11199030016, 1205.9799618984, 1309.06714552224, 1359.46395078572, 1398.3379546822398, 1410.31397708032, 1476.4087107853202, 1480.39842925624, 1483.440503753, 1494.09119798432, 1498.5410044716796, 3005.39792816588, 3007.40308787932, 3010.35589156692, 3037.8787687294803, 3071.65746951856, 3081.94421352792, 3083.3450785332, 3086.08500567588]

>  <ZPE_kJmol>  (1) 
269.5620865819488

>  <E_elec_kJmol>  (1) 
-312829.32849876507

>  <E0_minus_Eelec_plus_ZPE_kJmol>  (1) 
0.0

>  <rxn>  (1) 
rxn_950

>  <species_type>  (1) 
r1

>  <species_folder>  (1) 
rxn_950_CCC

>  <frequencies_cm1_list>  (1) 
[219.27657523823999, 274.69314677064, 369.88329727648, 749.53831466332, 878.21188558948, 908.3991530561998, 929.9271520343999, 1065.0968910732797, 1172.11199030016, 1205.9799618984, 1309.06714552224, 1359.46395078572, 1398.3379546822398, 1410.31397708032, 1476.4087107853202, 1480.39842925624, 1483.440503753, 1494.09119798432, 1498.5410044716796, 3005.39792816588, 3007.40308787932, 3010.35589156692, 3037.8787687294803, 3071.65746951856, 3081.94421352792, 3083.3450785332, 3086.08500567588]

>  <E0_kJmol>  (1) 
-312560

>  <H298_kJmol>  (1) 
-312545

$$$$

     RDKit          3D

  8  7  0  0  0  0  0  0  0  0999 V2000
   -0.2526    1.0097    2.1551 C   0  0  0  0  0  0  0  0  0  1  0  0
    0.3070    0.3258    1.1580 C   0  0  0  0  0  0  0  0  0  2  0  0
   -0.3881    0.0760   -0.0873 C   0  0  0  0  0  0  0  0  0  3  0  0
    0.1655   -0.6288   -1.4090 S   0  0  0  0  0  0  0  0  0  4  0  0
    0.2807    1.1983    3.0780 H   0  0  0  0  0  0  0  0  0  5  0  0
   -1.2587    1.4024    2.0717 H   0  0  0  0  0  0  0  0  0  6  0  0
    1.3182   -0.0615    1.2507 H   0  0  0  0  0  0  0  0  0  7  0  0
   -1.3899    0.5052   -0.1077 H   0  0  0  0  0  0  0  0  0  8  0  0
  1  5  1  0
  1  6  1  0
  1  2  1  0
  2  7  1  0
  2  3  1  0
  3  8  1  0
  3  4  1  0
M  END
>  <rmg_smiles>  (2) 
[CH2][CH][CH][S]

>  <rmg_adjacency_list>  (2) 
1 S u0 p2 c0 {4,S}
2 C u0 p0 c0 {3,S} {4,S} {5,S}
3 C u0 p0 c0 {2,S} {6,S} {7,S}
4 C u0 p0 c0 {1,S} {2,S} {8,S}
5 H u0 p0 c0 {2,S}
6 H u0 p0 c0 {3,S}
7 H u0 p0 c0 {3,S}
8 H u0 p0 c0 {4,S}


>  <multiplicity>  (2) 
1

>  <reaction>  (2) 
rxn_950

>  <type>  (2) 
r2h

>  <role_mapnums>  (2) 
{"r2h_a": 3, "r2h_h": 8}

>  <role_mapidx>  (2) 
{"r2h_a": 2, "r2h_h": 7}

>  <ordered_mapped_smiles>  (2) 
[CH:1]([CH:2]([CH:3]([SH:4])[H:8])[H:7])([H:5])[H:6]

>  <mol_properties>  (2) 
{"2": {"label": "acceptor", "atom_type": "Cs"}, "7": {"label": "a_hydrogen", "atom_type": "H0"}}

>  <level_of_theory>  (2) 
wb97xd/def2tzvp

>  <lot_method>  (2) 
wb97xd

>  <lot_basis>  (2) 
def2tzvp

>  <spin_multiplicity>  (2) 
1.0

>  <optical_isomers>  (2) 
1.0

>  <modes>  (2) 
IdealGasTranslation(mass=(72.0034, 'amu')),         NonlinearRotor(             inertia = ([10.8259, 179.445, 190.271

>  <frequency_value>  (2) 
unknown

>  <frequency_units>  (2) 
unknown

>  <frequency_list>  (2) 
unknown

>  <arkane_path>  (2) 
/home/calvin/Dropbox/PersonalFolders/Calvin/HAb_Converged/rxn_950/output/Species/rxn_950_C=CC=S/arkane/output.py

>  <path_exists>  (2) 
True

>  <E0_value>  (2) 
-1351663.0036055504

>  <E0_units>  (2) 
kJ/mol

>  <thermo_class>  (2) 
NASA

>  <Cp0_value>  (2) 
33.257888

>  <Cp0_units>  (2) 
J/(mol*K)

>  <CpInf_value>  (2) 
182.918384

>  <CpInf_units>  (2) 
J/(mol*K)

>  <Tmin_value>  (2) 
10.0

>  <Tmin_units>  (2) 
K

>  <Tmax_value>  (2) 
3000.0

>  <Tmax_units>  (2) 
K

>  <polynomials>  (2) 
[{"name": "polynomial1", "class": "NASAPolynomial", "Tmin_value": 10.0, "Tmin_units": "K", "Tmax_value": 379.2644192115922, "Tmax_units": "K", "coeffs": [3.9765643065430916, 0.0016004709541293095, 8.72904253733476e-05, -1.7911724885444054e-07, 1.2101661725986147e-10, -162567509.24915665, 9.120160110672158]}, {"name": "polynomial2", "class": "NASAPolynomial", "Tmin_value": 379.2644192115922, "Tmin_units": "K", "Tmax_value": 3000.0, "Tmax_units": "K", "coeffs": [1.464888744558327, 0.0281037867234722, -1.7583624528695405e-05, 5.321955350531072e-09, -6.214743427137124e-13, -162567318.8273217, 18.801153395762828]}]

>  <H298_value>  (2) 
-323051.77369567833

>  <H298_units>  (2) 
kcal/mol

>  <S298_value>  (2) 
69.12773786002882

>  <S298_units>  (2) 
cal/(mol*K)

>  <Cp_T_value_list>  (2) 
[16.805632008963112, 20.304717440143907, 23.344267700018552, 25.964949893337177, 30.135357981253517, 33.15759755729083, 37.504149039419545, 39.684548396616805, 40.90462524755872]

>  <Cp_T_units>  (2) 
cal/(mol*K)

>  <T_list>  (2) 
[300.0, 400.0, 500.0, 600.0, 800.0, 1000.0, 1500.0, 2000.0, 2400.0]

>  <T_units>  (2) 
K

>  <yaml_path>  (2) 
/home/calvin/Dropbox/PersonalFolders/Calvin/HAb_Converged/rxn_950/output/Species/rxn_950_C=CC=S/rxn_950_C=CC=S.yml

>  <frequencies_cm1>  (2) 
[143.52686017332, 284.27945827736, 458.62534856684, 626.85962192152, 901.60770457472, 915.3554091853599, 995.0811087505599, 1035.17743603404, 1098.5734445082799, 1194.99965237172, 1299.26109048528, 1341.3969124088, 1455.1759921758799, 1675.0087932250397, 3064.563873683, 3123.0293866974803, 3158.3600261688803, 3216.07703778348]

>  <ZPE_kJmol>  (2) 
155.4365784144883

>  <E_elec_kJmol>  (2) 
-1351818.4401839648

>  <E0_minus_Eelec_plus_ZPE_kJmol>  (2) 
0.0

>  <rxn>  (2) 
rxn_950

>  <species_type>  (2) 
p0

>  <species_folder>  (2) 
rxn_950_C=CC=S

>  <frequencies_cm1_list>  (2) 
[143.52686017332, 284.27945827736, 458.62534856684, 626.85962192152, 901.60770457472, 915.3554091853599, 995.0811087505599, 1035.17743603404, 1098.5734445082799, 1194.99965237172, 1299.26109048528, 1341.3969124088, 1455.1759921758799, 1675.0087932250397, 3064.563873683, 3123.0293866974803, 3158.3600261688803, 3216.07703778348]

>  <E0_kJmol>  (2) 
-1.35166e+06

>  <H298_kJmol>  (2) 
-1.35165e+06

$$$$

     RDKit          3D

 18 16  0  0  0  0  0  0  0  0999 V2000
    1.2053    0.8423    1.9256 C   0  0  0  0  0  0  0  0  0  1  0  0
    1.7649    0.1584    0.9285 C   0  0  0  0  0  0  0  0  0  2  0  0
    1.0698   -0.0914   -0.3168 C   0  0  0  0  0  0  0  0  0  3  0  0
    1.6234   -0.7963   -1.6384 S   0  0  0  0  0  0  0  0  0  4  0  0
    1.7386    1.0309    2.8485 H   0  0  0  0  0  0  0  0  0  5  0  0
    0.1992    1.2350    1.8422 H   0  0  0  0  0  0  0  0  0  6  0  0
    2.7761   -0.2289    1.0212 H   0  0  0  0  0  0  0  0  0  7  0  0
   -2.0133    0.2162   -1.6013 C   0  0  0  0  0  0  0  0  0  8  0  0
   -1.3544    1.0669   -0.5514 C   0  0  0  0  0  3  0  0  0  9  0  0
   -0.9747    2.4629   -0.9648 C   0  0  0  0  0  0  0  0  0 10  0  0
   -1.3760    0.1299   -2.4851 H   0  0  0  0  0  0  0  0  0 11  0  0
   -2.9662    0.6530   -1.9223 H   0  0  0  0  0  0  0  0  0 12  0  0
   -2.2150   -0.7911   -1.2344 H   0  0  0  0  0  0  0  0  0 13  0  0
   -0.1594    0.4352   -0.3418 H   0  0  0  0  0  0  0  0  0 14  0  0
   -1.8421    1.0141    0.4233 H   0  0  0  0  0  0  0  0  0 15  0  0
   -1.8606    3.0601   -1.2081 H   0  0  0  0  0  0  0  0  0 16  0  0
   -0.4307    2.9857   -0.1755 H   0  0  0  0  0  0  0  0  0 17  0  0
   -0.3407    2.4428   -1.8549 H   0  0  0  0  0  0  0  0  0 18  0  0
  1  5  1  0
  1  6  1  0
  1  2  1  0
  2  7  1  0
  2  3  1  0
  3 14  1  0
  3  4  1  0
  8  9  1  0
  8 13  1  0
  8 11  1  0
  8 12  1  0
  9 10  1  0
  9 15  1  0
 10 16  1  0
 10 17  1  0
 10 18  1  0
M  RAD  1   9   2
M  END
>  <rmg_smiles>  (3) 
[CH2][CH][CH][S].C[CH]C

>  <rmg_adjacency_list>  (3) 
multiplicity 2
1  S u0 p2 c0 {7,S}
2  C u0 p0 c0 {4,S} {8,S} {9,S} {10,S}
3  C u0 p0 c0 {4,S} {11,S} {12,S} {13,S}
4  C u1 p0 c0 {2,S} {3,S} {14,S}
5  C u0 p0 c0 {6,S} {7,S} {15,S}
6  C u0 p0 c0 {5,S} {16,S} {17,S}
7  C u0 p0 c0 {1,S} {5,S} {18,S}
8  H u0 p0 c0 {2,S}
9  H u0 p0 c0 {2,S}
10 H u0 p0 c0 {2,S}
11 H u0 p0 c0 {3,S}
12 H u0 p0 c0 {3,S}
13 H u0 p0 c0 {3,S}
14 H u0 p0 c0 {4,S}
15 H u0 p0 c0 {5,S}
16 H u0 p0 c0 {6,S}
17 H u0 p0 c0 {6,S}
18 H u0 p0 c0 {7,S}


>  <multiplicity>  (3) 
2

>  <reaction>  (3) 
rxn_950

>  <type>  (3) 
ts

>  <role_mapnums>  (3) 
{"*2": 14, "*1": 9, "*3": 3, "*0": 4, "*4": 8}

>  <role_mapidx>  (3) 
{"*2": 13, "*1": 8, "*3": 2, "*0": 3, "*4": 7}

>  <ordered_mapped_smiles>  (3) 
[CH:1]([CH:2]([CH:3]([SH:4])[H:14])[H:7])([H:5])[H:6].[C:8]([C:9]([C:10]([H:16])([H:17])[H:18])[H:15])([H:11])([H:12])[H:13]

>  <mol_properties>  (3) 
{"2": {"label": "*3", "atom_type": "Cs"}, "3": {"label": "*0", "atom_type": "S2s"}, "7": {"label": "*4", "atom_type": "Cs"}, "8": {"label": "*1", "atom_type": "Cs"}, "13": {"label": "*2", "atom_type": "H0"}}

>  <level_of_theory>  (3) 
wb97xd/def2tzvp

>  <lot_method>  (3) 
wb97xd

>  <lot_basis>  (3) 
def2tzvp

>  <spin_multiplicity>  (3) 
2.0

>  <optical_isomers>  (3) 
2.0

>  <modes>  (3) 
IdealGasTranslation(mass=(115.058, 'amu')),         NonlinearRotor(             inertia = ([245.607, 360.013, 527.205

>  <frequency_value>  (3) 
-1765.83

>  <frequency_units>  (3) 
cm^-1

>  <frequency_list>  (3) 
unknown

>  <arkane_path>  (3) 
/home/calvin/Dropbox/PersonalFolders/Calvin/HAb_Converged/rxn_950/output/rxns/TS0/arkane/output.py

>  <path_exists>  (3) 
True

>  <E0_value>  (3) 
-1662470.0

>  <E0_units>  (3) 
kJ/mol

>  <thermo_class>  (3) 
unknown

>  <Cp0_value>  (3) 
unknown

>  <Cp0_units>  (3) 
unknown

>  <CpInf_value>  (3) 
unknown

>  <CpInf_units>  (3) 
unknown

>  <Tmin_value>  (3) 
unknown

>  <Tmin_units>  (3) 
unknown

>  <Tmax_value>  (3) 
unknown

>  <Tmax_units>  (3) 
unknown

>  <polynomials>  (3) 
unknown

>  <H298_value>  (3) 
unknown

>  <H298_units>  (3) 
unknown

>  <S298_value>  (3) 
unknown

>  <S298_units>  (3) 
unknown

>  <Cp_T_value_list>  (3) 
unknown

>  <Cp_T_units>  (3) 
unknown

>  <T_list>  (3) 
unknown

>  <T_units>  (3) 
unknown

>  <yaml_path>  (3) 
unknown

>  <frequencies_cm1>  (3) 
unknown

>  <ZPE_kJmol>  (3) 
unknown

>  <E_elec_kJmol>  (3) 
unknown

>  <E0_minus_Eelec_plus_ZPE_kJmol>  (3) 
unknown

>  <rxn>  (3) 
unknown

>  <species_type>  (3) 
unknown

>  <species_folder>  (3) 
unknown

>  <frequencies_cm1_list>  (3) 
[]

>  <ts_imag_freq_cm1>  (3) 
-1787.2796

>  <ts_freq_out_path>  (3) 
/home/calvin/Dropbox/PersonalFolders/Calvin/HAb_Converged/rxn_950/output/rxns/TS0/geometry/freq.out

>  <E0_kJmol>  (3) 
-1.66247e+06

>  <H298_kJmol>  (3) 
unknown

$$$$

     RDKit          3D

 10  9  0  0  0  0  0  0  0  0999 V2000
    1.2930    0.1441    0.3288 C   0  0  0  0  0  0  0  0  0  1  0  0
   -0.0374   -0.1647    0.9100 C   0  0  0  0  0  3  0  0  0  2  0  0
   -1.2664    0.4569    0.3567 C   0  0  0  0  0  0  0  0  0  3  0  0
    1.4384    1.2242    0.2174 H   0  0  0  0  0  0  0  0  0  4  0  0
    2.1077   -0.2477    0.9385 H   0  0  0  0  0  0  0  0  0  5  0  0
    1.4057   -0.2836   -0.6789 H   0  0  0  0  0  0  0  0  0  6  0  0
   -0.1309   -0.9912    1.6030 H   0  0  0  0  0  0  0  0  0  7  0  0
   -1.5005    0.0716   -0.6471 H   0  0  0  0  0  0  0  0  0  8  0  0
   -2.1382    0.2713    0.9849 H   0  0  0  0  0  0  0  0  0  9  0  0
   -1.1497    1.5406    0.2456 H   0  0  0  0  0  0  0  0  0 10  0  0
  1  5  1  0
  1  4  1  0
  1  6  1  0
  1  2  1  0
  2  7  1  0
  2  3  1  0
  3  9  1  0
  3 10  1  0
  3  8  1  0
M  RAD  1   2   2
M  END
>  <rmg_smiles>  (4) 
C[CH]C

>  <rmg_adjacency_list>  (4) 
multiplicity 2
1  C u0 p0 c0 {3,S} {4,S} {5,S} {6,S}
2  C u0 p0 c0 {3,S} {7,S} {8,S} {9,S}
3  C u1 p0 c0 {1,S} {2,S} {10,S}
4  H u0 p0 c0 {1,S}
5  H u0 p0 c0 {1,S}
6  H u0 p0 c0 {1,S}
7  H u0 p0 c0 {2,S}
8  H u0 p0 c0 {2,S}
9  H u0 p0 c0 {2,S}
10 H u0 p0 c0 {3,S}


>  <multiplicity>  (4) 
2

>  <reaction>  (4) 
rxn_950

>  <type>  (4) 
r1

>  <role_mapnums>  (4) 
{}

>  <role_mapidx>  (4) 
{}

>  <ordered_mapped_smiles>  (4) 
[C:1]([C:2]([C:3]([H:8])([H:9])[H:10])[H:7])([H:4])([H:5])[H:6]

>  <level_of_theory>  (4) 
wb97xd/def2tzvp

>  <lot_method>  (4) 
wb97xd

>  <lot_basis>  (4) 
def2tzvp

>  <spin_multiplicity>  (4) 
2.0

>  <optical_isomers>  (4) 
1.0

>  <modes>  (4) 
IdealGasTranslation(mass=(43.0548, 'amu')),         NonlinearRotor(             inertia = ([13.4945, 59.9891, 67.2321

>  <frequency_value>  (4) 
unknown

>  <frequency_units>  (4) 
unknown

>  <frequency_list>  (4) 
unknown

>  <arkane_path>  (4) 
/home/calvin/Dropbox/PersonalFolders/Calvin/HAb_Converged/rxn_950/output/Species/rxn_950_C[CH]C/arkane/output.py

>  <path_exists>  (4) 
True

>  <E0_value>  (4) 
-310845.2184059608

>  <E0_units>  (4) 
kJ/mol

>  <thermo_class>  (4) 
NASA

>  <Cp0_value>  (4) 
33.257888

>  <Cp0_units>  (4) 
J/(mol*K)

>  <CpInf_value>  (4) 
232.805216

>  <CpInf_units>  (4) 
J/(mol*K)

>  <Tmin_value>  (4) 
10.0

>  <Tmin_units>  (4) 
K

>  <Tmax_value>  (4) 
3000.0

>  <Tmax_units>  (4) 
K

>  <polynomials>  (4) 
[{"name": "polynomial1", "class": "NASAPolynomial", "Tmin_value": 10.0, "Tmin_units": "K", "Tmax_value": 447.8128792552529, "Tmax_units": "K", "coeffs": [3.752012635379411, 0.026641862649172638, -7.746058003612534e-05, 2.1389576411497674e-07, -1.844633782932518e-10, -37386043.96321184, 8.05688024181999]}, {"name": "polynomial2", "class": "NASAPolynomial", "Tmin_value": 447.8128792552529, "Tmin_units": "K", "Tmax_value": 3000.0, "Tmax_units": "K", "coeffs": [0.3456331898922003, 0.0329396549778818, -1.7732866616299737e-05, 4.6556958792141865e-09, -4.78902486015414e-13, -37385496.94179907, 24.455396824893292]}]

>  <H298_value>  (4) 
-74289.9090718394

>  <H298_units>  (4) 
kcal/mol

>  <S298_value>  (4) 
70.4573159165227

>  <S298_units>  (4) 
cal/(mol*K)

>  <Cp_T_value_list>  (4) 
[17.99246870913784, 21.823762730245537, 25.70307457878351, 29.150647616604275, 34.84741547055869, 39.20602419681299, 45.99328941377369, 49.43494906715023, 51.132806782188474]

>  <Cp_T_units>  (4) 
cal/(mol*K)

>  <T_list>  (4) 
[300.0, 400.0, 500.0, 600.0, 800.0, 1000.0, 1500.0, 2000.0, 2400.0]

>  <T_units>  (4) 
K

>  <yaml_path>  (4) 
/home/calvin/Dropbox/PersonalFolders/Calvin/HAb_Converged/rxn_950/output/Species/rxn_950_C[CH]C/rxn_950_CCHC.yml

>  <frequencies_cm1>  (4) 
[105.22281605836, 112.68722910119999, 345.60850417028, 388.99411742204, 888.91751570336, 934.4593623456, 940.8456586931999, 1017.3988110405598, 1144.8637925504, 1173.26564383392, 1356.01672415508, 1400.16457277736, 1405.7130969159198, 1454.7502390860398, 1462.58546933616, 1465.42840125864, 1476.53231652108, 2938.8637074004, 2942.7366871208797, 3008.0211165581195, 3008.4194017066793, 3085.04122390724, 3085.8858631016, 3161.75918390228]

>  <ZPE_kJmol>  (4) 
229.10994966023972

>  <E_elec_kJmol>  (4) 
-311074.328355621

>  <E0_minus_Eelec_plus_ZPE_kJmol>  (4) 
0.0

>  <rxn>  (4) 
rxn_950

>  <species_type>  (4) 
p1

>  <species_folder>  (4) 
rxn_950_C[CH]C

>  <frequencies_cm1_list>  (4) 
[105.22281605836, 112.68722910119999, 345.60850417028, 388.99411742204, 888.91751570336, 934.4593623456, 940.8456586931999, 1017.3988110405598, 1144.8637925504, 1173.26564383392, 1356.01672415508, 1400.16457277736, 1405.7130969159198, 1454.7502390860398, 1462.58546933616, 1465.42840125864, 1476.53231652108, 2938.8637074004, 2942.7366871208797, 3008.0211165581195, 3008.4194017066793, 3085.04122390724, 3085.8858631016, 3161.75918390228]

>  <E0_kJmol>  (4) 
-310845

>  <H298_kJmol>  (4) 
-310829

$$$$

     RDKit          3D

  7  6  0  0  0  0  0  0  0  0999 V2000
   -0.6904   -0.9066   -0.0346 C   0  0  0  0  0  0  0  0  0  1  0  0
    0.1413    0.0254   -0.6161 C   0  0  0  0  0  0  0  0  0  2  0  0
    0.4603    0.1105   -1.9267 C   0  0  0  0  0  3  0  0  0  3  0  0
    0.8318    0.2180   -3.4201 S   0  0  0  0  0  0  0  0  0  4  0  0
   -0.8731   -0.8770    1.0287 H   0  0  0  0  0  0  0  0  0  5  0  0
   -1.1718   -1.6767   -0.6199 H   0  0  0  0  0  0  0  0  0  6  0  0
    0.6090    0.7866    0.0044 H   0  0  0  0  0  0  0  0  0  7  0  0
  1  5  1  0
  1  6  1  0
  1  2  1  0
  2  7  1  0
  2  3  1  0
  3  4  1  0
M  RAD  1   3   2
M  END
>  <rmg_smiles>  (5) 
[CH2][CH][C][S]

>  <rmg_adjacency_list>  (5) 
multiplicity 2
1 S u0 p2 c0 {4,S}
2 C u0 p0 c0 {3,S} {4,S} {5,S}
3 C u0 p0 c0 {2,S} {6,S} {7,S}
4 C u1 p1 c0 {1,S} {2,S}
5 H u0 p0 c0 {2,S}
6 H u0 p0 c0 {3,S}
7 H u0 p0 c0 {3,S}


>  <multiplicity>  (5) 
2

>  <reaction>  (5) 
rxn_950

>  <type>  (5) 
r2

>  <role_mapnums>  (5) 
{}

>  <role_mapidx>  (5) 
{}

>  <ordered_mapped_smiles>  (5) 
[CH:1]([CH:2]([CH:3][SH:4])[H:7])([H:5])[H:6]

>  <level_of_theory>  (5) 
wb97xd/def2tzvp

>  <lot_method>  (5) 
wb97xd

>  <lot_basis>  (5) 
def2tzvp

>  <spin_multiplicity>  (5) 
2.0

>  <optical_isomers>  (5) 
1.0

>  <modes>  (5) 
IdealGasTranslation(mass=(70.9955, 'amu')),         NonlinearRotor(             inertia = ([10.5411, 179.005, 189.545

>  <frequency_value>  (5) 
unknown

>  <frequency_units>  (5) 
unknown

>  <frequency_list>  (5) 
unknown

>  <arkane_path>  (5) 
/home/calvin/Dropbox/PersonalFolders/Calvin/HAb_Converged/rxn_950/output/Species/rxn_950_C=C[C]=S/arkane/output.py

>  <path_exists>  (5) 
True

>  <E0_value>  (5) 
-1349993.0265723662

>  <E0_units>  (5) 
kJ/mol

>  <thermo_class>  (5) 
NASA

>  <Cp0_value>  (5) 
33.257888

>  <Cp0_units>  (5) 
J/(mol*K)

>  <CpInf_value>  (5) 
157.97496800000002

>  <CpInf_units>  (5) 
J/(mol*K)

>  <Tmin_value>  (5) 
10.0

>  <Tmin_units>  (5) 
K

>  <Tmax_value>  (5) 
3000.0

>  <Tmax_units>  (5) 
K

>  <polynomials>  (5) 
[{"name": "polynomial1", "class": "NASAPolynomial", "Tmin_value": 10.0, "Tmin_units": "K", "Tmax_value": 482.1301665802275, "Tmax_units": "K", "coeffs": [3.9339607670145957, 0.004302096978520193, 8.035838855252611e-05, -1.8150147447629097e-07, 1.2462580155687268e-10, -162366655.6604501, 9.642320969940064]}, {"name": "polynomial2", "class": "NASAPolynomial", "Tmin_value": 482.1301665802275, "Tmin_units": "K", "Tmax_value": 3000.0, "Tmax_units": "K", "coeffs": [3.400427758770762, 0.021645224311717642, -1.37856590531485e-05, 4.244047020172045e-09, -5.028191493369426e-13, -162366754.33756855, 10.270196831946016]}]

>  <H298_value>  (5) 
-322652.55047265504

>  <H298_units>  (5) 
kcal/mol

>  <S298_value>  (5) 
70.64361213735101

>  <S298_units>  (5) 
cal/(mol*K)

>  <Cp_T_value_list>  (5) 
[17.02196180246356, 20.04389454321789, 22.40715394507206, 24.39549126437832, 27.544237618727635, 29.810523671258657, 33.04459736313007, 34.68770283344468, 35.63248721043395]

>  <Cp_T_units>  (5) 
cal/(mol*K)

>  <T_list>  (5) 
[300.0, 400.0, 500.0, 600.0, 800.0, 1000.0, 1500.0, 2000.0, 2400.0]

>  <T_units>  (5) 
K

>  <yaml_path>  (5) 
/home/calvin/Dropbox/PersonalFolders/Calvin/HAb_Converged/rxn_950/output/Species/rxn_950_C=C[C]=S/rxn_950_C=CC=S.yml

>  <frequencies_cm1>  (5) 
[184.57083143095997, 214.92290654536, 515.6487946641199, 562.7082450620801, 730.0017414279199, 762.2216365493599, 843.0666547217199, 1034.47013654608, 1198.8726320921999, 1337.5170657029998, 1487.49889207712, 1626.2463304677199, 3117.87914770748, 3147.4895884073203, 3250.46690026604]

>  <ZPE_kJmol>  (5) 
119.7078354553374

>  <E_elec_kJmol>  (5) 
-1350112.7344078217

>  <E0_minus_Eelec_plus_ZPE_kJmol>  (5) 
0.0

>  <rxn>  (5) 
rxn_950

>  <species_type>  (5) 
r0

>  <species_folder>  (5) 
rxn_950_C=C[C]=S

>  <frequencies_cm1_list>  (5) 
[184.57083143095997, 214.92290654536, 515.6487946641199, 562.7082450620801, 730.0017414279199, 762.2216365493599, 843.0666547217199, 1034.47013654608, 1198.8726320921999, 1337.5170657029998, 1487.49889207712, 1626.2463304677199, 3117.87914770748, 3147.4895884073203, 3250.46690026604]

>  <E0_kJmol>  (5) 
-1.34999e+06

>  <H298_kJmol>  (5) 
-1.34998e+06

$$$$
