
     RDKit          3D

  9  8  0  0  0  0  0  0  0  0999 V2000
   -0.4439   -0.1613   -1.1730 C   0  0  0  0  0  0  0  0  0  1  0  0
    0.0533   -0.4491    0.0367 C   0  0  0  0  0  0  0  0  0  2  0  0
    0.4041    0.5364    1.0371 C   0  0  0  0  0  0  0  0  0  3  0  0
   -0.7324   -0.9411   -1.8651 H   0  0  0  0  0  0  0  0  0  4  0  0
   -0.5715    0.8647   -1.4998 H   0  0  0  0  0  0  0  0  0  5  0  0
    0.1505   -1.4924    0.3218 H   0  0  0  0  0  0  0  0  0  6  0  0
   -0.4965    0.6394    1.6384 H   0  0  0  0  0  0  0  0  0  7  0  0
    0.5513    1.5515    0.6732 H   0  0  0  0  0  0  0  0  0  8  0  0
    1.1415    0.2354    1.7771 H   0  0  0  0  0  0  0  0  0  9  0  0
  1  5  1  0
  1  4  1  0
  1  2  1  0
  2  6  1  0
  2  3  1  0
  3  8  1  0
  3  7  1  0
  3  9  1  0
M  END
>  <rmg_smiles>  (1) 
[CH2][CH]C

>  <rmg_adjacency_list>  (1) 
1 C u0 p0 c0 {2,S} {4,S} {5,S} {6,S}
2 C u0 p0 c0 {1,S} {3,S} {7,S}
3 C u0 p0 c0 {2,S} {8,S} {9,S}
4 H u0 p0 c0 {1,S}
5 H u0 p0 c0 {1,S}
6 H u0 p0 c0 {1,S}
7 H u0 p0 c0 {2,S}
8 H u0 p0 c0 {3,S}
9 H u0 p0 c0 {3,S}


>  <multiplicity>  (1) 
1

>  <reaction>  (1) 
rxn_1036

>  <type>  (1) 
r1h

>  <role_mapnums>  (1) 
{"r1h_a": 3, "r1h_h": 7}

>  <role_mapidx>  (1) 
{"r1h_a": 2, "r1h_h": 6}

>  <ordered_mapped_smiles>  (1) 
[CH:1]([CH:2]([C:3]([H:7])([H:8])[H:9])[H:6])([H:4])[H:5]

>  <mol_properties>  (1) 
{"2": {"label": "donator", "atom_type": "Cs"}, "6": {"label": "d_hydrogen", "atom_type": "H0"}}

>  <level_of_theory>  (1) 
wb97xd/def2tzvp

>  <lot_method>  (1) 
wb97xd

>  <lot_basis>  (1) 
def2tzvp

>  <spin_multiplicity>  (1) 
1.0

>  <optical_isomers>  (1) 
1.0

>  <modes>  (1) 
IdealGasTranslation(mass=(42.047, 'amu')),         NonlinearRotor(             inertia = ([10.7194, 53.9495, 61.5633

>  <frequency_value>  (1) 
unknown

>  <frequency_units>  (1) 
unknown

>  <frequency_list>  (1) 
unknown

>  <arkane_path>  (1) 
/home/calvin/Dropbox/PersonalFolders/Calvin/HAb_Converged/rxn_1036/output/Species/rxn_1036_C=CC/arkane/output.py

>  <path_exists>  (1) 
True

>  <E0_value>  (1) 
-309367.8832800635

>  <E0_units>  (1) 
kJ/mol

>  <thermo_class>  (1) 
NASA

>  <Cp0_value>  (1) 
33.257888

>  <Cp0_units>  (1) 
J/(mol*K)

>  <CpInf_value>  (1) 
207.8618

>  <CpInf_units>  (1) 
J/(mol*K)

>  <Tmin_value>  (1) 
10.0

>  <Tmin_units>  (1) 
K

>  <Tmax_value>  (1) 
3000.0

>  <Tmax_units>  (1) 
K

>  <polynomials>  (1) 
[{"name": "polynomial1", "class": "NASAPolynomial", "Tmin_value": 10.0, "Tmin_units": "K", "Tmax_value": 531.9066404514887, "Tmax_units": "K", "coeffs": [4.0204367106395305, -0.0017312814973888466, 7.469369070858841e-05, -1.103989586823944e-07, 5.357411953540602e-11, -37208361.619619094, 6.984063163619424]}, {"name": "polynomial2", "class": "NASAPolynomial", "Tmin_value": 531.9066404514887, "Tmin_units": "K", "Tmax_value": 3000.0, "Tmax_units": "K", "coeffs": [-0.30746978474152303, 0.03081497539241948, -1.7087881859194207e-05, 4.635359552359225e-09, -4.926745989402899e-13, -37207901.209693715, 25.131571818199003]}]

>  <H298_value>  (1) 
-73937.54315081466

>  <H298_units>  (1) 
kcal/mol

>  <S298_value>  (1) 
63.235428095961645

>  <S298_units>  (1) 
cal/(mol*K)

>  <Cp_T_value_list>  (1) 
[15.255114438428619, 19.0471333221202, 22.6079143488244, 25.768633340780376, 30.96022164704354, 34.89993402421754, 40.97109580318192, 44.05842766532305, 45.61775865339882]

>  <Cp_T_units>  (1) 
cal/(mol*K)

>  <T_list>  (1) 
[300.0, 400.0, 500.0, 600.0, 800.0, 1000.0, 1500.0, 2000.0, 2400.0]

>  <T_units>  (1) 
K

>  <yaml_path>  (1) 
/home/calvin/Dropbox/PersonalFolders/Calvin/HAb_Converged/rxn_1036/output/Species/rxn_1036_C=CC/rxn_1036_C=CC.yml

>  <frequencies_cm1>  (1) 
[200.92112347787997, 429.72220735495995, 590.1693193567598, 925.5460154002399, 944.49202789812, 949.7315376972799, 1024.05291981564, 1068.7501272635197, 1186.76613697304, 1322.2792252779197, 1396.37399688072, 1440.26090006084, 1466.0326959668, 1481.02332492036, 1720.5094379553598, 3007.2932161142003, 3065.80679802592, 3091.5648599612396, 3111.3280437122, 3123.2628641983597, 3201.2855514042]

>  <ZPE_kJmol>  (1) 
207.8343042708976

>  <E_elec_kJmol>  (1) 
-309575.71758433443

>  <E0_minus_Eelec_plus_ZPE_kJmol>  (1) 
0.0

>  <rxn>  (1) 
rxn_1036

>  <species_type>  (1) 
r1

>  <species_folder>  (1) 
rxn_1036_C=CC

>  <frequencies_cm1_list>  (1) 
[200.92112347787997, 429.72220735495995, 590.1693193567598, 925.5460154002399, 944.49202789812, 949.7315376972799, 1024.05291981564, 1068.7501272635197, 1186.76613697304, 1322.2792252779197, 1396.37399688072, 1440.26090006084, 1466.0326959668, 1481.02332492036, 1720.5094379553598, 3007.2932161142003, 3065.80679802592, 3091.5648599612396, 3111.3280437122, 3123.2628641983597, 3201.2855514042]

>  <E0_kJmol>  (1) 
-309368

>  <H298_kJmol>  (1) 
-309355

$$$$

     RDKit          3D

  5  4  0  0  0  0  0  0  0  0999 V2000
    0.5875    0.9751    0.9960 S   0  0  0  0  0  0  0  0  0  1  0  0
    0.4304   -0.1164   -0.2992 C   0  0  0  0  0  0  0  0  0  2  0  0
   -0.7796   -0.9549   -0.8998 S   0  0  0  0  0  0  0  0  0  3  0  0
   -0.6831    0.9668    1.4464 H   0  0  0  0  0  0  0  0  0  4  0  0
    1.3949   -0.2007   -0.8000 H   0  0  0  0  0  0  0  0  0  5  0  0
  1  2  1  0
  1  4  1  0
  2  3  1  0
  2  5  1  0
M  END
>  <rmg_smiles>  (2) 
[S][CH]S

>  <rmg_adjacency_list>  (2) 
1 S u0 p2 c0 {3,S} {5,S}
2 S u0 p2 c0 {3,S}
3 C u0 p0 c0 {1,S} {2,S} {4,S}
4 H u0 p0 c0 {3,S}
5 H u0 p0 c0 {1,S}


>  <multiplicity>  (2) 
1

>  <reaction>  (2) 
rxn_1036

>  <type>  (2) 
r2h

>  <role_mapnums>  (2) 
{"r2h_a": 2, "r2h_h": 5}

>  <role_mapidx>  (2) 
{"r2h_a": 1, "r2h_h": 4}

>  <ordered_mapped_smiles>  (2) 
[S:1]([CH:2]([SH:3])[H:5])[H:4]

>  <mol_properties>  (2) 
{"1": {"label": "acceptor", "atom_type": "Cs"}, "4": {"label": "a_hydrogen", "atom_type": "H0"}}

>  <level_of_theory>  (2) 
wb97xd/def2tzvp

>  <lot_method>  (2) 
wb97xd

>  <lot_basis>  (2) 
def2tzvp

>  <spin_multiplicity>  (2) 
1.0

>  <optical_isomers>  (2) 
1.0

>  <modes>  (2) 
IdealGasTranslation(mass=(77.9598, 'amu')),         NonlinearRotor(             inertia = ([10.0264, 146.145, 156.172

>  <frequency_value>  (2) 
unknown

>  <frequency_units>  (2) 
unknown

>  <frequency_list>  (2) 
unknown

>  <arkane_path>  (2) 
/home/calvin/Dropbox/PersonalFolders/Calvin/HAb_Converged/rxn_1036/output/Species/rxn_1036_SC=S/arkane/output.py

>  <path_exists>  (2) 
True

>  <E0_value>  (2) 
-2194033.905997937

>  <E0_units>  (2) 
kJ/mol

>  <thermo_class>  (2) 
NASA

>  <Cp0_value>  (2) 
33.257888

>  <Cp0_units>  (2) 
J/(mol*K)

>  <CpInf_value>  (2) 
108.088136

>  <CpInf_units>  (2) 
J/(mol*K)

>  <Tmin_value>  (2) 
10.0

>  <Tmin_units>  (2) 
K

>  <Tmax_value>  (2) 
3000.0

>  <Tmax_units>  (2) 
K

>  <polynomials>  (2) 
[{"name": "polynomial1", "class": "NASAPolynomial", "Tmin_value": 10.0, "Tmin_units": "K", "Tmax_value": 580.3286830943368, "Tmax_units": "K", "coeffs": [3.9648023297495008, 0.0020289220414139155, 4.369358946104129e-05, -8.278380096298224e-08, 4.716986387017451e-11, -263881325.33914053, 8.531798064925082]}, {"name": "polynomial2", "class": "NASAPolynomial", "Tmin_value": 580.3286830943368, "Tmin_units": "K", "Tmax_value": 3000.0, "Tmax_units": "K", "coeffs": [3.342559955457952, 0.014541878497382567, -9.906251351887283e-06, 3.2098988226728468e-09, -3.9511271280035685e-13, -263881391.6036389, 10.001993510605669]}]

>  <H298_value>  (2) 
-524383.672613201

>  <H298_units>  (2) 
kcal/mol

>  <S298_value>  (2) 
65.63165597743735

>  <S298_units>  (2) 
cal/(mol*K)

>  <Cp_T_value_list>  (2) 
[13.22051774429784, 15.255249180010175, 16.896823584085716, 18.170157980838923, 20.10594315452046, 21.44786652919708, 23.249248092205388, 24.1618451380613, 24.736369643688864]

>  <Cp_T_units>  (2) 
cal/(mol*K)

>  <T_list>  (2) 
[300.0, 400.0, 500.0, 600.0, 800.0, 1000.0, 1500.0, 2000.0, 2400.0]

>  <T_units>  (2) 
K

>  <yaml_path>  (2) 
/home/calvin/Dropbox/PersonalFolders/Calvin/HAb_Converged/rxn_1036/output/Species/rxn_1036_SC=S/rxn_1036_SC=S.yml

>  <frequencies_cm1>  (2) 
[327.91914998595996, 432.32479479124, 696.55952291952, 858.7233812513199, 949.3950554165998, 1080.49953914604, 1319.23715078116, 2671.27789043596, 3080.76309205288]

>  <ZPE_kJmol>  (2) 
68.28704767958558

>  <E_elec_kJmol>  (2) 
-2194102.1930456166

>  <E0_minus_Eelec_plus_ZPE_kJmol>  (2) 
0.0

>  <rxn>  (2) 
rxn_1036

>  <species_type>  (2) 
p0

>  <species_folder>  (2) 
rxn_1036_SC=S

>  <frequencies_cm1_list>  (2) 
[327.91914998595996, 432.32479479124, 696.55952291952, 858.7233812513199, 949.3950554165998, 1080.49953914604, 1319.23715078116, 2671.27789043596, 3080.76309205288]

>  <E0_kJmol>  (2) 
-2.19403e+06

>  <H298_kJmol>  (2) 
-2.19402e+06

$$$$

     RDKit          3D

 13 11  0  0  0  0  0  0  0  0999 V2000
   -0.1885    1.1571    1.8540 S   0  0  0  0  0  0  0  0  0  1  0  0
   -0.3456    0.0656    0.5589 C   0  0  0  0  0  3  0  0  0  2  0  0
   -1.5557   -0.7729   -0.0417 S   0  0  0  0  0  0  0  0  0  3  0  0
   -1.4591    1.1488    2.3045 H   0  0  0  0  0  0  0  0  0  4  0  0
    1.1349   -0.8655   -3.0242 C   0  0  0  0  0  0  0  0  0  5  0  0
    1.6321   -1.1533   -1.8145 C   0  0  0  0  0  0  0  0  0  6  0  0
    1.9829   -0.1678   -0.8141 C   0  0  0  0  0  0  0  0  0  7  0  0
    0.8464   -1.6453   -3.7163 H   0  0  0  0  0  0  0  0  0  8  0  0
    1.0073    0.1605   -3.3510 H   0  0  0  0  0  0  0  0  0  9  0  0
    1.7293   -2.1966   -1.5294 H   0  0  0  0  0  0  0  0  0 10  0  0
    0.8787   -0.0415   -0.0768 H   0  0  0  0  0  0  0  0  0 11  0  0
    2.1301    0.8473   -1.1780 H   0  0  0  0  0  0  0  0  0 12  0  0
    2.7203   -0.4688   -0.0741 H   0  0  0  0  0  0  0  0  0 13  0  0
  1  2  1  0
  1  4  1  0
  2  3  1  0
  5  8  1  0
  5  6  1  0
  5  9  1  0
  6  7  1  0
  6 10  1  0
  7 13  1  0
  7 12  1  0
  7 11  1  0
M  RAD  1   2   2
M  END
>  <rmg_smiles>  (3) 
[S][C]S.[CH2][CH]C

>  <rmg_adjacency_list>  (3) 
multiplicity 2
1  S u0 p2 c0 {6,S} {13,S}
2  S u0 p2 c0 {6,S}
3  C u0 p0 c0 {4,S} {7,S} {8,S} {9,S}
4  C u0 p0 c0 {3,S} {5,S} {10,S}
5  C u0 p0 c0 {4,S} {11,S} {12,S}
6  C u1 p1 c0 {1,S} {2,S}
7  H u0 p0 c0 {3,S}
8  H u0 p0 c0 {3,S}
9  H u0 p0 c0 {3,S}
10 H u0 p0 c0 {4,S}
11 H u0 p0 c0 {5,S}
12 H u0 p0 c0 {5,S}
13 H u0 p0 c0 {1,S}


>  <multiplicity>  (3) 
2

>  <reaction>  (3) 
rxn_1036

>  <type>  (3) 
ts

>  <role_mapnums>  (3) 
{"*2": 11, "*1": 7, "*3": 2, "*0": 6, "*4": 1}

>  <role_mapidx>  (3) 
{"*2": 10, "*1": 6, "*3": 1, "*0": 5, "*4": 0}

>  <ordered_mapped_smiles>  (3) 
[S:1]([CH:2][SH:3])[H:4].[CH:5]([CH:6]([C:7]([H:11])([H:12])[H:13])[H:10])([H:8])[H:9]

>  <mol_properties>  (3) 
{"0": {"label": "*4", "atom_type": "S2s"}, "1": {"label": "*3", "atom_type": "C2s"}, "5": {"label": "*0", "atom_type": "Cs"}, "6": {"label": "*1", "atom_type": "Cs"}, "10": {"label": "*2", "atom_type": "H0"}}

>  <level_of_theory>  (3) 
wb97xd/def2tzvp

>  <lot_method>  (3) 
wb97xd

>  <lot_basis>  (3) 
def2tzvp

>  <spin_multiplicity>  (3) 
2.0

>  <optical_isomers>  (3) 
2.0

>  <modes>  (3) 
IdealGasTranslation(mass=(118.999, 'amu')),         NonlinearRotor(             inertia = ([163.444, 444.075, 579.45

>  <frequency_value>  (3) 
-1811.07

>  <frequency_units>  (3) 
cm^-1

>  <frequency_list>  (3) 
unknown

>  <arkane_path>  (3) 
/home/calvin/Dropbox/PersonalFolders/Calvin/HAb_Converged/rxn_1036/output/rxns/TS0/arkane/output.py

>  <path_exists>  (3) 
True

>  <E0_value>  (3) 
-2501660.0

>  <E0_units>  (3) 
kJ/mol

>  <thermo_class>  (3) 
unknown

>  <Cp0_value>  (3) 
unknown

>  <Cp0_units>  (3) 
unknown

>  <CpInf_value>  (3) 
unknown

>  <CpInf_units>  (3) 
unknown

>  <Tmin_value>  (3) 
unknown

>  <Tmin_units>  (3) 
unknown

>  <Tmax_value>  (3) 
unknown

>  <Tmax_units>  (3) 
unknown

>  <polynomials>  (3) 
unknown

>  <H298_value>  (3) 
unknown

>  <H298_units>  (3) 
unknown

>  <S298_value>  (3) 
unknown

>  <S298_units>  (3) 
unknown

>  <Cp_T_value_list>  (3) 
unknown

>  <Cp_T_units>  (3) 
unknown

>  <T_list>  (3) 
unknown

>  <T_units>  (3) 
unknown

>  <yaml_path>  (3) 
unknown

>  <frequencies_cm1>  (3) 
unknown

>  <ZPE_kJmol>  (3) 
unknown

>  <E_elec_kJmol>  (3) 
unknown

>  <E0_minus_Eelec_plus_ZPE_kJmol>  (3) 
unknown

>  <rxn>  (3) 
unknown

>  <species_type>  (3) 
unknown

>  <species_folder>  (3) 
unknown

>  <frequencies_cm1_list>  (3) 
[]

>  <ts_imag_freq_cm1>  (3) 
-1833.07

>  <ts_freq_out_path>  (3) 
/home/calvin/Dropbox/PersonalFolders/Calvin/HAb_Converged/rxn_1036/output/rxns/TS0/geometry/freq.out

>  <E0_kJmol>  (3) 
-2.50166e+06

>  <H298_kJmol>  (3) 
unknown

$$$$

     RDKit          3D

  8  7  0  0  0  0  0  0  0  0999 V2000
   -1.2262   -0.1032    0.0429 C   0  0  0  0  0  0  0  0  0  1  0  0
    0.0344    0.4295    0.2005 C   0  0  0  0  0  0  0  0  0  2  0  0
    1.2024   -0.1933   -0.1813 C   0  0  0  0  0  3  0  0  0  3  0  0
   -2.1090    0.4329    0.3624 H   0  0  0  0  0  0  0  0  0  4  0  0
   -1.3659   -1.0784   -0.4078 H   0  0  0  0  0  0  0  0  0  5  0  0
    0.1132    1.4113    0.6589 H   0  0  0  0  0  0  0  0  0  6  0  0
    2.1658    0.2743   -0.0323 H   0  0  0  0  0  0  0  0  0  7  0  0
    1.1853   -1.1731   -0.6434 H   0  0  0  0  0  0  0  0  0  8  0  0
  1  5  1  0
  1  4  1  0
  1  2  1  0
  2  6  1  0
  2  3  1  0
  3  8  1  0
  3  7  1  0
M  RAD  1   3   2
M  END
>  <rmg_smiles>  (4) 
[CH2][CH][CH2]

>  <rmg_adjacency_list>  (4) 
multiplicity 2
1 C u0 p0 c0 {2,S} {3,S} {4,S}
2 C u1 p0 c0 {1,S} {7,S} {8,S}
3 C u0 p0 c0 {1,S} {5,S} {6,S}
4 H u0 p0 c0 {1,S}
5 H u0 p0 c0 {3,S}
6 H u0 p0 c0 {3,S}
7 H u0 p0 c0 {2,S}
8 H u0 p0 c0 {2,S}


>  <multiplicity>  (4) 
2

>  <reaction>  (4) 
rxn_1036

>  <type>  (4) 
r1

>  <role_mapnums>  (4) 
{}

>  <role_mapidx>  (4) 
{}

>  <ordered_mapped_smiles>  (4) 
[CH:1]([CH:2]([C:3]([H:7])[H:8])[H:6])([H:4])[H:5]

>  <level_of_theory>  (4) 
wb97xd/def2tzvp

>  <lot_method>  (4) 
wb97xd

>  <lot_basis>  (4) 
def2tzvp

>  <spin_multiplicity>  (4) 
2.0

>  <optical_isomers>  (4) 
1.0

>  <modes>  (4) 
IdealGasTranslation(mass=(41.0391, 'amu')),         NonlinearRotor(             inertia = ([9.18678, 48.3525, 57.5393

>  <frequency_value>  (4) 
unknown

>  <frequency_units>  (4) 
unknown

>  <frequency_list>  (4) 
unknown

>  <arkane_path>  (4) 
/home/calvin/Dropbox/PersonalFolders/Calvin/HAb_Converged/rxn_1036/output/Species/rxn_1036_[CH2]C=C/arkane/output.py

>  <path_exists>  (4) 
True

>  <E0_value>  (4) 
-307695.8239419476

>  <E0_units>  (4) 
kJ/mol

>  <thermo_class>  (4) 
NASA

>  <Cp0_value>  (4) 
33.257888

>  <Cp0_units>  (4) 
J/(mol*K)

>  <CpInf_value>  (4) 
182.918384

>  <CpInf_units>  (4) 
J/(mol*K)

>  <Tmin_value>  (4) 
10.0

>  <Tmin_units>  (4) 
K

>  <Tmax_value>  (4) 
3000.0

>  <Tmax_units>  (4) 
K

>  <polynomials>  (4) 
[{"name": "polynomial1", "class": "NASAPolynomial", "Tmin_value": 10.0, "Tmin_units": "K", "Tmax_value": 532.7267436952769, "Tmax_units": "K", "coeffs": [4.120476242700736, -0.01110500746607337, 0.00013118962632593044, -2.295122998736072e-07, 1.327617546042694e-10, -37007258.9235638, 6.732627685136077]}, {"name": "polynomial2", "class": "NASAPolynomial", "Tmin_value": 532.7267436952769, "Tmin_units": "K", "Tmax_value": 3000.0, "Tmax_units": "K", "coeffs": [0.911699466954835, 0.027118425571894478, -1.6222639840263127e-05, 4.752540164453407e-09, -5.404199600895895e-13, -37007117.54936121, 18.310519838179516]}]

>  <H298_value>  (4) 
-73538.08078140329

>  <H298_units>  (4) 
kcal/mol

>  <S298_value>  (4) 
61.52456331648896

>  <S298_units>  (4) 
cal/(mol*K)

>  <Cp_T_value_list>  (4) 
[14.853530963099974, 18.637467651362382, 21.80750730434748, 24.44088072021761, 28.68710434193412, 31.834263999492475, 36.54938793194129, 39.012029638884556, 40.38558701326713]

>  <Cp_T_units>  (4) 
cal/(mol*K)

>  <T_list>  (4) 
[300.0, 400.0, 500.0, 600.0, 800.0, 1000.0, 1500.0, 2000.0, 2400.0]

>  <T_units>  (4) 
K

>  <yaml_path>  (4) 
/home/calvin/Dropbox/PersonalFolders/Calvin/HAb_Converged/rxn_1036/output/Species/rxn_1036_[CH2]C=C/rxn_1036_CH2C=C.yml

>  <frequencies_cm1>  (4) 
[432.19432207015996, 530.70122648556, 552.78545127468, 794.8604177753199, 818.87426543936, 934.1091460942799, 1008.91808417036, 1035.1568350780801, 1186.33351689788, 1269.2386306662397, 1410.5886564931197, 1500.8483115392, 1510.5101598844399, 3121.9787379435197, 3123.6542823616, 3129.68349547256, 3223.1843675896794, 3225.69081723148]

>  <ZPE_kJmol>  (4) 
172.31799451557927

>  <E_elec_kJmol>  (4) 
-307868.1419364632

>  <E0_minus_Eelec_plus_ZPE_kJmol>  (4) 
0.0

>  <rxn>  (4) 
rxn_1036

>  <species_type>  (4) 
p1

>  <species_folder>  (4) 
rxn_1036_[CH2]C=C

>  <frequencies_cm1_list>  (4) 
[432.19432207015996, 530.70122648556, 552.78545127468, 794.8604177753199, 818.87426543936, 934.1091460942799, 1008.91808417036, 1035.1568350780801, 1186.33351689788, 1269.2386306662397, 1410.5886564931197, 1500.8483115392, 1510.5101598844399, 3121.9787379435197, 3123.6542823616, 3129.68349547256, 3223.1843675896794, 3225.69081723148]

>  <E0_kJmol>  (4) 
-307696

>  <H298_kJmol>  (4) 
-307683

$$$$

     RDKit          3D

  4  3  0  0  0  0  0  0  0  0999 V2000
   -0.7528   -0.8706   -0.3839 S   0  0  0  0  0  0  0  0  0  1  0  0
    0.7502   -0.2564   -0.0649 C   0  0  0  0  0  3  0  0  0  2  0  0
    1.5655    0.9691    0.4633 S   0  0  0  0  0  0  0  0  0  3  0  0
   -1.5629    0.1579   -0.0146 H   0  0  0  0  0  0  0  0  0  4  0  0
  1  2  1  0
  1  4  1  0
  2  3  1  0
M  RAD  1   2   2
M  END
>  <rmg_smiles>  (5) 
[S][C]S

>  <rmg_adjacency_list>  (5) 
multiplicity 2
1 S u0 p2 c0 {3,S} {4,S}
2 S u0 p2 c0 {3,S}
3 C u1 p1 c0 {1,S} {2,S}
4 H u0 p0 c0 {1,S}


>  <multiplicity>  (5) 
2

>  <reaction>  (5) 
rxn_1036

>  <type>  (5) 
r2

>  <role_mapnums>  (5) 
{}

>  <role_mapidx>  (5) 
{}

>  <ordered_mapped_smiles>  (5) 
[S:1]([CH:2][SH:3])[H:4]

>  <level_of_theory>  (5) 
wb97xd/def2tzvp

>  <lot_method>  (5) 
wb97xd

>  <lot_basis>  (5) 
def2tzvp

>  <spin_multiplicity>  (5) 
2.0

>  <optical_isomers>  (5) 
1.0

>  <modes>  (5) 
IdealGasTranslation(mass=(76.952, 'amu')),         NonlinearRotor(             inertia = ([4.22571, 153.623, 157.849

>  <frequency_value>  (5) 
unknown

>  <frequency_units>  (5) 
unknown

>  <frequency_list>  (5) 
unknown

>  <arkane_path>  (5) 
/home/calvin/Dropbox/PersonalFolders/Calvin/HAb_Converged/rxn_1036/output/Species/rxn_1036_S[C]=S/arkane/output.py

>  <path_exists>  (5) 
True

>  <E0_value>  (5) 
-2192356.0916103646

>  <E0_units>  (5) 
kJ/mol

>  <thermo_class>  (5) 
NASA

>  <Cp0_value>  (5) 
33.257888

>  <Cp0_units>  (5) 
J/(mol*K)

>  <CpInf_value>  (5) 
83.14472

>  <CpInf_units>  (5) 
J/(mol*K)

>  <Tmin_value>  (5) 
10.0

>  <Tmin_units>  (5) 
K

>  <Tmax_value>  (5) 
3000.0

>  <Tmax_units>  (5) 
K

>  <polynomials>  (5) 
[{"name": "polynomial1", "class": "NASAPolynomial", "Tmin_value": 10.0, "Tmin_units": "K", "Tmax_value": 481.6514963883675, "Tmax_units": "K", "coeffs": [3.9517586254338513, 0.00319450782852083, 4.0406317044972455e-05, -1.0200918624138463e-07, 7.422315850279269e-11, -263679531.5552502, 9.007005229270508]}, {"name": "polynomial2", "class": "NASAPolynomial", "Tmin_value": 481.6514963883675, "Tmin_units": "K", "Tmax_value": 3000.0, "Tmax_units": "K", "coeffs": [4.350289465934482, 0.00903355618801913, -6.269961593820697e-06, 2.0329790861318483e-09, -2.489707632901742e-13, -263679676.06594586, 6.273837374430621]}]

>  <H298_value>  (5) 
-523982.679250146

>  <H298_units>  (5) 
kcal/mol

>  <S298_value>  (5) 
66.5974874736004

>  <S298_units>  (5) 
cal/(mol*K)

>  <Cp_T_value_list>  (5) 
[12.705481111540664, 14.041794733904966, 14.979838576614517, 15.738862039866001, 16.897745203822076, 17.68194958825418, 18.668016766310146, 19.112665855390723, 19.394133951552263]

>  <Cp_T_units>  (5) 
cal/(mol*K)

>  <T_list>  (5) 
[300.0, 400.0, 500.0, 600.0, 800.0, 1000.0, 1500.0, 2000.0, 2400.0]

>  <T_units>  (5) 
K

>  <yaml_path>  (5) 
/home/calvin/Dropbox/PersonalFolders/Calvin/HAb_Converged/rxn_1036/output/Species/rxn_1036_S[C]=S/rxn_1036_SC=S.yml

>  <frequencies_cm1>  (5) 
[235.08437544487998, 441.86303740072, 611.8689929679599, 952.4165289574, 1320.6586167424, 2476.79799918824]

>  <ZPE_kJmol>  (5) 
36.119394970298

>  <E_elec_kJmol>  (5) 
-2192392.2110053347

>  <E0_minus_Eelec_plus_ZPE_kJmol>  (5) 
0.0

>  <rxn>  (5) 
rxn_1036

>  <species_type>  (5) 
r0

>  <species_folder>  (5) 
rxn_1036_S[C]=S

>  <frequencies_cm1_list>  (5) 
[235.08437544487998, 441.86303740072, 611.8689929679599, 952.4165289574, 1320.6586167424, 2476.79799918824]

>  <E0_kJmol>  (5) 
-2.19236e+06

>  <H298_kJmol>  (5) 
-2.19234e+06

$$$$
