
     RDKit          3D

 14 13  0  0  0  0  0  0  0  0999 V2000
    0.3262   -0.1331   -1.4233 C   0  0  0  0  0  0  0  0  0  1  0  0
    0.1983   -0.1577    0.0779 C   0  0  0  0  0  0  0  0  0  2  0  0
    0.5000    1.1569    0.7495 C   0  0  0  0  0  0  0  0  0  3  0  0
   -1.0233   -0.8700    0.5981 C   0  0  0  0  0  0  0  0  0  4  0  0
    1.2958    0.2663   -1.7284 H   0  0  0  0  0  0  0  0  0  5  0  0
   -0.4501    0.4994   -1.8716 H   0  0  0  0  0  0  0  0  0  6  0  0
    0.2200   -1.1340   -1.8479 H   0  0  0  0  0  0  0  0  0  7  0  0
    1.0356   -0.7851    0.3834 H   0  0  0  0  0  0  0  0  0  8  0  0
   -0.2588    1.9080    0.4967 H   0  0  0  0  0  0  0  0  0  9  0  0
    0.5113    1.0544    1.8371 H   0  0  0  0  0  0  0  0  0 10  0  0
    1.4702    1.5464    0.4340 H   0  0  0  0  0  0  0  0  0 11  0  0
   -1.1144   -1.8698    0.1678 H   0  0  0  0  0  0  0  0  0 12  0  0
   -1.9360   -0.3176    0.3423 H   0  0  0  0  0  0  0  0  0 13  0  0
   -0.9939   -0.9677    1.6855 H   0  0  0  0  0  0  0  0  0 14  0  0
  1  5  1  0
  1  7  1  0
  1  6  1  0
  1  2  1  0
  2  8  1  0
  2  3  1  0
  2  4  1  0
  3 11  1  0
  3  9  1  0
  3 10  1  0
  4 14  1  0
  4 13  1  0
  4 12  1  0
M  END
>  <rmg_smiles>  (1) 
CC(C)C

>  <rmg_adjacency_list>  (1) 
1  C u0 p0 c0 {2,S} {3,S} {4,S} {5,S}
2  C u0 p0 c0 {1,S} {6,S} {7,S} {8,S}
3  C u0 p0 c0 {1,S} {9,S} {10,S} {11,S}
4  C u0 p0 c0 {1,S} {12,S} {13,S} {14,S}
5  H u0 p0 c0 {1,S}
6  H u0 p0 c0 {2,S}
7  H u0 p0 c0 {2,S}
8  H u0 p0 c0 {2,S}
9  H u0 p0 c0 {3,S}
10 H u0 p0 c0 {3,S}
11 H u0 p0 c0 {3,S}
12 H u0 p0 c0 {4,S}
13 H u0 p0 c0 {4,S}
14 H u0 p0 c0 {4,S}


>  <multiplicity>  (1) 
1

>  <reaction>  (1) 
rxn_966

>  <type>  (1) 
r1h

>  <role_mapnums>  (1) 
{"r1h_a": 2, "r1h_h": 8}

>  <role_mapidx>  (1) 
{"r1h_a": 1, "r1h_h": 7}

>  <ordered_mapped_smiles>  (1) 
[C:1]([C:2]([C:3]([H:9])([H:10])[H:11])([C:4]([H:12])([H:13])[H:14])[H:8])([H:5])([H:6])[H:7]

>  <mol_properties>  (1) 
{"1": {"label": "donator", "atom_type": "Cs"}, "7": {"label": "d_hydrogen", "atom_type": "H0"}}

>  <level_of_theory>  (1) 
wb97xd/def2tzvp

>  <lot_method>  (1) 
wb97xd

>  <lot_basis>  (1) 
def2tzvp

>  <spin_multiplicity>  (1) 
1.0

>  <optical_isomers>  (1) 
1.0

>  <modes>  (1) 
IdealGasTranslation(mass=(58.0782, 'amu')),         NonlinearRotor(             inertia = ([64.472, 64.4729, 111.216

>  <frequency_value>  (1) 
unknown

>  <frequency_units>  (1) 
unknown

>  <frequency_list>  (1) 
unknown

>  <arkane_path>  (1) 
/home/calvin/Dropbox/PersonalFolders/Calvin/HAb_Converged/rxn_966/output/Species/rxn_966_CC[C]C/arkane/output.py

>  <path_exists>  (1) 
True

>  <E0_value>  (1) 
-415716.8519634644

>  <E0_units>  (1) 
kJ/mol

>  <thermo_class>  (1) 
NASA

>  <Cp0_value>  (1) 
33.257888

>  <Cp0_units>  (1) 
J/(mol*K)

>  <CpInf_value>  (1) 
332.57888

>  <CpInf_units>  (1) 
J/(mol*K)

>  <Tmin_value>  (1) 
10.0

>  <Tmin_units>  (1) 
K

>  <Tmax_value>  (1) 
3000.0

>  <Tmax_units>  (1) 
K

>  <polynomials>  (1) 
[{"name": "polynomial1", "class": "NASAPolynomial", "Tmin_value": 10.0, "Tmin_units": "K", "Tmax_value": 538.361518063432, "Tmax_units": "K", "coeffs": [3.8620273297519874, 0.009624005046764982, 8.478722349648098e-05, -1.310448710563352e-07, 6.337733125143041e-11, -49999183.94545666, 7.55861667586305]}, {"name": "polynomial2", "class": "NASAPolynomial", "Tmin_value": 538.361518063432, "Tmin_units": "K", "Tmax_value": 3000.0, "Tmax_units": "K", "coeffs": [-1.5217465048950003, 0.04962542677853034, -2.66666880380791e-05, 6.9721610958662794e-09, -7.142994318022737e-13, -49998604.26564635, 30.198413383347248]}]

>  <H298_value>  (1) 
-99354.5350892227

>  <H298_units>  (1) 
kcal/mol

>  <S298_value>  (1) 
69.87534998772036

>  <S298_units>  (1) 
cal/(mol*K)

>  <Cp_T_value_list>  (1) 
[22.565174601035885, 28.84067181523572, 34.67935677843375, 39.87710485398204, 48.4661462918201, 55.035393712352615, 65.24247025949738, 70.3686768049811, 72.85808231715849]

>  <Cp_T_units>  (1) 
cal/(mol*K)

>  <T_list>  (1) 
[300.0, 400.0, 500.0, 600.0, 800.0, 1000.0, 1500.0, 2000.0, 2400.0]

>  <T_units>  (1) 
K

>  <yaml_path>  (1) 
/home/calvin/Dropbox/PersonalFolders/Calvin/HAb_Converged/rxn_966/output/Species/rxn_966_CC[C]C/rxn_966_CCCC.yml

>  <frequencies_cm1>  (1) 
[211.07052778083997, 262.12656363504004, 262.61411959276, 368.89445139040004, 369.19659874447996, 434.55656502024, 803.9385723683599, 924.2069532628399, 924.6464403233199, 953.60451741776, 975.9153527224399, 976.30677088568, 1191.00306691548, 1191.078603754, 1204.0572060088, 1353.0364525261998, 1353.07765443812, 1393.06410995648, 1393.2769865014, 1417.1191595324399, 1467.52283178124, 1473.9091281288397, 1474.0945367324798, 1492.37445165432, 1492.58046121392, 1500.65603595024, 2997.83737732856, 3000.2545561612, 3000.33009299972, 3005.7275434612397, 3068.8557395079997, 3068.9038084052395, 3077.59054483504, 3080.2343341832393, 3083.9081713294395, 3083.963107212]

>  <ZPE_kJmol>  (1) 
342.9188206335111

>  <E_elec_kJmol>  (1) 
-416059.7707840979

>  <E0_minus_Eelec_plus_ZPE_kJmol>  (1) 
0.0

>  <rxn>  (1) 
rxn_966

>  <species_type>  (1) 
r1

>  <species_folder>  (1) 
rxn_966_CC[C]C

>  <frequencies_cm1_list>  (1) 
[211.07052778083997, 262.12656363504004, 262.61411959276, 368.89445139040004, 369.19659874447996, 434.55656502024, 803.9385723683599, 924.2069532628399, 924.6464403233199, 953.60451741776, 975.9153527224399, 976.30677088568, 1191.00306691548, 1191.078603754, 1204.0572060088, 1353.0364525261998, 1353.07765443812, 1393.06410995648, 1393.2769865014, 1417.1191595324399, 1467.52283178124, 1473.9091281288397, 1474.0945367324798, 1492.37445165432, 1492.58046121392, 1500.65603595024, 2997.83737732856, 3000.2545561612, 3000.33009299972, 3005.7275434612397, 3068.8557395079997, 3068.9038084052395, 3077.59054483504, 3080.2343341832393, 3083.9081713294395, 3083.963107212]

>  <E0_kJmol>  (1) 
-415717

>  <H298_kJmol>  (1) 
-415699

$$$$

     RDKit          3D

 15 15  0  0  0  0  0  0  0  0999 V2000
   -1.8473   -1.3432    0.7920 C   0  0  0  0  0  0  0  0  0  1  0  0
   -0.7015   -0.5604    0.3272 C   0  0  0  0  0  0  0  0  0  2  0  0
   -0.1095    0.4077    1.1452 C   0  0  0  0  0  0  0  0  0  3  0  0
    0.9260    1.1998    0.6811 C   0  0  0  0  0  0  0  0  0  4  0  0
    1.3973    1.0480   -0.6158 C   0  0  0  0  0  0  0  0  0  5  0  0
    0.8218    0.0917   -1.4411 C   0  0  0  0  0  0  0  0  0  6  0  0
   -0.2136   -0.7003   -0.9764 C   0  0  0  0  0  0  0  0  0  7  0  0
   -1.9406   -1.4397    1.8712 H   0  0  0  0  0  0  0  0  0  8  0  0
   -2.0109   -2.2852    0.2739 H   0  0  0  0  0  0  0  0  0  9  0  0
   -0.4726    0.5356    2.1587 H   0  0  0  0  0  0  0  0  0 10  0  0
    1.3701    1.9401    1.3352 H   0  0  0  0  0  0  0  0  0 11  0  0
    2.2078    1.6668   -0.9786 H   0  0  0  0  0  0  0  0  0 12  0  0
    1.1841   -0.0382   -2.4535 H   0  0  0  0  0  0  0  0  0 13  0  0
   -0.6581   -1.4431   -1.6291 H   0  0  0  0  0  0  0  0  0 14  0  0
   -2.7334   -0.7715    0.5262 H   0  0  0  0  0  0  0  0  0 15  0  0
  1 15  1  0
  1  8  1  0
  1  9  1  0
  1  2  1  0
  2  7  1  0
  2  3  1  0
  3  4  1  0
  3 10  1  0
  4  5  1  0
  4 11  1  0
  5 12  1  0
  5  6  1  0
  6 13  1  0
  6  7  1  0
  7 14  1  0
M  END
>  <rmg_smiles>  (2) 
CC1[CH][CH][CH][CH][CH]1

>  <rmg_adjacency_list>  (2) 
1  C u0 p0 c0 {2,S} {8,S} {9,S} {10,S}
2  C u0 p0 c0 {1,S} {3,S} {4,S}
3  C u0 p0 c0 {2,S} {5,S} {11,S}
4  C u0 p0 c0 {2,S} {7,S} {15,S}
5  C u0 p0 c0 {3,S} {6,S} {12,S}
6  C u0 p0 c0 {5,S} {7,S} {13,S}
7  C u0 p0 c0 {4,S} {6,S} {14,S}
8  H u0 p0 c0 {1,S}
9  H u0 p0 c0 {1,S}
10 H u0 p0 c0 {1,S}
11 H u0 p0 c0 {3,S}
12 H u0 p0 c0 {5,S}
13 H u0 p0 c0 {6,S}
14 H u0 p0 c0 {7,S}
15 H u0 p0 c0 {4,S}


>  <multiplicity>  (2) 
1

>  <reaction>  (2) 
rxn_966

>  <type>  (2) 
r2h

>  <role_mapnums>  (2) 
{"r2h_a": 1, "r2h_h": 15}

>  <role_mapidx>  (2) 
{"r2h_a": 0, "r2h_h": 14}

>  <ordered_mapped_smiles>  (2) 
[C:1]([CH:2]1[CH:3]([H:10])[CH:4]([H:11])[CH:5]([H:12])[CH:6]([H:13])[CH:7]1[H:14])([H:8])([H:9])[H:15]

>  <mol_properties>  (2) 
{"0": {"label": "acceptor", "atom_type": "Cs"}, "14": {"label": "a_hydrogen", "atom_type": "H0"}}

>  <level_of_theory>  (2) 
wb97xd/def2tzvp

>  <lot_method>  (2) 
wb97xd

>  <lot_basis>  (2) 
def2tzvp

>  <spin_multiplicity>  (2) 
1.0

>  <optical_isomers>  (2) 
1.0

>  <modes>  (2) 
IdealGasTranslation(mass=(92.0626, 'amu')),         NonlinearRotor(             inertia = ([90.1823, 198.896, 285.945

>  <frequency_value>  (2) 
unknown

>  <frequency_units>  (2) 
unknown

>  <frequency_list>  (2) 
unknown

>  <arkane_path>  (2) 
/home/calvin/Dropbox/PersonalFolders/Calvin/HAb_Converged/rxn_966/output/Species/rxn_966_Cc1ccccc1/arkane/output.py

>  <path_exists>  (2) 
True

>  <E0_value>  (2) 
-712667.4186954657

>  <E0_units>  (2) 
kJ/mol

>  <thermo_class>  (2) 
NASA

>  <Cp0_value>  (2) 
33.257888

>  <Cp0_units>  (2) 
J/(mol*K)

>  <CpInf_value>  (2) 
357.522296

>  <CpInf_units>  (2) 
J/(mol*K)

>  <Tmin_value>  (2) 
10.0

>  <Tmin_units>  (2) 
K

>  <Tmax_value>  (2) 
3000.0

>  <Tmax_units>  (2) 
K

>  <polynomials>  (2) 
[{"name": "polynomial1", "class": "NASAPolynomial", "Tmin_value": 10.0, "Tmin_units": "K", "Tmax_value": 551.6404107050422, "Tmax_units": "K", "coeffs": [3.9807877443631, 0.00035561988080208296, 0.00017407945539970812, -2.980514466570864e-07, 1.625970399361135e-10, -85714089.32981402, 11.957872909957874]}, {"name": "polynomial2", "class": "NASAPolynomial", "Tmin_value": 551.6404107050422, "Tmin_units": "K", "Tmax_value": 3000.0, "Tmax_units": "K", "coeffs": [-2.4640727136101863, 0.06292197006651765, -3.910390273638268e-05, 1.1617229825521433e-08, -1.3239176957032157e-12, -85713619.20098881, 37.03314537917204]}]

>  <H298_value>  (2) 
-170327.1711088113

>  <H298_units>  (2) 
kcal/mol

>  <S298_value>  (2) 
79.81344471114225

>  <S298_units>  (2) 
cal/(mol*K)

>  <Cp_T_value_list>  (2) 
[25.881917309628086, 33.90758568479932, 40.90534559010948, 46.79761268221675, 56.14404960423432, 62.889733704082204, 72.41563025517803, 76.9434671339039, 79.45318395865998]

>  <Cp_T_units>  (2) 
cal/(mol*K)

>  <T_list>  (2) 
[300.0, 400.0, 500.0, 600.0, 800.0, 1000.0, 1500.0, 2000.0, 2400.0]

>  <T_units>  (2) 
K

>  <yaml_path>  (2) 
/home/calvin/Dropbox/PersonalFolders/Calvin/HAb_Converged/rxn_966/output/Species/rxn_966_Cc1ccccc1/rxn_966_Cc1ccccc1.yml

>  <frequencies_cm1>  (2) 
[32.67311615255999, 208.88682644908, 346.6454189536, 414.1066827372799, 475.62800421915995, 527.95443235756, 633.69913930024, 711.73556047672, 745.6928028841199, 800.1617304423601, 861.8684605278798, 915.5202168330399, 979.4449831769199, 991.60641417864, 997.6768292015198, 1015.82627140228, 1052.7363174972797, 1058.5389200926797, 1109.8078324918, 1173.8974064833599, 1201.1112693065197, 1232.0058362611999, 1316.04400260736, 1349.7815014845198, 1404.03755249784, 1462.1391152903598, 1476.8481978457999, 1495.6225357106798, 1530.4999541509599, 1640.12450779944, 1663.1975784746398, 3015.0391755551595, 3079.01201079628, 3101.631860440359, 3145.0655425893597, 3146.5282104625194, 3159.5205466879593, 3168.9008486350795, 3181.02107772488]

>  <ZPE_kJmol>  (2) 
333.8912309447283

>  <E_elec_kJmol>  (2) 
-713001.3099264104

>  <E0_minus_Eelec_plus_ZPE_kJmol>  (2) 
0.0

>  <rxn>  (2) 
rxn_966

>  <species_type>  (2) 
p0

>  <species_folder>  (2) 
rxn_966_Cc1ccccc1

>  <frequencies_cm1_list>  (2) 
[32.67311615255999, 208.88682644908, 346.6454189536, 414.1066827372799, 475.62800421915995, 527.95443235756, 633.69913930024, 711.73556047672, 745.6928028841199, 800.1617304423601, 861.8684605278798, 915.5202168330399, 979.4449831769199, 991.60641417864, 997.6768292015198, 1015.82627140228, 1052.7363174972797, 1058.5389200926797, 1109.8078324918, 1173.8974064833599, 1201.1112693065197, 1232.0058362611999, 1316.04400260736, 1349.7815014845198, 1404.03755249784, 1462.1391152903598, 1476.8481978457999, 1495.6225357106798, 1530.4999541509599, 1640.12450779944, 1663.1975784746398, 3015.0391755551595, 3079.01201079628, 3101.631860440359, 3145.0655425893597, 3146.5282104625194, 3159.5205466879593, 3168.9008486350795, 3181.02107772488]

>  <E0_kJmol>  (2) 
-712667

>  <H298_kJmol>  (2) 
-712649

$$$$

     RDKit          3D

 28 27  0  0  0  0  0  0  0  0999 V2000
   -0.2855   -1.4616    0.7926 C   0  0  0  0  0  0  0  0  0  1  0  0
    0.8602   -0.6789    0.3278 C   0  0  0  0  0  0  0  0  0  2  0  0
    1.4522    0.2892    1.1458 C   0  0  0  0  0  0  0  0  0  3  0  0
    2.4878    1.0813    0.6817 C   0  0  0  0  0  0  0  0  0  4  0  0
    2.9590    0.9295   -0.6152 C   0  0  0  0  0  0  0  0  0  5  0  0
    2.3836   -0.0268   -1.4405 C   0  0  0  0  0  0  0  0  0  6  0  0
    1.3481   -0.8187   -0.9758 C   0  0  0  0  0  0  0  0  0  7  0  0
   -0.3789   -1.5582    1.8718 H   0  0  0  0  0  0  0  0  0  8  0  0
   -0.4491   -2.4037    0.2745 H   0  0  0  0  0  0  0  0  0  9  0  0
    1.0891    0.4171    2.1593 H   0  0  0  0  0  0  0  0  0 10  0  0
    2.9318    1.8216    1.3357 H   0  0  0  0  0  0  0  0  0 11  0  0
    3.7696    1.5483   -0.9781 H   0  0  0  0  0  0  0  0  0 12  0  0
    2.7459   -0.1567   -2.4529 H   0  0  0  0  0  0  0  0  0 13  0  0
    0.9036   -1.5616   -1.6285 H   0  0  0  0  0  0  0  0  0 14  0  0
   -2.2859    0.0445   -1.4148 C   0  0  0  0  0  0  0  0  0 15  0  0
   -2.4138    0.0200    0.0864 C   0  0  0  0  0  3  0  0  0 16  0  0
   -2.1121    1.3346    0.7581 C   0  0  0  0  0  0  0  0  0 17  0  0
   -3.6354   -0.6924    0.6066 C   0  0  0  0  0  0  0  0  0 18  0  0
   -1.3164    0.4440   -1.7199 H   0  0  0  0  0  0  0  0  0 19  0  0
   -3.0623    0.6770   -1.8630 H   0  0  0  0  0  0  0  0  0 20  0  0
   -2.3922   -0.9564   -1.8394 H   0  0  0  0  0  0  0  0  0 21  0  0
   -1.3710   -0.7614    0.4670 H   0  0  0  0  0  0  0  0  0 22  0  0
   -2.8709    2.0856    0.5053 H   0  0  0  0  0  0  0  0  0 23  0  0
   -2.1009    1.2321    1.8456 H   0  0  0  0  0  0  0  0  0 24  0  0
   -1.1419    1.7240    0.4425 H   0  0  0  0  0  0  0  0  0 25  0  0
   -3.7266   -1.6921    0.1763 H   0  0  0  0  0  0  0  0  0 26  0  0
   -4.5481   -0.1399    0.3508 H   0  0  0  0  0  0  0  0  0 27  0  0
   -3.6060   -0.7901    1.6941 H   0  0  0  0  0  0  0  0  0 28  0  0
  1 22  1  0
  1  8  1  0
  1  9  1  0
  1  2  1  0
  2  3  1  0
  2  7  1  0
  3  4  1  0
  3 10  1  0
  4 11  1  0
  4  5  1  0
  5 12  1  0
  5  6  1  0
  6  7  1  0
  6 13  1  0
  7 14  1  0
 15 20  1  0
 15 16  1  0
 15 19  1  0
 15 21  1  0
 16 17  1  0
 16 18  1  0
 17 23  1  0
 17 24  1  0
 17 25  1  0
 18 28  1  0
 18 27  1  0
 18 26  1  0
M  RAD  1  16   2
M  END
>  <rmg_smiles>  (3) 
CC1[CH][CH][CH][CH][CH]1.C[C](C)C

>  <rmg_adjacency_list>  (3) 
multiplicity 2
1  C u0 p0 c0 {5,S} {14,S} {15,S} {16,S}
2  C u0 p0 c0 {5,S} {18,S} {19,S} {20,S}
3  C u0 p0 c0 {5,S} {21,S} {22,S} {23,S}
4  C u0 p0 c0 {6,S} {12,S} {13,S} {17,S}
5  C u1 p0 c0 {1,S} {2,S} {3,S}
6  C u0 p0 c0 {4,S} {7,S} {8,S}
7  C u0 p0 c0 {6,S} {9,S} {24,S}
8  C u0 p0 c0 {6,S} {11,S} {28,S}
9  C u0 p0 c0 {7,S} {10,S} {25,S}
10 C u0 p0 c0 {9,S} {11,S} {26,S}
11 C u0 p0 c0 {8,S} {10,S} {27,S}
12 H u0 p0 c0 {4,S}
13 H u0 p0 c0 {4,S}
14 H u0 p0 c0 {1,S}
15 H u0 p0 c0 {1,S}
16 H u0 p0 c0 {1,S}
17 H u0 p0 c0 {4,S}
18 H u0 p0 c0 {2,S}
19 H u0 p0 c0 {2,S}
20 H u0 p0 c0 {2,S}
21 H u0 p0 c0 {3,S}
22 H u0 p0 c0 {3,S}
23 H u0 p0 c0 {3,S}
24 H u0 p0 c0 {7,S}
25 H u0 p0 c0 {9,S}
26 H u0 p0 c0 {10,S}
27 H u0 p0 c0 {11,S}
28 H u0 p0 c0 {8,S}


>  <multiplicity>  (3) 
2

>  <reaction>  (3) 
rxn_966

>  <type>  (3) 
ts

>  <role_mapnums>  (3) 
{"*2": 22, "*1": 16, "*3": 1, "*0": 2, "*4": 15}

>  <role_mapidx>  (3) 
{"*2": 21, "*1": 15, "*3": 0, "*0": 1, "*4": 14}

>  <ordered_mapped_smiles>  (3) 
[C:1]([CH:2]1[CH:3]([H:10])[CH:4]([H:11])[CH:5]([H:12])[CH:6]([H:13])[CH:7]1[H:14])([H:8])([H:9])[H:22].[C:15]([C:16]([C:17]([H:23])([H:24])[H:25])[C:18]([H:26])([H:27])[H:28])([H:19])([H:20])[H:21]

>  <mol_properties>  (3) 
{"0": {"label": "*3", "atom_type": "Cs"}, "1": {"label": "*0", "atom_type": "Cs"}, "14": {"label": "*4", "atom_type": "Cs"}, "15": {"label": "*1", "atom_type": "Cs"}, "21": {"label": "*2", "atom_type": "H0"}}

>  <level_of_theory>  (3) 
wb97xd/def2tzvp

>  <lot_method>  (3) 
wb97xd

>  <lot_basis>  (3) 
def2tzvp

>  <spin_multiplicity>  (3) 
2.0

>  <optical_isomers>  (3) 
2.0

>  <modes>  (3) 
IdealGasTranslation(mass=(149.133, 'amu')),         NonlinearRotor(             inertia = ([255.895, 883.746, 918.654

>  <frequency_value>  (3) 
-1673.39

>  <frequency_units>  (3) 
cm^-1

>  <frequency_list>  (3) 
unknown

>  <arkane_path>  (3) 
/home/calvin/Dropbox/PersonalFolders/Calvin/HAb_Converged/rxn_966/output/rxns/TS0/arkane/output.py

>  <path_exists>  (3) 
True

>  <E0_value>  (3) 
-1126640.0

>  <E0_units>  (3) 
kJ/mol

>  <thermo_class>  (3) 
unknown

>  <Cp0_value>  (3) 
unknown

>  <Cp0_units>  (3) 
unknown

>  <CpInf_value>  (3) 
unknown

>  <CpInf_units>  (3) 
unknown

>  <Tmin_value>  (3) 
unknown

>  <Tmin_units>  (3) 
unknown

>  <Tmax_value>  (3) 
unknown

>  <Tmax_units>  (3) 
unknown

>  <polynomials>  (3) 
unknown

>  <H298_value>  (3) 
unknown

>  <H298_units>  (3) 
unknown

>  <S298_value>  (3) 
unknown

>  <S298_units>  (3) 
unknown

>  <Cp_T_value_list>  (3) 
unknown

>  <Cp_T_units>  (3) 
unknown

>  <T_list>  (3) 
unknown

>  <T_units>  (3) 
unknown

>  <yaml_path>  (3) 
unknown

>  <frequencies_cm1>  (3) 
unknown

>  <ZPE_kJmol>  (3) 
unknown

>  <E_elec_kJmol>  (3) 
unknown

>  <E0_minus_Eelec_plus_ZPE_kJmol>  (3) 
unknown

>  <rxn>  (3) 
unknown

>  <species_type>  (3) 
unknown

>  <species_folder>  (3) 
unknown

>  <frequencies_cm1_list>  (3) 
[]

>  <ts_imag_freq_cm1>  (3) 
-1693.7148

>  <ts_freq_out_path>  (3) 
/home/calvin/Dropbox/PersonalFolders/Calvin/HAb_Converged/rxn_966/output/rxns/TS0/geometry/freq.out

>  <E0_kJmol>  (3) 
-1.12664e+06

>  <H298_kJmol>  (3) 
unknown

$$$$

     RDKit          3D

 13 12  0  0  0  0  0  0  0  0999 V2000
   -1.3649   -0.5967   -0.3477 C   0  0  0  0  0  0  0  0  0  1  0  0
   -0.1601   -0.2776    0.4669 C   0  0  0  0  0  3  0  0  0  2  0  0
    1.1241   -0.9571    0.1414 C   0  0  0  0  0  0  0  0  0  3  0  0
   -0.1188    1.0130    1.2081 C   0  0  0  0  0  0  0  0  0  4  0  0
   -1.4266   -1.6632   -0.5770 H   0  0  0  0  0  0  0  0  0  5  0  0
   -2.2858   -0.3004    0.1602 H   0  0  0  0  0  0  0  0  0  6  0  0
   -1.3532   -0.0668   -1.3138 H   0  0  0  0  0  0  0  0  0  7  0  0
    1.6174   -0.4963   -0.7297 H   0  0  0  0  0  0  0  0  0  8  0  0
    0.9723   -2.0104   -0.1064 H   0  0  0  0  0  0  0  0  0  9  0  0
    1.8338   -0.8977    0.9701 H   0  0  0  0  0  0  0  0  0 10  0  0
   -1.0852    1.2507    1.6593 H   0  0  0  0  0  0  0  0  0 11  0  0
    0.6358    1.0009    1.9983 H   0  0  0  0  0  0  0  0  0 12  0  0
    0.1343    1.8546    0.5434 H   0  0  0  0  0  0  0  0  0 13  0  0
  1  5  1  0
  1  7  1  0
  1  6  1  0
  1  2  1  0
  2  3  1  0
  2  4  1  0
  3  9  1  0
  3 10  1  0
  3  8  1  0
  4 13  1  0
  4 12  1  0
  4 11  1  0
M  RAD  1   2   2
M  END
>  <rmg_smiles>  (4) 
C[C](C)C

>  <rmg_adjacency_list>  (4) 
multiplicity 2
1  C u0 p0 c0 {4,S} {5,S} {6,S} {7,S}
2  C u0 p0 c0 {4,S} {8,S} {9,S} {10,S}
3  C u0 p0 c0 {4,S} {11,S} {12,S} {13,S}
4  C u1 p0 c0 {1,S} {2,S} {3,S}
5  H u0 p0 c0 {1,S}
6  H u0 p0 c0 {1,S}
7  H u0 p0 c0 {1,S}
8  H u0 p0 c0 {2,S}
9  H u0 p0 c0 {2,S}
10 H u0 p0 c0 {2,S}
11 H u0 p0 c0 {3,S}
12 H u0 p0 c0 {3,S}
13 H u0 p0 c0 {3,S}


>  <multiplicity>  (4) 
2

>  <reaction>  (4) 
rxn_966

>  <type>  (4) 
r1

>  <role_mapnums>  (4) 
{}

>  <role_mapidx>  (4) 
{}

>  <ordered_mapped_smiles>  (4) 
[C:1]([C:2]([C:3]([H:8])([H:9])[H:10])[C:4]([H:11])([H:12])[H:13])([H:5])([H:6])[H:7]

>  <level_of_theory>  (4) 
wb97xd/def2tzvp

>  <lot_method>  (4) 
wb97xd

>  <lot_basis>  (4) 
def2tzvp

>  <spin_multiplicity>  (4) 
2.0

>  <optical_isomers>  (4) 
1.0

>  <modes>  (4) 
IdealGasTranslation(mass=(57.0704, 'amu')),         NonlinearRotor(             inertia = ([62.7477, 62.7516, 115.628

>  <frequency_value>  (4) 
unknown

>  <frequency_units>  (4) 
unknown

>  <frequency_list>  (4) 
unknown

>  <arkane_path>  (4) 
/home/calvin/Dropbox/PersonalFolders/Calvin/HAb_Converged/rxn_966/output/Species/rxn_966_C[C][C]C/arkane/output.py

>  <path_exists>  (4) 
True

>  <E0_value>  (4) 
-414011.75963917805

>  <E0_units>  (4) 
kJ/mol

>  <thermo_class>  (4) 
NASA

>  <Cp0_value>  (4) 
33.257888

>  <Cp0_units>  (4) 
J/(mol*K)

>  <CpInf_value>  (4) 
307.635464

>  <CpInf_units>  (4) 
J/(mol*K)

>  <Tmin_value>  (4) 
10.0

>  <Tmin_units>  (4) 
K

>  <Tmax_value>  (4) 
3000.0

>  <Tmax_units>  (4) 
K

>  <polynomials>  (4) 
[{"name": "polynomial1", "class": "NASAPolynomial", "Tmin_value": 10.0, "Tmin_units": "K", "Tmax_value": 466.0976797231238, "Tmax_units": "K", "coeffs": [3.6355325547288144, 0.036642720007282234, -8.047517716542087e-05, 2.0692146871239344e-07, -1.7306613589403702e-10, -49794112.6217712, 8.363334640526212]}, {"name": "polynomial2", "class": "NASAPolynomial", "Tmin_value": 466.0976797231238, "Tmin_units": "K", "Tmax_value": 3000.0, "Tmax_units": "K", "coeffs": [-0.5046661387355846, 0.045839047089703135, -2.53212306396233e-05, 6.815201008984721e-09, -7.176063009923102e-13, -49793440.62071447, 28.24553979441472]}]

>  <H298_value>  (4) 
-98946.55984096488

>  <H298_units>  (4) 
kcal/mol

>  <S298_value>  (4) 
75.3263817983473

>  <S298_units>  (4) 
cal/(mol*K)

>  <Cp_T_value_list>  (4) 
[22.993224333120082, 28.2761066262766, 33.56709629526276, 38.277970505733066, 46.01661876589892, 51.887442247230915, 60.90699904744653, 65.43555585947102, 67.6914914818812]

>  <Cp_T_units>  (4) 
cal/(mol*K)

>  <T_list>  (4) 
[300.0, 400.0, 500.0, 600.0, 800.0, 1000.0, 1500.0, 2000.0, 2400.0]

>  <T_units>  (4) 
K

>  <yaml_path>  (4) 
/home/calvin/Dropbox/PersonalFolders/Calvin/HAb_Converged/rxn_966/output/Species/rxn_966_C[C][C]C/rxn_966_CCCC.yml

>  <frequencies_cm1>  (4) 
[127.68472504008, 132.20320138064, 133.70707116572, 257.47074758808, 382.77949570743993, 383.17778085599997, 764.0894565563999, 931.0121357149599, 931.3211500543599, 964.27581260504, 1004.44767672704, 1004.7154891545199, 1088.2180306457199, 1293.76063524396, 1293.8430390678, 1387.45378295004, 1387.5773886858, 1410.79466605272, 1453.7201912880398, 1456.5699901958399, 1456.9957432856797, 1475.83188401844, 1478.2627968217198, 1478.3589346161998, 2924.14775785964, 2924.35376741924, 2931.9280522272, 3026.76798648172, 3027.0083309679203, 3028.12078258976, 3072.4815077569597, 3076.3544874774398, 3076.6772357874797]

>  <ZPE_kJmol>  (4) 
303.648867097864

>  <E_elec_kJmol>  (4) 
-414315.4085062759

>  <E0_minus_Eelec_plus_ZPE_kJmol>  (4) 
0.0

>  <rxn>  (4) 
rxn_966

>  <species_type>  (4) 
p1

>  <species_folder>  (4) 
rxn_966_C[C][C]C

>  <frequencies_cm1_list>  (4) 
[127.68472504008, 132.20320138064, 133.70707116572, 257.47074758808, 382.77949570743993, 383.17778085599997, 764.0894565563999, 931.0121357149599, 931.3211500543599, 964.27581260504, 1004.44767672704, 1004.7154891545199, 1088.2180306457199, 1293.76063524396, 1293.8430390678, 1387.45378295004, 1387.5773886858, 1410.79466605272, 1453.7201912880398, 1456.5699901958399, 1456.9957432856797, 1475.83188401844, 1478.2627968217198, 1478.3589346161998, 2924.14775785964, 2924.35376741924, 2931.9280522272, 3026.76798648172, 3027.0083309679203, 3028.12078258976, 3072.4815077569597, 3076.3544874774398, 3076.6772357874797]

>  <E0_kJmol>  (4) 
-414012

>  <H298_kJmol>  (4) 
-413992

$$$$

     RDKit          3D

 14 14  0  0  0  0  0  0  0  0999 V2000
    2.3111    0.1295    0.0255 C   0  0  0  0  0  0  0  0  0  1  0  0
    0.9132    0.0511    0.0101 C   0  0  0  0  0  0  0  0  0  2  0  0
    0.2446   -1.1981    0.0389 C   0  0  0  0  0  3  0  0  0  3  0  0
   -1.1306   -1.2689    0.0235 C   0  0  0  0  0  0  0  0  0  4  0  0
   -1.8967   -0.1062   -0.0209 C   0  0  0  0  0  0  0  0  0  5  0  0
   -1.2644    1.1347   -0.0499 C   0  0  0  0  0  0  0  0  0  6  0  0
    0.1101    1.2180   -0.0350 C   0  0  0  0  0  0  0  0  0  7  0  0
    2.9188   -0.7647    0.0599 H   0  0  0  0  0  0  0  0  0  8  0  0
    2.8158    1.0859    0.0034 H   0  0  0  0  0  0  0  0  0  9  0  0
    0.8353   -2.1058    0.0735 H   0  0  0  0  0  0  0  0  0 10  0  0
   -1.6191   -2.2351    0.0461 H   0  0  0  0  0  0  0  0  0 11  0  0
   -2.9772   -0.1668   -0.0328 H   0  0  0  0  0  0  0  0  0 12  0  0
   -1.8572    2.0404   -0.0845 H   0  0  0  0  0  0  0  0  0 13  0  0
    0.5964    2.1860   -0.0577 H   0  0  0  0  0  0  0  0  0 14  0  0
  1  8  1  0
  1  9  1  0
  1  2  1  0
  2  7  1  0
  2  3  1  0
  3  4  1  0
  3 10  1  0
  4  5  1  0
  4 11  1  0
  5 12  1  0
  5  6  1  0
  6 13  1  0
  6  7  1  0
  7 14  1  0
M  RAD  1   3   2
M  END
>  <rmg_smiles>  (5) 
[CH2]C1[CH][CH][CH][CH][CH]1

>  <rmg_adjacency_list>  (5) 
multiplicity 2
1  C u0 p0 c0 {2,S} {3,S} {7,S}
2  C u1 p0 c0 {1,S} {4,S} {8,S}
3  C u0 p0 c0 {1,S} {6,S} {12,S}
4  C u0 p0 c0 {2,S} {5,S} {9,S}
5  C u0 p0 c0 {4,S} {6,S} {10,S}
6  C u0 p0 c0 {3,S} {5,S} {11,S}
7  C u0 p0 c0 {1,S} {13,S} {14,S}
8  H u0 p0 c0 {2,S}
9  H u0 p0 c0 {4,S}
10 H u0 p0 c0 {5,S}
11 H u0 p0 c0 {6,S}
12 H u0 p0 c0 {3,S}
13 H u0 p0 c0 {7,S}
14 H u0 p0 c0 {7,S}


>  <multiplicity>  (5) 
2

>  <reaction>  (5) 
rxn_966

>  <type>  (5) 
r2

>  <role_mapnums>  (5) 
{}

>  <role_mapidx>  (5) 
{}

>  <ordered_mapped_smiles>  (5) 
[CH:1]([CH:2]1[C:3]([H:10])[CH:4]([H:11])[CH:5]([H:12])[CH:6]([H:13])[CH:7]1[H:14])([H:8])[H:9]

>  <level_of_theory>  (5) 
wb97xd/def2tzvp

>  <lot_method>  (5) 
wb97xd

>  <lot_basis>  (5) 
def2tzvp

>  <spin_multiplicity>  (5) 
2.0

>  <optical_isomers>  (5) 
1.0

>  <modes>  (5) 
IdealGasTranslation(mass=(91.0548, 'amu')),         NonlinearRotor(             inertia = ([90.2688, 184.999, 275.268

>  <frequency_value>  (5) 
unknown

>  <frequency_units>  (5) 
unknown

>  <frequency_list>  (5) 
unknown

>  <arkane_path>  (5) 
/home/calvin/Dropbox/PersonalFolders/Calvin/HAb_Converged/rxn_966/output/Species/rxn_966_[CH2]c1ccccc1/arkane/output.py

>  <path_exists>  (5) 
True

>  <E0_value>  (5) 
-710982.0623900568

>  <E0_units>  (5) 
kJ/mol

>  <thermo_class>  (5) 
NASA

>  <Cp0_value>  (5) 
33.257888

>  <Cp0_units>  (5) 
J/(mol*K)

>  <CpInf_value>  (5) 
332.57888

>  <CpInf_units>  (5) 
J/(mol*K)

>  <Tmin_value>  (5) 
10.0

>  <Tmin_units>  (5) 
K

>  <Tmax_value>  (5) 
3000.0

>  <Tmax_units>  (5) 
K

>  <polynomials>  (5) 
[{"name": "polynomial1", "class": "NASAPolynomial", "Tmin_value": 10.0, "Tmin_units": "K", "Tmax_value": 553.2109116327725, "Tmax_units": "K", "coeffs": [4.142543359170266, -0.014218763448623044, 0.0002576829967730386, -4.632974771235726e-07, 2.671038579104251e-10, -85511387.18347761, 10.487951999207327]}, {"name": "polynomial2", "class": "NASAPolynomial", "Tmin_value": 553.2109116327725, "Tmin_units": "K", "Tmax_value": 3000.0, "Tmax_units": "K", "coeffs": [-0.7942917364053798, 0.057999794075117024, -3.716274122111428e-05, 1.1355675181462914e-08, -1.3253487492588121e-12, -85511399.83577849, 26.331454017928447]}]

>  <H298_value>  (5) 
-169924.63454747986

>  <H298_units>  (5) 
kcal/mol

>  <S298_value>  (5) 
74.98251677136349

>  <S298_units>  (5) 
cal/(mol*K)

>  <Cp_T_value_list>  (5) 
[25.283016477228646, 33.52643449610302, 40.21254898412453, 45.52304279605987, 53.838654413345935, 59.76143508278511, 67.97251227799326, 71.92525612415508, 74.23565128362748]

>  <Cp_T_units>  (5) 
cal/(mol*K)

>  <T_list>  (5) 
[300.0, 400.0, 500.0, 600.0, 800.0, 1000.0, 1500.0, 2000.0, 2400.0]

>  <T_units>  (5) 
K

>  <yaml_path>  (5) 
/home/calvin/Dropbox/PersonalFolders/Calvin/HAb_Converged/rxn_966/output/Species/rxn_966_[CH2]c1ccccc1/rxn_966_CH2c1ccccc1.yml

>  <frequencies_cm1>  (5) 
[200.24815891652, 361.60171298056, 390.17523889708, 478.87608827552, 500.34228438583995, 531.78621016612, 625.85017507948, 685.3594698625999, 711.2686054749599, 777.5487477835999, 833.0683240958, 836.50868374112, 906.74420959408, 969.6801300518798, 974.03379874476, 983.70251407532, 992.09397013636, 1038.3980521491198, 1114.7108600102797, 1165.8355657176799, 1178.3403459854, 1276.27729061924, 1315.886061945, 1345.4965026448397, 1472.9546171693598, 1482.97354875124, 1496.57704667016, 1589.63156474148, 1604.18957361988, 3131.52384753832, 3150.75140643432, 3153.26472306144, 3164.65705170732, 3171.3798303356, 3183.3901876602795, 3230.66251460316]

>  <ZPE_kJmol>  (5) 
299.2207520027369

>  <E_elec_kJmol>  (5) 
-711281.2831420596

>  <E0_minus_Eelec_plus_ZPE_kJmol>  (5) 
0.0

>  <rxn>  (5) 
rxn_966

>  <species_type>  (5) 
r0

>  <species_folder>  (5) 
rxn_966_[CH2]c1ccccc1

>  <frequencies_cm1_list>  (5) 
[200.24815891652, 361.60171298056, 390.17523889708, 478.87608827552, 500.34228438583995, 531.78621016612, 625.85017507948, 685.3594698625999, 711.2686054749599, 777.5487477835999, 833.0683240958, 836.50868374112, 906.74420959408, 969.6801300518798, 974.03379874476, 983.70251407532, 992.09397013636, 1038.3980521491198, 1114.7108600102797, 1165.8355657176799, 1178.3403459854, 1276.27729061924, 1315.886061945, 1345.4965026448397, 1472.9546171693598, 1482.97354875124, 1496.57704667016, 1589.63156474148, 1604.18957361988, 3131.52384753832, 3150.75140643432, 3153.26472306144, 3164.65705170732, 3171.3798303356, 3183.3901876602795, 3230.66251460316]

>  <E0_kJmol>  (5) 
-710982

>  <H298_kJmol>  (5) 
-710965

$$$$
