
     RDKit          3D

 22 23  0  0  0  0  0  0  0  0999 V2000
    0.3844   -1.7807   -1.1799 C   0  0  0  0  0  0  0  0  0  1  0  0
    0.4282   -1.6558    0.3448 C   0  0  0  0  0  0  0  0  0  2  0  0
   -0.4982   -0.4891    0.6582 C   0  0  0  0  0  0  0  0  0  3  0  0
   -0.0905    0.4919    1.7457 C   0  0  0  0  0  0  0  0  0  4  0  0
    0.5153    1.6658    0.9670 C   0  0  0  0  0  0  0  0  0  5  0  0
   -0.3902    1.7747   -0.2628 C   0  0  0  0  0  0  0  0  0  6  0  0
   -0.6905    0.3165   -0.6418 C   0  0  0  0  0  0  0  0  0  7  0  0
    0.2854   -0.3268   -1.6392 C   0  0  0  0  0  0  0  0  0  8  0  0
    1.2458   -2.3071   -1.5930 H   0  0  0  0  0  0  0  0  0  9  0  0
   -0.5135   -2.3267   -1.4827 H   0  0  0  0  0  0  0  0  0 10  0  0
    0.1396   -2.5750    0.8608 H   0  0  0  0  0  0  0  0  0 11  0  0
    1.4490   -1.4180    0.6683 H   0  0  0  0  0  0  0  0  0 12  0  0
   -1.4635   -0.9150    0.9320 H   0  0  0  0  0  0  0  0  0 13  0  0
   -0.9711    0.8367    2.2985 H   0  0  0  0  0  0  0  0  0 14  0  0
    0.5969    0.0540    2.4715 H   0  0  0  0  0  0  0  0  0 15  0  0
    1.5351    1.4160    0.6589 H   0  0  0  0  0  0  0  0  0 16  0  0
    0.5667    2.5888    1.5462 H   0  0  0  0  0  0  0  0  0 17  0  0
   -1.3149    2.2890    0.0120 H   0  0  0  0  0  0  0  0  0 18  0  0
    0.0631    2.3352   -1.0824 H   0  0  0  0  0  0  0  0  0 19  0  0
   -1.7111    0.2140   -1.0225 H   0  0  0  0  0  0  0  0  0 20  0  0
   -0.0367   -0.2188   -2.6760 H   0  0  0  0  0  0  0  0  0 21  0  0
    1.2676    0.1499   -1.5506 H   0  0  0  0  0  0  0  0  0 22  0  0
  1  8  1  0
  1 10  1  0
  1  9  1  0
  1  2  1  0
  2 12  1  0
  2 11  1  0
  2  3  1  0
  3  4  1  0
  3 13  1  0
  3  7  1  0
  4 14  1  0
  4  5  1  0
  4 15  1  0
  5 16  1  0
  5 17  1  0
  5  6  1  0
  6  7  1  0
  6 19  1  0
  6 18  1  0
  7 20  1  0
  7  8  1  0
  8 22  1  0
  8 21  1  0
M  END
>  <rmg_smiles>  (1) 
C1CC2CCCC2C1

>  <rmg_adjacency_list>  (1) 
1  C u0 p0 c0 {2,S} {3,S} {4,S} {9,S}
2  C u0 p0 c0 {1,S} {5,S} {6,S} {10,S}
3  C u0 p0 c0 {1,S} {7,S} {13,S} {14,S}
4  C u0 p0 c0 {1,S} {8,S} {15,S} {16,S}
5  C u0 p0 c0 {2,S} {8,S} {19,S} {20,S}
6  C u0 p0 c0 {2,S} {7,S} {21,S} {22,S}
7  C u0 p0 c0 {3,S} {6,S} {11,S} {12,S}
8  C u0 p0 c0 {4,S} {5,S} {17,S} {18,S}
9  H u0 p0 c0 {1,S}
10 H u0 p0 c0 {2,S}
11 H u0 p0 c0 {7,S}
12 H u0 p0 c0 {7,S}
13 H u0 p0 c0 {3,S}
14 H u0 p0 c0 {3,S}
15 H u0 p0 c0 {4,S}
16 H u0 p0 c0 {4,S}
17 H u0 p0 c0 {8,S}
18 H u0 p0 c0 {8,S}
19 H u0 p0 c0 {5,S}
20 H u0 p0 c0 {5,S}
21 H u0 p0 c0 {6,S}
22 H u0 p0 c0 {6,S}


>  <multiplicity>  (1) 
1

>  <reaction>  (1) 
rxn_556

>  <type>  (1) 
r1h

>  <role_mapnums>  (1) 
{"r1h_a": 3, "r1h_h": 13}

>  <role_mapidx>  (1) 
{"r1h_a": 2, "r1h_h": 12}

>  <ordered_mapped_smiles>  (1) 
[C:1]1([H:9])([H:10])[C:2]([H:11])([H:12])[C:3]2([H:13])[C:4]([H:14])([H:15])[C:5]([H:16])([H:17])[C:6]([H:18])([H:19])[C:7]2([H:20])[C:8]1([H:21])[H:22]

>  <mol_properties>  (1) 
{"2": {"label": "donator", "atom_type": "Cs"}, "12": {"label": "d_hydrogen", "atom_type": "H0"}}

>  <level_of_theory>  (1) 
wb97xd/def2tzvp

>  <lot_method>  (1) 
wb97xd

>  <lot_basis>  (1) 
def2tzvp

>  <spin_multiplicity>  (1) 
1.0

>  <optical_isomers>  (1) 
1.0

>  <modes>  (1) 
IdealGasTranslation(mass=(110.11, 'amu')),         NonlinearRotor(             inertia = ([146.16, 254.143, 330.352

>  <frequency_value>  (1) 
unknown

>  <frequency_units>  (1) 
unknown

>  <frequency_list>  (1) 
unknown

>  <arkane_path>  (1) 
/home/calvin/Dropbox/PersonalFolders/Calvin/HAb_Converged/rxn_556/output/Species/rxn_556_C1CC2CCCC2C1/arkane/output.py

>  <path_exists>  (1) 
True

>  <E0_value>  (1) 
-822068.5647386889

>  <E0_units>  (1) 
kJ/mol

>  <thermo_class>  (1) 
NASA

>  <Cp0_value>  (1) 
33.257888

>  <Cp0_units>  (1) 
J/(mol*K)

>  <CpInf_value>  (1) 
532.126208

>  <CpInf_units>  (1) 
J/(mol*K)

>  <Tmin_value>  (1) 
10.0

>  <Tmin_units>  (1) 
K

>  <Tmax_value>  (1) 
3000.0

>  <Tmax_units>  (1) 
K

>  <polynomials>  (1) 
[{"name": "polynomial1", "class": "NASAPolynomial", "Tmin_value": 10.0, "Tmin_units": "K", "Tmax_value": 631.1554087767174, "Tmax_units": "K", "coeffs": [4.104892732192084, -0.00872402245613231, 0.0002586838352826795, -3.8715965058313203e-07, 1.8543893870085067e-10, -98872009.83151405, 11.711801191684385]}, {"name": "polynomial2", "class": "NASAPolynomial", "Tmin_value": 631.1554087767174, "Tmin_units": "K", "Tmax_value": 3000.0, "Tmax_units": "K", "coeffs": [-8.339564241366276, 0.09752899339998983, -5.8919991130410155e-05, 1.705923018149873e-08, -1.9017313185535466e-12, -98870984.4094117, 61.70104968838544]}]

>  <H298_value>  (1) 
-196474.24862839645

>  <H298_units>  (1) 
kcal/mol

>  <S298_value>  (1) 
81.34524085312425

>  <S298_units>  (1) 
cal/(mol*K)

>  <Cp_T_value_list>  (1) 
[31.433584756109013, 43.66631245461224, 54.86442195893942, 64.39157523859107, 79.34957857997146, 90.27270430862933, 105.98037139896968, 113.43888502925647, 117.40970049175486]

>  <Cp_T_units>  (1) 
cal/(mol*K)

>  <T_list>  (1) 
[300.0, 400.0, 500.0, 600.0, 800.0, 1000.0, 1500.0, 2000.0, 2400.0]

>  <T_units>  (1) 
K

>  <yaml_path>  (1) 
/home/calvin/Dropbox/PersonalFolders/Calvin/HAb_Converged/rxn_556/output/Species/rxn_556_C1CC2CCCC2C1/rxn_556_C1CC2CCCC2C1.yml

>  <frequencies_cm1>  (1) 
[104.48804862911999, 193.17516403692, 284.30005923332, 354.38451140924, 393.75980523412, 536.4076912864799, 546.84550897288, 589.015665823, 687.2204228843199, 771.9521547477999, 809.8922486408001, 842.5310298667599, 889.59048026472, 905.6866938548001, 914.3802972699199, 927.22155981832, 933.9649394025599, 960.1075525158, 996.54377662372, 1021.0245792895199, 1030.08899991192, 1051.48652616904, 1068.6333885130798, 1089.19314256116, 1150.77626691092, 1188.5515531562398, 1194.01080648564, 1212.42806111388, 1220.75771430704, 1259.1235612898797, 1274.34766774432, 1301.0327726978398, 1303.03793241128, 1323.01399270716, 1323.82429697492, 1335.4501031216798, 1337.88101592496, 1343.2166635186, 1357.4862590135597, 1367.1755753000798, 1477.40442365672, 1478.31086571896, 1479.4507852820798, 1483.57097647408, 1496.2336974041598, 1502.40025022152, 3003.36530051116, 3004.25800860276, 3014.3250090818797, 3016.1859621035996, 3016.74905489984, 3018.8846873343596, 3037.5079515222, 3052.3475067987197, 3066.73384104412, 3068.2514447998396, 3072.3785029771598, 3072.460906801, 3078.0849677780793, 3083.11846801764]

>  <ZPE_kJmol>  (1) 
537.8174543033537

>  <E_elec_kJmol>  (1) 
-822606.3821929923

>  <E0_minus_Eelec_plus_ZPE_kJmol>  (1) 
0.0

>  <rxn>  (1) 
rxn_556

>  <species_type>  (1) 
r1

>  <species_folder>  (1) 
rxn_556_C1CC2CCCC2C1

>  <frequencies_cm1_list>  (1) 
[104.48804862911999, 193.17516403692, 284.30005923332, 354.38451140924, 393.75980523412, 536.4076912864799, 546.84550897288, 589.015665823, 687.2204228843199, 771.9521547477999, 809.8922486408001, 842.5310298667599, 889.59048026472, 905.6866938548001, 914.3802972699199, 927.22155981832, 933.9649394025599, 960.1075525158, 996.54377662372, 1021.0245792895199, 1030.08899991192, 1051.48652616904, 1068.6333885130798, 1089.19314256116, 1150.77626691092, 1188.5515531562398, 1194.01080648564, 1212.42806111388, 1220.75771430704, 1259.1235612898797, 1274.34766774432, 1301.0327726978398, 1303.03793241128, 1323.01399270716, 1323.82429697492, 1335.4501031216798, 1337.88101592496, 1343.2166635186, 1357.4862590135597, 1367.1755753000798, 1477.40442365672, 1478.31086571896, 1479.4507852820798, 1483.57097647408, 1496.2336974041598, 1502.40025022152, 3003.36530051116, 3004.25800860276, 3014.3250090818797, 3016.1859621035996, 3016.74905489984, 3018.8846873343596, 3037.5079515222, 3052.3475067987197, 3066.73384104412, 3068.2514447998396, 3072.3785029771598, 3072.460906801, 3078.0849677780793, 3083.11846801764]

>  <E0_kJmol>  (1) 
-822069

>  <H298_kJmol>  (1) 
-822048

$$$$

     RDKit          3D

  8  7  0  0  0  0  0  0  0  0999 V2000
   -0.1344   -0.5027   -0.5483 C   0  0  0  0  0  0  0  0  0  1  0  0
    0.1016    0.4893    0.5578 C   0  0  0  0  0  0  0  0  0  2  0  0
   -1.1003   -1.0086   -0.4465 H   0  0  0  0  0  0  0  0  0  3  0  0
    0.6374   -1.2755   -0.5578 H   0  0  0  0  0  0  0  0  0  4  0  0
   -0.1251   -0.0145   -1.5254 H   0  0  0  0  0  0  0  0  0  5  0  0
    0.2178    0.0588    1.5505 H   0  0  0  0  0  0  0  0  0  6  0  0
   -0.5706    1.3454    0.5632 H   0  0  0  0  0  0  0  0  0  7  0  0
    1.0734    0.9362    0.3567 H   0  0  0  0  0  0  0  0  0  8  0  0
  1  5  1  0
  1  4  1  0
  1  3  1  0
  1  2  1  0
  2  8  1  0
  2  7  1  0
  2  6  1  0
M  END
>  <rmg_smiles>  (2) 
CC

>  <rmg_adjacency_list>  (2) 
1 C u0 p0 c0 {2,S} {3,S} {4,S} {5,S}
2 C u0 p0 c0 {1,S} {6,S} {7,S} {8,S}
3 H u0 p0 c0 {1,S}
4 H u0 p0 c0 {1,S}
5 H u0 p0 c0 {1,S}
6 H u0 p0 c0 {2,S}
7 H u0 p0 c0 {2,S}
8 H u0 p0 c0 {2,S}


>  <multiplicity>  (2) 
1

>  <reaction>  (2) 
rxn_556

>  <type>  (2) 
r2h

>  <role_mapnums>  (2) 
{"r2h_a": 2, "r2h_h": 8}

>  <role_mapidx>  (2) 
{"r2h_a": 1, "r2h_h": 7}

>  <ordered_mapped_smiles>  (2) 
[C:1]([C:2]([H:6])([H:7])[H:8])([H:3])([H:4])[H:5]

>  <mol_properties>  (2) 
{"1": {"label": "acceptor", "atom_type": "Cs"}, "7": {"label": "a_hydrogen", "atom_type": "H0"}}

>  <level_of_theory>  (2) 
wb97xd/def2tzvp

>  <lot_method>  (2) 
wb97xd

>  <lot_basis>  (2) 
def2tzvp

>  <spin_multiplicity>  (2) 
1.0

>  <optical_isomers>  (2) 
1.0

>  <modes>  (2) 
IdealGasTranslation(mass=(30.0469, 'amu')),         NonlinearRotor(             inertia = ([6.25566, 25.1393, 25.1393

>  <frequency_value>  (2) 
unknown

>  <frequency_units>  (2) 
unknown

>  <frequency_list>  (2) 
unknown

>  <arkane_path>  (2) 
/home/calvin/Dropbox/PersonalFolders/Calvin/HAb_Converged/rxn_556/output/Species/rxn_556_CC/arkane/output.py

>  <path_exists>  (2) 
True

>  <E0_value>  (2) 
-209409.0952137841

>  <E0_units>  (2) 
kJ/mol

>  <thermo_class>  (2) 
NASA

>  <Cp0_value>  (2) 
33.257888

>  <Cp0_units>  (2) 
J/(mol*K)

>  <CpInf_value>  (2) 
182.918384

>  <CpInf_units>  (2) 
J/(mol*K)

>  <Tmin_value>  (2) 
10.0

>  <Tmin_units>  (2) 
K

>  <Tmax_value>  (2) 
3000.0

>  <Tmax_units>  (2) 
K

>  <polynomials>  (2) 
[{"name": "polynomial1", "class": "NASAPolynomial", "Tmin_value": 10.0, "Tmin_units": "K", "Tmax_value": 746.6686841225998, "Tmax_units": "K", "coeffs": [4.05949155328205, -0.003835565665241399, 5.3186040380635144e-05, -6.162047637406245e-08, 2.3242210517060023e-11, -25186098.42214424, 3.537324504259843]}, {"name": "polynomial2", "class": "NASAPolynomial", "Tmin_value": 746.6686841225998, "Tmin_units": "K", "Tmax_value": 3000.0, "Tmax_units": "K", "coeffs": [-1.046496014036793, 0.026500176421266477, -1.3747367898389822e-05, 3.490635384402257e-09, -3.493819827122593e-13, -25185419.059970565, 26.122432242478077]}]

>  <H298_value>  (2) 
-50047.2003571238

>  <H298_units>  (2) 
kcal/mol

>  <S298_value>  (2) 
54.420548043106656

>  <S298_units>  (2) 
cal/(mol*K)

>  <Cp_T_value_list>  (2) 
[12.360572544544063, 15.274308747535915, 18.259044378417013, 21.07888414556187, 25.832548078118208, 29.50517950077797, 35.34115403896942, 38.351806873475496, 39.80767330504735]

>  <Cp_T_units>  (2) 
cal/(mol*K)

>  <T_list>  (2) 
[300.0, 400.0, 500.0, 600.0, 800.0, 1000.0, 1500.0, 2000.0, 2400.0]

>  <T_units>  (2) 
K

>  <yaml_path>  (2) 
/home/calvin/Dropbox/PersonalFolders/Calvin/HAb_Converged/rxn_556/output/Species/rxn_556_CC/rxn_556_CC.yml

>  <frequencies_cm1>  (2) 
[304.49586305944, 822.3970289085198, 822.4107628791601, 1005.43652261312, 1210.79371860772, 1210.8005855930398, 1393.77140944444, 1414.4616362136, 1489.39418002544, 1489.4010470107598, 1490.3006220876798, 1490.3006220876798, 3015.21771717348, 3016.07609033848, 3072.8111230523195, 3072.8179900376404, 3096.4266855677993, 3096.4335525531196]

>  <ZPE_kJmol>  (2) 
194.47545128409476

>  <E_elec_kJmol>  (2) 
-209603.57066506823

>  <E0_minus_Eelec_plus_ZPE_kJmol>  (2) 
0.0

>  <rxn>  (2) 
rxn_556

>  <species_type>  (2) 
p0

>  <species_folder>  (2) 
rxn_556_CC

>  <frequencies_cm1_list>  (2) 
[304.49586305944, 822.3970289085198, 822.4107628791601, 1005.43652261312, 1210.79371860772, 1210.8005855930398, 1393.77140944444, 1414.4616362136, 1489.39418002544, 1489.4010470107598, 1490.3006220876798, 1490.3006220876798, 3015.21771717348, 3016.07609033848, 3072.8111230523195, 3072.8179900376404, 3096.4266855677993, 3096.4335525531196]

>  <E0_kJmol>  (2) 
-209409

>  <H298_kJmol>  (2) 
-209397

$$$$

     RDKit          3D

 29 29  0  0  0  0  0  0  0  0999 V2000
   -2.4826   -2.1344    0.0128 C   0  0  0  0  0  0  0  0  0  1  0  0
   -2.2466   -1.1424    1.1190 C   0  0  0  0  0  3  0  0  0  2  0  0
   -3.4485   -2.6402    0.1146 H   0  0  0  0  0  0  0  0  0  3  0  0
   -1.7108   -2.9071    0.0033 H   0  0  0  0  0  0  0  0  0  4  0  0
   -2.4733   -1.6461   -0.9642 H   0  0  0  0  0  0  0  0  0  5  0  0
   -2.1304   -1.5729    2.1117 H   0  0  0  0  0  0  0  0  0  6  0  0
   -2.9188   -0.2862    1.1244 H   0  0  0  0  0  0  0  0  0  7  0  0
    1.0166   -1.3607   -1.3000 C   0  0  0  0  0  0  0  0  0  8  0  0
    1.0604   -1.2358    0.2247 C   0  0  0  0  0  0  0  0  0  9  0  0
    0.1340   -0.0691    0.5381 C   0  0  0  0  0  0  0  0  0 10  0  0
    0.5416    0.9119    1.6256 C   0  0  0  0  0  0  0  0  0 11  0  0
    1.1474    2.0858    0.8469 C   0  0  0  0  0  0  0  0  0 12  0  0
    0.2419    2.1947   -0.3829 C   0  0  0  0  0  0  0  0  0 13  0  0
   -0.0584    0.7365   -0.7619 C   0  0  0  0  0  0  0  0  0 14  0  0
    0.9175    0.0932   -1.7593 C   0  0  0  0  0  0  0  0  0 15  0  0
    1.8780   -1.8871   -1.7131 H   0  0  0  0  0  0  0  0  0 16  0  0
    0.1187   -1.9067   -1.6028 H   0  0  0  0  0  0  0  0  0 17  0  0
    0.7718   -2.1550    0.7407 H   0  0  0  0  0  0  0  0  0 18  0  0
    2.0811   -0.9980    0.5482 H   0  0  0  0  0  0  0  0  0 19  0  0
   -1.0163   -0.5766    0.8643 H   0  0  0  0  0  0  0  0  0 20  0  0
   -0.3389    1.2567    2.1784 H   0  0  0  0  0  0  0  0  0 21  0  0
    1.2291    0.4740    2.3514 H   0  0  0  0  0  0  0  0  0 22  0  0
    2.1672    1.8360    0.5388 H   0  0  0  0  0  0  0  0  0 23  0  0
    1.1988    3.0088    1.4261 H   0  0  0  0  0  0  0  0  0 24  0  0
   -0.6828    2.7090   -0.1081 H   0  0  0  0  0  0  0  0  0 25  0  0
    0.6953    2.7552   -1.2025 H   0  0  0  0  0  0  0  0  0 26  0  0
   -1.0790    0.6340   -1.1426 H   0  0  0  0  0  0  0  0  0 27  0  0
    0.5954    0.2012   -2.7961 H   0  0  0  0  0  0  0  0  0 28  0  0
    1.8997    0.5699   -1.6707 H   0  0  0  0  0  0  0  0  0 29  0  0
  1  4  1  0
  1  3  1  0
  1  5  1  0
  1  2  1  0
  2  6  1  0
  2  7  1  0
  8 16  1  0
  8 17  1  0
  8  9  1  0
  8 15  1  0
  9 18  1  0
  9 10  1  0
  9 19  1  0
 10 14  1  0
 10 11  1  0
 10 20  1  0
 11 21  1  0
 11 12  1  0
 11 22  1  0
 12 24  1  0
 12 23  1  0
 12 13  1  0
 13 26  1  0
 13 25  1  0
 13 14  1  0
 14 15  1  0
 14 27  1  0
 15 29  1  0
 15 28  1  0
M  RAD  1   2   2
M  END
>  <rmg_smiles>  (3) 
C1CC2CCCC2C1.[CH2]C

>  <rmg_adjacency_list>  (3) 
multiplicity 2
1  C u0 p0 c0 {2,S} {3,S} {4,S} {11,S}
2  C u0 p0 c0 {1,S} {5,S} {6,S} {12,S}
3  C u0 p0 c0 {1,S} {7,S} {15,S} {16,S}
4  C u0 p0 c0 {1,S} {8,S} {17,S} {18,S}
5  C u0 p0 c0 {2,S} {8,S} {21,S} {22,S}
6  C u0 p0 c0 {2,S} {7,S} {23,S} {24,S}
7  C u0 p0 c0 {3,S} {6,S} {13,S} {14,S}
8  C u0 p0 c0 {4,S} {5,S} {19,S} {20,S}
9  C u0 p0 c0 {10,S} {25,S} {26,S} {27,S}
10 C u1 p0 c0 {9,S} {28,S} {29,S}
11 H u0 p0 c0 {1,S}
12 H u0 p0 c0 {2,S}
13 H u0 p0 c0 {7,S}
14 H u0 p0 c0 {7,S}
15 H u0 p0 c0 {3,S}
16 H u0 p0 c0 {3,S}
17 H u0 p0 c0 {4,S}
18 H u0 p0 c0 {4,S}
19 H u0 p0 c0 {8,S}
20 H u0 p0 c0 {8,S}
21 H u0 p0 c0 {5,S}
22 H u0 p0 c0 {5,S}
23 H u0 p0 c0 {6,S}
24 H u0 p0 c0 {6,S}
25 H u0 p0 c0 {9,S}
26 H u0 p0 c0 {9,S}
27 H u0 p0 c0 {9,S}
28 H u0 p0 c0 {10,S}
29 H u0 p0 c0 {10,S}


>  <multiplicity>  (3) 
2

>  <reaction>  (3) 
rxn_556

>  <type>  (3) 
ts

>  <role_mapnums>  (3) 
{"*2": 20, "*1": 10, "*3": 2, "*0": 14, "*4": 1}

>  <role_mapidx>  (3) 
{"*2": 19, "*1": 9, "*3": 1, "*0": 13, "*4": 0}

>  <ordered_mapped_smiles>  (3) 
[C:1]([C:2]([H:6])[H:7])([H:3])([H:4])[H:5].[C:8]1([H:16])([H:17])[C:9]([H:18])([H:19])[C:10]2([H:20])[C:11]([H:21])([H:22])[C:12]([H:23])([H:24])[C:13]([H:25])([H:26])[C:14]2([H:27])[C:15]1([H:28])[H:29]

>  <mol_properties>  (3) 
{"0": {"label": "*4", "atom_type": "Cs"}, "1": {"label": "*3", "atom_type": "Cs"}, "9": {"label": "*1", "atom_type": "Cs"}, "13": {"label": "*0", "atom_type": "Cs"}, "19": {"label": "*2", "atom_type": "H0"}}

>  <level_of_theory>  (3) 
wb97xd/def2tzvp

>  <lot_method>  (3) 
wb97xd

>  <lot_basis>  (3) 
def2tzvp

>  <spin_multiplicity>  (3) 
2.0

>  <optical_isomers>  (3) 
2.0

>  <modes>  (3) 
IdealGasTranslation(mass=(139.149, 'amu')),         NonlinearRotor(             inertia = ([310.182, 505.763, 615.888

>  <frequency_value>  (3) 
-1635.48

>  <frequency_units>  (3) 
cm^-1

>  <frequency_list>  (3) 
unknown

>  <arkane_path>  (3) 
/home/calvin/Dropbox/PersonalFolders/Calvin/HAb_Converged/rxn_556/output/rxns/TS0/arkane/output.py

>  <path_exists>  (3) 
True

>  <E0_value>  (3) 
-1029710.0

>  <E0_units>  (3) 
kJ/mol

>  <thermo_class>  (3) 
unknown

>  <Cp0_value>  (3) 
unknown

>  <Cp0_units>  (3) 
unknown

>  <CpInf_value>  (3) 
unknown

>  <CpInf_units>  (3) 
unknown

>  <Tmin_value>  (3) 
unknown

>  <Tmin_units>  (3) 
unknown

>  <Tmax_value>  (3) 
unknown

>  <Tmax_units>  (3) 
unknown

>  <polynomials>  (3) 
unknown

>  <H298_value>  (3) 
unknown

>  <H298_units>  (3) 
unknown

>  <S298_value>  (3) 
unknown

>  <S298_units>  (3) 
unknown

>  <Cp_T_value_list>  (3) 
unknown

>  <Cp_T_units>  (3) 
unknown

>  <T_list>  (3) 
unknown

>  <T_units>  (3) 
unknown

>  <yaml_path>  (3) 
unknown

>  <frequencies_cm1>  (3) 
unknown

>  <ZPE_kJmol>  (3) 
unknown

>  <E_elec_kJmol>  (3) 
unknown

>  <E0_minus_Eelec_plus_ZPE_kJmol>  (3) 
unknown

>  <rxn>  (3) 
unknown

>  <species_type>  (3) 
unknown

>  <species_folder>  (3) 
unknown

>  <frequencies_cm1_list>  (3) 
[]

>  <ts_imag_freq_cm1>  (3) 
-1655.3455

>  <ts_freq_out_path>  (3) 
/home/calvin/Dropbox/PersonalFolders/Calvin/HAb_Converged/rxn_556/output/rxns/TS0/geometry/freq.out

>  <E0_kJmol>  (3) 
-1.02971e+06

>  <H298_kJmol>  (3) 
unknown

$$$$

     RDKit          3D

 21 22  0  0  0  0  0  0  0  0999 V2000
   -2.2298    0.3537    0.0543 C   0  0  0  0  0  0  0  0  0  1  0  0
   -1.1556    1.4284   -0.1994 C   0  0  0  0  0  0  0  0  0  2  0  0
    0.0609    0.6285   -0.5240 C   0  0  0  0  0  3  0  0  0  3  0  0
    1.4977    1.0080   -0.3953 C   0  0  0  0  0  0  0  0  0  4  0  0
    2.2141   -0.3503   -0.2737 C   0  0  0  0  0  0  0  0  0  5  0  0
    1.1785   -1.2652    0.3956 C   0  0  0  0  0  0  0  0  0  6  0  0
   -0.1494   -0.8311   -0.2398 C   0  0  0  0  0  0  0  0  0  7  0  0
   -1.4409   -0.8502    0.5889 C   0  0  0  0  0  0  0  0  0  8  0  0
   -2.7102    0.0864   -0.8907 H   0  0  0  0  0  0  0  0  0  9  0  0
   -3.0138    0.6865    0.7353 H   0  0  0  0  0  0  0  0  0 10  0  0
   -1.4459    2.1368   -0.9815 H   0  0  0  0  0  0  0  0  0 11  0  0
   -0.9857    2.0292    0.7068 H   0  0  0  0  0  0  0  0  0 12  0  0
    1.6525    1.6113    0.5121 H   0  0  0  0  0  0  0  0  0 13  0  0
    1.8766    1.6104   -1.2268 H   0  0  0  0  0  0  0  0  0 14  0  0
    3.1516   -0.2903    0.2803 H   0  0  0  0  0  0  0  0  0 15  0  0
    2.4485   -0.7309   -1.2715 H   0  0  0  0  0  0  0  0  0 16  0  0
    1.1473   -1.0612    1.4707 H   0  0  0  0  0  0  0  0  0 17  0  0
    1.4017   -2.3251    0.2670 H   0  0  0  0  0  0  0  0  0 18  0  0
   -0.3078   -1.3981   -1.1697 H   0  0  0  0  0  0  0  0  0 19  0  0
   -1.1949   -0.6901    1.6436 H   0  0  0  0  0  0  0  0  0 20  0  0
   -1.9953   -1.7869    0.5178 H   0  0  0  0  0  0  0  0  0 21  0  0
  1  8  1  0
  1 10  1  0
  1  9  1  0
  1  2  1  0
  2 12  1  0
  2 11  1  0
  2  3  1  0
  3  4  1  0
  3  7  1  0
  4 14  1  0
  4  5  1  0
  4 13  1  0
  5 16  1  0
  5 15  1  0
  5  6  1  0
  6  7  1  0
  6 17  1  0
  6 18  1  0
  7 19  1  0
  7  8  1  0
  8 20  1  0
  8 21  1  0
M  RAD  1   3   2
M  END
>  <rmg_smiles>  (4) 
C1C[C]2CCCC2C1

>  <rmg_adjacency_list>  (4) 
multiplicity 2
1  C u0 p0 c0 {2,S} {3,S} {8,S} {9,S}
2  C u0 p0 c0 {1,S} {5,S} {14,S} {15,S}
3  C u0 p0 c0 {1,S} {4,S} {16,S} {17,S}
4  C u0 p0 c0 {3,S} {6,S} {10,S} {11,S}
5  C u0 p0 c0 {2,S} {7,S} {12,S} {13,S}
6  C u0 p0 c0 {4,S} {8,S} {18,S} {19,S}
7  C u0 p0 c0 {5,S} {8,S} {20,S} {21,S}
8  C u1 p0 c0 {1,S} {6,S} {7,S}
9  H u0 p0 c0 {1,S}
10 H u0 p0 c0 {4,S}
11 H u0 p0 c0 {4,S}
12 H u0 p0 c0 {5,S}
13 H u0 p0 c0 {5,S}
14 H u0 p0 c0 {2,S}
15 H u0 p0 c0 {2,S}
16 H u0 p0 c0 {3,S}
17 H u0 p0 c0 {3,S}
18 H u0 p0 c0 {6,S}
19 H u0 p0 c0 {6,S}
20 H u0 p0 c0 {7,S}
21 H u0 p0 c0 {7,S}


>  <multiplicity>  (4) 
2

>  <reaction>  (4) 
rxn_556

>  <type>  (4) 
r1

>  <role_mapnums>  (4) 
{}

>  <role_mapidx>  (4) 
{}

>  <ordered_mapped_smiles>  (4) 
[C:1]1([H:9])([H:10])[C:2]([H:11])([H:12])[C:3]2[C:4]([H:13])([H:14])[C:5]([H:15])([H:16])[C:6]([H:17])([H:18])[C:7]2([H:19])[C:8]1([H:20])[H:21]

>  <level_of_theory>  (4) 
wb97xd/def2tzvp

>  <lot_method>  (4) 
wb97xd

>  <lot_basis>  (4) 
def2tzvp

>  <spin_multiplicity>  (4) 
2.0

>  <optical_isomers>  (4) 
1.0

>  <modes>  (4) 
IdealGasTranslation(mass=(109.102, 'amu')),         NonlinearRotor(             inertia = ([128.096, 276.317, 371.4

>  <frequency_value>  (4) 
unknown

>  <frequency_units>  (4) 
unknown

>  <frequency_list>  (4) 
unknown

>  <arkane_path>  (4) 
/home/calvin/Dropbox/PersonalFolders/Calvin/HAb_Converged/rxn_556/output/Species/rxn_556_C1C[C]2CCCC2C1/arkane/output.py

>  <path_exists>  (4) 
True

>  <E0_value>  (4) 
-820358.0894855347

>  <E0_units>  (4) 
kJ/mol

>  <thermo_class>  (4) 
NASA

>  <Cp0_value>  (4) 
33.257888

>  <Cp0_units>  (4) 
J/(mol*K)

>  <CpInf_value>  (4) 
507.182792

>  <CpInf_units>  (4) 
J/(mol*K)

>  <Tmin_value>  (4) 
10.0

>  <Tmin_units>  (4) 
K

>  <Tmax_value>  (4) 
3000.0

>  <Tmax_units>  (4) 
K

>  <polynomials>  (4) 
[{"name": "polynomial1", "class": "NASAPolynomial", "Tmin_value": 10.0, "Tmin_units": "K", "Tmax_value": 579.35086050788, "Tmax_units": "K", "coeffs": [4.0168197431565185, -0.0023297630194267305, 0.00023712396292664435, -3.756310989706859e-07, 1.906783516451148e-10, -98666285.54334764, 12.540459604510119]}, {"name": "polynomial2", "class": "NASAPolynomial", "Tmin_value": 579.35086050788, "Tmin_units": "K", "Tmax_value": 3000.0, "Tmax_units": "K", "coeffs": [-7.178507488411498, 0.09308274536709106, -5.6815413242134675e-05, 1.6584634856092287e-08, -1.8610860274994795e-12, -98665292.38247325, 57.816503635904304]}]

>  <H298_value>  (4) 
-196065.24781156375

>  <H298_units>  (4) 
kcal/mol

>  <S298_value>  (4) 
84.10171794049678

>  <S298_units>  (4) 
cal/(mol*K)

>  <Cp_T_value_list>  (4) 
[31.91752213710447, 43.45170902327354, 53.84621888221555, 62.7136048060052, 76.81518220931488, 87.06423337223478, 101.67010562403804, 108.55122006851184, 112.24323691068717]

>  <Cp_T_units>  (4) 
cal/(mol*K)

>  <T_list>  (4) 
[300.0, 400.0, 500.0, 600.0, 800.0, 1000.0, 1500.0, 2000.0, 2400.0]

>  <T_units>  (4) 
K

>  <yaml_path>  (4) 
/home/calvin/Dropbox/PersonalFolders/Calvin/HAb_Converged/rxn_556/output/Species/rxn_556_C1C[C]2CCCC2C1/rxn_556_C1CC2CCCC2C1.yml

>  <frequencies_cm1>  (4) 
[110.77134019692, 171.11154020376, 233.23028940848, 257.58748633851997, 365.8043079964, 501.11825372699997, 529.7535825114, 570.2001260461999, 607.59772809892, 733.54510585304, 827.3824602508398, 846.9465014275199, 869.77922761652, 898.1261430174801, 911.25581894932, 918.2326760344399, 937.4465009598, 970.46983336368, 989.62872240648, 1011.43140079748, 1048.2865110099199, 1056.8633756745999, 1096.30733935268, 1147.9745369003601, 1154.28529640944, 1200.28723106812, 1211.91303721488, 1214.6529643575598, 1226.3474403575199, 1232.83674148492, 1281.2009190936799, 1291.3846583232398, 1310.70835501372, 1325.28009786276, 1330.9453607517598, 1338.90419673764, 1347.22011596016, 1364.11976683268, 1457.1193490214398, 1464.1923439010397, 1476.69712416876, 1480.9752560231198, 1491.6808861369998, 1495.08691085572, 2931.77697855016, 2941.8851809412, 2944.8723195554, 3007.1146744958796, 3011.12499392276, 3011.5370130419597, 3012.60139576656, 3027.36541420456, 3028.16198450168, 3070.6411556912, 3073.4016837898394, 3079.81544807872, 3080.9416336711997]

>  <ZPE_kJmol>  (4) 
499.60810598606855

>  <E_elec_kJmol>  (4) 
-820857.6975915207

>  <E0_minus_Eelec_plus_ZPE_kJmol>  (4) 
0.0

>  <rxn>  (4) 
rxn_556

>  <species_type>  (4) 
p1

>  <species_folder>  (4) 
rxn_556_C1C[C]2CCCC2C1

>  <frequencies_cm1_list>  (4) 
[110.77134019692, 171.11154020376, 233.23028940848, 257.58748633851997, 365.8043079964, 501.11825372699997, 529.7535825114, 570.2001260461999, 607.59772809892, 733.54510585304, 827.3824602508398, 846.9465014275199, 869.77922761652, 898.1261430174801, 911.25581894932, 918.2326760344399, 937.4465009598, 970.46983336368, 989.62872240648, 1011.43140079748, 1048.2865110099199, 1056.8633756745999, 1096.30733935268, 1147.9745369003601, 1154.28529640944, 1200.28723106812, 1211.91303721488, 1214.6529643575598, 1226.3474403575199, 1232.83674148492, 1281.2009190936799, 1291.3846583232398, 1310.70835501372, 1325.28009786276, 1330.9453607517598, 1338.90419673764, 1347.22011596016, 1364.11976683268, 1457.1193490214398, 1464.1923439010397, 1476.69712416876, 1480.9752560231198, 1491.6808861369998, 1495.08691085572, 2931.77697855016, 2941.8851809412, 2944.8723195554, 3007.1146744958796, 3011.12499392276, 3011.5370130419597, 3012.60139576656, 3027.36541420456, 3028.16198450168, 3070.6411556912, 3073.4016837898394, 3079.81544807872, 3080.9416336711997]

>  <E0_kJmol>  (4) 
-820358

>  <H298_kJmol>  (4) 
-820337

$$$$

     RDKit          3D

  7  6  0  0  0  0  0  0  0  0999 V2000
   -0.6201    0.0189   -0.0017 C   0  0  0  0  0  0  0  0  0  1  0  0
    0.8589   -0.0553    0.0500 C   0  0  0  0  0  3  0  0  0  2  0  0
   -1.0738   -0.9730   -0.0559 H   0  0  0  0  0  0  0  0  0  3  0  0
   -0.9680    0.5706   -0.8872 H   0  0  0  0  0  0  0  0  0  4  0  0
   -1.0303    0.5369    0.8678 H   0  0  0  0  0  0  0  0  0  5  0  0
    1.3939   -0.8386   -0.4695 H   0  0  0  0  0  0  0  0  0  6  0  0
    1.4394    0.7404    0.4965 H   0  0  0  0  0  0  0  0  0  7  0  0
  1  5  1  0
  1  4  1  0
  1  3  1  0
  1  2  1  0
  2  7  1  0
  2  6  1  0
M  RAD  1   2   2
M  END
>  <rmg_smiles>  (5) 
C[CH2]

>  <rmg_adjacency_list>  (5) 
multiplicity 2
1 C u0 p0 c0 {2,S} {3,S} {4,S} {5,S}
2 C u1 p0 c0 {1,S} {6,S} {7,S}
3 H u0 p0 c0 {1,S}
4 H u0 p0 c0 {1,S}
5 H u0 p0 c0 {1,S}
6 H u0 p0 c0 {2,S}
7 H u0 p0 c0 {2,S}


>  <multiplicity>  (5) 
2

>  <reaction>  (5) 
rxn_556

>  <type>  (5) 
r2

>  <role_mapnums>  (5) 
{}

>  <role_mapidx>  (5) 
{}

>  <ordered_mapped_smiles>  (5) 
[C:1]([C:2]([H:6])[H:7])([H:3])([H:4])[H:5]

>  <level_of_theory>  (5) 
wb97xd/def2tzvp

>  <lot_method>  (5) 
wb97xd

>  <lot_basis>  (5) 
def2tzvp

>  <spin_multiplicity>  (5) 
2.0

>  <optical_isomers>  (5) 
1.0

>  <modes>  (5) 
IdealGasTranslation(mass=(29.0391, 'amu')),         NonlinearRotor(             inertia = ([4.86051, 22.0602, 23.8144

>  <frequency_value>  (5) 
unknown

>  <frequency_units>  (5) 
unknown

>  <frequency_list>  (5) 
unknown

>  <arkane_path>  (5) 
/home/calvin/Dropbox/PersonalFolders/Calvin/HAb_Converged/rxn_556/output/Species/rxn_556_C[CH2]/arkane/output.py

>  <path_exists>  (5) 
True

>  <E0_value>  (5) 
-207679.78865121285

>  <E0_units>  (5) 
kJ/mol

>  <thermo_class>  (5) 
NASA

>  <Cp0_value>  (5) 
33.257888

>  <Cp0_units>  (5) 
J/(mol*K)

>  <CpInf_value>  (5) 
157.97496800000002

>  <CpInf_units>  (5) 
J/(mol*K)

>  <Tmin_value>  (5) 
10.0

>  <Tmin_units>  (5) 
K

>  <Tmax_value>  (5) 
3000.0

>  <Tmax_units>  (5) 
K

>  <polynomials>  (5) 
[{"name": "polynomial1", "class": "NASAPolynomial", "Tmin_value": 10.0, "Tmin_units": "K", "Tmax_value": 487.87976470861213, "Tmax_units": "K", "coeffs": [3.9121871353579607, 0.009303342355112522, -1.0632548237956822e-05, 4.8831908404358495e-08, -4.7450160133634566e-11, -24978109.370781355, 5.932423398139755]}, {"name": "polynomial2", "class": "NASAPolynomial", "Tmin_value": 487.87976470861213, "Tmin_units": "K", "Tmax_value": 3000.0, "Tmax_units": "K", "coeffs": [1.255601804674027, 0.02015925973571526, -1.042095542288469e-05, 2.645655029251924e-09, -2.6467461504495006e-13, -24977720.132981308, 18.174806831505954]}]

>  <H298_value>  (5) 
-49633.563072244775

>  <H298_units>  (5) 
kcal/mol

>  <S298_value>  (5) 
61.32124798502571

>  <S298_units>  (5) 
cal/(mol*K)

>  <Cp_T_value_list>  (5) 
[13.275286080102546, 15.585331501205383, 17.97260864331377, 20.143861899983392, 23.766518336877798, 26.578661465366384, 31.07297867985595, 33.426295758137194, 34.588101279891]

>  <Cp_T_units>  (5) 
cal/(mol*K)

>  <T_list>  (5) 
[300.0, 400.0, 500.0, 600.0, 800.0, 1000.0, 1500.0, 2000.0, 2400.0]

>  <T_units>  (5) 
K

>  <yaml_path>  (5) 
/home/calvin/Dropbox/PersonalFolders/Calvin/HAb_Converged/rxn_556/output/Species/rxn_556_C[CH2]/rxn_556_CCH2.yml

>  <frequencies_cm1>  (5) 
[107.07690209476, 475.05117745227994, 809.2398850354, 971.27327064612, 1064.95268438156, 1183.6279246817999, 1386.8220203006, 1452.9442219468801, 1466.90480310244, 1470.74344789632, 2948.7315653052397, 3035.3173832051198, 3081.4978594821196, 3128.7358514984, 3230.1062887922394]

>  <ZPE_kJmol>  (5) 
154.3962225328414

>  <E_elec_kJmol>  (5) 
-207834.1848737457

>  <E0_minus_Eelec_plus_ZPE_kJmol>  (5) 
0.0

>  <rxn>  (5) 
rxn_556

>  <species_type>  (5) 
r0

>  <species_folder>  (5) 
rxn_556_C[CH2]

>  <frequencies_cm1_list>  (5) 
[107.07690209476, 475.05117745227994, 809.2398850354, 971.27327064612, 1064.95268438156, 1183.6279246817999, 1386.8220203006, 1452.9442219468801, 1466.90480310244, 1470.74344789632, 2948.7315653052397, 3035.3173832051198, 3081.4978594821196, 3128.7358514984, 3230.1062887922394]

>  <E0_kJmol>  (5) 
-207680

>  <H298_kJmol>  (5) 
-207667

$$$$
