
     RDKit          3D

 15 14  0  0  0  0  0  0  0  0999 V2000
   -0.9740   -0.7423   -1.6167 C   0  0  0  0  0  0  0  0  0  1  0  0
    0.1418   -0.3242   -1.0056 C   0  0  0  0  0  0  0  0  0  2  0  0
    0.2224    0.3579    0.2755 C   0  0  0  0  0  0  0  0  0  3  0  0
    1.5640    0.3085    0.9652 C   0  0  0  0  0  0  0  0  0  4  0  0
   -0.9764    0.3055    1.1881 C   0  0  0  0  0  0  0  0  0  5  0  0
   -0.9314   -1.2007   -2.5961 H   0  0  0  0  0  0  0  0  0  6  0  0
   -1.9520   -0.6506   -1.1612 H   0  0  0  0  0  0  0  0  0  7  0  0
    1.0869   -0.4452   -1.5288 H   0  0  0  0  0  0  0  0  0  8  0  0
    0.1894    1.3967   -0.0527 H   0  0  0  0  0  0  0  0  0  9  0  0
    2.3768    0.4749    0.2557 H   0  0  0  0  0  0  0  0  0 10  0  0
    1.7263   -0.6650    1.4398 H   0  0  0  0  0  0  0  0  0 11  0  0
    1.6316    1.0696    1.7458 H   0  0  0  0  0  0  0  0  0 12  0  0
   -1.1436   -0.7124    1.5553 H   0  0  0  0  0  0  0  0  0 13  0  0
   -1.8840    0.6330    0.6792 H   0  0  0  0  0  0  0  0  0 14  0  0
   -0.8276    0.9542    2.0532 H   0  0  0  0  0  0  0  0  0 15  0  0
  1  7  1  0
  1  6  1  0
  1  2  1  0
  2  8  1  0
  2  3  1  0
  3  4  1  0
  3  5  1  0
  3  9  1  0
  4 12  1  0
  4 10  1  0
  4 11  1  0
  5 14  1  0
  5 15  1  0
  5 13  1  0
M  END
>  <rmg_smiles>  (1) 
[CH2][CH]C(C)C

>  <rmg_adjacency_list>  (1) 
1  C u0 p0 c0 {2,S} {3,S} {4,S} {6,S}
2  C u0 p0 c0 {1,S} {7,S} {8,S} {9,S}
3  C u0 p0 c0 {1,S} {10,S} {11,S} {12,S}
4  C u0 p0 c0 {1,S} {5,S} {13,S}
5  C u0 p0 c0 {4,S} {14,S} {15,S}
6  H u0 p0 c0 {1,S}
7  H u0 p0 c0 {2,S}
8  H u0 p0 c0 {2,S}
9  H u0 p0 c0 {2,S}
10 H u0 p0 c0 {3,S}
11 H u0 p0 c0 {3,S}
12 H u0 p0 c0 {3,S}
13 H u0 p0 c0 {4,S}
14 H u0 p0 c0 {5,S}
15 H u0 p0 c0 {5,S}


>  <multiplicity>  (1) 
1

>  <reaction>  (1) 
rxn_1088

>  <type>  (1) 
r1h

>  <role_mapnums>  (1) 
{"r1h_a": 3, "r1h_h": 9}

>  <role_mapidx>  (1) 
{"r1h_a": 2, "r1h_h": 8}

>  <ordered_mapped_smiles>  (1) 
[CH:1]([CH:2]([C:3]([C:4]([H:10])([H:11])[H:12])([C:5]([H:13])([H:14])[H:15])[H:9])[H:8])([H:6])[H:7]

>  <mol_properties>  (1) 
{"2": {"label": "donator", "atom_type": "Cs"}, "8": {"label": "d_hydrogen", "atom_type": "H0"}}

>  <level_of_theory>  (1) 
wb97xd/def2tzvp

>  <lot_method>  (1) 
wb97xd

>  <lot_basis>  (1) 
def2tzvp

>  <spin_multiplicity>  (1) 
1.0

>  <optical_isomers>  (1) 
1.0

>  <modes>  (1) 
IdealGasTranslation(mass=(70.0782, 'amu')),         NonlinearRotor(             inertia = ([66.6608, 141.472, 183.078

>  <frequency_value>  (1) 
unknown

>  <frequency_units>  (1) 
unknown

>  <frequency_list>  (1) 
unknown

>  <arkane_path>  (1) 
/home/calvin/Dropbox/PersonalFolders/Calvin/HAb_Converged/rxn_1088/output/Species/rxn_1088_C=CC[C]C/arkane/output.py

>  <path_exists>  (1) 
True

>  <E0_value>  (1) 
-515673.38052477705

>  <E0_units>  (1) 
kJ/mol

>  <thermo_class>  (1) 
NASA

>  <Cp0_value>  (1) 
33.257888

>  <Cp0_units>  (1) 
J/(mol*K)

>  <CpInf_value>  (1) 
357.522296

>  <CpInf_units>  (1) 
J/(mol*K)

>  <Tmin_value>  (1) 
10.0

>  <Tmin_units>  (1) 
K

>  <Tmax_value>  (1) 
3000.0

>  <Tmax_units>  (1) 
K

>  <polynomials>  (1) 
[{"name": "polynomial1", "class": "NASAPolynomial", "Tmin_value": 10.0, "Tmin_units": "K", "Tmax_value": 771.9142943776243, "Tmax_units": "K", "coeffs": [3.779458831960257, 0.020018734993344757, 5.732000924414448e-05, -8.642208919280512e-08, 3.603052216308801e-11, -62021180.35978402, 9.742915927956899]}, {"name": "polynomial2", "class": "NASAPolynomial", "Tmin_value": 771.9142943776243, "Tmin_units": "K", "Tmax_value": 3000.0, "Tmax_units": "K", "coeffs": [-0.3478948834965036, 0.05301654054790977, -2.9363158728726394e-05, 7.927167712612882e-09, -8.370007264752279e-13, -62020889.064341925, 26.345999473910833]}]

>  <H298_value>  (1) 
-123244.18843001623

>  <H298_units>  (1) 
kcal/mol

>  <S298_value>  (1) 
77.68833091262955

>  <S298_units>  (1) 
cal/(mol*K)

>  <Cp_T_value_list>  (1) 
[25.639596007404617, 32.489876341134234, 38.88560738045824, 44.569638849609326, 53.63229961607037, 60.40244107425912, 70.79757735881338, 76.02631058064169, 78.64468950836424]

>  <Cp_T_units>  (1) 
cal/(mol*K)

>  <T_list>  (1) 
[300.0, 400.0, 500.0, 600.0, 800.0, 1000.0, 1500.0, 2000.0, 2400.0]

>  <T_units>  (1) 
K

>  <yaml_path>  (1) 
/home/calvin/Dropbox/PersonalFolders/Calvin/HAb_Converged/rxn_1088/output/Species/rxn_1088_C=CC[C]C/rxn_1088_C=CCCC.yml

>  <frequencies_cm1>  (1) 
[94.05023094271999, 222.95727936976, 245.1857108506, 315.11222236416, 324.16290901592, 348.98019396239994, 507.51141705991995, 698.37927402932, 806.58236171656, 930.133161594, 937.87912103496, 953.39850785816, 966.50071584872, 1002.9300729713199, 1033.8109059553599, 1124.0362260748398, 1181.8493754839199, 1216.6581240709997, 1311.4499894282799, 1330.73248420684, 1336.23980643348, 1388.2022843499199, 1406.6264059634798, 1448.4326125916398, 1473.6344487160397, 1475.715145268, 1487.5263600183998, 1497.1744743929999, 1715.9428927175597, 3004.91037220816, 3007.1696103784398, 3014.14646746356, 3074.26005695484, 3079.52703469528, 3091.4275202548397, 3093.20606945272, 3095.44470666704, 3114.5280588713204, 3199.45893330908]

>  <ZPE_kJmol>  (1) 
356.22333310819664

>  <E_elec_kJmol>  (1) 
-516029.6038578852

>  <E0_minus_Eelec_plus_ZPE_kJmol>  (1) 
0.0

>  <rxn>  (1) 
rxn_1088

>  <species_type>  (1) 
r1

>  <species_folder>  (1) 
rxn_1088_C=CC[C]C

>  <frequencies_cm1_list>  (1) 
[94.05023094271999, 222.95727936976, 245.1857108506, 315.11222236416, 324.16290901592, 348.98019396239994, 507.51141705991995, 698.37927402932, 806.58236171656, 930.133161594, 937.87912103496, 953.39850785816, 966.50071584872, 1002.9300729713199, 1033.8109059553599, 1124.0362260748398, 1181.8493754839199, 1216.6581240709997, 1311.4499894282799, 1330.73248420684, 1336.23980643348, 1388.2022843499199, 1406.6264059634798, 1448.4326125916398, 1473.6344487160397, 1475.715145268, 1487.5263600183998, 1497.1744743929999, 1715.9428927175597, 3004.91037220816, 3007.1696103784398, 3014.14646746356, 3074.26005695484, 3079.52703469528, 3091.4275202548397, 3093.20606945272, 3095.44470666704, 3114.5280588713204, 3199.45893330908]

>  <E0_kJmol>  (1) 
-515673

>  <H298_kJmol>  (1) 
-515654

$$$$

     RDKit          3D

 13 12  0  0  0  0  0  0  0  0999 V2000
   -2.2492    0.2993    0.5543 C   0  0  0  0  0  0  0  0  0  1  0  0
   -1.0821   -0.0319    0.0017 C   0  0  0  0  0  0  0  0  0  2  0  0
    0.1958   -0.0403    0.7144 C   0  0  0  0  0  0  0  0  0  3  0  0
    1.4595    0.0989   -0.0177 C   0  0  0  0  0  0  0  0  0  4  0  0
    1.6941   -0.2740   -1.2766 C   0  0  0  0  0  0  0  0  0  5  0  0
   -3.1709    0.2654   -0.0115 H   0  0  0  0  0  0  0  0  0  6  0  0
   -2.3146    0.6224    1.5877 H   0  0  0  0  0  0  0  0  0  7  0  0
   -1.0712   -0.3520   -1.0348 H   0  0  0  0  0  0  0  0  0  8  0  0
    0.1694    0.5070    1.6555 H   0  0  0  0  0  0  0  0  0  9  0  0
    2.2923    0.4831    0.5640 H   0  0  0  0  0  0  0  0  0 10  0  0
    2.6796   -0.1697   -1.7110 H   0  0  0  0  0  0  0  0  0 11  0  0
    0.9212   -0.6851   -1.9144 H   0  0  0  0  0  0  0  0  0 12  0  0
    0.2637   -1.0666    1.0721 H   0  0  0  0  0  0  0  0  0 13  0  0
  1  7  1  0
  1  6  1  0
  1  2  1  0
  2  8  1  0
  2  3  1  0
  3  4  1  0
  3 13  1  0
  3  9  1  0
  4  5  1  0
  4 10  1  0
  5 11  1  0
  5 12  1  0
M  END
>  <rmg_smiles>  (2) 
[CH2][CH]C[CH][CH2]

>  <rmg_adjacency_list>  (2) 
1  C u0 p0 c0 {2,S} {3,S} {6,S} {7,S}
2  C u0 p0 c0 {1,S} {4,S} {8,S}
3  C u0 p0 c0 {1,S} {5,S} {9,S}
4  C u0 p0 c0 {2,S} {10,S} {11,S}
5  C u0 p0 c0 {3,S} {12,S} {13,S}
6  H u0 p0 c0 {1,S}
7  H u0 p0 c0 {1,S}
8  H u0 p0 c0 {2,S}
9  H u0 p0 c0 {3,S}
10 H u0 p0 c0 {4,S}
11 H u0 p0 c0 {4,S}
12 H u0 p0 c0 {5,S}
13 H u0 p0 c0 {5,S}


>  <multiplicity>  (2) 
1

>  <reaction>  (2) 
rxn_1088

>  <type>  (2) 
r2h

>  <role_mapnums>  (2) 
{"r2h_a": 3, "r2h_h": 13}

>  <role_mapidx>  (2) 
{"r2h_a": 2, "r2h_h": 12}

>  <ordered_mapped_smiles>  (2) 
[CH:1]([CH:2]([C:3]([CH:4]([CH:5]([H:11])[H:12])[H:10])([H:9])[H:13])[H:8])([H:6])[H:7]

>  <mol_properties>  (2) 
{"2": {"label": "acceptor", "atom_type": "Cs"}, "12": {"label": "a_hydrogen", "atom_type": "H0"}}

>  <level_of_theory>  (2) 
wb97xd/def2tzvp

>  <lot_method>  (2) 
wb97xd

>  <lot_basis>  (2) 
def2tzvp

>  <spin_multiplicity>  (2) 
1.0

>  <optical_isomers>  (2) 
2.0

>  <modes>  (2) 
IdealGasTranslation(mass=(68.0626, 'amu')),         NonlinearRotor(             inertia = ([45.0412, 159.938, 187.579

>  <frequency_value>  (2) 
unknown

>  <frequency_units>  (2) 
unknown

>  <frequency_list>  (2) 
unknown

>  <arkane_path>  (2) 
/home/calvin/Dropbox/PersonalFolders/Calvin/HAb_Converged/rxn_1088/output/Species/rxn_1088_C=CCC=C/arkane/output.py

>  <path_exists>  (2) 
True

>  <E0_value>  (2) 
-512473.3799039456

>  <E0_units>  (2) 
kJ/mol

>  <thermo_class>  (2) 
NASA

>  <Cp0_value>  (2) 
33.257888

>  <Cp0_units>  (2) 
J/(mol*K)

>  <CpInf_value>  (2) 
307.635464

>  <CpInf_units>  (2) 
J/(mol*K)

>  <Tmin_value>  (2) 
10.0

>  <Tmin_units>  (2) 
K

>  <Tmax_value>  (2) 
3000.0

>  <Tmax_units>  (2) 
K

>  <polynomials>  (2) 
[{"name": "polynomial1", "class": "NASAPolynomial", "Tmin_value": 10.0, "Tmin_units": "K", "Tmax_value": 819.4804820196184, "Tmax_units": "K", "coeffs": [3.8786961323103277, 0.01518848526354921, 5.629175519915376e-05, -8.158967068239976e-08, 3.30459758185792e-11, -61636312.679365546, 10.298540277465028]}, {"name": "polynomial2", "class": "NASAPolynomial", "Tmin_value": 819.4804820196184, "Tmin_units": "K", "Tmax_value": 3000.0, "Tmax_units": "K", "coeffs": [0.9713570478533602, 0.04440309225960069, -2.468286623666531e-05, 6.656489578832237e-09, -7.002700885295111e-13, -61636340.62723716, 20.6681030649648]}]

>  <H298_value>  (2) 
-122479.74618776135

>  <H298_units>  (2) 
kcal/mol

>  <S298_value>  (2) 
77.03784100856907

>  <S298_units>  (2) 
cal/(mol*K)

>  <Cp_T_value_list>  (2) 
[22.98452912921813, 28.98342495343222, 34.60231709225981, 39.57761952390819, 47.33114131422195, 52.95468648559353, 61.52407504834919, 65.76395981018108, 67.86608281001313]

>  <Cp_T_units>  (2) 
cal/(mol*K)

>  <T_list>  (2) 
[300.0, 400.0, 500.0, 600.0, 800.0, 1000.0, 1500.0, 2000.0, 2400.0]

>  <T_units>  (2) 
K

>  <yaml_path>  (2) 
/home/calvin/Dropbox/PersonalFolders/Calvin/HAb_Converged/rxn_1088/output/Species/rxn_1088_C=CCC=C/rxn_1088_C=CCC=C.yml

>  <frequencies_cm1>  (2) 
[87.95234797856001, 151.90458226372, 257.19606817528, 416.50326061396, 498.01437636235994, 571.25077480016, 682.49593698416, 887.8393990081199, 919.5923391278, 958.3564712591999, 961.16506825508, 963.55477914644, 1034.0581174268798, 1039.2220903875198, 1080.8909573092799, 1137.2757737718, 1245.9046145488799, 1315.20623039832, 1324.3393208739199, 1346.8492987528798, 1434.93211945252, 1443.44718124932, 1463.70478794332, 1713.3403052812798, 1720.18668964532, 2995.26912481888, 3030.3800207600398, 3111.8568015818396, 3116.1074654949202, 3123.6062134643594, 3128.7427184837197, 3202.1645255251597, 3207.6031778986]

>  <ZPE_kJmol>  (2) 
296.4999886896896

>  <E_elec_kJmol>  (2) 
-512769.8798926352

>  <E0_minus_Eelec_plus_ZPE_kJmol>  (2) 
0.0

>  <rxn>  (2) 
rxn_1088

>  <species_type>  (2) 
p0

>  <species_folder>  (2) 
rxn_1088_C=CCC=C

>  <frequencies_cm1_list>  (2) 
[87.95234797856001, 151.90458226372, 257.19606817528, 416.50326061396, 498.01437636235994, 571.25077480016, 682.49593698416, 887.8393990081199, 919.5923391278, 958.3564712591999, 961.16506825508, 963.55477914644, 1034.0581174268798, 1039.2220903875198, 1080.8909573092799, 1137.2757737718, 1245.9046145488799, 1315.20623039832, 1324.3393208739199, 1346.8492987528798, 1434.93211945252, 1443.44718124932, 1463.70478794332, 1713.3403052812798, 1720.18668964532, 2995.26912481888, 3030.3800207600398, 3111.8568015818396, 3116.1074654949202, 3123.6062134643594, 3128.7427184837197, 3202.1645255251597, 3207.6031778986]

>  <E0_kJmol>  (2) 
-512473

>  <H298_kJmol>  (2) 
-512455

$$$$

     RDKit          3D

 27 25  0  0  0  0  0  0  0  0999 V2000
   -2.2978    1.8380   -0.0571 C   0  0  0  0  0  0  0  0  0  1  0  0
   -1.1307    1.5068   -0.6097 C   0  0  0  0  0  0  0  0  0  2  0  0
    0.1473    1.4984    0.1030 C   0  0  0  0  0  0  0  0  0  3  0  0
    1.4109    1.6376   -0.6291 C   0  0  0  0  0  0  0  0  0  4  0  0
    1.6455    1.2647   -1.8879 C   0  0  0  0  0  0  0  0  0  5  0  0
   -3.2195    1.8041   -0.6229 H   0  0  0  0  0  0  0  0  0  6  0  0
   -2.3632    2.1611    0.9764 H   0  0  0  0  0  0  0  0  0  7  0  0
   -1.1198    1.1867   -1.6461 H   0  0  0  0  0  0  0  0  0  8  0  0
    0.1208    2.0457    1.0441 H   0  0  0  0  0  0  0  0  0  9  0  0
    2.2438    2.0218   -0.0473 H   0  0  0  0  0  0  0  0  0 10  0  0
    2.6310    1.3690   -2.3223 H   0  0  0  0  0  0  0  0  0 11  0  0
    0.8726    0.8536   -2.5258 H   0  0  0  0  0  0  0  0  0 12  0  0
   -0.9248   -2.1619   -0.9396 C   0  0  0  0  0  0  0  0  0 13  0  0
    0.1909   -1.7439   -0.3285 C   0  0  0  0  0  0  0  0  0 14  0  0
    0.2716   -1.0618    0.9526 C   0  0  0  0  0  3  0  0  0 15  0  0
    1.6132   -1.1111    1.6423 C   0  0  0  0  0  0  0  0  0 16  0  0
   -0.9273   -1.1141    1.8652 C   0  0  0  0  0  0  0  0  0 17  0  0
   -0.8823   -2.6203   -1.9190 H   0  0  0  0  0  0  0  0  0 18  0  0
   -1.9029   -2.0702   -0.4841 H   0  0  0  0  0  0  0  0  0 19  0  0
    1.1360   -1.8648   -0.8517 H   0  0  0  0  0  0  0  0  0 20  0  0
    0.2300    0.2490    0.5385 H   0  0  0  0  0  0  0  0  0 21  0  0
    2.4260   -0.9447    0.9328 H   0  0  0  0  0  0  0  0  0 22  0  0
    1.7755   -2.0847    2.1169 H   0  0  0  0  0  0  0  0  0 23  0  0
    1.6808   -0.3500    2.4229 H   0  0  0  0  0  0  0  0  0 24  0  0
   -1.0945   -2.1321    2.2324 H   0  0  0  0  0  0  0  0  0 25  0  0
   -1.8348   -0.7866    1.3563 H   0  0  0  0  0  0  0  0  0 26  0  0
   -0.7784   -0.4655    2.7303 H   0  0  0  0  0  0  0  0  0 27  0  0
  1  7  1  0
  1  6  1  0
  1  2  1  0
  2  8  1  0
  2  3  1  0
  3  4  1  0
  3 21  1  0
  3  9  1  0
  4 10  1  0
  4  5  1  0
  5 12  1  0
  5 11  1  0
 13 19  1  0
 13 18  1  0
 13 14  1  0
 14 15  1  0
 14 20  1  0
 15 16  1  0
 15 17  1  0
 16 22  1  0
 16 23  1  0
 16 24  1  0
 17 27  1  0
 17 26  1  0
 17 25  1  0
M  RAD  1  15   2
M  END
>  <rmg_smiles>  (3) 
[CH2][CH]C[CH][CH2].[CH2][CH][C](C)C

>  <rmg_adjacency_list>  (3) 
multiplicity 2
1  C u0 p0 c0 {5,S} {6,S} {11,S} {12,S}
2  C u0 p0 c0 {4,S} {13,S} {14,S} {15,S}
3  C u0 p0 c0 {4,S} {16,S} {17,S} {18,S}
4  C u1 p0 c0 {2,S} {3,S} {7,S}
5  C u0 p0 c0 {1,S} {8,S} {19,S}
6  C u0 p0 c0 {1,S} {9,S} {20,S}
7  C u0 p0 c0 {4,S} {10,S} {21,S}
8  C u0 p0 c0 {5,S} {22,S} {23,S}
9  C u0 p0 c0 {6,S} {24,S} {25,S}
10 C u0 p0 c0 {7,S} {26,S} {27,S}
11 H u0 p0 c0 {1,S}
12 H u0 p0 c0 {1,S}
13 H u0 p0 c0 {2,S}
14 H u0 p0 c0 {2,S}
15 H u0 p0 c0 {2,S}
16 H u0 p0 c0 {3,S}
17 H u0 p0 c0 {3,S}
18 H u0 p0 c0 {3,S}
19 H u0 p0 c0 {5,S}
20 H u0 p0 c0 {6,S}
21 H u0 p0 c0 {7,S}
22 H u0 p0 c0 {8,S}
23 H u0 p0 c0 {8,S}
24 H u0 p0 c0 {9,S}
25 H u0 p0 c0 {9,S}
26 H u0 p0 c0 {10,S}
27 H u0 p0 c0 {10,S}


>  <multiplicity>  (3) 
2

>  <reaction>  (3) 
rxn_1088

>  <type>  (3) 
ts

>  <role_mapnums>  (3) 
{"*2": 21, "*1": 15, "*3": 3, "*0": 2, "*4": 14}

>  <role_mapidx>  (3) 
{"*2": 20, "*1": 14, "*3": 2, "*0": 1, "*4": 13}

>  <ordered_mapped_smiles>  (3) 
[CH:1]([CH:2]([C:3]([CH:4]([CH:5]([H:11])[H:12])[H:10])([H:9])[H:21])[H:8])([H:6])[H:7].[CH:13]([CH:14]([C:15]([C:16]([H:22])([H:23])[H:24])[C:17]([H:25])([H:26])[H:27])[H:20])([H:18])[H:19]

>  <mol_properties>  (3) 
{"1": {"label": "*0", "atom_type": "Cs"}, "2": {"label": "*3", "atom_type": "Cs"}, "13": {"label": "*4", "atom_type": "Cs"}, "14": {"label": "*1", "atom_type": "Cs"}, "20": {"label": "*2", "atom_type": "H0"}}

>  <level_of_theory>  (3) 
wb97xd/def2tzvp

>  <lot_method>  (3) 
wb97xd

>  <lot_basis>  (3) 
def2tzvp

>  <spin_multiplicity>  (3) 
2.0

>  <optical_isomers>  (3) 
2.0

>  <modes>  (3) 
IdealGasTranslation(mass=(137.133, 'amu')),         NonlinearRotor(             inertia = ([393.022, 520.575, 618.17

>  <frequency_value>  (3) 
-1723.05

>  <frequency_units>  (3) 
cm^-1

>  <frequency_list>  (3) 
unknown

>  <arkane_path>  (3) 
/home/calvin/Dropbox/PersonalFolders/Calvin/HAb_Converged/rxn_1088/output/rxns/TS0/arkane/output.py

>  <path_exists>  (3) 
True

>  <E0_value>  (3) 
-1026430.0

>  <E0_units>  (3) 
kJ/mol

>  <thermo_class>  (3) 
unknown

>  <Cp0_value>  (3) 
unknown

>  <Cp0_units>  (3) 
unknown

>  <CpInf_value>  (3) 
unknown

>  <CpInf_units>  (3) 
unknown

>  <Tmin_value>  (3) 
unknown

>  <Tmin_units>  (3) 
unknown

>  <Tmax_value>  (3) 
unknown

>  <Tmax_units>  (3) 
unknown

>  <polynomials>  (3) 
unknown

>  <H298_value>  (3) 
unknown

>  <H298_units>  (3) 
unknown

>  <S298_value>  (3) 
unknown

>  <S298_units>  (3) 
unknown

>  <Cp_T_value_list>  (3) 
unknown

>  <Cp_T_units>  (3) 
unknown

>  <T_list>  (3) 
unknown

>  <T_units>  (3) 
unknown

>  <yaml_path>  (3) 
unknown

>  <frequencies_cm1>  (3) 
unknown

>  <ZPE_kJmol>  (3) 
unknown

>  <E_elec_kJmol>  (3) 
unknown

>  <E0_minus_Eelec_plus_ZPE_kJmol>  (3) 
unknown

>  <rxn>  (3) 
unknown

>  <species_type>  (3) 
unknown

>  <species_folder>  (3) 
unknown

>  <frequencies_cm1_list>  (3) 
[]

>  <ts_imag_freq_cm1>  (3) 
-1743.9783

>  <ts_freq_out_path>  (3) 
/home/calvin/Dropbox/PersonalFolders/Calvin/HAb_Converged/rxn_1088/output/rxns/TS0/geometry/freq.out

>  <E0_kJmol>  (3) 
-1.02643e+06

>  <H298_kJmol>  (3) 
unknown

$$$$

     RDKit          3D

 14 13  0  0  0  0  0  0  0  0999 V2000
    1.0767   -1.6838    1.2931 C   0  0  0  0  0  0  0  0  0  1  0  0
    1.0020   -0.3665    0.9163 C   0  0  0  0  0  0  0  0  0  2  0  0
    1.3965    0.7260    1.6806 C   0  0  0  0  0  3  0  0  0  3  0  0
    1.2666    2.1197    1.1619 C   0  0  0  0  0  0  0  0  0  4  0  0
    1.9670    0.5479    3.0536 C   0  0  0  0  0  0  0  0  0  5  0  0
    0.7448   -2.4705    0.6300 H   0  0  0  0  0  0  0  0  0  6  0  0
    1.4663   -1.9826    2.2578 H   0  0  0  0  0  0  0  0  0  7  0  0
    0.5980   -0.1511   -0.0695 H   0  0  0  0  0  0  0  0  0  8  0  0
    0.6296    2.7241    1.8172 H   0  0  0  0  0  0  0  0  0  9  0  0
    2.2410    2.6200    1.1341 H   0  0  0  0  0  0  0  0  0 10  0  0
    0.8426    2.1448    0.1579 H   0  0  0  0  0  0  0  0  0 11  0  0
    2.8745   -0.0634    3.0328 H   0  0  0  0  0  0  0  0  0 12  0  0
    1.2599    0.0408    3.7173 H   0  0  0  0  0  0  0  0  0 13  0  0
    2.2205    1.5071    3.5054 H   0  0  0  0  0  0  0  0  0 14  0  0
  1  7  1  0
  1  6  1  0
  1  2  1  0
  2  8  1  0
  2  3  1  0
  3  4  1  0
  3  5  1  0
  4  9  1  0
  4 10  1  0
  4 11  1  0
  5 12  1  0
  5 14  1  0
  5 13  1  0
M  RAD  1   3   2
M  END
>  <rmg_smiles>  (4) 
[CH2][CH][C](C)C

>  <rmg_adjacency_list>  (4) 
multiplicity 2
1  C u0 p0 c0 {3,S} {6,S} {7,S} {8,S}
2  C u0 p0 c0 {3,S} {9,S} {10,S} {11,S}
3  C u1 p0 c0 {1,S} {2,S} {4,S}
4  C u0 p0 c0 {3,S} {5,S} {12,S}
5  C u0 p0 c0 {4,S} {13,S} {14,S}
6  H u0 p0 c0 {1,S}
7  H u0 p0 c0 {1,S}
8  H u0 p0 c0 {1,S}
9  H u0 p0 c0 {2,S}
10 H u0 p0 c0 {2,S}
11 H u0 p0 c0 {2,S}
12 H u0 p0 c0 {4,S}
13 H u0 p0 c0 {5,S}
14 H u0 p0 c0 {5,S}


>  <multiplicity>  (4) 
2

>  <reaction>  (4) 
rxn_1088

>  <type>  (4) 
r1

>  <role_mapnums>  (4) 
{}

>  <role_mapidx>  (4) 
{}

>  <ordered_mapped_smiles>  (4) 
[CH:1]([CH:2]([C:3]([C:4]([H:9])([H:10])[H:11])[C:5]([H:12])([H:13])[H:14])[H:8])([H:6])[H:7]

>  <level_of_theory>  (4) 
wb97xd/def2tzvp

>  <lot_method>  (4) 
wb97xd

>  <lot_basis>  (4) 
def2tzvp

>  <spin_multiplicity>  (4) 
2.0

>  <optical_isomers>  (4) 
1.0

>  <modes>  (4) 
IdealGasTranslation(mass=(69.0704, 'amu')),         NonlinearRotor(             inertia = ([61.3549, 130.413, 185.559

>  <frequency_value>  (4) 
unknown

>  <frequency_units>  (4) 
unknown

>  <frequency_list>  (4) 
unknown

>  <arkane_path>  (4) 
/home/calvin/Dropbox/PersonalFolders/Calvin/HAb_Converged/rxn_1088/output/Species/rxn_1088_C=C[C][C]C/arkane/output.py

>  <path_exists>  (4) 
True

>  <E0_value>  (4) 
-514025.9755079239

>  <E0_units>  (4) 
kJ/mol

>  <thermo_class>  (4) 
NASA

>  <Cp0_value>  (4) 
33.257888

>  <Cp0_units>  (4) 
J/(mol*K)

>  <CpInf_value>  (4) 
332.57888

>  <CpInf_units>  (4) 
J/(mol*K)

>  <Tmin_value>  (4) 
10.0

>  <Tmin_units>  (4) 
K

>  <Tmax_value>  (4) 
3000.0

>  <Tmax_units>  (4) 
K

>  <polynomials>  (4) 
[{"name": "polynomial1", "class": "NASAPolynomial", "Tmin_value": 10.0, "Tmin_units": "K", "Tmax_value": 869.6920679830255, "Tmax_units": "K", "coeffs": [3.7251534266099315, 0.026124983740037182, 2.9283649756322525e-05, -5.054120287970429e-08, 2.023244225001157e-11, -61823043.86817725, 10.74219344334208]}, {"name": "polynomial2", "class": "NASAPolynomial", "Tmin_value": 869.6920679830255, "Tmin_units": "K", "Tmax_value": 3000.0, "Tmax_units": "K", "coeffs": [2.049387595722733, 0.04566272803591952, -2.48184133745368e-05, 6.572064258076298e-09, -6.813784120606917e-13, -61823199.79068455, 16.020641566778316]}]

>  <H298_value>  (4) 
-122850.30931833542

>  <H298_units>  (4) 
kcal/mol

>  <S298_value>  (4) 
80.76860453620434

>  <S298_units>  (4) 
cal/(mol*K)

>  <Cp_T_value_list>  (4) 
[25.828611832321002, 32.0811525837059, 37.867084343079156, 43.01801750917861, 51.22380214574075, 57.20052316456338, 66.43884769284972, 71.0936035426273, 73.39069523043335]

>  <Cp_T_units>  (4) 
cal/(mol*K)

>  <T_list>  (4) 
[300.0, 400.0, 500.0, 600.0, 800.0, 1000.0, 1500.0, 2000.0, 2400.0]

>  <T_units>  (4) 
K

>  <yaml_path>  (4) 
/home/calvin/Dropbox/PersonalFolders/Calvin/HAb_Converged/rxn_1088/output/Species/rxn_1088_C=C[C][C]C/rxn_1088_C=CCCC.yml

>  <frequencies_cm1>  (4) 
[55.11442417832, 159.33466037996, 226.55557967744, 278.64853031495994, 356.053188842, 383.12971195875997, 537.2797984221199, 582.97958572672, 765.24311009016, 793.8921728451999, 933.2782408705599, 980.1316817089199, 985.8381465098398, 986.5797809243999, 1056.26594795176, 1065.45397430992, 1225.2624566769598, 1249.45484595932, 1354.32057878104, 1397.4040446787199, 1400.8306703534, 1443.5021171318801, 1461.08159955108, 1469.6378632598, 1480.13061682876, 1493.1229530541998, 1520.0758704352, 2982.7506105805196, 2995.00817937672, 3028.9585547987995, 3046.0710822162396, 3091.5030570933595, 3094.47646173692, 3117.3709907937996, 3132.2036790849997, 3223.1775006043595]

>  <ZPE_kJmol>  (4) 
319.1166494835046

>  <E_elec_kJmol>  (4) 
-514345.0921574074

>  <E0_minus_Eelec_plus_ZPE_kJmol>  (4) 
0.0

>  <rxn>  (4) 
rxn_1088

>  <species_type>  (4) 
p1

>  <species_folder>  (4) 
rxn_1088_C=C[C][C]C

>  <frequencies_cm1_list>  (4) 
[55.11442417832, 159.33466037996, 226.55557967744, 278.64853031495994, 356.053188842, 383.12971195875997, 537.2797984221199, 582.97958572672, 765.24311009016, 793.8921728451999, 933.2782408705599, 980.1316817089199, 985.8381465098398, 986.5797809243999, 1056.26594795176, 1065.45397430992, 1225.2624566769598, 1249.45484595932, 1354.32057878104, 1397.4040446787199, 1400.8306703534, 1443.5021171318801, 1461.08159955108, 1469.6378632598, 1480.13061682876, 1493.1229530541998, 1520.0758704352, 2982.7506105805196, 2995.00817937672, 3028.9585547987995, 3046.0710822162396, 3091.5030570933595, 3094.47646173692, 3117.3709907937996, 3132.2036790849997, 3223.1775006043595]

>  <E0_kJmol>  (4) 
-514026

>  <H298_kJmol>  (4) 
-514006

$$$$

     RDKit          3D

 12 11  0  0  0  0  0  0  0  0999 V2000
   -2.3791    0.4612   -0.5870 C   0  0  0  0  0  0  0  0  0  1  0  0
   -1.3422   -0.3138   -0.1893 C   0  0  0  0  0  0  0  0  0  2  0  0
   -1.4723   -1.6058    0.3589 C   0  0  0  0  0  3  0  0  0  3  0  0
   -0.3798   -2.3973    0.7671 C   0  0  0  0  0  0  0  0  0  4  0  0
   -0.4849   -3.6397    1.2956 C   0  0  0  0  0  0  0  0  0  5  0  0
   -2.2205    1.4472   -1.0017 H   0  0  0  0  0  0  0  0  0  6  0  0
   -3.4026    0.1153   -0.5011 H   0  0  0  0  0  0  0  0  0  7  0  0
   -0.3330    0.0765   -0.2952 H   0  0  0  0  0  0  0  0  0  8  0  0
   -2.4723   -2.0151    0.4735 H   0  0  0  0  0  0  0  0  0  9  0  0
    0.6117   -1.9687    0.6436 H   0  0  0  0  0  0  0  0  0 10  0  0
    0.3893   -4.2030    1.5920 H   0  0  0  0  0  0  0  0  0 11  0  0
   -1.4516   -4.1084    1.4378 H   0  0  0  0  0  0  0  0  0 12  0  0
  1  7  1  0
  1  6  1  0
  1  2  1  0
  2  8  1  0
  2  3  1  0
  3  4  1  0
  3  9  1  0
  4  5  1  0
  4 10  1  0
  5 11  1  0
  5 12  1  0
M  RAD  1   3   2
M  END
>  <rmg_smiles>  (5) 
[CH2][CH][CH][CH][CH2]

>  <rmg_adjacency_list>  (5) 
multiplicity 2
1  C u1 p0 c0 {2,S} {3,S} {7,S}
2  C u0 p0 c0 {1,S} {4,S} {6,S}
3  C u0 p0 c0 {1,S} {5,S} {8,S}
4  C u0 p0 c0 {2,S} {9,S} {10,S}
5  C u0 p0 c0 {3,S} {11,S} {12,S}
6  H u0 p0 c0 {2,S}
7  H u0 p0 c0 {1,S}
8  H u0 p0 c0 {3,S}
9  H u0 p0 c0 {4,S}
10 H u0 p0 c0 {4,S}
11 H u0 p0 c0 {5,S}
12 H u0 p0 c0 {5,S}


>  <multiplicity>  (5) 
2

>  <reaction>  (5) 
rxn_1088

>  <type>  (5) 
r2

>  <role_mapnums>  (5) 
{}

>  <role_mapidx>  (5) 
{}

>  <ordered_mapped_smiles>  (5) 
[CH:1]([CH:2]([C:3]([CH:4]([CH:5]([H:11])[H:12])[H:10])[H:9])[H:8])([H:6])[H:7]

>  <level_of_theory>  (5) 
wb97xd/def2tzvp

>  <lot_method>  (5) 
wb97xd

>  <lot_basis>  (5) 
def2tzvp

>  <spin_multiplicity>  (5) 
2.0

>  <optical_isomers>  (5) 
1.0

>  <modes>  (5) 
IdealGasTranslation(mass=(67.0548, 'amu')),         NonlinearRotor(             inertia = ([15.7789, 219.5, 235.279

>  <frequency_value>  (5) 
unknown

>  <frequency_units>  (5) 
unknown

>  <frequency_list>  (5) 
unknown

>  <arkane_path>  (5) 
/home/calvin/Dropbox/PersonalFolders/Calvin/HAb_Converged/rxn_1088/output/Species/rxn_1088_C=C[CH]C=C/arkane/output.py

>  <path_exists>  (5) 
True

>  <E0_value>  (5) 
-510855.5740840656

>  <E0_units>  (5) 
kJ/mol

>  <thermo_class>  (5) 
NASA

>  <Cp0_value>  (5) 
33.257888

>  <Cp0_units>  (5) 
J/(mol*K)

>  <CpInf_value>  (5) 
282.692048

>  <CpInf_units>  (5) 
J/(mol*K)

>  <Tmin_value>  (5) 
10.0

>  <Tmin_units>  (5) 
K

>  <Tmax_value>  (5) 
3000.0

>  <Tmax_units>  (5) 
K

>  <polynomials>  (5) 
[{"name": "polynomial1", "class": "NASAPolynomial", "Tmin_value": 10.0, "Tmin_units": "K", "Tmax_value": 495.6389949168232, "Tmax_units": "K", "coeffs": [3.9320577873257285, 0.004240283642988306, 0.00013490757195769133, -2.633230167682393e-07, 1.6265620535113686e-10, -61441731.25618626, 9.35020846186241]}, {"name": "polynomial2", "class": "NASAPolynomial", "Tmin_value": 495.6389949168232, "Tmin_units": "K", "Tmax_value": 3000.0, "Tmax_units": "K", "coeffs": [0.46820193837407664, 0.04513114129568573, -2.7994403583140814e-05, 8.450074169568166e-09, -9.873128269078105e-13, -61441546.78571627, 22.027084361592905]}]

>  <H298_value>  (5) 
-122093.21999067123

>  <H298_units>  (5) 
kcal/mol

>  <S298_value>  (5) 
73.53287706169851

>  <S298_units>  (5) 
cal/(mol*K)

>  <Cp_T_value_list>  (5) 
[22.959425131058183, 28.86359523830624, 33.84157806333094, 38.087121136790294, 44.86860166766972, 49.81469837846264, 57.02931907034297, 60.72199262606008, 62.78048690125866]

>  <Cp_T_units>  (5) 
cal/(mol*K)

>  <T_list>  (5) 
[300.0, 400.0, 500.0, 600.0, 800.0, 1000.0, 1500.0, 2000.0, 2400.0]

>  <T_units>  (5) 
K

>  <yaml_path>  (5) 
/home/calvin/Dropbox/PersonalFolders/Calvin/HAb_Converged/rxn_1088/output/Species/rxn_1088_C=C[CH]C=C/rxn_1088_C=CCHC=C.yml

>  <frequencies_cm1>  (5) 
[152.447074104, 206.60012033752, 248.40632696568, 457.56783282756, 491.88902545691997, 588.69978449828, 627.8209998663199, 832.6631719619199, 870.4315912219199, 882.064264354, 920.7322586909199, 984.0870652532399, 1007.05026416332, 1023.1327437827599, 1134.86546192448, 1248.1157838219199, 1283.31595057224, 1294.9760916455998, 1300.263670342, 1433.84713577196, 1468.49107671136, 1516.66297873116, 1589.96804702216, 3115.7572492435997, 3116.0319286563995, 3124.4645866293595, 3126.14013104744, 3128.61224576264, 3219.8676136801196, 3219.9431505186403]

>  <ZPE_kJmol>  (5) 
260.87520327866343

>  <E_elec_kJmol>  (5) 
-511116.4492873443

>  <E0_minus_Eelec_plus_ZPE_kJmol>  (5) 
0.0

>  <rxn>  (5) 
rxn_1088

>  <species_type>  (5) 
r0

>  <species_folder>  (5) 
rxn_1088_C=C[CH]C=C

>  <frequencies_cm1_list>  (5) 
[152.447074104, 206.60012033752, 248.40632696568, 457.56783282756, 491.88902545691997, 588.69978449828, 627.8209998663199, 832.6631719619199, 870.4315912219199, 882.064264354, 920.7322586909199, 984.0870652532399, 1007.05026416332, 1023.1327437827599, 1134.86546192448, 1248.1157838219199, 1283.31595057224, 1294.9760916455998, 1300.263670342, 1433.84713577196, 1468.49107671136, 1516.66297873116, 1589.96804702216, 3115.7572492435997, 3116.0319286563995, 3124.4645866293595, 3126.14013104744, 3128.61224576264, 3219.8676136801196, 3219.9431505186403]

>  <E0_kJmol>  (5) 
-510856

>  <H298_kJmol>  (5) 
-510838

$$$$
