
     RDKit          3D

 12 11  0  0  0  0  0  0  0  0999 V2000
   -0.2061    0.6113   -1.2689 C   0  0  0  0  0  0  0  0  0  1  0  0
    0.0331    0.0446   -0.0645 C   0  0  0  0  0  0  0  0  0  2  0  0
    0.1145    0.8404    1.1275 C   0  0  0  0  0  0  0  0  0  3  0  0
    0.1013   -1.4480    0.0920 C   0  0  0  0  0  0  0  0  0  4  0  0
   -0.2567    1.6871   -1.3805 H   0  0  0  0  0  0  0  0  0  5  0  0
   -0.3359    0.0120   -2.1609 H   0  0  0  0  0  0  0  0  0  6  0  0
   -0.9374    0.9350    1.3836 H   0  0  0  0  0  0  0  0  0  7  0  0
    0.5442    0.3748    2.0105 H   0  0  0  0  0  0  0  0  0  8  0  0
    0.3726    1.8888    1.0037 H   0  0  0  0  0  0  0  0  0  9  0  0
    1.0923   -1.7491    0.4393 H   0  0  0  0  0  0  0  0  0 10  0  0
   -0.6192   -1.7836    0.8410 H   0  0  0  0  0  0  0  0  0 11  0  0
   -0.1081   -1.9642   -0.8442 H   0  0  0  0  0  0  0  0  0 12  0  0
  1  5  1  0
  1  6  1  0
  1  2  1  0
  2  3  1  0
  2  4  1  0
  3  7  1  0
  3  9  1  0
  3  8  1  0
  4 12  1  0
  4 10  1  0
  4 11  1  0
M  END
>  <rmg_smiles>  (1) 
[CH2]C(C)C

>  <rmg_adjacency_list>  (1) 
1  C u0 p0 c0 {3,S} {5,S} {6,S} {7,S}
2  C u0 p0 c0 {3,S} {8,S} {9,S} {10,S}
3  C u0 p0 c0 {1,S} {2,S} {4,S}
4  C u0 p0 c0 {3,S} {11,S} {12,S}
5  H u0 p0 c0 {1,S}
6  H u0 p0 c0 {1,S}
7  H u0 p0 c0 {1,S}
8  H u0 p0 c0 {2,S}
9  H u0 p0 c0 {2,S}
10 H u0 p0 c0 {2,S}
11 H u0 p0 c0 {4,S}
12 H u0 p0 c0 {4,S}


>  <multiplicity>  (1) 
1

>  <reaction>  (1) 
rxn_31

>  <type>  (1) 
r1h

>  <role_mapnums>  (1) 
{"r1h_a": 3, "r1h_h": 7}

>  <role_mapidx>  (1) 
{"r1h_a": 2, "r1h_h": 6}

>  <ordered_mapped_smiles>  (1) 
[CH:1]([CH:2]([C:3]([H:7])([H:8])[H:9])[C:4]([H:10])([H:11])[H:12])([H:5])[H:6]

>  <mol_properties>  (1) 
{"2": {"label": "donator", "atom_type": "Cs"}, "6": {"label": "d_hydrogen", "atom_type": "H0"}}

>  <level_of_theory>  (1) 
wb97xd/def2tzvp

>  <lot_method>  (1) 
wb97xd

>  <lot_basis>  (1) 
def2tzvp

>  <spin_multiplicity>  (1) 
1.0

>  <optical_isomers>  (1) 
1.0

>  <modes>  (1) 
IdealGasTranslation(mass=(56.0626, 'amu')),         NonlinearRotor(             inertia = ([54.8518, 59.7501, 108.39

>  <frequency_value>  (1) 
unknown

>  <frequency_units>  (1) 
unknown

>  <frequency_list>  (1) 
unknown

>  <arkane_path>  (1) 
/home/calvin/Dropbox/PersonalFolders/Calvin/HAb_Converged/rxn_31/output/Species/rxn_31_C=C[C]C/arkane/output.py

>  <path_exists>  (1) 
True

>  <E0_value>  (1) 
-412534.10297182825

>  <E0_units>  (1) 
kJ/mol

>  <thermo_class>  (1) 
NASA

>  <Cp0_value>  (1) 
33.257888

>  <Cp0_units>  (1) 
J/(mol*K)

>  <CpInf_value>  (1) 
282.692048

>  <CpInf_units>  (1) 
J/(mol*K)

>  <Tmin_value>  (1) 
10.0

>  <Tmin_units>  (1) 
K

>  <Tmax_value>  (1) 
3000.0

>  <Tmax_units>  (1) 
K

>  <polynomials>  (1) 
[{"name": "polynomial1", "class": "NASAPolynomial", "Tmin_value": 10.0, "Tmin_units": "K", "Tmax_value": 498.95038699364414, "Tmax_units": "K", "coeffs": [3.901727145998344, 0.007464022643265422, 8.140069101399911e-05, -1.34043578279297e-07, 6.97293044621997e-11, -49616389.46495108, 7.853222616117349]}, {"name": "polynomial2", "class": "NASAPolynomial", "Tmin_value": 498.95038699364414, "Tmin_units": "K", "Tmax_value": 3000.0, "Tmax_units": "K", "coeffs": [-0.46305569031982813, 0.04245581638085562, -2.3795747865523038e-05, 6.513704454155295e-09, -6.973300076201757e-13, -49615953.903874084, 25.876158086063345]}]

>  <H298_value>  (1) 
-98594.07566738632

>  <H298_units>  (1) 
kcal/mol

>  <S298_value>  (1) 
69.30463799070704

>  <S298_units>  (1) 
cal/(mol*K)

>  <Cp_T_value_list>  (1) 
[20.692039833610465, 26.067634259817133, 30.973684475535098, 35.29388260591572, 42.37063891481565, 47.719559295994536, 55.907581930700104, 60.049289040400026, 62.15407678364104]

>  <Cp_T_units>  (1) 
cal/(mol*K)

>  <T_list>  (1) 
[300.0, 400.0, 500.0, 600.0, 800.0, 1000.0, 1500.0, 2000.0, 2400.0]

>  <T_units>  (1) 
K

>  <yaml_path>  (1) 
/home/calvin/Dropbox/PersonalFolders/Calvin/HAb_Converged/rxn_31/output/Species/rxn_31_C=C[C]C/rxn_31_C=CCC.yml

>  <frequencies_cm1>  (1) 
[164.27888981035997, 208.61214703628, 383.62413490179995, 441.5128211494, 443.51798086284, 703.1586958120399, 819.4785601475199, 926.9743483468, 958.5968157454, 983.81238584044, 1013.07947727428, 1078.1853650931998, 1100.5786042217198, 1296.5623652545198, 1400.6040598378397, 1403.53626256948, 1434.8222476873998, 1457.25668872784, 1469.6378632598, 1476.3812428440397, 1489.7855981886796, 1728.3034662935597, 3000.4949006473994, 3004.42281625044, 3056.59130372648, 3058.7475371169594, 3099.70910455076, 3101.8172690439997, 3116.5675535113596, 3199.42459838248]

>  <ZPE_kJmol>  (1) 
281.2425858226165

>  <E_elec_kJmol>  (1) 
-412815.3455576509

>  <E0_minus_Eelec_plus_ZPE_kJmol>  (1) 
0.0

>  <rxn>  (1) 
rxn_31

>  <species_type>  (1) 
r0

>  <species_folder>  (1) 
rxn_31_C=C[C]C

>  <frequencies_cm1_list>  (1) 
[164.27888981035997, 208.61214703628, 383.62413490179995, 441.5128211494, 443.51798086284, 703.1586958120399, 819.4785601475199, 926.9743483468, 958.5968157454, 983.81238584044, 1013.07947727428, 1078.1853650931998, 1100.5786042217198, 1296.5623652545198, 1400.6040598378397, 1403.53626256948, 1434.8222476873998, 1457.25668872784, 1469.6378632598, 1476.3812428440397, 1489.7855981886796, 1728.3034662935597, 3000.4949006473994, 3004.42281625044, 3056.59130372648, 3058.7475371169594, 3099.70910455076, 3101.8172690439997, 3116.5675535113596, 3199.42459838248]

>  <E0_kJmol>  (1) 
-412534

>  <H298_kJmol>  (1) 
-412518

$$$$

     RDKit          3D

 10  9  0  0  0  0  0  0  0  0999 V2000
    1.5839    0.6878    0.9969 H   0  0  0  0  0  0  0  0  0  1  0  0
   -0.4604   -1.5474   -0.3432 C   0  0  0  0  0  0  0  0  0  2  0  0
   -0.4347   -0.1349   -0.8101 C   0  0  0  0  0  0  0  0  0  3  0  0
    0.0895    0.8989   -0.1117 C   0  0  0  0  0  0  0  0  0  4  0  0
    0.6320    0.7829    1.0765 O   0  0  0  0  0  0  0  0  0  5  0  0
   -1.4844   -1.9296   -0.3187 H   0  0  0  0  0  0  0  0  0  6  0  0
   -0.0341   -1.6352    0.6548 H   0  0  0  0  0  0  0  0  0  7  0  0
    0.1013   -2.1933   -1.0243 H   0  0  0  0  0  0  0  0  0  8  0  0
   -0.8945    0.0960   -1.7648 H   0  0  0  0  0  0  0  0  0  9  0  0
    0.0547    1.9008   -0.5468 H   0  0  0  0  0  0  0  0  0 10  0  0
  1  5  1  0
  2  8  1  0
  2  7  1  0
  2  6  1  0
  2  3  1  0
  3  4  1  0
  3  9  1  0
  4 10  1  0
  4  5  1  0
M  END
>  <rmg_smiles>  (2) 
C[CH][CH]O

>  <rmg_adjacency_list>  (2) 
1  O u0 p2 c0 {4,S} {10,S}
2  C u0 p0 c0 {3,S} {5,S} {6,S} {7,S}
3  C u0 p0 c0 {2,S} {4,S} {8,S}
4  C u0 p0 c0 {1,S} {3,S} {9,S}
5  H u0 p0 c0 {2,S}
6  H u0 p0 c0 {2,S}
7  H u0 p0 c0 {2,S}
8  H u0 p0 c0 {3,S}
9  H u0 p0 c0 {4,S}
10 H u0 p0 c0 {1,S}


>  <multiplicity>  (2) 
1

>  <reaction>  (2) 
rxn_31

>  <type>  (2) 
r2h

>  <role_mapnums>  (2) 
{"r2h_a": 5, "r2h_h": 1}

>  <role_mapidx>  (2) 
{"r2h_a": 4, "r2h_h": 0}

>  <ordered_mapped_smiles>  (2) 
[H:1][O:5][CH:4]([CH:3]([C:2]([H:6])([H:7])[H:8])[H:9])[H:10]

>  <mol_properties>  (2) 
{"0": {"label": "a_hydrogen", "atom_type": "H0"}, "4": {"label": "acceptor", "atom_type": "O2s"}}

>  <level_of_theory>  (2) 
wb97xd/def2tzvp

>  <lot_method>  (2) 
wb97xd

>  <lot_basis>  (2) 
def2tzvp

>  <spin_multiplicity>  (2) 
1.0

>  <optical_isomers>  (2) 
1.0

>  <modes>  (2) 
IdealGasTranslation(mass=(58.0419, 'amu')),         NonlinearRotor(             inertia = ([27.5512, 91.7936, 116.228

>  <frequency_value>  (2) 
unknown

>  <frequency_units>  (2) 
unknown

>  <frequency_list>  (2) 
unknown

>  <arkane_path>  (2) 
/home/calvin/Dropbox/PersonalFolders/Calvin/HAb_Converged/rxn_31/output/Species/rxn_31_CC=CO/arkane/output.py

>  <path_exists>  (2) 
True

>  <E0_value>  (2) 
-506878.1786473417

>  <E0_units>  (2) 
kJ/mol

>  <thermo_class>  (2) 
NASA

>  <Cp0_value>  (2) 
33.257888

>  <Cp0_units>  (2) 
J/(mol*K)

>  <CpInf_value>  (2) 
232.805216

>  <CpInf_units>  (2) 
J/(mol*K)

>  <Tmin_value>  (2) 
10.0

>  <Tmin_units>  (2) 
K

>  <Tmax_value>  (2) 
3000.0

>  <Tmax_units>  (2) 
K

>  <polynomials>  (2) 
[{"name": "polynomial1", "class": "NASAPolynomial", "Tmin_value": 10.0, "Tmin_units": "K", "Tmax_value": 909.4835588351281, "Tmax_units": "K", "coeffs": [3.8894619439607685, 0.013726863235632969, 2.7717797463900202e-05, -4.024159874597937e-08, 1.517288654779621e-11, -60963365.3132617, 9.57962220716384]}, {"name": "polynomial2", "class": "NASAPolynomial", "Tmin_value": 909.4835588351281, "Tmin_units": "K", "Tmax_value": 3000.0, "Tmax_units": "K", "coeffs": [2.4859367731475883, 0.030092502597995105, -1.6084699883503753e-05, 4.188999438117395e-09, -4.2751445197622527e-13, -60963531.57042887, 13.900110866758064]}]

>  <H298_value>  (2) 
-121142.9389857226

>  <H298_units>  (2) 
kcal/mol

>  <S298_value>  (2) 
72.99906947001163

>  <S298_units>  (2) 
cal/(mol*K)

>  <Cp_T_value_list>  (2) 
[18.954969013226542, 23.10727377424761, 27.026899662681938, 30.55967439359763, 36.20980114857799, 40.251313752619374, 46.51592789478484, 49.687925960314544, 51.2399138121791]

>  <Cp_T_units>  (2) 
cal/(mol*K)

>  <T_list>  (2) 
[300.0, 400.0, 500.0, 600.0, 800.0, 1000.0, 1500.0, 2000.0, 2400.0]

>  <T_units>  (2) 
K

>  <yaml_path>  (2) 
/home/calvin/Dropbox/PersonalFolders/Calvin/HAb_Converged/rxn_31/output/Species/rxn_31_CC=CO/rxn_31_CC=CO.yml

>  <frequencies_cm1>  (2) 
[25.579520317, 270.7652311676, 337.46425958076, 500.44528916563996, 652.8992302549599, 753.58983600212, 916.1588464678, 970.8681185122398, 1042.77918878328, 1046.99551776976, 1124.06369401612, 1240.88484827996, 1339.52909240176, 1404.7311180151598, 1430.4273770826, 1462.496198527, 1488.8722891411198, 1742.2503134784797, 3004.49148610364, 3066.7544420000795, 3068.0454352402394, 3160.0493045576, 3186.1438487736, 3824.7734835336]

>  <ZPE_kJmol>  (2) 
221.67441786274827

>  <E_elec_kJmol>  (2) 
-507099.8530652044

>  <E0_minus_Eelec_plus_ZPE_kJmol>  (2) 
0.0

>  <rxn>  (2) 
rxn_31

>  <species_type>  (2) 
p1

>  <species_folder>  (2) 
rxn_31_CC=CO

>  <frequencies_cm1_list>  (2) 
[25.579520317, 270.7652311676, 337.46425958076, 500.44528916563996, 652.8992302549599, 753.58983600212, 916.1588464678, 970.8681185122398, 1042.77918878328, 1046.99551776976, 1124.06369401612, 1240.88484827996, 1339.52909240176, 1404.7311180151598, 1430.4273770826, 1462.496198527, 1488.8722891411198, 1742.2503134784797, 3004.49148610364, 3066.7544420000795, 3068.0454352402394, 3160.0493045576, 3186.1438487736, 3824.7734835336]

>  <E0_kJmol>  (2) 
-506878

>  <H298_kJmol>  (2) 
-506862

$$$$

     RDKit          3D

 21 19  0  0  0  0  0  0  0  0999 V2000
    1.3596    0.5097   -1.5904 C   0  0  0  0  0  0  0  0  0  1  0  0
    1.5987   -0.0570   -0.3860 C   0  0  0  0  0  0  0  0  0  2  0  0
    1.6802    0.7388    0.8060 C   0  0  0  0  0  3  0  0  0  3  0  0
    1.6670   -1.5496   -0.2295 C   0  0  0  0  0  0  0  0  0  4  0  0
    1.3090    1.5855   -1.7020 H   0  0  0  0  0  0  0  0  0  5  0  0
    1.2298   -0.0896   -2.4824 H   0  0  0  0  0  0  0  0  0  6  0  0
    0.3666    0.8569    1.1258 H   0  0  0  0  0  0  0  0  0  7  0  0
    2.1099    0.2732    1.6890 H   0  0  0  0  0  0  0  0  0  8  0  0
    1.9383    1.7872    0.6822 H   0  0  0  0  0  0  0  0  0  9  0  0
    2.6580   -1.8508    0.1178 H   0  0  0  0  0  0  0  0  0 10  0  0
    0.9464   -1.8852    0.5194 H   0  0  0  0  0  0  0  0  0 11  0  0
    1.4576   -2.0658   -1.1657 H   0  0  0  0  0  0  0  0  0 12  0  0
   -1.9129   -1.3548   -0.1946 C   0  0  0  0  0  0  0  0  0 13  0  0
   -1.8871    0.0576   -0.6615 C   0  0  0  0  0  0  0  0  0 14  0  0
   -1.3630    1.0914    0.0370 C   0  0  0  0  0  0  0  0  0 15  0  0
   -0.8205    0.9755    1.2252 O   0  0  0  0  0  0  0  0  0 16  0  0
   -2.9369   -1.7370   -0.1701 H   0  0  0  0  0  0  0  0  0 17  0  0
   -1.4866   -1.4426    0.8034 H   0  0  0  0  0  0  0  0  0 18  0  0
   -1.3512   -2.0008   -0.8757 H   0  0  0  0  0  0  0  0  0 19  0  0
   -2.3470    0.2885   -1.6162 H   0  0  0  0  0  0  0  0  0 20  0  0
   -1.3978    2.0933   -0.3982 H   0  0  0  0  0  0  0  0  0 21  0  0
  1  5  1  0
  1  6  1  0
  1  2  1  0
  2  3  1  0
  2  4  1  0
  3  8  1  0
  3  9  1  0
  4 10  1  0
  4 11  1  0
  4 12  1  0
  7 16  1  0
 13 19  1  0
 13 17  1  0
 13 18  1  0
 13 14  1  0
 14 15  1  0
 14 20  1  0
 15 16  1  0
 15 21  1  0
M  RAD  1   3   2
M  END
>  <rmg_smiles>  (3) 
C[CH][CH]O.[CH2]C([CH2])C

>  <rmg_adjacency_list>  (3) 
multiplicity 2
1  O u0 p2 c0 {6,S} {21,S}
2  C u0 p0 c0 {4,S} {9,S} {10,S} {11,S}
3  C u0 p0 c0 {5,S} {12,S} {13,S} {14,S}
4  C u0 p0 c0 {2,S} {7,S} {8,S}
5  C u0 p0 c0 {3,S} {6,S} {15,S}
6  C u0 p0 c0 {1,S} {5,S} {16,S}
7  C u1 p0 c0 {4,S} {19,S} {20,S}
8  C u0 p0 c0 {4,S} {17,S} {18,S}
9  H u0 p0 c0 {2,S}
10 H u0 p0 c0 {2,S}
11 H u0 p0 c0 {2,S}
12 H u0 p0 c0 {3,S}
13 H u0 p0 c0 {3,S}
14 H u0 p0 c0 {3,S}
15 H u0 p0 c0 {5,S}
16 H u0 p0 c0 {6,S}
17 H u0 p0 c0 {8,S}
18 H u0 p0 c0 {8,S}
19 H u0 p0 c0 {7,S}
20 H u0 p0 c0 {7,S}
21 H u0 p0 c0 {1,S}


>  <multiplicity>  (3) 
2

>  <reaction>  (3) 
rxn_31

>  <type>  (3) 
ts

>  <role_mapnums>  (3) 
{"*2": 7, "*1": 3, "*3": 16, "*0": 15, "*4": 2}

>  <role_mapidx>  (3) 
{"*2": 6, "*1": 2, "*3": 15, "*0": 14, "*4": 1}

>  <ordered_mapped_smiles>  (3) 
[CH:1]([CH:2]([C:3]([H:8])[H:9])[C:4]([H:10])([H:11])[H:12])([H:5])[H:6].[H:7][O:16][CH:15]([CH:14]([C:13]([H:17])([H:18])[H:19])[H:20])[H:21]

>  <mol_properties>  (3) 
{"1": {"label": "*4", "atom_type": "Cs"}, "2": {"label": "*1", "atom_type": "Cs"}, "6": {"label": "*2", "atom_type": "H0"}, "14": {"label": "*0", "atom_type": "Cs"}, "15": {"label": "*3", "atom_type": "O2s"}}

>  <level_of_theory>  (3) 
wb97xd/def2tzvp

>  <lot_method>  (3) 
wb97xd

>  <lot_basis>  (3) 
def2tzvp

>  <spin_multiplicity>  (3) 
2.0

>  <optical_isomers>  (3) 
2.0

>  <modes>  (3) 
IdealGasTranslation(mass=(113.097, 'amu')),         NonlinearRotor(             inertia = ([208.872, 357.813, 417.865

>  <frequency_value>  (3) 
-2019.18

>  <frequency_units>  (3) 
cm^-1

>  <frequency_list>  (3) 
unknown

>  <arkane_path>  (3) 
/home/calvin/Dropbox/PersonalFolders/Calvin/HAb_Converged/rxn_31/output/rxns/TS0/arkane/output.py

>  <path_exists>  (3) 
True

>  <E0_value>  (3) 
-917688.0

>  <E0_units>  (3) 
kJ/mol

>  <thermo_class>  (3) 
unknown

>  <Cp0_value>  (3) 
unknown

>  <Cp0_units>  (3) 
unknown

>  <CpInf_value>  (3) 
unknown

>  <CpInf_units>  (3) 
unknown

>  <Tmin_value>  (3) 
unknown

>  <Tmin_units>  (3) 
unknown

>  <Tmax_value>  (3) 
unknown

>  <Tmax_units>  (3) 
unknown

>  <polynomials>  (3) 
unknown

>  <H298_value>  (3) 
unknown

>  <H298_units>  (3) 
unknown

>  <S298_value>  (3) 
unknown

>  <S298_units>  (3) 
unknown

>  <Cp_T_value_list>  (3) 
unknown

>  <Cp_T_units>  (3) 
unknown

>  <T_list>  (3) 
unknown

>  <T_units>  (3) 
unknown

>  <yaml_path>  (3) 
unknown

>  <frequencies_cm1>  (3) 
unknown

>  <ZPE_kJmol>  (3) 
unknown

>  <E_elec_kJmol>  (3) 
unknown

>  <E0_minus_Eelec_plus_ZPE_kJmol>  (3) 
unknown

>  <rxn>  (3) 
unknown

>  <species_type>  (3) 
unknown

>  <species_folder>  (3) 
unknown

>  <frequencies_cm1_list>  (3) 
[]

>  <ts_imag_freq_cm1>  (3) 
-2043.7091

>  <ts_freq_out_path>  (3) 
/home/calvin/Dropbox/PersonalFolders/Calvin/HAb_Converged/rxn_31/output/rxns/TS0/geometry/freq.out

>  <E0_kJmol>  (3) 
-917688

>  <H298_kJmol>  (3) 
unknown

$$$$

     RDKit          3D

 11 10  0  0  0  0  0  0  0  0999 V2000
    1.4192   -0.3322   -0.2373 C   0  0  0  0  0  0  0  0  0  1  0  0
    0.1353    0.1259    0.0104 C   0  0  0  0  0  0  0  0  0  2  0  0
   -0.0994    1.4387    0.3575 C   0  0  0  0  0  3  0  0  0  3  0  0
   -1.0184   -0.8432   -0.0948 C   0  0  0  0  0  0  0  0  0  4  0  0
    1.6064   -1.3616   -0.5143 H   0  0  0  0  0  0  0  0  0  5  0  0
    2.2713    0.3306   -0.1599 H   0  0  0  0  0  0  0  0  0  6  0  0
    0.7172    2.1438    0.4483 H   0  0  0  0  0  0  0  0  0  7  0  0
   -1.1000    1.8033    0.5485 H   0  0  0  0  0  0  0  0  0  8  0  0
   -0.9674   -1.5884    0.7016 H   0  0  0  0  0  0  0  0  0  9  0  0
   -1.9775   -0.3322   -0.0170 H   0  0  0  0  0  0  0  0  0 10  0  0
   -0.9929   -1.3773   -1.0460 H   0  0  0  0  0  0  0  0  0 11  0  0
  1  5  1  0
  1  6  1  0
  1  2  1  0
  2  3  1  0
  2  4  1  0
  3  7  1  0
  3  8  1  0
  4  9  1  0
  4 10  1  0
  4 11  1  0
M  RAD  1   3   2
M  END
>  <rmg_smiles>  (4) 
[CH2]C([CH2])C

>  <rmg_adjacency_list>  (4) 
multiplicity 2
1  C u0 p0 c0 {2,S} {5,S} {6,S} {7,S}
2  C u0 p0 c0 {1,S} {3,S} {4,S}
3  C u1 p0 c0 {2,S} {10,S} {11,S}
4  C u0 p0 c0 {2,S} {8,S} {9,S}
5  H u0 p0 c0 {1,S}
6  H u0 p0 c0 {1,S}
7  H u0 p0 c0 {1,S}
8  H u0 p0 c0 {4,S}
9  H u0 p0 c0 {4,S}
10 H u0 p0 c0 {3,S}
11 H u0 p0 c0 {3,S}


>  <multiplicity>  (4) 
2

>  <reaction>  (4) 
rxn_31

>  <type>  (4) 
r1

>  <role_mapnums>  (4) 
{}

>  <role_mapidx>  (4) 
{}

>  <ordered_mapped_smiles>  (4) 
[CH:1]([CH:2]([C:3]([H:7])[H:8])[C:4]([H:9])([H:10])[H:11])([H:5])[H:6]

>  <level_of_theory>  (4) 
wb97xd/def2tzvp

>  <lot_method>  (4) 
wb97xd

>  <lot_basis>  (4) 
def2tzvp

>  <spin_multiplicity>  (4) 
2.0

>  <optical_isomers>  (4) 
2.0

>  <modes>  (4) 
IdealGasTranslation(mass=(55.0548, 'amu')),         NonlinearRotor(             inertia = ([50.2749, 56.9544, 104.106

>  <frequency_value>  (4) 
unknown

>  <frequency_units>  (4) 
unknown

>  <frequency_list>  (4) 
unknown

>  <arkane_path>  (4) 
/home/calvin/Dropbox/PersonalFolders/Calvin/HAb_Converged/rxn_31/output/Species/rxn_31_[CH2]C[=C]C/arkane/output.py

>  <path_exists>  (4) 
True

>  <E0_value>  (4) 
-410855.17444158817

>  <E0_units>  (4) 
kJ/mol

>  <thermo_class>  (4) 
NASA

>  <Cp0_value>  (4) 
33.257888

>  <Cp0_units>  (4) 
J/(mol*K)

>  <CpInf_value>  (4) 
257.748632

>  <CpInf_units>  (4) 
J/(mol*K)

>  <Tmin_value>  (4) 
10.0

>  <Tmin_units>  (4) 
K

>  <Tmax_value>  (4) 
3000.0

>  <Tmax_units>  (4) 
K

>  <polynomials>  (4) 
[{"name": "polynomial1", "class": "NASAPolynomial", "Tmin_value": 10.0, "Tmin_units": "K", "Tmax_value": 470.1146438794014, "Tmax_units": "K", "coeffs": [3.954796647402233, 0.002872450157006195, 0.00011674632592322161, -2.2511570634289398e-07, 1.3994868424571672e-10, -49414462.35793003, 11.57794818049774]}, {"name": "polynomial2", "class": "NASAPolynomial", "Tmin_value": 470.1146438794014, "Tmin_units": "K", "Tmax_value": 3000.0, "Tmax_units": "K", "coeffs": [0.4415935725994241, 0.03992026263782331, -2.4293683125638006e-05, 7.26896081991733e-09, -8.474885181164997e-13, -49414211.107381605, 25.0344546585906]}]

>  <H298_value>  (4) 
-98192.85015060692

>  <H298_units>  (4) 
kcal/mol

>  <S298_value>  (4) 
76.385592670644

>  <S298_units>  (4) 
cal/(mol*K)

>  <Cp_T_value_list>  (4) 
[20.62553680729987, 25.751155764175074, 30.17365643154264, 33.99769766658572, 40.15036098251711, 44.691569516418454, 51.475668461733136, 55.0441428173123, 57.00716859293214]

>  <Cp_T_units>  (4) 
cal/(mol*K)

>  <T_list>  (4) 
[300.0, 400.0, 500.0, 600.0, 800.0, 1000.0, 1500.0, 2000.0, 2400.0]

>  <T_units>  (4) 
K

>  <yaml_path>  (4) 
/home/calvin/Dropbox/PersonalFolders/Calvin/HAb_Converged/rxn_31/output/Species/rxn_31_[CH2]C[=C]C/rxn_31_CH2C=CC.yml

>  <frequencies_cm1>  (4) 
[16.961453740399996, 408.55815859872, 440.6201130578, 480.13274658908, 535.1785009142001, 564.7958085993599, 772.28863702848, 809.22615106476, 852.6048973311998, 966.3153072450799, 1010.98504675168, 1044.81868342332, 1051.75433859652, 1312.85085443356, 1369.4485474409998, 1412.2985358377998, 1471.4644813549198, 1475.4061309286, 1486.0499581746, 1528.0072384798, 3020.1688135892, 3085.2128985402396, 3104.9005454526796, 3120.7701485272, 3127.7401386269994, 3218.37061088036, 3220.73285383044]

>  <ZPE_kJmol>  (4) 
244.68222355217392

>  <E_elec_kJmol>  (4) 
-411099.8566651404

>  <E0_minus_Eelec_plus_ZPE_kJmol>  (4) 
0.0

>  <rxn>  (4) 
rxn_31

>  <species_type>  (4) 
p0

>  <species_folder>  (4) 
rxn_31_[CH2]C[=C]C

>  <frequencies_cm1_list>  (4) 
[16.961453740399996, 408.55815859872, 440.6201130578, 480.13274658908, 535.1785009142001, 564.7958085993599, 772.28863702848, 809.22615106476, 852.6048973311998, 966.3153072450799, 1010.98504675168, 1044.81868342332, 1051.75433859652, 1312.85085443356, 1369.4485474409998, 1412.2985358377998, 1471.4644813549198, 1475.4061309286, 1486.0499581746, 1528.0072384798, 3020.1688135892, 3085.2128985402396, 3104.9005454526796, 3120.7701485272, 3127.7401386269994, 3218.37061088036, 3220.73285383044]

>  <E0_kJmol>  (4) 
-410855

>  <H298_kJmol>  (4) 
-410839

$$$$

     RDKit          3D

  9  8  0  0  0  0  0  0  0  0999 V2000
   -1.1190   -0.1791    0.1439 C   0  0  0  0  0  0  0  0  0  1  0  0
    0.1303    0.5931   -0.0164 C   0  0  0  0  0  0  0  0  0  2  0  0
    0.3198    1.5563   -1.0510 C   0  0  0  0  0  0  0  0  0  3  0  0
   -0.5293    1.8274   -1.8924 O   0  0  0  0  0  1  0  0  0  4  0  0
   -0.9173   -1.2534    0.0852 H   0  0  0  0  0  0  0  0  0  5  0  0
   -1.8441    0.0914   -0.6212 H   0  0  0  0  0  0  0  0  0  6  0  0
   -1.5557   -0.0033    1.1322 H   0  0  0  0  0  0  0  0  0  7  0  0
    0.9483    0.4300    0.6772 H   0  0  0  0  0  0  0  0  0  8  0  0
    1.2979    2.0687   -1.0664 H   0  0  0  0  0  0  0  0  0  9  0  0
  1  5  1  0
  1  7  1  0
  1  6  1  0
  1  2  1  0
  2  8  1  0
  2  3  1  0
  3  4  1  0
  3  9  1  0
M  RAD  1   4   2
M  END
>  <rmg_smiles>  (5) 
C[CH][CH][O]

>  <rmg_adjacency_list>  (5) 
multiplicity 2
1 O u1 p2 c0 {4,S}
2 C u0 p0 c0 {3,S} {5,S} {6,S} {7,S}
3 C u0 p0 c0 {2,S} {4,S} {8,S}
4 C u0 p0 c0 {1,S} {3,S} {9,S}
5 H u0 p0 c0 {2,S}
6 H u0 p0 c0 {2,S}
7 H u0 p0 c0 {2,S}
8 H u0 p0 c0 {3,S}
9 H u0 p0 c0 {4,S}


>  <multiplicity>  (5) 
2

>  <reaction>  (5) 
rxn_31

>  <type>  (5) 
r2

>  <role_mapnums>  (5) 
{}

>  <role_mapidx>  (5) 
{}

>  <ordered_mapped_smiles>  (5) 
[C:1]([CH:2]([CH:3]([O:4])[H:9])[H:8])([H:5])([H:6])[H:7]

>  <level_of_theory>  (5) 
wb97xd/def2tzvp

>  <lot_method>  (5) 
wb97xd

>  <lot_basis>  (5) 
def2tzvp

>  <spin_multiplicity>  (5) 
2.0

>  <optical_isomers>  (5) 
1.0

>  <modes>  (5) 
IdealGasTranslation(mass=(57.034, 'amu')),         NonlinearRotor(             inertia = ([25.4235, 86.3658, 108.698

>  <frequency_value>  (5) 
unknown

>  <frequency_units>  (5) 
unknown

>  <frequency_list>  (5) 
unknown

>  <arkane_path>  (5) 
/home/calvin/Dropbox/PersonalFolders/Calvin/HAb_Converged/rxn_31/output/Species/rxn_31_CC=C[O]/arkane/output.py

>  <path_exists>  (5) 
True

>  <E0_value>  (5) 
-505242.8187729655

>  <E0_units>  (5) 
kJ/mol

>  <thermo_class>  (5) 
NASA

>  <Cp0_value>  (5) 
33.257888

>  <Cp0_units>  (5) 
J/(mol*K)

>  <CpInf_value>  (5) 
207.8618

>  <CpInf_units>  (5) 
J/(mol*K)

>  <Tmin_value>  (5) 
10.0

>  <Tmin_units>  (5) 
K

>  <Tmax_value>  (5) 
3000.0

>  <Tmax_units>  (5) 
K

>  <polynomials>  (5) 
[{"name": "polynomial1", "class": "NASAPolynomial", "Tmin_value": 10.0, "Tmin_units": "K", "Tmax_value": 938.3622919509731, "Tmax_units": "K", "coeffs": [3.925926157873155, 0.011961588050707163, 2.533480274898383e-05, -3.606714151980103e-08, 1.3339092995988627e-11, -60766678.05232901, 9.01312359528664]}, {"name": "polynomial2", "class": "NASAPolynomial", "Tmin_value": 938.3622919509731, "Tmin_units": "K", "Tmax_value": 3000.0, "Tmax_units": "K", "coeffs": [3.019130379628673, 0.026184009268155936, -1.3956102275948442e-05, 3.6096781914967725e-09, -3.653993685992911e-13, -60766963.85015544, 10.900549292684428]}]

>  <H298_value>  (5) 
-120752.24207989789

>  <H298_units>  (5) 
kcal/mol

>  <S298_value>  (5) 
71.09649412997165

>  <S298_units>  (5) 
cal/(mol*K)

>  <Cp_T_value_list>  (5) 
[17.7433071122309, 21.45649166237723, 24.970683439589372, 28.142126644312672, 33.19983452589598, 36.74606375340809, 42.18192318157225, 44.89849744848956, 46.20398340912661]

>  <Cp_T_units>  (5) 
cal/(mol*K)

>  <T_list>  (5) 
[300.0, 400.0, 500.0, 600.0, 800.0, 1000.0, 1500.0, 2000.0, 2400.0]

>  <T_units>  (5) 
K

>  <yaml_path>  (5) 
/home/calvin/Dropbox/PersonalFolders/Calvin/HAb_Converged/rxn_31/output/Species/rxn_31_CC=C[O]/rxn_31_CC=CO.yml

>  <frequencies_cm1>  (5) 
[96.33007006896, 270.00299579707996, 301.64606415163996, 649.5481414187999, 695.1929928408399, 884.2067637738398, 940.2413639850399, 1007.2494067375999, 1061.03850274916, 1168.50682300716, 1375.1756131978798, 1396.9439566622798, 1416.5285987949198, 1458.6163518212, 1479.0181652069198, 1603.24192964572, 2929.1675241285598, 2997.6313677689595, 3046.4350324382, 3120.859419336359, 3151.9393948946795]

>  <ZPE_kJmol>  (5) 
185.71742832322252

>  <E_elec_kJmol>  (5) 
-505428.5362012887

>  <E0_minus_Eelec_plus_ZPE_kJmol>  (5) 
0.0

>  <rxn>  (5) 
rxn_31

>  <species_type>  (5) 
r1

>  <species_folder>  (5) 
rxn_31_CC=C[O]

>  <frequencies_cm1_list>  (5) 
[96.33007006896, 270.00299579707996, 301.64606415163996, 649.5481414187999, 695.1929928408399, 884.2067637738398, 940.2413639850399, 1007.2494067375999, 1061.03850274916, 1168.50682300716, 1375.1756131978798, 1396.9439566622798, 1416.5285987949198, 1458.6163518212, 1479.0181652069198, 1603.24192964572, 2929.1675241285598, 2997.6313677689595, 3046.4350324382, 3120.859419336359, 3151.9393948946795]

>  <E0_kJmol>  (5) 
-505243

>  <H298_kJmol>  (5) 
-505227

$$$$
