
     RDKit          3D

 15 14  0  0  0  0  0  0  0  0999 V2000
    0.5641    0.7388   -1.3094 C   0  0  0  0  0  0  0  0  0  1  0  0
    0.2806    0.4615    0.1392 C   0  0  0  0  0  0  0  0  0  2  0  0
   -0.0083    1.6645    0.9943 C   0  0  0  0  0  0  0  0  0  3  0  0
   -0.6246   -0.7222    0.4071 C   0  0  0  0  0  0  0  0  0  4  0  0
   -0.2321   -1.9031   -0.2421 O   0  0  0  0  0  0  0  0  0  5  0  0
    1.3794    1.4556   -1.4265 H   0  0  0  0  0  0  0  0  0  6  0  0
   -0.3235    1.1706   -1.7884 H   0  0  0  0  0  0  0  0  0  7  0  0
    0.8143   -0.1782   -1.8411 H   0  0  0  0  0  0  0  0  0  8  0  0
    1.2255    0.0995    0.5443 H   0  0  0  0  0  0  0  0  0  9  0  0
   -0.9823    2.0964    0.7355 H   0  0  0  0  0  0  0  0  0 10  0  0
    0.7420    2.4438    0.8493 H   0  0  0  0  0  0  0  0  0 11  0  0
   -0.0367    1.4058    2.0553 H   0  0  0  0  0  0  0  0  0 12  0  0
   -0.7126   -0.8748    1.4905 H   0  0  0  0  0  0  0  0  0 13  0  0
   -1.6302   -0.4739    0.0417 H   0  0  0  0  0  0  0  0  0 14  0  0
    0.4196   -2.3522    0.3145 H   0  0  0  0  0  0  0  0  0 15  0  0
  1  8  1  0
  1  7  1  0
  1  6  1  0
  1  2  1  0
  2  9  1  0
  2  3  1  0
  2  4  1  0
  3 11  1  0
  3 12  1  0
  3 10  1  0
  4 14  1  0
  4 13  1  0
  4  5  1  0
  5 15  1  0
M  END
>  <rmg_smiles>  (1) 
CC(C)CO

>  <rmg_adjacency_list>  (1) 
1  O u0 p2 c0 {3,S} {15,S}
2  C u0 p0 c0 {3,S} {4,S} {5,S} {6,S}
3  C u0 p0 c0 {1,S} {2,S} {7,S} {8,S}
4  C u0 p0 c0 {2,S} {9,S} {10,S} {11,S}
5  C u0 p0 c0 {2,S} {12,S} {13,S} {14,S}
6  H u0 p0 c0 {2,S}
7  H u0 p0 c0 {3,S}
8  H u0 p0 c0 {3,S}
9  H u0 p0 c0 {4,S}
10 H u0 p0 c0 {4,S}
11 H u0 p0 c0 {4,S}
12 H u0 p0 c0 {5,S}
13 H u0 p0 c0 {5,S}
14 H u0 p0 c0 {5,S}
15 H u0 p0 c0 {1,S}


>  <multiplicity>  (1) 
1

>  <reaction>  (1) 
rxn_424

>  <type>  (1) 
r1h

>  <role_mapnums>  (1) 
{"r1h_a": 2, "r1h_h": 9}

>  <role_mapidx>  (1) 
{"r1h_a": 1, "r1h_h": 8}

>  <ordered_mapped_smiles>  (1) 
[C:1]([C:2]([C:3]([H:10])([H:11])[H:12])([C:4]([O:5][H:15])([H:13])[H:14])[H:9])([H:6])([H:7])[H:8]

>  <mol_properties>  (1) 
{"1": {"label": "donator", "atom_type": "Cs"}, "8": {"label": "d_hydrogen", "atom_type": "H0"}}

>  <level_of_theory>  (1) 
wb97xd/def2tzvp

>  <lot_method>  (1) 
wb97xd

>  <lot_basis>  (1) 
def2tzvp

>  <spin_multiplicity>  (1) 
1.0

>  <optical_isomers>  (1) 
2.0

>  <modes>  (1) 
IdealGasTranslation(mass=(74.0732, 'amu')),         NonlinearRotor(             inertia = ([66.603, 143.905, 189.515

>  <frequency_value>  (1) 
unknown

>  <frequency_units>  (1) 
unknown

>  <frequency_list>  (1) 
unknown

>  <arkane_path>  (1) 
/home/calvin/Dropbox/PersonalFolders/Calvin/HAb_Converged/rxn_424/output/Species/rxn_424_CC[C]CO/arkane/output.py

>  <path_exists>  (1) 
True

>  <E0_value>  (1) 
-613201.798563127

>  <E0_units>  (1) 
kJ/mol

>  <thermo_class>  (1) 
NASA

>  <Cp0_value>  (1) 
33.257888

>  <Cp0_units>  (1) 
J/(mol*K)

>  <CpInf_value>  (1) 
357.522296

>  <CpInf_units>  (1) 
J/(mol*K)

>  <Tmin_value>  (1) 
10.0

>  <Tmin_units>  (1) 
K

>  <Tmax_value>  (1) 
3000.0

>  <Tmax_units>  (1) 
K

>  <polynomials>  (1) 
[{"name": "polynomial1", "class": "NASAPolynomial", "Tmin_value": 10.0, "Tmin_units": "K", "Tmax_value": 575.0651176416371, "Tmax_units": "K", "coeffs": [3.712805799436365, 0.02341794423636385, 4.945520881208784e-05, -8.422411516035852e-08, 3.9345456013228885e-11, -73751136.90729754, 10.481383297442903]}, {"name": "polynomial2", "class": "NASAPolynomial", "Tmin_value": 575.0651176416371, "Tmin_units": "K", "Tmax_value": 3000.0, "Tmax_units": "K", "coeffs": [-0.6878246335024606, 0.05402765028160735, -3.0387394291557736e-05, 8.336812494957577e-09, -8.939885093345157e-13, -73750630.77899487, 29.27712262817248]}]

>  <H298_value>  (1) 
-146553.90003462895

>  <H298_units>  (1) 
kcal/mol

>  <S298_value>  (1) 
79.77174717591569

>  <S298_units>  (1) 
cal/(mol*K)

>  <Cp_T_value_list>  (1) 
[26.298303224673802, 33.0069380139673, 39.18106842386457, 44.660864775466386, 53.63198804085297, 60.401649014178936, 70.73051971901154, 75.92834368294982, 78.56390633588433]

>  <Cp_T_units>  (1) 
cal/(mol*K)

>  <T_list>  (1) 
[300.0, 400.0, 500.0, 600.0, 800.0, 1000.0, 1500.0, 2000.0, 2400.0]

>  <T_units>  (1) 
K

>  <yaml_path>  (1) 
/home/calvin/Dropbox/PersonalFolders/Calvin/HAb_Converged/rxn_424/output/Species/rxn_424_CC[C]CO/rxn_424_CCCCO.yml

>  <frequencies_cm1>  (1) 
[130.82980431664, 216.90746530284, 234.24660323583998, 266.73431078476, 284.49233482228, 352.62656316731994, 430.94453074191995, 496.53797451855996, 825.04768524204, 903.1871111983199, 929.7966793133199, 953.3298380049599, 972.0423730019598, 1079.3527525975999, 1116.63361589988, 1149.4372047735199, 1195.51467627072, 1246.91406139092, 1321.76420137892, 1364.46311609868, 1379.29580438988, 1394.3345022406797, 1400.81006939744, 1419.04878240736, 1474.01899989396, 1475.3855299726397, 1489.2293723777598, 1494.17360180816, 1499.15903315048, 2968.2269366287196, 2974.66816885888, 3005.13698272372, 3008.8176868552396, 3047.7397596489996, 3073.490954599, 3077.9132931450795, 3086.88844295832, 3102.6138393411197, 3839.6611077073594]

>  <ZPE_kJmol>  (1) 
356.9742425885658

>  <E_elec_kJmol>  (1) 
-613558.7728057157

>  <E0_minus_Eelec_plus_ZPE_kJmol>  (1) 
0.0

>  <rxn>  (1) 
rxn_424

>  <species_type>  (1) 
r0

>  <species_folder>  (1) 
rxn_424_CC[C]CO

>  <frequencies_cm1_list>  (1) 
[130.82980431664, 216.90746530284, 234.24660323583998, 266.73431078476, 284.49233482228, 352.62656316731994, 430.94453074191995, 496.53797451855996, 825.04768524204, 903.1871111983199, 929.7966793133199, 953.3298380049599, 972.0423730019598, 1079.3527525975999, 1116.63361589988, 1149.4372047735199, 1195.51467627072, 1246.91406139092, 1321.76420137892, 1364.46311609868, 1379.29580438988, 1394.3345022406797, 1400.81006939744, 1419.04878240736, 1474.01899989396, 1475.3855299726397, 1489.2293723777598, 1494.17360180816, 1499.15903315048, 2968.2269366287196, 2974.66816885888, 3005.13698272372, 3008.8176868552396, 3047.7397596489996, 3073.490954599, 3077.9132931450795, 3086.88844295832, 3102.6138393411197, 3839.6611077073594]

>  <E0_kJmol>  (1) 
-613202

>  <H298_kJmol>  (1) 
-613182

$$$$

     RDKit          3D

 10  9  0  0  0  0  0  0  0  0999 V2000
   -0.7265    1.3450   -0.4339 H   0  0  0  0  0  0  0  0  0  1  0  0
    0.8030    0.3356   -1.3800 C   0  0  0  0  0  0  0  0  0  2  0  0
    0.2110    0.8966   -0.1087 C   0  0  0  0  0  0  0  0  0  3  0  0
   -0.2602   -0.0456    0.9006 C   0  0  0  0  0  0  0  0  0  4  0  0
   -0.7205   -1.1463    0.6522 O   0  0  0  0  0  0  0  0  0  5  0  0
    0.9522    1.1250   -2.1167 H   0  0  0  0  0  0  0  0  0  6  0  0
    0.1483   -0.4181   -1.8149 H   0  0  0  0  0  0  0  0  0  7  0  0
    1.7709   -0.1311   -1.1838 H   0  0  0  0  0  0  0  0  0  8  0  0
    0.7493    1.7412    0.3186 H   0  0  0  0  0  0  0  0  0  9  0  0
   -0.2459    0.3132    1.9475 H   0  0  0  0  0  0  0  0  0 10  0  0
  1  3  1  0
  2  7  1  0
  2  8  1  0
  2  6  1  0
  2  3  1  0
  3  4  1  0
  3  9  1  0
  4 10  1  0
  4  5  1  0
M  END
>  <rmg_smiles>  (2) 
CC[CH]O

>  <rmg_adjacency_list>  (2) 
1  O u0 p2 c0 {4,S}
2  C u0 p0 c0 {3,S} {4,S} {5,S} {6,S}
3  C u0 p0 c0 {2,S} {7,S} {8,S} {9,S}
4  C u0 p0 c0 {1,S} {2,S} {10,S}
5  H u0 p0 c0 {2,S}
6  H u0 p0 c0 {2,S}
7  H u0 p0 c0 {3,S}
8  H u0 p0 c0 {3,S}
9  H u0 p0 c0 {3,S}
10 H u0 p0 c0 {4,S}


>  <multiplicity>  (2) 
1

>  <reaction>  (2) 
rxn_424

>  <type>  (2) 
r2h

>  <role_mapnums>  (2) 
{"r2h_a": 3, "r2h_h": 1}

>  <role_mapidx>  (2) 
{"r2h_a": 2, "r2h_h": 0}

>  <ordered_mapped_smiles>  (2) 
[H:1][C:3]([C:2]([H:6])([H:7])[H:8])([CH:4]([OH:5])[H:10])[H:9]

>  <mol_properties>  (2) 
{"0": {"label": "a_hydrogen", "atom_type": "H0"}, "2": {"label": "acceptor", "atom_type": "Cs"}}

>  <level_of_theory>  (2) 
wb97xd/def2tzvp

>  <lot_method>  (2) 
wb97xd

>  <lot_basis>  (2) 
def2tzvp

>  <spin_multiplicity>  (2) 
1.0

>  <optical_isomers>  (2) 
1.0

>  <modes>  (2) 
IdealGasTranslation(mass=(58.0419, 'amu')),         NonlinearRotor(             inertia = ([29.7984, 86.0094, 109.654

>  <frequency_value>  (2) 
unknown

>  <frequency_units>  (2) 
unknown

>  <frequency_list>  (2) 
unknown

>  <arkane_path>  (2) 
/home/calvin/Dropbox/PersonalFolders/Calvin/HAb_Converged/rxn_424/output/Species/rxn_424_CCC=O/arkane/output.py

>  <path_exists>  (2) 
True

>  <E0_value>  (2) 
-506922.5969828313

>  <E0_units>  (2) 
kJ/mol

>  <thermo_class>  (2) 
NASA

>  <Cp0_value>  (2) 
33.257888

>  <Cp0_units>  (2) 
J/(mol*K)

>  <CpInf_value>  (2) 
232.805216

>  <CpInf_units>  (2) 
J/(mol*K)

>  <Tmin_value>  (2) 
10.0

>  <Tmin_units>  (2) 
K

>  <Tmax_value>  (2) 
3000.0

>  <Tmax_units>  (2) 
K

>  <polynomials>  (2) 
[{"name": "polynomial1", "class": "NASAPolynomial", "Tmin_value": 10.0, "Tmin_units": "K", "Tmax_value": 995.1900345283002, "Tmax_units": "K", "coeffs": [3.919274873618, 0.011902867620044834, 2.8741372072273123e-05, -3.719966986204588e-08, 1.282064508278687e-11, -60968708.45376264, 8.29819490310581]}, {"name": "polynomial2", "class": "NASAPolynomial", "Tmin_value": 995.1900345283002, "Tmin_units": "K", "Tmax_value": 3000.0, "Tmax_units": "K", "coeffs": [2.274357153517518, 0.029876843471332987, -1.547603192060147e-05, 3.8936784756348765e-09, -3.843586769722641e-13, -60968943.725637905, 13.399078271939683]}]

>  <H298_value>  (2) 
-121153.67253279968

>  <H298_units>  (2) 
kcal/mol

>  <S298_value>  (2) 
69.84440643822006

>  <S298_units>  (2) 
cal/(mol*K)

>  <Cp_T_value_list>  (2) 
[18.2352323956332, 22.309316345060275, 26.24579792780338, 29.876291097116475, 35.851495239528035, 40.110746771458125, 46.62761380751709, 49.92579195309712, 51.49040913669691]

>  <Cp_T_units>  (2) 
cal/(mol*K)

>  <T_list>  (2) 
[300.0, 400.0, 500.0, 600.0, 800.0, 1000.0, 1500.0, 2000.0, 2400.0]

>  <T_units>  (2) 
K

>  <yaml_path>  (2) 
/home/calvin/Dropbox/PersonalFolders/Calvin/HAb_Converged/rxn_424/output/Species/rxn_424_CCC=O/rxn_424_CCC=O.yml

>  <frequencies_cm1>  (2) 
[140.17577133716, 231.1427258712, 255.91194192044003, 664.53877037236, 671.2684159859599, 853.7722848356, 903.24204708088, 1002.8064672355599, 1110.1649157284398, 1142.5152835709598, 1274.43007156816, 1362.5060252824799, 1401.2701574138798, 1414.07021805036, 1440.4257077085201, 1481.0027239643998, 1486.2284997929198, 1826.3777506338001, 2861.6925263742396, 3000.3781618969597, 3029.63151936016, 3031.0529853214, 3106.8301683276, 3108.0730926705196]

>  <ZPE_kJmol>  (2) 
220.11000257512663

>  <E_elec_kJmol>  (2) 
-507142.70698540646

>  <E0_minus_Eelec_plus_ZPE_kJmol>  (2) 
0.0

>  <rxn>  (2) 
rxn_424

>  <species_type>  (2) 
p0

>  <species_folder>  (2) 
rxn_424_CCC=O

>  <frequencies_cm1_list>  (2) 
[140.17577133716, 231.1427258712, 255.91194192044003, 664.53877037236, 671.2684159859599, 853.7722848356, 903.24204708088, 1002.8064672355599, 1110.1649157284398, 1142.5152835709598, 1274.43007156816, 1362.5060252824799, 1401.2701574138798, 1414.07021805036, 1440.4257077085201, 1481.0027239643998, 1486.2284997929198, 1826.3777506338001, 2861.6925263742396, 3000.3781618969597, 3029.63151936016, 3031.0529853214, 3106.8301683276, 3108.0730926705196]

>  <E0_kJmol>  (2) 
-506923

>  <H298_kJmol>  (2) 
-506907

$$$$

     RDKit          3D

 24 22  0  0  0  0  0  0  0  0999 V2000
   -0.5793    1.4505   -1.8058 C   0  0  0  0  0  0  0  0  0  1  0  0
   -0.8629    1.1733   -0.3572 C   0  0  0  0  0  3  0  0  0  2  0  0
   -1.1518    2.3762    0.4978 C   0  0  0  0  0  0  0  0  0  3  0  0
   -1.7680   -0.0105   -0.0894 C   0  0  0  0  0  0  0  0  0  4  0  0
   -1.3756   -1.1913   -0.7386 O   0  0  0  0  0  0  0  0  0  5  0  0
    0.2359    2.1673   -1.9230 H   0  0  0  0  0  0  0  0  0  6  0  0
   -1.4670    1.8823   -2.2848 H   0  0  0  0  0  0  0  0  0  7  0  0
   -0.3291    0.5335   -2.3376 H   0  0  0  0  0  0  0  0  0  8  0  0
    0.3488    0.7091    0.1622 H   0  0  0  0  0  0  0  0  0  9  0  0
   -2.1258    2.8081    0.2391 H   0  0  0  0  0  0  0  0  0 10  0  0
   -0.4015    3.1555    0.3529 H   0  0  0  0  0  0  0  0  0 11  0  0
   -1.1802    2.1175    1.5589 H   0  0  0  0  0  0  0  0  0 12  0  0
   -1.8560   -0.1631    0.9941 H   0  0  0  0  0  0  0  0  0 13  0  0
   -2.7736    0.2378   -0.4548 H   0  0  0  0  0  0  0  0  0 14  0  0
   -0.7239   -1.6404   -0.1819 H   0  0  0  0  0  0  0  0  0 15  0  0
    2.0671   -0.3907   -0.7184 C   0  0  0  0  0  0  0  0  0 16  0  0
    1.4751    0.1703    0.5528 C   0  0  0  0  0  0  0  0  0 17  0  0
    1.0040   -0.7719    1.5621 C   0  0  0  0  0  0  0  0  0 18  0  0
    0.5436   -1.8726    1.3137 O   0  0  0  0  0  0  0  0  0 19  0  0
    2.2164    0.3988   -1.4551 H   0  0  0  0  0  0  0  0  0 20  0  0
    1.4124   -1.1444   -1.1534 H   0  0  0  0  0  0  0  0  0 21  0  0
    3.0351   -0.8574   -0.5223 H   0  0  0  0  0  0  0  0  0 22  0  0
    2.0134    1.0149    0.9801 H   0  0  0  0  0  0  0  0  0 23  0  0
    1.0182   -0.4130    2.6091 H   0  0  0  0  0  0  0  0  0 24  0  0
  1  7  1  0
  1  8  1  0
  1  6  1  0
  1  2  1  0
  2  3  1  0
  2  4  1  0
  3 12  1  0
  3 11  1  0
  3 10  1  0
  4  5  1  0
  4 14  1  0
  4 13  1  0
  5 15  1  0
  9 17  1  0
 16 21  1  0
 16 20  1  0
 16 22  1  0
 16 17  1  0
 17 18  1  0
 17 23  1  0
 18 24  1  0
 18 19  1  0
M  RAD  1   2   2
M  END
>  <rmg_smiles>  (3) 
CC[CH]O.C[C](C)CO

>  <rmg_adjacency_list>  (3) 
multiplicity 2
1  O u0 p2 c0 {4,S} {24,S}
2  O u0 p2 c0 {9,S}
3  C u0 p0 c0 {5,S} {9,S} {10,S} {11,S}
4  C u0 p0 c0 {1,S} {8,S} {12,S} {13,S}
5  C u0 p0 c0 {3,S} {14,S} {15,S} {16,S}
6  C u0 p0 c0 {8,S} {17,S} {18,S} {19,S}
7  C u0 p0 c0 {8,S} {20,S} {21,S} {22,S}
8  C u1 p0 c0 {4,S} {6,S} {7,S}
9  C u0 p0 c0 {2,S} {3,S} {23,S}
10 H u0 p0 c0 {3,S}
11 H u0 p0 c0 {3,S}
12 H u0 p0 c0 {4,S}
13 H u0 p0 c0 {4,S}
14 H u0 p0 c0 {5,S}
15 H u0 p0 c0 {5,S}
16 H u0 p0 c0 {5,S}
17 H u0 p0 c0 {6,S}
18 H u0 p0 c0 {6,S}
19 H u0 p0 c0 {6,S}
20 H u0 p0 c0 {7,S}
21 H u0 p0 c0 {7,S}
22 H u0 p0 c0 {7,S}
23 H u0 p0 c0 {9,S}
24 H u0 p0 c0 {1,S}


>  <multiplicity>  (3) 
2

>  <reaction>  (3) 
rxn_424

>  <type>  (3) 
ts

>  <role_mapnums>  (3) 
{"*2": 9, "*1": 2, "*3": 17, "*0": 18, "*4": 4}

>  <role_mapidx>  (3) 
{"*2": 8, "*1": 1, "*3": 16, "*0": 17, "*4": 3}

>  <ordered_mapped_smiles>  (3) 
[C:1]([C:2]([C:3]([H:10])([H:11])[H:12])[C:4]([O:5][H:15])([H:13])[H:14])([H:6])([H:7])[H:8].[H:9][C:17]([C:16]([H:20])([H:21])[H:22])([CH:18]([OH:19])[H:24])[H:23]

>  <mol_properties>  (3) 
{"1": {"label": "*1", "atom_type": "Cs"}, "3": {"label": "*4", "atom_type": "Cs"}, "8": {"label": "*2", "atom_type": "H0"}, "16": {"label": "*3", "atom_type": "Cs"}, "17": {"label": "*0", "atom_type": "Cs"}}

>  <level_of_theory>  (3) 
wb97xd/def2tzvp

>  <lot_method>  (3) 
wb97xd

>  <lot_basis>  (3) 
def2tzvp

>  <spin_multiplicity>  (3) 
2.0

>  <optical_isomers>  (3) 
2.0

>  <modes>  (3) 
IdealGasTranslation(mass=(131.107, 'amu')),         NonlinearRotor(             inertia = ([277.303, 454.106, 499.441

>  <frequency_value>  (3) 
-1402.93

>  <frequency_units>  (3) 
cm^-1

>  <frequency_list>  (3) 
unknown

>  <arkane_path>  (3) 
/home/calvin/Dropbox/PersonalFolders/Calvin/HAb_Converged/rxn_424/output/rxns/TS0/arkane/output.py

>  <path_exists>  (3) 
True

>  <E0_value>  (3) 
-1118400.0

>  <E0_units>  (3) 
kJ/mol

>  <thermo_class>  (3) 
unknown

>  <Cp0_value>  (3) 
unknown

>  <Cp0_units>  (3) 
unknown

>  <CpInf_value>  (3) 
unknown

>  <CpInf_units>  (3) 
unknown

>  <Tmin_value>  (3) 
unknown

>  <Tmin_units>  (3) 
unknown

>  <Tmax_value>  (3) 
unknown

>  <Tmax_units>  (3) 
unknown

>  <polynomials>  (3) 
unknown

>  <H298_value>  (3) 
unknown

>  <H298_units>  (3) 
unknown

>  <S298_value>  (3) 
unknown

>  <S298_units>  (3) 
unknown

>  <Cp_T_value_list>  (3) 
unknown

>  <Cp_T_units>  (3) 
unknown

>  <T_list>  (3) 
unknown

>  <T_units>  (3) 
unknown

>  <yaml_path>  (3) 
unknown

>  <frequencies_cm1>  (3) 
unknown

>  <ZPE_kJmol>  (3) 
unknown

>  <E_elec_kJmol>  (3) 
unknown

>  <E0_minus_Eelec_plus_ZPE_kJmol>  (3) 
unknown

>  <rxn>  (3) 
unknown

>  <species_type>  (3) 
unknown

>  <species_folder>  (3) 
unknown

>  <frequencies_cm1_list>  (3) 
[]

>  <ts_imag_freq_cm1>  (3) 
-1419.968

>  <ts_freq_out_path>  (3) 
/home/calvin/Dropbox/PersonalFolders/Calvin/HAb_Converged/rxn_424/output/rxns/TS0/geometry/freq.out

>  <E0_kJmol>  (3) 
-1.1184e+06

>  <H298_kJmol>  (3) 
unknown

$$$$

     RDKit          3D

 14 13  0  0  0  0  0  0  0  0999 V2000
   -0.0263    1.3824   -0.7006 C   0  0  0  0  0  0  0  0  0  1  0  0
   -0.2039   -0.0453   -0.3213 C   0  0  0  0  0  3  0  0  0  2  0  0
   -1.1121   -0.3782    0.8104 C   0  0  0  0  0  0  0  0  0  3  0  0
    0.8313   -1.0381   -0.7322 C   0  0  0  0  0  0  0  0  0  4  0  0
    0.3307   -2.3541   -0.9005 O   0  0  0  0  0  0  0  0  0  5  0  0
    0.6071    1.9181    0.0231 H   0  0  0  0  0  0  0  0  0  6  0  0
   -0.9831    1.9109   -0.7211 H   0  0  0  0  0  0  0  0  0  7  0  0
    0.4475    1.4899   -1.6787 H   0  0  0  0  0  0  0  0  0  8  0  0
   -2.0864    0.1051    0.6984 H   0  0  0  0  0  0  0  0  0  9  0  0
   -1.2623   -1.4541    0.9003 H   0  0  0  0  0  0  0  0  0 10  0  0
   -0.6968   -0.0235    1.7662 H   0  0  0  0  0  0  0  0  0 11  0  0
    1.6088   -1.1338    0.0391 H   0  0  0  0  0  0  0  0  0 12  0  0
    1.3350   -0.6925   -1.6447 H   0  0  0  0  0  0  0  0  0 13  0  0
   -0.3997   -2.3102   -1.5208 H   0  0  0  0  0  0  0  0  0 14  0  0
  1  8  1  0
  1  7  1  0
  1  6  1  0
  1  2  1  0
  2  3  1  0
  2  4  1  0
  3 11  1  0
  3  9  1  0
  3 10  1  0
  4 13  1  0
  4 12  1  0
  4  5  1  0
  5 14  1  0
M  RAD  1   2   2
M  END
>  <rmg_smiles>  (4) 
C[C](C)CO

>  <rmg_adjacency_list>  (4) 
multiplicity 2
1  O u0 p2 c0 {2,S} {14,S}
2  C u0 p0 c0 {1,S} {5,S} {6,S} {7,S}
3  C u0 p0 c0 {5,S} {8,S} {9,S} {10,S}
4  C u0 p0 c0 {5,S} {11,S} {12,S} {13,S}
5  C u1 p0 c0 {2,S} {3,S} {4,S}
6  H u0 p0 c0 {2,S}
7  H u0 p0 c0 {2,S}
8  H u0 p0 c0 {3,S}
9  H u0 p0 c0 {3,S}
10 H u0 p0 c0 {3,S}
11 H u0 p0 c0 {4,S}
12 H u0 p0 c0 {4,S}
13 H u0 p0 c0 {4,S}
14 H u0 p0 c0 {1,S}


>  <multiplicity>  (4) 
2

>  <reaction>  (4) 
rxn_424

>  <type>  (4) 
r1

>  <role_mapnums>  (4) 
{}

>  <role_mapidx>  (4) 
{}

>  <ordered_mapped_smiles>  (4) 
[C:1]([C:2]([C:3]([H:9])([H:10])[H:11])[C:4]([O:5][H:14])([H:12])[H:13])([H:6])([H:7])[H:8]

>  <level_of_theory>  (4) 
wb97xd/def2tzvp

>  <lot_method>  (4) 
wb97xd

>  <lot_basis>  (4) 
def2tzvp

>  <spin_multiplicity>  (4) 
2.0

>  <optical_isomers>  (4) 
2.0

>  <modes>  (4) 
IdealGasTranslation(mass=(73.0653, 'amu')),         NonlinearRotor(             inertia = ([66.6519, 141.392, 190.234

>  <frequency_value>  (4) 
unknown

>  <frequency_units>  (4) 
unknown

>  <frequency_list>  (4) 
unknown

>  <arkane_path>  (4) 
/home/calvin/Dropbox/PersonalFolders/Calvin/HAb_Converged/rxn_424/output/Species/rxn_424_C[C][C]CO/arkane/output.py

>  <path_exists>  (4) 
True

>  <E0_value>  (4) 
-611495.1349430596

>  <E0_units>  (4) 
kJ/mol

>  <thermo_class>  (4) 
NASA

>  <Cp0_value>  (4) 
33.257888

>  <Cp0_units>  (4) 
J/(mol*K)

>  <CpInf_value>  (4) 
332.57888

>  <CpInf_units>  (4) 
J/(mol*K)

>  <Tmin_value>  (4) 
10.0

>  <Tmin_units>  (4) 
K

>  <Tmax_value>  (4) 
3000.0

>  <Tmax_units>  (4) 
K

>  <polynomials>  (4) 
[{"name": "polynomial1", "class": "NASAPolynomial", "Tmin_value": 10.0, "Tmin_units": "K", "Tmax_value": 444.89285803448655, "Tmax_units": "K", "coeffs": [3.5516497294481084, 0.04549119231203356, -9.35500556411164e-05, 2.2415821551796147e-07, -1.89017142507032e-10, -73545875.69862285, 11.47675931749065]}, {"name": "polynomial2", "class": "NASAPolynomial", "Tmin_value": 444.89285803448655, "Tmin_units": "K", "Tmax_value": 3000.0, "Tmax_units": "K", "coeffs": [0.48125722327110365, 0.0496265058412315, -2.8360023030992606e-05, 7.892390846890453e-09, -8.565813367019484e-13, -73545370.22540295, 26.41330014079809]}]

>  <H298_value>  (4) 
-146145.66332159776

>  <H298_units>  (4) 
kcal/mol

>  <S298_value>  (4) 
84.88967618109803

>  <S298_units>  (4) 
cal/(mol*K)

>  <Cp_T_value_list>  (4) 
[26.431307814702723, 32.36643649688936, 38.03019801263985, 43.00572393844454, 51.11511550414589, 57.19885677382744, 66.39523256354266, 70.99891817771157, 73.36018555026162]

>  <Cp_T_units>  (4) 
cal/(mol*K)

>  <T_list>  (4) 
[300.0, 400.0, 500.0, 600.0, 800.0, 1000.0, 1500.0, 2000.0, 2400.0]

>  <T_units>  (4) 
K

>  <yaml_path>  (4) 
/home/calvin/Dropbox/PersonalFolders/Calvin/HAb_Converged/rxn_424/output/Species/rxn_424_C[C][C]CO/rxn_424_CCCCO.yml

>  <frequencies_cm1>  (4) 
[74.39691895688, 115.57822992092, 128.84524555916, 237.25434280599998, 298.41858105124, 342.64883349736, 362.94764210328, 501.66074556727995, 775.74273064444, 910.0884314449199, 933.4911174154801, 969.65952909592, 994.96437000012, 1046.9268479165598, 1072.89091941148, 1184.8433810834401, 1259.4188416586398, 1297.5237431993198, 1363.9824271262798, 1384.1782309523999, 1395.42635290656, 1412.97150039916, 1456.05496629684, 1458.62321880652, 1472.01384018052, 1478.3314666749197, 1482.21131338072, 2937.81305864644, 2941.3838910128397, 2951.21054700576, 2983.71885551064, 3027.32421229264, 3032.9002043724804, 3076.5398960810794, 3098.1708998390795, 3827.0464556745196]

>  <ZPE_kJmol>  (4) 
318.7283386735599

>  <E_elec_kJmol>  (4) 
-611813.8632817332

>  <E0_minus_Eelec_plus_ZPE_kJmol>  (4) 
0.0

>  <rxn>  (4) 
rxn_424

>  <species_type>  (4) 
p1

>  <species_folder>  (4) 
rxn_424_C[C][C]CO

>  <frequencies_cm1_list>  (4) 
[74.39691895688, 115.57822992092, 128.84524555916, 237.25434280599998, 298.41858105124, 342.64883349736, 362.94764210328, 501.66074556727995, 775.74273064444, 910.0884314449199, 933.4911174154801, 969.65952909592, 994.96437000012, 1046.9268479165598, 1072.89091941148, 1184.8433810834401, 1259.4188416586398, 1297.5237431993198, 1363.9824271262798, 1384.1782309523999, 1395.42635290656, 1412.97150039916, 1456.05496629684, 1458.62321880652, 1472.01384018052, 1478.3314666749197, 1482.21131338072, 2937.81305864644, 2941.3838910128397, 2951.21054700576, 2983.71885551064, 3027.32421229264, 3032.9002043724804, 3076.5398960810794, 3098.1708998390795, 3827.0464556745196]

>  <E0_kJmol>  (4) 
-611495

>  <H298_kJmol>  (4) 
-611473

$$$$

     RDKit          3D

  9  8  0  0  0  0  0  0  0  0999 V2000
   -1.1429   -0.0056    0.0357 C   0  0  0  0  0  0  0  0  0  1  0  0
    0.2348   -0.4846   -0.1988 C   0  0  0  0  0  0  0  0  0  2  0  0
    1.3889    0.3067    0.0768 C   0  0  0  0  0  0  0  0  0  3  0  0
    1.3416    1.4450    0.5289 O   0  0  0  0  0  1  0  0  0  4  0  0
   -1.7198   -0.0230   -0.8945 H   0  0  0  0  0  0  0  0  0  5  0  0
   -1.1399    1.0063    0.4362 H   0  0  0  0  0  0  0  0  0  6  0  0
   -1.6667   -0.6673    0.7330 H   0  0  0  0  0  0  0  0  0  7  0  0
    0.3900   -1.4812   -0.5984 H   0  0  0  0  0  0  0  0  0  8  0  0
    2.3646   -0.1624   -0.1407 H   0  0  0  0  0  0  0  0  0  9  0  0
  1  5  1  0
  1  7  1  0
  1  6  1  0
  1  2  1  0
  2  8  1  0
  2  3  1  0
  3  4  1  0
  3  9  1  0
M  RAD  1   4   2
M  END
>  <rmg_smiles>  (5) 
C[CH][CH][O]

>  <rmg_adjacency_list>  (5) 
multiplicity 2
1 O u1 p2 c0 {4,S}
2 C u0 p0 c0 {3,S} {5,S} {6,S} {7,S}
3 C u0 p0 c0 {2,S} {4,S} {8,S}
4 C u0 p0 c0 {1,S} {3,S} {9,S}
5 H u0 p0 c0 {2,S}
6 H u0 p0 c0 {2,S}
7 H u0 p0 c0 {2,S}
8 H u0 p0 c0 {3,S}
9 H u0 p0 c0 {4,S}


>  <multiplicity>  (5) 
2

>  <reaction>  (5) 
rxn_424

>  <type>  (5) 
r2

>  <role_mapnums>  (5) 
{}

>  <role_mapidx>  (5) 
{}

>  <ordered_mapped_smiles>  (5) 
[C:1]([CH:2]([CH:3]([O:4])[H:9])[H:8])([H:5])([H:6])[H:7]

>  <level_of_theory>  (5) 
wb97xd/def2tzvp

>  <lot_method>  (5) 
wb97xd

>  <lot_basis>  (5) 
def2tzvp

>  <spin_multiplicity>  (5) 
2.0

>  <optical_isomers>  (5) 
1.0

>  <modes>  (5) 
IdealGasTranslation(mass=(57.034, 'amu')),         NonlinearRotor(             inertia = ([25.424, 86.3649, 108.698

>  <frequency_value>  (5) 
unknown

>  <frequency_units>  (5) 
unknown

>  <frequency_list>  (5) 
unknown

>  <arkane_path>  (5) 
/home/calvin/Dropbox/PersonalFolders/Calvin/HAb_Converged/rxn_424/output/Species/rxn_424_C[CH]C=O/arkane/output.py

>  <path_exists>  (5) 
True

>  <E0_value>  (5) 
-505242.8208271292

>  <E0_units>  (5) 
kJ/mol

>  <thermo_class>  (5) 
NASA

>  <Cp0_value>  (5) 
33.257888

>  <Cp0_units>  (5) 
J/(mol*K)

>  <CpInf_value>  (5) 
207.8618

>  <CpInf_units>  (5) 
J/(mol*K)

>  <Tmin_value>  (5) 
10.0

>  <Tmin_units>  (5) 
K

>  <Tmax_value>  (5) 
3000.0

>  <Tmax_units>  (5) 
K

>  <polynomials>  (5) 
[{"name": "polynomial1", "class": "NASAPolynomial", "Tmin_value": 10.0, "Tmin_units": "K", "Tmax_value": 938.2630084142831, "Tmax_units": "K", "coeffs": [3.9259098530255714, 0.011960173973246408, 2.5341600530598885e-05, -3.607709397227657e-08, 1.3343688742505425e-11, -60766678.29780432, 9.01307682718271]}, {"name": "polynomial2", "class": "NASAPolynomial", "Tmin_value": 938.2630084142831, "Tmin_units": "K", "Tmax_value": 3000.0, "Tmax_units": "K", "coeffs": [3.018178350943707, 0.026186156747678206, -1.3957818427452722e-05, 3.610268029367448e-09, -3.6547285163770123e-13, -60766963.80473464, 10.905314591117884]}]

>  <H298_value>  (5) 
-120752.24261767376

>  <H298_units>  (5) 
kcal/mol

>  <S298_value>  (5) 
71.0958225531589

>  <S298_units>  (5) 
cal/(mol*K)

>  <Cp_T_value_list>  (5) 
[17.743187445814065, 21.456464643083425, 24.9707217517854, 28.142182940027215, 33.19981420774931, 36.74605511733711, 42.18197593126414, 44.898539773391356, 46.20404862402338]

>  <Cp_T_units>  (5) 
cal/(mol*K)

>  <T_list>  (5) 
[300.0, 400.0, 500.0, 600.0, 800.0, 1000.0, 1500.0, 2000.0, 2400.0]

>  <T_units>  (5) 
K

>  <yaml_path>  (5) 
/home/calvin/Dropbox/PersonalFolders/Calvin/HAb_Converged/rxn_424/output/Species/rxn_424_C[CH]C=O/rxn_424_CCHC=O.yml

>  <frequencies_cm1>  (5) 
[96.35753801023998, 270.0098627823999, 301.66666510759995, 649.52067347752, 695.1929928408399, 884.1930298031999, 940.261964941, 1007.2562737229199, 1061.03850274916, 1168.4793550658799, 1375.1962141538397, 1396.95769063292, 1416.5285987949198, 1458.63008579184, 1479.0112982216, 1603.31746648424, 2929.05078537812, 2997.5970328423596, 3046.4006975116, 3120.79074948316, 3151.94626188]

>  <ZPE_kJmol>  (5) 
185.7167300702324

>  <E_elec_kJmol>  (5) 
-505428.5375571994

>  <E0_minus_Eelec_plus_ZPE_kJmol>  (5) 
0.0

>  <rxn>  (5) 
rxn_424

>  <species_type>  (5) 
r1

>  <species_folder>  (5) 
rxn_424_C[CH]C=O

>  <frequencies_cm1_list>  (5) 
[96.35753801023998, 270.0098627823999, 301.66666510759995, 649.52067347752, 695.1929928408399, 884.1930298031999, 940.261964941, 1007.2562737229199, 1061.03850274916, 1168.4793550658799, 1375.1962141538397, 1396.95769063292, 1416.5285987949198, 1458.63008579184, 1479.0112982216, 1603.31746648424, 2929.05078537812, 2997.5970328423596, 3046.4006975116, 3120.79074948316, 3151.94626188]

>  <E0_kJmol>  (5) 
-505243

>  <H298_kJmol>  (5) 
-505227

$$$$
