
     RDKit          3D

  6  5  0  0  0  0  0  0  0  0999 V2000
    0.4949   -0.2024   -0.4811 C   0  0  0  0  0  0  0  0  0  1  0  0
   -0.5027    0.1523    0.4254 O   0  0  0  0  0  0  0  0  0  2  0  0
    1.4284   -0.4978    0.0126 H   0  0  0  0  0  0  0  0  0  3  0  0
    0.1180   -1.0684   -1.0353 H   0  0  0  0  0  0  0  0  0  4  0  0
    0.6945    0.5906   -1.2110 H   0  0  0  0  0  0  0  0  0  5  0  0
   -0.2212    0.8134    1.0620 H   0  0  0  0  0  0  0  0  0  6  0  0
  1  5  1  0
  1  4  1  0
  1  3  1  0
  1  2  1  0
  2  6  1  0
M  END
>  <rmg_smiles>  (1) 
CO

>  <rmg_adjacency_list>  (1) 
1 C u0 p0 c0 {2,S} {3,S} {4,S} {5,S}
2 O u0 p2 c0 {1,S} {6,S}
3 H u0 p0 c0 {1,S}
4 H u0 p0 c0 {1,S}
5 H u0 p0 c0 {1,S}
6 H u0 p0 c0 {2,S}


>  <multiplicity>  (1) 
1

>  <reaction>  (1) 
rxn_3211

>  <type>  (1) 
r1h

>  <role_mapnums>  (1) 
{"r1h_a": 2, "r1h_h": 6}

>  <role_mapidx>  (1) 
{"r1h_a": 1, "r1h_h": 5}

>  <ordered_mapped_smiles>  (1) 
[C:1]([O:2][H:6])([H:3])([H:4])[H:5]

>  <mol_properties>  (1) 
{"1": {"label": "donator", "atom_type": "O2s"}, "5": {"label": "d_hydrogen", "atom_type": "H0"}}

>  <level_of_theory>  (1) 
wb97xd/def2tzvp

>  <lot_method>  (1) 
wb97xd

>  <lot_basis>  (1) 
def2tzvp

>  <spin_multiplicity>  (1) 
1.0

>  <optical_isomers>  (1) 
1.0

>  <modes>  (1) 
IdealGasTranslation(mass=(32.0262, 'amu')),         NonlinearRotor(             inertia = ([3.92427, 20.1792, 20.9046

>  <frequency_value>  (1) 
unknown

>  <frequency_units>  (1) 
unknown

>  <frequency_list>  (1) 
unknown

>  <arkane_path>  (1) 
/home/calvin/Dropbox/PersonalFolders/Calvin/ATLAS_Converged/NonRMG/rxn_3211/output/Species/rxn_3211_r2_CO/arkane/output.py

>  <path_exists>  (1) 
True

>  <E0_value>  (1) 
-303729.8001491246

>  <E0_units>  (1) 
kJ/mol

>  <thermo_class>  (1) 
NASA

>  <Cp0_value>  (1) 
33.257888

>  <Cp0_units>  (1) 
J/(mol*K)

>  <CpInf_value>  (1) 
133.031552

>  <CpInf_units>  (1) 
J/(mol*K)

>  <Tmin_value>  (1) 
10.0

>  <Tmin_units>  (1) 
K

>  <Tmax_value>  (1) 
3000.0

>  <Tmax_units>  (1) 
K

>  <polynomials>  (1) 
[{"name": "polynomial1", "class": "NASAPolynomial", "Tmin_value": 10.0, "Tmin_units": "K", "Tmax_value": 698.3055957471784, "Tmax_units": "K", "coeffs": [4.0215567941334704, -0.001391829268747868, 3.088655489148581e-05, -3.5619858672967794e-08, 1.3319650464355887e-11, -36530257.829865865, 5.049565035494855]}, {"name": "polynomial2", "class": "NASAPolynomial", "Tmin_value": 698.3055957471784, "Tmin_units": "K", "Tmax_value": 3000.0, "Tmax_units": "K", "coeffs": [0.8030306619414519, 0.017044666008894226, -8.716707294038987e-06, 2.189650292205645e-09, -2.1672465609087913e-13, -36529808.334002145, 19.421274553945334]}]

>  <H298_value>  (1) 
-72590.49282012274

>  <H298_units>  (1) 
kcal/mol

>  <S298_value>  (1) 
56.89264929037371

>  <S298_units>  (1) 
cal/(mol*K)

>  <Cp_T_value_list>  (1) 
[10.989154454625155, 12.853223759905624, 14.759532547671315, 16.56924080634077, 19.658244235717476, 22.06577209972083, 25.933719351856908, 27.970212380204792, 28.976087456288074]

>  <Cp_T_units>  (1) 
cal/(mol*K)

>  <T_list>  (1) 
[300.0, 400.0, 500.0, 600.0, 800.0, 1000.0, 1500.0, 2000.0, 2400.0]

>  <T_units>  (1) 
K

>  <yaml_path>  (1) 
/home/calvin/Dropbox/PersonalFolders/Calvin/ATLAS_Converged/NonRMG/rxn_3211/output/Species/rxn_3211_r2_CO/rxn_3211_r2_CO.yml

>  <frequencies_cm1>  (1) 
[308.3894437358799, 1061.07283767576, 1096.6987575159199, 1170.2098353665199, 1363.8038855079599, 1472.6044009180396, 1484.93063956744, 1497.8268379983997, 2973.4595794425595, 3026.27356353868, 3097.9030874116, 3862.39082911656]

>  <ZPE_kJmol>  (1) 
134.07488361253408

>  <E_elec_kJmol>  (1) 
-303863.8750327371

>  <E0_minus_Eelec_plus_ZPE_kJmol>  (1) 
0.0

>  <rxn>  (1) 
rxn_3211

>  <species_type>  (1) 
r1

>  <species_folder>  (1) 
rxn_3211_r2_CO

>  <frequencies_cm1_list>  (1) 
[308.3894437358799, 1061.07283767576, 1096.6987575159199, 1170.2098353665199, 1363.8038855079599, 1472.6044009180396, 1484.93063956744, 1497.8268379983997, 2973.4595794425595, 3026.27356353868, 3097.9030874116, 3862.39082911656]

>  <E0_kJmol>  (1) 
-303730

>  <H298_kJmol>  (1) 
-303719

$$$$

     RDKit          3D

  8  7  0  0  0  0  0  0  0  0999 V2000
    0.3232   -0.8789    1.3856 N   0  0  0  0  0  0  0  0  0  1  0  0
   -0.4621    0.1530    0.7424 C   0  0  0  0  0  0  0  0  0  2  0  0
   -0.1100    0.3865   -0.6650 C   0  0  0  0  0  2  0  0  0  3  0  0
    0.2097    0.5436   -1.7553 N   0  0  0  0  0  0  0  0  0  4  0  0
    1.2993   -0.7829    1.1122 H   0  0  0  0  0  0  0  0  0  5  0  0
   -0.3269    1.0943    1.2863 H   0  0  0  0  0  0  0  0  0  6  0  0
   -1.5182   -0.1097    0.8030 H   0  0  0  0  0  0  0  0  0  7  0  0
    0.0108   -1.7957    1.0718 H   0  0  0  0  0  0  0  0  0  8  0  0
  1  5  1  0
  1  2  1  0
  1  8  1  0
  2  7  1  0
  2  6  1  0
  2  3  1  0
  3  4  1  0
M  RAD  1   3   3
M  END
>  <rmg_smiles>  (2) 
[N][C]CN

>  <rmg_adjacency_list>  (2) 
1 N u0 p1 c0 {3,S} {7,S} {8,S}
2 N u0 p2 c0 {4,S}
3 C u0 p0 c0 {1,S} {4,S} {5,S} {6,S}
4 C u0 p1 c0 {2,S} {3,S}
5 H u0 p0 c0 {3,S}
6 H u0 p0 c0 {3,S}
7 H u0 p0 c0 {1,S}
8 H u0 p0 c0 {1,S}


>  <multiplicity>  (2) 
1

>  <reaction>  (2) 
rxn_3211

>  <type>  (2) 
r2h

>  <role_mapnums>  (2) 
{"r2h_a": 1, "r2h_h": 8}

>  <role_mapidx>  (2) 
{"r2h_a": 0, "r2h_h": 7}

>  <ordered_mapped_smiles>  (2) 
[N:1]([C:2]([C:3][NH2:4])([H:6])[H:7])([H:5])[H:8]

>  <mol_properties>  (2) 
{"0": {"label": "acceptor", "atom_type": "N3s"}, "7": {"label": "a_hydrogen", "atom_type": "H0"}}

>  <level_of_theory>  (2) 
wb97xd/def2tzvp

>  <lot_method>  (2) 
wb97xd

>  <lot_basis>  (2) 
def2tzvp

>  <spin_multiplicity>  (2) 
1.0

>  <optical_isomers>  (2) 
1.0

>  <modes>  (2) 
IdealGasTranslation(mass=(56.0374, 'amu')),         NonlinearRotor(             inertia = ([16.5185, 105.395, 116.141

>  <frequency_value>  (2) 
unknown

>  <frequency_units>  (2) 
unknown

>  <frequency_list>  (2) 
unknown

>  <arkane_path>  (2) 
/home/calvin/Dropbox/PersonalFolders/Calvin/ATLAS_Converged/NonRMG/rxn_3211/output/Species/rxn_3211_p1_NCCtN/arkane/output.py

>  <path_exists>  (2) 
True

>  <E0_value>  (2) 
-493707.24096395954

>  <E0_units>  (2) 
kJ/mol

>  <thermo_class>  (2) 
NASA

>  <Cp0_value>  (2) 
33.257888

>  <Cp0_units>  (2) 
J/(mol*K)

>  <CpInf_value>  (2) 
182.918384

>  <CpInf_units>  (2) 
J/(mol*K)

>  <Tmin_value>  (2) 
10.0

>  <Tmin_units>  (2) 
K

>  <Tmax_value>  (2) 
3000.0

>  <Tmax_units>  (2) 
K

>  <polynomials>  (2) 
[{"name": "polynomial1", "class": "NASAPolynomial", "Tmin_value": 10.0, "Tmin_units": "K", "Tmax_value": 310.3656944426032, "Tmax_units": "K", "coeffs": [3.9731943208296037, 0.002034998905401934, 9.475709370659397e-05, -2.3009470252826854e-07, 1.8817978896599532e-10, -59379266.29095806, 8.166466583720501]}, {"name": "polynomial2", "class": "NASAPolynomial", "Tmin_value": 310.3656944426032, "Tmin_units": "K", "Tmax_value": 3000.0, "Tmax_units": "K", "coeffs": [2.222751666825024, 0.024594558995586543, -1.4272560220765838e-05, 4.0994905264842876e-09, -4.624224001756621e-13, -59379157.63460226, 14.563329871704575]}]

>  <H298_value>  (2) 
-117995.39622498966

>  <H298_units>  (2) 
kcal/mol

>  <S298_value>  (2) 
67.48007386059012

>  <S298_units>  (2) 
cal/(mol*K)

>  <Cp_T_value_list>  (2) 
[16.739297051439777, 19.926703272151446, 22.72455293853158, 25.171796492782516, 29.159257216543025, 32.15661505552977, 36.755563782360284, 39.185316788338156, 40.47748472918174]

>  <Cp_T_units>  (2) 
cal/(mol*K)

>  <T_list>  (2) 
[300.0, 400.0, 500.0, 600.0, 800.0, 1000.0, 1500.0, 2000.0, 2400.0]

>  <T_units>  (2) 
K

>  <yaml_path>  (2) 
/home/calvin/Dropbox/PersonalFolders/Calvin/ATLAS_Converged/NonRMG/rxn_3211/output/Species/rxn_3211_p1_NCCtN/rxn_3211_p1_NCCtN.yml

>  <frequencies_cm1>  (2) 
[216.01475721123998, 261.31625936728, 391.90571919772, 575.1100205500001, 821.9438078774, 892.22053564228, 915.49274889176, 1117.7804024483198, 1189.6365368368, 1359.3815469618798, 1375.3816227574798, 1458.4996130707598, 1659.1529241211601, 2352.78024430904, 3046.929455381239, 3089.3536906882, 3509.5925913162396, 3590.1972650023995]

>  <ZPE_kJmol>  (2) 
166.41668883231094

>  <E_elec_kJmol>  (2) 
-493873.6576527919

>  <E0_minus_Eelec_plus_ZPE_kJmol>  (2) 
0.0

>  <rxn>  (2) 
rxn_3211

>  <species_type>  (2) 
p0

>  <species_folder>  (2) 
rxn_3211_p1_NCCtN

>  <frequencies_cm1_list>  (2) 
[216.01475721123998, 261.31625936728, 391.90571919772, 575.1100205500001, 821.9438078774, 892.22053564228, 915.49274889176, 1117.7804024483198, 1189.6365368368, 1359.3815469618798, 1375.3816227574798, 1458.4996130707598, 1659.1529241211601, 2352.78024430904, 3046.929455381239, 3089.3536906882, 3509.5925913162396, 3590.1972650023995]

>  <E0_kJmol>  (2) 
-493707

>  <H298_kJmol>  (2) 
-493693

$$$$

     RDKit          3D

 13 11  0  0  0  0  0  0  0  0999 V2000
    0.0132    0.2180    1.3745 N   0  0  0  0  0  2  0  0  0  1  0  0
   -0.7721    1.2499    0.7313 C   0  0  0  0  0  0  0  0  0  2  0  0
   -0.4200    1.4834   -0.6762 C   0  0  0  0  0  0  0  0  0  3  0  0
   -0.1003    1.6404   -1.7665 N   0  0  0  0  0  0  0  0  0  4  0  0
    0.9893    0.3140    1.1011 H   0  0  0  0  0  0  0  0  0  5  0  0
   -0.6369    2.1912    1.2751 H   0  0  0  0  0  0  0  0  0  6  0  0
   -1.8282    0.9872    0.7919 H   0  0  0  0  0  0  0  0  0  7  0  0
    0.2930   -2.0399   -0.6900 C   0  0  0  0  0  0  0  0  0  8  0  0
   -0.7046   -1.6851    0.2165 O   0  0  0  0  0  0  0  0  0  9  0  0
    1.2265   -2.3352   -0.1963 H   0  0  0  0  0  0  0  0  0 10  0  0
   -0.0838   -2.9058   -1.2442 H   0  0  0  0  0  0  0  0  0 11  0  0
    0.4927   -1.2468   -1.4199 H   0  0  0  0  0  0  0  0  0 12  0  0
   -0.3571   -0.8691    1.0023 H   0  0  0  0  0  0  0  0  0 13  0  0
  1  5  1  0
  1  2  1  0
  2  7  1  0
  2  6  1  0
  2  3  1  0
  3  4  1  0
  8 12  1  0
  8 11  1  0
  8 10  1  0
  8  9  1  0
  9 13  1  0
M  RAD  1   1   2
M  END
>  <rmg_smiles>  (3) 
[N][C]C[NH].CO

>  <rmg_adjacency_list>  (3) 
multiplicity 2
1  O u0 p2 c0 {5,S} {13,S}
2  N u1 p1 c0 {4,S} {12,S}
3  N u0 p2 c0 {6,S}
4  C u0 p0 c0 {2,S} {6,S} {7,S} {8,S}
5  C u0 p0 c0 {1,S} {9,S} {10,S} {11,S}
6  C u0 p1 c0 {3,S} {4,S}
7  H u0 p0 c0 {4,S}
8  H u0 p0 c0 {4,S}
9  H u0 p0 c0 {5,S}
10 H u0 p0 c0 {5,S}
11 H u0 p0 c0 {5,S}
12 H u0 p0 c0 {2,S}
13 H u0 p0 c0 {1,S}


>  <multiplicity>  (3) 
2

>  <reaction>  (3) 
rxn_3211

>  <type>  (3) 
ts

>  <role_mapnums>  (3) 
{"*2": 13, "*1": 9, "*3": 1, "*0": 8, "*4": 2}

>  <role_mapidx>  (3) 
{"*2": 12, "*1": 8, "*3": 0, "*0": 7, "*4": 1}

>  <ordered_mapped_smiles>  (3) 
[N:1]([C:2]([CH2:3][NH2:4])([H:6])[H:7])[H:5].[C:8]([O:9][H:13])([H:10])([H:11])[H:12]

>  <mol_properties>  (3) 
{"0": {"label": "*3", "atom_type": "N3s"}, "1": {"label": "*4", "atom_type": "Cs"}, "7": {"label": "*0", "atom_type": "Cs"}, "8": {"label": "*1", "atom_type": "O2s"}, "12": {"label": "*2", "atom_type": "H0"}}

>  <level_of_theory>  (3) 
wb97xd/def2tzvp

>  <lot_method>  (3) 
wb97xd

>  <lot_basis>  (3) 
def2tzvp

>  <spin_multiplicity>  (3) 
2.0

>  <optical_isomers>  (3) 
2.0

>  <modes>  (3) 
IdealGasTranslation(mass=(87.0558, 'amu')),         NonlinearRotor(             inertia = ([110.989, 220.454, 299.615

>  <frequency_value>  (3) 
-1873.57

>  <frequency_units>  (3) 
cm^-1

>  <frequency_list>  (3) 
unknown

>  <arkane_path>  (3) 
/home/calvin/Dropbox/PersonalFolders/Calvin/ATLAS_Converged/NonRMG/rxn_3211/output/rxns/TS0/arkane/output.py

>  <path_exists>  (3) 
True

>  <E0_value>  (3) 
-795678.0

>  <E0_units>  (3) 
kJ/mol

>  <thermo_class>  (3) 
unknown

>  <Cp0_value>  (3) 
unknown

>  <Cp0_units>  (3) 
unknown

>  <CpInf_value>  (3) 
unknown

>  <CpInf_units>  (3) 
unknown

>  <Tmin_value>  (3) 
unknown

>  <Tmin_units>  (3) 
unknown

>  <Tmax_value>  (3) 
unknown

>  <Tmax_units>  (3) 
unknown

>  <polynomials>  (3) 
unknown

>  <H298_value>  (3) 
unknown

>  <H298_units>  (3) 
unknown

>  <S298_value>  (3) 
unknown

>  <S298_units>  (3) 
unknown

>  <Cp_T_value_list>  (3) 
unknown

>  <Cp_T_units>  (3) 
unknown

>  <T_list>  (3) 
unknown

>  <T_units>  (3) 
unknown

>  <yaml_path>  (3) 
unknown

>  <frequencies_cm1>  (3) 
unknown

>  <ZPE_kJmol>  (3) 
unknown

>  <E_elec_kJmol>  (3) 
unknown

>  <E0_minus_Eelec_plus_ZPE_kJmol>  (3) 
unknown

>  <rxn>  (3) 
unknown

>  <species_type>  (3) 
unknown

>  <species_folder>  (3) 
unknown

>  <frequencies_cm1_list>  (3) 
[]

>  <ts_imag_freq_cm1>  (3) 
-1896.3271

>  <ts_freq_out_path>  (3) 
/home/calvin/Dropbox/PersonalFolders/Calvin/ATLAS_Converged/NonRMG/rxn_3211/output/rxns/TS0/geometry/freq.out

>  <E0_kJmol>  (3) 
-795678

>  <H298_kJmol>  (3) 
unknown

$$$$

     RDKit          3D

  5  4  0  0  0  0  0  0  0  0999 V2000
   -0.0419    0.0056   -0.0340 C   0  0  0  0  0  0  0  0  0  1  0  0
    1.3118    0.0049   -0.1263 O   0  0  0  0  0  1  0  0  0  2  0  0
   -0.2615   -0.1535    1.0387 H   0  0  0  0  0  0  0  0  0  3  0  0
   -0.4946    0.9694   -0.3042 H   0  0  0  0  0  0  0  0  0  4  0  0
   -0.5138   -0.8264   -0.5743 H   0  0  0  0  0  0  0  0  0  5  0  0
  1  3  1  0
  1  5  1  0
  1  2  1  0
  1  4  1  0
M  RAD  1   2   2
M  END
>  <rmg_smiles>  (4) 
C[O]

>  <rmg_adjacency_list>  (4) 
multiplicity 2
1 O u1 p2 c0 {2,S}
2 C u0 p0 c0 {1,S} {3,S} {4,S} {5,S}
3 H u0 p0 c0 {2,S}
4 H u0 p0 c0 {2,S}
5 H u0 p0 c0 {2,S}


>  <multiplicity>  (4) 
2

>  <reaction>  (4) 
rxn_3211

>  <type>  (4) 
r1

>  <role_mapnums>  (4) 
{}

>  <role_mapidx>  (4) 
{}

>  <ordered_mapped_smiles>  (4) 
[C:1]([O:2])([H:3])([H:4])[H:5]

>  <level_of_theory>  (4) 
wb97xd/def2tzvp

>  <lot_method>  (4) 
wb97xd

>  <lot_basis>  (4) 
def2tzvp

>  <spin_multiplicity>  (4) 
2.0

>  <optical_isomers>  (4) 
1.0

>  <modes>  (4) 
IdealGasTranslation(mass=(31.0184, 'amu')),         NonlinearRotor(             inertia = ([3.20006, 17.856, 17.9799

>  <frequency_value>  (4) 
unknown

>  <frequency_units>  (4) 
unknown

>  <frequency_list>  (4) 
unknown

>  <arkane_path>  (4) 
/home/calvin/Dropbox/PersonalFolders/Calvin/ATLAS_Converged/NonRMG/rxn_3211/output/Species/rxn_3211_p2_Csbr-O-sbr/arkane/output.py

>  <path_exists>  (4) 
True

>  <E0_value>  (4) 
-301997.459029344

>  <E0_units>  (4) 
kJ/mol

>  <thermo_class>  (4) 
NASA

>  <Cp0_value>  (4) 
33.257888

>  <Cp0_units>  (4) 
J/(mol*K)

>  <CpInf_value>  (4) 
108.088136

>  <CpInf_units>  (4) 
J/(mol*K)

>  <Tmin_value>  (4) 
10.0

>  <Tmin_units>  (4) 
K

>  <Tmax_value>  (4) 
3000.0

>  <Tmax_units>  (4) 
K

>  <polynomials>  (4) 
[{"name": "polynomial1", "class": "NASAPolynomial", "Tmin_value": 10.0, "Tmin_units": "K", "Tmax_value": 768.0598331593512, "Tmax_units": "K", "coeffs": [4.071530577557991, -0.004788434583080359, 3.764586061255824e-05, -4.457027786228662e-08, 1.732525576580227e-11, -36321906.533793464, 5.398160171371094]}, {"name": "polynomial2", "class": "NASAPolynomial", "Tmin_value": 768.0598331593512, "Tmin_units": "K", "Tmax_value": 3000.0, "Tmax_units": "K", "coeffs": [1.2714133028161243, 0.014092440962121876, -7.62198584482137e-06, 2.0075652577844016e-09, -2.0714843524012733e-13, -36321603.17719212, 17.34289780401859]}]

>  <H298_value>  (4) 
-72176.63871650312

>  <H298_units>  (4) 
kcal/mol

>  <S298_value>  (4) 
56.59493107673591

>  <S298_units>  (4) 
cal/(mol*K)

>  <Cp_T_value_list>  (4) 
[9.85667287102546, 11.467221230377872, 13.116203167818478, 14.644028305439264, 17.110484961820955, 18.962491268192473, 21.834332837521245, 23.279128461346165, 23.986630408612573]

>  <Cp_T_units>  (4) 
cal/(mol*K)

>  <T_list>  (4) 
[300.0, 400.0, 500.0, 600.0, 800.0, 1000.0, 1500.0, 2000.0, 2400.0]

>  <T_units>  (4) 
K

>  <yaml_path>  (4) 
/home/calvin/Dropbox/PersonalFolders/Calvin/ATLAS_Converged/NonRMG/rxn_3211/output/Species/rxn_3211_p2_Csbr-O-sbr/rxn_3211_p2_Csbr-O-sbr.yml

>  <frequencies_cm1>  (4) 
[717.9227142500399, 959.00196787928, 1127.7649991035998, 1355.17895194604, 1359.9103048315199, 1501.9607631610397, 2892.6488961967993, 2963.9144698477603, 3005.7618783878397]

>  <ZPE_kJmol>  (4) 
95.00783418108908

>  <E_elec_kJmol>  (4) 
-302092.4668635251

>  <E0_minus_Eelec_plus_ZPE_kJmol>  (4) 
0.0

>  <rxn>  (4) 
rxn_3211

>  <species_type>  (4) 
p1

>  <species_folder>  (4) 
rxn_3211_p2_Csbr-O-sbr

>  <frequencies_cm1_list>  (4) 
[717.9227142500399, 959.00196787928, 1127.7649991035998, 1355.17895194604, 1359.9103048315199, 1501.9607631610397, 2892.6488961967993, 2963.9144698477603, 3005.7618783878397]

>  <E0_kJmol>  (4) 
-301997

>  <H298_kJmol>  (4) 
-301987

$$$$

     RDKit          3D

  7  6  0  0  0  0  0  0  0  0999 V2000
   -1.3059    0.5497   -0.1304 N   0  0  0  0  0  2  0  0  0  1  0  0
   -0.2700   -0.4288    0.0448 C   0  0  0  0  0  0  0  0  0  2  0  0
    1.1109    0.0669    0.0401 C   0  0  0  0  0  0  0  0  0  3  0  0
    2.1758    0.4925    0.0308 N   0  0  0  0  0  0  0  0  0  4  0  0
   -0.8815    1.4733   -0.2339 H   0  0  0  0  0  0  0  0  0  5  0  0
   -0.3767   -1.1909   -0.7373 H   0  0  0  0  0  0  0  0  0  6  0  0
   -0.4527   -0.9628    0.9858 H   0  0  0  0  0  0  0  0  0  7  0  0
  1  5  1  0
  1  2  1  0
  2  7  1  0
  2  6  1  0
  2  3  1  0
  3  4  1  0
M  RAD  1   1   2
M  END
>  <rmg_smiles>  (5) 
[N][C]C[NH]

>  <rmg_adjacency_list>  (5) 
multiplicity 2
1 N u1 p1 c0 {3,S} {7,S}
2 N u0 p2 c0 {4,S}
3 C u0 p0 c0 {1,S} {4,S} {5,S} {6,S}
4 C u0 p1 c0 {2,S} {3,S}
5 H u0 p0 c0 {3,S}
6 H u0 p0 c0 {3,S}
7 H u0 p0 c0 {1,S}


>  <multiplicity>  (5) 
2

>  <reaction>  (5) 
rxn_3211

>  <type>  (5) 
r2

>  <role_mapnums>  (5) 
{}

>  <role_mapidx>  (5) 
{}

>  <ordered_mapped_smiles>  (5) 
[N:1]([C:2]([CH2:3][NH2:4])([H:6])[H:7])[H:5]

>  <level_of_theory>  (5) 
wb97xd/def2tzvp

>  <lot_method>  (5) 
wb97xd

>  <lot_basis>  (5) 
def2tzvp

>  <spin_multiplicity>  (5) 
2.0

>  <optical_isomers>  (5) 
1.0

>  <modes>  (5) 
IdealGasTranslation(mass=(55.0296, 'amu')),         NonlinearRotor(             inertia = ([14.3798, 101.116, 112.445

>  <frequency_value>  (5) 
unknown

>  <frequency_units>  (5) 
unknown

>  <frequency_list>  (5) 
unknown

>  <arkane_path>  (5) 
/home/calvin/Dropbox/PersonalFolders/Calvin/ATLAS_Converged/NonRMG/rxn_3211/output/Species/rxn_3211_r1_sbr-NH-sbrCCtN/arkane/output.py

>  <path_exists>  (5) 
True

>  <E0_value>  (5) 
-491973.9107065931

>  <E0_units>  (5) 
kJ/mol

>  <thermo_class>  (5) 
NASA

>  <Cp0_value>  (5) 
33.257888

>  <Cp0_units>  (5) 
J/(mol*K)

>  <CpInf_value>  (5) 
157.97496800000002

>  <CpInf_units>  (5) 
J/(mol*K)

>  <Tmin_value>  (5) 
10.0

>  <Tmin_units>  (5) 
K

>  <Tmax_value>  (5) 
3000.0

>  <Tmax_units>  (5) 
K

>  <polynomials>  (5) 
[{"name": "polynomial1", "class": "NASAPolynomial", "Tmin_value": 10.0, "Tmin_units": "K", "Tmax_value": 441.5888552627719, "Tmax_units": "K", "coeffs": [3.8074387231682363, 0.01890513209384672, -2.384570888732855e-05, 4.838233157000235e-08, -4.1393745668634286e-11, -59170793.396980785, 9.226799164772778]}, {"name": "polynomial2", "class": "NASAPolynomial", "Tmin_value": 441.5888552627719, "Tmin_units": "K", "Tmax_value": 3000.0, "Tmax_units": "K", "coeffs": [2.9869977814233555, 0.020949312305084667, -1.2488909357575524e-05, 3.6086756240984913e-09, -4.0428709073473696e-13, -59170668.40878062, 13.109112838271622]}]

>  <H298_value>  (5) 
-117580.92958719996

>  <H298_units>  (5) 
kcal/mol

>  <S298_value>  (5) 
71.21799638955733

>  <S298_units>  (5) 
cal/(mol*K)

>  <Cp_T_value_list>  (5) 
[16.50156041465201, 19.059232907035433, 21.392761081461902, 23.42450687983812, 26.69929489980552, 29.116130872672766, 32.67662417459433, 34.43987147616164, 35.37681819280643]

>  <Cp_T_units>  (5) 
cal/(mol*K)

>  <T_list>  (5) 
[300.0, 400.0, 500.0, 600.0, 800.0, 1000.0, 1500.0, 2000.0, 2400.0]

>  <T_units>  (5) 
K

>  <yaml_path>  (5) 
/home/calvin/Dropbox/PersonalFolders/Calvin/ATLAS_Converged/NonRMG/rxn_3211/output/Species/rxn_3211_r1_sbr-NH-sbrCCtN/rxn_3211_r1_sbr-NH-sbrCCtN.yml

>  <frequencies_cm1>  (5) 
[63.7942936228, 224.96930606852, 349.44028197883995, 587.4774611113199, 879.8668290515999, 884.95526517372, 1044.48906812796, 1212.8469472184, 1240.74064158824, 1356.4012753329998, 1409.47620487128, 2361.53565059204, 2988.3609375869596, 3014.2975411406, 3431.2265548443993]

>  <ZPE_kJmol>  (5) 
125.90626832277542

>  <E_elec_kJmol>  (5) 
-492099.8169749159

>  <E0_minus_Eelec_plus_ZPE_kJmol>  (5) 
0.0

>  <rxn>  (5) 
rxn_3211

>  <species_type>  (5) 
r0

>  <species_folder>  (5) 
rxn_3211_r1_sbr-NH-sbrCCtN

>  <frequencies_cm1_list>  (5) 
[63.7942936228, 224.96930606852, 349.44028197883995, 587.4774611113199, 879.8668290515999, 884.95526517372, 1044.48906812796, 1212.8469472184, 1240.74064158824, 1356.4012753329998, 1409.47620487128, 2361.53565059204, 2988.3609375869596, 3014.2975411406, 3431.2265548443993]

>  <E0_kJmol>  (5) 
-491974

>  <H298_kJmol>  (5) 
-491959

$$$$
