
     RDKit          3D

  9  8  0  0  0  0  0  0  0  0999 V2000
   -0.2969    0.2902   -1.1992 C   0  0  0  0  0  0  0  0  0  1  0  0
   -0.2055   -0.3970   -0.0616 C   0  0  0  0  0  0  0  0  0  2  0  0
    0.4761    0.0630    1.1520 C   0  0  0  0  0  0  0  0  0  3  0  0
   -0.8527   -0.0892   -2.0470 H   0  0  0  0  0  0  0  0  0  4  0  0
    0.1922    1.2511   -1.3184 H   0  0  0  0  0  0  0  0  0  5  0  0
   -0.7149   -1.3550    0.0058 H   0  0  0  0  0  0  0  0  0  6  0  0
   -0.2824    0.4930    1.8043 H   0  0  0  0  0  0  0  0  0  7  0  0
    1.1748    0.8830    0.9908 H   0  0  0  0  0  0  0  0  0  8  0  0
    0.9168   -0.7291    1.7550 H   0  0  0  0  0  0  0  0  0  9  0  0
  1  5  1  0
  1  4  1  0
  1  2  1  0
  2  6  1  0
  2  3  1  0
  3  8  1  0
  3  7  1  0
  3  9  1  0
M  END
>  <rmg_smiles>  (1) 
[CH2][CH]C

>  <rmg_adjacency_list>  (1) 
1 C u0 p0 c0 {2,S} {4,S} {5,S} {6,S}
2 C u0 p0 c0 {1,S} {3,S} {7,S}
3 C u0 p0 c0 {2,S} {8,S} {9,S}
4 H u0 p0 c0 {1,S}
5 H u0 p0 c0 {1,S}
6 H u0 p0 c0 {1,S}
7 H u0 p0 c0 {2,S}
8 H u0 p0 c0 {3,S}
9 H u0 p0 c0 {3,S}


>  <multiplicity>  (1) 
1

>  <reaction>  (1) 
rxn_742

>  <type>  (1) 
r1h

>  <role_mapnums>  (1) 
{"r1h_a": 3, "r1h_h": 7}

>  <role_mapidx>  (1) 
{"r1h_a": 2, "r1h_h": 6}

>  <ordered_mapped_smiles>  (1) 
[CH:1]([CH:2]([C:3]([H:7])([H:8])[H:9])[H:6])([H:4])[H:5]

>  <mol_properties>  (1) 
{"2": {"label": "donator", "atom_type": "Cs"}, "6": {"label": "d_hydrogen", "atom_type": "H0"}}

>  <level_of_theory>  (1) 
wb97xd/def2tzvp

>  <lot_method>  (1) 
wb97xd

>  <lot_basis>  (1) 
def2tzvp

>  <spin_multiplicity>  (1) 
1.0

>  <optical_isomers>  (1) 
1.0

>  <modes>  (1) 
IdealGasTranslation(mass=(42.047, 'amu')),         NonlinearRotor(             inertia = ([10.7194, 53.9495, 61.5633

>  <frequency_value>  (1) 
unknown

>  <frequency_units>  (1) 
unknown

>  <frequency_list>  (1) 
unknown

>  <arkane_path>  (1) 
/home/calvin/Dropbox/PersonalFolders/Calvin/HAb_Converged/rxn_742/output/Species/rxn_742_C=CC/arkane/output.py

>  <path_exists>  (1) 
True

>  <E0_value>  (1) 
-309367.8832800635

>  <E0_units>  (1) 
kJ/mol

>  <thermo_class>  (1) 
NASA

>  <Cp0_value>  (1) 
33.257888

>  <Cp0_units>  (1) 
J/(mol*K)

>  <CpInf_value>  (1) 
207.8618

>  <CpInf_units>  (1) 
J/(mol*K)

>  <Tmin_value>  (1) 
10.0

>  <Tmin_units>  (1) 
K

>  <Tmax_value>  (1) 
3000.0

>  <Tmax_units>  (1) 
K

>  <polynomials>  (1) 
[{"name": "polynomial1", "class": "NASAPolynomial", "Tmin_value": 10.0, "Tmin_units": "K", "Tmax_value": 531.9066404514887, "Tmax_units": "K", "coeffs": [4.0204367106395305, -0.0017312814973888466, 7.469369070858841e-05, -1.103989586823944e-07, 5.357411953540602e-11, -37208361.619619094, 6.984063163619424]}, {"name": "polynomial2", "class": "NASAPolynomial", "Tmin_value": 531.9066404514887, "Tmin_units": "K", "Tmax_value": 3000.0, "Tmax_units": "K", "coeffs": [-0.30746978474152303, 0.03081497539241948, -1.7087881859194207e-05, 4.635359552359225e-09, -4.926745989402899e-13, -37207901.209693715, 25.131571818199003]}]

>  <H298_value>  (1) 
-73937.54315081466

>  <H298_units>  (1) 
kcal/mol

>  <S298_value>  (1) 
63.235428095961645

>  <S298_units>  (1) 
cal/(mol*K)

>  <Cp_T_value_list>  (1) 
[15.255114438428619, 19.0471333221202, 22.6079143488244, 25.768633340780376, 30.96022164704354, 34.89993402421754, 40.97109580318192, 44.05842766532305, 45.61775865339882]

>  <Cp_T_units>  (1) 
cal/(mol*K)

>  <T_list>  (1) 
[300.0, 400.0, 500.0, 600.0, 800.0, 1000.0, 1500.0, 2000.0, 2400.0]

>  <T_units>  (1) 
K

>  <yaml_path>  (1) 
/home/calvin/Dropbox/PersonalFolders/Calvin/HAb_Converged/rxn_742/output/Species/rxn_742_C=CC/rxn_742_C=CC.yml

>  <frequencies_cm1>  (1) 
[200.92112347787997, 429.72220735495995, 590.1693193567598, 925.5460154002399, 944.49202789812, 949.7315376972799, 1024.05291981564, 1068.7501272635197, 1186.76613697304, 1322.2792252779197, 1396.37399688072, 1440.26090006084, 1466.0326959668, 1481.02332492036, 1720.5094379553598, 3007.2932161142003, 3065.80679802592, 3091.5648599612396, 3111.3280437122, 3123.2628641983597, 3201.2855514042]

>  <ZPE_kJmol>  (1) 
207.8343042708976

>  <E_elec_kJmol>  (1) 
-309575.71758433443

>  <E0_minus_Eelec_plus_ZPE_kJmol>  (1) 
0.0

>  <rxn>  (1) 
rxn_742

>  <species_type>  (1) 
r0

>  <species_folder>  (1) 
rxn_742_C=CC

>  <frequencies_cm1_list>  (1) 
[200.92112347787997, 429.72220735495995, 590.1693193567598, 925.5460154002399, 944.49202789812, 949.7315376972799, 1024.05291981564, 1068.7501272635197, 1186.76613697304, 1322.2792252779197, 1396.37399688072, 1440.26090006084, 1466.0326959668, 1481.02332492036, 1720.5094379553598, 3007.2932161142003, 3065.80679802592, 3091.5648599612396, 3111.3280437122, 3123.2628641983597, 3201.2855514042]

>  <E0_kJmol>  (1) 
-309368

>  <H298_kJmol>  (1) 
-309355

$$$$

     RDKit          3D

 19 20  0  0  0  0  0  0  0  0999 V2000
    1.7944   -0.8284   -0.9906 H   0  0  0  0  0  0  0  0  0  1  0  0
    1.1785   -0.1064    1.0193 C   0  0  0  0  0  0  0  0  0  2  0  0
   -0.2948    0.0248    1.5275 C   0  0  0  0  0  0  0  0  0  3  0  0
   -1.1282   -0.2093    0.2525 C   0  0  0  0  0  0  0  0  0  4  0  0
   -0.9723    1.0104   -0.6754 C   0  0  0  0  0  0  0  0  0  5  0  0
    0.5000    0.8807   -1.1823 C   0  0  0  0  0  0  0  0  0  6  0  0
    0.9598   -0.3716   -0.4586 C   0  0  0  0  0  0  0  0  0  7  0  0
   -0.2739   -1.2610   -0.4815 C   0  0  0  0  0  0  0  0  0  8  0  0
    1.6875   -0.9407    1.5052 H   0  0  0  0  0  0  0  0  0  9  0  0
    1.7674    0.7937    1.1972 H   0  0  0  0  0  0  0  0  0 10  0  0
   -0.4965    1.0000    1.9729 H   0  0  0  0  0  0  0  0  0 11  0  0
   -0.5173   -0.7336    2.2799 H   0  0  0  0  0  0  0  0  0 12  0  0
   -2.1646   -0.4813    0.4505 H   0  0  0  0  0  0  0  0  0 13  0  0
   -1.1510    1.9488   -0.1484 H   0  0  0  0  0  0  0  0  0 14  0  0
   -1.6785    0.9584   -1.5055 H   0  0  0  0  0  0  0  0  0 15  0  0
    0.5346    0.7411   -2.2644 H   0  0  0  0  0  0  0  0  0 16  0  0
    1.1100    1.7501   -0.9353 H   0  0  0  0  0  0  0  0  0 17  0  0
   -0.6304   -1.4837   -1.4885 H   0  0  0  0  0  0  0  0  0 18  0  0
   -0.1558   -2.1896    0.0797 H   0  0  0  0  0  0  0  0  0 19  0  0
  1  7  1  0
  2  3  1  0
  2 10  1  0
  2  9  1  0
  2  7  1  0
  3  4  1  0
  3 12  1  0
  3 11  1  0
  4  5  1  0
  4 13  1  0
  4  8  1  0
  5 14  1  0
  5 15  1  0
  5  6  1  0
  6  7  1  0
  6 16  1  0
  6 17  1  0
  7  8  1  0
  8 19  1  0
  8 18  1  0
M  END
>  <rmg_smiles>  (2) 
C1CC2CCC1C2

>  <rmg_adjacency_list>  (2) 
1  C u0 p0 c0 {3,S} {5,S} {6,S} {9,S}
2  C u0 p0 c0 {3,S} {4,S} {7,S} {8,S}
3  C u0 p0 c0 {1,S} {2,S} {18,S} {19,S}
4  C u0 p0 c0 {2,S} {5,S} {10,S} {11,S}
5  C u0 p0 c0 {1,S} {4,S} {12,S} {13,S}
6  C u0 p0 c0 {1,S} {7,S} {14,S} {15,S}
7  C u0 p0 c0 {2,S} {6,S} {16,S} {17,S}
8  H u0 p0 c0 {2,S}
9  H u0 p0 c0 {1,S}
10 H u0 p0 c0 {4,S}
11 H u0 p0 c0 {4,S}
12 H u0 p0 c0 {5,S}
13 H u0 p0 c0 {5,S}
14 H u0 p0 c0 {6,S}
15 H u0 p0 c0 {6,S}
16 H u0 p0 c0 {7,S}
17 H u0 p0 c0 {7,S}
18 H u0 p0 c0 {3,S}
19 H u0 p0 c0 {3,S}


>  <multiplicity>  (2) 
1

>  <reaction>  (2) 
rxn_742

>  <type>  (2) 
r2h

>  <role_mapnums>  (2) 
{"r2h_a": 7, "r2h_h": 1}

>  <role_mapidx>  (2) 
{"r2h_a": 6, "r2h_h": 0}

>  <ordered_mapped_smiles>  (2) 
[H:1][C:7]12[C:2]([H:9])([H:10])[C:3]([H:11])([H:12])[C:4]([H:13])([C:5]([H:14])([H:15])[C:6]1([H:16])[H:17])[C:8]2([H:18])[H:19]

>  <mol_properties>  (2) 
{"0": {"label": "a_hydrogen", "atom_type": "H0"}, "6": {"label": "acceptor", "atom_type": "Cs"}}

>  <level_of_theory>  (2) 
wb97xd/def2tzvp

>  <lot_method>  (2) 
wb97xd

>  <lot_basis>  (2) 
def2tzvp

>  <spin_multiplicity>  (2) 
1.0

>  <optical_isomers>  (2) 
1.0

>  <modes>  (2) 
IdealGasTranslation(mass=(96.0939, 'amu')),         NonlinearRotor(             inertia = ([135.336, 156.085, 180.607

>  <frequency_value>  (2) 
unknown

>  <frequency_units>  (2) 
unknown

>  <frequency_list>  (2) 
unknown

>  <arkane_path>  (2) 
/home/calvin/Dropbox/PersonalFolders/Calvin/HAb_Converged/rxn_742/output/Species/rxn_742_C1CC2CCC1C2/arkane/output.py

>  <path_exists>  (2) 
True

>  <E0_value>  (2) 
-718893.5806331062

>  <E0_units>  (2) 
kJ/mol

>  <thermo_class>  (2) 
NASA

>  <Cp0_value>  (2) 
33.257888

>  <Cp0_units>  (2) 
J/(mol*K)

>  <CpInf_value>  (2) 
457.29596

>  <CpInf_units>  (2) 
J/(mol*K)

>  <Tmin_value>  (2) 
10.0

>  <Tmin_units>  (2) 
K

>  <Tmax_value>  (2) 
3000.0

>  <Tmax_units>  (2) 
K

>  <polynomials>  (2) 
[{"name": "polynomial1", "class": "NASAPolynomial", "Tmin_value": 10.0, "Tmin_units": "K", "Tmax_value": 662.4178125457627, "Tmax_units": "K", "coeffs": [4.239403585768697, -0.01836828814634063, 0.0002578950712714286, -3.7381328534857083e-07, 1.74409927807895e-10, -86462928.5201383, 9.87949578073462]}, {"name": "polynomial2", "class": "NASAPolynomial", "Tmin_value": 662.4178125457627, "Tmin_units": "K", "Tmax_value": 3000.0, "Tmax_units": "K", "coeffs": [-6.999983226389214, 0.08370637401899614, -5.070273549604008e-05, 1.4717426455763106e-08, -1.6436943039919863e-12, -86462189.9567335, 53.80936817756756]}]

>  <H298_value>  (2) 
-171815.58472962098

>  <H298_units>  (2) 
kcal/mol

>  <S298_value>  (2) 
73.63684385034063

>  <S298_units>  (2) 
cal/(mol*K)

>  <Cp_T_value_list>  (2) 
[26.348838520541374, 37.15309814493767, 47.10273015631388, 55.48382566754763, 68.31505323621754, 77.6548383777145, 91.07076230422987, 97.45683083224962, 100.88536523646154]

>  <Cp_T_units>  (2) 
cal/(mol*K)

>  <T_list>  (2) 
[300.0, 400.0, 500.0, 600.0, 800.0, 1000.0, 1500.0, 2000.0, 2400.0]

>  <T_units>  (2) 
K

>  <yaml_path>  (2) 
/home/calvin/Dropbox/PersonalFolders/Calvin/HAb_Converged/rxn_742/output/Species/rxn_742_C1CC2CCC1C2/rxn_742_C1CC2CCC1C2.yml

>  <frequencies_cm1>  (2) 
[154.85738595131997, 340.37586135643994, 406.75900844488, 450.69398052224, 546.52276066284, 762.7915963309199, 767.83883054112, 803.5128192785198, 822.9257867781599, 828.1927645185999, 886.4866029000799, 904.4231685559199, 936.7804033837599, 957.0723450043599, 964.2964135609999, 966.8990009972799, 969.81060277296, 1009.5017779225599, 1041.98261848616, 1088.6987196181199, 1128.4585646209198, 1135.50409155924, 1162.87589504476, 1186.2717140299999, 1234.53288685896, 1241.50287695876, 1269.37597037264, 1285.33484425632, 1285.7125284489198, 1300.5726846814, 1328.01315802012, 1340.8956224804401, 1342.91451616452, 1343.99949984508, 1472.87221334552, 1484.7314969931601, 1486.79845957448, 1493.51437121744, 1517.5419528521197, 3027.37228118988, 3027.8598371476, 3028.0795806778397, 3039.1354270430397, 3039.76032270716, 3064.0831847106, 3066.3286889102396, 3077.8514902772, 3080.41974278688, 3084.8970172155196, 3085.2334994962002, 3090.71335378156]

>  <ZPE_kJmol>  (2) 
462.7371032824111

>  <E_elec_kJmol>  (2) 
-719356.3177363885

>  <E0_minus_Eelec_plus_ZPE_kJmol>  (2) 
0.0

>  <rxn>  (2) 
rxn_742

>  <species_type>  (2) 
p0

>  <species_folder>  (2) 
rxn_742_C1CC2CCC1C2

>  <frequencies_cm1_list>  (2) 
[154.85738595131997, 340.37586135643994, 406.75900844488, 450.69398052224, 546.52276066284, 762.7915963309199, 767.83883054112, 803.5128192785198, 822.9257867781599, 828.1927645185999, 886.4866029000799, 904.4231685559199, 936.7804033837599, 957.0723450043599, 964.2964135609999, 966.8990009972799, 969.81060277296, 1009.5017779225599, 1041.98261848616, 1088.6987196181199, 1128.4585646209198, 1135.50409155924, 1162.87589504476, 1186.2717140299999, 1234.53288685896, 1241.50287695876, 1269.37597037264, 1285.33484425632, 1285.7125284489198, 1300.5726846814, 1328.01315802012, 1340.8956224804401, 1342.91451616452, 1343.99949984508, 1472.87221334552, 1484.7314969931601, 1486.79845957448, 1493.51437121744, 1517.5419528521197, 3027.37228118988, 3027.8598371476, 3028.0795806778397, 3039.1354270430397, 3039.76032270716, 3064.0831847106, 3066.3286889102396, 3077.8514902772, 3080.41974278688, 3084.8970172155196, 3085.2334994962002, 3090.71335378156]

>  <E0_kJmol>  (2) 
-718894

>  <H298_kJmol>  (2) 
-718876

$$$$

     RDKit          3D

 27 27  0  0  0  0  0  0  0  0999 V2000
    1.4425   -0.7509   -3.3409 C   0  0  0  0  0  0  0  0  0  1  0  0
    1.5340   -1.4381   -2.2033 C   0  0  0  0  0  0  0  0  0  2  0  0
    2.2156   -0.9781   -0.9897 C   0  0  0  0  0  0  0  0  0  3  0  0
    0.8868   -1.1303   -4.1887 H   0  0  0  0  0  0  0  0  0  4  0  0
    1.9317    0.2101   -3.4602 H   0  0  0  0  0  0  0  0  0  5  0  0
    1.0246   -2.3960   -2.1359 H   0  0  0  0  0  0  0  0  0  6  0  0
    1.3360   -0.4793   -0.2332 H   0  0  0  0  0  0  0  0  0  7  0  0
    2.9142   -0.1581   -1.1509 H   0  0  0  0  0  0  0  0  0  8  0  0
    2.6562   -1.7701   -0.3868 H   0  0  0  0  0  0  0  0  0  9  0  0
    0.4513    0.3898    1.9480 C   0  0  0  0  0  0  0  0  0 10  0  0
   -1.0220    0.5210    2.4562 C   0  0  0  0  0  0  0  0  0 11  0  0
   -1.8554    0.2869    1.1812 C   0  0  0  0  0  0  0  0  0 12  0  0
   -1.6995    1.5066    0.2534 C   0  0  0  0  0  0  0  0  0 13  0  0
   -0.2272    1.3770   -0.2535 C   0  0  0  0  0  0  0  0  0 14  0  0
    0.2327    0.1246    0.4701 C   0  0  0  0  0  3  0  0  0 15  0  0
   -1.0011   -0.7648    0.4472 C   0  0  0  0  0  0  0  0  0 16  0  0
    0.9603   -0.4445    2.4340 H   0  0  0  0  0  0  0  0  0 17  0  0
    1.0402    1.2899    2.1259 H   0  0  0  0  0  0  0  0  0 18  0  0
   -1.2236    1.4962    2.9017 H   0  0  0  0  0  0  0  0  0 19  0  0
   -1.2445   -0.2374    3.2086 H   0  0  0  0  0  0  0  0  0 20  0  0
   -2.8917    0.0149    1.3792 H   0  0  0  0  0  0  0  0  0 21  0  0
   -1.8782    2.4450    0.7803 H   0  0  0  0  0  0  0  0  0 22  0  0
   -2.4056    1.4546   -0.5768 H   0  0  0  0  0  0  0  0  0 23  0  0
   -0.1926    1.2373   -1.3356 H   0  0  0  0  0  0  0  0  0 24  0  0
    0.3828    2.2463   -0.0065 H   0  0  0  0  0  0  0  0  0 25  0  0
   -1.3576   -0.9874   -0.5597 H   0  0  0  0  0  0  0  0  0 26  0  0
   -0.8830   -1.6933    1.0084 H   0  0  0  0  0  0  0  0  0 27  0  0
  1  4  1  0
  1  5  1  0
  1  2  1  0
  2  6  1  0
  2  3  1  0
  3  8  1  0
  3  7  1  0
  3  9  1  0
 10 18  1  0
 10 11  1  0
 10 15  1  0
 10 17  1  0
 11 19  1  0
 11 12  1  0
 11 20  1  0
 12 16  1  0
 12 21  1  0
 12 13  1  0
 13 23  1  0
 13 14  1  0
 13 22  1  0
 14 15  1  0
 14 24  1  0
 14 25  1  0
 15 16  1  0
 16 26  1  0
 16 27  1  0
M  RAD  1  15   2
M  END
>  <rmg_smiles>  (3) 
C1CC2CC[C]1C2.[CH2][CH]C

>  <rmg_adjacency_list>  (3) 
multiplicity 2
1  C u0 p0 c0 {2,S} {3,S} {4,S} {11,S}
2  C u0 p0 c0 {1,S} {5,S} {12,S} {13,S}
3  C u0 p0 c0 {1,S} {6,S} {14,S} {15,S}
4  C u0 p0 c0 {1,S} {8,S} {20,S} {21,S}
5  C u0 p0 c0 {2,S} {8,S} {16,S} {17,S}
6  C u0 p0 c0 {3,S} {8,S} {18,S} {19,S}
7  C u0 p0 c0 {9,S} {22,S} {23,S} {24,S}
8  C u1 p0 c0 {4,S} {5,S} {6,S}
9  C u0 p0 c0 {7,S} {10,S} {25,S}
10 C u0 p0 c0 {9,S} {26,S} {27,S}
11 H u0 p0 c0 {1,S}
12 H u0 p0 c0 {2,S}
13 H u0 p0 c0 {2,S}
14 H u0 p0 c0 {3,S}
15 H u0 p0 c0 {3,S}
16 H u0 p0 c0 {5,S}
17 H u0 p0 c0 {5,S}
18 H u0 p0 c0 {6,S}
19 H u0 p0 c0 {6,S}
20 H u0 p0 c0 {4,S}
21 H u0 p0 c0 {4,S}
22 H u0 p0 c0 {7,S}
23 H u0 p0 c0 {7,S}
24 H u0 p0 c0 {7,S}
25 H u0 p0 c0 {9,S}
26 H u0 p0 c0 {10,S}
27 H u0 p0 c0 {10,S}


>  <multiplicity>  (3) 
2

>  <reaction>  (3) 
rxn_742

>  <type>  (3) 
ts

>  <role_mapnums>  (3) 
{"*2": 7, "*1": 3, "*3": 15, "*0": 2, "*4": 16}

>  <role_mapidx>  (3) 
{"*2": 6, "*1": 2, "*3": 14, "*0": 1, "*4": 15}

>  <ordered_mapped_smiles>  (3) 
[CH:1]([CH:2]([C:3]([H:7])([H:8])[H:9])[H:6])([H:4])[H:5].[C:10]1([H:17])([H:18])[C:11]([H:19])([H:20])[C:12]2([H:21])[C:13]([H:22])([H:23])[C:14]([H:24])([H:25])[C:15]1[C:16]2([H:26])[H:27]

>  <mol_properties>  (3) 
{"1": {"label": "*0", "atom_type": "Cs"}, "2": {"label": "*1", "atom_type": "Cs"}, "6": {"label": "*2", "atom_type": "H0"}, "14": {"label": "*3", "atom_type": "Cs"}, "15": {"label": "*4", "atom_type": "Cs"}}

>  <level_of_theory>  (3) 
wb97xd/def2tzvp

>  <lot_method>  (3) 
wb97xd

>  <lot_basis>  (3) 
def2tzvp

>  <spin_multiplicity>  (3) 
2.0

>  <optical_isomers>  (3) 
2.0

>  <modes>  (3) 
IdealGasTranslation(mass=(137.133, 'amu')),         NonlinearRotor(             inertia = ([206.737, 685.418, 750.255

>  <frequency_value>  (3) 
-1520.81

>  <frequency_units>  (3) 
cm^-1

>  <frequency_list>  (3) 
unknown

>  <arkane_path>  (3) 
/home/calvin/Dropbox/PersonalFolders/Calvin/HAb_Converged/rxn_742/output/rxns/TS0/arkane/output.py

>  <path_exists>  (3) 
True

>  <E0_value>  (3) 
-1026480.0

>  <E0_units>  (3) 
kJ/mol

>  <thermo_class>  (3) 
unknown

>  <Cp0_value>  (3) 
unknown

>  <Cp0_units>  (3) 
unknown

>  <CpInf_value>  (3) 
unknown

>  <CpInf_units>  (3) 
unknown

>  <Tmin_value>  (3) 
unknown

>  <Tmin_units>  (3) 
unknown

>  <Tmax_value>  (3) 
unknown

>  <Tmax_units>  (3) 
unknown

>  <polynomials>  (3) 
unknown

>  <H298_value>  (3) 
unknown

>  <H298_units>  (3) 
unknown

>  <S298_value>  (3) 
unknown

>  <S298_units>  (3) 
unknown

>  <Cp_T_value_list>  (3) 
unknown

>  <Cp_T_units>  (3) 
unknown

>  <T_list>  (3) 
unknown

>  <T_units>  (3) 
unknown

>  <yaml_path>  (3) 
unknown

>  <frequencies_cm1>  (3) 
unknown

>  <ZPE_kJmol>  (3) 
unknown

>  <E_elec_kJmol>  (3) 
unknown

>  <E0_minus_Eelec_plus_ZPE_kJmol>  (3) 
unknown

>  <rxn>  (3) 
unknown

>  <species_type>  (3) 
unknown

>  <species_folder>  (3) 
unknown

>  <frequencies_cm1_list>  (3) 
[]

>  <ts_imag_freq_cm1>  (3) 
-1539.2764

>  <ts_freq_out_path>  (3) 
/home/calvin/Dropbox/PersonalFolders/Calvin/HAb_Converged/rxn_742/output/rxns/TS0/geometry/freq.out

>  <E0_kJmol>  (3) 
-1.02648e+06

>  <H298_kJmol>  (3) 
unknown

$$$$

     RDKit          3D

  8  7  0  0  0  0  0  0  0  0999 V2000
   -1.2262   -0.1032    0.0429 C   0  0  0  0  0  0  0  0  0  1  0  0
    0.0344    0.4295    0.2005 C   0  0  0  0  0  0  0  0  0  2  0  0
    1.2024   -0.1933   -0.1813 C   0  0  0  0  0  3  0  0  0  3  0  0
   -2.1090    0.4329    0.3624 H   0  0  0  0  0  0  0  0  0  4  0  0
   -1.3659   -1.0784   -0.4078 H   0  0  0  0  0  0  0  0  0  5  0  0
    0.1132    1.4113    0.6589 H   0  0  0  0  0  0  0  0  0  6  0  0
    2.1658    0.2743   -0.0323 H   0  0  0  0  0  0  0  0  0  7  0  0
    1.1853   -1.1731   -0.6434 H   0  0  0  0  0  0  0  0  0  8  0  0
  1  5  1  0
  1  4  1  0
  1  2  1  0
  2  6  1  0
  2  3  1  0
  3  8  1  0
  3  7  1  0
M  RAD  1   3   2
M  END
>  <rmg_smiles>  (4) 
[CH2][CH][CH2]

>  <rmg_adjacency_list>  (4) 
multiplicity 2
1 C u0 p0 c0 {2,S} {3,S} {4,S}
2 C u1 p0 c0 {1,S} {7,S} {8,S}
3 C u0 p0 c0 {1,S} {5,S} {6,S}
4 H u0 p0 c0 {1,S}
5 H u0 p0 c0 {3,S}
6 H u0 p0 c0 {3,S}
7 H u0 p0 c0 {2,S}
8 H u0 p0 c0 {2,S}


>  <multiplicity>  (4) 
2

>  <reaction>  (4) 
rxn_742

>  <type>  (4) 
r1

>  <role_mapnums>  (4) 
{}

>  <role_mapidx>  (4) 
{}

>  <ordered_mapped_smiles>  (4) 
[CH:1]([CH:2]([C:3]([H:7])[H:8])[H:6])([H:4])[H:5]

>  <level_of_theory>  (4) 
wb97xd/def2tzvp

>  <lot_method>  (4) 
wb97xd

>  <lot_basis>  (4) 
def2tzvp

>  <spin_multiplicity>  (4) 
2.0

>  <optical_isomers>  (4) 
1.0

>  <modes>  (4) 
IdealGasTranslation(mass=(41.0391, 'amu')),         NonlinearRotor(             inertia = ([9.18678, 48.3525, 57.5393

>  <frequency_value>  (4) 
unknown

>  <frequency_units>  (4) 
unknown

>  <frequency_list>  (4) 
unknown

>  <arkane_path>  (4) 
/home/calvin/Dropbox/PersonalFolders/Calvin/HAb_Converged/rxn_742/output/Species/rxn_742_[CH2]C=C/arkane/output.py

>  <path_exists>  (4) 
True

>  <E0_value>  (4) 
-307695.8239419476

>  <E0_units>  (4) 
kJ/mol

>  <thermo_class>  (4) 
NASA

>  <Cp0_value>  (4) 
33.257888

>  <Cp0_units>  (4) 
J/(mol*K)

>  <CpInf_value>  (4) 
182.918384

>  <CpInf_units>  (4) 
J/(mol*K)

>  <Tmin_value>  (4) 
10.0

>  <Tmin_units>  (4) 
K

>  <Tmax_value>  (4) 
3000.0

>  <Tmax_units>  (4) 
K

>  <polynomials>  (4) 
[{"name": "polynomial1", "class": "NASAPolynomial", "Tmin_value": 10.0, "Tmin_units": "K", "Tmax_value": 532.7267436952769, "Tmax_units": "K", "coeffs": [4.120476242700736, -0.01110500746607337, 0.00013118962632593044, -2.295122998736072e-07, 1.327617546042694e-10, -37007258.9235638, 6.732627685136077]}, {"name": "polynomial2", "class": "NASAPolynomial", "Tmin_value": 532.7267436952769, "Tmin_units": "K", "Tmax_value": 3000.0, "Tmax_units": "K", "coeffs": [0.911699466954835, 0.027118425571894478, -1.6222639840263127e-05, 4.752540164453407e-09, -5.404199600895895e-13, -37007117.54936121, 18.310519838179516]}]

>  <H298_value>  (4) 
-73538.08078140329

>  <H298_units>  (4) 
kcal/mol

>  <S298_value>  (4) 
61.52456331648896

>  <S298_units>  (4) 
cal/(mol*K)

>  <Cp_T_value_list>  (4) 
[14.853530963099974, 18.637467651362382, 21.80750730434748, 24.44088072021761, 28.68710434193412, 31.834263999492475, 36.54938793194129, 39.012029638884556, 40.38558701326713]

>  <Cp_T_units>  (4) 
cal/(mol*K)

>  <T_list>  (4) 
[300.0, 400.0, 500.0, 600.0, 800.0, 1000.0, 1500.0, 2000.0, 2400.0]

>  <T_units>  (4) 
K

>  <yaml_path>  (4) 
/home/calvin/Dropbox/PersonalFolders/Calvin/HAb_Converged/rxn_742/output/Species/rxn_742_[CH2]C=C/rxn_742_CH2C=C.yml

>  <frequencies_cm1>  (4) 
[432.19432207015996, 530.70122648556, 552.78545127468, 794.8604177753199, 818.87426543936, 934.1091460942799, 1008.91808417036, 1035.1568350780801, 1186.33351689788, 1269.2386306662397, 1410.5886564931197, 1500.8483115392, 1510.5101598844399, 3121.9787379435197, 3123.6542823616, 3129.68349547256, 3223.1843675896794, 3225.69081723148]

>  <ZPE_kJmol>  (4) 
172.31799451557927

>  <E_elec_kJmol>  (4) 
-307868.1419364632

>  <E0_minus_Eelec_plus_ZPE_kJmol>  (4) 
0.0

>  <rxn>  (4) 
rxn_742

>  <species_type>  (4) 
p1

>  <species_folder>  (4) 
rxn_742_[CH2]C=C

>  <frequencies_cm1_list>  (4) 
[432.19432207015996, 530.70122648556, 552.78545127468, 794.8604177753199, 818.87426543936, 934.1091460942799, 1008.91808417036, 1035.1568350780801, 1186.33351689788, 1269.2386306662397, 1410.5886564931197, 1500.8483115392, 1510.5101598844399, 3121.9787379435197, 3123.6542823616, 3129.68349547256, 3223.1843675896794, 3225.69081723148]

>  <E0_kJmol>  (4) 
-307696

>  <H298_kJmol>  (4) 
-307683

$$$$

     RDKit          3D

 18 19  0  0  0  0  0  0  0  0999 V2000
    1.4897    0.5883    0.1105 C   0  0  0  0  0  0  0  0  0  1  0  0
    1.1311   -0.8051   -0.5162 C   0  0  0  0  0  0  0  0  0  2  0  0
   -0.3169   -1.0404   -0.0394 C   0  0  0  0  0  0  0  0  0  3  0  0
   -1.2543   -0.0684   -0.7849 C   0  0  0  0  0  0  0  0  0  4  0  0
   -0.8937    1.3243   -0.1581 C   0  0  0  0  0  0  0  0  0  5  0  0
    0.1924    0.9172    0.8069 C   0  0  0  0  0  3  0  0  0  6  0  0
   -0.2799   -0.4064    1.3705 C   0  0  0  0  0  0  0  0  0  7  0  0
    1.7637    1.3287   -0.6409 H   0  0  0  0  0  0  0  0  0  8  0  0
    2.3187    0.4966    0.8138 H   0  0  0  0  0  0  0  0  0  9  0  0
    1.7945   -1.5849   -0.1392 H   0  0  0  0  0  0  0  0  0 10  0  0
    1.2076   -0.8023   -1.6044 H   0  0  0  0  0  0  0  0  0 11  0  0
   -0.6324   -2.0820   -0.0940 H   0  0  0  0  0  0  0  0  0 12  0  0
   -1.0930   -0.0918   -1.8636 H   0  0  0  0  0  0  0  0  0 13  0  0
   -2.2997   -0.3205   -0.6004 H   0  0  0  0  0  0  0  0  0 14  0  0
   -0.5487    2.0429   -0.9014 H   0  0  0  0  0  0  0  0  0 15  0  0
   -1.7551    1.7547    0.3548 H   0  0  0  0  0  0  0  0  0 16  0  0
    0.4357   -0.8873    2.0385 H   0  0  0  0  0  0  0  0  0 17  0  0
   -1.2599   -0.3636    1.8475 H   0  0  0  0  0  0  0  0  0 18  0  0
  1  8  1  0
  1  6  1  0
  1  9  1  0
  1  2  1  0
  2 11  1  0
  2  3  1  0
  2 10  1  0
  3  4  1  0
  3 12  1  0
  3  7  1  0
  4 14  1  0
  4  5  1  0
  4 13  1  0
  5 16  1  0
  5 15  1  0
  5  6  1  0
  6  7  1  0
  7 17  1  0
  7 18  1  0
M  RAD  1   6   2
M  END
>  <rmg_smiles>  (5) 
C1CC2CC[C]1C2

>  <rmg_adjacency_list>  (5) 
multiplicity 2
1  C u0 p0 c0 {2,S} {3,S} {4,S} {8,S}
2  C u0 p0 c0 {1,S} {5,S} {9,S} {10,S}
3  C u0 p0 c0 {1,S} {6,S} {11,S} {12,S}
4  C u0 p0 c0 {1,S} {7,S} {17,S} {18,S}
5  C u0 p0 c0 {2,S} {7,S} {13,S} {14,S}
6  C u0 p0 c0 {3,S} {7,S} {15,S} {16,S}
7  C u1 p0 c0 {4,S} {5,S} {6,S}
8  H u0 p0 c0 {1,S}
9  H u0 p0 c0 {2,S}
10 H u0 p0 c0 {2,S}
11 H u0 p0 c0 {3,S}
12 H u0 p0 c0 {3,S}
13 H u0 p0 c0 {5,S}
14 H u0 p0 c0 {5,S}
15 H u0 p0 c0 {6,S}
16 H u0 p0 c0 {6,S}
17 H u0 p0 c0 {4,S}
18 H u0 p0 c0 {4,S}


>  <multiplicity>  (5) 
2

>  <reaction>  (5) 
rxn_742

>  <type>  (5) 
r2

>  <role_mapnums>  (5) 
{}

>  <role_mapidx>  (5) 
{}

>  <ordered_mapped_smiles>  (5) 
[C:1]1([H:8])([H:9])[C:2]([H:10])([H:11])[C:3]2([H:12])[C:4]([H:13])([H:14])[C:5]([H:15])([H:16])[C:6]1[C:7]2([H:17])[H:18]

>  <level_of_theory>  (5) 
wb97xd/def2tzvp

>  <lot_method>  (5) 
wb97xd

>  <lot_basis>  (5) 
def2tzvp

>  <spin_multiplicity>  (5) 
2.0

>  <optical_isomers>  (5) 
1.0

>  <modes>  (5) 
IdealGasTranslation(mass=(95.0861, 'amu')),         NonlinearRotor(             inertia = ([129.118, 156.244, 176.414

>  <frequency_value>  (5) 
unknown

>  <frequency_units>  (5) 
unknown

>  <frequency_list>  (5) 
unknown

>  <arkane_path>  (5) 
/home/calvin/Dropbox/PersonalFolders/Calvin/HAb_Converged/rxn_742/output/Species/rxn_742_C1CC2CC[C]1C2/arkane/output.py

>  <path_exists>  (5) 
True

>  <E0_value>  (5) 
-717136.8259170701

>  <E0_units>  (5) 
kJ/mol

>  <thermo_class>  (5) 
NASA

>  <Cp0_value>  (5) 
33.257888

>  <Cp0_units>  (5) 
J/(mol*K)

>  <CpInf_value>  (5) 
432.352544

>  <CpInf_units>  (5) 
J/(mol*K)

>  <Tmin_value>  (5) 
10.0

>  <Tmin_units>  (5) 
K

>  <Tmax_value>  (5) 
3000.0

>  <Tmax_units>  (5) 
K

>  <polynomials>  (5) 
[{"name": "polynomial1", "class": "NASAPolynomial", "Tmin_value": 10.0, "Tmin_units": "K", "Tmax_value": 646.1324590440888, "Tmax_units": "K", "coeffs": [4.218750710959558, -0.017316782700385905, 0.00025469000210756246, -3.807497037843714e-07, 1.830514991759779e-10, -86251638.55406377, 11.187111910979148]}, {"name": "polynomial2", "class": "NASAPolynomial", "Tmin_value": 646.1324590440888, "Tmin_units": "K", "Tmax_value": 3000.0, "Tmax_units": "K", "coeffs": [-5.753666896541013, 0.07879270357687056, -4.822679202549291e-05, 1.4127941350913933e-08, -1.5901088973099827e-12, -86251067.37677719, 49.3903543168938]}]

>  <H298_value>  (5) 
-171395.70267313893

>  <H298_units>  (5) 
kcal/mol

>  <S298_value>  (5) 
76.2536800001839

>  <S298_units>  (5) 
cal/(mol*K)

>  <Cp_T_value_list>  (5) 
[26.128369812041274, 36.486254606833086, 45.864458987562394, 53.65183342970516, 65.57293879315729, 74.22231604110186, 86.55671814636287, 92.41774213121404, 95.60681768008335]

>  <Cp_T_units>  (5) 
cal/(mol*K)

>  <T_list>  (5) 
[300.0, 400.0, 500.0, 600.0, 800.0, 1000.0, 1500.0, 2000.0, 2400.0]

>  <T_units>  (5) 
K

>  <yaml_path>  (5) 
/home/calvin/Dropbox/PersonalFolders/Calvin/HAb_Converged/rxn_742/output/Species/rxn_742_C1CC2CC[C]1C2/rxn_742_C1CC2CCC1C2.yml

>  <frequencies_cm1>  (5) 
[163.06343340872002, 342.08574070111996, 400.67485945136, 454.12747318223995, 525.9904745560399, 735.22065027112, 750.74003709432, 799.5368347782398, 800.0312577212799, 824.37472068068, 884.11749296468, 884.7698565700799, 929.1168477666399, 953.12382844536, 955.69894794036, 962.6620710548399, 993.11715094904, 1017.4812148643999, 1050.52514822424, 1110.8104123485198, 1121.6877170954, 1173.14890508348, 1197.9593230446399, 1219.0890368742798, 1226.62898675564, 1247.5252230844, 1255.1819117162, 1258.01797665336, 1307.2336604418, 1312.8920563454801, 1322.5745056466799, 1327.2577896349198, 1467.6258365610397, 1481.6962894817198, 1483.00101669252, 1487.2585475909198, 1512.7625310693998, 3031.40320157272, 3031.430669514, 3039.33456961732, 3041.40839918396, 3044.3612028715597, 3073.30554599536, 3073.84803783564, 3079.3965619742, 3091.6266628291196, 3097.66960991072, 3097.8550185143595]

>  <ZPE_kJmol>  (5) 
428.5051682919513

>  <E_elec_kJmol>  (5) 
-717565.3310853621

>  <E0_minus_Eelec_plus_ZPE_kJmol>  (5) 
0.0

>  <rxn>  (5) 
rxn_742

>  <species_type>  (5) 
r1

>  <species_folder>  (5) 
rxn_742_C1CC2CC[C]1C2

>  <frequencies_cm1_list>  (5) 
[163.06343340872002, 342.08574070111996, 400.67485945136, 454.12747318223995, 525.9904745560399, 735.22065027112, 750.74003709432, 799.5368347782398, 800.0312577212799, 824.37472068068, 884.11749296468, 884.7698565700799, 929.1168477666399, 953.12382844536, 955.69894794036, 962.6620710548399, 993.11715094904, 1017.4812148643999, 1050.52514822424, 1110.8104123485198, 1121.6877170954, 1173.14890508348, 1197.9593230446399, 1219.0890368742798, 1226.62898675564, 1247.5252230844, 1255.1819117162, 1258.01797665336, 1307.2336604418, 1312.8920563454801, 1322.5745056466799, 1327.2577896349198, 1467.6258365610397, 1481.6962894817198, 1483.00101669252, 1487.2585475909198, 1512.7625310693998, 3031.40320157272, 3031.430669514, 3039.33456961732, 3041.40839918396, 3044.3612028715597, 3073.30554599536, 3073.84803783564, 3079.3965619742, 3091.6266628291196, 3097.66960991072, 3097.8550185143595]

>  <E0_kJmol>  (5) 
-717137

>  <H298_kJmol>  (5) 
-717120

$$$$
