
     RDKit          3D

 14 13  0  0  0  0  0  0  0  0999 V2000
    0.4813   -0.1352   -1.3828 C   0  0  0  0  0  0  0  0  0  1  0  0
    0.1738   -0.0687    0.0819 C   0  0  0  0  0  0  0  0  0  2  0  0
    0.1255    1.2982    0.6933 C   0  0  0  0  0  0  0  0  0  3  0  0
   -0.7997   -1.0831    0.6016 C   0  0  0  0  0  0  0  0  0  4  0  0
    1.3353    0.4945   -1.6370 H   0  0  0  0  0  0  0  0  0  5  0  0
   -0.3784    0.2158   -1.9689 H   0  0  0  0  0  0  0  0  0  6  0  0
    0.6989   -1.1573   -1.6986 H   0  0  0  0  0  0  0  0  0  7  0  0
    1.1004   -0.4726    0.4897 H   0  0  0  0  0  0  0  0  0  8  0  0
   -0.7547    1.8479    0.3352 H   0  0  0  0  0  0  0  0  0  9  0  0
    0.0583    1.2506    1.7820 H   0  0  0  0  0  0  0  0  0 10  0  0
    1.0075    1.8818    0.4224 H   0  0  0  0  0  0  0  0  0 11  0  0
   -0.5326   -2.0913    0.2756 H   0  0  0  0  0  0  0  0  0 12  0  0
   -1.8087   -0.8781    0.2224 H   0  0  0  0  0  0  0  0  0 13  0  0
   -0.8524   -1.0705    1.6922 H   0  0  0  0  0  0  0  0  0 14  0  0
  1  5  1  0
  1  7  1  0
  1  6  1  0
  1  2  1  0
  2  8  1  0
  2  3  1  0
  2  4  1  0
  3 11  1  0
  3  9  1  0
  3 10  1  0
  4 14  1  0
  4 13  1  0
  4 12  1  0
M  END
>  <rmg_smiles>  (1) 
CC(C)C

>  <rmg_adjacency_list>  (1) 
1  C u0 p0 c0 {2,S} {3,S} {4,S} {5,S}
2  C u0 p0 c0 {1,S} {6,S} {7,S} {8,S}
3  C u0 p0 c0 {1,S} {9,S} {10,S} {11,S}
4  C u0 p0 c0 {1,S} {12,S} {13,S} {14,S}
5  H u0 p0 c0 {1,S}
6  H u0 p0 c0 {2,S}
7  H u0 p0 c0 {2,S}
8  H u0 p0 c0 {2,S}
9  H u0 p0 c0 {3,S}
10 H u0 p0 c0 {3,S}
11 H u0 p0 c0 {3,S}
12 H u0 p0 c0 {4,S}
13 H u0 p0 c0 {4,S}
14 H u0 p0 c0 {4,S}


>  <multiplicity>  (1) 
1

>  <reaction>  (1) 
rxn_984

>  <type>  (1) 
r1h

>  <role_mapnums>  (1) 
{"r1h_a": 2, "r1h_h": 8}

>  <role_mapidx>  (1) 
{"r1h_a": 1, "r1h_h": 7}

>  <ordered_mapped_smiles>  (1) 
[C:1]([C:2]([C:3]([H:9])([H:10])[H:11])([C:4]([H:12])([H:13])[H:14])[H:8])([H:5])([H:6])[H:7]

>  <mol_properties>  (1) 
{"1": {"label": "donator", "atom_type": "Cs"}, "7": {"label": "d_hydrogen", "atom_type": "H0"}}

>  <level_of_theory>  (1) 
wb97xd/def2tzvp

>  <lot_method>  (1) 
wb97xd

>  <lot_basis>  (1) 
def2tzvp

>  <spin_multiplicity>  (1) 
1.0

>  <optical_isomers>  (1) 
1.0

>  <modes>  (1) 
IdealGasTranslation(mass=(58.0782, 'amu')),         NonlinearRotor(             inertia = ([64.4721, 64.4727, 111.216

>  <frequency_value>  (1) 
unknown

>  <frequency_units>  (1) 
unknown

>  <frequency_list>  (1) 
unknown

>  <arkane_path>  (1) 
/home/calvin/Dropbox/PersonalFolders/Calvin/HAb_Converged/rxn_984/output/Species/rxn_984_CC[C]C/arkane/output.py

>  <path_exists>  (1) 
True

>  <E0_value>  (1) 
-415716.847504669

>  <E0_units>  (1) 
kJ/mol

>  <thermo_class>  (1) 
NASA

>  <Cp0_value>  (1) 
33.257888

>  <Cp0_units>  (1) 
J/(mol*K)

>  <CpInf_value>  (1) 
332.57888

>  <CpInf_units>  (1) 
J/(mol*K)

>  <Tmin_value>  (1) 
10.0

>  <Tmin_units>  (1) 
K

>  <Tmax_value>  (1) 
3000.0

>  <Tmax_units>  (1) 
K

>  <polynomials>  (1) 
[{"name": "polynomial1", "class": "NASAPolynomial", "Tmin_value": 10.0, "Tmin_units": "K", "Tmax_value": 537.5635703919752, "Tmax_units": "K", "coeffs": [3.863159133545292, 0.009526891193719616, 8.523458199277766e-05, -1.3180294246949597e-07, 6.382385795557744e-11, -49999183.40788375, 7.557982117068392]}, {"name": "polynomial2", "class": "NASAPolynomial", "Tmin_value": 537.5635703919752, "Tmin_units": "K", "Tmax_value": 3000.0, "Tmax_units": "K", "coeffs": [-1.526267110609088, 0.049629305591709416, -2.66653379373913e-05, 6.9705483321743115e-09, -7.139956935248938e-13, -49998603.97314044, 30.213613979665126]}]

>  <H298_value>  (1) 
-99354.53663060642

>  <H298_units>  (1) 
kcal/mol

>  <S298_value>  (1) 
69.85732674736339

>  <S298_units>  (1) 
cal/(mol*K)

>  <Cp_T_value_list>  (1) 
[22.556051039289432, 28.83426930449339, 34.67451493729242, 39.8730981011105, 48.46365271620374, 55.03419996310473, 65.24332463542565, 70.36985944382859, 72.85877304563846]

>  <Cp_T_units>  (1) 
cal/(mol*K)

>  <T_list>  (1) 
[300.0, 400.0, 500.0, 600.0, 800.0, 1000.0, 1500.0, 2000.0, 2400.0]

>  <T_units>  (1) 
K

>  <yaml_path>  (1) 
/home/calvin/Dropbox/PersonalFolders/Calvin/HAb_Converged/rxn_984/output/Species/rxn_984_CC[C]C/rxn_984_CCCC.yml

>  <frequencies_cm1>  (1) 
[211.34520719364, 262.68965643128, 263.67850231736, 369.03179109679996, 369.42320926004, 435.32566737608, 804.00037523624, 925.0653264278399, 925.2576020168, 953.22683322516, 976.1762981645999, 976.3685737535599, 1191.09233772464, 1191.1129386805999, 1204.15334380328, 1353.06392046748, 1353.1943931885598, 1393.2151836335197, 1393.50359701696, 1417.40757291588, 1467.5022308252799, 1474.0945367324798, 1474.2730783508, 1492.55299327264, 1492.60106216988, 1500.95818330432, 2997.87857924048, 2999.8562710126403, 2999.8906059392393, 3005.27432243012, 3068.52612421264, 3068.5604591392394, 3077.2609295396796, 3079.3484930769596, 3082.9605273552797, 3083.0910000763593]

>  <ZPE_kJmol>  (1) 
342.9273639642144

>  <E_elec_kJmol>  (1) 
-416059.7748686332

>  <E0_minus_Eelec_plus_ZPE_kJmol>  (1) 
0.0

>  <rxn>  (1) 
rxn_984

>  <species_type>  (1) 
r1

>  <species_folder>  (1) 
rxn_984_CC[C]C

>  <frequencies_cm1_list>  (1) 
[211.34520719364, 262.68965643128, 263.67850231736, 369.03179109679996, 369.42320926004, 435.32566737608, 804.00037523624, 925.0653264278399, 925.2576020168, 953.22683322516, 976.1762981645999, 976.3685737535599, 1191.09233772464, 1191.1129386805999, 1204.15334380328, 1353.06392046748, 1353.1943931885598, 1393.2151836335197, 1393.50359701696, 1417.40757291588, 1467.5022308252799, 1474.0945367324798, 1474.2730783508, 1492.55299327264, 1492.60106216988, 1500.95818330432, 2997.87857924048, 2999.8562710126403, 2999.8906059392393, 3005.27432243012, 3068.52612421264, 3068.5604591392394, 3077.2609295396796, 3079.3484930769596, 3082.9605273552797, 3083.0910000763593]

>  <E0_kJmol>  (1) 
-415717

>  <H298_kJmol>  (1) 
-415699

$$$$

     RDKit          3D

  8  7  0  0  0  0  0  0  0  0999 V2000
    0.6289    1.6323    0.0909 S   0  0  0  0  0  0  0  0  0  1  0  0
   -0.6188    0.6097    0.8559 C   0  0  0  0  0  0  0  0  0  2  0  0
   -0.6761   -0.8132    0.5698 C   0  0  0  0  0  0  0  0  0  3  0  0
   -0.0537   -1.5960   -0.7117 S   0  0  0  0  0  0  0  0  0  4  0  0
    0.8473    0.7881   -0.9340 H   0  0  0  0  0  0  0  0  0  5  0  0
   -0.6835    0.8316    1.9205 H   0  0  0  0  0  0  0  0  0  6  0  0
   -1.2807   -1.3712    1.2852 H   0  0  0  0  0  0  0  0  0  7  0  0
   -1.5815    0.9710    0.4960 H   0  0  0  0  0  0  0  0  0  8  0  0
  1  2  1  0
  1  5  1  0
  2  8  1  0
  2  6  1  0
  2  3  1  0
  3  7  1  0
  3  4  1  0
M  END
>  <rmg_smiles>  (2) 
[S][CH]CS

>  <rmg_adjacency_list>  (2) 
1 S u0 p2 c0 {3,S} {8,S}
2 S u0 p2 c0 {4,S}
3 C u0 p0 c0 {1,S} {4,S} {5,S} {6,S}
4 C u0 p0 c0 {2,S} {3,S} {7,S}
5 H u0 p0 c0 {3,S}
6 H u0 p0 c0 {3,S}
7 H u0 p0 c0 {4,S}
8 H u0 p0 c0 {1,S}


>  <multiplicity>  (2) 
1

>  <reaction>  (2) 
rxn_984

>  <type>  (2) 
r2h

>  <role_mapnums>  (2) 
{"r2h_a": 2, "r2h_h": 8}

>  <role_mapidx>  (2) 
{"r2h_a": 1, "r2h_h": 7}

>  <ordered_mapped_smiles>  (2) 
[S:1]([C:2]([CH:3]([SH:4])[H:7])([H:6])[H:8])[H:5]

>  <mol_properties>  (2) 
{"1": {"label": "acceptor", "atom_type": "Cs"}, "7": {"label": "a_hydrogen", "atom_type": "H0"}}

>  <level_of_theory>  (2) 
wb97xd/def2tzvp

>  <lot_method>  (2) 
wb97xd

>  <lot_basis>  (2) 
def2tzvp

>  <spin_multiplicity>  (2) 
1.0

>  <optical_isomers>  (2) 
2.0

>  <modes>  (2) 
IdealGasTranslation(mass=(91.9754, 'amu')),         NonlinearRotor(             inertia = ([28.3667, 272.927, 283.105

>  <frequency_value>  (2) 
unknown

>  <frequency_units>  (2) 
unknown

>  <frequency_list>  (2) 
unknown

>  <arkane_path>  (2) 
/home/calvin/Dropbox/PersonalFolders/Calvin/HAb_Converged/rxn_984/output/Species/rxn_984_SCC=S/arkane/output.py

>  <path_exists>  (2) 
True

>  <E0_value>  (2) 
-2297161.3466777904

>  <E0_units>  (2) 
kJ/mol

>  <thermo_class>  (2) 
NASA

>  <Cp0_value>  (2) 
33.257888

>  <Cp0_units>  (2) 
J/(mol*K)

>  <CpInf_value>  (2) 
182.918384

>  <CpInf_units>  (2) 
J/(mol*K)

>  <Tmin_value>  (2) 
10.0

>  <Tmin_units>  (2) 
K

>  <Tmax_value>  (2) 
3000.0

>  <Tmax_units>  (2) 
K

>  <polynomials>  (2) 
[{"name": "polynomial1", "class": "NASAPolynomial", "Tmin_value": 10.0, "Tmin_units": "K", "Tmax_value": 567.3985410848345, "Tmax_units": "K", "coeffs": [3.827762255477858, 0.0148243677948894, 3.0300423651881606e-05, -6.991525360518275e-08, 4.130808720690426e-11, -276284690.67862564, 11.183445317954005]}, {"name": "polynomial2", "class": "NASAPolynomial", "Tmin_value": 567.3985410848345, "Tmin_units": "K", "Tmax_value": 3000.0, "Tmax_units": "K", "coeffs": [3.2084105787689583, 0.02574254947061171, -1.5884331254161568e-05, 4.70098747996834e-09, -5.353239956477021e-13, -276284725.86150384, 12.891088264548623]}]

>  <H298_value>  (2) 
-549030.8628187295

>  <H298_units>  (2) 
kcal/mol

>  <S298_value>  (2) 
75.94771372042368

>  <S298_units>  (2) 
cal/(mol*K)

>  <Cp_T_value_list>  (2) 
[18.77710306271184, 22.233836008986053, 25.15286918611867, 27.585638185889195, 31.445784266887134, 34.24412324427564, 38.230364497139824, 40.139386212339545, 41.179820759380895]

>  <Cp_T_units>  (2) 
cal/(mol*K)

>  <T_list>  (2) 
[300.0, 400.0, 500.0, 600.0, 800.0, 1000.0, 1500.0, 2000.0, 2400.0]

>  <T_units>  (2) 
K

>  <yaml_path>  (2) 
/home/calvin/Dropbox/PersonalFolders/Calvin/HAb_Converged/rxn_984/output/Species/rxn_984_SCC=S/rxn_984_SCC=S.yml

>  <frequencies_cm1>  (2) 
[80.75574736319999, 266.2330208564, 305.26496541528, 376.90135627352, 683.70452640048, 787.8972946608399, 844.3027120793199, 953.5015126379599, 1032.3482380822, 1160.69906069832, 1182.2888625443998, 1236.400706866, 1388.44949582144, 1449.3115867126, 2698.0591331839596, 3041.5869408022795, 3077.6798156442, 3121.4774480151596]

>  <ZPE_kJmol>  (2) 
141.6789408228882

>  <E_elec_kJmol>  (2) 
-2297303.025618613

>  <E0_minus_Eelec_plus_ZPE_kJmol>  (2) 
0.0

>  <rxn>  (2) 
rxn_984

>  <species_type>  (2) 
p0

>  <species_folder>  (2) 
rxn_984_SCC=S

>  <frequencies_cm1_list>  (2) 
[80.75574736319999, 266.2330208564, 305.26496541528, 376.90135627352, 683.70452640048, 787.8972946608399, 844.3027120793199, 953.5015126379599, 1032.3482380822, 1160.69906069832, 1182.2888625443998, 1236.400706866, 1388.44949582144, 1449.3115867126, 2698.0591331839596, 3041.5869408022795, 3077.6798156442, 3121.4774480151596]

>  <E0_kJmol>  (2) 
-2.29716e+06

>  <H298_kJmol>  (2) 
-2.29715e+06

$$$$

     RDKit          3D

 21 19  0  0  0  0  0  0  0  0999 V2000
    1.8834    1.1263    0.0346 S   0  0  0  0  0  0  0  0  0  1  0  0
    0.6357    0.1037    0.7996 C   0  0  0  0  0  0  0  0  0  2  0  0
    0.5784   -1.3193    0.5134 C   0  0  0  0  0  0  0  0  0  3  0  0
    1.2009   -2.1020   -0.7681 S   0  0  0  0  0  0  0  0  0  4  0  0
    2.1018    0.2820   -0.9903 H   0  0  0  0  0  0  0  0  0  5  0  0
    0.5710    0.3256    1.8642 H   0  0  0  0  0  0  0  0  0  6  0  0
   -0.0261   -1.8773    1.2289 H   0  0  0  0  0  0  0  0  0  7  0  0
   -1.4314    1.0058   -1.6378 C   0  0  0  0  0  0  0  0  0  8  0  0
   -1.7389    1.0722   -0.1730 C   0  0  0  0  0  3  0  0  0  9  0  0
   -1.7871    2.4391    0.4383 C   0  0  0  0  0  0  0  0  0 10  0  0
   -2.7124    0.0579    0.3467 C   0  0  0  0  0  0  0  0  0 11  0  0
   -0.5773    1.6355   -1.8919 H   0  0  0  0  0  0  0  0  0 12  0  0
   -2.2910    1.3568   -2.2238 H   0  0  0  0  0  0  0  0  0 13  0  0
   -1.2137   -0.0163   -1.9535 H   0  0  0  0  0  0  0  0  0 14  0  0
   -0.4579    0.5140    0.3907 H   0  0  0  0  0  0  0  0  0 15  0  0
   -2.6673    2.9889    0.0803 H   0  0  0  0  0  0  0  0  0 16  0  0
   -1.8543    2.3916    1.5271 H   0  0  0  0  0  0  0  0  0 17  0  0
   -0.9052    3.0227    0.1675 H   0  0  0  0  0  0  0  0  0 18  0  0
   -2.4452   -0.9503    0.0207 H   0  0  0  0  0  0  0  0  0 19  0  0
   -3.7214    0.2629   -0.0326 H   0  0  0  0  0  0  0  0  0 20  0  0
   -2.7651    0.0705    1.4373 H   0  0  0  0  0  0  0  0  0 21  0  0
  1  5  1  0
  1  2  1  0
  2 15  1  0
  2  6  1  0
  2  3  1  0
  3  7  1  0
  3  4  1  0
  8  9  1  0
  8 13  1  0
  8 12  1  0
  8 14  1  0
  9 11  1  0
  9 10  1  0
 10 16  1  0
 10 18  1  0
 10 17  1  0
 11 21  1  0
 11 19  1  0
 11 20  1  0
M  RAD  1   9   2
M  END
>  <rmg_smiles>  (3) 
C[C](C)C.[S][CH]CS

>  <rmg_adjacency_list>  (3) 
multiplicity 2
1  S u0 p2 c0 {3,S} {21,S}
2  S u0 p2 c0 {8,S}
3  C u0 p0 c0 {1,S} {8,S} {9,S} {10,S}
4  C u0 p0 c0 {7,S} {11,S} {12,S} {13,S}
5  C u0 p0 c0 {7,S} {14,S} {15,S} {16,S}
6  C u0 p0 c0 {7,S} {17,S} {18,S} {19,S}
7  C u1 p0 c0 {4,S} {5,S} {6,S}
8  C u0 p0 c0 {2,S} {3,S} {20,S}
9  H u0 p0 c0 {3,S}
10 H u0 p0 c0 {3,S}
11 H u0 p0 c0 {4,S}
12 H u0 p0 c0 {4,S}
13 H u0 p0 c0 {4,S}
14 H u0 p0 c0 {5,S}
15 H u0 p0 c0 {5,S}
16 H u0 p0 c0 {5,S}
17 H u0 p0 c0 {6,S}
18 H u0 p0 c0 {6,S}
19 H u0 p0 c0 {6,S}
20 H u0 p0 c0 {8,S}
21 H u0 p0 c0 {1,S}


>  <multiplicity>  (3) 
2

>  <reaction>  (3) 
rxn_984

>  <type>  (3) 
ts

>  <role_mapnums>  (3) 
{"*2": 15, "*1": 9, "*3": 2, "*0": 3, "*4": 8}

>  <role_mapidx>  (3) 
{"*2": 14, "*1": 8, "*3": 1, "*0": 2, "*4": 7}

>  <ordered_mapped_smiles>  (3) 
[S:1]([C:2]([CH:3]([SH:4])[H:7])([H:6])[H:15])[H:5].[C:8]([C:9]([C:10]([H:16])([H:17])[H:18])[C:11]([H:19])([H:20])[H:21])([H:12])([H:13])[H:14]

>  <mol_properties>  (3) 
{"1": {"label": "*3", "atom_type": "Cs"}, "2": {"label": "*0", "atom_type": "Cs"}, "7": {"label": "*4", "atom_type": "Cs"}, "8": {"label": "*1", "atom_type": "Cs"}, "14": {"label": "*2", "atom_type": "H0"}}

>  <level_of_theory>  (3) 
wb97xd/def2tzvp

>  <lot_method>  (3) 
wb97xd

>  <lot_basis>  (3) 
def2tzvp

>  <spin_multiplicity>  (3) 
2.0

>  <optical_isomers>  (3) 
2.0

>  <modes>  (3) 
IdealGasTranslation(mass=(149.046, 'amu')),         NonlinearRotor(             inertia = ([315.22, 589.748, 744.08

>  <frequency_value>  (3) 
-1083.19

>  <frequency_units>  (3) 
cm^-1

>  <frequency_list>  (3) 
unknown

>  <arkane_path>  (3) 
/home/calvin/Dropbox/PersonalFolders/Calvin/HAb_Converged/rxn_984/output/rxns/TS0/arkane/output.py

>  <path_exists>  (3) 
True

>  <E0_value>  (3) 
-2711170.0

>  <E0_units>  (3) 
kJ/mol

>  <thermo_class>  (3) 
unknown

>  <Cp0_value>  (3) 
unknown

>  <Cp0_units>  (3) 
unknown

>  <CpInf_value>  (3) 
unknown

>  <CpInf_units>  (3) 
unknown

>  <Tmin_value>  (3) 
unknown

>  <Tmin_units>  (3) 
unknown

>  <Tmax_value>  (3) 
unknown

>  <Tmax_units>  (3) 
unknown

>  <polynomials>  (3) 
unknown

>  <H298_value>  (3) 
unknown

>  <H298_units>  (3) 
unknown

>  <S298_value>  (3) 
unknown

>  <S298_units>  (3) 
unknown

>  <Cp_T_value_list>  (3) 
unknown

>  <Cp_T_units>  (3) 
unknown

>  <T_list>  (3) 
unknown

>  <T_units>  (3) 
unknown

>  <yaml_path>  (3) 
unknown

>  <frequencies_cm1>  (3) 
unknown

>  <ZPE_kJmol>  (3) 
unknown

>  <E_elec_kJmol>  (3) 
unknown

>  <E0_minus_Eelec_plus_ZPE_kJmol>  (3) 
unknown

>  <rxn>  (3) 
unknown

>  <species_type>  (3) 
unknown

>  <species_folder>  (3) 
unknown

>  <frequencies_cm1_list>  (3) 
[]

>  <ts_imag_freq_cm1>  (3) 
-1096.3495

>  <ts_freq_out_path>  (3) 
/home/calvin/Dropbox/PersonalFolders/Calvin/HAb_Converged/rxn_984/output/rxns/TS0/geometry/freq.out

>  <E0_kJmol>  (3) 
-2.71117e+06

>  <H298_kJmol>  (3) 
unknown

$$$$

     RDKit          3D

 13 12  0  0  0  0  0  0  0  0999 V2000
   -1.3649   -0.5967   -0.3477 C   0  0  0  0  0  0  0  0  0  1  0  0
   -0.1601   -0.2776    0.4669 C   0  0  0  0  0  3  0  0  0  2  0  0
    1.1241   -0.9571    0.1414 C   0  0  0  0  0  0  0  0  0  3  0  0
   -0.1188    1.0130    1.2081 C   0  0  0  0  0  0  0  0  0  4  0  0
   -1.4266   -1.6632   -0.5770 H   0  0  0  0  0  0  0  0  0  5  0  0
   -2.2858   -0.3004    0.1602 H   0  0  0  0  0  0  0  0  0  6  0  0
   -1.3532   -0.0668   -1.3138 H   0  0  0  0  0  0  0  0  0  7  0  0
    1.6174   -0.4963   -0.7297 H   0  0  0  0  0  0  0  0  0  8  0  0
    0.9723   -2.0104   -0.1064 H   0  0  0  0  0  0  0  0  0  9  0  0
    1.8338   -0.8977    0.9701 H   0  0  0  0  0  0  0  0  0 10  0  0
   -1.0852    1.2507    1.6593 H   0  0  0  0  0  0  0  0  0 11  0  0
    0.6358    1.0009    1.9983 H   0  0  0  0  0  0  0  0  0 12  0  0
    0.1343    1.8546    0.5434 H   0  0  0  0  0  0  0  0  0 13  0  0
  1  5  1  0
  1  7  1  0
  1  6  1  0
  1  2  1  0
  2  3  1  0
  2  4  1  0
  3  9  1  0
  3 10  1  0
  3  8  1  0
  4 13  1  0
  4 12  1  0
  4 11  1  0
M  RAD  1   2   2
M  END
>  <rmg_smiles>  (4) 
C[C](C)C

>  <rmg_adjacency_list>  (4) 
multiplicity 2
1  C u0 p0 c0 {4,S} {5,S} {6,S} {7,S}
2  C u0 p0 c0 {4,S} {8,S} {9,S} {10,S}
3  C u0 p0 c0 {4,S} {11,S} {12,S} {13,S}
4  C u1 p0 c0 {1,S} {2,S} {3,S}
5  H u0 p0 c0 {1,S}
6  H u0 p0 c0 {1,S}
7  H u0 p0 c0 {1,S}
8  H u0 p0 c0 {2,S}
9  H u0 p0 c0 {2,S}
10 H u0 p0 c0 {2,S}
11 H u0 p0 c0 {3,S}
12 H u0 p0 c0 {3,S}
13 H u0 p0 c0 {3,S}


>  <multiplicity>  (4) 
2

>  <reaction>  (4) 
rxn_984

>  <type>  (4) 
r1

>  <role_mapnums>  (4) 
{}

>  <role_mapidx>  (4) 
{}

>  <ordered_mapped_smiles>  (4) 
[C:1]([C:2]([C:3]([H:8])([H:9])[H:10])[C:4]([H:11])([H:12])[H:13])([H:5])([H:6])[H:7]

>  <level_of_theory>  (4) 
wb97xd/def2tzvp

>  <lot_method>  (4) 
wb97xd

>  <lot_basis>  (4) 
def2tzvp

>  <spin_multiplicity>  (4) 
2.0

>  <optical_isomers>  (4) 
1.0

>  <modes>  (4) 
IdealGasTranslation(mass=(57.0704, 'amu')),         NonlinearRotor(             inertia = ([62.7477, 62.7516, 115.628

>  <frequency_value>  (4) 
unknown

>  <frequency_units>  (4) 
unknown

>  <frequency_list>  (4) 
unknown

>  <arkane_path>  (4) 
/home/calvin/Dropbox/PersonalFolders/Calvin/HAb_Converged/rxn_984/output/Species/rxn_984_C[C][C]C/arkane/output.py

>  <path_exists>  (4) 
True

>  <E0_value>  (4) 
-414011.7599205596

>  <E0_units>  (4) 
kJ/mol

>  <thermo_class>  (4) 
NASA

>  <Cp0_value>  (4) 
33.257888

>  <Cp0_units>  (4) 
J/(mol*K)

>  <CpInf_value>  (4) 
307.635464

>  <CpInf_units>  (4) 
J/(mol*K)

>  <Tmin_value>  (4) 
10.0

>  <Tmin_units>  (4) 
K

>  <Tmax_value>  (4) 
3000.0

>  <Tmax_units>  (4) 
K

>  <polynomials>  (4) 
[{"name": "polynomial1", "class": "NASAPolynomial", "Tmin_value": 10.0, "Tmin_units": "K", "Tmax_value": 466.08964167886796, "Tmax_units": "K", "coeffs": [3.6355191574612853, 0.03664463463772439, -8.048899923319616e-05, 2.0695595144370002e-07, -1.7309470677057164e-10, -49794112.655582875, 8.363352313077186]}, {"name": "polynomial2", "class": "NASAPolynomial", "Tmin_value": 466.08964167886796, "Tmin_units": "K", "Tmax_value": 3000.0, "Tmax_units": "K", "coeffs": [-0.5045940595519499, 0.04583888044879818, -2.5321094170773227e-05, 6.815152351682839e-09, -7.175999317538131e-13, -49793440.65772154, 28.24531446167746]}]

>  <H298_value>  (4) 
-98946.55988103204

>  <H298_units>  (4) 
kcal/mol

>  <S298_value>  (4) 
75.32667198992141

>  <S298_units>  (4) 
cal/(mol*K)

>  <Cp_T_value_list>  (4) 
[22.993257351372222, 28.27613922526579, 33.567130459035425, 38.277993435915704, 46.01662632289796, 51.88744149023513, 60.90699348051586, 65.43555053807958, 67.6914852799967]

>  <Cp_T_units>  (4) 
cal/(mol*K)

>  <T_list>  (4) 
[300.0, 400.0, 500.0, 600.0, 800.0, 1000.0, 1500.0, 2000.0, 2400.0]

>  <T_units>  (4) 
K

>  <yaml_path>  (4) 
/home/calvin/Dropbox/PersonalFolders/Calvin/HAb_Converged/rxn_984/output/Species/rxn_984_C[C][C]C/rxn_984_CCCC.yml

>  <frequencies_cm1>  (4) 
[127.66412408411998, 132.21006836595998, 133.70707116572, 257.46388060276, 382.77949570743993, 383.17091387067995, 764.0894565563999, 931.00526872964, 931.3142830690399, 964.27581260504, 1004.44767672704, 1004.7223561398399, 1088.2111636604, 1293.76063524396, 1293.8430390678, 1387.45378295004, 1387.5773886858, 1410.79466605272, 1453.7201912880398, 1456.5699901958399, 1457.0026102709999, 1475.8387510037599, 1478.2627968217198, 1478.3520676308801, 2924.1340238889998, 2924.3400334486, 2931.91431825656, 3026.76798648172, 3027.0220649385597, 3028.1413835457197, 3072.48837474228, 3076.3544874774398, 3076.69783674344]

>  <ZPE_kJmol>  (4) 
303.6487849504534

>  <E_elec_kJmol>  (4) 
-414315.40870551

>  <E0_minus_Eelec_plus_ZPE_kJmol>  (4) 
0.0

>  <rxn>  (4) 
rxn_984

>  <species_type>  (4) 
p1

>  <species_folder>  (4) 
rxn_984_C[C][C]C

>  <frequencies_cm1_list>  (4) 
[127.66412408411998, 132.21006836595998, 133.70707116572, 257.46388060276, 382.77949570743993, 383.17091387067995, 764.0894565563999, 931.00526872964, 931.3142830690399, 964.27581260504, 1004.44767672704, 1004.7223561398399, 1088.2111636604, 1293.76063524396, 1293.8430390678, 1387.45378295004, 1387.5773886858, 1410.79466605272, 1453.7201912880398, 1456.5699901958399, 1457.0026102709999, 1475.8387510037599, 1478.2627968217198, 1478.3520676308801, 2924.1340238889998, 2924.3400334486, 2931.91431825656, 3026.76798648172, 3027.0220649385597, 3028.1413835457197, 3072.48837474228, 3076.3544874774398, 3076.69783674344]

>  <E0_kJmol>  (4) 
-414012

>  <H298_kJmol>  (4) 
-413992

$$$$

     RDKit          3D

  7  6  0  0  0  0  0  0  0  0999 V2000
    1.8092   -0.3013   -0.2242 S   0  0  0  0  0  0  0  0  0  1  0  0
    0.1552   -0.6967   -0.1137 C   0  0  0  0  0  0  0  0  0  2  0  0
   -0.8921    0.1788    0.1148 C   0  0  0  0  0  0  0  0  0  3  0  0
   -0.7548    1.8245    0.3328 S   0  0  0  0  0  1  0  0  0  4  0  0
    1.6168    1.0210   -0.0187 H   0  0  0  0  0  0  0  0  0  5  0  0
   -0.0550   -1.7522   -0.2412 H   0  0  0  0  0  0  0  0  0  6  0  0
   -1.8791   -0.2740    0.1502 H   0  0  0  0  0  0  0  0  0  7  0  0
  1  2  1  0
  1  5  1  0
  2  6  1  0
  2  3  1  0
  3  7  1  0
  3  4  1  0
M  RAD  1   4   2
M  END
>  <rmg_smiles>  (5) 
[S][CH][CH]S

>  <rmg_adjacency_list>  (5) 
multiplicity 2
1 S u0 p2 c0 {3,S} {7,S}
2 S u1 p2 c0 {4,S}
3 C u0 p0 c0 {1,S} {4,S} {5,S}
4 C u0 p0 c0 {2,S} {3,S} {6,S}
5 H u0 p0 c0 {3,S}
6 H u0 p0 c0 {4,S}
7 H u0 p0 c0 {1,S}


>  <multiplicity>  (5) 
2

>  <reaction>  (5) 
rxn_984

>  <type>  (5) 
r2

>  <role_mapnums>  (5) 
{}

>  <role_mapidx>  (5) 
{}

>  <ordered_mapped_smiles>  (5) 
[S:1]([CH:2]([CH:3]([S:4])[H:7])[H:6])[H:5]

>  <level_of_theory>  (5) 
wb97xd/def2tzvp

>  <lot_method>  (5) 
wb97xd

>  <lot_basis>  (5) 
def2tzvp

>  <spin_multiplicity>  (5) 
2.0

>  <optical_isomers>  (5) 
1.0

>  <modes>  (5) 
IdealGasTranslation(mass=(90.9676, 'amu')),         NonlinearRotor(             inertia = ([41.4097, 197.136, 238.545

>  <frequency_value>  (5) 
unknown

>  <frequency_units>  (5) 
unknown

>  <frequency_list>  (5) 
unknown

>  <arkane_path>  (5) 
/home/calvin/Dropbox/PersonalFolders/Calvin/HAb_Converged/rxn_984/output/Species/rxn_984_S[CH]C=S/arkane/output.py

>  <path_exists>  (5) 
True

>  <E0_value>  (5) 
-2295558.499177116

>  <E0_units>  (5) 
kJ/mol

>  <thermo_class>  (5) 
NASA

>  <Cp0_value>  (5) 
33.257888

>  <Cp0_units>  (5) 
J/(mol*K)

>  <CpInf_value>  (5) 
157.97496800000002

>  <CpInf_units>  (5) 
J/(mol*K)

>  <Tmin_value>  (5) 
10.0

>  <Tmin_units>  (5) 
K

>  <Tmax_value>  (5) 
3000.0

>  <Tmax_units>  (5) 
K

>  <polynomials>  (5) 
[{"name": "polynomial1", "class": "NASAPolynomial", "Tmin_value": 10.0, "Tmin_units": "K", "Tmax_value": 554.7124392285518, "Tmax_units": "K", "coeffs": [3.9306502353930965, 0.004133922870558618, 7.817124796321941e-05, -1.5845467344039594e-07, 9.591038319478953e-11, -276091912.08472174, 10.601050984557745]}, {"name": "polynomial2", "class": "NASAPolynomial", "Tmin_value": 554.7124392285518, "Tmin_units": "K", "Tmax_value": 3000.0, "Tmax_units": "K", "coeffs": [3.4410377237542638, 0.02325799354743955, -1.5708672851982145e-05, 5.0491053726302925e-09, -6.172994321373326e-13, -276092097.67652106, 10.512139558674505]}]

>  <H298_value>  (5) 
-548648.1110275815

>  <H298_units>  (5) 
kcal/mol

>  <S298_value>  (5) 
72.51024917341623

>  <S298_units>  (5) 
cal/(mol*K)

>  <Cp_T_value_list>  (5) 
[17.298309340361524, 20.678524612659682, 23.305934853423146, 25.33949880526343, 28.469074134584886, 30.647025274417317, 33.58213330177607, 35.051114287355276, 35.96165263240023]

>  <Cp_T_units>  (5) 
cal/(mol*K)

>  <T_list>  (5) 
[300.0, 400.0, 500.0, 600.0, 800.0, 1000.0, 1500.0, 2000.0, 2400.0]

>  <T_units>  (5) 
K

>  <yaml_path>  (5) 
/home/calvin/Dropbox/PersonalFolders/Calvin/HAb_Converged/rxn_984/output/Species/rxn_984_S[CH]C=S/rxn_984_SCHC=S.yml

>  <frequencies_cm1>  (5) 
[200.51597134399998, 323.99123438291997, 464.0365329989999, 549.3038897174399, 726.3828401642799, 743.81811589176, 881.4256347192398, 918.3837497114799, 977.1651440506799, 1183.8339342414001, 1348.94372927548, 1411.0968134068, 2564.15291944396, 3116.1761353481197, 3166.7652162005597]

>  <ZPE_kJmol>  (5) 
111.10913739733977

>  <E_elec_kJmol>  (5) 
-2295669.608314513

>  <E0_minus_Eelec_plus_ZPE_kJmol>  (5) 
0.0

>  <rxn>  (5) 
rxn_984

>  <species_type>  (5) 
r0

>  <species_folder>  (5) 
rxn_984_S[CH]C=S

>  <frequencies_cm1_list>  (5) 
[200.51597134399998, 323.99123438291997, 464.0365329989999, 549.3038897174399, 726.3828401642799, 743.81811589176, 881.4256347192398, 918.3837497114799, 977.1651440506799, 1183.8339342414001, 1348.94372927548, 1411.0968134068, 2564.15291944396, 3116.1761353481197, 3166.7652162005597]

>  <E0_kJmol>  (5) 
-2.29556e+06

>  <H298_kJmol>  (5) 
-2.29554e+06

$$$$
