
     RDKit          3D

 12 11  0  0  0  0  0  0  0  0999 V2000
   -0.9716    0.9747   -1.0720 C   0  0  0  0  0  0  0  0  0  1  0  0
   -0.5447    0.1163    0.0913 C   0  0  0  0  0  0  0  0  0  2  0  0
    0.9296   -0.8606   -0.1684 S   0  0  0  0  0  0  0  0  0  3  0  0
   -0.4883    0.8195    1.4251 C   0  0  0  0  0  0  0  0  0  4  0  0
   -1.1012    0.3844   -1.9810 H   0  0  0  0  0  0  0  0  0  5  0  0
   -0.2334    1.7557   -1.2788 H   0  0  0  0  0  0  0  0  0  6  0  0
   -1.9245    1.4593   -0.8453 H   0  0  0  0  0  0  0  0  0  7  0  0
   -1.3540   -0.6013    0.2256 H   0  0  0  0  0  0  0  0  0  8  0  0
    0.6321   -1.2877   -1.4031 H   0  0  0  0  0  0  0  0  0  9  0  0
   -1.4558    1.2774    1.6401 H   0  0  0  0  0  0  0  0  0 10  0  0
    0.2684    1.6108    1.4260 H   0  0  0  0  0  0  0  0  0 11  0  0
   -0.2628    0.1243    2.2352 H   0  0  0  0  0  0  0  0  0 12  0  0
  1  5  1  0
  1  7  1  0
  1  6  1  0
  1  2  1  0
  2  8  1  0
  2  3  1  0
  2  4  1  0
  3  9  1  0
  4 11  1  0
  4 12  1  0
  4 10  1  0
M  END
>  <rmg_smiles>  (1) 
CC(S)C

>  <rmg_adjacency_list>  (1) 
1  S u0 p2 c0 {2,S} {12,S}
2  C u0 p0 c0 {1,S} {3,S} {4,S} {5,S}
3  C u0 p0 c0 {2,S} {6,S} {7,S} {8,S}
4  C u0 p0 c0 {2,S} {9,S} {10,S} {11,S}
5  H u0 p0 c0 {2,S}
6  H u0 p0 c0 {3,S}
7  H u0 p0 c0 {3,S}
8  H u0 p0 c0 {3,S}
9  H u0 p0 c0 {4,S}
10 H u0 p0 c0 {4,S}
11 H u0 p0 c0 {4,S}
12 H u0 p0 c0 {1,S}


>  <multiplicity>  (1) 
1

>  <reaction>  (1) 
rxn_1922

>  <type>  (1) 
r1h

>  <role_mapnums>  (1) 
{"r1h_a": 2, "r1h_h": 8}

>  <role_mapidx>  (1) 
{"r1h_a": 1, "r1h_h": 7}

>  <ordered_mapped_smiles>  (1) 
[C:1]([C:2]([S:3][H:9])([C:4]([H:10])([H:11])[H:12])[H:8])([H:5])([H:6])[H:7]

>  <mol_properties>  (1) 
{"1": {"label": "donator", "atom_type": "Cs"}, "7": {"label": "d_hydrogen", "atom_type": "H0"}}

>  <level_of_theory>  (1) 
wb97xd/def2tzvp

>  <lot_method>  (1) 
wb97xd

>  <lot_basis>  (1) 
def2tzvp

>  <spin_multiplicity>  (1) 
1.0

>  <optical_isomers>  (1) 
1.0

>  <modes>  (1) 
IdealGasTranslation(mass=(76.0347, 'amu')),         NonlinearRotor(             inertia = ([63.6139, 114.441, 159.621

>  <frequency_value>  (1) 
unknown

>  <frequency_units>  (1) 
unknown

>  <frequency_list>  (1) 
unknown

>  <arkane_path>  (1) 
/home/calvin/Dropbox/PersonalFolders/Calvin/HAb_Converged/rxn_1922/output/Species/rxn_1922_CC[S]C/arkane/output.py

>  <path_exists>  (1) 
True

>  <E0_value>  (1) 
-1358037.5866518293

>  <E0_units>  (1) 
kJ/mol

>  <thermo_class>  (1) 
NASA

>  <Cp0_value>  (1) 
33.257888

>  <Cp0_units>  (1) 
J/(mol*K)

>  <CpInf_value>  (1) 
282.692048

>  <CpInf_units>  (1) 
J/(mol*K)

>  <Tmin_value>  (1) 
10.0

>  <Tmin_units>  (1) 
K

>  <Tmax_value>  (1) 
3000.0

>  <Tmax_units>  (1) 
K

>  <polynomials>  (1) 
[{"name": "polynomial1", "class": "NASAPolynomial", "Tmin_value": 10.0, "Tmin_units": "K", "Tmax_value": 321.0427973613408, "Tmax_units": "K", "coeffs": [3.8756047097418973, 0.009389250032259752, 0.00011815725900514658, -2.839097589188045e-07, 2.248653567403297e-10, -163334191.98612887, 9.447969360133794]}, {"name": "polynomial2", "class": "NASAPolynomial", "Tmin_value": 321.0427973613408, "Tmin_units": "K", "Tmax_value": 3000.0, "Tmax_units": "K", "coeffs": [1.4806840671397867, 0.03922843927194572, -2.12592416875342e-05, 5.597074365621278e-09, -5.765908627450798e-13, -163334038.21131045, 18.281020566317956]}]

>  <H298_value>  (1) 
-324574.47563528904

>  <H298_units>  (1) 
kcal/mol

>  <S298_value>  (1) 
74.54205005976131

>  <S298_units>  (1) 
cal/(mol*K)

>  <Cp_T_value_list>  (1) 
[22.81785805349738, 28.04749840897883, 32.6770089554356, 36.76066239877869, 43.494090555582204, 48.62766871564607, 56.55824970959882, 60.5138896959208, 62.43755375914227]

>  <Cp_T_units>  (1) 
cal/(mol*K)

>  <T_list>  (1) 
[300.0, 400.0, 500.0, 600.0, 800.0, 1000.0, 1500.0, 2000.0, 2400.0]

>  <T_units>  (1) 
K

>  <yaml_path>  (1) 
/home/calvin/Dropbox/PersonalFolders/Calvin/HAb_Converged/rxn_1922/output/Species/rxn_1922_CC[S]C/rxn_1922_CCSC.yml

>  <frequencies_cm1>  (1) 
[200.16575509268, 239.05349295983999, 267.56521600848, 330.00671352323997, 342.12007562772, 410.47404750299995, 623.63900580644, 869.4770802624399, 901.3261581766, 934.4387613896399, 956.6740598558, 1108.1048201324402, 1133.3272572128, 1186.15497527956, 1298.3065795258, 1327.5874049302797, 1394.18342856364, 1410.9869416416798, 1469.0885044341999, 1472.7280066537999, 1483.70144919516, 1489.7375292914398, 2685.0049940906397, 3006.5378477289996, 3009.8752025945196, 3034.84356121804, 3072.74932018444, 3080.10386146216, 3104.8387425847995, 3107.4138620797994]

>  <ZPE_kJmol>  (1) 
268.8620674224514

>  <E_elec_kJmol>  (1) 
-1358306.4487192517

>  <E0_minus_Eelec_plus_ZPE_kJmol>  (1) 
0.0

>  <rxn>  (1) 
rxn_1922

>  <species_type>  (1) 
r0

>  <species_folder>  (1) 
rxn_1922_CC[S]C

>  <frequencies_cm1_list>  (1) 
[200.16575509268, 239.05349295983999, 267.56521600848, 330.00671352323997, 342.12007562772, 410.47404750299995, 623.63900580644, 869.4770802624399, 901.3261581766, 934.4387613896399, 956.6740598558, 1108.1048201324402, 1133.3272572128, 1186.15497527956, 1298.3065795258, 1327.5874049302797, 1394.18342856364, 1410.9869416416798, 1469.0885044341999, 1472.7280066537999, 1483.70144919516, 1489.7375292914398, 2685.0049940906397, 3006.5378477289996, 3009.8752025945196, 3034.84356121804, 3072.74932018444, 3080.10386146216, 3104.8387425847995, 3107.4138620797994]

>  <E0_kJmol>  (1) 
-1.35804e+06

>  <H298_kJmol>  (1) 
-1.35802e+06

$$$$

     RDKit          3D

 15 15  0  0  0  0  0  0  0  0999 V2000
    0.6140    1.0313   -2.6042 H   0  0  0  0  0  0  0  0  0  1  0  0
   -0.1712    0.3109   -2.3877 C   0  0  0  0  0  0  0  0  0  2  0  0
   -0.1036    0.0883   -0.9452 C   0  0  0  0  0  0  0  0  0  3  0  0
    0.8545   -0.7737   -0.3999 C   0  0  0  0  0  0  0  0  0  4  0  0
    0.9803   -0.9227    0.9699 C   0  0  0  0  0  0  0  0  0  5  0  0
    0.1532   -0.2144    1.8313 C   0  0  0  0  0  0  0  0  0  6  0  0
   -0.8038    0.6433    1.3063 C   0  0  0  0  0  0  0  0  0  7  0  0
   -0.9288    0.7942   -0.0635 C   0  0  0  0  0  0  0  0  0  8  0  0
   -1.0795    0.7853   -2.7511 H   0  0  0  0  0  0  0  0  0  9  0  0
    0.1511   -0.5219   -3.0084 H   0  0  0  0  0  0  0  0  0 10  0  0
    1.5120   -1.3196   -1.0664 H   0  0  0  0  0  0  0  0  0 11  0  0
    1.7292   -1.5951    1.3698 H   0  0  0  0  0  0  0  0  0 12  0  0
    0.2517   -0.3320    2.9028 H   0  0  0  0  0  0  0  0  0 13  0  0
   -1.4567    1.1971    1.9697 H   0  0  0  0  0  0  0  0  0 14  0  0
   -1.6773    1.4681   -0.4650 H   0  0  0  0  0  0  0  0  0 15  0  0
  1  2  1  0
  2 10  1  0
  2  9  1  0
  2  3  1  0
  3  4  1  0
  3  8  1  0
  4  5  1  0
  4 11  1  0
  5 12  1  0
  5  6  1  0
  6 13  1  0
  6  7  1  0
  7 14  1  0
  7  8  1  0
  8 15  1  0
M  END
>  <rmg_smiles>  (2) 
CC1[CH][CH][CH][CH][CH]1

>  <rmg_adjacency_list>  (2) 
1  C u0 p0 c0 {2,S} {8,S} {9,S} {10,S}
2  C u0 p0 c0 {1,S} {3,S} {4,S}
3  C u0 p0 c0 {2,S} {5,S} {11,S}
4  C u0 p0 c0 {2,S} {7,S} {15,S}
5  C u0 p0 c0 {3,S} {6,S} {12,S}
6  C u0 p0 c0 {5,S} {7,S} {13,S}
7  C u0 p0 c0 {4,S} {6,S} {14,S}
8  H u0 p0 c0 {1,S}
9  H u0 p0 c0 {1,S}
10 H u0 p0 c0 {1,S}
11 H u0 p0 c0 {3,S}
12 H u0 p0 c0 {5,S}
13 H u0 p0 c0 {6,S}
14 H u0 p0 c0 {7,S}
15 H u0 p0 c0 {4,S}


>  <multiplicity>  (2) 
1

>  <reaction>  (2) 
rxn_1922

>  <type>  (2) 
r2h

>  <role_mapnums>  (2) 
{"r2h_a": 2, "r2h_h": 1}

>  <role_mapidx>  (2) 
{"r2h_a": 1, "r2h_h": 0}

>  <ordered_mapped_smiles>  (2) 
[H:1][C:2]([CH:3]1[CH:4]([H:11])[CH:5]([H:12])[CH:6]([H:13])[CH:7]([H:14])[CH:8]1[H:15])([H:9])[H:10]

>  <mol_properties>  (2) 
{"0": {"label": "a_hydrogen", "atom_type": "H0"}, "1": {"label": "acceptor", "atom_type": "Cs"}}

>  <level_of_theory>  (2) 
wb97xd/def2tzvp

>  <lot_method>  (2) 
wb97xd

>  <lot_basis>  (2) 
def2tzvp

>  <spin_multiplicity>  (2) 
1.0

>  <optical_isomers>  (2) 
1.0

>  <modes>  (2) 
IdealGasTranslation(mass=(92.0626, 'amu')),         NonlinearRotor(             inertia = ([90.1823, 198.896, 285.945

>  <frequency_value>  (2) 
unknown

>  <frequency_units>  (2) 
unknown

>  <frequency_list>  (2) 
unknown

>  <arkane_path>  (2) 
/home/calvin/Dropbox/PersonalFolders/Calvin/HAb_Converged/rxn_1922/output/Species/rxn_1922_Cc1ccccc1/arkane/output.py

>  <path_exists>  (2) 
True

>  <E0_value>  (2) 
-712667.4188363365

>  <E0_units>  (2) 
kJ/mol

>  <thermo_class>  (2) 
NASA

>  <Cp0_value>  (2) 
33.257888

>  <Cp0_units>  (2) 
J/(mol*K)

>  <CpInf_value>  (2) 
357.522296

>  <CpInf_units>  (2) 
J/(mol*K)

>  <Tmin_value>  (2) 
10.0

>  <Tmin_units>  (2) 
K

>  <Tmax_value>  (2) 
3000.0

>  <Tmax_units>  (2) 
K

>  <polynomials>  (2) 
[{"name": "polynomial1", "class": "NASAPolynomial", "Tmin_value": 10.0, "Tmin_units": "K", "Tmax_value": 551.6286889493217, "Tmax_units": "K", "coeffs": [3.9807869850599604, 0.00035579842450977005, 0.00017407979731871807, -2.980547273310665e-07, 1.6260076242920846e-10, -85714089.34704308, 11.95867328323678]}, {"name": "polynomial2", "class": "NASAPolynomial", "Tmin_value": 551.6286889493217, "Tmin_units": "K", "Tmax_value": 3000.0, "Tmax_units": "K", "coeffs": [-2.46416105866764, 0.06292224302864326, -3.9104177048123046e-05, 1.1617339590721879e-08, -1.3239329118858667e-12, -85713619.19009034, 37.03443716401262]}]

>  <H298_value>  (2) 
-170327.1711311273

>  <H298_units>  (2) 
kcal/mol

>  <S298_value>  (2) 
79.81511959820088

>  <S298_units>  (2) 
cal/(mol*K)

>  <Cp_T_value_list>  (2) 
[25.88196728889831, 33.907606943755674, 40.9053387618178, 46.797609536980374, 56.144058412255724, 62.88974335066932, 72.41562493411858, 76.94345718776336, 79.45318254005072]

>  <Cp_T_units>  (2) 
cal/(mol*K)

>  <T_list>  (2) 
[300.0, 400.0, 500.0, 600.0, 800.0, 1000.0, 1500.0, 2000.0, 2400.0]

>  <T_units>  (2) 
K

>  <yaml_path>  (2) 
/home/calvin/Dropbox/PersonalFolders/Calvin/HAb_Converged/rxn_1922/output/Species/rxn_1922_Cc1ccccc1/rxn_1922_Cc1ccccc1.yml

>  <frequencies_cm1>  (2) 
[32.64564821128, 208.88682644908, 346.6454189536, 414.1066827372799, 475.62800421915995, 527.95443235756, 633.69913930024, 711.73556047672, 745.6928028841199, 800.1617304423601, 861.86159354256, 915.5202168330399, 979.4449831769199, 991.60641417864, 997.6699622161999, 1015.82627140228, 1052.7363174972797, 1058.5389200926797, 1109.8078324918, 1173.8974064833599, 1201.1112693065197, 1232.0058362611999, 1316.04400260736, 1349.7815014845198, 1404.03755249784, 1462.1391152903598, 1476.8481978457999, 1495.6225357106798, 1530.4999541509599, 1640.12450779944, 1663.1975784746398, 3015.0391755551595, 3079.01201079628, 3101.6387274256795, 3145.0724095746796, 3146.5282104625194, 3159.5205466879593, 3168.9077156204, 3181.02107772488]

>  <ZPE_kJmol>  (2) 
333.8911077236124

>  <E_elec_kJmol>  (2) 
-713001.30994406

>  <E0_minus_Eelec_plus_ZPE_kJmol>  (2) 
0.0

>  <rxn>  (2) 
rxn_1922

>  <species_type>  (2) 
p0

>  <species_folder>  (2) 
rxn_1922_Cc1ccccc1

>  <frequencies_cm1_list>  (2) 
[32.64564821128, 208.88682644908, 346.6454189536, 414.1066827372799, 475.62800421915995, 527.95443235756, 633.69913930024, 711.73556047672, 745.6928028841199, 800.1617304423601, 861.86159354256, 915.5202168330399, 979.4449831769199, 991.60641417864, 997.6699622161999, 1015.82627140228, 1052.7363174972797, 1058.5389200926797, 1109.8078324918, 1173.8974064833599, 1201.1112693065197, 1232.0058362611999, 1316.04400260736, 1349.7815014845198, 1404.03755249784, 1462.1391152903598, 1476.8481978457999, 1495.6225357106798, 1530.4999541509599, 1640.12450779944, 1663.1975784746398, 3015.0391755551595, 3079.01201079628, 3101.6387274256795, 3145.0724095746796, 3146.5282104625194, 3159.5205466879593, 3168.9077156204, 3181.02107772488]

>  <E0_kJmol>  (2) 
-712667

>  <H298_kJmol>  (2) 
-712649

$$$$

     RDKit          3D

 26 25  0  0  0  0  0  0  0  0999 V2000
    0.3785    2.1236   -2.8407 C   0  0  0  0  0  0  0  0  0  1  0  0
    0.8054    1.2652   -1.6775 C   0  0  0  0  0  3  0  0  0  2  0  0
    2.2797    0.2883   -1.9371 S   0  0  0  0  0  0  0  0  0  3  0  0
    0.8618    1.9684   -0.3437 C   0  0  0  0  0  0  0  0  0  4  0  0
    0.2490    1.5333   -3.7497 H   0  0  0  0  0  0  0  0  0  5  0  0
    1.1167    2.9046   -3.0475 H   0  0  0  0  0  0  0  0  0  6  0  0
   -0.5744    2.6082   -2.6141 H   0  0  0  0  0  0  0  0  0  7  0  0
   -0.1948    0.3784   -1.5115 H   0  0  0  0  0  0  0  0  0  8  0  0
    1.9822   -0.1388   -3.1718 H   0  0  0  0  0  0  0  0  0  9  0  0
   -0.1057    2.4264   -0.1286 H   0  0  0  0  0  0  0  0  0 10  0  0
    1.6186    2.7597   -0.3428 H   0  0  0  0  0  0  0  0  0 11  0  0
    1.0873    1.2732    0.4665 H   0  0  0  0  0  0  0  0  0 12  0  0
   -1.1658   -0.5125   -1.2437 C   0  0  0  0  0  0  0  0  0 13  0  0
   -1.0982   -0.7351    0.1988 C   0  0  0  0  0  0  0  0  0 14  0  0
   -0.1401   -1.5971    0.7441 C   0  0  0  0  0  0  0  0  0 15  0  0
   -0.0143   -1.7461    2.1140 C   0  0  0  0  0  0  0  0  0 16  0  0
   -0.8415   -1.0378    2.9753 C   0  0  0  0  0  0  0  0  0 17  0  0
   -1.7984   -0.1801    2.4503 C   0  0  0  0  0  0  0  0  0 18  0  0
   -1.9235   -0.0292    1.0805 C   0  0  0  0  0  0  0  0  0 19  0  0
   -2.0742   -0.0381   -1.6071 H   0  0  0  0  0  0  0  0  0 20  0  0
   -0.8435   -1.3453   -1.8644 H   0  0  0  0  0  0  0  0  0 21  0  0
    0.5174   -2.1430    0.0777 H   0  0  0  0  0  0  0  0  0 22  0  0
    0.7346   -2.4185    2.5138 H   0  0  0  0  0  0  0  0  0 23  0  0
   -0.7430   -1.1555    4.0468 H   0  0  0  0  0  0  0  0  0 24  0  0
   -2.4513    0.3737    3.1137 H   0  0  0  0  0  0  0  0  0 25  0  0
   -2.6719    0.6447    0.6790 H   0  0  0  0  0  0  0  0  0 26  0  0
  1  7  1  0
  1  5  1  0
  1  6  1  0
  1  2  1  0
  2  3  1  0
  2  4  1  0
  3  9  1  0
  4 10  1  0
  4 11  1  0
  4 12  1  0
  8 13  1  0
 13 21  1  0
 13 20  1  0
 13 14  1  0
 14 15  1  0
 14 19  1  0
 15 16  1  0
 15 22  1  0
 16 17  1  0
 16 23  1  0
 17 18  1  0
 17 24  1  0
 18 19  1  0
 18 25  1  0
 19 26  1  0
M  RAD  1   2   2
M  END
>  <rmg_smiles>  (3) 
C[C]1[CH][CH][CH][CH][CH]1.C[C](S)C

>  <rmg_adjacency_list>  (3) 
multiplicity 2
1  S u0 p2 c0 {6,S} {26,S}
2  C u0 p0 c0 {6,S} {12,S} {13,S} {14,S}
3  C u0 p0 c0 {6,S} {16,S} {17,S} {18,S}
4  C u0 p0 c0 {5,S} {15,S} {19,S} {20,S}
5  C u0 p0 c0 {4,S} {7,S} {8,S}
6  C u1 p0 c0 {1,S} {2,S} {3,S}
7  C u0 p0 c0 {5,S} {9,S} {21,S}
8  C u0 p0 c0 {5,S} {11,S} {25,S}
9  C u0 p0 c0 {7,S} {10,S} {22,S}
10 C u0 p0 c0 {9,S} {11,S} {23,S}
11 C u0 p0 c0 {8,S} {10,S} {24,S}
12 H u0 p0 c0 {2,S}
13 H u0 p0 c0 {2,S}
14 H u0 p0 c0 {2,S}
15 H u0 p0 c0 {4,S}
16 H u0 p0 c0 {3,S}
17 H u0 p0 c0 {3,S}
18 H u0 p0 c0 {3,S}
19 H u0 p0 c0 {4,S}
20 H u0 p0 c0 {4,S}
21 H u0 p0 c0 {7,S}
22 H u0 p0 c0 {9,S}
23 H u0 p0 c0 {10,S}
24 H u0 p0 c0 {11,S}
25 H u0 p0 c0 {8,S}
26 H u0 p0 c0 {1,S}


>  <multiplicity>  (3) 
2

>  <reaction>  (3) 
rxn_1922

>  <type>  (3) 
ts

>  <role_mapnums>  (3) 
{"*2": 8, "*1": 2, "*3": 13, "*0": 14, "*4": 3}

>  <role_mapidx>  (3) 
{"*2": 7, "*1": 1, "*3": 12, "*0": 13, "*4": 2}

>  <ordered_mapped_smiles>  (3) 
[C:1]([C:2]([S:3][H:9])[C:4]([H:10])([H:11])[H:12])([H:5])([H:6])[H:7].[H:8][C:13]([CH:14]1[CH:15]([H:22])[CH:16]([H:23])[CH:17]([H:24])[CH:18]([H:25])[CH:19]1[H:26])([H:20])[H:21]

>  <mol_properties>  (3) 
{"1": {"label": "*1", "atom_type": "Cs"}, "2": {"label": "*4", "atom_type": "S2s"}, "7": {"label": "*2", "atom_type": "H0"}, "12": {"label": "*3", "atom_type": "Cs"}, "13": {"label": "*0", "atom_type": "Cs"}}

>  <level_of_theory>  (3) 
wb97xd/def2tzvp

>  <lot_method>  (3) 
wb97xd

>  <lot_basis>  (3) 
def2tzvp

>  <spin_multiplicity>  (3) 
2.0

>  <optical_isomers>  (3) 
2.0

>  <modes>  (3) 
IdealGasTranslation(mass=(167.089, 'amu')),         NonlinearRotor(             inertia = ([306.878, 1000.06, 1085.95

>  <frequency_value>  (3) 
-1727.28

>  <frequency_units>  (3) 
cm^-1

>  <frequency_list>  (3) 
unknown

>  <arkane_path>  (3) 
/home/calvin/Dropbox/PersonalFolders/Calvin/HAb_Converged/rxn_1922/output/rxns/TS0/arkane/output.py

>  <path_exists>  (3) 
True

>  <E0_value>  (3) 
-2068960.0

>  <E0_units>  (3) 
kJ/mol

>  <thermo_class>  (3) 
unknown

>  <Cp0_value>  (3) 
unknown

>  <Cp0_units>  (3) 
unknown

>  <CpInf_value>  (3) 
unknown

>  <CpInf_units>  (3) 
unknown

>  <Tmin_value>  (3) 
unknown

>  <Tmin_units>  (3) 
unknown

>  <Tmax_value>  (3) 
unknown

>  <Tmax_units>  (3) 
unknown

>  <polynomials>  (3) 
unknown

>  <H298_value>  (3) 
unknown

>  <H298_units>  (3) 
unknown

>  <S298_value>  (3) 
unknown

>  <S298_units>  (3) 
unknown

>  <Cp_T_value_list>  (3) 
unknown

>  <Cp_T_units>  (3) 
unknown

>  <T_list>  (3) 
unknown

>  <T_units>  (3) 
unknown

>  <yaml_path>  (3) 
unknown

>  <frequencies_cm1>  (3) 
unknown

>  <ZPE_kJmol>  (3) 
unknown

>  <E_elec_kJmol>  (3) 
unknown

>  <E0_minus_Eelec_plus_ZPE_kJmol>  (3) 
unknown

>  <rxn>  (3) 
unknown

>  <species_type>  (3) 
unknown

>  <species_folder>  (3) 
unknown

>  <frequencies_cm1_list>  (3) 
[]

>  <ts_imag_freq_cm1>  (3) 
-1748.2584

>  <ts_freq_out_path>  (3) 
/home/calvin/Dropbox/PersonalFolders/Calvin/HAb_Converged/rxn_1922/output/rxns/TS0/geometry/freq.out

>  <E0_kJmol>  (3) 
-2.06896e+06

>  <H298_kJmol>  (3) 
unknown

$$$$

     RDKit          3D

 11 10  0  0  0  0  0  0  0  0999 V2000
    1.0781   -1.0166   -0.1159 C   0  0  0  0  0  0  0  0  0  1  0  0
    0.2180    0.1942   -0.2297 C   0  0  0  0  0  3  0  0  0  2  0  0
    0.9343    1.7769   -0.3011 S   0  0  0  0  0  0  0  0  0  3  0  0
   -1.1949    0.1490    0.2439 C   0  0  0  0  0  0  0  0  0  4  0  0
    1.4718   -1.1461    0.9024 H   0  0  0  0  0  0  0  0  0  5  0  0
    1.9367   -0.9751   -0.7902 H   0  0  0  0  0  0  0  0  0  6  0  0
    0.5033   -1.9136   -0.3576 H   0  0  0  0  0  0  0  0  0  7  0  0
    2.1166    1.4195   -0.8209 H   0  0  0  0  0  0  0  0  0  8  0  0
   -1.2620    0.0939    1.3399 H   0  0  0  0  0  0  0  0  0  9  0  0
   -1.7600    1.0270   -0.0739 H   0  0  0  0  0  0  0  0  0 10  0  0
   -1.6972   -0.7380   -0.1506 H   0  0  0  0  0  0  0  0  0 11  0  0
  1  5  1  0
  1  7  1  0
  1  6  1  0
  1  2  1  0
  2  3  1  0
  2  4  1  0
  3  8  1  0
  4  9  1  0
  4 10  1  0
  4 11  1  0
M  RAD  1   2   2
M  END
>  <rmg_smiles>  (4) 
C[C](S)C

>  <rmg_adjacency_list>  (4) 
multiplicity 2
1  S u0 p2 c0 {4,S} {11,S}
2  C u0 p0 c0 {4,S} {5,S} {6,S} {7,S}
3  C u0 p0 c0 {4,S} {8,S} {9,S} {10,S}
4  C u1 p0 c0 {1,S} {2,S} {3,S}
5  H u0 p0 c0 {2,S}
6  H u0 p0 c0 {2,S}
7  H u0 p0 c0 {2,S}
8  H u0 p0 c0 {3,S}
9  H u0 p0 c0 {3,S}
10 H u0 p0 c0 {3,S}
11 H u0 p0 c0 {1,S}


>  <multiplicity>  (4) 
2

>  <reaction>  (4) 
rxn_1922

>  <type>  (4) 
r1

>  <role_mapnums>  (4) 
{}

>  <role_mapidx>  (4) 
{}

>  <ordered_mapped_smiles>  (4) 
[C:1]([C:2]([S:3][H:8])[C:4]([H:9])([H:10])[H:11])([H:5])([H:6])[H:7]

>  <level_of_theory>  (4) 
wb97xd/def2tzvp

>  <lot_method>  (4) 
wb97xd

>  <lot_basis>  (4) 
def2tzvp

>  <spin_multiplicity>  (4) 
2.0

>  <optical_isomers>  (4) 
2.0

>  <modes>  (4) 
IdealGasTranslation(mass=(75.0268, 'amu')),         NonlinearRotor(             inertia = ([61.999, 107.328, 162.226

>  <frequency_value>  (4) 
unknown

>  <frequency_units>  (4) 
unknown

>  <frequency_list>  (4) 
unknown

>  <arkane_path>  (4) 
/home/calvin/Dropbox/PersonalFolders/Calvin/HAb_Converged/rxn_1922/output/Species/rxn_1922_C[C][S]C/arkane/output.py

>  <path_exists>  (4) 
True

>  <E0_value>  (4) 
-1356347.4134395572

>  <E0_units>  (4) 
kJ/mol

>  <thermo_class>  (4) 
NASA

>  <Cp0_value>  (4) 
33.257888

>  <Cp0_units>  (4) 
J/(mol*K)

>  <CpInf_value>  (4) 
257.748632

>  <CpInf_units>  (4) 
J/(mol*K)

>  <Tmin_value>  (4) 
10.0

>  <Tmin_units>  (4) 
K

>  <Tmax_value>  (4) 
3000.0

>  <Tmax_units>  (4) 
K

>  <polynomials>  (4) 
[{"name": "polynomial1", "class": "NASAPolynomial", "Tmin_value": 10.0, "Tmin_units": "K", "Tmax_value": 631.511036458598, "Tmax_units": "K", "coeffs": [3.630144501923197, 0.030233799754007962, -1.5729865197854517e-05, 1.0342555122076897e-08, -6.278675853253594e-12, -163130908.91812575, 11.085422231430835]}, {"name": "polynomial2", "class": "NASAPolynomial", "Tmin_value": 631.511036458598, "Tmin_units": "K", "Tmax_value": 3000.0, "Tmax_units": "K", "coeffs": [2.121241242594707, 0.035971217312262126, -2.0284227742328106e-05, 5.57187370145946e-09, -5.981486451043817e-13, -163130642.16838282, 18.274548777693933]}]

>  <H298_value>  (4) 
-324170.22635589016

>  <H298_units>  (4) 
kcal/mol

>  <S298_value>  (4) 
79.79982372204114

>  <S298_units>  (4) 
cal/(mol*K)

>  <Cp_T_value_list>  (4) 
[22.878685143927463, 27.24077654618155, 31.22891087325513, 34.831653006690544, 40.78563883173169, 45.27245080713911, 52.09561404746616, 55.50541234106847, 57.22251846881106]

>  <Cp_T_units>  (4) 
cal/(mol*K)

>  <T_list>  (4) 
[300.0, 400.0, 500.0, 600.0, 800.0, 1000.0, 1500.0, 2000.0, 2400.0]

>  <T_units>  (4) 
K

>  <yaml_path>  (4) 
/home/calvin/Dropbox/PersonalFolders/Calvin/HAb_Converged/rxn_1922/output/Species/rxn_1922_C[C][S]C/rxn_1922_CCSC.yml

>  <frequencies_cm1>  (4) 
[136.00751124791998, 145.49081797484, 227.77790306439996, 252.01836124399998, 317.69420884448, 349.40594705224, 628.3497577359599, 911.91504954004, 945.1100565769199, 959.9015429561998, 985.2063838604, 1047.7989550522, 1210.77998463708, 1266.96565852532, 1390.69500002108, 1406.7156767726399, 1455.1279232786399, 1462.5374004389198, 1466.95287199968, 1477.52802939248, 2689.0427814587997, 2949.1641853804, 2953.29124355772, 3034.22553253924, 3035.0633047482797, 3077.07552093604, 3083.7982995643197]

>  <ZPE_kJmol>  (4) 
232.4682179533116

>  <E_elec_kJmol>  (4) 
-1356579.8816575103

>  <E0_minus_Eelec_plus_ZPE_kJmol>  (4) 
0.0

>  <rxn>  (4) 
rxn_1922

>  <species_type>  (4) 
p1

>  <species_folder>  (4) 
rxn_1922_C[C][S]C

>  <frequencies_cm1_list>  (4) 
[136.00751124791998, 145.49081797484, 227.77790306439996, 252.01836124399998, 317.69420884448, 349.40594705224, 628.3497577359599, 911.91504954004, 945.1100565769199, 959.9015429561998, 985.2063838604, 1047.7989550522, 1210.77998463708, 1266.96565852532, 1390.69500002108, 1406.7156767726399, 1455.1279232786399, 1462.5374004389198, 1466.95287199968, 1477.52802939248, 2689.0427814587997, 2949.1641853804, 2953.29124355772, 3034.22553253924, 3035.0633047482797, 3077.07552093604, 3083.7982995643197]

>  <E0_kJmol>  (4) 
-1.35635e+06

>  <H298_kJmol>  (4) 
-1.35633e+06

$$$$

     RDKit          3D

 14 14  0  0  0  0  0  0  0  0999 V2000
    2.3111    0.1295    0.0255 C   0  0  0  0  0  0  0  0  0  1  0  0
    0.9132    0.0511    0.0101 C   0  0  0  0  0  0  0  0  0  2  0  0
    0.1101    1.2180   -0.0350 C   0  0  0  0  0  3  0  0  0  3  0  0
   -1.2644    1.1347   -0.0499 C   0  0  0  0  0  0  0  0  0  4  0  0
   -1.8967   -0.1062   -0.0209 C   0  0  0  0  0  0  0  0  0  5  0  0
   -1.1306   -1.2689    0.0235 C   0  0  0  0  0  0  0  0  0  6  0  0
    0.2446   -1.1981    0.0389 C   0  0  0  0  0  0  0  0  0  7  0  0
    2.9188   -0.7647    0.0599 H   0  0  0  0  0  0  0  0  0  8  0  0
    2.8158    1.0859    0.0034 H   0  0  0  0  0  0  0  0  0  9  0  0
    0.5964    2.1860   -0.0577 H   0  0  0  0  0  0  0  0  0 10  0  0
   -1.8572    2.0404   -0.0845 H   0  0  0  0  0  0  0  0  0 11  0  0
   -2.9772   -0.1668   -0.0328 H   0  0  0  0  0  0  0  0  0 12  0  0
   -1.6191   -2.2351    0.0461 H   0  0  0  0  0  0  0  0  0 13  0  0
    0.8353   -2.1058    0.0735 H   0  0  0  0  0  0  0  0  0 14  0  0
  1  8  1  0
  1  9  1  0
  1  2  1  0
  2  7  1  0
  2  3  1  0
  3  4  1  0
  3 10  1  0
  4  5  1  0
  4 11  1  0
  5 12  1  0
  5  6  1  0
  6 13  1  0
  6  7  1  0
  7 14  1  0
M  RAD  1   3   2
M  END
>  <rmg_smiles>  (5) 
[CH2]C1[CH][CH][CH][CH][CH]1

>  <rmg_adjacency_list>  (5) 
multiplicity 2
1  C u0 p0 c0 {2,S} {3,S} {7,S}
2  C u1 p0 c0 {1,S} {4,S} {8,S}
3  C u0 p0 c0 {1,S} {6,S} {12,S}
4  C u0 p0 c0 {2,S} {5,S} {9,S}
5  C u0 p0 c0 {4,S} {6,S} {10,S}
6  C u0 p0 c0 {3,S} {5,S} {11,S}
7  C u0 p0 c0 {1,S} {13,S} {14,S}
8  H u0 p0 c0 {2,S}
9  H u0 p0 c0 {4,S}
10 H u0 p0 c0 {5,S}
11 H u0 p0 c0 {6,S}
12 H u0 p0 c0 {3,S}
13 H u0 p0 c0 {7,S}
14 H u0 p0 c0 {7,S}


>  <multiplicity>  (5) 
2

>  <reaction>  (5) 
rxn_1922

>  <type>  (5) 
r2

>  <role_mapnums>  (5) 
{}

>  <role_mapidx>  (5) 
{}

>  <ordered_mapped_smiles>  (5) 
[CH:1]([CH:2]1[C:3]([H:10])[CH:4]([H:11])[CH:5]([H:12])[CH:6]([H:13])[CH:7]1[H:14])([H:8])[H:9]

>  <level_of_theory>  (5) 
wb97xd/def2tzvp

>  <lot_method>  (5) 
wb97xd

>  <lot_basis>  (5) 
def2tzvp

>  <spin_multiplicity>  (5) 
2.0

>  <optical_isomers>  (5) 
1.0

>  <modes>  (5) 
IdealGasTranslation(mass=(91.0548, 'amu')),         NonlinearRotor(             inertia = ([90.2688, 184.999, 275.268

>  <frequency_value>  (5) 
unknown

>  <frequency_units>  (5) 
unknown

>  <frequency_list>  (5) 
unknown

>  <arkane_path>  (5) 
/home/calvin/Dropbox/PersonalFolders/Calvin/HAb_Converged/rxn_1922/output/Species/rxn_1922_[CH2]c1ccccc1/arkane/output.py

>  <path_exists>  (5) 
True

>  <E0_value>  (5) 
-710982.0438002025

>  <E0_units>  (5) 
kJ/mol

>  <thermo_class>  (5) 
NASA

>  <Cp0_value>  (5) 
33.257888

>  <Cp0_units>  (5) 
J/(mol*K)

>  <CpInf_value>  (5) 
332.57888

>  <CpInf_units>  (5) 
J/(mol*K)

>  <Tmin_value>  (5) 
10.0

>  <Tmin_units>  (5) 
K

>  <Tmax_value>  (5) 
3000.0

>  <Tmax_units>  (5) 
K

>  <polynomials>  (5) 
[{"name": "polynomial1", "class": "NASAPolynomial", "Tmin_value": 10.0, "Tmin_units": "K", "Tmax_value": 553.7998966986338, "Tmax_units": "K", "coeffs": [4.142730174563545, -0.01421534761620498, 0.00025735365439343114, -4.62233170401337e-07, 2.662042315532734e-10, -85511384.95879665, 10.48942282580581]}, {"name": "polynomial2", "class": "NASAPolynomial", "Tmin_value": 553.7998966986338, "Tmin_units": "K", "Tmax_value": 3000.0, "Tmax_units": "K", "coeffs": [-0.802653885777119, 0.05801356973500407, -3.7170205379282217e-05, 1.1357137676167264e-08, -1.325406392253103e-12, -85511397.0674787, 26.370850651533466]}]

>  <H298_value>  (5) 
-169924.63215823995

>  <H298_units>  (5) 
kcal/mol

>  <S298_value>  (5) 
74.97564978357416

>  <S298_units>  (5) 
cal/(mol*K)

>  <Cp_T_value_list>  (5) 
[25.269145893020568, 33.51439910532929, 40.205337073227675, 45.518123621257814, 53.835885249092485, 59.76015175288975, 67.97281251816678, 71.92547512912957, 74.23567305127965]

>  <Cp_T_units>  (5) 
cal/(mol*K)

>  <T_list>  (5) 
[300.0, 400.0, 500.0, 600.0, 800.0, 1000.0, 1500.0, 2000.0, 2400.0]

>  <T_units>  (5) 
K

>  <yaml_path>  (5) 
/home/calvin/Dropbox/PersonalFolders/Calvin/HAb_Converged/rxn_1922/output/Species/rxn_1922_[CH2]c1ccccc1/rxn_1922_CH2c1ccccc1.yml

>  <frequencies_cm1>  (5) 
[199.14257428, 361.66351584843994, 391.39069529872, 479.08896482043997, 504.48994351911995, 531.9510178137999, 625.3076832392, 685.2633320681199, 712.90294798112, 777.3702061652799, 832.74557578576, 837.1061114639599, 906.45579621064, 969.8312037289198, 974.4320838933199, 983.6750461340399, 991.86049263548, 1038.2744464133598, 1114.8275987607199, 1165.86303365896, 1178.56008951564, 1276.5588370173598, 1315.83799304776, 1345.5102366154802, 1473.0507549638398, 1482.88427794208, 1496.6388495380397, 1589.4255551818799, 1604.1003028107198, 3131.0156906246402, 3150.1883136380793, 3152.48875372028, 3164.5952488394396, 3170.66566386232, 3183.63053214648, 3230.1131557775598]

>  <ZPE_kJmol>  (5) 
299.239399464945

>  <E_elec_kJmol>  (5) 
-711281.2831996675

>  <E0_minus_Eelec_plus_ZPE_kJmol>  (5) 
0.0

>  <rxn>  (5) 
rxn_1922

>  <species_type>  (5) 
r1

>  <species_folder>  (5) 
rxn_1922_[CH2]c1ccccc1

>  <frequencies_cm1_list>  (5) 
[199.14257428, 361.66351584843994, 391.39069529872, 479.08896482043997, 504.48994351911995, 531.9510178137999, 625.3076832392, 685.2633320681199, 712.90294798112, 777.3702061652799, 832.74557578576, 837.1061114639599, 906.45579621064, 969.8312037289198, 974.4320838933199, 983.6750461340399, 991.86049263548, 1038.2744464133598, 1114.8275987607199, 1165.86303365896, 1178.56008951564, 1276.5588370173598, 1315.83799304776, 1345.5102366154802, 1473.0507549638398, 1482.88427794208, 1496.6388495380397, 1589.4255551818799, 1604.1003028107198, 3131.0156906246402, 3150.1883136380793, 3152.48875372028, 3164.5952488394396, 3170.66566386232, 3183.63053214648, 3230.1131557775598]

>  <E0_kJmol>  (5) 
-710982

>  <H298_kJmol>  (5) 
-710965

$$$$
