
     RDKit          3D

 25 26  0  0  0  0  0  0  0  0999 V2000
   -1.2753   -1.8931    0.5613 C   0  0  0  0  0  0  0  0  0  1  0  0
   -0.1944   -1.6826    1.6249 C   0  0  0  0  0  0  0  0  0  2  0  0
    1.0393   -0.9637    1.0703 C   0  0  0  0  0  0  0  0  0  3  0  0
    0.6125    0.3304    0.4028 C   0  0  0  0  0  0  0  0  0  4  0  0
    1.6590    1.1874   -0.3036 C   0  0  0  0  0  0  0  0  0  5  0  0
    0.8167    2.0865   -1.1918 C   0  0  0  0  0  0  0  0  0  6  0  0
   -0.5534    1.4462   -1.3714 C   0  0  0  0  0  0  0  0  0  7  0  0
   -0.4153    0.0769   -0.7003 C   0  0  0  0  0  0  0  0  0  8  0  0
   -1.6613   -0.5908   -0.1462 C   0  0  0  0  0  0  0  0  0  9  0  0
   -0.9048   -2.6030   -0.1867 H   0  0  0  0  0  0  0  0  0 10  0  0
   -2.1564   -2.3519    1.0156 H   0  0  0  0  0  0  0  0  0 11  0  0
   -0.6113   -1.0828    2.4415 H   0  0  0  0  0  0  0  0  0 12  0  0
    0.0906   -2.6439    2.0584 H   0  0  0  0  0  0  0  0  0 13  0  0
    1.7587   -0.7756    1.8717 H   0  0  0  0  0  0  0  0  0 14  0  0
    1.5418   -1.6028    0.3344 H   0  0  0  0  0  0  0  0  0 15  0  0
    0.1217    0.9590    1.1579 H   0  0  0  0  0  0  0  0  0 16  0  0
    2.2957    1.7484    0.3866 H   0  0  0  0  0  0  0  0  0 17  0  0
    2.3219    0.5532   -0.9057 H   0  0  0  0  0  0  0  0  0 18  0  0
    0.6320    2.9630   -0.5760 H   0  0  0  0  0  0  0  0  0 19  0  0
    1.2942    2.5199   -2.0668 H   0  0  0  0  0  0  0  0  0 20  0  0
   -0.8572    1.3809   -2.4179 H   0  0  0  0  0  0  0  0  0 21  0  0
   -1.3236    2.0296   -0.8512 H   0  0  0  0  0  0  0  0  0 22  0  0
    0.0485   -0.6107   -1.4217 H   0  0  0  0  0  0  0  0  0 23  0  0
   -2.3871   -0.7921   -0.9386 H   0  0  0  0  0  0  0  0  0 24  0  0
   -2.1440    0.0905    0.5643 H   0  0  0  0  0  0  0  0  0 25  0  0
  1 11  1  0
  1 10  1  0
  1  9  1  0
  1  2  1  0
  2 12  1  0
  2 13  1  0
  2  3  1  0
  3 15  1  0
  3  4  1  0
  3 14  1  0
  4  5  1  0
  4  8  1  0
  4 16  1  0
  5 18  1  0
  5 17  1  0
  5  6  1  0
  6  7  1  0
  6 19  1  0
  6 20  1  0
  7 21  1  0
  7  8  1  0
  7 22  1  0
  8 23  1  0
  8  9  1  0
  9 24  1  0
  9 25  1  0
M  END
>  <rmg_smiles>  (1) 
C1CCC2CCCC2C1

>  <rmg_adjacency_list>  (1) 
1  C u0 p0 c0 {2,S} {3,S} {4,S} {10,S}
2  C u0 p0 c0 {1,S} {5,S} {6,S} {11,S}
3  C u0 p0 c0 {1,S} {8,S} {16,S} {17,S}
4  C u0 p0 c0 {1,S} {9,S} {18,S} {19,S}
5  C u0 p0 c0 {2,S} {9,S} {22,S} {23,S}
6  C u0 p0 c0 {2,S} {7,S} {24,S} {25,S}
7  C u0 p0 c0 {6,S} {8,S} {12,S} {13,S}
8  C u0 p0 c0 {3,S} {7,S} {14,S} {15,S}
9  C u0 p0 c0 {4,S} {5,S} {20,S} {21,S}
10 H u0 p0 c0 {1,S}
11 H u0 p0 c0 {2,S}
12 H u0 p0 c0 {7,S}
13 H u0 p0 c0 {7,S}
14 H u0 p0 c0 {8,S}
15 H u0 p0 c0 {8,S}
16 H u0 p0 c0 {3,S}
17 H u0 p0 c0 {3,S}
18 H u0 p0 c0 {4,S}
19 H u0 p0 c0 {4,S}
20 H u0 p0 c0 {9,S}
21 H u0 p0 c0 {9,S}
22 H u0 p0 c0 {5,S}
23 H u0 p0 c0 {5,S}
24 H u0 p0 c0 {6,S}
25 H u0 p0 c0 {6,S}


>  <multiplicity>  (1) 
1

>  <reaction>  (1) 
rxn_604

>  <type>  (1) 
r1h

>  <role_mapnums>  (1) 
{"r1h_a": 6, "r1h_h": 19}

>  <role_mapidx>  (1) 
{"r1h_a": 5, "r1h_h": 18}

>  <ordered_mapped_smiles>  (1) 
[C:1]1([H:10])([H:11])[C:2]([H:12])([H:13])[C:3]([H:14])([H:15])[C:4]2([H:16])[C:5]([H:17])([H:18])[C:6]([H:19])([H:20])[C:7]([H:21])([H:22])[C:8]2([H:23])[C:9]1([H:24])[H:25]

>  <mol_properties>  (1) 
{"5": {"label": "donator", "atom_type": "Cs"}, "18": {"label": "d_hydrogen", "atom_type": "H0"}}

>  <level_of_theory>  (1) 
wb97xd/def2tzvp

>  <lot_method>  (1) 
wb97xd

>  <lot_basis>  (1) 
def2tzvp

>  <spin_multiplicity>  (1) 
1.0

>  <optical_isomers>  (1) 
2.0

>  <modes>  (1) 
IdealGasTranslation(mass=(124.125, 'amu')),         NonlinearRotor(             inertia = ([170.024, 375.242, 505.424

>  <frequency_value>  (1) 
unknown

>  <frequency_units>  (1) 
unknown

>  <frequency_list>  (1) 
unknown

>  <arkane_path>  (1) 
/home/calvin/Dropbox/PersonalFolders/Calvin/HAb_Converged/rxn_604/output/Species/rxn_604_C1CCC2CCCC2C1/arkane/output.py

>  <path_exists>  (1) 
True

>  <E0_value>  (1) 
-925233.0049241188

>  <E0_units>  (1) 
kJ/mol

>  <thermo_class>  (1) 
NASA

>  <Cp0_value>  (1) 
33.257888

>  <Cp0_units>  (1) 
J/(mol*K)

>  <CpInf_value>  (1) 
606.956456

>  <CpInf_units>  (1) 
J/(mol*K)

>  <Tmin_value>  (1) 
10.0

>  <Tmin_units>  (1) 
K

>  <Tmax_value>  (1) 
3000.0

>  <Tmax_units>  (1) 
K

>  <polynomials>  (1) 
[{"name": "polynomial1", "class": "NASAPolynomial", "Tmin_value": 10.0, "Tmin_units": "K", "Tmax_value": 492.86414085374884, "Tmax_units": "K", "coeffs": [4.007994789865864, -0.0014434969438387518, 0.0002774235318770471, -4.47143959124011e-07, 2.345687014006794e-10, -111279824.80461533, 12.742603075803766]}, {"name": "polynomial2", "class": "NASAPolynomial", "Tmin_value": 492.86414085374884, "Tmin_units": "K", "Tmax_value": 3000.0, "Tmax_units": "K", "coeffs": [-9.95853370242537, 0.11191389639895702, -6.759505783925652e-05, 1.9571966588871765e-08, -2.183492026273649e-12, -111278448.17509678, 70.24048730977755]}]

>  <H298_value>  (1) 
-221130.41480672767

>  <H298_units>  (1) 
kcal/mol

>  <S298_value>  (1) 
87.40258332007863

>  <S298_units>  (1) 
cal/(mol*K)

>  <Cp_T_value_list>  (1) 
[36.50534740058796, 50.089738669944325, 62.417515537946755, 73.12949241055418, 90.29515590280347, 102.83551087971135, 120.87161605712708, 129.42454969138163, 133.951878152645]

>  <Cp_T_units>  (1) 
cal/(mol*K)

>  <T_list>  (1) 
[300.0, 400.0, 500.0, 600.0, 800.0, 1000.0, 1500.0, 2000.0, 2400.0]

>  <T_units>  (1) 
K

>  <yaml_path>  (1) 
/home/calvin/Dropbox/PersonalFolders/Calvin/HAb_Converged/rxn_604/output/Species/rxn_604_C1CCC2CCCC2C1/rxn_604_C1CCC2CCCC2C1.yml

>  <frequencies_cm1>  (1) 
[79.74630052116, 161.44969185852, 192.46099756363998, 319.95344701476, 325.08995203411996, 337.32691987436, 425.16252910247994, 470.50523317043996, 497.06673238819997, 579.3538174777599, 623.59780389452, 769.3495673115199, 782.1839628746, 837.42199278868, 848.74565158136, 873.0204446875598, 907.5545138618398, 921.7142375916799, 922.5451428153999, 945.43967187228, 987.1978096031999, 1015.3867843418, 1044.03584709684, 1066.28487953364, 1072.4857672776, 1096.98030391404, 1116.2696656779199, 1122.75209982, 1142.3985448205199, 1202.0657802659998, 1207.82031396416, 1217.5508321625998, 1256.61711164808, 1262.63945777372, 1284.5314069738797, 1286.2687542598399, 1313.97704002604, 1316.9847795961998, 1320.6311488011202, 1339.9411115209598, 1339.9754464475598, 1365.2322184545199, 1368.74811493836, 1376.8580246012798, 1398.55083122716, 1401.5036349147601, 1472.50826312356, 1476.82072990452, 1478.06365424744, 1478.81215564732, 1486.92206531024, 1491.0628574582, 1506.3831017071197, 2950.4551786205598, 2962.34193020948, 2991.31374127456, 2991.7532283350397, 2996.8759993837602, 3001.07172741428, 3015.06664349644, 3015.65720423396, 3043.90798184044, 3044.3474689009204, 3044.821290888, 3053.3088847435192, 3057.07199269888, 3062.7784574998, 3072.117557535, 3090.8781614292393]

>  <ZPE_kJmol>  (1) 
613.2521071062491

>  <E_elec_kJmol>  (1) 
-925846.257031225

>  <E0_minus_Eelec_plus_ZPE_kJmol>  (1) 
0.0

>  <rxn>  (1) 
rxn_604

>  <species_type>  (1) 
r1

>  <species_folder>  (1) 
rxn_604_C1CCC2CCCC2C1

>  <frequencies_cm1_list>  (1) 
[79.74630052116, 161.44969185852, 192.46099756363998, 319.95344701476, 325.08995203411996, 337.32691987436, 425.16252910247994, 470.50523317043996, 497.06673238819997, 579.3538174777599, 623.59780389452, 769.3495673115199, 782.1839628746, 837.42199278868, 848.74565158136, 873.0204446875598, 907.5545138618398, 921.7142375916799, 922.5451428153999, 945.43967187228, 987.1978096031999, 1015.3867843418, 1044.03584709684, 1066.28487953364, 1072.4857672776, 1096.98030391404, 1116.2696656779199, 1122.75209982, 1142.3985448205199, 1202.0657802659998, 1207.82031396416, 1217.5508321625998, 1256.61711164808, 1262.63945777372, 1284.5314069738797, 1286.2687542598399, 1313.97704002604, 1316.9847795961998, 1320.6311488011202, 1339.9411115209598, 1339.9754464475598, 1365.2322184545199, 1368.74811493836, 1376.8580246012798, 1398.55083122716, 1401.5036349147601, 1472.50826312356, 1476.82072990452, 1478.06365424744, 1478.81215564732, 1486.92206531024, 1491.0628574582, 1506.3831017071197, 2950.4551786205598, 2962.34193020948, 2991.31374127456, 2991.7532283350397, 2996.8759993837602, 3001.07172741428, 3015.06664349644, 3015.65720423396, 3043.90798184044, 3044.3474689009204, 3044.821290888, 3053.3088847435192, 3057.07199269888, 3062.7784574998, 3072.117557535, 3090.8781614292393]

>  <E0_kJmol>  (1) 
-925233

>  <H298_kJmol>  (1) 
-925210

$$$$

     RDKit          3D

 12 11  0  0  0  0  0  0  0  0999 V2000
   -1.0613   -0.5539    1.0915 C   0  0  0  0  0  0  0  0  0  1  0  0
    0.2427   -0.4671    0.8191 C   0  0  0  0  0  0  0  0  0  2  0  0
    0.8443    0.0716   -0.4016 C   0  0  0  0  0  0  0  0  0  3  0  0
   -0.0234    0.8823   -1.3334 C   0  0  0  0  0  0  0  0  0  4  0  0
   -1.4109   -1.0050    2.0110 H   0  0  0  0  0  0  0  0  0  5  0  0
   -1.8172   -0.1704    0.4166 H   0  0  0  0  0  0  0  0  0  6  0  0
    0.9439   -0.8683    1.5467 H   0  0  0  0  0  0  0  0  0  7  0  0
    1.8189    0.5248   -0.2179 H   0  0  0  0  0  0  0  0  0  8  0  0
   -0.4118    1.7785   -0.8413 H   0  0  0  0  0  0  0  0  0  9  0  0
    0.5430    1.1960   -2.2111 H   0  0  0  0  0  0  0  0  0 10  0  0
   -0.8800    0.3028   -1.6851 H   0  0  0  0  0  0  0  0  0 11  0  0
    1.1324   -0.7952   -0.9969 H   0  0  0  0  0  0  0  0  0 12  0  0
  1  5  1  0
  1  6  1  0
  1  2  1  0
  2  7  1  0
  2  3  1  0
  3  4  1  0
  3 12  1  0
  3  8  1  0
  4  9  1  0
  4 10  1  0
  4 11  1  0
M  END
>  <rmg_smiles>  (2) 
[CH2][CH]CC

>  <rmg_adjacency_list>  (2) 
1  C u0 p0 c0 {2,S} {3,S} {5,S} {6,S}
2  C u0 p0 c0 {1,S} {7,S} {8,S} {9,S}
3  C u0 p0 c0 {1,S} {4,S} {10,S}
4  C u0 p0 c0 {3,S} {11,S} {12,S}
5  H u0 p0 c0 {1,S}
6  H u0 p0 c0 {1,S}
7  H u0 p0 c0 {2,S}
8  H u0 p0 c0 {2,S}
9  H u0 p0 c0 {2,S}
10 H u0 p0 c0 {3,S}
11 H u0 p0 c0 {4,S}
12 H u0 p0 c0 {4,S}


>  <multiplicity>  (2) 
1

>  <reaction>  (2) 
rxn_604

>  <type>  (2) 
r2h

>  <role_mapnums>  (2) 
{"r2h_a": 3, "r2h_h": 12}

>  <role_mapidx>  (2) 
{"r2h_a": 2, "r2h_h": 11}

>  <ordered_mapped_smiles>  (2) 
[CH:1]([CH:2]([C:3]([C:4]([H:9])([H:10])[H:11])([H:8])[H:12])[H:7])([H:5])[H:6]

>  <mol_properties>  (2) 
{"2": {"label": "acceptor", "atom_type": "Cs"}, "11": {"label": "a_hydrogen", "atom_type": "H0"}}

>  <level_of_theory>  (2) 
wb97xd/def2tzvp

>  <lot_method>  (2) 
wb97xd

>  <lot_basis>  (2) 
def2tzvp

>  <spin_multiplicity>  (2) 
1.0

>  <optical_isomers>  (2) 
1.0

>  <modes>  (2) 
IdealGasTranslation(mass=(56.0626, 'amu')),         NonlinearRotor(             inertia = ([32.5109, 90.3514, 116.676

>  <frequency_value>  (2) 
unknown

>  <frequency_units>  (2) 
unknown

>  <frequency_list>  (2) 
unknown

>  <arkane_path>  (2) 
/home/calvin/Dropbox/PersonalFolders/Calvin/HAb_Converged/rxn_604/output/Species/rxn_604_C=CCC/arkane/output.py

>  <path_exists>  (2) 
True

>  <E0_value>  (2) 
-412516.9632903335

>  <E0_units>  (2) 
kJ/mol

>  <thermo_class>  (2) 
NASA

>  <Cp0_value>  (2) 
33.257888

>  <Cp0_units>  (2) 
J/(mol*K)

>  <CpInf_value>  (2) 
282.692048

>  <CpInf_units>  (2) 
J/(mol*K)

>  <Tmin_value>  (2) 
10.0

>  <Tmin_units>  (2) 
K

>  <Tmax_value>  (2) 
3000.0

>  <Tmax_units>  (2) 
K

>  <polynomials>  (2) 
[{"name": "polynomial1", "class": "NASAPolynomial", "Tmin_value": 10.0, "Tmin_units": "K", "Tmax_value": 488.655875950425, "Tmax_units": "K", "coeffs": [3.9518334489867755, 0.002738214948316711, 0.00010027883330171994, -1.6337813639818567e-07, 8.627420085348335e-11, -49614327.71326204, 8.65572399544736]}, {"name": "polynomial2", "class": "NASAPolynomial", "Tmin_value": 488.655875950425, "Tmin_units": "K", "Tmax_value": 3000.0, "Tmax_units": "K", "coeffs": [-1.0177998638327943, 0.04340046679206265, -2.4485281954071822e-05, 6.761443222838627e-09, -7.324004262046576e-13, -49613841.81296031, 29.07476490076061]}]

>  <H298_value>  (2) 
-98590.13440490302

>  <H298_units>  (2) 
kcal/mol

>  <S298_value>  (2) 
69.88440789589453

>  <S298_units>  (2) 
cal/(mol*K)

>  <Cp_T_value_list>  (2) 
[20.042973263550383, 25.523981497089775, 30.524522062075274, 34.9218382998611, 42.11657803113529, 47.54675281077259, 55.846682187635814, 60.04373230790421, 62.15783038221664]

>  <Cp_T_units>  (2) 
cal/(mol*K)

>  <T_list>  (2) 
[300.0, 400.0, 500.0, 600.0, 800.0, 1000.0, 1500.0, 2000.0, 2400.0]

>  <T_units>  (2) 
K

>  <yaml_path>  (2) 
/home/calvin/Dropbox/PersonalFolders/Calvin/HAb_Converged/rxn_604/output/Species/rxn_604_C=CCC/rxn_604_C=CCC.yml

>  <frequencies_cm1>  (2) 
[165.89949834588, 270.68969432907994, 288.28291071892, 546.5845635307201, 562.94858954828, 802.8192537611999, 842.75764038232, 950.1229558605198, 1001.7077495843599, 1030.7756984439197, 1035.6375240504801, 1103.34599930568, 1142.2200032022, 1284.9434260930798, 1326.2895447048, 1372.0442678919599, 1403.3508539658399, 1441.4282875652402, 1464.212944857, 1485.72034287924, 1496.3092342426798, 1714.90597793424, 3000.2545561612, 3017.2984137254402, 3025.2847176525997, 3087.5545405343596, 3095.4996425496, 3112.8387804825998, 3128.2208275993994, 3206.66926789508]

>  <ZPE_kJmol>  (2) 
283.55462469418285

>  <E_elec_kJmol>  (2) 
-412800.5179150276

>  <E0_minus_Eelec_plus_ZPE_kJmol>  (2) 
0.0

>  <rxn>  (2) 
rxn_604

>  <species_type>  (2) 
p0

>  <species_folder>  (2) 
rxn_604_C=CCC

>  <frequencies_cm1_list>  (2) 
[165.89949834588, 270.68969432907994, 288.28291071892, 546.5845635307201, 562.94858954828, 802.8192537611999, 842.75764038232, 950.1229558605198, 1001.7077495843599, 1030.7756984439197, 1035.6375240504801, 1103.34599930568, 1142.2200032022, 1284.9434260930798, 1326.2895447048, 1372.0442678919599, 1403.3508539658399, 1441.4282875652402, 1464.212944857, 1485.72034287924, 1496.3092342426798, 1714.90597793424, 3000.2545561612, 3017.2984137254402, 3025.2847176525997, 3087.5545405343596, 3095.4996425496, 3112.8387804825998, 3128.2208275993994, 3206.66926789508]

>  <E0_kJmol>  (2) 
-412517

>  <H298_kJmol>  (2) 
-412501

$$$$

     RDKit          3D

 36 36  0  0  0  0  0  0  0  0999 V2000
   -1.5021    2.3016    1.6143 C   0  0  0  0  0  0  0  0  0  1  0  0
   -0.1981    2.3885    1.3419 C   0  0  0  0  0  0  0  0  0  2  0  0
    0.4035    2.9272    0.1212 C   0  0  0  0  0  0  0  0  0  3  0  0
   -0.4642    3.7379   -0.8106 C   0  0  0  0  0  0  0  0  0  4  0  0
   -1.8517    1.8505    2.5338 H   0  0  0  0  0  0  0  0  0  5  0  0
   -2.2580    2.6852    0.9394 H   0  0  0  0  0  0  0  0  0  6  0  0
    0.5031    1.9873    2.0695 H   0  0  0  0  0  0  0  0  0  7  0  0
    1.3781    3.3803    0.3049 H   0  0  0  0  0  0  0  0  0  8  0  0
   -0.8526    4.6341   -0.3185 H   0  0  0  0  0  0  0  0  0  9  0  0
    0.1022    4.0516   -1.6883 H   0  0  0  0  0  0  0  0  0 10  0  0
   -1.3208    3.1584   -1.1623 H   0  0  0  0  0  0  0  0  0 11  0  0
   -1.1081   -3.2120    0.3732 C   0  0  0  0  0  0  0  0  0 12  0  0
   -0.0272   -3.0015    1.4368 C   0  0  0  0  0  0  0  0  0 13  0  0
    1.2065   -2.2826    0.8822 C   0  0  0  0  0  0  0  0  0 14  0  0
    0.7797   -0.9885    0.2147 C   0  0  0  0  0  0  0  0  0 15  0  0
    1.8262   -0.1315   -0.4917 C   0  0  0  0  0  0  0  0  0 16  0  0
    0.9839    0.7676   -1.3799 C   0  0  0  0  0  3  0  0  0 17  0  0
   -0.3862    0.1273   -1.5595 C   0  0  0  0  0  0  0  0  0 18  0  0
   -0.2481   -1.2420   -0.8883 C   0  0  0  0  0  0  0  0  0 19  0  0
   -1.4941   -1.9097   -0.3343 C   0  0  0  0  0  0  0  0  0 20  0  0
   -0.7376   -3.9219   -0.3748 H   0  0  0  0  0  0  0  0  0 21  0  0
   -1.9892   -3.6708    0.8275 H   0  0  0  0  0  0  0  0  0 22  0  0
   -0.4441   -2.4017    2.2534 H   0  0  0  0  0  0  0  0  0 23  0  0
    0.2578   -3.9629    1.8703 H   0  0  0  0  0  0  0  0  0 24  0  0
    1.9259   -2.0945    1.6836 H   0  0  0  0  0  0  0  0  0 25  0  0
    1.7090   -2.9217    0.1463 H   0  0  0  0  0  0  0  0  0 26  0  0
    0.2889   -0.3599    0.9699 H   0  0  0  0  0  0  0  0  0 27  0  0
    2.4629    0.4295    0.1986 H   0  0  0  0  0  0  0  0  0 28  0  0
    2.4891   -0.7657   -1.0938 H   0  0  0  0  0  0  0  0  0 29  0  0
    0.7460    1.8966   -0.5866 H   0  0  0  0  0  0  0  0  0 30  0  0
    1.4614    1.2010   -2.2549 H   0  0  0  0  0  0  0  0  0 31  0  0
   -0.6900    0.0620   -2.6060 H   0  0  0  0  0  0  0  0  0 32  0  0
   -1.1564    0.7106   -1.0393 H   0  0  0  0  0  0  0  0  0 33  0  0
    0.2157   -1.9296   -1.6098 H   0  0  0  0  0  0  0  0  0 34  0  0
   -2.2199   -2.1110   -1.1267 H   0  0  0  0  0  0  0  0  0 35  0  0
   -1.9768   -1.2284    0.3762 H   0  0  0  0  0  0  0  0  0 36  0  0
  1  5  1  0
  1  6  1  0
  1  2  1  0
  2  3  1  0
  2  7  1  0
  3  4  1  0
  3  8  1  0
  3 30  1  0
  4 10  1  0
  4 11  1  0
  4  9  1  0
 12 22  1  0
 12 20  1  0
 12 21  1  0
 12 13  1  0
 13 23  1  0
 13 24  1  0
 13 14  1  0
 14 15  1  0
 14 25  1  0
 14 26  1  0
 15 19  1  0
 15 27  1  0
 15 16  1  0
 16 29  1  0
 16 28  1  0
 16 17  1  0
 17 18  1  0
 17 31  1  0
 18 19  1  0
 18 33  1  0
 18 32  1  0
 19 34  1  0
 19 20  1  0
 20 35  1  0
 20 36  1  0
M  RAD  1  17   2
M  END
>  <rmg_smiles>  (3) 
[CH2][CH]CC.[CH]1CC2CCCCC2C1

>  <rmg_adjacency_list>  (3) 
multiplicity 2
1  C u0 p0 c0 {2,S} {3,S} {7,S} {14,S}
2  C u0 p0 c0 {1,S} {4,S} {8,S} {15,S}
3  C u0 p0 c0 {1,S} {6,S} {20,S} {21,S}
4  C u0 p0 c0 {2,S} {5,S} {22,S} {23,S}
5  C u0 p0 c0 {4,S} {6,S} {16,S} {17,S}
6  C u0 p0 c0 {3,S} {5,S} {18,S} {19,S}
7  C u0 p0 c0 {1,S} {11,S} {25,S} {26,S}
8  C u0 p0 c0 {2,S} {11,S} {28,S} {29,S}
9  C u0 p0 c0 {10,S} {12,S} {24,S} {27,S}
10 C u0 p0 c0 {9,S} {30,S} {31,S} {32,S}
11 C u1 p0 c0 {7,S} {8,S} {33,S}
12 C u0 p0 c0 {9,S} {13,S} {34,S}
13 C u0 p0 c0 {12,S} {35,S} {36,S}
14 H u0 p0 c0 {1,S}
15 H u0 p0 c0 {2,S}
16 H u0 p0 c0 {5,S}
17 H u0 p0 c0 {5,S}
18 H u0 p0 c0 {6,S}
19 H u0 p0 c0 {6,S}
20 H u0 p0 c0 {3,S}
21 H u0 p0 c0 {3,S}
22 H u0 p0 c0 {4,S}
23 H u0 p0 c0 {4,S}
24 H u0 p0 c0 {9,S}
25 H u0 p0 c0 {7,S}
26 H u0 p0 c0 {7,S}
27 H u0 p0 c0 {9,S}
28 H u0 p0 c0 {8,S}
29 H u0 p0 c0 {8,S}
30 H u0 p0 c0 {10,S}
31 H u0 p0 c0 {10,S}
32 H u0 p0 c0 {10,S}
33 H u0 p0 c0 {11,S}
34 H u0 p0 c0 {12,S}
35 H u0 p0 c0 {13,S}
36 H u0 p0 c0 {13,S}


>  <multiplicity>  (3) 
2

>  <reaction>  (3) 
rxn_604

>  <type>  (3) 
ts

>  <role_mapnums>  (3) 
{"*2": 30, "*1": 17, "*3": 3, "*0": 2, "*4": 16}

>  <role_mapidx>  (3) 
{"*2": 29, "*1": 16, "*3": 2, "*0": 1, "*4": 15}

>  <ordered_mapped_smiles>  (3) 
[CH:1]([CH:2]([C:3]([C:4]([H:9])([H:10])[H:11])([H:8])[H:30])[H:7])([H:5])[H:6].[C:12]1([H:21])([H:22])[C:13]([H:23])([H:24])[C:14]([H:25])([H:26])[C:15]2([H:27])[C:16]([H:28])([H:29])[C:17]([H:31])[C:18]([H:32])([H:33])[C:19]2([H:34])[C:20]1([H:35])[H:36]

>  <mol_properties>  (3) 
{"1": {"label": "*0", "atom_type": "Cs"}, "2": {"label": "*3", "atom_type": "Cs"}, "15": {"label": "*4", "atom_type": "Cs"}, "16": {"label": "*1", "atom_type": "Cs"}, "29": {"label": "*2", "atom_type": "H0"}}

>  <level_of_theory>  (3) 
wb97xd/def2tzvp

>  <lot_method>  (3) 
wb97xd

>  <lot_basis>  (3) 
def2tzvp

>  <spin_multiplicity>  (3) 
2.0

>  <optical_isomers>  (3) 
2.0

>  <modes>  (3) 
IdealGasTranslation(mass=(179.18, 'amu')),         NonlinearRotor(             inertia = ([410.087, 1108.58, 1174.73

>  <frequency_value>  (3) 
-1681.47

>  <frequency_units>  (3) 
cm^-1

>  <frequency_list>  (3) 
unknown

>  <arkane_path>  (3) 
/home/calvin/Dropbox/PersonalFolders/Calvin/HAb_Converged/rxn_604/output/rxns/TS0/arkane/output.py

>  <path_exists>  (3) 
True

>  <E0_value>  (3) 
-1336000.0

>  <E0_units>  (3) 
kJ/mol

>  <thermo_class>  (3) 
unknown

>  <Cp0_value>  (3) 
unknown

>  <Cp0_units>  (3) 
unknown

>  <CpInf_value>  (3) 
unknown

>  <CpInf_units>  (3) 
unknown

>  <Tmin_value>  (3) 
unknown

>  <Tmin_units>  (3) 
unknown

>  <Tmax_value>  (3) 
unknown

>  <Tmax_units>  (3) 
unknown

>  <polynomials>  (3) 
unknown

>  <H298_value>  (3) 
unknown

>  <H298_units>  (3) 
unknown

>  <S298_value>  (3) 
unknown

>  <S298_units>  (3) 
unknown

>  <Cp_T_value_list>  (3) 
unknown

>  <Cp_T_units>  (3) 
unknown

>  <T_list>  (3) 
unknown

>  <T_units>  (3) 
unknown

>  <yaml_path>  (3) 
unknown

>  <frequencies_cm1>  (3) 
unknown

>  <ZPE_kJmol>  (3) 
unknown

>  <E_elec_kJmol>  (3) 
unknown

>  <E0_minus_Eelec_plus_ZPE_kJmol>  (3) 
unknown

>  <rxn>  (3) 
unknown

>  <species_type>  (3) 
unknown

>  <species_folder>  (3) 
unknown

>  <frequencies_cm1_list>  (3) 
[]

>  <ts_imag_freq_cm1>  (3) 
-1701.8968

>  <ts_freq_out_path>  (3) 
/home/calvin/Dropbox/PersonalFolders/Calvin/HAb_Converged/rxn_604/output/rxns/TS0/geometry/freq.out

>  <E0_kJmol>  (3) 
-1.336e+06

>  <H298_kJmol>  (3) 
unknown

$$$$

     RDKit          3D

 24 25  0  0  0  0  0  0  0  0999 V2000
   -2.3462    0.0587    0.4026 C   0  0  0  0  0  3  0  0  0  1  0  0
   -1.9216   -0.8977   -0.6619 C   0  0  0  0  0  0  0  0  0  2  0  0
   -0.4224   -0.6048   -0.8347 C   0  0  0  0  0  0  0  0  0  3  0  0
    0.4246   -1.4411    0.1277 C   0  0  0  0  0  0  0  0  0  4  0  0
    1.8615   -0.9403    0.2199 C   0  0  0  0  0  0  0  0  0  5  0  0
    1.8962    0.5175    0.6671 C   0  0  0  0  0  0  0  0  0  6  0  0
    1.1011    1.4007   -0.2911 C   0  0  0  0  0  0  0  0  0  7  0  0
   -0.3231    0.9028   -0.5260 C   0  0  0  0  0  0  0  0  0  8  0  0
   -1.3110    1.1041    0.6384 C   0  0  0  0  0  0  0  0  0  9  0  0
   -3.2900    0.0057    0.9268 H   0  0  0  0  0  0  0  0  0 10  0  0
   -2.1170   -1.9442   -0.4050 H   0  0  0  0  0  0  0  0  0 11  0  0
   -2.4616   -0.7093   -1.6016 H   0  0  0  0  0  0  0  0  0 12  0  0
   -0.0868   -0.8050   -1.8562 H   0  0  0  0  0  0  0  0  0 13  0  0
   -0.0273   -1.4106    1.1258 H   0  0  0  0  0  0  0  0  0 14  0  0
    0.4005   -2.4873   -0.1884 H   0  0  0  0  0  0  0  0  0 15  0  0
    2.4341   -1.5641    0.9101 H   0  0  0  0  0  0  0  0  0 16  0  0
    2.3441   -1.0297   -0.7603 H   0  0  0  0  0  0  0  0  0 17  0  0
    1.4821    0.5910    1.6781 H   0  0  0  0  0  0  0  0  0 18  0  0
    2.9265    0.8752    0.7283 H   0  0  0  0  0  0  0  0  0 19  0  0
    1.0758    2.4318    0.0723 H   0  0  0  0  0  0  0  0  0 20  0  0
    1.6246    1.4246   -1.2529 H   0  0  0  0  0  0  0  0  0 21  0  0
   -0.7335    1.4393   -1.3877 H   0  0  0  0  0  0  0  0  0 22  0  0
   -0.8124    0.9625    1.6085 H   0  0  0  0  0  0  0  0  0 23  0  0
   -1.7184    2.1202    0.6602 H   0  0  0  0  0  0  0  0  0 24  0  0
  1 10  1  0
  1  9  1  0
  1  2  1  0
  2 12  1  0
  2 11  1  0
  2  3  1  0
  3  4  1  0
  3 13  1  0
  3  8  1  0
  4 14  1  0
  4  5  1  0
  4 15  1  0
  5 16  1  0
  5 17  1  0
  5  6  1  0
  6  7  1  0
  6 19  1  0
  6 18  1  0
  7 20  1  0
  7 21  1  0
  7  8  1  0
  8  9  1  0
  8 22  1  0
  9 24  1  0
  9 23  1  0
M  RAD  1   1   2
M  END
>  <rmg_smiles>  (4) 
[CH]1CC2CCCCC2C1

>  <rmg_adjacency_list>  (4) 
multiplicity 2
1  C u0 p0 c0 {2,S} {3,S} {7,S} {10,S}
2  C u0 p0 c0 {1,S} {4,S} {8,S} {11,S}
3  C u0 p0 c0 {1,S} {5,S} {12,S} {13,S}
4  C u0 p0 c0 {2,S} {6,S} {18,S} {19,S}
5  C u0 p0 c0 {3,S} {6,S} {14,S} {15,S}
6  C u0 p0 c0 {4,S} {5,S} {16,S} {17,S}
7  C u0 p0 c0 {1,S} {9,S} {20,S} {21,S}
8  C u0 p0 c0 {2,S} {9,S} {22,S} {23,S}
9  C u1 p0 c0 {7,S} {8,S} {24,S}
10 H u0 p0 c0 {1,S}
11 H u0 p0 c0 {2,S}
12 H u0 p0 c0 {3,S}
13 H u0 p0 c0 {3,S}
14 H u0 p0 c0 {5,S}
15 H u0 p0 c0 {5,S}
16 H u0 p0 c0 {6,S}
17 H u0 p0 c0 {6,S}
18 H u0 p0 c0 {4,S}
19 H u0 p0 c0 {4,S}
20 H u0 p0 c0 {7,S}
21 H u0 p0 c0 {7,S}
22 H u0 p0 c0 {8,S}
23 H u0 p0 c0 {8,S}
24 H u0 p0 c0 {9,S}


>  <multiplicity>  (4) 
2

>  <reaction>  (4) 
rxn_604

>  <type>  (4) 
r1

>  <role_mapnums>  (4) 
{}

>  <role_mapidx>  (4) 
{}

>  <ordered_mapped_smiles>  (4) 
[C:1]1([H:10])[C:2]([H:11])([H:12])[C:3]2([H:13])[C:4]([H:14])([H:15])[C:5]([H:16])([H:17])[C:6]([H:18])([H:19])[C:7]([H:20])([H:21])[C:8]2([H:22])[C:9]1([H:23])[H:24]

>  <level_of_theory>  (4) 
wb97xd/def2tzvp

>  <lot_method>  (4) 
wb97xd

>  <lot_basis>  (4) 
def2tzvp

>  <spin_multiplicity>  (4) 
2.0

>  <optical_isomers>  (4) 
2.0

>  <modes>  (4) 
IdealGasTranslation(mass=(123.117, 'amu')),         NonlinearRotor(             inertia = ([182.859, 335.738, 424.72

>  <frequency_value>  (4) 
unknown

>  <frequency_units>  (4) 
unknown

>  <frequency_list>  (4) 
unknown

>  <arkane_path>  (4) 
/home/calvin/Dropbox/PersonalFolders/Calvin/HAb_Converged/rxn_604/output/Species/rxn_604_[CH]1CC2CCCCC2C1/arkane/output.py

>  <path_exists>  (4) 
True

>  <E0_value>  (4) 
-923523.381550898

>  <E0_units>  (4) 
kJ/mol

>  <thermo_class>  (4) 
NASA

>  <Cp0_value>  (4) 
33.257888

>  <Cp0_units>  (4) 
J/(mol*K)

>  <CpInf_value>  (4) 
582.01304

>  <CpInf_units>  (4) 
J/(mol*K)

>  <Tmin_value>  (4) 
10.0

>  <Tmin_units>  (4) 
K

>  <Tmax_value>  (4) 
3000.0

>  <Tmax_units>  (4) 
K

>  <polynomials>  (4) 
[{"name": "polynomial1", "class": "NASAPolynomial", "Tmin_value": 10.0, "Tmin_units": "K", "Tmax_value": 526.4834343259283, "Tmax_units": "K", "coeffs": [3.98643894828874, -0.00023182140811730054, 0.00028231001506313013, -4.759214837969805e-07, 2.590692260082836e-10, -111074203.63386503, 13.49617432795343]}, {"name": "polynomial2", "class": "NASAPolynomial", "Tmin_value": 526.4834343259283, "Tmin_units": "K", "Tmax_value": 3000.0, "Tmax_units": "K", "coeffs": [-8.038530107035681, 0.1064091818695619, -6.505516623617582e-05, 1.906120741359288e-08, -2.1496250536372206e-12, -111073149.21835624, 61.78404410488912]}]

>  <H298_value>  (4) 
-220721.71313565032

>  <H298_units>  (4) 
kcal/mol

>  <S298_value>  (4) 
89.39628008765251

>  <S298_units>  (4) 
cal/(mol*K)

>  <Cp_T_value_list>  (4) 
[36.90913064982296, 50.15015676910796, 61.90083300801128, 71.988043048504, 88.09755552735788, 99.81155582762689, 116.55009221226358, 124.50807980477506, 128.7878327045076]

>  <Cp_T_units>  (4) 
cal/(mol*K)

>  <T_list>  (4) 
[300.0, 400.0, 500.0, 600.0, 800.0, 1000.0, 1500.0, 2000.0, 2400.0]

>  <T_units>  (4) 
K

>  <yaml_path>  (4) 
/home/calvin/Dropbox/PersonalFolders/Calvin/HAb_Converged/rxn_604/output/Species/rxn_604_[CH]1CC2CCCCC2C1/rxn_604_CH1CC2CCCCC2C1.yml

>  <frequencies_cm1>  (4) 
[146.42472797835998, 158.91577427544, 205.58380651015997, 300.86322782516, 319.93971304412, 341.24796849208, 360.57166518256, 413.82513633915994, 476.2185649566799, 587.1615797866, 608.54537207308, 718.4995410169199, 772.020824601, 810.8742275415599, 835.6159756495199, 860.57746728772, 899.1355898595199, 910.8163318888398, 920.0592941295598, 932.81815285412, 958.1367277289598, 1008.73267556672, 1015.1807747821998, 1048.8564707914802, 1053.3474791907602, 1058.02389619368, 1092.04294146896, 1112.6850993408798, 1130.1890449215598, 1155.4664178844798, 1170.0381607335198, 1233.24876060412, 1247.16813984776, 1271.69014442548, 1273.9081806838399, 1295.6902581188797, 1312.967593184, 1330.9247597958001, 1338.83552688444, 1355.8175815808, 1365.2802873517599, 1368.27429295128, 1378.8425833587598, 1392.36367745384, 1394.5061768736798, 1457.40089541956, 1463.74598985524, 1472.3503224611998, 1478.6336140289998, 1482.5340616907597, 1495.07317688508, 2942.0225206476, 2948.31267920072, 2993.1403593696796, 2993.82705790168, 2997.4802940919203, 3004.5876238981195, 3006.34557214004, 3011.77049054284, 3016.1790951182797, 3025.6898697864804, 3042.96033786628, 3048.17924670948, 3052.8556637123997, 3057.50461277404, 3183.91894552992]

>  <ZPE_kJmol>  (4) 
574.904176107268

>  <E_elec_kJmol>  (4) 
-924098.2857270052

>  <E0_minus_Eelec_plus_ZPE_kJmol>  (4) 
0.0

>  <rxn>  (4) 
rxn_604

>  <species_type>  (4) 
p1

>  <species_folder>  (4) 
rxn_604_[CH]1CC2CCCCC2C1

>  <frequencies_cm1_list>  (4) 
[146.42472797835998, 158.91577427544, 205.58380651015997, 300.86322782516, 319.93971304412, 341.24796849208, 360.57166518256, 413.82513633915994, 476.2185649566799, 587.1615797866, 608.54537207308, 718.4995410169199, 772.020824601, 810.8742275415599, 835.6159756495199, 860.57746728772, 899.1355898595199, 910.8163318888398, 920.0592941295598, 932.81815285412, 958.1367277289598, 1008.73267556672, 1015.1807747821998, 1048.8564707914802, 1053.3474791907602, 1058.02389619368, 1092.04294146896, 1112.6850993408798, 1130.1890449215598, 1155.4664178844798, 1170.0381607335198, 1233.24876060412, 1247.16813984776, 1271.69014442548, 1273.9081806838399, 1295.6902581188797, 1312.967593184, 1330.9247597958001, 1338.83552688444, 1355.8175815808, 1365.2802873517599, 1368.27429295128, 1378.8425833587598, 1392.36367745384, 1394.5061768736798, 1457.40089541956, 1463.74598985524, 1472.3503224611998, 1478.6336140289998, 1482.5340616907597, 1495.07317688508, 2942.0225206476, 2948.31267920072, 2993.1403593696796, 2993.82705790168, 2997.4802940919203, 3004.5876238981195, 3006.34557214004, 3011.77049054284, 3016.1790951182797, 3025.6898697864804, 3042.96033786628, 3048.17924670948, 3052.8556637123997, 3057.50461277404, 3183.91894552992]

>  <E0_kJmol>  (4) 
-923523

>  <H298_kJmol>  (4) 
-923500

$$$$

     RDKit          3D

 11 10  0  0  0  0  0  0  0  0999 V2000
    2.0591    0.2533   -0.1061 C   0  0  0  0  0  0  0  0  0  1  0  0
    0.8045   -0.3111   -0.1535 C   0  0  0  0  0  0  0  0  0  2  0  0
   -0.3816    0.3942   -0.1885 C   0  0  0  0  0  3  0  0  0  3  0  0
   -1.7316   -0.2294   -0.2396 C   0  0  0  0  0  0  0  0  0  4  0  0
    2.9505   -0.3576   -0.0805 H   0  0  0  0  0  0  0  0  0  5  0  0
    2.1872    1.3290   -0.0933 H   0  0  0  0  0  0  0  0  0  6  0  0
    0.7385   -1.3970   -0.1643 H   0  0  0  0  0  0  0  0  0  7  0  0
   -0.3340    1.4795   -0.1783 H   0  0  0  0  0  0  0  0  0  8  0  0
   -1.6704   -1.3186   -0.2461 H   0  0  0  0  0  0  0  0  0  9  0  0
   -2.3404    0.0713    0.6191 H   0  0  0  0  0  0  0  0  0 10  0  0
   -2.2805    0.0851   -1.1331 H   0  0  0  0  0  0  0  0  0 11  0  0
  1  5  1  0
  1  6  1  0
  1  2  1  0
  2  7  1  0
  2  3  1  0
  3  4  1  0
  3  8  1  0
  4  9  1  0
  4 10  1  0
  4 11  1  0
M  RAD  1   3   2
M  END
>  <rmg_smiles>  (5) 
[CH2][CH][CH]C

>  <rmg_adjacency_list>  (5) 
multiplicity 2
1  C u0 p0 c0 {2,S} {5,S} {6,S} {7,S}
2  C u1 p0 c0 {1,S} {3,S} {8,S}
3  C u0 p0 c0 {2,S} {4,S} {9,S}
4  C u0 p0 c0 {3,S} {10,S} {11,S}
5  H u0 p0 c0 {1,S}
6  H u0 p0 c0 {1,S}
7  H u0 p0 c0 {1,S}
8  H u0 p0 c0 {2,S}
9  H u0 p0 c0 {3,S}
10 H u0 p0 c0 {4,S}
11 H u0 p0 c0 {4,S}


>  <multiplicity>  (5) 
2

>  <reaction>  (5) 
rxn_604

>  <type>  (5) 
r2

>  <role_mapnums>  (5) 
{}

>  <role_mapidx>  (5) 
{}

>  <ordered_mapped_smiles>  (5) 
[CH:1]([CH:2]([C:3]([C:4]([H:9])([H:10])[H:11])[H:8])[H:7])([H:5])[H:6]

>  <level_of_theory>  (5) 
wb97xd/def2tzvp

>  <lot_method>  (5) 
wb97xd

>  <lot_basis>  (5) 
def2tzvp

>  <spin_multiplicity>  (5) 
2.0

>  <optical_isomers>  (5) 
1.0

>  <modes>  (5) 
IdealGasTranslation(mass=(55.0548, 'amu')),         NonlinearRotor(             inertia = ([13.1906, 125.273, 135.366

>  <frequency_value>  (5) 
unknown

>  <frequency_units>  (5) 
unknown

>  <frequency_list>  (5) 
unknown

>  <arkane_path>  (5) 
/home/calvin/Dropbox/PersonalFolders/Calvin/HAb_Converged/rxn_604/output/Species/rxn_604_C=C[CH]C/arkane/output.py

>  <path_exists>  (5) 
True

>  <E0_value>  (5) 
-410861.3152330692

>  <E0_units>  (5) 
kJ/mol

>  <thermo_class>  (5) 
NASA

>  <Cp0_value>  (5) 
33.257888

>  <Cp0_units>  (5) 
J/(mol*K)

>  <CpInf_value>  (5) 
257.748632

>  <CpInf_units>  (5) 
J/(mol*K)

>  <Tmin_value>  (5) 
10.0

>  <Tmin_units>  (5) 
K

>  <Tmax_value>  (5) 
3000.0

>  <Tmax_units>  (5) 
K

>  <polynomials>  (5) 
[{"name": "polynomial1", "class": "NASAPolynomial", "Tmin_value": 10.0, "Tmin_units": "K", "Tmax_value": 463.6393307218724, "Tmax_units": "K", "coeffs": [3.9040427866109826, 0.008185983411080414, 7.727991952880457e-05, -1.3744264793304484e-07, 7.688975074355223e-11, -49415200.70388584, 8.995587426851019]}, {"name": "polynomial2", "class": "NASAPolynomial", "Tmin_value": 463.6393307218724, "Tmin_units": "K", "Tmax_value": 3000.0, "Tmax_units": "K", "coeffs": [0.3179549217714686, 0.039124611253892716, -2.281509301051405e-05, 6.484032923156998e-09, -7.173482644836273e-13, -49414868.17391742, 23.539944648157388]}]

>  <H298_value>  (5) 
-98194.28584360852

>  <H298_units>  (5) 
kcal/mol

>  <S298_value>  (5) 
71.63337428638437

>  <S298_units>  (5) 
cal/(mol*K)

>  <Cp_T_value_list>  (5) 
[20.32293445175687, 25.26787004109902, 29.6931518167585, 33.55769976572619, 39.8275597158211, 44.50181601093726, 51.51425090015371, 55.048594012523054, 56.90855371865896]

>  <Cp_T_units>  (5) 
cal/(mol*K)

>  <T_list>  (5) 
[300.0, 400.0, 500.0, 600.0, 800.0, 1000.0, 1500.0, 2000.0, 2400.0]

>  <T_units>  (5) 
K

>  <yaml_path>  (5) 
/home/calvin/Dropbox/PersonalFolders/Calvin/HAb_Converged/rxn_604/output/Species/rxn_604_C=C[CH]C/rxn_604_C=CCHC.yml

>  <frequencies_cm1>  (5) 
[145.86850216744, 217.17527773031998, 290.56274984515994, 508.82301125604, 544.53820190536, 739.89020028872, 798.30764440596, 881.33636391008, 988.4682018873999, 989.4158458615598, 1023.15334473872, 1138.3744914229999, 1188.9155033782, 1281.84641571376, 1335.3196304005999, 1400.47358711676, 1459.61893167792, 1463.37517264796, 1502.4895210306797, 1514.45180945812, 2991.0802637736797, 3039.3139686613595, 3086.1330745731198, 3108.55378164292, 3124.5401234678798, 3127.2937845812003, 3223.3011063401195]

>  <ZPE_kJmol>  (5) 
245.90815043438468

>  <E_elec_kJmol>  (5) 
-411107.2233835036

>  <E0_minus_Eelec_plus_ZPE_kJmol>  (5) 
0.0

>  <rxn>  (5) 
rxn_604

>  <species_type>  (5) 
r0

>  <species_folder>  (5) 
rxn_604_C=C[CH]C

>  <frequencies_cm1_list>  (5) 
[145.86850216744, 217.17527773031998, 290.56274984515994, 508.82301125604, 544.53820190536, 739.89020028872, 798.30764440596, 881.33636391008, 988.4682018873999, 989.4158458615598, 1023.15334473872, 1138.3744914229999, 1188.9155033782, 1281.84641571376, 1335.3196304005999, 1400.47358711676, 1459.61893167792, 1463.37517264796, 1502.4895210306797, 1514.45180945812, 2991.0802637736797, 3039.3139686613595, 3086.1330745731198, 3108.55378164292, 3124.5401234678798, 3127.2937845812003, 3223.3011063401195]

>  <E0_kJmol>  (5) 
-410861

>  <H298_kJmol>  (5) 
-410845

$$$$
