
     RDKit          3D

 21 21  0  0  0  0  0  0  0  0999 V2000
   -1.2343    1.6147   -1.8180 C   0  0  0  0  0  0  0  0  0  1  0  0
   -1.2453    1.1058   -0.3934 C   0  0  0  0  0  0  0  0  0  2  0  0
   -1.4028    2.2251    0.6195 C   0  0  0  0  0  0  0  0  0  3  0  0
   -0.2130    0.0850   -0.0473 C   0  0  0  0  0  0  0  0  0  4  0  0
    0.7792   -0.3142   -0.9423 C   0  0  0  0  0  0  0  0  0  5  0  0
    1.6984   -1.2972   -0.6048 C   0  0  0  0  0  0  0  0  0  6  0  0
    1.6438   -1.9132    0.6341 C   0  0  0  0  0  0  0  0  0  7  0  0
    0.6584   -1.5341    1.5356 C   0  0  0  0  0  0  0  0  0  8  0  0
   -0.2526   -0.5500    1.1985 C   0  0  0  0  0  0  0  0  0  9  0  0
   -0.3417    2.2140   -2.0271 H   0  0  0  0  0  0  0  0  0 10  0  0
   -1.2683    0.7979   -2.5411 H   0  0  0  0  0  0  0  0  0 11  0  0
   -2.1034    2.2514   -1.9927 H   0  0  0  0  0  0  0  0  0 12  0  0
   -2.1826    0.5541   -0.3213 H   0  0  0  0  0  0  0  0  0 13  0  0
   -2.2857    2.8256    0.3904 H   0  0  0  0  0  0  0  0  0 14  0  0
   -1.5094    1.8500    1.6372 H   0  0  0  0  0  0  0  0  0 15  0  0
   -0.5315    2.8877    0.6009 H   0  0  0  0  0  0  0  0  0 16  0  0
    0.8461    0.1502   -1.9172 H   0  0  0  0  0  0  0  0  0 17  0  0
    2.4619   -1.5817   -1.3184 H   0  0  0  0  0  0  0  0  0 18  0  0
    2.3589   -2.6825    0.8960 H   0  0  0  0  0  0  0  0  0 19  0  0
    0.5982   -2.0116    2.5059 H   0  0  0  0  0  0  0  0  0 20  0  0
   -1.0246   -0.2802    1.9092 H   0  0  0  0  0  0  0  0  0 21  0  0
  1 11  1  0
  1 10  1  0
  1 12  1  0
  1  2  1  0
  2 13  1  0
  2  3  1  0
  2  4  1  0
  3 15  1  0
  3 16  1  0
  3 14  1  0
  4  9  1  0
  4  5  1  0
  5 17  1  0
  5  6  1  0
  6  7  1  0
  6 18  1  0
  7 19  1  0
  7  8  1  0
  8 20  1  0
  8  9  1  0
  9 21  1  0
M  END
>  <rmg_smiles>  (1) 
CC(C)C1[CH][CH][CH][CH][CH]1

>  <rmg_adjacency_list>  (1) 
1  C u0 p0 c0 {2,S} {3,S} {4,S} {10,S}
2  C u0 p0 c0 {1,S} {11,S} {12,S} {13,S}
3  C u0 p0 c0 {1,S} {14,S} {15,S} {16,S}
4  C u0 p0 c0 {1,S} {5,S} {6,S}
5  C u0 p0 c0 {4,S} {7,S} {17,S}
6  C u0 p0 c0 {4,S} {9,S} {21,S}
7  C u0 p0 c0 {5,S} {8,S} {18,S}
8  C u0 p0 c0 {7,S} {9,S} {19,S}
9  C u0 p0 c0 {6,S} {8,S} {20,S}
10 H u0 p0 c0 {1,S}
11 H u0 p0 c0 {2,S}
12 H u0 p0 c0 {2,S}
13 H u0 p0 c0 {2,S}
14 H u0 p0 c0 {3,S}
15 H u0 p0 c0 {3,S}
16 H u0 p0 c0 {3,S}
17 H u0 p0 c0 {5,S}
18 H u0 p0 c0 {7,S}
19 H u0 p0 c0 {8,S}
20 H u0 p0 c0 {9,S}
21 H u0 p0 c0 {6,S}


>  <multiplicity>  (1) 
1

>  <reaction>  (1) 
rxn_1523

>  <type>  (1) 
r1h

>  <role_mapnums>  (1) 
{"r1h_a": 2, "r1h_h": 13}

>  <role_mapidx>  (1) 
{"r1h_a": 1, "r1h_h": 12}

>  <ordered_mapped_smiles>  (1) 
[C:1]([C:2]([C:3]([H:14])([H:15])[H:16])([CH:4]1[CH:5]([H:17])[CH:6]([H:18])[CH:7]([H:19])[CH:8]([H:20])[CH:9]1[H:21])[H:13])([H:10])([H:11])[H:12]

>  <mol_properties>  (1) 
{"1": {"label": "donator", "atom_type": "Cs"}, "12": {"label": "d_hydrogen", "atom_type": "H0"}}

>  <level_of_theory>  (1) 
wb97xd/def2tzvp

>  <lot_method>  (1) 
wb97xd

>  <lot_basis>  (1) 
def2tzvp

>  <spin_multiplicity>  (1) 
1.0

>  <optical_isomers>  (1) 
1.0

>  <modes>  (1) 
IdealGasTranslation(mass=(120.094, 'amu')),         NonlinearRotor(             inertia = ([149.32, 463.91, 504.647

>  <frequency_value>  (1) 
unknown

>  <frequency_units>  (1) 
unknown

>  <frequency_list>  (1) 
unknown

>  <arkane_path>  (1) 
/home/calvin/Dropbox/PersonalFolders/Calvin/HAb_Converged/rxn_1523/output/Species/rxn_1523_CC[C]c1ccccc1/arkane/output.py

>  <path_exists>  (1) 
True

>  <E0_value>  (1) 
-918971.9705539708

>  <E0_units>  (1) 
kJ/mol

>  <thermo_class>  (1) 
NASA

>  <Cp0_value>  (1) 
33.257888

>  <Cp0_units>  (1) 
J/(mol*K)

>  <CpInf_value>  (1) 
507.182792

>  <CpInf_units>  (1) 
J/(mol*K)

>  <Tmin_value>  (1) 
10.0

>  <Tmin_units>  (1) 
K

>  <Tmax_value>  (1) 
3000.0

>  <Tmax_units>  (1) 
K

>  <polynomials>  (1) 
[{"name": "polynomial1", "class": "NASAPolynomial", "Tmin_value": 10.0, "Tmin_units": "K", "Tmax_value": 361.8957796999639, "Tmax_units": "K", "coeffs": [3.904348984267116, 0.00661653537135646, 0.0002808737170771108, -5.999594269178534e-07, 4.235169182850027e-10, -110526797.72623062, 13.49573620553717]}, {"name": "polynomial2", "class": "NASAPolynomial", "Tmin_value": 361.8957796999639, "Tmin_units": "K", "Tmax_value": 3000.0, "Tmax_units": "K", "coeffs": [-3.3908176185577426, 0.08724915042066951, -5.3334822818118166e-05, 1.5701827774540676e-08, -1.7850286443604722e-12, -110526269.70708372, 41.2759137782472]}]

>  <H298_value>  (1) 
-219633.70644198687

>  <H298_units>  (1) 
kcal/mol

>  <S298_value>  (1) 
90.8647762729768

>  <S298_units>  (1) 
cal/(mol*K)

>  <Cp_T_value_list>  (1) 
[36.563658961352125, 47.562776396615114, 57.13460348229578, 65.41564160236089, 78.65841095411464, 88.31207117618139, 102.21498275479881, 108.94334191674544, 112.55073561561348]

>  <Cp_T_units>  (1) 
cal/(mol*K)

>  <T_list>  (1) 
[300.0, 400.0, 500.0, 600.0, 800.0, 1000.0, 1500.0, 2000.0, 2400.0]

>  <T_units>  (1) 
K

>  <yaml_path>  (1) 
/home/calvin/Dropbox/PersonalFolders/Calvin/HAb_Converged/rxn_1523/output/Species/rxn_1523_CC[C]c1ccccc1/rxn_1523_CCCc1ccccc1.yml

>  <frequencies_cm1>  (1) 
[40.364139710959996, 128.71477283808, 218.52120685304, 233.34702815891998, 266.85791652052, 308.13536527904, 321.59465650623997, 414.80711523991994, 466.94813477468, 550.3133365594799, 568.586384496, 632.73089437012, 716.65918895116, 754.681686668, 783.96251207248, 862.0195342049199, 904.83518767512, 929.47393100328, 933.9718063878798, 965.95822400844, 981.62868450868, 994.4218781598398, 1016.0460149325199, 1049.9277205014, 1069.59476645788, 1107.56919527748, 1128.8637167548, 1168.97377800892, 1175.1197298703198, 1202.8829515190798, 1234.84190119836, 1303.2851438828, 1340.7170808621202, 1342.0355420435599, 1378.7945144615198, 1391.1344870815599, 1410.5131196546, 1472.453327241, 1477.58983226036, 1484.7452309638, 1489.7306623061197, 1494.12553291092, 1530.39694937116, 1639.69188772428, 1662.05765891152, 3009.34644472488, 3011.8460273813594, 3016.5430453402396, 3079.47209881272, 3084.9519530980792, 3090.83695951732, 3093.05499577568, 3143.16338765572, 3146.4320726680403, 3159.08105962748, 3167.4725156885197, 3180.6639944882395]

>  <ZPE_kJmol>  (1) 
482.88765773606417

>  <E_elec_kJmol>  (1) 
-919454.8582117069

>  <E0_minus_Eelec_plus_ZPE_kJmol>  (1) 
0.0

>  <rxn>  (1) 
rxn_1523

>  <species_type>  (1) 
r1

>  <species_folder>  (1) 
rxn_1523_CC[C]c1ccccc1

>  <frequencies_cm1_list>  (1) 
[40.364139710959996, 128.71477283808, 218.52120685304, 233.34702815891998, 266.85791652052, 308.13536527904, 321.59465650623997, 414.80711523991994, 466.94813477468, 550.3133365594799, 568.586384496, 632.73089437012, 716.65918895116, 754.681686668, 783.96251207248, 862.0195342049199, 904.83518767512, 929.47393100328, 933.9718063878798, 965.95822400844, 981.62868450868, 994.4218781598398, 1016.0460149325199, 1049.9277205014, 1069.59476645788, 1107.56919527748, 1128.8637167548, 1168.97377800892, 1175.1197298703198, 1202.8829515190798, 1234.84190119836, 1303.2851438828, 1340.7170808621202, 1342.0355420435599, 1378.7945144615198, 1391.1344870815599, 1410.5131196546, 1472.453327241, 1477.58983226036, 1484.7452309638, 1489.7306623061197, 1494.12553291092, 1530.39694937116, 1639.69188772428, 1662.05765891152, 3009.34644472488, 3011.8460273813594, 3016.5430453402396, 3079.47209881272, 3084.9519530980792, 3090.83695951732, 3093.05499577568, 3143.16338765572, 3146.4320726680403, 3159.08105962748, 3167.4725156885197, 3180.6639944882395]

>  <E0_kJmol>  (1) 
-918972

>  <H298_kJmol>  (1) 
-918947

$$$$

     RDKit          3D

  8  7  0  0  0  0  0  0  0  0999 V2000
    0.1772   -0.6388   -0.3598 C   0  0  0  0  0  0  0  0  0  1  0  0
   -0.2157    0.6168    0.3621 C   0  0  0  0  0  0  0  0  0  2  0  0
   -0.6429   -1.3646   -0.3875 H   0  0  0  0  0  0  0  0  0  3  0  0
    1.0279   -1.1215    0.1254 H   0  0  0  0  0  0  0  0  0  4  0  0
    0.4599   -0.4288   -1.3935 H   0  0  0  0  0  0  0  0  0  5  0  0
   -0.4053    0.5134    1.4281 H   0  0  0  0  0  0  0  0  0  6  0  0
   -0.9490    1.2478   -0.1349 H   0  0  0  0  0  0  0  0  0  7  0  0
    0.6858    1.2248    0.3421 H   0  0  0  0  0  0  0  0  0  8  0  0
  1  5  1  0
  1  4  1  0
  1  3  1  0
  1  2  1  0
  2  7  1  0
  2  8  1  0
  2  6  1  0
M  END
>  <rmg_smiles>  (2) 
CC

>  <rmg_adjacency_list>  (2) 
1 C u0 p0 c0 {2,S} {3,S} {4,S} {5,S}
2 C u0 p0 c0 {1,S} {6,S} {7,S} {8,S}
3 H u0 p0 c0 {1,S}
4 H u0 p0 c0 {1,S}
5 H u0 p0 c0 {1,S}
6 H u0 p0 c0 {2,S}
7 H u0 p0 c0 {2,S}
8 H u0 p0 c0 {2,S}


>  <multiplicity>  (2) 
1

>  <reaction>  (2) 
rxn_1523

>  <type>  (2) 
r2h

>  <role_mapnums>  (2) 
{"r2h_a": 2, "r2h_h": 8}

>  <role_mapidx>  (2) 
{"r2h_a": 1, "r2h_h": 7}

>  <ordered_mapped_smiles>  (2) 
[C:1]([C:2]([H:6])([H:7])[H:8])([H:3])([H:4])[H:5]

>  <mol_properties>  (2) 
{"1": {"label": "acceptor", "atom_type": "Cs"}, "7": {"label": "a_hydrogen", "atom_type": "H0"}}

>  <level_of_theory>  (2) 
wb97xd/def2tzvp

>  <lot_method>  (2) 
wb97xd

>  <lot_basis>  (2) 
def2tzvp

>  <spin_multiplicity>  (2) 
1.0

>  <optical_isomers>  (2) 
1.0

>  <modes>  (2) 
IdealGasTranslation(mass=(30.0469, 'amu')),         NonlinearRotor(             inertia = ([6.25566, 25.1393, 25.1393

>  <frequency_value>  (2) 
unknown

>  <frequency_units>  (2) 
unknown

>  <frequency_list>  (2) 
unknown

>  <arkane_path>  (2) 
/home/calvin/Dropbox/PersonalFolders/Calvin/HAb_Converged/rxn_1523/output/Species/rxn_1523_CC/arkane/output.py

>  <path_exists>  (2) 
True

>  <E0_value>  (2) 
-209409.0952137841

>  <E0_units>  (2) 
kJ/mol

>  <thermo_class>  (2) 
NASA

>  <Cp0_value>  (2) 
33.257888

>  <Cp0_units>  (2) 
J/(mol*K)

>  <CpInf_value>  (2) 
182.918384

>  <CpInf_units>  (2) 
J/(mol*K)

>  <Tmin_value>  (2) 
10.0

>  <Tmin_units>  (2) 
K

>  <Tmax_value>  (2) 
3000.0

>  <Tmax_units>  (2) 
K

>  <polynomials>  (2) 
[{"name": "polynomial1", "class": "NASAPolynomial", "Tmin_value": 10.0, "Tmin_units": "K", "Tmax_value": 746.6686841225998, "Tmax_units": "K", "coeffs": [4.05949155328205, -0.003835565665241399, 5.3186040380635144e-05, -6.162047637406245e-08, 2.3242210517060023e-11, -25186098.42214424, 3.537324504259843]}, {"name": "polynomial2", "class": "NASAPolynomial", "Tmin_value": 746.6686841225998, "Tmin_units": "K", "Tmax_value": 3000.0, "Tmax_units": "K", "coeffs": [-1.046496014036793, 0.026500176421266477, -1.3747367898389822e-05, 3.490635384402257e-09, -3.493819827122593e-13, -25185419.059970565, 26.122432242478077]}]

>  <H298_value>  (2) 
-50047.2003571238

>  <H298_units>  (2) 
kcal/mol

>  <S298_value>  (2) 
54.420548043106656

>  <S298_units>  (2) 
cal/(mol*K)

>  <Cp_T_value_list>  (2) 
[12.360572544544063, 15.274308747535915, 18.259044378417013, 21.07888414556187, 25.832548078118208, 29.50517950077797, 35.34115403896942, 38.351806873475496, 39.80767330504735]

>  <Cp_T_units>  (2) 
cal/(mol*K)

>  <T_list>  (2) 
[300.0, 400.0, 500.0, 600.0, 800.0, 1000.0, 1500.0, 2000.0, 2400.0]

>  <T_units>  (2) 
K

>  <yaml_path>  (2) 
/home/calvin/Dropbox/PersonalFolders/Calvin/HAb_Converged/rxn_1523/output/Species/rxn_1523_CC/rxn_1523_CC.yml

>  <frequencies_cm1>  (2) 
[304.49586305944, 822.3970289085198, 822.4107628791601, 1005.43652261312, 1210.79371860772, 1210.8005855930398, 1393.77140944444, 1414.4616362136, 1489.39418002544, 1489.4010470107598, 1490.3006220876798, 1490.3006220876798, 3015.21771717348, 3016.07609033848, 3072.8111230523195, 3072.8179900376404, 3096.4266855677993, 3096.4335525531196]

>  <ZPE_kJmol>  (2) 
194.47545128409476

>  <E_elec_kJmol>  (2) 
-209603.57066506823

>  <E0_minus_Eelec_plus_ZPE_kJmol>  (2) 
0.0

>  <rxn>  (2) 
rxn_1523

>  <species_type>  (2) 
p0

>  <species_folder>  (2) 
rxn_1523_CC

>  <frequencies_cm1_list>  (2) 
[304.49586305944, 822.3970289085198, 822.4107628791601, 1005.43652261312, 1210.79371860772, 1210.8005855930398, 1393.77140944444, 1414.4616362136, 1489.39418002544, 1489.4010470107598, 1490.3006220876798, 1490.3006220876798, 3015.21771717348, 3016.07609033848, 3072.8111230523195, 3072.8179900376404, 3096.4266855677993, 3096.4335525531196]

>  <E0_kJmol>  (2) 
-209409

>  <H298_kJmol>  (2) 
-209397

$$$$

     RDKit          3D

 28 27  0  0  0  0  0  0  0  0999 V2000
   -2.5534   -1.4036   -0.9147 C   0  0  0  0  0  0  0  0  0  1  0  0
   -2.9464   -0.1481   -0.1928 C   0  0  0  0  0  3  0  0  0  2  0  0
   -3.3735   -2.1295   -0.9423 H   0  0  0  0  0  0  0  0  0  3  0  0
   -1.7027   -1.8863   -0.4295 H   0  0  0  0  0  0  0  0  0  4  0  0
   -2.2708   -1.1936   -1.9484 H   0  0  0  0  0  0  0  0  0  5  0  0
   -3.1359   -0.2515    0.8732 H   0  0  0  0  0  0  0  0  0  6  0  0
   -3.6796    0.4829   -0.6898 H   0  0  0  0  0  0  0  0  0  7  0  0
   -0.6552    1.8046   -1.7280 C   0  0  0  0  0  0  0  0  0  8  0  0
   -0.6662    1.2956   -0.3034 C   0  0  0  0  0  0  0  0  0  9  0  0
   -0.8237    2.4150    0.7095 C   0  0  0  0  0  0  0  0  0 10  0  0
    0.3661    0.2749    0.0427 C   0  0  0  0  0  0  0  0  0 11  0  0
    1.3583   -0.1244   -0.8523 C   0  0  0  0  0  0  0  0  0 12  0  0
    2.2775   -1.1073   -0.5147 C   0  0  0  0  0  0  0  0  0 13  0  0
    2.2229   -1.7234    0.7241 C   0  0  0  0  0  0  0  0  0 14  0  0
    1.2375   -1.3442    1.6257 C   0  0  0  0  0  0  0  0  0 15  0  0
    0.3265   -0.3601    1.2886 C   0  0  0  0  0  0  0  0  0 16  0  0
    0.2374    2.4038   -1.9371 H   0  0  0  0  0  0  0  0  0 17  0  0
   -0.6893    0.9878   -2.4511 H   0  0  0  0  0  0  0  0  0 18  0  0
   -1.5243    2.4412   -1.9026 H   0  0  0  0  0  0  0  0  0 19  0  0
   -1.7628    0.6502   -0.2191 H   0  0  0  0  0  0  0  0  0 20  0  0
   -1.7066    3.0155    0.4804 H   0  0  0  0  0  0  0  0  0 21  0  0
   -0.9303    2.0398    1.7272 H   0  0  0  0  0  0  0  0  0 22  0  0
    0.0476    3.0776    0.6909 H   0  0  0  0  0  0  0  0  0 23  0  0
    1.4252    0.3400   -1.8272 H   0  0  0  0  0  0  0  0  0 24  0  0
    3.0410   -1.3919   -1.2284 H   0  0  0  0  0  0  0  0  0 25  0  0
    2.9380   -2.4926    0.9860 H   0  0  0  0  0  0  0  0  0 26  0  0
    1.1773   -1.8217    2.5959 H   0  0  0  0  0  0  0  0  0 27  0  0
   -0.4455   -0.0903    1.9993 H   0  0  0  0  0  0  0  0  0 28  0  0
  1  4  1  0
  1  3  1  0
  1  5  1  0
  1  2  1  0
  2  6  1  0
  2  7  1  0
  8 19  1  0
  8 17  1  0
  8  9  1  0
  8 18  1  0
  9 11  1  0
  9 20  1  0
  9 10  1  0
 10 23  1  0
 10 21  1  0
 10 22  1  0
 11 16  1  0
 11 12  1  0
 12 24  1  0
 12 13  1  0
 13 25  1  0
 13 14  1  0
 14 15  1  0
 14 26  1  0
 15 27  1  0
 15 16  1  0
 16 28  1  0
M  RAD  1   2   2
M  END
>  <rmg_smiles>  (3) 
CC(C)C1[CH][CH][CH][CH][CH]1.[CH2]C

>  <rmg_adjacency_list>  (3) 
multiplicity 2
1  C u0 p0 c0 {2,S} {3,S} {5,S} {12,S}
2  C u0 p0 c0 {1,S} {13,S} {14,S} {15,S}
3  C u0 p0 c0 {1,S} {16,S} {17,S} {18,S}
4  C u0 p0 c0 {11,S} {19,S} {20,S} {21,S}
5  C u0 p0 c0 {1,S} {6,S} {7,S}
6  C u0 p0 c0 {5,S} {8,S} {22,S}
7  C u0 p0 c0 {5,S} {10,S} {26,S}
8  C u0 p0 c0 {6,S} {9,S} {23,S}
9  C u0 p0 c0 {8,S} {10,S} {24,S}
10 C u0 p0 c0 {7,S} {9,S} {25,S}
11 C u1 p0 c0 {4,S} {27,S} {28,S}
12 H u0 p0 c0 {1,S}
13 H u0 p0 c0 {2,S}
14 H u0 p0 c0 {2,S}
15 H u0 p0 c0 {2,S}
16 H u0 p0 c0 {3,S}
17 H u0 p0 c0 {3,S}
18 H u0 p0 c0 {3,S}
19 H u0 p0 c0 {4,S}
20 H u0 p0 c0 {4,S}
21 H u0 p0 c0 {4,S}
22 H u0 p0 c0 {6,S}
23 H u0 p0 c0 {8,S}
24 H u0 p0 c0 {9,S}
25 H u0 p0 c0 {10,S}
26 H u0 p0 c0 {7,S}
27 H u0 p0 c0 {11,S}
28 H u0 p0 c0 {11,S}


>  <multiplicity>  (3) 
2

>  <reaction>  (3) 
rxn_1523

>  <type>  (3) 
ts

>  <role_mapnums>  (3) 
{"*2": 20, "*1": 9, "*3": 2, "*0": 11, "*4": 1}

>  <role_mapidx>  (3) 
{"*2": 19, "*1": 8, "*3": 1, "*0": 10, "*4": 0}

>  <ordered_mapped_smiles>  (3) 
[C:1]([C:2]([H:6])[H:7])([H:3])([H:4])[H:5].[C:8]([C:9]([C:10]([H:21])([H:22])[H:23])([CH:11]1[CH:12]([H:24])[CH:13]([H:25])[CH:14]([H:26])[CH:15]([H:27])[CH:16]1[H:28])[H:20])([H:17])([H:18])[H:19]

>  <mol_properties>  (3) 
{"0": {"label": "*4", "atom_type": "Cs"}, "1": {"label": "*3", "atom_type": "Cs"}, "8": {"label": "*1", "atom_type": "Cs"}, "10": {"label": "*0", "atom_type": "Cs"}, "19": {"label": "*2", "atom_type": "H0"}}

>  <level_of_theory>  (3) 
wb97xd/def2tzvp

>  <lot_method>  (3) 
wb97xd

>  <lot_basis>  (3) 
def2tzvp

>  <spin_multiplicity>  (3) 
2.0

>  <optical_isomers>  (3) 
2.0

>  <modes>  (3) 
IdealGasTranslation(mass=(149.133, 'amu')),         NonlinearRotor(             inertia = ([368.17, 660.315, 748.577

>  <frequency_value>  (3) 
-1575.86

>  <frequency_units>  (3) 
cm^-1

>  <frequency_list>  (3) 
unknown

>  <arkane_path>  (3) 
/home/calvin/Dropbox/PersonalFolders/Calvin/HAb_Converged/rxn_1523/output/rxns/TS0/arkane/output.py

>  <path_exists>  (3) 
True

>  <E0_value>  (3) 
-1126620.0

>  <E0_units>  (3) 
kJ/mol

>  <thermo_class>  (3) 
unknown

>  <Cp0_value>  (3) 
unknown

>  <Cp0_units>  (3) 
unknown

>  <CpInf_value>  (3) 
unknown

>  <CpInf_units>  (3) 
unknown

>  <Tmin_value>  (3) 
unknown

>  <Tmin_units>  (3) 
unknown

>  <Tmax_value>  (3) 
unknown

>  <Tmax_units>  (3) 
unknown

>  <polynomials>  (3) 
unknown

>  <H298_value>  (3) 
unknown

>  <H298_units>  (3) 
unknown

>  <S298_value>  (3) 
unknown

>  <S298_units>  (3) 
unknown

>  <Cp_T_value_list>  (3) 
unknown

>  <Cp_T_units>  (3) 
unknown

>  <T_list>  (3) 
unknown

>  <T_units>  (3) 
unknown

>  <yaml_path>  (3) 
unknown

>  <frequencies_cm1>  (3) 
unknown

>  <ZPE_kJmol>  (3) 
unknown

>  <E_elec_kJmol>  (3) 
unknown

>  <E0_minus_Eelec_plus_ZPE_kJmol>  (3) 
unknown

>  <rxn>  (3) 
unknown

>  <species_type>  (3) 
unknown

>  <species_folder>  (3) 
unknown

>  <frequencies_cm1_list>  (3) 
[]

>  <ts_imag_freq_cm1>  (3) 
-1595.0046

>  <ts_freq_out_path>  (3) 
/home/calvin/Dropbox/PersonalFolders/Calvin/HAb_Converged/rxn_1523/output/rxns/TS0/geometry/freq.out

>  <E0_kJmol>  (3) 
-1.12662e+06

>  <H298_kJmol>  (3) 
unknown

$$$$

     RDKit          3D

 20 20  0  0  0  0  0  0  0  0999 V2000
   -2.4774    0.8083    0.1488 C   0  0  0  0  0  0  0  0  0  1  0  0
   -1.4172   -0.1696   -0.2476 C   0  0  0  0  0  3  0  0  0  2  0  0
   -0.2904    0.2932   -1.1156 C   0  0  0  0  0  0  0  0  0  3  0  0
   -1.4797   -1.5204    0.1947 C   0  0  0  0  0  0  0  0  0  4  0  0
   -0.4907   -2.4664   -0.1650 C   0  0  0  0  0  0  0  0  0  5  0  0
   -0.5559   -3.7750    0.2665 C   0  0  0  0  0  0  0  0  0  6  0  0
   -1.6038   -4.2041    1.0733 C   0  0  0  0  0  0  0  0  0  7  0  0
   -2.5899   -3.2959    1.4424 C   0  0  0  0  0  0  0  0  0  8  0  0
   -2.5339   -1.9852    1.0162 C   0  0  0  0  0  0  0  0  0  9  0  0
   -3.4697    0.4933   -0.1924 H   0  0  0  0  0  0  0  0  0 10  0  0
   -2.5434    0.9184    1.2368 H   0  0  0  0  0  0  0  0  0 11  0  0
   -2.2829    1.7944   -0.2706 H   0  0  0  0  0  0  0  0  0 12  0  0
   -0.2452   -0.2661   -2.0565 H   0  0  0  0  0  0  0  0  0 13  0  0
   -0.3905    1.3487   -1.3647 H   0  0  0  0  0  0  0  0  0 14  0  0
    0.6811    0.1589   -0.6274 H   0  0  0  0  0  0  0  0  0 15  0  0
    0.3373   -2.1635   -0.7918 H   0  0  0  0  0  0  0  0  0 16  0  0
    0.2187   -4.4725   -0.0281 H   0  0  0  0  0  0  0  0  0 17  0  0
   -1.6513   -5.2316    1.4097 H   0  0  0  0  0  0  0  0  0 18  0  0
   -3.4116   -3.6175    2.0706 H   0  0  0  0  0  0  0  0  0 19  0  0
   -3.3164   -1.3029    1.3205 H   0  0  0  0  0  0  0  0  0 20  0  0
  1 11  1  0
  1 10  1  0
  1 12  1  0
  1  2  1  0
  2  3  1  0
  2  4  1  0
  3 15  1  0
  3 13  1  0
  3 14  1  0
  4  9  1  0
  4  5  1  0
  5 16  1  0
  5  6  1  0
  6  7  1  0
  6 17  1  0
  7 18  1  0
  7  8  1  0
  8 19  1  0
  8  9  1  0
  9 20  1  0
M  RAD  1   2   2
M  END
>  <rmg_smiles>  (4) 
C[C](C)C1[CH][CH][CH][CH][CH]1

>  <rmg_adjacency_list>  (4) 
multiplicity 2
1  C u0 p0 c0 {3,S} {10,S} {11,S} {12,S}
2  C u0 p0 c0 {3,S} {13,S} {14,S} {15,S}
3  C u1 p0 c0 {1,S} {2,S} {4,S}
4  C u0 p0 c0 {3,S} {5,S} {6,S}
5  C u0 p0 c0 {4,S} {7,S} {16,S}
6  C u0 p0 c0 {4,S} {9,S} {20,S}
7  C u0 p0 c0 {5,S} {8,S} {17,S}
8  C u0 p0 c0 {7,S} {9,S} {18,S}
9  C u0 p0 c0 {6,S} {8,S} {19,S}
10 H u0 p0 c0 {1,S}
11 H u0 p0 c0 {1,S}
12 H u0 p0 c0 {1,S}
13 H u0 p0 c0 {2,S}
14 H u0 p0 c0 {2,S}
15 H u0 p0 c0 {2,S}
16 H u0 p0 c0 {5,S}
17 H u0 p0 c0 {7,S}
18 H u0 p0 c0 {8,S}
19 H u0 p0 c0 {9,S}
20 H u0 p0 c0 {6,S}


>  <multiplicity>  (4) 
2

>  <reaction>  (4) 
rxn_1523

>  <type>  (4) 
r1

>  <role_mapnums>  (4) 
{}

>  <role_mapidx>  (4) 
{}

>  <ordered_mapped_smiles>  (4) 
[C:1]([C:2]([C:3]([H:13])([H:14])[H:15])[CH:4]1[CH:5]([H:16])[CH:6]([H:17])[CH:7]([H:18])[CH:8]([H:19])[CH:9]1[H:20])([H:10])([H:11])[H:12]

>  <level_of_theory>  (4) 
wb97xd/def2tzvp

>  <lot_method>  (4) 
wb97xd

>  <lot_basis>  (4) 
def2tzvp

>  <spin_multiplicity>  (4) 
2.0

>  <optical_isomers>  (4) 
1.0

>  <modes>  (4) 
IdealGasTranslation(mass=(119.086, 'amu')),         NonlinearRotor(             inertia = ([147.943, 418.336, 560.064

>  <frequency_value>  (4) 
unknown

>  <frequency_units>  (4) 
unknown

>  <frequency_list>  (4) 
unknown

>  <arkane_path>  (4) 
/home/calvin/Dropbox/PersonalFolders/Calvin/HAb_Converged/rxn_1523/output/Species/rxn_1523_C[C][C]c1ccccc1/arkane/output.py

>  <path_exists>  (4) 
True

>  <E0_value>  (4) 
-917305.6793154374

>  <E0_units>  (4) 
kJ/mol

>  <thermo_class>  (4) 
NASA

>  <Cp0_value>  (4) 
33.257888

>  <Cp0_units>  (4) 
J/(mol*K)

>  <CpInf_value>  (4) 
482.239376

>  <CpInf_units>  (4) 
J/(mol*K)

>  <Tmin_value>  (4) 
10.0

>  <Tmin_units>  (4) 
K

>  <Tmax_value>  (4) 
3000.0

>  <Tmax_units>  (4) 
K

>  <polynomials>  (4) 
[{"name": "polynomial1", "class": "NASAPolynomial", "Tmin_value": 10.0, "Tmin_units": "K", "Tmax_value": 820.2225002457031, "Tmax_units": "K", "coeffs": [3.7087715908878534, 0.03551334410867291, 7.625059119540152e-05, -1.2560734316113271e-07, 5.320480088877488e-11, -110326392.84742013, 12.19412592857727]}, {"name": "polynomial2", "class": "NASAPolynomial", "Tmin_value": 820.2225002457031, "Tmin_units": "K", "Tmax_value": 3000.0, "Tmax_units": "K", "coeffs": [2.0631615838326263, 0.07155383546720528, -4.0892856549356014e-05, 1.1247434201086425e-08, -1.200197285964276e-12, -110327065.27984656, 14.06242109608226]}]

>  <H298_value>  (4) 
-219235.10103074583

>  <H298_units>  (4) 
kcal/mol

>  <S298_value>  (4) 
91.98557876161978

>  <S298_units>  (4) 
cal/(mol*K)

>  <Cp_T_value_list>  (4) 
[36.29610547032918, 46.57490747487287, 55.94477856481854, 64.04994476982951, 76.31181375819965, 84.99555925751662, 97.907834516263, 104.08137794150619, 107.1390022615462]

>  <Cp_T_units>  (4) 
cal/(mol*K)

>  <T_list>  (4) 
[300.0, 400.0, 500.0, 600.0, 800.0, 1000.0, 1500.0, 2000.0, 2400.0]

>  <T_units>  (4) 
K

>  <yaml_path>  (4) 
/home/calvin/Dropbox/PersonalFolders/Calvin/HAb_Converged/rxn_1523/output/Species/rxn_1523_C[C][C]c1ccccc1/rxn_1523_CCCc1ccccc1.yml

>  <frequencies_cm1>  (4) 
[63.56081612192, 120.90701052923998, 139.35173309875998, 146.39726003707997, 226.46630886828, 338.41877054023996, 360.33818768168, 416.18737928923997, 451.99870773303996, 518.2376481297599, 524.17759043156, 626.9420257453601, 690.9491959130801, 730.7777107690799, 767.1040631118799, 830.7266821016799, 897.8583305899999, 913.4944561636399, 942.5692720085199, 968.56767843004, 978.9505602338799, 993.91372124616, 999.23563486916, 1039.80578413972, 1044.4753341573198, 1105.9691876979198, 1113.02158162156, 1170.28537220504, 1199.70353731592, 1239.75866268748, 1319.3882244581998, 1348.18836089028, 1355.0896811368798, 1389.11559339748, 1406.12511603512, 1462.54426742424, 1462.78461191044, 1474.0258668792799, 1486.24910074888, 1486.8121935451197, 1509.72045657264, 1596.1139988835598, 1617.80680550944, 2981.31541064864, 2984.9205779416397, 3027.138803689, 3028.1413835457197, 3095.76058799176, 3103.71255699232, 3152.0767346010794, 3159.1703304366397, 3175.07426843776, 3181.8657169192397, 3186.23311958276]

>  <ZPE_kJmol>  (4) 
445.9053042173275

>  <E_elec_kJmol>  (4) 
-917751.5846196548

>  <E0_minus_Eelec_plus_ZPE_kJmol>  (4) 
0.0

>  <rxn>  (4) 
rxn_1523

>  <species_type>  (4) 
p1

>  <species_folder>  (4) 
rxn_1523_C[C][C]c1ccccc1

>  <frequencies_cm1_list>  (4) 
[63.56081612192, 120.90701052923998, 139.35173309875998, 146.39726003707997, 226.46630886828, 338.41877054023996, 360.33818768168, 416.18737928923997, 451.99870773303996, 518.2376481297599, 524.17759043156, 626.9420257453601, 690.9491959130801, 730.7777107690799, 767.1040631118799, 830.7266821016799, 897.8583305899999, 913.4944561636399, 942.5692720085199, 968.56767843004, 978.9505602338799, 993.91372124616, 999.23563486916, 1039.80578413972, 1044.4753341573198, 1105.9691876979198, 1113.02158162156, 1170.28537220504, 1199.70353731592, 1239.75866268748, 1319.3882244581998, 1348.18836089028, 1355.0896811368798, 1389.11559339748, 1406.12511603512, 1462.54426742424, 1462.78461191044, 1474.0258668792799, 1486.24910074888, 1486.8121935451197, 1509.72045657264, 1596.1139988835598, 1617.80680550944, 2981.31541064864, 2984.9205779416397, 3027.138803689, 3028.1413835457197, 3095.76058799176, 3103.71255699232, 3152.0767346010794, 3159.1703304366397, 3175.07426843776, 3181.8657169192397, 3186.23311958276]

>  <E0_kJmol>  (4) 
-917306

>  <H298_kJmol>  (4) 
-917280

$$$$

     RDKit          3D

  7  6  0  0  0  0  0  0  0  0999 V2000
   -0.6201    0.0189   -0.0017 C   0  0  0  0  0  0  0  0  0  1  0  0
    0.8589   -0.0553    0.0500 C   0  0  0  0  0  3  0  0  0  2  0  0
   -1.0738   -0.9730   -0.0559 H   0  0  0  0  0  0  0  0  0  3  0  0
   -0.9680    0.5706   -0.8872 H   0  0  0  0  0  0  0  0  0  4  0  0
   -1.0303    0.5369    0.8678 H   0  0  0  0  0  0  0  0  0  5  0  0
    1.3939   -0.8386   -0.4695 H   0  0  0  0  0  0  0  0  0  6  0  0
    1.4394    0.7404    0.4965 H   0  0  0  0  0  0  0  0  0  7  0  0
  1  5  1  0
  1  4  1  0
  1  3  1  0
  1  2  1  0
  2  7  1  0
  2  6  1  0
M  RAD  1   2   2
M  END
>  <rmg_smiles>  (5) 
C[CH2]

>  <rmg_adjacency_list>  (5) 
multiplicity 2
1 C u0 p0 c0 {2,S} {3,S} {4,S} {5,S}
2 C u1 p0 c0 {1,S} {6,S} {7,S}
3 H u0 p0 c0 {1,S}
4 H u0 p0 c0 {1,S}
5 H u0 p0 c0 {1,S}
6 H u0 p0 c0 {2,S}
7 H u0 p0 c0 {2,S}


>  <multiplicity>  (5) 
2

>  <reaction>  (5) 
rxn_1523

>  <type>  (5) 
r2

>  <role_mapnums>  (5) 
{}

>  <role_mapidx>  (5) 
{}

>  <ordered_mapped_smiles>  (5) 
[C:1]([C:2]([H:6])[H:7])([H:3])([H:4])[H:5]

>  <level_of_theory>  (5) 
wb97xd/def2tzvp

>  <lot_method>  (5) 
wb97xd

>  <lot_basis>  (5) 
def2tzvp

>  <spin_multiplicity>  (5) 
2.0

>  <optical_isomers>  (5) 
1.0

>  <modes>  (5) 
IdealGasTranslation(mass=(29.0391, 'amu')),         NonlinearRotor(             inertia = ([4.86051, 22.0602, 23.8144

>  <frequency_value>  (5) 
unknown

>  <frequency_units>  (5) 
unknown

>  <frequency_list>  (5) 
unknown

>  <arkane_path>  (5) 
/home/calvin/Dropbox/PersonalFolders/Calvin/HAb_Converged/rxn_1523/output/Species/rxn_1523_C[CH2]/arkane/output.py

>  <path_exists>  (5) 
True

>  <E0_value>  (5) 
-207679.78865121285

>  <E0_units>  (5) 
kJ/mol

>  <thermo_class>  (5) 
NASA

>  <Cp0_value>  (5) 
33.257888

>  <Cp0_units>  (5) 
J/(mol*K)

>  <CpInf_value>  (5) 
157.97496800000002

>  <CpInf_units>  (5) 
J/(mol*K)

>  <Tmin_value>  (5) 
10.0

>  <Tmin_units>  (5) 
K

>  <Tmax_value>  (5) 
3000.0

>  <Tmax_units>  (5) 
K

>  <polynomials>  (5) 
[{"name": "polynomial1", "class": "NASAPolynomial", "Tmin_value": 10.0, "Tmin_units": "K", "Tmax_value": 487.87976470861213, "Tmax_units": "K", "coeffs": [3.9121871353579607, 0.009303342355112522, -1.0632548237956822e-05, 4.8831908404358495e-08, -4.7450160133634566e-11, -24978109.370781355, 5.932423398139755]}, {"name": "polynomial2", "class": "NASAPolynomial", "Tmin_value": 487.87976470861213, "Tmin_units": "K", "Tmax_value": 3000.0, "Tmax_units": "K", "coeffs": [1.255601804674027, 0.02015925973571526, -1.042095542288469e-05, 2.645655029251924e-09, -2.6467461504495006e-13, -24977720.132981308, 18.174806831505954]}]

>  <H298_value>  (5) 
-49633.563072244775

>  <H298_units>  (5) 
kcal/mol

>  <S298_value>  (5) 
61.32124798502571

>  <S298_units>  (5) 
cal/(mol*K)

>  <Cp_T_value_list>  (5) 
[13.275286080102546, 15.585331501205383, 17.97260864331377, 20.143861899983392, 23.766518336877798, 26.578661465366384, 31.07297867985595, 33.426295758137194, 34.588101279891]

>  <Cp_T_units>  (5) 
cal/(mol*K)

>  <T_list>  (5) 
[300.0, 400.0, 500.0, 600.0, 800.0, 1000.0, 1500.0, 2000.0, 2400.0]

>  <T_units>  (5) 
K

>  <yaml_path>  (5) 
/home/calvin/Dropbox/PersonalFolders/Calvin/HAb_Converged/rxn_1523/output/Species/rxn_1523_C[CH2]/rxn_1523_CCH2.yml

>  <frequencies_cm1>  (5) 
[107.07690209476, 475.05117745227994, 809.2398850354, 971.27327064612, 1064.95268438156, 1183.6279246817999, 1386.8220203006, 1452.9442219468801, 1466.90480310244, 1470.74344789632, 2948.7315653052397, 3035.3173832051198, 3081.4978594821196, 3128.7358514984, 3230.1062887922394]

>  <ZPE_kJmol>  (5) 
154.3962225328414

>  <E_elec_kJmol>  (5) 
-207834.1848737457

>  <E0_minus_Eelec_plus_ZPE_kJmol>  (5) 
0.0

>  <rxn>  (5) 
rxn_1523

>  <species_type>  (5) 
r0

>  <species_folder>  (5) 
rxn_1523_C[CH2]

>  <frequencies_cm1_list>  (5) 
[107.07690209476, 475.05117745227994, 809.2398850354, 971.27327064612, 1064.95268438156, 1183.6279246817999, 1386.8220203006, 1452.9442219468801, 1466.90480310244, 1470.74344789632, 2948.7315653052397, 3035.3173832051198, 3081.4978594821196, 3128.7358514984, 3230.1062887922394]

>  <E0_kJmol>  (5) 
-207680

>  <H298_kJmol>  (5) 
-207667

$$$$
