
     RDKit          3D

 19 20  0  0  0  0  0  0  0  0999 V2000
   -0.5720   -1.0227   -0.0091 C   0  0  0  0  0  0  0  0  0  1  0  0
    0.5230    0.8342    0.6412 C   0  0  0  0  0  0  0  0  0  2  0  0
   -0.1090   -0.3933    1.3119 C   0  0  0  0  0  0  0  0  0  3  0  0
   -1.4242    0.1086   -0.6066 C   0  0  0  0  0  0  0  0  0  4  0  0
   -0.6667    1.3921   -0.1666 C   0  0  0  0  0  0  0  0  0  5  0  0
    0.7501   -1.0994   -0.7935 C   0  0  0  0  0  0  0  0  0  6  0  0
    1.4718    0.1734   -0.3429 C   0  0  0  0  0  0  0  0  0  7  0  0
   -1.0925   -1.9758    0.0687 H   0  0  0  0  0  0  0  0  0  8  0  0
    0.9947    1.5623    1.2990 H   0  0  0  0  0  0  0  0  0  9  0  0
   -1.5129    0.0234   -1.6905 H   0  0  0  0  0  0  0  0  0 10  0  0
   -2.4339    0.0894   -0.1938 H   0  0  0  0  0  0  0  0  0 11  0  0
   -1.2923    2.0237    0.4665 H   0  0  0  0  0  0  0  0  0 12  0  0
   -0.3380    1.9996   -1.0108 H   0  0  0  0  0  0  0  0  0 13  0  0
   -0.9346   -0.1395    1.9790 H   0  0  0  0  0  0  0  0  0 14  0  0
    0.6163   -1.0043    1.8520 H   0  0  0  0  0  0  0  0  0 15  0  0
    1.3176   -1.9923   -0.5167 H   0  0  0  0  0  0  0  0  0 16  0  0
    0.5942   -1.1348   -1.8732 H   0  0  0  0  0  0  0  0  0 17  0  0
    1.8899    0.8121   -1.1191 H   0  0  0  0  0  0  0  0  0 18  0  0
    2.3516   -0.1243    0.2249 H   0  0  0  0  0  0  0  0  0 19  0  0
  1  3  1  0
  1  4  1  0
  1  8  1  0
  1  6  1  0
  2  3  1  0
  2  5  1  0
  2  9  1  0
  2  7  1  0
  3 15  1  0
  3 14  1  0
  4 10  1  0
  4 11  1  0
  4  5  1  0
  5 12  1  0
  5 13  1  0
  6  7  1  0
  6 16  1  0
  6 17  1  0
  7 18  1  0
  7 19  1  0
M  END
>  <rmg_smiles>  (1) 
C1CC2CCC1C2

>  <rmg_adjacency_list>  (1) 
1  C u0 p0 c0 {3,S} {4,S} {6,S} {8,S}
2  C u0 p0 c0 {3,S} {5,S} {7,S} {9,S}
3  C u0 p0 c0 {1,S} {2,S} {14,S} {15,S}
4  C u0 p0 c0 {1,S} {5,S} {10,S} {11,S}
5  C u0 p0 c0 {2,S} {4,S} {12,S} {13,S}
6  C u0 p0 c0 {1,S} {7,S} {16,S} {17,S}
7  C u0 p0 c0 {2,S} {6,S} {18,S} {19,S}
8  H u0 p0 c0 {1,S}
9  H u0 p0 c0 {2,S}
10 H u0 p0 c0 {4,S}
11 H u0 p0 c0 {4,S}
12 H u0 p0 c0 {5,S}
13 H u0 p0 c0 {5,S}
14 H u0 p0 c0 {3,S}
15 H u0 p0 c0 {3,S}
16 H u0 p0 c0 {6,S}
17 H u0 p0 c0 {6,S}
18 H u0 p0 c0 {7,S}
19 H u0 p0 c0 {7,S}


>  <multiplicity>  (1) 
1

>  <reaction>  (1) 
rxn_731

>  <type>  (1) 
r1h

>  <role_mapnums>  (1) 
{"r1h_a": 7, "r1h_h": 19}

>  <role_mapidx>  (1) 
{"r1h_a": 6, "r1h_h": 18}

>  <ordered_mapped_smiles>  (1) 
[C:1]12([H:8])[C:3]([H:14])([H:15])[C:2]([H:9])([C:5]([H:12])([H:13])[C:4]1([H:10])[H:11])[C:7]([H:18])([H:19])[C:6]2([H:16])[H:17]

>  <mol_properties>  (1) 
{"6": {"label": "donator", "atom_type": "Cs"}, "18": {"label": "d_hydrogen", "atom_type": "H0"}}

>  <level_of_theory>  (1) 
wb97xd/def2tzvp

>  <lot_method>  (1) 
wb97xd

>  <lot_basis>  (1) 
def2tzvp

>  <spin_multiplicity>  (1) 
1.0

>  <optical_isomers>  (1) 
1.0

>  <modes>  (1) 
IdealGasTranslation(mass=(96.0939, 'amu')),         NonlinearRotor(             inertia = ([135.336, 156.085, 180.607

>  <frequency_value>  (1) 
unknown

>  <frequency_units>  (1) 
unknown

>  <frequency_list>  (1) 
unknown

>  <arkane_path>  (1) 
/home/calvin/Dropbox/PersonalFolders/Calvin/HAb_Converged/rxn_731/output/Species/rxn_731_C1CC2CCC1C2/arkane/output.py

>  <path_exists>  (1) 
True

>  <E0_value>  (1) 
-718893.5806331062

>  <E0_units>  (1) 
kJ/mol

>  <thermo_class>  (1) 
NASA

>  <Cp0_value>  (1) 
33.257888

>  <Cp0_units>  (1) 
J/(mol*K)

>  <CpInf_value>  (1) 
457.29596

>  <CpInf_units>  (1) 
J/(mol*K)

>  <Tmin_value>  (1) 
10.0

>  <Tmin_units>  (1) 
K

>  <Tmax_value>  (1) 
3000.0

>  <Tmax_units>  (1) 
K

>  <polynomials>  (1) 
[{"name": "polynomial1", "class": "NASAPolynomial", "Tmin_value": 10.0, "Tmin_units": "K", "Tmax_value": 662.4178125457627, "Tmax_units": "K", "coeffs": [4.239403585768697, -0.01836828814634063, 0.0002578950712714286, -3.7381328534857083e-07, 1.74409927807895e-10, -86462928.5201383, 9.87949578073462]}, {"name": "polynomial2", "class": "NASAPolynomial", "Tmin_value": 662.4178125457627, "Tmin_units": "K", "Tmax_value": 3000.0, "Tmax_units": "K", "coeffs": [-6.999983226389214, 0.08370637401899614, -5.070273549604008e-05, 1.4717426455763106e-08, -1.6436943039919863e-12, -86462189.9567335, 53.80936817756756]}]

>  <H298_value>  (1) 
-171815.58472962098

>  <H298_units>  (1) 
kcal/mol

>  <S298_value>  (1) 
73.63684385034063

>  <S298_units>  (1) 
cal/(mol*K)

>  <Cp_T_value_list>  (1) 
[26.348838520541374, 37.15309814493767, 47.10273015631388, 55.48382566754763, 68.31505323621754, 77.6548383777145, 91.07076230422987, 97.45683083224962, 100.88536523646154]

>  <Cp_T_units>  (1) 
cal/(mol*K)

>  <T_list>  (1) 
[300.0, 400.0, 500.0, 600.0, 800.0, 1000.0, 1500.0, 2000.0, 2400.0]

>  <T_units>  (1) 
K

>  <yaml_path>  (1) 
/home/calvin/Dropbox/PersonalFolders/Calvin/HAb_Converged/rxn_731/output/Species/rxn_731_C1CC2CCC1C2/rxn_731_C1CC2CCC1C2.yml

>  <frequencies_cm1>  (1) 
[154.85738595131997, 340.37586135643994, 406.75900844488, 450.69398052224, 546.52276066284, 762.7915963309199, 767.83883054112, 803.5128192785198, 822.9257867781599, 828.1927645185999, 886.4866029000799, 904.4231685559199, 936.7804033837599, 957.0723450043599, 964.2964135609999, 966.8990009972799, 969.81060277296, 1009.5017779225599, 1041.98261848616, 1088.6987196181199, 1128.4585646209198, 1135.50409155924, 1162.87589504476, 1186.2717140299999, 1234.53288685896, 1241.50287695876, 1269.37597037264, 1285.33484425632, 1285.7125284489198, 1300.5726846814, 1328.01315802012, 1340.8956224804401, 1342.91451616452, 1343.99949984508, 1472.87221334552, 1484.7314969931601, 1486.79845957448, 1493.51437121744, 1517.5419528521197, 3027.37228118988, 3027.8598371476, 3028.0795806778397, 3039.1354270430397, 3039.76032270716, 3064.0831847106, 3066.3286889102396, 3077.8514902772, 3080.41974278688, 3084.8970172155196, 3085.2334994962002, 3090.71335378156]

>  <ZPE_kJmol>  (1) 
462.7371032824111

>  <E_elec_kJmol>  (1) 
-719356.3177363885

>  <E0_minus_Eelec_plus_ZPE_kJmol>  (1) 
0.0

>  <rxn>  (1) 
rxn_731

>  <species_type>  (1) 
r1

>  <species_folder>  (1) 
rxn_731_C1CC2CCC1C2

>  <frequencies_cm1_list>  (1) 
[154.85738595131997, 340.37586135643994, 406.75900844488, 450.69398052224, 546.52276066284, 762.7915963309199, 767.83883054112, 803.5128192785198, 822.9257867781599, 828.1927645185999, 886.4866029000799, 904.4231685559199, 936.7804033837599, 957.0723450043599, 964.2964135609999, 966.8990009972799, 969.81060277296, 1009.5017779225599, 1041.98261848616, 1088.6987196181199, 1128.4585646209198, 1135.50409155924, 1162.87589504476, 1186.2717140299999, 1234.53288685896, 1241.50287695876, 1269.37597037264, 1285.33484425632, 1285.7125284489198, 1300.5726846814, 1328.01315802012, 1340.8956224804401, 1342.91451616452, 1343.99949984508, 1472.87221334552, 1484.7314969931601, 1486.79845957448, 1493.51437121744, 1517.5419528521197, 3027.37228118988, 3027.8598371476, 3028.0795806778397, 3039.1354270430397, 3039.76032270716, 3064.0831847106, 3066.3286889102396, 3077.8514902772, 3080.41974278688, 3084.8970172155196, 3085.2334994962002, 3090.71335378156]

>  <E0_kJmol>  (1) 
-718894

>  <H298_kJmol>  (1) 
-718876

$$$$

     RDKit          3D

  2  1  0  0  0  0  0  0  0  0999 V2000
    0.3769   -0.1534    0.2720 H   0  0  0  0  0  0  0  0  0  1  0  0
   -0.1929    0.0785   -0.1392 H   0  0  0  0  0  0  0  0  0  2  0  0
  1  2  1  0
M  END
>  <rmg_smiles>  (2) 
[H][H]

>  <rmg_adjacency_list>  (2) 
1 H u0 p0 c0 {2,S}
2 H u0 p0 c0 {1,S}


>  <multiplicity>  (2) 
1

>  <reaction>  (2) 
rxn_731

>  <type>  (2) 
r2h

>  <role_mapnums>  (2) 
{"r2h_a": 1, "r2h_h": 2}

>  <role_mapidx>  (2) 
{"r2h_a": 0, "r2h_h": 1}

>  <ordered_mapped_smiles>  (2) 
[H:1][H:2]

>  <mol_properties>  (2) 
{"0": {"label": "acceptor", "atom_type": "H0"}, "1": {"label": "a_hydrogen", "atom_type": "H0"}}

>  <level_of_theory>  (2) 
wb97xd/def2tzvp

>  <lot_method>  (2) 
wb97xd

>  <lot_basis>  (2) 
def2tzvp

>  <spin_multiplicity>  (2) 
1.0

>  <optical_isomers>  (2) 
1.0

>  <modes>  (2) 
IdealGasTranslation(mass=(2.01565, 'amu')),         LinearRotor(inertia=(0.279051, 'amu*angstrom^2'), symmetry=2),         HarmonicOscillator(frequencies=([4384.98

>  <frequency_value>  (2) 
unknown

>  <frequency_units>  (2) 
unknown

>  <frequency_list>  (2) 
unknown

>  <arkane_path>  (2) 
/home/calvin/Dropbox/PersonalFolders/Calvin/HAb_Converged/rxn_731/output/Species/rxn_731_[H][H]/arkane/output.py

>  <path_exists>  (2) 
True

>  <E0_value>  (2) 
-3062.16965545063

>  <E0_units>  (2) 
kJ/mol

>  <thermo_class>  (2) 
NASA

>  <Cp0_value>  (2) 
29.100652

>  <Cp0_units>  (2) 
J/(mol*K)

>  <CpInf_value>  (2) 
37.415124

>  <CpInf_units>  (2) 
J/(mol*K)

>  <Tmin_value>  (2) 
10.0

>  <Tmin_units>  (2) 
K

>  <Tmax_value>  (2) 
3000.0

>  <Tmax_units>  (2) 
K

>  <polynomials>  (2) 
[{"name": "polynomial1", "class": "NASAPolynomial", "Tmin_value": 10.0, "Tmin_units": "K", "Tmax_value": 609.8839760798177, "Tmax_units": "K", "coeffs": [3.498630427760662, 8.118128927195725e-05, -2.559636751505851e-07, 1.12469612407288e-11, 3.0815171130046294e-13, -368293.8823611774, -4.277290681887199]}, {"name": "polynomial2", "class": "NASAPolynomial", "Tmin_value": 609.8839760798177, "Tmin_units": "K", "Tmax_value": 3000.0, "Tmax_units": "K", "coeffs": [3.686867766797846, -0.0007828622299568348, 9.578139376048542e-07, -3.193665739780837e-10, 3.533006631714403e-14, -368323.7341208647, -5.148841965058497]}]

>  <H298_value>  (2) 
-729.8011438890577

>  <H298_units>  (2) 
kcal/mol

>  <S298_value>  (2) 
31.136082854374543

>  <S298_units>  (2) 
cal/(mol*K)

>  <Cp_T_value_list>  (2) 
[6.960683160805141, 6.952753142081975, 6.947066275630451, 6.950370161364484, 7.003977696739648, 7.10979357060473, 7.489089863592967, 7.874797646413975, 8.112273708870758]

>  <Cp_T_units>  (2) 
cal/(mol*K)

>  <T_list>  (2) 
[300.0, 400.0, 500.0, 600.0, 800.0, 1000.0, 1500.0, 2000.0, 2400.0]

>  <T_units>  (2) 
K

>  <yaml_path>  (2) 
/home/calvin/Dropbox/PersonalFolders/Calvin/HAb_Converged/rxn_731/output/Species/rxn_731_[H][H]/rxn_731_HH.yml

>  <frequencies_cm1>  (2) 
[4384.97527895388]

>  <ZPE_kJmol>  (2) 
26.22798418526521

>  <E_elec_kJmol>  (2) 
-3088.3976396358958

>  <E0_minus_Eelec_plus_ZPE_kJmol>  (2) 
0.0

>  <rxn>  (2) 
rxn_731

>  <species_type>  (2) 
p0

>  <species_folder>  (2) 
rxn_731_[H][H]

>  <frequencies_cm1_list>  (2) 
[4384.97527895388]

>  <E0_kJmol>  (2) 
-3062.17

>  <H298_kJmol>  (2) 
-3053.49

$$$$

     RDKit          3D

 20 20  0  0  0  0  0  0  0  0999 V2000
   -0.7501   -1.0023   -0.0341 C   0  0  0  0  0  0  0  0  0  1  0  0
    0.3448    0.8546    0.6162 C   0  0  0  0  0  0  0  0  0  2  0  0
   -0.2872   -0.3729    1.2869 C   0  0  0  0  0  0  0  0  0  3  0  0
   -1.6024    0.1291   -0.6315 C   0  0  0  0  0  0  0  0  0  4  0  0
   -0.8449    1.4125   -0.1916 C   0  0  0  0  0  0  0  0  0  5  0  0
    0.5720   -1.0790   -0.8184 C   0  0  0  0  0  0  0  0  0  6  0  0
    1.2936    0.1938   -0.3679 C   0  0  0  0  0  0  0  0  0  7  0  0
   -1.2707   -1.9554    0.0438 H   0  0  0  0  0  0  0  0  0  8  0  0
    0.8165    1.5828    1.2740 H   0  0  0  0  0  0  0  0  0  9  0  0
   -1.6911    0.0438   -1.7155 H   0  0  0  0  0  0  0  0  0 10  0  0
   -2.6121    0.1099   -0.2187 H   0  0  0  0  0  0  0  0  0 11  0  0
   -1.4705    2.0442    0.4416 H   0  0  0  0  0  0  0  0  0 12  0  0
   -0.5161    2.0200   -1.0357 H   0  0  0  0  0  0  0  0  0 13  0  0
   -1.1128   -0.1190    1.9541 H   0  0  0  0  0  0  0  0  0 14  0  0
    0.4382   -0.9839    1.8270 H   0  0  0  0  0  0  0  0  0 15  0  0
    1.1394   -1.9719   -0.5416 H   0  0  0  0  0  0  0  0  0 16  0  0
    0.4160   -1.1143   -1.8982 H   0  0  0  0  0  0  0  0  0 17  0  0
    1.7117    0.8325   -1.1440 H   0  0  0  0  0  0  0  0  0 18  0  0
    3.0898   -0.4657    0.8489 H   0  0  0  0  0 15  0  0  0 19  0  0
    2.3359   -0.1588    0.3049 H   0  0  0  0  0  0  0  0  0 20  0  0
  1  3  1  0
  1  4  1  0
  1  8  1  0
  1  6  1  0
  2  3  1  0
  2  5  1  0
  2  9  1  0
  2  7  1  0
  3 15  1  0
  3 14  1  0
  4 10  1  0
  4 11  1  0
  4  5  1  0
  5 12  1  0
  5 13  1  0
  6  7  1  0
  6 16  1  0
  6 17  1  0
  7 20  1  0
  7 18  1  0
M  END
>  <rmg_smiles>  (3) 
C1CC2CCC1C2.[H]

>  <rmg_adjacency_list>  (3) 
multiplicity 2
1  C u0 p0 c0 {3,S} {4,S} {6,S} {8,S}
2  C u0 p0 c0 {3,S} {5,S} {7,S} {9,S}
3  C u0 p0 c0 {1,S} {2,S} {14,S} {15,S}
4  C u0 p0 c0 {1,S} {5,S} {10,S} {11,S}
5  C u0 p0 c0 {2,S} {4,S} {12,S} {13,S}
6  C u0 p0 c0 {1,S} {7,S} {16,S} {17,S}
7  C u0 p0 c0 {2,S} {6,S} {18,S} {19,S}
8  H u0 p0 c0 {1,S}
9  H u0 p0 c0 {2,S}
10 H u0 p0 c0 {4,S}
11 H u0 p0 c0 {4,S}
12 H u0 p0 c0 {5,S}
13 H u0 p0 c0 {5,S}
14 H u0 p0 c0 {3,S}
15 H u0 p0 c0 {3,S}
16 H u0 p0 c0 {6,S}
17 H u0 p0 c0 {6,S}
18 H u0 p0 c0 {7,S}
19 H u0 p0 c0 {7,S}
20 H u1 p0 c0


>  <multiplicity>  (3) 
2

>  <reaction>  (3) 
rxn_731

>  <type>  (3) 
ts

>  <role_mapnums>  (3) 
{"*2": 20, "*1": 19, "*3": 7, "*0": null, "*4": 2}

>  <role_mapidx>  (3) 
{"*2": 19, "*1": 18, "*3": 6, "*4": 1}

>  <ordered_mapped_smiles>  (3) 
[C:1]12([H:8])[C:3]([H:14])([H:15])[C:2]([H:9])([C:5]([H:12])([H:13])[C:4]1([H:10])[H:11])[C:7]([H:18])([H:20])[C:6]2([H:16])[H:17].[H:19]

>  <mol_properties>  (3) 
{"1": {"label": "*4", "atom_type": "Cs"}, "6": {"label": "*3", "atom_type": "Cs"}, "18": {"label": "*1", "atom_type": "H0"}, "19": {"label": "*2", "atom_type": "H0"}}

>  <level_of_theory>  (3) 
wb97xd/def2tzvp

>  <lot_method>  (3) 
wb97xd

>  <lot_basis>  (3) 
def2tzvp

>  <spin_multiplicity>  (3) 
2.0

>  <optical_isomers>  (3) 
2.0

>  <modes>  (3) 
IdealGasTranslation(mass=(97.1017, 'amu')),         NonlinearRotor(             inertia = ([136.816, 166.331, 191.651

>  <frequency_value>  (3) 
-1196.86

>  <frequency_units>  (3) 
cm^-1

>  <frequency_list>  (3) 
unknown

>  <arkane_path>  (3) 
/home/calvin/Dropbox/PersonalFolders/Calvin/HAb_Converged/rxn_731/output/rxns/TS0/arkane/output.py

>  <path_exists>  (3) 
True

>  <E0_value>  (3) 
-720187.0

>  <E0_units>  (3) 
kJ/mol

>  <thermo_class>  (3) 
unknown

>  <Cp0_value>  (3) 
unknown

>  <Cp0_units>  (3) 
unknown

>  <CpInf_value>  (3) 
unknown

>  <CpInf_units>  (3) 
unknown

>  <Tmin_value>  (3) 
unknown

>  <Tmin_units>  (3) 
unknown

>  <Tmax_value>  (3) 
unknown

>  <Tmax_units>  (3) 
unknown

>  <polynomials>  (3) 
unknown

>  <H298_value>  (3) 
unknown

>  <H298_units>  (3) 
unknown

>  <S298_value>  (3) 
unknown

>  <S298_units>  (3) 
unknown

>  <Cp_T_value_list>  (3) 
unknown

>  <Cp_T_units>  (3) 
unknown

>  <T_list>  (3) 
unknown

>  <T_units>  (3) 
unknown

>  <yaml_path>  (3) 
unknown

>  <frequencies_cm1>  (3) 
unknown

>  <ZPE_kJmol>  (3) 
unknown

>  <E_elec_kJmol>  (3) 
unknown

>  <E0_minus_Eelec_plus_ZPE_kJmol>  (3) 
unknown

>  <rxn>  (3) 
unknown

>  <species_type>  (3) 
unknown

>  <species_folder>  (3) 
unknown

>  <frequencies_cm1_list>  (3) 
[]

>  <ts_imag_freq_cm1>  (3) 
-1211.3992

>  <ts_freq_out_path>  (3) 
/home/calvin/Dropbox/PersonalFolders/Calvin/HAb_Converged/rxn_731/output/rxns/TS0/geometry/freq.out

>  <E0_kJmol>  (3) 
-720187

>  <H298_kJmol>  (3) 
unknown

$$$$

     RDKit          3D

 18 19  0  0  0  0  0  0  0  0999 V2000
    1.0085    0.0884    1.2095 C   0  0  0  0  0  3  0  0  0  1  0  0
    1.2139    1.0410    0.0690 C   0  0  0  0  0  0  0  0  0  2  0  0
    0.2881    0.4324   -1.0019 C   0  0  0  0  0  0  0  0  0  3  0  0
   -1.1714    0.6323   -0.5516 C   0  0  0  0  0  0  0  0  0  4  0  0
   -1.3278   -0.3670    0.6275 C   0  0  0  0  0  0  0  0  0  5  0  0
    0.0899   -0.9908    0.7354 C   0  0  0  0  0  0  0  0  0  6  0  0
    0.4790   -1.0703   -0.7525 C   0  0  0  0  0  0  0  0  0  7  0  0
    1.2161    0.3102    2.2471 H   0  0  0  0  0  0  0  0  0  8  0  0
    2.2567    1.0516   -0.2755 H   0  0  0  0  0  0  0  0  0  9  0  0
    0.9543    2.0764    0.3130 H   0  0  0  0  0  0  0  0  0 10  0  0
    0.4908    0.7813   -2.0131 H   0  0  0  0  0  0  0  0  0 11  0  0
   -1.8596    0.3913   -1.3630 H   0  0  0  0  0  0  0  0  0 12  0  0
   -1.3656    1.6639   -0.2546 H   0  0  0  0  0  0  0  0  0 13  0  0
   -1.6314    0.1167    1.5558 H   0  0  0  0  0  0  0  0  0 14  0  0
   -2.0651   -1.1401    0.3991 H   0  0  0  0  0  0  0  0  0 15  0  0
    0.1199   -1.9185    1.3041 H   0  0  0  0  0  0  0  0  0 16  0  0
   -0.2009   -1.6913   -1.3392 H   0  0  0  0  0  0  0  0  0 17  0  0
    1.5046   -1.4076   -0.9091 H   0  0  0  0  0  0  0  0  0 18  0  0
  1  8  1  0
  1  6  1  0
  1  2  1  0
  2  3  1  0
  2 10  1  0
  2  9  1  0
  3  4  1  0
  3 11  1  0
  3  7  1  0
  4 12  1  0
  4  5  1  0
  4 13  1  0
  5 14  1  0
  5 15  1  0
  5  6  1  0
  6  7  1  0
  6 16  1  0
  7 17  1  0
  7 18  1  0
M  RAD  1   1   2
M  END
>  <rmg_smiles>  (4) 
[CH]1CC2CCC1C2

>  <rmg_adjacency_list>  (4) 
multiplicity 2
1  C u0 p0 c0 {3,S} {4,S} {6,S} {8,S}
2  C u0 p0 c0 {3,S} {5,S} {7,S} {9,S}
3  C u0 p0 c0 {1,S} {2,S} {14,S} {15,S}
4  C u0 p0 c0 {1,S} {5,S} {10,S} {11,S}
5  C u0 p0 c0 {2,S} {4,S} {12,S} {13,S}
6  C u0 p0 c0 {1,S} {7,S} {16,S} {17,S}
7  C u1 p0 c0 {2,S} {6,S} {18,S}
8  H u0 p0 c0 {1,S}
9  H u0 p0 c0 {2,S}
10 H u0 p0 c0 {4,S}
11 H u0 p0 c0 {4,S}
12 H u0 p0 c0 {5,S}
13 H u0 p0 c0 {5,S}
14 H u0 p0 c0 {3,S}
15 H u0 p0 c0 {3,S}
16 H u0 p0 c0 {6,S}
17 H u0 p0 c0 {6,S}
18 H u0 p0 c0 {7,S}


>  <multiplicity>  (4) 
2

>  <reaction>  (4) 
rxn_731

>  <type>  (4) 
r1

>  <role_mapnums>  (4) 
{}

>  <role_mapidx>  (4) 
{}

>  <ordered_mapped_smiles>  (4) 
[C:1]1([H:8])[C:2]([H:9])([H:10])[C:3]2([H:11])[C:4]([H:12])([H:13])[C:5]([H:14])([H:15])[C:6]1([H:16])[C:7]2([H:17])[H:18]

>  <level_of_theory>  (4) 
wb97xd/def2tzvp

>  <lot_method>  (4) 
wb97xd

>  <lot_basis>  (4) 
def2tzvp

>  <spin_multiplicity>  (4) 
2.0

>  <optical_isomers>  (4) 
2.0

>  <modes>  (4) 
IdealGasTranslation(mass=(95.0861, 'amu')),         NonlinearRotor(             inertia = ([132.076, 151.536, 174.491

>  <frequency_value>  (4) 
unknown

>  <frequency_units>  (4) 
unknown

>  <frequency_list>  (4) 
unknown

>  <arkane_path>  (4) 
/home/calvin/Dropbox/PersonalFolders/Calvin/HAb_Converged/rxn_731/output/Species/rxn_731_[CH]1CC2CCC1C2/arkane/output.py

>  <path_exists>  (4) 
True

>  <E0_value>  (4) 
-717174.6605343558

>  <E0_units>  (4) 
kJ/mol

>  <thermo_class>  (4) 
NASA

>  <Cp0_value>  (4) 
33.257888

>  <Cp0_units>  (4) 
J/(mol*K)

>  <CpInf_value>  (4) 
432.352544

>  <CpInf_units>  (4) 
J/(mol*K)

>  <Tmin_value>  (4) 
10.0

>  <Tmin_units>  (4) 
K

>  <Tmax_value>  (4) 
3000.0

>  <Tmax_units>  (4) 
K

>  <polynomials>  (4) 
[{"name": "polynomial1", "class": "NASAPolynomial", "Tmin_value": 10.0, "Tmin_units": "K", "Tmax_value": 627.8575921144865, "Tmax_units": "K", "coeffs": [4.196860558820338, -0.016171105268722473, 0.00026078071603870495, -4.023045641305321e-07, 1.994526736098869e-10, -86256187.80409713, 11.805109187536795]}, {"name": "polynomial2", "class": "NASAPolynomial", "Tmin_value": 627.8575921144865, "Tmin_units": "K", "Tmax_value": 3000.0, "Tmax_units": "K", "coeffs": [-5.155123360865168, 0.0782768443570585, -4.816421106910532e-05, 1.418738663471415e-08, -1.605060631155765e-12, -86255700.7118907, 47.097238820075255]}]

>  <H298_value>  (4) 
-171404.61720790953

>  <H298_units>  (4) 
kcal/mol

>  <S298_value>  (4) 
78.13622956239406

>  <S298_units>  (4) 
cal/(mol*K)

>  <Cp_T_value_list>  (4) 
[26.964676953533466, 37.382989594264686, 46.66797183764434, 54.30346962845638, 66.07017706139216, 74.59940600620303, 86.73655345511231, 92.52402479168427, 95.69953412861575]

>  <Cp_T_units>  (4) 
cal/(mol*K)

>  <T_list>  (4) 
[300.0, 400.0, 500.0, 600.0, 800.0, 1000.0, 1500.0, 2000.0, 2400.0]

>  <T_units>  (4) 
K

>  <yaml_path>  (4) 
/home/calvin/Dropbox/PersonalFolders/Calvin/HAb_Converged/rxn_731/output/Species/rxn_731_[CH]1CC2CCC1C2/rxn_731_CH1CC2CCC1C2.yml

>  <frequencies_cm1>  (4) 
[193.92366543679998, 286.69663711, 376.72968164051997, 444.80210711767995, 471.88549721975994, 575.8310540086, 765.9023406808799, 775.8320014535999, 815.4819746912799, 831.9284045326799, 874.91573263588, 910.4386476962399, 914.8815871982799, 937.18555551764, 949.47059225512, 959.71613435256, 965.2715254764399, 1010.9919137369999, 1035.07443125424, 1037.4504081749599, 1108.18035697096, 1132.1530027230801, 1143.67580409004, 1182.37126636824, 1216.39031164352, 1247.2505436715999, 1266.38883175844, 1275.3365136304, 1286.14514852408, 1310.02165648172, 1334.4475232649597, 1339.6389641668798, 1349.2252756736, 1458.5751499092798, 1478.1460580712799, 1483.955527652, 1507.2689428133997, 2964.07241051012, 3015.2863870266797, 3024.7216248563595, 3032.1173680459997, 3039.44444138244, 3070.4488801022394, 3085.21976552556, 3086.5588276629596, 3090.45927532472, 3091.9356771685193, 3183.2528479538796]

>  <ZPE_kJmol>  (4) 
424.2981940261813

>  <E_elec_kJmol>  (4) 
-717598.958728382

>  <E0_minus_Eelec_plus_ZPE_kJmol>  (4) 
0.0

>  <rxn>  (4) 
rxn_731

>  <species_type>  (4) 
p1

>  <species_folder>  (4) 
rxn_731_[CH]1CC2CCC1C2

>  <frequencies_cm1_list>  (4) 
[193.92366543679998, 286.69663711, 376.72968164051997, 444.80210711767995, 471.88549721975994, 575.8310540086, 765.9023406808799, 775.8320014535999, 815.4819746912799, 831.9284045326799, 874.91573263588, 910.4386476962399, 914.8815871982799, 937.18555551764, 949.47059225512, 959.71613435256, 965.2715254764399, 1010.9919137369999, 1035.07443125424, 1037.4504081749599, 1108.18035697096, 1132.1530027230801, 1143.67580409004, 1182.37126636824, 1216.39031164352, 1247.2505436715999, 1266.38883175844, 1275.3365136304, 1286.14514852408, 1310.02165648172, 1334.4475232649597, 1339.6389641668798, 1349.2252756736, 1458.5751499092798, 1478.1460580712799, 1483.955527652, 1507.2689428133997, 2964.07241051012, 3015.2863870266797, 3024.7216248563595, 3032.1173680459997, 3039.44444138244, 3070.4488801022394, 3085.21976552556, 3086.5588276629596, 3090.45927532472, 3091.9356771685193, 3183.2528479538796]

>  <E0_kJmol>  (4) 
-717175

>  <H298_kJmol>  (4) 
-717157

$$$$

     RDKit          3D

  1  0  0  0  0  0  0  0  0  0999 V2000
    0.0000    0.0000    0.0000 H   0  0  0  0  0 15  0  0  0  1  0  0
M  END
>  <rmg_smiles>  (5) 
[H]

>  <rmg_adjacency_list>  (5) 
multiplicity 2
1 H u1 p0 c0


>  <multiplicity>  (5) 
2

>  <reaction>  (5) 
rxn_731

>  <type>  (5) 
r2

>  <role_mapnums>  (5) 
{}

>  <role_mapidx>  (5) 
{}

>  <ordered_mapped_smiles>  (5) 
[H:1]

>  <level_of_theory>  (5) 
wb97xd/def2tzvp

>  <lot_method>  (5) 
wb97xd

>  <lot_basis>  (5) 
def2tzvp

>  <spin_multiplicity>  (5) 
2.0

>  <optical_isomers>  (5) 
1.0

>  <modes>  (5) 
IdealGasTranslation(mass=(1.00797, 'amu')),

>  <frequency_value>  (5) 
unknown

>  <frequency_units>  (5) 
unknown

>  <frequency_list>  (5) 
unknown

>  <arkane_path>  (5) 
/home/calvin/Dropbox/PersonalFolders/Calvin/HAb_Converged/rxn_731/output/Species/rxn_731_[H]/arkane/output.py

>  <path_exists>  (5) 
True

>  <E0_value>  (5) 
-1319.7535890175566

>  <E0_units>  (5) 
kJ/mol

>  <thermo_class>  (5) 
NASA

>  <Cp0_value>  (5) 
20.78618

>  <Cp0_units>  (5) 
J/(mol*K)

>  <CpInf_value>  (5) 
20.78618

>  <CpInf_units>  (5) 
J/(mol*K)

>  <Tmin_value>  (5) 
10.0

>  <Tmin_units>  (5) 
K

>  <Tmax_value>  (5) 
3000.0

>  <Tmax_units>  (5) 
K

>  <polynomials>  (5) 
[{"name": "polynomial1", "class": "NASAPolynomial", "Tmin_value": 10.0, "Tmin_units": "K", "Tmax_value": 1853.5663026740365, "Tmax_units": "K", "coeffs": [2.500000000000126, -2.814048095438137e-15, 9.047587538332909e-18, -8.591944598242694e-21, 2.4182720553650057e-24, -158729.69562032758, -0.461069367474324]}, {"name": "polynomial2", "class": "NASAPolynomial", "Tmin_value": 1853.5663026740365, "Tmin_units": "K", "Tmax_value": 3000.0, "Tmax_units": "K", "coeffs": [2.500000000696122, -1.3129776766613561e-12, 9.140875080033424e-16, -2.782806647322001e-19, 3.1263265306749967e-23, -158729.69562061856, -0.4610693713504795]}]

>  <H298_value>  (5) 
-313.9482141882736

>  <H298_units>  (5) 
kcal/mol

>  <S298_value>  (5) 
27.387012987908147

>  <S298_units>  (5) 
cal/(mol*K)

>  <Cp_T_value_list>  (5) 
[4.968016252389826, 4.968016252389978, 4.968016252390173, 4.96801625239036, 4.968016252390567, 4.968016252390427, 4.968016252389077, 4.968016252391019, 4.968016252390868]

>  <Cp_T_units>  (5) 
cal/(mol*K)

>  <T_list>  (5) 
[300.0, 400.0, 500.0, 600.0, 800.0, 1000.0, 1500.0, 2000.0, 2400.0]

>  <T_units>  (5) 
K

>  <yaml_path>  (5) 
/home/calvin/Dropbox/PersonalFolders/Calvin/HAb_Converged/rxn_731/output/Species/rxn_731_[H]/rxn_731_H.yml

>  <frequencies_cm1>  (5) 
[]

>  <ZPE_kJmol>  (5) 
unknown

>  <E_elec_kJmol>  (5) 
unknown

>  <E0_minus_Eelec_plus_ZPE_kJmol>  (5) 
unknown

>  <rxn>  (5) 
rxn_731

>  <species_type>  (5) 
r0

>  <species_folder>  (5) 
rxn_731_[H]

>  <frequencies_cm1_list>  (5) 
[]

>  <E0_kJmol>  (5) 
-1319.75

>  <H298_kJmol>  (5) 
-1313.56

$$$$
