
     RDKit          3D

 13 12  0  0  0  0  0  0  0  0999 V2000
   -0.1964   -0.2499   -2.1465 C   0  0  0  0  0  2  0  0  0  1  0  0
   -0.0878   -0.2345   -0.9512 C   0  0  0  0  0  2  0  0  0  2  0  0
    0.0427   -0.2482    0.4875 C   0  0  0  0  0  0  0  0  0  3  0  0
   -1.1676    0.3280    1.2071 C   0  0  0  0  0  0  0  0  0  4  0  0
    1.3699    0.3120    0.9768 C   0  0  0  0  0  0  0  0  0  5  0  0
   -0.2926   -0.2559   -3.2054 H   0  0  0  0  0  0  0  0  0  6  0  0
    0.0609   -1.3031    0.7615 H   0  0  0  0  0  0  0  0  0  7  0  0
   -2.0869   -0.1552    0.8770 H   0  0  0  0  0  0  0  0  0  8  0  0
   -1.2561    1.4002    1.0145 H   0  0  0  0  0  0  0  0  0  9  0  0
   -1.0679    0.1813    2.2841 H   0  0  0  0  0  0  0  0  0 10  0  0
    1.4357    1.3832    0.7702 H   0  0  0  0  0  0  0  0  0 11  0  0
    2.2085   -0.1824    0.4871 H   0  0  0  0  0  0  0  0  0 12  0  0
    1.4639    0.1653    2.0543 H   0  0  0  0  0  0  0  0  0 13  0  0
  1  6  1  0
  1  2  1  0
  2  3  1  0
  3  4  1  0
  3  5  1  0
  3  7  1  0
  4  8  1  0
  4  9  1  0
  4 10  1  0
  5 11  1  0
  5 12  1  0
  5 13  1  0
M  RAD  2   1   3   2   3
M  END
>  <rmg_smiles>  (1) 
[CH][C]C(C)C

>  <rmg_adjacency_list>  (1) 
1  C u0 p0 c0 {2,S} {3,S} {4,S} {6,S}
2  C u0 p0 c0 {1,S} {7,S} {8,S} {9,S}
3  C u0 p0 c0 {1,S} {10,S} {11,S} {12,S}
4  C u0 p1 c0 {1,S} {5,S}
5  C u0 p1 c0 {4,S} {13,S}
6  H u0 p0 c0 {1,S}
7  H u0 p0 c0 {2,S}
8  H u0 p0 c0 {2,S}
9  H u0 p0 c0 {2,S}
10 H u0 p0 c0 {3,S}
11 H u0 p0 c0 {3,S}
12 H u0 p0 c0 {3,S}
13 H u0 p0 c0 {5,S}


>  <multiplicity>  (1) 
1

>  <reaction>  (1) 
rxn_1318

>  <type>  (1) 
r1h

>  <role_mapnums>  (1) 
{"r1h_a": 3, "r1h_h": 7}

>  <role_mapidx>  (1) 
{"r1h_a": 2, "r1h_h": 6}

>  <ordered_mapped_smiles>  (1) 
[C:1]([C:2][C:3]([C:4]([H:8])([H:9])[H:10])([C:5]([H:11])([H:12])[H:13])[H:7])[H:6]

>  <mol_properties>  (1) 
{"2": {"label": "donator", "atom_type": "Cs"}, "6": {"label": "d_hydrogen", "atom_type": "H0"}}

>  <level_of_theory>  (1) 
wb97xd/def2tzvp

>  <lot_method>  (1) 
wb97xd

>  <lot_basis>  (1) 
def2tzvp

>  <spin_multiplicity>  (1) 
1.0

>  <optical_isomers>  (1) 
1.0

>  <modes>  (1) 
IdealGasTranslation(mass=(68.0626, 'amu')),         NonlinearRotor(             inertia = ([63.031, 131.338, 177.504

>  <frequency_value>  (1) 
unknown

>  <frequency_units>  (1) 
unknown

>  <frequency_list>  (1) 
unknown

>  <arkane_path>  (1) 
/home/calvin/Dropbox/PersonalFolders/Calvin/HAb_Converged/rxn_1318/output/Species/rxn_1318_CtCC[C]C/arkane/output.py

>  <path_exists>  (1) 
True

>  <E0_value>  (1) 
-512436.2321226376

>  <E0_units>  (1) 
kJ/mol

>  <thermo_class>  (1) 
NASA

>  <Cp0_value>  (1) 
33.257888

>  <Cp0_units>  (1) 
J/(mol*K)

>  <CpInf_value>  (1) 
307.635464

>  <CpInf_units>  (1) 
J/(mol*K)

>  <Tmin_value>  (1) 
10.0

>  <Tmin_units>  (1) 
K

>  <Tmax_value>  (1) 
3000.0

>  <Tmax_units>  (1) 
K

>  <polynomials>  (1) 
[{"name": "polynomial1", "class": "NASAPolynomial", "Tmin_value": 10.0, "Tmin_units": "K", "Tmax_value": 293.0407624013314, "Tmax_units": "K", "coeffs": [3.9101886097059264, 0.0069849319055039685, 0.00016661855350475234, -4.2944025859153837e-07, 3.715868629965923e-10, -61631842.919720486, 9.420104844549218]}, {"name": "polynomial2", "class": "NASAPolynomial", "Tmin_value": 293.0407624013314, "Tmin_units": "K", "Tmax_value": 3000.0, "Tmax_units": "K", "coeffs": [1.1644442010838205, 0.04446438207111068, -2.52295815987051e-05, 7.014702784040353e-09, -7.641632564807846e-13, -61631681.99713866, 19.29648088401905]}]

>  <H298_value>  (1) 
-122470.68169768815

>  <H298_units>  (1) 
kcal/mol

>  <S298_value>  (1) 
75.75418343380927

>  <S298_units>  (1) 
cal/(mol*K)

>  <Cp_T_value_list>  (1) 
[24.673759492733886, 30.48939610587082, 35.607396985307304, 40.0949997668281, 47.42973897696881, 52.95862441339962, 61.40568267180244, 65.70875577504152, 67.91222494070715]

>  <Cp_T_units>  (1) 
cal/(mol*K)

>  <T_list>  (1) 
[300.0, 400.0, 500.0, 600.0, 800.0, 1000.0, 1500.0, 2000.0, 2400.0]

>  <T_units>  (1) 
K

>  <yaml_path>  (1) 
/home/calvin/Dropbox/PersonalFolders/Calvin/HAb_Converged/rxn_1318/output/Species/rxn_1318_CtCC[C]C/rxn_1318_CtCCCC.yml

>  <frequencies_cm1>  (1) 
[181.78970237636, 214.59329125, 227.57876049012, 284.68461041124, 357.7218662747599, 538.28237827884, 546.74250419308, 681.47275617148, 684.6727713305999, 777.09552675248, 934.7477757290399, 938.00959375604, 968.90416071072, 1120.3143200313998, 1127.90233881, 1188.30434168472, 1322.0938166742799, 1344.4252529349199, 1390.50272443212, 1410.02556369688, 1473.5177099656, 1475.7288792386398, 1485.74781082052, 1496.61824858208, 2216.82766894368, 3013.5353057700795, 3017.3808175492795, 3019.5370509397603, 3091.98374606576, 3096.2206760082004, 3103.6370201537993, 3105.55290905808, 3437.4617775149595]

>  <ZPE_kJmol>  (1) 
294.721743692255

>  <E_elec_kJmol>  (1) 
-512730.9538663298

>  <E0_minus_Eelec_plus_ZPE_kJmol>  (1) 
0.0

>  <rxn>  (1) 
rxn_1318

>  <species_type>  (1) 
r0

>  <species_folder>  (1) 
rxn_1318_CtCC[C]C

>  <frequencies_cm1_list>  (1) 
[181.78970237636, 214.59329125, 227.57876049012, 284.68461041124, 357.7218662747599, 538.28237827884, 546.74250419308, 681.47275617148, 684.6727713305999, 777.09552675248, 934.7477757290399, 938.00959375604, 968.90416071072, 1120.3143200313998, 1127.90233881, 1188.30434168472, 1322.0938166742799, 1344.4252529349199, 1390.50272443212, 1410.02556369688, 1473.5177099656, 1475.7288792386398, 1485.74781082052, 1496.61824858208, 2216.82766894368, 3013.5353057700795, 3017.3808175492795, 3019.5370509397603, 3091.98374606576, 3096.2206760082004, 3103.6370201537993, 3105.55290905808, 3437.4617775149595]

>  <E0_kJmol>  (1) 
-512436

>  <H298_kJmol>  (1) 
-512417

$$$$

     RDKit          3D

  6  5  0  0  0  0  0  0  0  0999 V2000
   -0.0871    1.0500   -1.0330 H   0  0  0  0  0  0  0  0  0  1  0  0
   -0.0581    0.0403   -0.6429 C   0  0  0  0  0  0  0  0  0  2  0  0
    0.0590   -0.0794    0.6555 C   0  0  0  0  0  0  0  0  0  3  0  0
   -0.1331   -0.7146   -1.4155 H   0  0  0  0  0  0  0  0  0  4  0  0
    0.0972   -1.0517    1.1435 H   0  0  0  0  0  0  0  0  0  5  0  0
    0.1236    0.7880    1.3062 H   0  0  0  0  0  0  0  0  0  6  0  0
  1  2  1  0
  2  3  1  0
  2  4  1  0
  3  6  1  0
  3  5  1  0
M  END
>  <rmg_smiles>  (2) 
[CH2][CH2]

>  <rmg_adjacency_list>  (2) 
1 C u0 p0 c0 {2,S} {3,S} {4,S}
2 C u0 p0 c0 {1,S} {5,S} {6,S}
3 H u0 p0 c0 {1,S}
4 H u0 p0 c0 {1,S}
5 H u0 p0 c0 {2,S}
6 H u0 p0 c0 {2,S}


>  <multiplicity>  (2) 
1

>  <reaction>  (2) 
rxn_1318

>  <type>  (2) 
r2h

>  <role_mapnums>  (2) 
{"r2h_a": 2, "r2h_h": 1}

>  <role_mapidx>  (2) 
{"r2h_a": 1, "r2h_h": 0}

>  <ordered_mapped_smiles>  (2) 
[H:1][CH:2]([CH:3]([H:5])[H:6])[H:4]

>  <mol_properties>  (2) 
{"0": {"label": "a_hydrogen", "atom_type": "H0"}, "1": {"label": "acceptor", "atom_type": "Cs"}}

>  <level_of_theory>  (2) 
wb97xd/def2tzvp

>  <lot_method>  (2) 
wb97xd

>  <lot_basis>  (2) 
def2tzvp

>  <spin_multiplicity>  (2) 
1.0

>  <optical_isomers>  (2) 
1.0

>  <modes>  (2) 
IdealGasTranslation(mass=(28.0313, 'amu')),         NonlinearRotor(             inertia = ([3.4313, 16.5733, 20.0046

>  <frequency_value>  (2) 
unknown

>  <frequency_units>  (2) 
unknown

>  <frequency_list>  (2) 
unknown

>  <arkane_path>  (2) 
/home/calvin/Dropbox/PersonalFolders/Calvin/HAb_Converged/rxn_1318/output/Species/rxn_1318_C=C/arkane/output.py

>  <path_exists>  (2) 
True

>  <E0_value>  (2) 
-206204.08464717612

>  <E0_units>  (2) 
kJ/mol

>  <thermo_class>  (2) 
NASA

>  <Cp0_value>  (2) 
33.257888

>  <Cp0_units>  (2) 
J/(mol*K)

>  <CpInf_value>  (2) 
133.031552

>  <CpInf_units>  (2) 
J/(mol*K)

>  <Tmin_value>  (2) 
10.0

>  <Tmin_units>  (2) 
K

>  <Tmax_value>  (2) 
3000.0

>  <Tmax_units>  (2) 
K

>  <polynomials>  (2) 
[{"name": "polynomial1", "class": "NASAPolynomial", "Tmin_value": 10.0, "Tmin_units": "K", "Tmax_value": 769.5217501758626, "Tmax_units": "K", "coeffs": [4.102594925382579, -0.006879522193259702, 5.062107249177076e-05, -5.972223289849955e-08, 2.3228029141840905e-11, -24800625.606387716, 3.2220821404236424]}, {"name": "polynomial2", "class": "NASAPolynomial", "Tmin_value": 769.5217501758626, "Tmin_units": "K", "Tmax_value": 3000.0, "Tmax_units": "K", "coeffs": [0.4501873055486705, 0.01806199469136872, -9.606651718966085e-06, 2.51372192351987e-09, -2.587294024527882e-13, -24800239.83662215, 18.740105419928828]}]

>  <H298_value>  (2) 
-49281.46687172266

>  <H298_units>  (2) 
kcal/mol

>  <S298_value>  (2) 
52.28638692235232

>  <S298_units>  (2) 
cal/(mol*K)

>  <Cp_T_value_list>  (2) 
[10.27441708697483, 12.365536101969841, 14.515698252557122, 16.511337099494305, 19.738079638388314, 22.178263460277243, 26.036790662755205, 28.054735064109895, 29.07349068569704]

>  <Cp_T_units>  (2) 
cal/(mol*K)

>  <T_list>  (2) 
[300.0, 400.0, 500.0, 600.0, 800.0, 1000.0, 1500.0, 2000.0, 2400.0]

>  <T_units>  (2) 
K

>  <yaml_path>  (2) 
/home/calvin/Dropbox/PersonalFolders/Calvin/HAb_Converged/rxn_1318/output/Species/rxn_1318_C=C/rxn_1318_C=C.yml

>  <frequencies_cm1>  (2) 
[832.94471836004, 977.0690062561998, 990.3016869678398, 1058.52518612204, 1234.34061127, 1375.2030811391598, 1460.7588512410398, 1695.25953293372, 3111.1769700351597, 3128.9967969405598, 3189.2477261382396, 3215.2736005010397]

>  <ZPE_kJmol>  (2) 
133.19882255210345

>  <E_elec_kJmol>  (2) 
-206337.28346972825

>  <E0_minus_Eelec_plus_ZPE_kJmol>  (2) 
0.0

>  <rxn>  (2) 
rxn_1318

>  <species_type>  (2) 
p0

>  <species_folder>  (2) 
rxn_1318_C=C

>  <frequencies_cm1_list>  (2) 
[832.94471836004, 977.0690062561998, 990.3016869678398, 1058.52518612204, 1234.34061127, 1375.2030811391598, 1460.7588512410398, 1695.25953293372, 3111.1769700351597, 3128.9967969405598, 3189.2477261382396, 3215.2736005010397]

>  <E0_kJmol>  (2) 
-206204

>  <H298_kJmol>  (2) 
-206194

$$$$

     RDKit          3D

 18 16  0  0  0  0  0  0  0  0999 V2000
   -0.2788    0.6035   -2.7201 C   0  0  0  0  0  0  0  0  0  1  0  0
   -0.1702    0.6189   -1.5248 C   0  0  0  0  0  0  0  0  0  2  0  0
   -0.0397    0.6052   -0.0861 C   0  0  0  0  0  0  0  0  0  3  0  0
   -1.2499    1.1814    0.6335 C   0  0  0  0  0  0  0  0  0  4  0  0
    1.2875    1.1653    0.4032 C   0  0  0  0  0  0  0  0  0  5  0  0
   -0.3749    0.5975   -3.7790 H   0  0  0  0  0  0  0  0  0  6  0  0
   -0.0192   -0.5794    0.2216 H   0  0  0  0  0  0  0  0  0  7  0  0
   -2.1692    0.6982    0.3034 H   0  0  0  0  0  0  0  0  0  8  0  0
   -1.3384    2.2536    0.4410 H   0  0  0  0  0  0  0  0  0  9  0  0
   -1.1503    1.0347    1.7105 H   0  0  0  0  0  0  0  0  0 10  0  0
    1.3533    2.2366    0.1966 H   0  0  0  0  0  0  0  0  0 11  0  0
    2.1262    0.6710   -0.0865 H   0  0  0  0  0  0  0  0  0 12  0  0
    1.3815    1.0187    1.4807 H   0  0  0  0  0  0  0  0  0 13  0  0
    0.0211   -1.9817    0.7635 C   0  0  0  0  0  3  0  0  0 14  0  0
    0.1382   -2.1014    2.0619 C   0  0  0  0  0  0  0  0  0 15  0  0
   -0.0539   -2.7367   -0.0091 H   0  0  0  0  0  0  0  0  0 16  0  0
    0.1764   -3.0738    2.5499 H   0  0  0  0  0  0  0  0  0 17  0  0
    0.2028   -1.2341    2.7126 H   0  0  0  0  0  0  0  0  0 18  0  0
  1  6  1  0
  1  2  1  0
  2  3  1  0
  3  4  1  0
  3  5  1  0
  3  7  1  0
  4  8  1  0
  4  9  1  0
  4 10  1  0
  5 11  1  0
  5 12  1  0
  5 13  1  0
 14 15  1  0
 14 16  1  0
 15 17  1  0
 15 18  1  0
M  RAD  1  14   2
M  END
>  <rmg_smiles>  (3) 
[CH]CC(C)C.[CH][CH2]

>  <rmg_adjacency_list>  (3) 
multiplicity 2
1  C u0 p0 c0 {2,S} {3,S} {5,S} {8,S}
2  C u0 p0 c0 {1,S} {9,S} {10,S} {11,S}
3  C u0 p0 c0 {1,S} {12,S} {13,S} {14,S}
4  C u0 p0 c0 {6,S} {15,S} {16,S}
5  C u0 p1 c0 {1,S} {7,S}
6  C u1 p1 c0 {4,S} {17,S}
7  C u0 p1 c0 {5,S} {18,S}
8  H u0 p0 c0 {1,S}
9  H u0 p0 c0 {2,S}
10 H u0 p0 c0 {2,S}
11 H u0 p0 c0 {2,S}
12 H u0 p0 c0 {3,S}
13 H u0 p0 c0 {3,S}
14 H u0 p0 c0 {3,S}
15 H u0 p0 c0 {4,S}
16 H u0 p0 c0 {4,S}
17 H u0 p0 c0 {6,S}
18 H u0 p0 c0 {7,S}


>  <multiplicity>  (3) 
2

>  <reaction>  (3) 
rxn_1318

>  <type>  (3) 
ts

>  <role_mapnums>  (3) 
{"*2": 7, "*1": 3, "*3": 14, "*0": 2, "*4": 15}

>  <role_mapidx>  (3) 
{"*2": 6, "*1": 2, "*3": 13, "*0": 1, "*4": 14}

>  <ordered_mapped_smiles>  (3) 
[CH2:1]([CH2:2][C:3]([C:4]([H:8])([H:9])[H:10])([C:5]([H:11])([H:12])[H:13])[H:7])[H:6].[CH:14]([CH:15]([H:17])[H:18])[H:16]

>  <mol_properties>  (3) 
{"1": {"label": "*0", "atom_type": "C2s"}, "2": {"label": "*1", "atom_type": "Cs"}, "6": {"label": "*2", "atom_type": "H0"}, "13": {"label": "*3", "atom_type": "C2s"}, "14": {"label": "*4", "atom_type": "Cs"}}

>  <level_of_theory>  (3) 
wb97xd/def2tzvp

>  <lot_method>  (3) 
wb97xd

>  <lot_basis>  (3) 
def2tzvp

>  <spin_multiplicity>  (3) 
2.0

>  <optical_isomers>  (3) 
1.0

>  <modes>  (3) 
IdealGasTranslation(mass=(95.0861, 'amu')),         NonlinearRotor(             inertia = ([155.029, 351.184, 395.687

>  <frequency_value>  (3) 
-1174.46

>  <frequency_units>  (3) 
cm^-1

>  <frequency_list>  (3) 
unknown

>  <arkane_path>  (3) 
/home/calvin/Dropbox/PersonalFolders/Calvin/HAb_Converged/rxn_1318/output/rxns/TS0/arkane/output.py

>  <path_exists>  (3) 
True

>  <E0_value>  (3) 
-716861.0

>  <E0_units>  (3) 
kJ/mol

>  <thermo_class>  (3) 
unknown

>  <Cp0_value>  (3) 
unknown

>  <Cp0_units>  (3) 
unknown

>  <CpInf_value>  (3) 
unknown

>  <CpInf_units>  (3) 
unknown

>  <Tmin_value>  (3) 
unknown

>  <Tmin_units>  (3) 
unknown

>  <Tmax_value>  (3) 
unknown

>  <Tmax_units>  (3) 
unknown

>  <polynomials>  (3) 
unknown

>  <H298_value>  (3) 
unknown

>  <H298_units>  (3) 
unknown

>  <S298_value>  (3) 
unknown

>  <S298_units>  (3) 
unknown

>  <Cp_T_value_list>  (3) 
unknown

>  <Cp_T_units>  (3) 
unknown

>  <T_list>  (3) 
unknown

>  <T_units>  (3) 
unknown

>  <yaml_path>  (3) 
unknown

>  <frequencies_cm1>  (3) 
unknown

>  <ZPE_kJmol>  (3) 
unknown

>  <E_elec_kJmol>  (3) 
unknown

>  <E0_minus_Eelec_plus_ZPE_kJmol>  (3) 
unknown

>  <rxn>  (3) 
unknown

>  <species_type>  (3) 
unknown

>  <species_folder>  (3) 
unknown

>  <frequencies_cm1_list>  (3) 
[]

>  <ts_imag_freq_cm1>  (3) 
-1188.727

>  <ts_freq_out_path>  (3) 
/home/calvin/Dropbox/PersonalFolders/Calvin/HAb_Converged/rxn_1318/output/rxns/TS0/geometry/freq.out

>  <E0_kJmol>  (3) 
-716861

>  <H298_kJmol>  (3) 
unknown

$$$$

     RDKit          3D

 12 11  0  0  0  0  0  0  0  0999 V2000
    2.5164   -0.5559   -0.0242 C   0  0  0  0  0  0  0  0  0  1  0  0
    1.3287   -0.2938   -0.0132 C   0  0  0  0  0  0  0  0  0  2  0  0
   -0.0146    0.0027   -0.0006 C   0  0  0  0  0  3  0  0  0  3  0  0
   -1.0396   -1.0729   -0.1642 C   0  0  0  0  0  0  0  0  0  4  0  0
   -0.4887    1.4091    0.1769 C   0  0  0  0  0  0  0  0  0  5  0  0
    3.5543   -0.7850   -0.0339 H   0  0  0  0  0  0  0  0  0  6  0  0
   -1.7064   -1.1056    0.7044 H   0  0  0  0  0  0  0  0  0  7  0  0
   -0.5831   -2.0533   -0.2854 H   0  0  0  0  0  0  0  0  0  8  0  0
   -1.6716   -0.8741   -1.0367 H   0  0  0  0  0  0  0  0  0  9  0  0
   -1.0951    1.7228   -0.6798 H   0  0  0  0  0  0  0  0  0 10  0  0
    0.3401    2.1059    0.2861 H   0  0  0  0  0  0  0  0  0 11  0  0
   -1.1300    1.4913    1.0613 H   0  0  0  0  0  0  0  0  0 12  0  0
  1  6  1  0
  1  2  1  0
  2  3  1  0
  3  4  1  0
  3  5  1  0
  4  8  1  0
  4  9  1  0
  4  7  1  0
  5 11  1  0
  5 12  1  0
  5 10  1  0
M  RAD  1   3   2
M  END
>  <rmg_smiles>  (4) 
[CH]C[C](C)C

>  <rmg_adjacency_list>  (4) 
multiplicity 2
1  C u0 p0 c0 {3,S} {6,S} {7,S} {8,S}
2  C u0 p0 c0 {3,S} {9,S} {10,S} {11,S}
3  C u1 p0 c0 {1,S} {2,S} {4,S}
4  C u0 p1 c0 {3,S} {5,S}
5  C u0 p1 c0 {4,S} {12,S}
6  H u0 p0 c0 {1,S}
7  H u0 p0 c0 {1,S}
8  H u0 p0 c0 {1,S}
9  H u0 p0 c0 {2,S}
10 H u0 p0 c0 {2,S}
11 H u0 p0 c0 {2,S}
12 H u0 p0 c0 {5,S}


>  <multiplicity>  (4) 
2

>  <reaction>  (4) 
rxn_1318

>  <type>  (4) 
r1

>  <role_mapnums>  (4) 
{}

>  <role_mapidx>  (4) 
{}

>  <ordered_mapped_smiles>  (4) 
[CH2:1]([CH2:2][C:3]([C:4]([H:7])([H:8])[H:9])[C:5]([H:10])([H:11])[H:12])[H:6]

>  <level_of_theory>  (4) 
wb97xd/def2tzvp

>  <lot_method>  (4) 
wb97xd

>  <lot_basis>  (4) 
def2tzvp

>  <spin_multiplicity>  (4) 
2.0

>  <optical_isomers>  (4) 
1.0

>  <modes>  (4) 
IdealGasTranslation(mass=(67.0548, 'amu')),         NonlinearRotor(             inertia = ([59.1627, 131.378, 184.32

>  <frequency_value>  (4) 
unknown

>  <frequency_units>  (4) 
unknown

>  <frequency_list>  (4) 
unknown

>  <arkane_path>  (4) 
/home/calvin/Dropbox/PersonalFolders/Calvin/HAb_Converged/rxn_1318/output/Species/rxn_1318_CtC[C][C]C/arkane/output.py

>  <path_exists>  (4) 
True

>  <E0_value>  (4) 
-510778.06103061617

>  <E0_units>  (4) 
kJ/mol

>  <thermo_class>  (4) 
NASA

>  <Cp0_value>  (4) 
33.257888

>  <Cp0_units>  (4) 
J/(mol*K)

>  <CpInf_value>  (4) 
282.692048

>  <CpInf_units>  (4) 
J/(mol*K)

>  <Tmin_value>  (4) 
10.0

>  <Tmin_units>  (4) 
K

>  <Tmax_value>  (4) 
3000.0

>  <Tmax_units>  (4) 
K

>  <polynomials>  (4) 
[{"name": "polynomial1", "class": "NASAPolynomial", "Tmin_value": 10.0, "Tmin_units": "K", "Tmax_value": 1039.297839376542, "Tmax_units": "K", "coeffs": [3.598818116233137, 0.033392740321885155, -9.378432171899418e-06, -5.856696266128411e-09, 3.271376899501553e-12, -61432406.274320535, 9.976237246510115]}, {"name": "polynomial2", "class": "NASAPolynomial", "Tmin_value": 1039.297839376542, "Tmin_units": "K", "Tmax_value": 3000.0, "Tmax_units": "K", "coeffs": [5.079452673281011, 0.033284570157804484, -1.7290873427004894e-05, 4.394457265686428e-09, -4.3949451822427094e-13, -61433015.96049292, 1.3234305447781438]}]

>  <H298_value>  (4) 
-122073.9837922916

>  <H298_units>  (4) 
kcal/mol

>  <S298_value>  (4) 
79.4255488393029

>  <S298_units>  (4) 
cal/(mol*K)

>  <Cp_T_value_list>  (4) 
[25.1201753773187, 30.13456332004963, 34.623007965675164, 38.58588826040132, 45.014482399280844, 49.735420575541255, 57.04911167988228, 60.826095998833885, 62.665750252433256]

>  <Cp_T_units>  (4) 
cal/(mol*K)

>  <T_list>  (4) 
[300.0, 400.0, 500.0, 600.0, 800.0, 1000.0, 1500.0, 2000.0, 2400.0]

>  <T_units>  (4) 
K

>  <yaml_path>  (4) 
/home/calvin/Dropbox/PersonalFolders/Calvin/HAb_Converged/rxn_1318/output/Species/rxn_1318_CtC[C][C]C/rxn_1318_CtCCCC.yml

>  <frequencies_cm1>  (4) 
[99.21420390335999, 101.22623060211998, 185.93736150964, 255.63726250763995, 344.22137313563996, 457.05280892856, 461.24166997375994, 585.753847796, 665.5688181703599, 727.2892822265198, 951.3864811594, 965.6148747424401, 1006.9197914422399, 1043.12253804928, 1243.10975152364, 1333.7402237769998, 1389.39027281028, 1401.68217653308, 1454.72277114476, 1460.9648608006398, 1470.11168524688, 1490.7813110600798, 2012.45245184984, 2983.54718087764, 2987.02874243488, 3032.15856995792, 3032.5293871651998, 3111.8568015818396, 3113.09285893944, 3430.21024101704]

>  <ZPE_kJmol>  (4) 
255.9863644311404

>  <E_elec_kJmol>  (4) 
-511034.0473950473

>  <E0_minus_Eelec_plus_ZPE_kJmol>  (4) 
0.0

>  <rxn>  (4) 
rxn_1318

>  <species_type>  (4) 
p1

>  <species_folder>  (4) 
rxn_1318_CtC[C][C]C

>  <frequencies_cm1_list>  (4) 
[99.21420390335999, 101.22623060211998, 185.93736150964, 255.63726250763995, 344.22137313563996, 457.05280892856, 461.24166997375994, 585.753847796, 665.5688181703599, 727.2892822265198, 951.3864811594, 965.6148747424401, 1006.9197914422399, 1043.12253804928, 1243.10975152364, 1333.7402237769998, 1389.39027281028, 1401.68217653308, 1454.72277114476, 1460.9648608006398, 1470.11168524688, 1490.7813110600798, 2012.45245184984, 2983.54718087764, 2987.02874243488, 3032.15856995792, 3032.5293871651998, 3111.8568015818396, 3113.09285893944, 3430.21024101704]

>  <E0_kJmol>  (4) 
-510778

>  <H298_kJmol>  (4) 
-510758

$$$$

     RDKit          3D

  5  4  0  0  0  0  0  0  0  0999 V2000
    0.0397    0.7134    0.0000 C   0  0  0  0  0  3  0  0  0  1  0  0
    0.0458   -0.5870    0.0000 C   0  0  0  0  0  0  0  0  0  2  0  0
   -0.6871    1.5118    0.0000 H   0  0  0  0  0  0  0  0  0  3  0  0
   -0.8806   -1.1637    0.0000 H   0  0  0  0  0  0  0  0  0  4  0  0
    0.9690   -1.1600    0.0000 H   0  0  0  0  0  0  0  0  0  5  0  0
  1  3  1  0
  1  2  1  0
  2  5  1  0
  2  4  1  0
M  RAD  1   1   2
M  END
>  <rmg_smiles>  (5) 
[CH][CH2]

>  <rmg_adjacency_list>  (5) 
multiplicity 2
1 C u0 p0 c0 {2,S} {3,S} {4,S}
2 C u1 p1 c0 {1,S} {5,S}
3 H u0 p0 c0 {1,S}
4 H u0 p0 c0 {1,S}
5 H u0 p0 c0 {2,S}


>  <multiplicity>  (5) 
2

>  <reaction>  (5) 
rxn_1318

>  <type>  (5) 
r2

>  <role_mapnums>  (5) 
{}

>  <role_mapidx>  (5) 
{}

>  <ordered_mapped_smiles>  (5) 
[CH:1]([CH:2]([H:4])[H:5])[H:3]

>  <level_of_theory>  (5) 
wb97xd/def2tzvp

>  <lot_method>  (5) 
wb97xd

>  <lot_basis>  (5) 
def2tzvp

>  <spin_multiplicity>  (5) 
2.0

>  <optical_isomers>  (5) 
1.0

>  <modes>  (5) 
IdealGasTranslation(mass=(27.0235, 'amu')),         NonlinearRotor(             inertia = ([2.14183, 15.3481, 17.4899

>  <frequency_value>  (5) 
unknown

>  <frequency_units>  (5) 
unknown

>  <frequency_list>  (5) 
unknown

>  <arkane_path>  (5) 
/home/calvin/Dropbox/PersonalFolders/Calvin/HAb_Converged/rxn_1318/output/Species/rxn_1318_[CH]=C/arkane/output.py

>  <path_exists>  (5) 
True

>  <E0_value>  (5) 
-204434.59610714423

>  <E0_units>  (5) 
kJ/mol

>  <thermo_class>  (5) 
NASA

>  <Cp0_value>  (5) 
33.257888

>  <Cp0_units>  (5) 
J/(mol*K)

>  <CpInf_value>  (5) 
108.088136

>  <CpInf_units>  (5) 
J/(mol*K)

>  <Tmin_value>  (5) 
10.0

>  <Tmin_units>  (5) 
K

>  <Tmax_value>  (5) 
3000.0

>  <Tmax_units>  (5) 
K

>  <polynomials>  (5) 
[{"name": "polynomial1", "class": "NASAPolynomial", "Tmin_value": 10.0, "Tmin_units": "K", "Tmax_value": 605.1562073532106, "Tmax_units": "K", "coeffs": [4.0732302477000095, -0.005855893423713469, 5.173301484019039e-05, -7.605753070838568e-08, 3.74067872861101e-11, -24587803.17884632, 4.922911546686311]}, {"name": "polynomial2", "class": "NASAPolynomial", "Tmin_value": 605.1562073532106, "Tmin_units": "K", "Tmax_value": 3000.0, "Tmax_units": "K", "coeffs": [1.907334803595395, 0.013219860447203871, -7.347353045060493e-06, 2.024442812279225e-09, -2.192078156816895e-13, -24587628.1872574, 13.564186384006128]}]

>  <H298_value>  (5) 
-48858.50309296871

>  <H298_units>  (5) 
kcal/mol

>  <S298_value>  (5) 
55.807333309528325

>  <S298_units>  (5) 
cal/(mol*K)

>  <Cp_T_value_list>  (5) 
[10.376944352757018, 12.118158212925861, 13.730146484867369, 15.108875169207579, 17.343631711777416, 19.047527728648078, 21.716860438361014, 23.14273061905272, 23.900837148526193]

>  <Cp_T_units>  (5) 
cal/(mol*K)

>  <T_list>  (5) 
[300.0, 400.0, 500.0, 600.0, 800.0, 1000.0, 1500.0, 2000.0, 2400.0]

>  <T_units>  (5) 
K

>  <yaml_path>  (5) 
/home/calvin/Dropbox/PersonalFolders/Calvin/HAb_Converged/rxn_1318/output/Species/rxn_1318_[CH]=C/rxn_1318_CH=C.yml

>  <frequencies_cm1>  (5) 
[709.40765245324, 831.6056562226399, 928.3889473227199, 1044.4341322454, 1381.5275746188797, 1653.3915234376798, 3045.07536934484, 3137.58739557588, 3217.88305492264]

>  <ZPE_kJmol>  (5) 
95.3980343814778

>  <E_elec_kJmol>  (5) 
-204529.9941415257

>  <E0_minus_Eelec_plus_ZPE_kJmol>  (5) 
0.0

>  <rxn>  (5) 
rxn_1318

>  <species_type>  (5) 
r1

>  <species_folder>  (5) 
rxn_1318_[CH]=C

>  <frequencies_cm1_list>  (5) 
[709.40765245324, 831.6056562226399, 928.3889473227199, 1044.4341322454, 1381.5275746188797, 1653.3915234376798, 3045.07536934484, 3137.58739557588, 3217.88305492264]

>  <E0_kJmol>  (5) 
-204435

>  <H298_kJmol>  (5) 
-204424

$$$$
