
     RDKit          3D

 25 26  0  0  0  0  0  0  0  0999 V2000
    0.0657   -0.8679   -0.7438 C   0  0  0  0  0  0  0  0  0  1  0  0
   -0.4599    0.6000   -0.7971 C   0  0  0  0  0  0  0  0  0  2  0  0
    1.4859   -0.9557   -0.1756 C   0  0  0  0  0  0  0  0  0  3  0  0
   -0.9723   -1.6482    0.0925 C   0  0  0  0  0  0  0  0  0  4  0  0
    0.6323    1.6408   -0.5556 C   0  0  0  0  0  0  0  0  0  5  0  0
    1.6556   -0.0688    1.0544 C   0  0  0  0  0  0  0  0  0  6  0  0
    1.4330    1.4206    0.7339 C   0  0  0  0  0  0  0  0  0  7  0  0
   -2.2252   -0.7706    0.1293 C   0  0  0  0  0  0  0  0  0  8  0  0
   -1.6549    0.6266    0.1353 C   0  0  0  0  0  0  0  0  0  9  0  0
    0.0782   -1.2724   -1.7580 H   0  0  0  0  0  0  0  0  0 10  0  0
   -0.8601    0.7850   -1.8015 H   0  0  0  0  0  0  0  0  0 11  0  0
   -0.6034   -1.7827    1.1127 H   0  0  0  0  0  0  0  0  0 12  0  0
   -1.1612   -2.6431   -0.3115 H   0  0  0  0  0  0  0  0  0 13  0  0
    1.7125   -1.9959    0.0728 H   0  0  0  0  0  0  0  0  0 14  0  0
    2.2091   -0.6585   -0.9414 H   0  0  0  0  0  0  0  0  0 15  0  0
    0.9402   -0.3831    1.8191 H   0  0  0  0  0  0  0  0  0 16  0  0
    2.6451   -0.2167    1.4901 H   0  0  0  0  0  0  0  0  0 17  0  0
    2.3935    1.9304    0.6323 H   0  0  0  0  0  0  0  0  0 18  0  0
    0.9235    1.8953    1.5742 H   0  0  0  0  0  0  0  0  0 19  0  0
    1.3135    1.6061   -1.4107 H   0  0  0  0  0  0  0  0  0 20  0  0
    0.1974    2.6433   -0.5586 H   0  0  0  0  0  0  0  0  0 21  0  0
   -2.8692   -0.9757    0.9859 H   0  0  0  0  0  0  0  0  0 22  0  0
   -2.8278   -0.9172   -0.7747 H   0  0  0  0  0  0  0  0  0 23  0  0
   -2.3499    1.4556    0.0084 H   0  0  0  0  0  0  0  0  0 24  0  0
   -1.3319    0.7755    1.1648 H   0  0  0  0  0  0  0  0  0 25  0  0
  1  3  1  0
  1  4  1  0
  1 10  1  0
  1  2  1  0
  2 11  1  0
  2  5  1  0
  2  9  1  0
  3 15  1  0
  3 14  1  0
  3  6  1  0
  4 12  1  0
  4 13  1  0
  4  8  1  0
  5 20  1  0
  5  7  1  0
  5 21  1  0
  6  7  1  0
  6 16  1  0
  6 17  1  0
  7 18  1  0
  7 19  1  0
  8 23  1  0
  8  9  1  0
  8 22  1  0
  9 24  1  0
  9 25  1  0
M  END
>  <rmg_smiles>  (1) 
C1CCC2CCCC2C1

>  <rmg_adjacency_list>  (1) 
1  C u0 p0 c0 {2,S} {3,S} {4,S} {10,S}
2  C u0 p0 c0 {1,S} {5,S} {6,S} {11,S}
3  C u0 p0 c0 {1,S} {7,S} {14,S} {15,S}
4  C u0 p0 c0 {1,S} {9,S} {12,S} {13,S}
5  C u0 p0 c0 {2,S} {8,S} {20,S} {21,S}
6  C u0 p0 c0 {2,S} {9,S} {24,S} {25,S}
7  C u0 p0 c0 {3,S} {8,S} {16,S} {17,S}
8  C u0 p0 c0 {5,S} {7,S} {18,S} {19,S}
9  C u0 p0 c0 {4,S} {6,S} {22,S} {23,S}
10 H u0 p0 c0 {1,S}
11 H u0 p0 c0 {2,S}
12 H u0 p0 c0 {4,S}
13 H u0 p0 c0 {4,S}
14 H u0 p0 c0 {3,S}
15 H u0 p0 c0 {3,S}
16 H u0 p0 c0 {7,S}
17 H u0 p0 c0 {7,S}
18 H u0 p0 c0 {8,S}
19 H u0 p0 c0 {8,S}
20 H u0 p0 c0 {5,S}
21 H u0 p0 c0 {5,S}
22 H u0 p0 c0 {9,S}
23 H u0 p0 c0 {9,S}
24 H u0 p0 c0 {6,S}
25 H u0 p0 c0 {6,S}


>  <multiplicity>  (1) 
1

>  <reaction>  (1) 
rxn_735

>  <type>  (1) 
r1h

>  <role_mapnums>  (1) 
{"r1h_a": 9, "r1h_h": 25}

>  <role_mapidx>  (1) 
{"r1h_a": 8, "r1h_h": 24}

>  <ordered_mapped_smiles>  (1) 
[C:1]12([H:10])[C:2]([H:11])([C:5]([H:20])([H:21])[C:7]([H:18])([H:19])[C:6]([H:16])([H:17])[C:3]1([H:14])[H:15])[C:9]([H:24])([H:25])[C:8]([H:22])([H:23])[C:4]2([H:12])[H:13]

>  <mol_properties>  (1) 
{"8": {"label": "donator", "atom_type": "Cs"}, "24": {"label": "d_hydrogen", "atom_type": "H0"}}

>  <level_of_theory>  (1) 
wb97xd/def2tzvp

>  <lot_method>  (1) 
wb97xd

>  <lot_basis>  (1) 
def2tzvp

>  <spin_multiplicity>  (1) 
1.0

>  <optical_isomers>  (1) 
2.0

>  <modes>  (1) 
IdealGasTranslation(mass=(124.125, 'amu')),         NonlinearRotor(             inertia = ([170.024, 375.242, 505.424

>  <frequency_value>  (1) 
unknown

>  <frequency_units>  (1) 
unknown

>  <frequency_list>  (1) 
unknown

>  <arkane_path>  (1) 
/home/calvin/Dropbox/PersonalFolders/Calvin/HAb_Converged/rxn_735/output/Species/rxn_735_C1CCC2CCCC2C1/arkane/output.py

>  <path_exists>  (1) 
True

>  <E0_value>  (1) 
-925233.0049241188

>  <E0_units>  (1) 
kJ/mol

>  <thermo_class>  (1) 
NASA

>  <Cp0_value>  (1) 
33.257888

>  <Cp0_units>  (1) 
J/(mol*K)

>  <CpInf_value>  (1) 
606.956456

>  <CpInf_units>  (1) 
J/(mol*K)

>  <Tmin_value>  (1) 
10.0

>  <Tmin_units>  (1) 
K

>  <Tmax_value>  (1) 
3000.0

>  <Tmax_units>  (1) 
K

>  <polynomials>  (1) 
[{"name": "polynomial1", "class": "NASAPolynomial", "Tmin_value": 10.0, "Tmin_units": "K", "Tmax_value": 492.86414085374884, "Tmax_units": "K", "coeffs": [4.007994789865864, -0.0014434969438387518, 0.0002774235318770471, -4.47143959124011e-07, 2.345687014006794e-10, -111279824.80461533, 12.742603075803766]}, {"name": "polynomial2", "class": "NASAPolynomial", "Tmin_value": 492.86414085374884, "Tmin_units": "K", "Tmax_value": 3000.0, "Tmax_units": "K", "coeffs": [-9.95853370242537, 0.11191389639895702, -6.759505783925652e-05, 1.9571966588871765e-08, -2.183492026273649e-12, -111278448.17509678, 70.24048730977755]}]

>  <H298_value>  (1) 
-221130.41480672767

>  <H298_units>  (1) 
kcal/mol

>  <S298_value>  (1) 
87.40258332007863

>  <S298_units>  (1) 
cal/(mol*K)

>  <Cp_T_value_list>  (1) 
[36.50534740058796, 50.089738669944325, 62.417515537946755, 73.12949241055418, 90.29515590280347, 102.83551087971135, 120.87161605712708, 129.42454969138163, 133.951878152645]

>  <Cp_T_units>  (1) 
cal/(mol*K)

>  <T_list>  (1) 
[300.0, 400.0, 500.0, 600.0, 800.0, 1000.0, 1500.0, 2000.0, 2400.0]

>  <T_units>  (1) 
K

>  <yaml_path>  (1) 
/home/calvin/Dropbox/PersonalFolders/Calvin/HAb_Converged/rxn_735/output/Species/rxn_735_C1CCC2CCCC2C1/rxn_735_C1CCC2CCCC2C1.yml

>  <frequencies_cm1>  (1) 
[79.74630052116, 161.44969185852, 192.46099756363998, 319.95344701476, 325.08995203411996, 337.32691987436, 425.16252910247994, 470.50523317043996, 497.06673238819997, 579.3538174777599, 623.59780389452, 769.3495673115199, 782.1839628746, 837.42199278868, 848.74565158136, 873.0204446875598, 907.5545138618398, 921.7142375916799, 922.5451428153999, 945.43967187228, 987.1978096031999, 1015.3867843418, 1044.03584709684, 1066.28487953364, 1072.4857672776, 1096.98030391404, 1116.2696656779199, 1122.75209982, 1142.3985448205199, 1202.0657802659998, 1207.82031396416, 1217.5508321625998, 1256.61711164808, 1262.63945777372, 1284.5314069738797, 1286.2687542598399, 1313.97704002604, 1316.9847795961998, 1320.6311488011202, 1339.9411115209598, 1339.9754464475598, 1365.2322184545199, 1368.74811493836, 1376.8580246012798, 1398.55083122716, 1401.5036349147601, 1472.50826312356, 1476.82072990452, 1478.06365424744, 1478.81215564732, 1486.92206531024, 1491.0628574582, 1506.3831017071197, 2950.4551786205598, 2962.34193020948, 2991.31374127456, 2991.7532283350397, 2996.8759993837602, 3001.07172741428, 3015.06664349644, 3015.65720423396, 3043.90798184044, 3044.3474689009204, 3044.821290888, 3053.3088847435192, 3057.07199269888, 3062.7784574998, 3072.117557535, 3090.8781614292393]

>  <ZPE_kJmol>  (1) 
613.2521071062491

>  <E_elec_kJmol>  (1) 
-925846.257031225

>  <E0_minus_Eelec_plus_ZPE_kJmol>  (1) 
0.0

>  <rxn>  (1) 
rxn_735

>  <species_type>  (1) 
r1

>  <species_folder>  (1) 
rxn_735_C1CCC2CCCC2C1

>  <frequencies_cm1_list>  (1) 
[79.74630052116, 161.44969185852, 192.46099756363998, 319.95344701476, 325.08995203411996, 337.32691987436, 425.16252910247994, 470.50523317043996, 497.06673238819997, 579.3538174777599, 623.59780389452, 769.3495673115199, 782.1839628746, 837.42199278868, 848.74565158136, 873.0204446875598, 907.5545138618398, 921.7142375916799, 922.5451428153999, 945.43967187228, 987.1978096031999, 1015.3867843418, 1044.03584709684, 1066.28487953364, 1072.4857672776, 1096.98030391404, 1116.2696656779199, 1122.75209982, 1142.3985448205199, 1202.0657802659998, 1207.82031396416, 1217.5508321625998, 1256.61711164808, 1262.63945777372, 1284.5314069738797, 1286.2687542598399, 1313.97704002604, 1316.9847795961998, 1320.6311488011202, 1339.9411115209598, 1339.9754464475598, 1365.2322184545199, 1368.74811493836, 1376.8580246012798, 1398.55083122716, 1401.5036349147601, 1472.50826312356, 1476.82072990452, 1478.06365424744, 1478.81215564732, 1486.92206531024, 1491.0628574582, 1506.3831017071197, 2950.4551786205598, 2962.34193020948, 2991.31374127456, 2991.7532283350397, 2996.8759993837602, 3001.07172741428, 3015.06664349644, 3015.65720423396, 3043.90798184044, 3044.3474689009204, 3044.821290888, 3053.3088847435192, 3057.07199269888, 3062.7784574998, 3072.117557535, 3090.8781614292393]

>  <E0_kJmol>  (1) 
-925233

>  <H298_kJmol>  (1) 
-925210

$$$$

     RDKit          3D

  2  1  0  0  0  0  0  0  0  0999 V2000
    0.0921    0.0338    0.4743 H   0  0  0  0  0  0  0  0  0  1  0  0
   -0.0486   -0.0179   -0.2503 H   0  0  0  0  0  0  0  0  0  2  0  0
  1  2  1  0
M  END
>  <rmg_smiles>  (2) 
[H][H]

>  <rmg_adjacency_list>  (2) 
1 H u0 p0 c0 {2,S}
2 H u0 p0 c0 {1,S}


>  <multiplicity>  (2) 
1

>  <reaction>  (2) 
rxn_735

>  <type>  (2) 
r2h

>  <role_mapnums>  (2) 
{"r2h_a": 1, "r2h_h": 2}

>  <role_mapidx>  (2) 
{"r2h_a": 0, "r2h_h": 1}

>  <ordered_mapped_smiles>  (2) 
[H:1][H:2]

>  <mol_properties>  (2) 
{"0": {"label": "acceptor", "atom_type": "H0"}, "1": {"label": "a_hydrogen", "atom_type": "H0"}}

>  <level_of_theory>  (2) 
wb97xd/def2tzvp

>  <lot_method>  (2) 
wb97xd

>  <lot_basis>  (2) 
def2tzvp

>  <spin_multiplicity>  (2) 
1.0

>  <optical_isomers>  (2) 
1.0

>  <modes>  (2) 
IdealGasTranslation(mass=(2.01565, 'amu')),         LinearRotor(inertia=(0.279051, 'amu*angstrom^2'), symmetry=2),         HarmonicOscillator(frequencies=([4384.98

>  <frequency_value>  (2) 
unknown

>  <frequency_units>  (2) 
unknown

>  <frequency_list>  (2) 
unknown

>  <arkane_path>  (2) 
/home/calvin/Dropbox/PersonalFolders/Calvin/HAb_Converged/rxn_735/output/Species/rxn_735_[H][H]/arkane/output.py

>  <path_exists>  (2) 
True

>  <E0_value>  (2) 
-3062.16965545063

>  <E0_units>  (2) 
kJ/mol

>  <thermo_class>  (2) 
NASA

>  <Cp0_value>  (2) 
29.100652

>  <Cp0_units>  (2) 
J/(mol*K)

>  <CpInf_value>  (2) 
37.415124

>  <CpInf_units>  (2) 
J/(mol*K)

>  <Tmin_value>  (2) 
10.0

>  <Tmin_units>  (2) 
K

>  <Tmax_value>  (2) 
3000.0

>  <Tmax_units>  (2) 
K

>  <polynomials>  (2) 
[{"name": "polynomial1", "class": "NASAPolynomial", "Tmin_value": 10.0, "Tmin_units": "K", "Tmax_value": 609.8839760798177, "Tmax_units": "K", "coeffs": [3.498630427760662, 8.118128927195725e-05, -2.559636751505851e-07, 1.12469612407288e-11, 3.0815171130046294e-13, -368293.8823611774, -4.277290681887199]}, {"name": "polynomial2", "class": "NASAPolynomial", "Tmin_value": 609.8839760798177, "Tmin_units": "K", "Tmax_value": 3000.0, "Tmax_units": "K", "coeffs": [3.686867766797846, -0.0007828622299568348, 9.578139376048542e-07, -3.193665739780837e-10, 3.533006631714403e-14, -368323.7341208647, -5.148841965058497]}]

>  <H298_value>  (2) 
-729.8011438890577

>  <H298_units>  (2) 
kcal/mol

>  <S298_value>  (2) 
31.136082854374543

>  <S298_units>  (2) 
cal/(mol*K)

>  <Cp_T_value_list>  (2) 
[6.960683160805141, 6.952753142081975, 6.947066275630451, 6.950370161364484, 7.003977696739648, 7.10979357060473, 7.489089863592967, 7.874797646413975, 8.112273708870758]

>  <Cp_T_units>  (2) 
cal/(mol*K)

>  <T_list>  (2) 
[300.0, 400.0, 500.0, 600.0, 800.0, 1000.0, 1500.0, 2000.0, 2400.0]

>  <T_units>  (2) 
K

>  <yaml_path>  (2) 
/home/calvin/Dropbox/PersonalFolders/Calvin/HAb_Converged/rxn_735/output/Species/rxn_735_[H][H]/rxn_735_HH.yml

>  <frequencies_cm1>  (2) 
[4384.97527895388]

>  <ZPE_kJmol>  (2) 
26.22798418526521

>  <E_elec_kJmol>  (2) 
-3088.3976396358958

>  <E0_minus_Eelec_plus_ZPE_kJmol>  (2) 
0.0

>  <rxn>  (2) 
rxn_735

>  <species_type>  (2) 
p0

>  <species_folder>  (2) 
rxn_735_[H][H]

>  <frequencies_cm1_list>  (2) 
[4384.97527895388]

>  <E0_kJmol>  (2) 
-3062.17

>  <H298_kJmol>  (2) 
-3053.49

$$$$

     RDKit          3D

 26 26  0  0  0  0  0  0  0  0999 V2000
    0.0906   -0.9112   -0.8863 C   0  0  0  0  0  0  0  0  0  1  0  0
   -0.4349    0.5567   -0.9396 C   0  0  0  0  0  0  0  0  0  2  0  0
    1.5108   -0.9990   -0.3181 C   0  0  0  0  0  0  0  0  0  3  0  0
   -0.9473   -1.6915   -0.0500 C   0  0  0  0  0  0  0  0  0  4  0  0
    0.6573    1.5976   -0.6981 C   0  0  0  0  0  0  0  0  0  5  0  0
    1.6805   -0.1121    0.9119 C   0  0  0  0  0  0  0  0  0  6  0  0
    1.4579    1.3774    0.5914 C   0  0  0  0  0  0  0  0  0  7  0  0
   -2.2002   -0.8139   -0.0132 C   0  0  0  0  0  0  0  0  0  8  0  0
   -1.6300    0.5833   -0.0072 C   0  0  0  0  0  0  0  0  0  9  0  0
    0.1031   -1.3157   -1.9005 H   0  0  0  0  0  0  0  0  0 10  0  0
   -0.8352    0.7417   -1.9439 H   0  0  0  0  0  0  0  0  0 11  0  0
   -0.5785   -1.8260    0.9702 H   0  0  0  0  0  0  0  0  0 12  0  0
   -1.1363   -2.6864   -0.4540 H   0  0  0  0  0  0  0  0  0 13  0  0
    1.7374   -2.0392   -0.0696 H   0  0  0  0  0  0  0  0  0 14  0  0
    2.2340   -0.7018   -1.0839 H   0  0  0  0  0  0  0  0  0 15  0  0
    0.9651   -0.4264    1.6766 H   0  0  0  0  0  0  0  0  0 16  0  0
    2.6700   -0.2600    1.3476 H   0  0  0  0  0  0  0  0  0 17  0  0
    2.4185    1.8871    0.4898 H   0  0  0  0  0  0  0  0  0 18  0  0
    0.9484    1.8520    1.4318 H   0  0  0  0  0  0  0  0  0 19  0  0
    1.3385    1.5628   -1.5531 H   0  0  0  0  0  0  0  0  0 20  0  0
    0.2223    2.6000   -0.7011 H   0  0  0  0  0  0  0  0  0 21  0  0
   -2.8443   -1.0190    0.8434 H   0  0  0  0  0  0  0  0  0 22  0  0
   -2.8029   -0.9605   -0.9171 H   0  0  0  0  0  0  0  0  0 23  0  0
   -2.3250    1.4123   -0.1340 H   0  0  0  0  0  0  0  0  0 24  0  0
   -1.0578    0.8298    2.1779 H   0  0  0  0  0 15  0  0  0 25  0  0
   -1.2420    0.7621    1.2292 H   0  0  0  0  0  0  0  0  0 26  0  0
  1  3  1  0
  1  4  1  0
  1 10  1  0
  1  2  1  0
  2 11  1  0
  2  5  1  0
  2  9  1  0
  3 15  1  0
  3 14  1  0
  3  6  1  0
  4 12  1  0
  4 13  1  0
  4  8  1  0
  5 20  1  0
  5  7  1  0
  5 21  1  0
  6  7  1  0
  6 16  1  0
  6 17  1  0
  7 18  1  0
  7 19  1  0
  8 23  1  0
  8  9  1  0
  8 22  1  0
  9 24  1  0
  9 26  1  0
M  END
>  <rmg_smiles>  (3) 
C1CCC2CCCC2C1.[H]

>  <rmg_adjacency_list>  (3) 
multiplicity 2
1  C u0 p0 c0 {2,S} {3,S} {4,S} {10,S}
2  C u0 p0 c0 {1,S} {5,S} {6,S} {11,S}
3  C u0 p0 c0 {1,S} {7,S} {14,S} {15,S}
4  C u0 p0 c0 {1,S} {9,S} {12,S} {13,S}
5  C u0 p0 c0 {2,S} {8,S} {20,S} {21,S}
6  C u0 p0 c0 {2,S} {9,S} {24,S} {25,S}
7  C u0 p0 c0 {3,S} {8,S} {16,S} {17,S}
8  C u0 p0 c0 {5,S} {7,S} {18,S} {19,S}
9  C u0 p0 c0 {4,S} {6,S} {22,S} {23,S}
10 H u0 p0 c0 {1,S}
11 H u0 p0 c0 {2,S}
12 H u0 p0 c0 {4,S}
13 H u0 p0 c0 {4,S}
14 H u0 p0 c0 {3,S}
15 H u0 p0 c0 {3,S}
16 H u0 p0 c0 {7,S}
17 H u0 p0 c0 {7,S}
18 H u0 p0 c0 {8,S}
19 H u0 p0 c0 {8,S}
20 H u0 p0 c0 {5,S}
21 H u0 p0 c0 {5,S}
22 H u0 p0 c0 {9,S}
23 H u0 p0 c0 {9,S}
24 H u0 p0 c0 {6,S}
25 H u0 p0 c0 {6,S}
26 H u1 p0 c0


>  <multiplicity>  (3) 
2

>  <reaction>  (3) 
rxn_735

>  <type>  (3) 
ts

>  <role_mapnums>  (3) 
{"*2": 26, "*1": 25, "*3": 9, "*0": null, "*4": 2}

>  <role_mapidx>  (3) 
{"*2": 25, "*1": 24, "*3": 8, "*4": 1}

>  <ordered_mapped_smiles>  (3) 
[C:1]12([H:10])[C:2]([H:11])([C:5]([H:20])([H:21])[C:7]([H:18])([H:19])[C:6]([H:16])([H:17])[C:3]1([H:14])[H:15])[C:9]([H:24])([H:26])[C:8]([H:22])([H:23])[C:4]2([H:12])[H:13].[H:25]

>  <mol_properties>  (3) 
{"1": {"label": "*4", "atom_type": "Cs"}, "8": {"label": "*3", "atom_type": "Cs"}, "24": {"label": "*1", "atom_type": "H0"}, "25": {"label": "*2", "atom_type": "H0"}}

>  <level_of_theory>  (3) 
wb97xd/def2tzvp

>  <lot_method>  (3) 
wb97xd

>  <lot_basis>  (3) 
def2tzvp

>  <spin_multiplicity>  (3) 
2.0

>  <optical_isomers>  (3) 
2.0

>  <modes>  (3) 
IdealGasTranslation(mass=(125.133, 'amu')),         NonlinearRotor(             inertia = ([206.503, 335.61, 414.412

>  <frequency_value>  (3) 
-1219.51

>  <frequency_units>  (3) 
cm^-1

>  <frequency_list>  (3) 
unknown

>  <arkane_path>  (3) 
/home/calvin/Dropbox/PersonalFolders/Calvin/HAb_Converged/rxn_735/output/rxns/TS0/arkane/output.py

>  <path_exists>  (3) 
True

>  <E0_value>  (3) 
-926505.0

>  <E0_units>  (3) 
kJ/mol

>  <thermo_class>  (3) 
unknown

>  <Cp0_value>  (3) 
unknown

>  <Cp0_units>  (3) 
unknown

>  <CpInf_value>  (3) 
unknown

>  <CpInf_units>  (3) 
unknown

>  <Tmin_value>  (3) 
unknown

>  <Tmin_units>  (3) 
unknown

>  <Tmax_value>  (3) 
unknown

>  <Tmax_units>  (3) 
unknown

>  <polynomials>  (3) 
unknown

>  <H298_value>  (3) 
unknown

>  <H298_units>  (3) 
unknown

>  <S298_value>  (3) 
unknown

>  <S298_units>  (3) 
unknown

>  <Cp_T_value_list>  (3) 
unknown

>  <Cp_T_units>  (3) 
unknown

>  <T_list>  (3) 
unknown

>  <T_units>  (3) 
unknown

>  <yaml_path>  (3) 
unknown

>  <frequencies_cm1>  (3) 
unknown

>  <ZPE_kJmol>  (3) 
unknown

>  <E_elec_kJmol>  (3) 
unknown

>  <E0_minus_Eelec_plus_ZPE_kJmol>  (3) 
unknown

>  <rxn>  (3) 
unknown

>  <species_type>  (3) 
unknown

>  <species_folder>  (3) 
unknown

>  <frequencies_cm1_list>  (3) 
[]

>  <ts_imag_freq_cm1>  (3) 
-1234.3233

>  <ts_freq_out_path>  (3) 
/home/calvin/Dropbox/PersonalFolders/Calvin/HAb_Converged/rxn_735/output/rxns/TS0/geometry/freq.out

>  <E0_kJmol>  (3) 
-926505

>  <H298_kJmol>  (3) 
unknown

$$$$

     RDKit          3D

 24 25  0  0  0  0  0  0  0  0999 V2000
   -1.3137    1.2076    0.0526 C   0  0  0  0  0  3  0  0  0  1  0  0
   -2.3065    0.1196    0.2833 C   0  0  0  0  0  0  0  0  0  2  0  0
   -1.7836   -1.0394   -0.5898 C   0  0  0  0  0  0  0  0  0  3  0  0
   -0.2749   -0.7855   -0.6984 C   0  0  0  0  0  0  0  0  0  4  0  0
    0.4655   -1.2917    0.5434 C   0  0  0  0  0  0  0  0  0  5  0  0
    1.8694   -0.7131    0.6745 C   0  0  0  0  0  0  0  0  0  6  0  0
    1.8184    0.8105    0.7119 C   0  0  0  0  0  0  0  0  0  7  0  0
    1.1779    1.3572   -0.5588 C   0  0  0  0  0  0  0  0  0  8  0  0
   -0.2011    0.7528   -0.8316 C   0  0  0  0  0  0  0  0  0  9  0  0
   -1.4277    2.2231    0.4082 H   0  0  0  0  0  0  0  0  0 10  0  0
   -2.3438   -0.1691    1.3425 H   0  0  0  0  0  0  0  0  0 11  0  0
   -3.3295    0.4088    0.0212 H   0  0  0  0  0  0  0  0  0 12  0  0
   -2.2393   -0.9859   -1.5815 H   0  0  0  0  0  0  0  0  0 13  0  0
   -2.0144   -2.0220   -0.1744 H   0  0  0  0  0  0  0  0  0 14  0  0
    0.1520   -1.2674   -1.5825 H   0  0  0  0  0  0  0  0  0 15  0  0
   -0.1033   -1.0202    1.4396 H   0  0  0  0  0  0  0  0  0 16  0  0
    0.4983   -2.3841    0.5177 H   0  0  0  0  0  0  0  0  0 17  0  0
    2.4827   -1.0338   -0.1757 H   0  0  0  0  0  0  0  0  0 18  0  0
    2.3514   -1.1019    1.5744 H   0  0  0  0  0  0  0  0  0 19  0  0
    1.2359    1.1286    1.5834 H   0  0  0  0  0  0  0  0  0 20  0  0
    2.8216    1.2258    0.8314 H   0  0  0  0  0  0  0  0  0 21  0  0
    1.0952    2.4462   -0.5109 H   0  0  0  0  0  0  0  0  0 22  0  0
    1.8331    1.1314   -1.4069 H   0  0  0  0  0  0  0  0  0 23  0  0
   -0.4636    1.0027   -1.8738 H   0  0  0  0  0  0  0  0  0 24  0  0
  1 10  1  0
  1  9  1  0
  1  2  1  0
  2 12  1  0
  2 11  1  0
  2  3  1  0
  3  4  1  0
  3 13  1  0
  3 14  1  0
  4  9  1  0
  4  5  1  0
  4 15  1  0
  5 16  1  0
  5 17  1  0
  5  6  1  0
  6  7  1  0
  6 19  1  0
  6 18  1  0
  7 20  1  0
  7 21  1  0
  7  8  1  0
  8 23  1  0
  8  9  1  0
  8 22  1  0
  9 24  1  0
M  RAD  1   1   2
M  END
>  <rmg_smiles>  (4) 
[CH]1CCC2CCCCC12

>  <rmg_adjacency_list>  (4) 
multiplicity 2
1  C u0 p0 c0 {2,S} {3,S} {4,S} {10,S}
2  C u0 p0 c0 {1,S} {5,S} {9,S} {11,S}
3  C u0 p0 c0 {1,S} {6,S} {14,S} {15,S}
4  C u0 p0 c0 {1,S} {8,S} {12,S} {13,S}
5  C u0 p0 c0 {2,S} {7,S} {20,S} {21,S}
6  C u0 p0 c0 {3,S} {7,S} {16,S} {17,S}
7  C u0 p0 c0 {5,S} {6,S} {18,S} {19,S}
8  C u0 p0 c0 {4,S} {9,S} {22,S} {23,S}
9  C u1 p0 c0 {2,S} {8,S} {24,S}
10 H u0 p0 c0 {1,S}
11 H u0 p0 c0 {2,S}
12 H u0 p0 c0 {4,S}
13 H u0 p0 c0 {4,S}
14 H u0 p0 c0 {3,S}
15 H u0 p0 c0 {3,S}
16 H u0 p0 c0 {6,S}
17 H u0 p0 c0 {6,S}
18 H u0 p0 c0 {7,S}
19 H u0 p0 c0 {7,S}
20 H u0 p0 c0 {5,S}
21 H u0 p0 c0 {5,S}
22 H u0 p0 c0 {8,S}
23 H u0 p0 c0 {8,S}
24 H u0 p0 c0 {9,S}


>  <multiplicity>  (4) 
2

>  <reaction>  (4) 
rxn_735

>  <type>  (4) 
r1

>  <role_mapnums>  (4) 
{}

>  <role_mapidx>  (4) 
{}

>  <ordered_mapped_smiles>  (4) 
[C:1]1([H:10])[C:2]([H:11])([H:12])[C:3]([H:13])([H:14])[C:4]2([H:15])[C:5]([H:16])([H:17])[C:6]([H:18])([H:19])[C:7]([H:20])([H:21])[C:8]([H:22])([H:23])[C:9]12[H:24]

>  <level_of_theory>  (4) 
wb97xd/def2tzvp

>  <lot_method>  (4) 
wb97xd

>  <lot_basis>  (4) 
def2tzvp

>  <spin_multiplicity>  (4) 
2.0

>  <optical_isomers>  (4) 
2.0

>  <modes>  (4) 
IdealGasTranslation(mass=(123.117, 'amu')),         NonlinearRotor(             inertia = ([183.116, 337.78, 420.862

>  <frequency_value>  (4) 
unknown

>  <frequency_units>  (4) 
unknown

>  <frequency_list>  (4) 
unknown

>  <arkane_path>  (4) 
/home/calvin/Dropbox/PersonalFolders/Calvin/HAb_Converged/rxn_735/output/Species/rxn_735_[CH]1CCC2CCCCC12/arkane/output.py

>  <path_exists>  (4) 
True

>  <E0_value>  (4) 
-923521.4034742753

>  <E0_units>  (4) 
kJ/mol

>  <thermo_class>  (4) 
NASA

>  <Cp0_value>  (4) 
33.257888

>  <Cp0_units>  (4) 
J/(mol*K)

>  <CpInf_value>  (4) 
582.01304

>  <CpInf_units>  (4) 
J/(mol*K)

>  <Tmin_value>  (4) 
10.0

>  <Tmin_units>  (4) 
K

>  <Tmax_value>  (4) 
3000.0

>  <Tmax_units>  (4) 
K

>  <polynomials>  (4) 
[{"name": "polynomial1", "class": "NASAPolynomial", "Tmin_value": 10.0, "Tmin_units": "K", "Tmax_value": 528.972455779128, "Tmax_units": "K", "coeffs": [3.9868218800267257, -0.0002706572745000309, 0.00028187632893371514, -4.741050184034835e-07, 2.5734956335824994e-10, -111073965.68706591, 13.539897637614564]}, {"name": "polynomial2", "class": "NASAPolynomial", "Tmin_value": 528.972455779128, "Tmin_units": "K", "Tmax_value": 3000.0, "Tmax_units": "K", "coeffs": [-8.057241794330608, 0.1064450955450352, -6.508787704379979e-05, 1.907252295638734e-08, -2.1508745349439294e-12, -111072910.31254905, 61.90729537273606]}]

>  <H298_value>  (4) 
-220721.245578044

>  <H298_units>  (4) 
kcal/mol

>  <S298_value>  (4) 
89.45134221739195

>  <S298_units>  (4) 
cal/(mol*K)

>  <Cp_T_value_list>  (4) 
[36.878956346585845, 50.12569271862853, 61.88517923543043, 71.97481392014562, 88.08635981771188, 99.80073994362994, 116.53702427589523, 124.49378200225445, 128.77598528640422]

>  <Cp_T_units>  (4) 
cal/(mol*K)

>  <T_list>  (4) 
[300.0, 400.0, 500.0, 600.0, 800.0, 1000.0, 1500.0, 2000.0, 2400.0]

>  <T_units>  (4) 
K

>  <yaml_path>  (4) 
/home/calvin/Dropbox/PersonalFolders/Calvin/HAb_Converged/rxn_735/output/Species/rxn_735_[CH]1CCC2CCCCC12/rxn_735_CH1CCC2CCCCC12.yml

>  <frequencies_cm1>  (4) 
[136.62553992672, 157.51490927016, 211.37954212023996, 286.18848019632, 322.06847849332, 355.62056876684, 367.5897241795999, 411.11954412308, 476.10869319156, 586.10406404732, 659.1619208667998, 679.4263945461199, 776.27148851408, 816.29914594436, 831.37217872176, 862.80923751672, 874.6891221203199, 908.0695377608398, 920.8901993532799, 936.1829756609199, 978.41493537892, 1007.2974756348399, 1019.2666310475998, 1048.87020476212, 1054.7002752987999, 1059.7475095089999, 1090.01031381424, 1111.6207166162799, 1132.16673669372, 1153.45439118572, 1197.1009498796398, 1215.60747531704, 1249.276304341, 1269.96653111016, 1285.0532978581998, 1290.7322947178397, 1302.2482290994799, 1317.86375371716, 1334.75653760436, 1341.808931528, 1361.1738301304, 1369.2082029548, 1377.33871357368, 1391.0452162724, 1392.73449466112, 1461.8919038188399, 1471.2378708393599, 1474.8361711470397, 1479.64992785636, 1487.40275428264, 1490.6165034123997, 2897.1467715814, 2960.3367704960397, 2992.7077392945193, 2999.801335130079, 3001.73782499032, 3002.8296756562, 3006.4005080225998, 3019.7155925580796, 3032.0555651781197, 3045.94747648048, 3049.81358921564, 3053.18527900776, 3057.6694204217197, 3072.8935268761597, 3173.233916372]

>  <ZPE_kJmol>  (4) 
575.1531238351159

>  <E_elec_kJmol>  (4) 
-924096.5565981104

>  <E0_minus_Eelec_plus_ZPE_kJmol>  (4) 
0.0

>  <rxn>  (4) 
rxn_735

>  <species_type>  (4) 
p1

>  <species_folder>  (4) 
rxn_735_[CH]1CCC2CCCCC12

>  <frequencies_cm1_list>  (4) 
[136.62553992672, 157.51490927016, 211.37954212023996, 286.18848019632, 322.06847849332, 355.62056876684, 367.5897241795999, 411.11954412308, 476.10869319156, 586.10406404732, 659.1619208667998, 679.4263945461199, 776.27148851408, 816.29914594436, 831.37217872176, 862.80923751672, 874.6891221203199, 908.0695377608398, 920.8901993532799, 936.1829756609199, 978.41493537892, 1007.2974756348399, 1019.2666310475998, 1048.87020476212, 1054.7002752987999, 1059.7475095089999, 1090.01031381424, 1111.6207166162799, 1132.16673669372, 1153.45439118572, 1197.1009498796398, 1215.60747531704, 1249.276304341, 1269.96653111016, 1285.0532978581998, 1290.7322947178397, 1302.2482290994799, 1317.86375371716, 1334.75653760436, 1341.808931528, 1361.1738301304, 1369.2082029548, 1377.33871357368, 1391.0452162724, 1392.73449466112, 1461.8919038188399, 1471.2378708393599, 1474.8361711470397, 1479.64992785636, 1487.40275428264, 1490.6165034123997, 2897.1467715814, 2960.3367704960397, 2992.7077392945193, 2999.801335130079, 3001.73782499032, 3002.8296756562, 3006.4005080225998, 3019.7155925580796, 3032.0555651781197, 3045.94747648048, 3049.81358921564, 3053.18527900776, 3057.6694204217197, 3072.8935268761597, 3173.233916372]

>  <E0_kJmol>  (4) 
-923521

>  <H298_kJmol>  (4) 
-923498

$$$$

     RDKit          3D

  1  0  0  0  0  0  0  0  0  0999 V2000
    0.0000    0.0000    0.0000 H   0  0  0  0  0 15  0  0  0  1  0  0
M  END
>  <rmg_smiles>  (5) 
[H]

>  <rmg_adjacency_list>  (5) 
multiplicity 2
1 H u1 p0 c0


>  <multiplicity>  (5) 
2

>  <reaction>  (5) 
rxn_735

>  <type>  (5) 
r2

>  <role_mapnums>  (5) 
{}

>  <role_mapidx>  (5) 
{}

>  <ordered_mapped_smiles>  (5) 
[H:1]

>  <level_of_theory>  (5) 
wb97xd/def2tzvp

>  <lot_method>  (5) 
wb97xd

>  <lot_basis>  (5) 
def2tzvp

>  <spin_multiplicity>  (5) 
2.0

>  <optical_isomers>  (5) 
1.0

>  <modes>  (5) 
IdealGasTranslation(mass=(1.00797, 'amu')),

>  <frequency_value>  (5) 
unknown

>  <frequency_units>  (5) 
unknown

>  <frequency_list>  (5) 
unknown

>  <arkane_path>  (5) 
/home/calvin/Dropbox/PersonalFolders/Calvin/HAb_Converged/rxn_735/output/Species/rxn_735_[H]/arkane/output.py

>  <path_exists>  (5) 
True

>  <E0_value>  (5) 
-1319.7535890175566

>  <E0_units>  (5) 
kJ/mol

>  <thermo_class>  (5) 
NASA

>  <Cp0_value>  (5) 
20.78618

>  <Cp0_units>  (5) 
J/(mol*K)

>  <CpInf_value>  (5) 
20.78618

>  <CpInf_units>  (5) 
J/(mol*K)

>  <Tmin_value>  (5) 
10.0

>  <Tmin_units>  (5) 
K

>  <Tmax_value>  (5) 
3000.0

>  <Tmax_units>  (5) 
K

>  <polynomials>  (5) 
[{"name": "polynomial1", "class": "NASAPolynomial", "Tmin_value": 10.0, "Tmin_units": "K", "Tmax_value": 1853.5663026740365, "Tmax_units": "K", "coeffs": [2.500000000000126, -2.814048095438137e-15, 9.047587538332909e-18, -8.591944598242694e-21, 2.4182720553650057e-24, -158729.69562032758, -0.461069367474324]}, {"name": "polynomial2", "class": "NASAPolynomial", "Tmin_value": 1853.5663026740365, "Tmin_units": "K", "Tmax_value": 3000.0, "Tmax_units": "K", "coeffs": [2.500000000696122, -1.3129776766613561e-12, 9.140875080033424e-16, -2.782806647322001e-19, 3.1263265306749967e-23, -158729.69562061856, -0.4610693713504795]}]

>  <H298_value>  (5) 
-313.9482141882736

>  <H298_units>  (5) 
kcal/mol

>  <S298_value>  (5) 
27.387012987908147

>  <S298_units>  (5) 
cal/(mol*K)

>  <Cp_T_value_list>  (5) 
[4.968016252389826, 4.968016252389978, 4.968016252390173, 4.96801625239036, 4.968016252390567, 4.968016252390427, 4.968016252389077, 4.968016252391019, 4.968016252390868]

>  <Cp_T_units>  (5) 
cal/(mol*K)

>  <T_list>  (5) 
[300.0, 400.0, 500.0, 600.0, 800.0, 1000.0, 1500.0, 2000.0, 2400.0]

>  <T_units>  (5) 
K

>  <yaml_path>  (5) 
/home/calvin/Dropbox/PersonalFolders/Calvin/HAb_Converged/rxn_735/output/Species/rxn_735_[H]/rxn_735_H.yml

>  <frequencies_cm1>  (5) 
[]

>  <ZPE_kJmol>  (5) 
unknown

>  <E_elec_kJmol>  (5) 
unknown

>  <E0_minus_Eelec_plus_ZPE_kJmol>  (5) 
unknown

>  <rxn>  (5) 
rxn_735

>  <species_type>  (5) 
r0

>  <species_folder>  (5) 
rxn_735_[H]

>  <frequencies_cm1_list>  (5) 
[]

>  <E0_kJmol>  (5) 
-1319.75

>  <H298_kJmol>  (5) 
-1313.56

$$$$
