
     RDKit          3D

  4  3  0  0  0  0  0  0  0  0999 V2000
    0.0000   -0.3443   -1.2085 N   0  0  0  0  0  2  0  0  0  1  0  0
   -0.0000    0.0268   -0.0513 C   0  0  0  0  0  0  0  0  0  2  0  0
   -0.0000    0.3859    1.1199 N   0  0  0  0  0  0  0  0  0  3  0  0
    0.0000   -0.5201    1.6306 H   0  0  0  0  0  0  0  0  0  4  0  0
  1  2  1  0
  2  3  1  0
  3  4  1  0
M  RAD  1   1   2
M  END
>  <rmg_smiles>  (1) 
[N][C][NH]

>  <rmg_adjacency_list>  (1) 
multiplicity 2
1 N u0 p1 c0 {3,S} {4,S}
2 N u1 p2 c0 {3,S}
3 C u0 p1 c0 {1,S} {2,S}
4 H u0 p0 c0 {1,S}


>  <multiplicity>  (1) 
2

>  <reaction>  (1) 
rxn_62

>  <type>  (1) 
r1h

>  <role_mapnums>  (1) 
{"r1h_a": 3, "r1h_h": 4}

>  <role_mapidx>  (1) 
{"r1h_a": 2, "r1h_h": 3}

>  <ordered_mapped_smiles>  (1) 
[NH:1][CH2:2][NH:3][H:4]

>  <mol_properties>  (1) 
{"2": {"label": "donator", "atom_type": "N3s"}, "3": {"label": "d_hydrogen", "atom_type": "H0"}}

>  <level_of_theory>  (1) 
wb97xd/def2tzvp

>  <lot_method>  (1) 
wb97xd

>  <lot_basis>  (1) 
def2tzvp

>  <spin_multiplicity>  (1) 
2.0

>  <optical_isomers>  (1) 
1.0

>  <modes>  (1) 
IdealGasTranslation(mass=(41.014, 'amu')),         NonlinearRotor(             inertia = ([0.780855, 44.8571, 45.6379

>  <frequency_value>  (1) 
unknown

>  <frequency_units>  (1) 
unknown

>  <frequency_list>  (1) 
unknown

>  <arkane_path>  (1) 
/home/calvin/Dropbox/PersonalFolders/Calvin/HAb_Converged/rxn_62/output/Species/rxn_62_[N]=C=N/arkane/output.py

>  <path_exists>  (1) 
True

>  <E0_value>  (1) 
-388864.02141832345

>  <E0_units>  (1) 
kJ/mol

>  <thermo_class>  (1) 
NASA

>  <Cp0_value>  (1) 
33.257888

>  <Cp0_units>  (1) 
J/(mol*K)

>  <CpInf_value>  (1) 
83.14472

>  <CpInf_units>  (1) 
J/(mol*K)

>  <Tmin_value>  (1) 
10.0

>  <Tmin_units>  (1) 
K

>  <Tmax_value>  (1) 
3000.0

>  <Tmax_units>  (1) 
K

>  <polynomials>  (1) 
[{"name": "polynomial1", "class": "NASAPolynomial", "Tmin_value": 10.0, "Tmin_units": "K", "Tmax_value": 566.9956520654554, "Tmax_units": "K", "coeffs": [3.9835884496447065, 0.0009500586397966843, 2.6064750369586223e-05, -4.737329620744589e-08, 2.6532491872392603e-11, -46769538.02836168, 5.85906439367546]}, {"name": "polynomial2", "class": "NASAPolynomial", "Tmin_value": 566.9956520654554, "Tmin_units": "K", "Tmax_value": 3000.0, "Tmax_units": "K", "coeffs": [3.2892621152837185, 0.00950378879270305, -6.2349073651085e-06, 1.9747908441193077e-09, -2.3959398338057135e-13, -46769518.05075553, 8.296668689596778]}]

>  <H298_value>  (1) 
-92937.99107262224

>  <H298_units>  (1) 
kcal/mol

>  <S298_value>  (1) 
58.87855457709797

>  <S298_units>  (1) 
cal/(mol*K)

>  <Cp_T_value_list>  (1) 
[11.029528177524188, 12.283544979318723, 13.336985558540766, 14.19356715207398, 15.529835291166838, 16.48057996470896, 17.822019642674945, 18.524805094653786, 18.949293908256294]

>  <Cp_T_units>  (1) 
cal/(mol*K)

>  <T_list>  (1) 
[300.0, 400.0, 500.0, 600.0, 800.0, 1000.0, 1500.0, 2000.0, 2400.0]

>  <T_units>  (1) 
K

>  <yaml_path>  (1) 
/home/calvin/Dropbox/PersonalFolders/Calvin/HAb_Converged/rxn_62/output/Species/rxn_62_[N]=C=N/rxn_62_N=C=N.yml

>  <frequencies_cm1>  (1) 
[472.8331411939199, 495.67273436824, 1052.3998352166, 1196.95674318792, 1876.7264870000397, 3481.8843055500397]

>  <ZPE_kJmol>  (1) 
51.29871672358809

>  <E_elec_kJmol>  (1) 
-388915.320135047

>  <E0_minus_Eelec_plus_ZPE_kJmol>  (1) 
0.0

>  <rxn>  (1) 
rxn_62

>  <species_type>  (1) 
r1

>  <species_folder>  (1) 
rxn_62_[N]=C=N

>  <frequencies_cm1_list>  (1) 
[472.8331411939199, 495.67273436824, 1052.3998352166, 1196.95674318792, 1876.7264870000397, 3481.8843055500397]

>  <E0_kJmol>  (1) 
-388864

>  <H298_kJmol>  (1) 
-388853

$$$$

     RDKit          3D

  3  2  0  0  0  0  0  0  0  0999 V2000
    0.0000   -0.3441   -0.5665 O   0  0  0  0  0  1  0  0  0  1  0  0
   -0.0000    0.2615    0.5450 O   0  0  0  0  0  0  0  0  0  2  0  0
   -0.0000    1.2039    0.3621 H   0  0  0  0  0  0  0  0  0  3  0  0
  1  2  1  0
  2  3  1  0
M  RAD  1   1   2
M  END
>  <rmg_smiles>  (2) 
[O]O

>  <rmg_adjacency_list>  (2) 
multiplicity 2
1 O u1 p2 c0 {2,S}
2 O u0 p2 c0 {1,S} {3,S}
3 H u0 p0 c0 {2,S}


>  <multiplicity>  (2) 
2

>  <reaction>  (2) 
rxn_62

>  <type>  (2) 
r2h

>  <role_mapnums>  (2) 
{"r2h_a": 2, "r2h_h": 3}

>  <role_mapidx>  (2) 
{"r2h_a": 1, "r2h_h": 2}

>  <ordered_mapped_smiles>  (2) 
[O:1][O:2][H:3]

>  <mol_properties>  (2) 
{"1": {"label": "acceptor", "atom_type": "O2s"}, "2": {"label": "a_hydrogen", "atom_type": "H0"}}

>  <level_of_theory>  (2) 
wb97xd/def2tzvp

>  <lot_method>  (2) 
wb97xd

>  <lot_basis>  (2) 
def2tzvp

>  <spin_multiplicity>  (2) 
2.0

>  <optical_isomers>  (2) 
1.0

>  <modes>  (2) 
IdealGasTranslation(mass=(32.9977, 'amu')),         NonlinearRotor(             inertia = ([0.803517, 14.5889, 15.3924

>  <frequency_value>  (2) 
unknown

>  <frequency_units>  (2) 
unknown

>  <frequency_list>  (2) 
unknown

>  <arkane_path>  (2) 
/home/calvin/Dropbox/PersonalFolders/Calvin/HAb_Converged/rxn_62/output/Species/rxn_62_[O]O/arkane/output.py

>  <path_exists>  (2) 
True

>  <E0_value>  (2) 
-396214.7927695905

>  <E0_units>  (2) 
kJ/mol

>  <thermo_class>  (2) 
NASA

>  <Cp0_value>  (2) 
33.257888

>  <Cp0_units>  (2) 
J/(mol*K)

>  <CpInf_value>  (2) 
58.201304

>  <CpInf_units>  (2) 
J/(mol*K)

>  <Tmin_value>  (2) 
10.0

>  <Tmin_units>  (2) 
K

>  <Tmax_value>  (2) 
3000.0

>  <Tmax_units>  (2) 
K

>  <polynomials>  (2) 
[{"name": "polynomial1", "class": "NASAPolynomial", "Tmin_value": 10.0, "Tmin_units": "K", "Tmax_value": 938.1901641883775, "Tmax_units": "K", "coeffs": [4.028900763568748, -0.0017001850192041605, 1.0116513729421136e-05, -1.0102502975955476e-08, 3.2943616799556636e-12, -47653633.38795187, 4.661311963627797]}, {"name": "polynomial2", "class": "NASAPolynomial", "Tmin_value": 938.1901641883775, "Tmin_units": "K", "Tmax_value": 3000.0, "Tmax_units": "K", "coeffs": [3.0224709900106443, 0.00428209217697721, -2.152234978217665e-06, 5.370565329041951e-10, -5.2799153043016775e-14, -47653518.97920004, 9.055842364041489]}]

>  <H298_value>  (2) 
-94695.23338060976

>  <H298_units>  (2) 
kcal/mol

>  <S298_value>  (2) 
54.59701487407024

>  <S298_units>  (2) 
cal/(mol*K)

>  <Cp_T_value_list>  (2) 
[8.312978103030632, 8.754130351990018, 9.242540000567846, 9.728455522252242, 10.572357002256187, 11.201059485179156, 12.218042363471625, 12.776508208459937, 13.066159106759592]

>  <Cp_T_units>  (2) 
cal/(mol*K)

>  <T_list>  (2) 
[300.0, 400.0, 500.0, 600.0, 800.0, 1000.0, 1500.0, 2000.0, 2400.0]

>  <T_units>  (2) 
K

>  <yaml_path>  (2) 
/home/calvin/Dropbox/PersonalFolders/Calvin/HAb_Converged/rxn_62/output/Species/rxn_62_[O]O/rxn_62_OO.yml

>  <frequencies_cm1>  (2) 
[1229.25217514788, 1446.77766912952, 3624.6283293968795]

>  <ZPE_kJmol>  (2) 
37.68631575394318

>  <E_elec_kJmol>  (2) 
-396252.4790853445

>  <E0_minus_Eelec_plus_ZPE_kJmol>  (2) 
0.0

>  <rxn>  (2) 
rxn_62

>  <species_type>  (2) 
p0

>  <species_folder>  (2) 
rxn_62_[O]O

>  <frequencies_cm1_list>  (2) 
[1229.25217514788, 1446.77766912952, 3624.6283293968795]

>  <E0_kJmol>  (2) 
-396215

>  <H298_kJmol>  (2) 
-396205

$$$$

     RDKit          3D

  6  4  0  0  0  0  0  0  0  0999 V2000
    0.0000   -1.5584    0.2327 O   0  0  0  0  0  1  0  0  0  1  0  0
    0.0000   -0.9528    1.3443 O   0  0  0  0  0  0  0  0  0  2  0  0
   -0.0000    0.6501   -1.9111 N   0  0  0  0  0  0  0  0  0  3  0  0
   -0.0000    1.0212   -0.7539 C   0  0  0  0  0  0  0  0  0  4  0  0
   -0.0000    1.3803    0.4173 N   0  0  0  0  0  1  0  0  0  5  0  0
    0.0000    0.0977    1.1404 H   0  0  0  0  0  0  0  0  0  6  0  0
  1  2  1  0
  2  6  1  0
  3  4  1  0
  4  5  1  0
M  RAD  2   1   2   5   3
M  END
>  <rmg_smiles>  (3) 
[N][C][N].[O]O

>  <rmg_adjacency_list>  (3) 
multiplicity 4
1 O u0 p2 c0 {2,S} {6,S}
2 O u1 p2 c0 {1,S}
3 N u2 p2 c0 {5,S}
4 N u0 p2 c0 {5,S}
5 C u0 p1 c0 {3,S} {4,S}
6 H u0 p0 c0 {1,S}


>  <multiplicity>  (3) 
4

>  <reaction>  (3) 
rxn_62

>  <type>  (3) 
ts

>  <role_mapnums>  (3) 
{"*2": 6, "*1": 2, "*3": 5, "*0": 1, "*4": 4}

>  <role_mapidx>  (3) 
{"*2": 5, "*1": 1, "*3": 4, "*0": 0, "*4": 3}

>  <ordered_mapped_smiles>  (3) 
[O:1][O:2][H:6].[NH2:3][CH2:4][N:5]

>  <mol_properties>  (3) 
{"0": {"label": "*0", "atom_type": "O2s"}, "1": {"label": "*1", "atom_type": "O2s"}, "3": {"label": "*4", "atom_type": "C2s"}, "4": {"label": "*3", "atom_type": "N1s"}, "5": {"label": "*2", "atom_type": "H0"}}

>  <level_of_theory>  (3) 
wb97xd/def2tzvp

>  <lot_method>  (3) 
wb97xd

>  <lot_basis>  (3) 
def2tzvp

>  <spin_multiplicity>  (3) 
2.0

>  <optical_isomers>  (3) 
1.0

>  <modes>  (3) 
IdealGasTranslation(mass=(73.0038, 'amu')),         NonlinearRotor(             inertia = ([50.0339, 139.752, 189.786

>  <frequency_value>  (3) 
-917.926

>  <frequency_units>  (3) 
cm^-1

>  <frequency_list>  (3) 
unknown

>  <arkane_path>  (3) 
/home/calvin/Dropbox/PersonalFolders/Calvin/HAb_Converged/rxn_62/output/rxns/TS0/arkane/output.py

>  <path_exists>  (3) 
True

>  <E0_value>  (3) 
-783377.0

>  <E0_units>  (3) 
kJ/mol

>  <thermo_class>  (3) 
unknown

>  <Cp0_value>  (3) 
unknown

>  <Cp0_units>  (3) 
unknown

>  <CpInf_value>  (3) 
unknown

>  <CpInf_units>  (3) 
unknown

>  <Tmin_value>  (3) 
unknown

>  <Tmin_units>  (3) 
unknown

>  <Tmax_value>  (3) 
unknown

>  <Tmax_units>  (3) 
unknown

>  <polynomials>  (3) 
unknown

>  <H298_value>  (3) 
unknown

>  <H298_units>  (3) 
unknown

>  <S298_value>  (3) 
unknown

>  <S298_units>  (3) 
unknown

>  <Cp_T_value_list>  (3) 
unknown

>  <Cp_T_units>  (3) 
unknown

>  <T_list>  (3) 
unknown

>  <T_units>  (3) 
unknown

>  <yaml_path>  (3) 
unknown

>  <frequencies_cm1>  (3) 
unknown

>  <ZPE_kJmol>  (3) 
unknown

>  <E_elec_kJmol>  (3) 
unknown

>  <E0_minus_Eelec_plus_ZPE_kJmol>  (3) 
unknown

>  <rxn>  (3) 
unknown

>  <species_type>  (3) 
unknown

>  <species_folder>  (3) 
unknown

>  <frequencies_cm1_list>  (3) 
[]

>  <ts_imag_freq_cm1>  (3) 
-929.0744

>  <ts_freq_out_path>  (3) 
/home/calvin/Dropbox/PersonalFolders/Calvin/HAb_Converged/rxn_62/output/rxns/TS0/geometry/freq.out

>  <E0_kJmol>  (3) 
-783377

>  <H298_kJmol>  (3) 
unknown

$$$$

     RDKit          3D

  3  2  0  0  0  0  0  0  0  0999 V2000
   -1.1710   -0.3992    0.0000 N   0  0  0  0  0  0  0  0  0  1  0  0
    0.0000   -0.0508    0.0000 C   0  0  0  0  0  0  0  0  0  2  0  0
    1.1710    0.2976    0.0000 N   0  0  0  0  0  1  0  0  0  3  0  0
  1  2  1  0
  2  3  1  0
M  RAD  1   3   3
M  END
>  <rmg_smiles>  (4) 
[N][C][N]

>  <rmg_adjacency_list>  (4) 
multiplicity 3
1 N u2 p2 c0 {3,S}
2 N u0 p2 c0 {3,S}
3 C u0 p1 c0 {1,S} {2,S}


>  <multiplicity>  (4) 
3

>  <reaction>  (4) 
rxn_62

>  <type>  (4) 
r1

>  <role_mapnums>  (4) 
{}

>  <role_mapidx>  (4) 
{}

>  <ordered_mapped_smiles>  (4) 
[NH2:1][CH2:2][N:3]

>  <level_of_theory>  (4) 
wb97xd/def2tzvp

>  <lot_method>  (4) 
wb97xd

>  <lot_basis>  (4) 
def2tzvp

>  <spin_multiplicity>  (4) 
3.0

>  <optical_isomers>  (4) 
1.0

>  <modes>  (4) 
IdealGasTranslation(mass=(40.0061, 'amu')),         LinearRotor(inertia=(41.8023, 'amu*angstrom^2'), symmetry=2),         HarmonicOscillator(frequencies=([455.014, 455.014, 1290.65, 1503.64

>  <frequency_value>  (4) 
unknown

>  <frequency_units>  (4) 
unknown

>  <frequency_list>  (4) 
unknown

>  <arkane_path>  (4) 
/home/calvin/Dropbox/PersonalFolders/Calvin/HAb_Converged/rxn_62/output/Species/rxn_62_[N]=C=[N]/arkane/output.py

>  <path_exists>  (4) 
True

>  <E0_value>  (4) 
-387204.8735504053

>  <E0_units>  (4) 
kJ/mol

>  <thermo_class>  (4) 
NASA

>  <Cp0_value>  (4) 
29.100652

>  <Cp0_units>  (4) 
J/(mol*K)

>  <CpInf_value>  (4) 
62.358540000000005

>  <CpInf_units>  (4) 
J/(mol*K)

>  <Tmin_value>  (4) 
10.0

>  <Tmin_units>  (4) 
K

>  <Tmax_value>  (4) 
3000.0

>  <Tmax_units>  (4) 
K

>  <polynomials>  (4) 
[{"name": "polynomial1", "class": "NASAPolynomial", "Tmin_value": 10.0, "Tmin_units": "K", "Tmax_value": 488.6017606953712, "Tmax_units": "K", "coeffs": [3.5075719254411526, -0.0016328539110311794, 4.598375972593302e-05, -1.0087860360580896e-07, 6.901308283710532e-11, -46569988.71251437, 6.297033104837899]}, {"name": "polynomial2", "class": "NASAPolynomial", "Tmin_value": 488.6017606953712, "Tmin_units": "K", "Tmax_value": 3000.0, "Tmax_units": "K", "coeffs": [3.373401802517649, 0.007266018202344169, -5.282971955509473e-06, 1.7462972141148447e-09, -2.1483989717915183e-13, -46570068.712345794, 5.895401717001685]}]

>  <H298_value>  (4) 
-92541.7759489445

>  <H298_units>  (4) 
kcal/mol

>  <S298_value>  (4) 
53.81627556693727

>  <S298_units>  (4) 
cal/(mol*K)

>  <Cp_T_value_list>  (4) 
[9.91921636809275, 10.974022411086937, 11.705694687132313, 12.28192931716325, 13.137859491642185, 13.687690321857465, 14.291727488080053, 14.51950391689613, 14.6951288485641]

>  <Cp_T_units>  (4) 
cal/(mol*K)

>  <T_list>  (4) 
[300.0, 400.0, 500.0, 600.0, 800.0, 1000.0, 1500.0, 2000.0, 2400.0]

>  <T_units>  (4) 
K

>  <yaml_path>  (4) 
/home/calvin/Dropbox/PersonalFolders/Calvin/HAb_Converged/rxn_62/output/Species/rxn_62_[N]=C=[N]/rxn_62_N=C=N.yml

>  <frequencies_cm1>  (4) 
[449.55406095911997, 449.55406095911997, 1275.1648389974, 1485.5967371434797]

>  <ZPE_kJmol>  (4) 
21.89088842109195

>  <E_elec_kJmol>  (4) 
-387226.7644388264

>  <E0_minus_Eelec_plus_ZPE_kJmol>  (4) 
0.0

>  <rxn>  (4) 
rxn_62

>  <species_type>  (4) 
p1

>  <species_folder>  (4) 
rxn_62_[N]=C=[N]

>  <frequencies_cm1_list>  (4) 
[449.55406095911997, 449.55406095911997, 1275.1648389974, 1485.5967371434797]

>  <E0_kJmol>  (4) 
-387205

>  <H298_kJmol>  (4) 
-387195

$$$$

     RDKit          3D

  2  1  0  0  0  0  0  0  0  0999 V2000
    0.0000    0.0000    0.5973 O   0  0  0  0  0  1  0  0  0  1  0  0
    0.0000    0.0000   -0.5973 O   0  0  0  0  0  1  0  0  0  2  0  0
  1  2  1  0
M  RAD  2   1   2   2   2
M  END
>  <rmg_smiles>  (5) 
[O][O]

>  <rmg_adjacency_list>  (5) 
multiplicity 3
1 O u1 p2 c0 {2,S}
2 O u1 p2 c0 {1,S}


>  <multiplicity>  (5) 
3

>  <reaction>  (5) 
rxn_62

>  <type>  (5) 
r2

>  <role_mapnums>  (5) 
{}

>  <role_mapidx>  (5) 
{}

>  <ordered_mapped_smiles>  (5) 
[O:1][O:2]

>  <level_of_theory>  (5) 
wb97xd/def2tzvp

>  <lot_method>  (5) 
wb97xd

>  <lot_basis>  (5) 
def2tzvp

>  <spin_multiplicity>  (5) 
3.0

>  <optical_isomers>  (5) 
1.0

>  <modes>  (5) 
IdealGasTranslation(mass=(31.9898, 'amu')),         LinearRotor(inertia=(11.4119, 'amu*angstrom^2'), symmetry=2),         HarmonicOscillator(frequencies=([1715.95

>  <frequency_value>  (5) 
unknown

>  <frequency_units>  (5) 
unknown

>  <frequency_list>  (5) 
unknown

>  <arkane_path>  (5) 
/home/calvin/Dropbox/PersonalFolders/Calvin/HAb_Converged/rxn_62/output/Species/rxn_62_[O][O]/arkane/output.py

>  <path_exists>  (5) 
True

>  <E0_value>  (5) 
-394707.785445246

>  <E0_units>  (5) 
kJ/mol

>  <thermo_class>  (5) 
NASA

>  <Cp0_value>  (5) 
29.100652

>  <Cp0_units>  (5) 
J/(mol*K)

>  <CpInf_value>  (5) 
37.415124

>  <CpInf_units>  (5) 
J/(mol*K)

>  <Tmin_value>  (5) 
10.0

>  <Tmin_units>  (5) 
K

>  <Tmax_value>  (5) 
3000.0

>  <Tmax_units>  (5) 
K

>  <polynomials>  (5) 
[{"name": "polynomial1", "class": "NASAPolynomial", "Tmin_value": 10.0, "Tmin_units": "K", "Tmax_value": 623.0798027865276, "Tmax_units": "K", "coeffs": [3.507170715243785, -0.00042040981261919113, 1.3186988140645785e-06, 1.587994129726863e-09, -2.130542754320979e-12, -47472381.67853303, 4.703411575139908]}, {"name": "polynomial2", "class": "NASAPolynomial", "Tmin_value": 623.0798027865276, "Tmin_units": "K", "Tmax_value": 3000.0, "Tmax_units": "K", "coeffs": [2.875557627813404, 0.0021104336955040984, -1.1053221969674845e-06, 2.5622119401763216e-10, -2.1207566108794075e-14, -47472273.38766128, 7.689159389114582]}]

>  <H298_value>  (5) 
-94335.358332164

>  <H298_units>  (5) 
kcal/mol

>  <S298_value>  (5) 
48.93927096892352

>  <S298_units>  (5) 
cal/(mol*K)

>  <Cp_T_value_list>  (5) 
[7.005596669365529, 7.148157314362681, 7.336728359483977, 7.544518491428779, 7.907088726383966, 8.178711525135789, 8.56807224756712, 8.715062476712957, 8.768207448844711]

>  <Cp_T_units>  (5) 
cal/(mol*K)

>  <T_list>  (5) 
[300.0, 400.0, 500.0, 600.0, 800.0, 1000.0, 1500.0, 2000.0, 2400.0]

>  <T_units>  (5) 
K

>  <yaml_path>  (5) 
/home/calvin/Dropbox/PersonalFolders/Calvin/HAb_Converged/rxn_62/output/Species/rxn_62_[O][O]/rxn_62_OO.yml

>  <frequencies_cm1>  (5) 
[1695.3556707281998]

>  <ZPE_kJmol>  (5) 
10.140481733996705

>  <E_elec_kJmol>  (5) 
-394717.92592698

>  <E0_minus_Eelec_plus_ZPE_kJmol>  (5) 
0.0

>  <rxn>  (5) 
rxn_62

>  <species_type>  (5) 
r0

>  <species_folder>  (5) 
rxn_62_[O][O]

>  <frequencies_cm1_list>  (5) 
[1695.3556707281998]

>  <E0_kJmol>  (5) 
-394708

>  <H298_kJmol>  (5) 
-394699

$$$$
