
     RDKit          3D

  7  6  0  0  0  0  0  0  0  0999 V2000
   -0.9058   -0.0832   -1.0005 C   0  0  0  0  0  2  0  0  0  1  0  0
   -0.0891   -0.0365   -0.1209 C   0  0  0  0  0  2  0  0  0  2  0  0
    0.8566    0.0763    0.9444 C   0  0  0  0  0  0  0  0  0  3  0  0
   -1.6217   -0.1403   -1.7844 H   0  0  0  0  0  0  0  0  0  4  0  0
    0.6591    1.0034    1.4790 H   0  0  0  0  0  0  0  0  0  5  0  0
    1.8872    0.1800    0.6105 H   0  0  0  0  0  0  0  0  0  6  0  0
    0.7561   -0.6934    1.7071 H   0  0  0  0  0  0  0  0  0  7  0  0
  1  4  1  0
  1  2  1  0
  2  3  1  0
  3  6  1  0
  3  7  1  0
  3  5  1  0
M  RAD  2   1   3   2   3
M  END
>  <rmg_smiles>  (1) 
[CH][C]C

>  <rmg_adjacency_list>  (1) 
1 C u0 p0 c0 {2,S} {4,S} {5,S} {6,S}
2 C u0 p1 c0 {1,S} {3,S}
3 C u0 p1 c0 {2,S} {7,S}
4 H u0 p0 c0 {1,S}
5 H u0 p0 c0 {1,S}
6 H u0 p0 c0 {1,S}
7 H u0 p0 c0 {3,S}


>  <multiplicity>  (1) 
1

>  <reaction>  (1) 
rxn_1214

>  <type>  (1) 
r1h

>  <role_mapnums>  (1) 
{"r1h_a": 3, "r1h_h": 5}

>  <role_mapidx>  (1) 
{"r1h_a": 2, "r1h_h": 4}

>  <ordered_mapped_smiles>  (1) 
[C:1]([C:2][C:3]([H:5])([H:6])[H:7])[H:4]

>  <mol_properties>  (1) 
{"2": {"label": "donator", "atom_type": "Cs"}, "4": {"label": "d_hydrogen", "atom_type": "H0"}}

>  <level_of_theory>  (1) 
wb97xd/def2tzvp

>  <lot_method>  (1) 
wb97xd

>  <lot_basis>  (1) 
def2tzvp

>  <spin_multiplicity>  (1) 
1.0

>  <optical_isomers>  (1) 
1.0

>  <modes>  (1) 
IdealGasTranslation(mass=(40.0313, 'amu')),         NonlinearRotor(             inertia = ([3.14896, 58.5627, 58.5628

>  <frequency_value>  (1) 
unknown

>  <frequency_units>  (1) 
unknown

>  <frequency_list>  (1) 
unknown

>  <arkane_path>  (1) 
/home/calvin/Dropbox/PersonalFolders/Calvin/HAb_Converged/rxn_1214/output/Species/rxn_1214_CtCC/arkane/output.py

>  <path_exists>  (1) 
True

>  <E0_value>  (1) 
-306134.23771519226

>  <E0_units>  (1) 
kJ/mol

>  <thermo_class>  (1) 
NASA

>  <Cp0_value>  (1) 
33.257888

>  <Cp0_units>  (1) 
J/(mol*K)

>  <CpInf_value>  (1) 
157.97496800000002

>  <CpInf_units>  (1) 
J/(mol*K)

>  <Tmin_value>  (1) 
10.0

>  <Tmin_units>  (1) 
K

>  <Tmax_value>  (1) 
3000.0

>  <Tmax_units>  (1) 
K

>  <polynomials>  (1) 
[{"name": "polynomial1", "class": "NASAPolynomial", "Tmin_value": 10.0, "Tmin_units": "K", "Tmax_value": 432.7570457536586, "Tmax_units": "K", "coeffs": [3.9797872721783007, 0.0012495811779551272, 5.6294196303513694e-05, -1.0182025216581548e-07, 6.043505350989284e-11, -36819443.321551986, 4.877022759632036]}, {"name": "polynomial2", "class": "NASAPolynomial", "Tmin_value": 432.7570457536586, "Tmin_units": "K", "Tmax_value": 3000.0, "Tmax_units": "K", "coeffs": [1.8482488679261548, 0.020955787311649748, -1.2025217015703147e-05, 3.449280939574018e-09, -3.914023780269935e-13, -36819258.87384146, 13.374670545299223]}]

>  <H298_value>  (1) 
-73164.72574977479

>  <H298_units>  (1) 
kcal/mol

>  <S298_value>  (1) 
58.90709306772092

>  <S298_units>  (1) 
cal/(mol*K)

>  <Cp_T_value_list>  (1) 
[14.231411982223385, 16.92569828262598, 19.32863505161705, 21.43592113918368, 24.884700514699873, 27.496375671717598, 31.566855118352027, 33.76415845868588, 34.923080757091356]

>  <Cp_T_units>  (1) 
cal/(mol*K)

>  <T_list>  (1) 
[300.0, 400.0, 500.0, 600.0, 800.0, 1000.0, 1500.0, 2000.0, 2400.0]

>  <T_units>  (1) 
K

>  <yaml_path>  (1) 
/home/calvin/Dropbox/PersonalFolders/Calvin/HAb_Converged/rxn_1214/output/Species/rxn_1214_CtCC/rxn_1214_CtCC.yml

>  <frequencies_cm1>  (1) 
[351.89179573808, 352.26261294536, 684.0272747105199, 684.34315603524, 939.24565111364, 1048.18350623012, 1048.35518086312, 1402.57488462468, 1465.46960317056, 1465.7648835393202, 2230.0054137727598, 3022.8812727906, 3095.33483490192, 3095.7125190945194, 3438.9862482559997]

>  <ZPE_kJmol>  (1) 
145.49608455161717

>  <E_elec_kJmol>  (1) 
-306279.7337997439

>  <E0_minus_Eelec_plus_ZPE_kJmol>  (1) 
0.0

>  <rxn>  (1) 
rxn_1214

>  <species_type>  (1) 
r0

>  <species_folder>  (1) 
rxn_1214_CtCC

>  <frequencies_cm1_list>  (1) 
[351.89179573808, 352.26261294536, 684.0272747105199, 684.34315603524, 939.24565111364, 1048.18350623012, 1048.35518086312, 1402.57488462468, 1465.46960317056, 1465.7648835393202, 2230.0054137727598, 3022.8812727906, 3095.33483490192, 3095.7125190945194, 3438.9862482559997]

>  <E0_kJmol>  (1) 
-306134

>  <H298_kJmol>  (1) 
-306121

$$$$

     RDKit          3D

  5  4  0  0  0  0  0  0  0  0999 V2000
    0.1963   -0.8913   -0.5074 H   0  0  0  0  0  0  0  0  0  1  0  0
   -0.0068    0.0346    0.0206 C   0  0  0  0  0  0  0  0  0  2  0  0
    0.7348    0.0683    0.8121 H   0  0  0  0  0  0  0  0  0  3  0  0
   -1.0287   -0.0976    0.3604 H   0  0  0  0  0  0  0  0  0  4  0  0
    0.1173    0.7873   -0.7509 H   0  0  0  0  0  0  0  0  0  5  0  0
  1  2  1  0
  2  5  1  0
  2  3  1  0
  2  4  1  0
M  END
>  <rmg_smiles>  (2) 
C

>  <rmg_adjacency_list>  (2) 
1 H u0 p0 c0 {2,S}
2 C u0 p0 c0 {1,S} {3,S} {4,S} {5,S}
3 H u0 p0 c0 {2,S}
4 H u0 p0 c0 {2,S}
5 H u0 p0 c0 {2,S}


>  <multiplicity>  (2) 
1

>  <reaction>  (2) 
rxn_1214

>  <type>  (2) 
r2h

>  <role_mapnums>  (2) 
{"r2h_a": 2, "r2h_h": 1}

>  <role_mapidx>  (2) 
{"r2h_a": 1, "r2h_h": 0}

>  <ordered_mapped_smiles>  (2) 
[H:1][C:2]([H:3])([H:4])[H:5]

>  <mol_properties>  (2) 
{"0": {"label": "a_hydrogen", "atom_type": "H0"}, "1": {"label": "acceptor", "atom_type": "Cs"}}

>  <level_of_theory>  (2) 
wb97xd/def2tzvp

>  <lot_method>  (2) 
wb97xd

>  <lot_basis>  (2) 
def2tzvp

>  <spin_multiplicity>  (2) 
1.0

>  <optical_isomers>  (2) 
1.0

>  <modes>  (2) 
IdealGasTranslation(mass=(16.0313, 'amu')),         NonlinearRotor(             inertia = ([3.18679, 3.18679, 3.18679

>  <frequency_value>  (2) 
unknown

>  <frequency_units>  (2) 
unknown

>  <frequency_list>  (2) 
unknown

>  <arkane_path>  (2) 
/home/calvin/Dropbox/PersonalFolders/Calvin/HAb_Converged/rxn_1214/output/Species/rxn_1214_C/arkane/output.py

>  <path_exists>  (2) 
True

>  <E0_value>  (2) 
-106268.5262916272

>  <E0_units>  (2) 
kJ/mol

>  <thermo_class>  (2) 
NASA

>  <Cp0_value>  (2) 
33.257888

>  <Cp0_units>  (2) 
J/(mol*K)

>  <CpInf_value>  (2) 
108.088136

>  <CpInf_units>  (2) 
J/(mol*K)

>  <Tmin_value>  (2) 
10.0

>  <Tmin_units>  (2) 
K

>  <Tmax_value>  (2) 
3000.0

>  <Tmax_units>  (2) 
K

>  <polynomials>  (2) 
[{"name": "polynomial1", "class": "NASAPolynomial", "Tmin_value": 10.0, "Tmin_units": "K", "Tmax_value": 616.7595780986624, "Tmax_units": "K", "coeffs": [4.041420799946622, -0.002477807655966685, 1.1290457802459216e-05, 3.700688819348292e-09, -9.366412561864162e-12, -12781153.318458663, -0.42637433538586406]}, {"name": "polynomial2", "class": "NASAPolynomial", "Tmin_value": 616.7595780986624, "Tmin_units": "K", "Tmax_value": 3000.0, "Tmax_units": "K", "coeffs": [0.6800320423470843, 0.011684066325645743, -4.5749540261290126e-06, 7.694671628924811e-10, -3.8768177461555664e-14, -12780593.404419335, 15.343675764562182]}]

>  <H298_value>  (2) 
-25396.41264990868

>  <H298_units>  (2) 
kcal/mol

>  <S298_value>  (2) 
44.46392088520575

>  <S298_units>  (2) 
cal/(mol*K)

>  <Cp_T_value_list>  (2) 
[8.621039065772948, 9.645572285350525, 10.934239595808906, 12.330144838344452, 14.859142397339834, 16.9306880471269, 20.49440393107996, 22.423230884533538, 23.291918246513866]

>  <Cp_T_units>  (2) 
cal/(mol*K)

>  <T_list>  (2) 
[300.0, 400.0, 500.0, 600.0, 800.0, 1000.0, 1500.0, 2000.0, 2400.0]

>  <T_units>  (2) 
K

>  <yaml_path>  (2) 
/home/calvin/Dropbox/PersonalFolders/Calvin/HAb_Converged/rxn_1214/output/Species/rxn_1214_C/rxn_1214_C.yml

>  <frequencies_cm1>  (2) 
[1326.5504901469599, 1326.5504901469599, 1326.5504901469599, 1542.24249904816, 1542.24249904816, 3008.8382878112, 3127.32125252248, 3127.32125252248, 3127.32125252248]

>  <ZPE_kJmol>  (2) 
116.36640738144024

>  <E_elec_kJmol>  (2) 
-106384.89269900863

>  <E0_minus_Eelec_plus_ZPE_kJmol>  (2) 
0.0

>  <rxn>  (2) 
rxn_1214

>  <species_type>  (2) 
p0

>  <species_folder>  (2) 
rxn_1214_C

>  <frequencies_cm1_list>  (2) 
[1326.5504901469599, 1326.5504901469599, 1326.5504901469599, 1542.24249904816, 1542.24249904816, 3008.8382878112, 3127.32125252248, 3127.32125252248, 3127.32125252248]

>  <E0_kJmol>  (2) 
-106269

>  <H298_kJmol>  (2) 
-106259

$$$$

     RDKit          3D

 11  9  0  0  0  0  0  0  0  0999 V2000
   -1.1234   -0.7686   -1.5322 C   0  0  0  0  0  0  0  0  0  1  0  0
   -0.3067   -0.7218   -0.6526 C   0  0  0  0  0  0  0  0  0  2  0  0
    0.6390   -0.6090    0.4126 C   0  0  0  0  0  0  0  0  0  3  0  0
   -1.8393   -0.8256   -2.3161 H   0  0  0  0  0  0  0  0  0  4  0  0
    0.4060    0.4844    1.0432 H   0  0  0  0  0  0  0  0  0  5  0  0
    1.6696   -0.5054    0.0788 H   0  0  0  0  0  0  0  0  0  6  0  0
    0.5385   -1.3787    1.1754 H   0  0  0  0  0  0  0  0  0  7  0  0
    0.1417    1.6890    1.7300 C   0  0  0  0  0  3  0  0  0  8  0  0
    0.8833    1.7227    2.5215 H   0  0  0  0  0  0  0  0  0  9  0  0
   -0.8801    1.5568    2.0698 H   0  0  0  0  0  0  0  0  0 10  0  0
    0.2659    2.4418    0.9585 H   0  0  0  0  0  0  0  0  0 11  0  0
  1  4  1  0
  1  2  1  0
  2  3  1  0
  3  6  1  0
  3  7  1  0
  3  5  1  0
  8 11  1  0
  8  9  1  0
  8 10  1  0
M  RAD  1   8   2
M  END
>  <rmg_smiles>  (3) 
[CH3].[CH]CC

>  <rmg_adjacency_list>  (3) 
multiplicity 2
1  C u0 p0 c0 {3,S} {5,S} {6,S} {7,S}
2  C u1 p0 c0 {8,S} {9,S} {10,S}
3  C u0 p1 c0 {1,S} {4,S}
4  C u0 p1 c0 {3,S} {11,S}
5  H u0 p0 c0 {1,S}
6  H u0 p0 c0 {1,S}
7  H u0 p0 c0 {1,S}
8  H u0 p0 c0 {2,S}
9  H u0 p0 c0 {2,S}
10 H u0 p0 c0 {2,S}
11 H u0 p0 c0 {4,S}


>  <multiplicity>  (3) 
2

>  <reaction>  (3) 
rxn_1214

>  <type>  (3) 
ts

>  <role_mapnums>  (3) 
{"*2": 5, "*1": 3, "*3": 8, "*0": 2, "*4": 9}

>  <role_mapidx>  (3) 
{"*2": 4, "*1": 2, "*3": 7, "*0": 1, "*4": 8}

>  <ordered_mapped_smiles>  (3) 
[CH2:1]([CH2:2][C:3]([H:5])([H:6])[H:7])[H:4].[C:8]([H:9])([H:10])[H:11]

>  <mol_properties>  (3) 
{"1": {"label": "*0", "atom_type": "C2s"}, "2": {"label": "*1", "atom_type": "Cs"}, "4": {"label": "*2", "atom_type": "H0"}, "7": {"label": "*3", "atom_type": "Cs"}, "8": {"label": "*4", "atom_type": "H0"}}

>  <level_of_theory>  (3) 
wb97xd/def2tzvp

>  <lot_method>  (3) 
wb97xd

>  <lot_basis>  (3) 
def2tzvp

>  <spin_multiplicity>  (3) 
2.0

>  <optical_isomers>  (3) 
1.0

>  <modes>  (3) 
IdealGasTranslation(mass=(55.0548, 'amu')),         NonlinearRotor(             inertia = ([33.2928, 155.782, 182.447

>  <frequency_value>  (3) 
-1682.39

>  <frequency_units>  (3) 
cm^-1

>  <frequency_list>  (3) 
unknown

>  <arkane_path>  (3) 
/home/calvin/Dropbox/PersonalFolders/Calvin/HAb_Converged/rxn_1214/output/rxns/TS0/arkane/output.py

>  <path_exists>  (3) 
True

>  <E0_value>  (3) 
-410614.0

>  <E0_units>  (3) 
kJ/mol

>  <thermo_class>  (3) 
unknown

>  <Cp0_value>  (3) 
unknown

>  <Cp0_units>  (3) 
unknown

>  <CpInf_value>  (3) 
unknown

>  <CpInf_units>  (3) 
unknown

>  <Tmin_value>  (3) 
unknown

>  <Tmin_units>  (3) 
unknown

>  <Tmax_value>  (3) 
unknown

>  <Tmax_units>  (3) 
unknown

>  <polynomials>  (3) 
unknown

>  <H298_value>  (3) 
unknown

>  <H298_units>  (3) 
unknown

>  <S298_value>  (3) 
unknown

>  <S298_units>  (3) 
unknown

>  <Cp_T_value_list>  (3) 
unknown

>  <Cp_T_units>  (3) 
unknown

>  <T_list>  (3) 
unknown

>  <T_units>  (3) 
unknown

>  <yaml_path>  (3) 
unknown

>  <frequencies_cm1>  (3) 
unknown

>  <ZPE_kJmol>  (3) 
unknown

>  <E_elec_kJmol>  (3) 
unknown

>  <E0_minus_Eelec_plus_ZPE_kJmol>  (3) 
unknown

>  <rxn>  (3) 
unknown

>  <species_type>  (3) 
unknown

>  <species_folder>  (3) 
unknown

>  <frequencies_cm1_list>  (3) 
[]

>  <ts_imag_freq_cm1>  (3) 
-1702.826

>  <ts_freq_out_path>  (3) 
/home/calvin/Dropbox/PersonalFolders/Calvin/HAb_Converged/rxn_1214/output/rxns/TS0/geometry/freq.out

>  <E0_kJmol>  (3) 
-410614

>  <H298_kJmol>  (3) 
unknown

$$$$

     RDKit          3D

  6  5  0  0  0  0  0  0  0  0999 V2000
    1.4968   -0.0097    0.1113 C   0  0  0  0  0  0  0  0  0  1  0  0
    0.2829   -0.0018    0.0210 C   0  0  0  0  0  0  0  0  0  2  0  0
   -1.0795    0.0070   -0.0803 C   0  0  0  0  0  3  0  0  0  3  0  0
    2.5571   -0.0165    0.1902 H   0  0  0  0  0  0  0  0  0  4  0  0
   -1.6181    0.9389   -0.1832 H   0  0  0  0  0  0  0  0  0  5  0  0
   -1.6393   -0.9179   -0.0591 H   0  0  0  0  0  0  0  0  0  6  0  0
  1  4  1  0
  1  2  1  0
  2  3  1  0
  3  6  1  0
  3  5  1  0
M  RAD  1   3   2
M  END
>  <rmg_smiles>  (4) 
[CH]C[CH2]

>  <rmg_adjacency_list>  (4) 
multiplicity 2
1 C u1 p0 c0 {2,S} {4,S} {5,S}
2 C u0 p1 c0 {1,S} {3,S}
3 C u0 p1 c0 {2,S} {6,S}
4 H u0 p0 c0 {1,S}
5 H u0 p0 c0 {1,S}
6 H u0 p0 c0 {3,S}


>  <multiplicity>  (4) 
2

>  <reaction>  (4) 
rxn_1214

>  <type>  (4) 
r1

>  <role_mapnums>  (4) 
{}

>  <role_mapidx>  (4) 
{}

>  <ordered_mapped_smiles>  (4) 
[CH2:1]([CH2:2][C:3]([H:5])[H:6])[H:4]

>  <level_of_theory>  (4) 
wb97xd/def2tzvp

>  <lot_method>  (4) 
wb97xd

>  <lot_basis>  (4) 
def2tzvp

>  <spin_multiplicity>  (4) 
2.0

>  <optical_isomers>  (4) 
1.0

>  <modes>  (4) 
IdealGasTranslation(mass=(39.0235, 'amu')),         NonlinearRotor(             inertia = ([1.74527, 52.5377, 54.2829

>  <frequency_value>  (4) 
unknown

>  <frequency_units>  (4) 
unknown

>  <frequency_list>  (4) 
unknown

>  <arkane_path>  (4) 
/home/calvin/Dropbox/PersonalFolders/Calvin/HAb_Converged/rxn_1214/output/Species/rxn_1214_CtC[CH2]/arkane/output.py

>  <path_exists>  (4) 
True

>  <E0_value>  (4) 
-304448.46556643327

>  <E0_units>  (4) 
kJ/mol

>  <thermo_class>  (4) 
NASA

>  <Cp0_value>  (4) 
33.257888

>  <Cp0_units>  (4) 
J/(mol*K)

>  <CpInf_value>  (4) 
133.031552

>  <CpInf_units>  (4) 
J/(mol*K)

>  <Tmin_value>  (4) 
10.0

>  <Tmin_units>  (4) 
K

>  <Tmax_value>  (4) 
3000.0

>  <Tmax_units>  (4) 
K

>  <polynomials>  (4) 
[{"name": "polynomial1", "class": "NASAPolynomial", "Tmin_value": 10.0, "Tmin_units": "K", "Tmax_value": 545.4322858033976, "Tmax_units": "K", "coeffs": [3.9499603218219184, 0.003017565134064686, 5.5663880593738125e-05, -1.145891938777454e-07, 7.087527216200762e-11, -36616690.41912999, 5.464661756584002]}, {"name": "polynomial2", "class": "NASAPolynomial", "Tmin_value": 545.4322858033976, "Tmin_units": "K", "Tmax_value": 3000.0, "Tmax_units": "K", "coeffs": [3.789373911177466, 0.015460066047789113, -9.533910331026645e-06, 2.9656464623318287e-09, -3.6191150968379614e-13, -36616840.46347278, 4.606005615672744]}]

>  <H298_value>  (4) 
-72761.72685205255

>  <H298_units>  (4) 
kcal/mol

>  <S298_value>  (4) 
60.54560432912815

>  <S298_units>  (4) 
cal/(mol*K)

>  <Cp_T_value_list>  (4) 
[14.596350865656005, 16.978505208172123, 18.840244425047544, 20.322925848209742, 22.70561515204646, 24.480922661541676, 27.23477345925829, 28.831290583038445, 29.744408163505042]

>  <Cp_T_units>  (4) 
cal/(mol*K)

>  <T_list>  (4) 
[300.0, 400.0, 500.0, 600.0, 800.0, 1000.0, 1500.0, 2000.0, 2400.0]

>  <T_units>  (4) 
K

>  <yaml_path>  (4) 
/home/calvin/Dropbox/PersonalFolders/Calvin/HAb_Converged/rxn_1214/output/Species/rxn_1214_CtC[CH2]/rxn_1214_CtCCH2.yml

>  <frequencies_cm1>  (4) 
[355.94331707688, 407.51437683008004, 504.51054447508, 653.44172209524, 683.5053838262, 1024.2589293752399, 1075.37676809732, 1445.76135530216, 1997.3313501752, 3133.58394313432, 3230.4359040876, 3427.03082681388]

>  <ZPE_kJmol>  (4) 
107.29725110288972

>  <E_elec_kJmol>  (4) 
-304555.76281753613

>  <E0_minus_Eelec_plus_ZPE_kJmol>  (4) 
0.0

>  <rxn>  (4) 
rxn_1214

>  <species_type>  (4) 
p1

>  <species_folder>  (4) 
rxn_1214_CtC[CH2]

>  <frequencies_cm1_list>  (4) 
[355.94331707688, 407.51437683008004, 504.51054447508, 653.44172209524, 683.5053838262, 1024.2589293752399, 1075.37676809732, 1445.76135530216, 1997.3313501752, 3133.58394313432, 3230.4359040876, 3427.03082681388]

>  <E0_kJmol>  (4) 
-304448

>  <H298_kJmol>  (4) 
-304435

$$$$

     RDKit          3D

  4  3  0  0  0  0  0  0  0  0999 V2000
    0.0000    0.0000    0.0000 C   0  0  0  0  0  3  0  0  0  1  0  0
    1.0638   -0.1747    0.0540 H   0  0  0  0  0  0  0  0  0  2  0  0
   -0.6833   -0.8351   -0.0280 H   0  0  0  0  0  0  0  0  0  3  0  0
   -0.3805    1.0098   -0.0260 H   0  0  0  0  0  0  0  0  0  4  0  0
  1  3  1  0
  1  4  1  0
  1  2  1  0
M  RAD  1   1   2
M  END
>  <rmg_smiles>  (5) 
[CH3]

>  <rmg_adjacency_list>  (5) 
multiplicity 2
1 C u1 p0 c0 {2,S} {3,S} {4,S}
2 H u0 p0 c0 {1,S}
3 H u0 p0 c0 {1,S}
4 H u0 p0 c0 {1,S}


>  <multiplicity>  (5) 
2

>  <reaction>  (5) 
rxn_1214

>  <type>  (5) 
r2

>  <role_mapnums>  (5) 
{}

>  <role_mapidx>  (5) 
{}

>  <ordered_mapped_smiles>  (5) 
[C:1]([H:2])([H:3])[H:4]

>  <level_of_theory>  (5) 
wb97xd/def2tzvp

>  <lot_method>  (5) 
wb97xd

>  <lot_basis>  (5) 
def2tzvp

>  <spin_multiplicity>  (5) 
2.0

>  <optical_isomers>  (5) 
1.0

>  <modes>  (5) 
IdealGasTranslation(mass=(15.0235, 'amu')),         NonlinearRotor(             inertia = ([1.76141, 1.76141, 3.52282

>  <frequency_value>  (5) 
unknown

>  <frequency_units>  (5) 
unknown

>  <frequency_list>  (5) 
unknown

>  <arkane_path>  (5) 
/home/calvin/Dropbox/PersonalFolders/Calvin/HAb_Converged/rxn_1214/output/Species/rxn_1214_[CH3]/arkane/output.py

>  <path_exists>  (5) 
True

>  <E0_value>  (5) 
-104520.13119505512

>  <E0_units>  (5) 
kJ/mol

>  <thermo_class>  (5) 
NASA

>  <Cp0_value>  (5) 
33.257888

>  <Cp0_units>  (5) 
J/(mol*K)

>  <CpInf_value>  (5) 
83.14472

>  <CpInf_units>  (5) 
J/(mol*K)

>  <Tmin_value>  (5) 
10.0

>  <Tmin_units>  (5) 
K

>  <Tmax_value>  (5) 
3000.0

>  <Tmax_units>  (5) 
K

>  <polynomials>  (5) 
[{"name": "polynomial1", "class": "NASAPolynomial", "Tmin_value": 10.0, "Tmin_units": "K", "Tmax_value": 646.6680568167106, "Tmax_units": "K", "coeffs": [3.9912271000461548, 0.0004274218009639198, 9.38132315134313e-06, -1.0944874554220949e-08, 4.263406085556096e-12, -12570867.748368958, 0.20527673099681187]}, {"name": "polynomial2", "class": "NASAPolynomial", "Tmin_value": 646.6680568167106, "Tmin_units": "K", "Tmax_value": 3000.0, "Tmax_units": "K", "coeffs": [3.2488827598675174, 0.0050187516265713635, -1.2675301815554908e-06, 3.215102013021586e-11, 2.0164394281080815e-14, -12570771.728238096, 3.4631324604304954]}]

>  <H298_value>  (5) 
-24978.383291331436

>  <H298_units>  (5) 
kcal/mol

>  <S298_value>  (5) 
46.49953999396709

>  <S298_units>  (5) 
cal/(mol*K)

>  <Cp_T_value_list>  (5) 
[9.345424201068383, 10.07887042200736, 10.827537754048599, 11.552428339520182, 12.871902382304132, 14.014614114932202, 16.167234911840477, 17.479674567657305, 18.096247059343543]

>  <Cp_T_units>  (5) 
cal/(mol*K)

>  <T_list>  (5) 
[300.0, 400.0, 500.0, 600.0, 800.0, 1000.0, 1500.0, 2000.0, 2400.0]

>  <T_units>  (5) 
K

>  <yaml_path>  (5) 
/home/calvin/Dropbox/PersonalFolders/Calvin/HAb_Converged/rxn_1214/output/Species/rxn_1214_[CH3]/rxn_1214_CH3.yml

>  <frequencies_cm1>  (5) 
[520.22220688724, 1393.4280601784399, 1393.43492716376, 3088.8592677451597, 3268.6163424668, 3268.6232094521197]

>  <ZPE_kJmol>  (5) 
77.35764153782172

>  <E_elec_kJmol>  (5) 
-104597.48883659294

>  <E0_minus_Eelec_plus_ZPE_kJmol>  (5) 
0.0

>  <rxn>  (5) 
rxn_1214

>  <species_type>  (5) 
r1

>  <species_folder>  (5) 
rxn_1214_[CH3]

>  <frequencies_cm1_list>  (5) 
[520.22220688724, 1393.4280601784399, 1393.43492716376, 3088.8592677451597, 3268.6163424668, 3268.6232094521197]

>  <E0_kJmol>  (5) 
-104520

>  <H298_kJmol>  (5) 
-104510

$$$$
