
     RDKit          3D

  9  8  0  0  0  0  0  0  0  0999 V2000
   -0.1768    0.3240   -1.2132 C   0  0  0  0  0  0  0  0  0  1  0  0
   -0.1618   -0.4106   -0.1024 C   0  0  0  0  0  0  0  0  0  2  0  0
    0.3275    0.0478    1.2025 C   0  0  0  0  0  0  0  0  0  3  0  0
   -0.5805   -0.0612   -2.1406 H   0  0  0  0  0  0  0  0  0  4  0  0
    0.2223    1.3324   -1.2283 H   0  0  0  0  0  0  0  0  0  5  0  0
   -0.5758   -1.4147   -0.1366 H   0  0  0  0  0  0  0  0  0  6  0  0
   -0.5376    0.3391    1.7965 H   0  0  0  0  0  0  0  0  0  7  0  0
    0.9351    0.9508    1.1619 H   0  0  0  0  0  0  0  0  0  8  0  0
    0.7957   -0.7277    1.8068 H   0  0  0  0  0  0  0  0  0  9  0  0
  1  5  1  0
  1  4  1  0
  1  2  1  0
  2  6  1  0
  2  3  1  0
  3  8  1  0
  3  7  1  0
  3  9  1  0
M  END
>  <rmg_smiles>  (1) 
[CH2][CH]C

>  <rmg_adjacency_list>  (1) 
1 C u0 p0 c0 {2,S} {4,S} {5,S} {6,S}
2 C u0 p0 c0 {1,S} {3,S} {7,S}
3 C u0 p0 c0 {2,S} {8,S} {9,S}
4 H u0 p0 c0 {1,S}
5 H u0 p0 c0 {1,S}
6 H u0 p0 c0 {1,S}
7 H u0 p0 c0 {2,S}
8 H u0 p0 c0 {3,S}
9 H u0 p0 c0 {3,S}


>  <multiplicity>  (1) 
1

>  <reaction>  (1) 
rxn_1014

>  <type>  (1) 
r1h

>  <role_mapnums>  (1) 
{"r1h_a": 3, "r1h_h": 7}

>  <role_mapidx>  (1) 
{"r1h_a": 2, "r1h_h": 6}

>  <ordered_mapped_smiles>  (1) 
[CH:1]([CH:2]([C:3]([H:7])([H:8])[H:9])[H:6])([H:4])[H:5]

>  <mol_properties>  (1) 
{"2": {"label": "donator", "atom_type": "Cs"}, "6": {"label": "d_hydrogen", "atom_type": "H0"}}

>  <level_of_theory>  (1) 
wb97xd/def2tzvp

>  <lot_method>  (1) 
wb97xd

>  <lot_basis>  (1) 
def2tzvp

>  <spin_multiplicity>  (1) 
1.0

>  <optical_isomers>  (1) 
1.0

>  <modes>  (1) 
IdealGasTranslation(mass=(42.047, 'amu')),         NonlinearRotor(             inertia = ([10.7194, 53.9495, 61.5633

>  <frequency_value>  (1) 
unknown

>  <frequency_units>  (1) 
unknown

>  <frequency_list>  (1) 
unknown

>  <arkane_path>  (1) 
/home/calvin/Dropbox/PersonalFolders/Calvin/HAb_Converged/rxn_1014/output/Species/rxn_1014_C=CC/arkane/output.py

>  <path_exists>  (1) 
True

>  <E0_value>  (1) 
-309367.8832800635

>  <E0_units>  (1) 
kJ/mol

>  <thermo_class>  (1) 
NASA

>  <Cp0_value>  (1) 
33.257888

>  <Cp0_units>  (1) 
J/(mol*K)

>  <CpInf_value>  (1) 
207.8618

>  <CpInf_units>  (1) 
J/(mol*K)

>  <Tmin_value>  (1) 
10.0

>  <Tmin_units>  (1) 
K

>  <Tmax_value>  (1) 
3000.0

>  <Tmax_units>  (1) 
K

>  <polynomials>  (1) 
[{"name": "polynomial1", "class": "NASAPolynomial", "Tmin_value": 10.0, "Tmin_units": "K", "Tmax_value": 531.9066404514887, "Tmax_units": "K", "coeffs": [4.0204367106395305, -0.0017312814973888466, 7.469369070858841e-05, -1.103989586823944e-07, 5.357411953540602e-11, -37208361.619619094, 6.984063163619424]}, {"name": "polynomial2", "class": "NASAPolynomial", "Tmin_value": 531.9066404514887, "Tmin_units": "K", "Tmax_value": 3000.0, "Tmax_units": "K", "coeffs": [-0.30746978474152303, 0.03081497539241948, -1.7087881859194207e-05, 4.635359552359225e-09, -4.926745989402899e-13, -37207901.209693715, 25.131571818199003]}]

>  <H298_value>  (1) 
-73937.54315081466

>  <H298_units>  (1) 
kcal/mol

>  <S298_value>  (1) 
63.235428095961645

>  <S298_units>  (1) 
cal/(mol*K)

>  <Cp_T_value_list>  (1) 
[15.255114438428619, 19.0471333221202, 22.6079143488244, 25.768633340780376, 30.96022164704354, 34.89993402421754, 40.97109580318192, 44.05842766532305, 45.61775865339882]

>  <Cp_T_units>  (1) 
cal/(mol*K)

>  <T_list>  (1) 
[300.0, 400.0, 500.0, 600.0, 800.0, 1000.0, 1500.0, 2000.0, 2400.0]

>  <T_units>  (1) 
K

>  <yaml_path>  (1) 
/home/calvin/Dropbox/PersonalFolders/Calvin/HAb_Converged/rxn_1014/output/Species/rxn_1014_C=CC/rxn_1014_C=CC.yml

>  <frequencies_cm1>  (1) 
[200.92112347787997, 429.72220735495995, 590.1693193567598, 925.5460154002399, 944.49202789812, 949.7315376972799, 1024.05291981564, 1068.7501272635197, 1186.76613697304, 1322.2792252779197, 1396.37399688072, 1440.26090006084, 1466.0326959668, 1481.02332492036, 1720.5094379553598, 3007.2932161142003, 3065.80679802592, 3091.5648599612396, 3111.3280437122, 3123.2628641983597, 3201.2855514042]

>  <ZPE_kJmol>  (1) 
207.8343042708976

>  <E_elec_kJmol>  (1) 
-309575.71758433443

>  <E0_minus_Eelec_plus_ZPE_kJmol>  (1) 
0.0

>  <rxn>  (1) 
rxn_1014

>  <species_type>  (1) 
r1

>  <species_folder>  (1) 
rxn_1014_C=CC

>  <frequencies_cm1_list>  (1) 
[200.92112347787997, 429.72220735495995, 590.1693193567598, 925.5460154002399, 944.49202789812, 949.7315376972799, 1024.05291981564, 1068.7501272635197, 1186.76613697304, 1322.2792252779197, 1396.37399688072, 1440.26090006084, 1466.0326959668, 1481.02332492036, 1720.5094379553598, 3007.2932161142003, 3065.80679802592, 3091.5648599612396, 3111.3280437122, 3123.2628641983597, 3201.2855514042]

>  <E0_kJmol>  (1) 
-309368

>  <H298_kJmol>  (1) 
-309355

$$$$

     RDKit          3D

 10  9  0  0  0  0  0  0  0  0999 V2000
   -1.1159   -0.0493   -1.4927 C   0  0  0  0  0  0  0  0  0  1  0  0
   -0.0916   -0.1223   -0.6688 C   0  0  0  0  0  0  0  0  0  2  0  0
    0.0224    0.1355    0.7470 C   0  0  0  0  0  0  0  0  0  3  0  0
    1.1527    0.0474    1.4411 C   0  0  0  0  0  0  0  0  0  4  0  0
   -1.0078   -0.2833   -2.5469 H   0  0  0  0  0  0  0  0  0  5  0  0
   -2.1050    0.2513   -1.1503 H   0  0  0  0  0  0  0  0  0  6  0  0
   -0.8983    0.4210    1.2568 H   0  0  0  0  0  0  0  0  0  7  0  0
    1.1786    0.2545    2.5028 H   0  0  0  0  0  0  0  0  0  8  0  0
    2.0848   -0.2332    0.9653 H   0  0  0  0  0  0  0  0  0  9  0  0
    0.8219   -0.4382   -1.1725 H   0  0  0  0  0  0  0  0  0 10  0  0
  1  5  1  0
  1  6  1  0
  1  2  1  0
  2 10  1  0
  2  3  1  0
  3  4  1  0
  3  7  1  0
  4  8  1  0
  4  9  1  0
M  END
>  <rmg_smiles>  (2) 
[CH2][CH][CH][CH2]

>  <rmg_adjacency_list>  (2) 
1  C u0 p0 c0 {2,S} {3,S} {6,S}
2  C u0 p0 c0 {1,S} {4,S} {5,S}
3  C u0 p0 c0 {1,S} {7,S} {8,S}
4  C u0 p0 c0 {2,S} {9,S} {10,S}
5  H u0 p0 c0 {2,S}
6  H u0 p0 c0 {1,S}
7  H u0 p0 c0 {3,S}
8  H u0 p0 c0 {3,S}
9  H u0 p0 c0 {4,S}
10 H u0 p0 c0 {4,S}


>  <multiplicity>  (2) 
1

>  <reaction>  (2) 
rxn_1014

>  <type>  (2) 
r2h

>  <role_mapnums>  (2) 
{"r2h_a": 2, "r2h_h": 10}

>  <role_mapidx>  (2) 
{"r2h_a": 1, "r2h_h": 9}

>  <ordered_mapped_smiles>  (2) 
[CH:1]([CH:2]([CH:3]([CH:4]([H:8])[H:9])[H:7])[H:10])([H:5])[H:6]

>  <mol_properties>  (2) 
{"1": {"label": "acceptor", "atom_type": "Cs"}, "9": {"label": "a_hydrogen", "atom_type": "H0"}}

>  <level_of_theory>  (2) 
wb97xd/def2tzvp

>  <lot_method>  (2) 
wb97xd

>  <lot_basis>  (2) 
def2tzvp

>  <spin_multiplicity>  (2) 
1.0

>  <optical_isomers>  (2) 
1.0

>  <modes>  (2) 
IdealGasTranslation(mass=(54.047, 'amu')),         NonlinearRotor(             inertia = ([11.9182, 113.061, 124.979

>  <frequency_value>  (2) 
unknown

>  <frequency_units>  (2) 
unknown

>  <frequency_list>  (2) 
unknown

>  <arkane_path>  (2) 
/home/calvin/Dropbox/PersonalFolders/Calvin/HAb_Converged/rxn_1014/output/Species/rxn_1014_C=CC=C/arkane/output.py

>  <path_exists>  (2) 
True

>  <E0_value>  (2) 
-409338.1696024378

>  <E0_units>  (2) 
kJ/mol

>  <thermo_class>  (2) 
NASA

>  <Cp0_value>  (2) 
33.257888

>  <Cp0_units>  (2) 
J/(mol*K)

>  <CpInf_value>  (2) 
232.805216

>  <CpInf_units>  (2) 
J/(mol*K)

>  <Tmin_value>  (2) 
10.0

>  <Tmin_units>  (2) 
K

>  <Tmax_value>  (2) 
3000.0

>  <Tmax_units>  (2) 
K

>  <polynomials>  (2) 
[{"name": "polynomial1", "class": "NASAPolynomial", "Tmin_value": 10.0, "Tmin_units": "K", "Tmax_value": 477.25150837589547, "Tmax_units": "K", "coeffs": [3.9644918263777202, 0.0020596769963902215, 8.674853780374631e-05, -1.450839919461119e-07, 7.838009270341474e-11, -49232008.066253, 7.365433669817705]}, {"name": "polynomial2", "class": "NASAPolynomial", "Tmin_value": 477.25150837589547, "Tmin_units": "K", "Tmax_value": 3000.0, "Tmax_units": "K", "coeffs": [-0.2016346126607574, 0.03684948174336166, -2.2193862153022103e-05, 6.534948821102615e-09, -7.488372760157006e-13, -49231608.95215794, 24.398107945208505]}]

>  <H298_value>  (2) 
-97830.61157155824

>  <H298_units>  (2) 
kcal/mol

>  <S298_value>  (2) 
66.15772377359508

>  <S298_units>  (2) 
cal/(mol*K)

>  <Cp_T_value_list>  (2) 
[18.098233407620363, 22.632858336014493, 26.717409141232952, 30.270647037570512, 35.994368828752485, 40.221251390017414, 46.50234453691136, 49.720054530985024, 51.45868146938158]

>  <Cp_T_units>  (2) 
cal/(mol*K)

>  <T_list>  (2) 
[300.0, 400.0, 500.0, 600.0, 800.0, 1000.0, 1500.0, 2000.0, 2400.0]

>  <T_units>  (2) 
K

>  <yaml_path>  (2) 
/home/calvin/Dropbox/PersonalFolders/Calvin/HAb_Converged/rxn_1014/output/Species/rxn_1014_C=CC=C/rxn_1014_C=CC=C.yml

>  <frequencies_cm1>  (2) 
[162.86429083444, 299.37995899604, 518.85567680856, 535.67292385724, 782.5273121405999, 895.6128263903599, 951.29034336492, 952.5882035904, 1000.9317802431998, 1006.4047675432399, 1052.23502756892, 1221.82209703164, 1311.4568564135998, 1314.3066553213998, 1409.56547568044, 1464.2884816955202, 1663.07397273888, 1726.1678338590398, 3116.4851496875194, 3119.6920318319594, 3127.2663166399198, 3132.3341518060793, 3211.3044829860796, 3211.503625560359]

>  <ZPE_kJmol>  (2) 
222.43148839891296

>  <E_elec_kJmol>  (2) 
-409560.6010908368

>  <E0_minus_Eelec_plus_ZPE_kJmol>  (2) 
0.0

>  <rxn>  (2) 
rxn_1014

>  <species_type>  (2) 
p0

>  <species_folder>  (2) 
rxn_1014_C=CC=C

>  <frequencies_cm1_list>  (2) 
[162.86429083444, 299.37995899604, 518.85567680856, 535.67292385724, 782.5273121405999, 895.6128263903599, 951.29034336492, 952.5882035904, 1000.9317802431998, 1006.4047675432399, 1052.23502756892, 1221.82209703164, 1311.4568564135998, 1314.3066553213998, 1409.56547568044, 1464.2884816955202, 1663.07397273888, 1726.1678338590398, 3116.4851496875194, 3119.6920318319594, 3127.2663166399198, 3132.3341518060793, 3211.3044829860796, 3211.503625560359]

>  <E0_kJmol>  (2) 
-409338

>  <H298_kJmol>  (2) 
-409323

$$$$

     RDKit          3D

 18 16  0  0  0  0  0  0  0  0999 V2000
   -1.8946    0.4034   -0.0881 C   0  0  0  0  0  0  0  0  0  1  0  0
   -0.8704    0.3303    0.7359 C   0  0  0  0  0  3  0  0  0  2  0  0
   -0.7563    0.5882    2.1517 C   0  0  0  0  0  0  0  0  0  3  0  0
    0.3740    0.5001    2.8458 C   0  0  0  0  0  0  0  0  0  4  0  0
   -1.7865    0.1694   -1.1422 H   0  0  0  0  0  0  0  0  0  5  0  0
   -2.8837    0.7040    0.2544 H   0  0  0  0  0  0  0  0  0  6  0  0
   -1.6770    0.8736    2.6614 H   0  0  0  0  0  0  0  0  0  7  0  0
    0.3999    0.7071    3.9074 H   0  0  0  0  0  0  0  0  0  8  0  0
    1.3060    0.2194    2.3700 H   0  0  0  0  0  0  0  0  0  9  0  0
    0.8436   -0.1515   -3.0373 C   0  0  0  0  0  0  0  0  0 10  0  0
    0.8586   -0.8862   -1.9265 C   0  0  0  0  0  0  0  0  0 11  0  0
    1.3479   -0.4277   -0.6216 C   0  0  0  0  0  0  0  0  0 12  0  0
    0.4398   -0.5368   -3.9647 H   0  0  0  0  0  0  0  0  0 13  0  0
    1.2427    0.8569   -3.0524 H   0  0  0  0  0  0  0  0  0 14  0  0
    0.4446   -1.8902   -1.9606 H   0  0  0  0  0  0  0  0  0 15  0  0
    0.3552   -0.0935    0.0600 H   0  0  0  0  0  0  0  0  0 16  0  0
    1.9555    0.4753   -0.6622 H   0  0  0  0  0  0  0  0  0 17  0  0
    1.8161   -1.2032   -0.0173 H   0  0  0  0  0  0  0  0  0 18  0  0
  1  5  1  0
  1  6  1  0
  1  2  1  0
  2  3  1  0
  3  4  1  0
  3  7  1  0
  4  8  1  0
  4  9  1  0
 10 13  1  0
 10 14  1  0
 10 11  1  0
 11 12  1  0
 11 15  1  0
 12 17  1  0
 12 18  1  0
 12 16  1  0
M  RAD  1   2   2
M  END
>  <rmg_smiles>  (3) 
[CH2][CH]C.[CH2][C][CH][CH2]

>  <rmg_adjacency_list>  (3) 
multiplicity 2
1  C u0 p0 c0 {2,S} {8,S} {9,S} {10,S}
2  C u0 p0 c0 {1,S} {4,S} {11,S}
3  C u0 p0 c0 {5,S} {7,S} {12,S}
4  C u0 p0 c0 {2,S} {15,S} {16,S}
5  C u0 p0 c0 {3,S} {13,S} {14,S}
6  C u0 p0 c0 {7,S} {17,S} {18,S}
7  C u1 p1 c0 {3,S} {6,S}
8  H u0 p0 c0 {1,S}
9  H u0 p0 c0 {1,S}
10 H u0 p0 c0 {1,S}
11 H u0 p0 c0 {2,S}
12 H u0 p0 c0 {3,S}
13 H u0 p0 c0 {5,S}
14 H u0 p0 c0 {5,S}
15 H u0 p0 c0 {4,S}
16 H u0 p0 c0 {4,S}
17 H u0 p0 c0 {6,S}
18 H u0 p0 c0 {6,S}


>  <multiplicity>  (3) 
2

>  <reaction>  (3) 
rxn_1014

>  <type>  (3) 
ts

>  <role_mapnums>  (3) 
{"*2": 16, "*1": 12, "*3": 2, "*0": 11, "*4": 3}

>  <role_mapidx>  (3) 
{"*2": 15, "*1": 11, "*3": 1, "*0": 10, "*4": 2}

>  <ordered_mapped_smiles>  (3) 
[CH:1]([CH:2][CH:3]([CH:4]([H:8])[H:9])[H:7])([H:5])[H:6].[CH:10]([CH:11]([C:12]([H:16])([H:17])[H:18])[H:15])([H:13])[H:14]

>  <mol_properties>  (3) 
{"1": {"label": "*3", "atom_type": "C2s"}, "2": {"label": "*4", "atom_type": "Cs"}, "10": {"label": "*0", "atom_type": "Cs"}, "11": {"label": "*1", "atom_type": "Cs"}, "15": {"label": "*2", "atom_type": "H0"}}

>  <level_of_theory>  (3) 
wb97xd/def2tzvp

>  <lot_method>  (3) 
wb97xd

>  <lot_basis>  (3) 
def2tzvp

>  <spin_multiplicity>  (3) 
2.0

>  <optical_isomers>  (3) 
2.0

>  <modes>  (3) 
IdealGasTranslation(mass=(95.0861, 'amu')),         NonlinearRotor(             inertia = ([116.246, 428.669, 523.172

>  <frequency_value>  (3) 
-1462.1

>  <frequency_units>  (3) 
cm^-1

>  <frequency_list>  (3) 
unknown

>  <arkane_path>  (3) 
/home/calvin/Dropbox/PersonalFolders/Calvin/HAb_Converged/rxn_1014/output/rxns/TS0/arkane/output.py

>  <path_exists>  (3) 
True

>  <E0_value>  (3) 
-716924.0

>  <E0_units>  (3) 
kJ/mol

>  <thermo_class>  (3) 
unknown

>  <Cp0_value>  (3) 
unknown

>  <Cp0_units>  (3) 
unknown

>  <CpInf_value>  (3) 
unknown

>  <CpInf_units>  (3) 
unknown

>  <Tmin_value>  (3) 
unknown

>  <Tmin_units>  (3) 
unknown

>  <Tmax_value>  (3) 
unknown

>  <Tmax_units>  (3) 
unknown

>  <polynomials>  (3) 
unknown

>  <H298_value>  (3) 
unknown

>  <H298_units>  (3) 
unknown

>  <S298_value>  (3) 
unknown

>  <S298_units>  (3) 
unknown

>  <Cp_T_value_list>  (3) 
unknown

>  <Cp_T_units>  (3) 
unknown

>  <T_list>  (3) 
unknown

>  <T_units>  (3) 
unknown

>  <yaml_path>  (3) 
unknown

>  <frequencies_cm1>  (3) 
unknown

>  <ZPE_kJmol>  (3) 
unknown

>  <E_elec_kJmol>  (3) 
unknown

>  <E0_minus_Eelec_plus_ZPE_kJmol>  (3) 
unknown

>  <rxn>  (3) 
unknown

>  <species_type>  (3) 
unknown

>  <species_folder>  (3) 
unknown

>  <frequencies_cm1_list>  (3) 
[]

>  <ts_imag_freq_cm1>  (3) 
-1479.8586

>  <ts_freq_out_path>  (3) 
/home/calvin/Dropbox/PersonalFolders/Calvin/HAb_Converged/rxn_1014/output/rxns/TS0/geometry/freq.out

>  <E0_kJmol>  (3) 
-716924

>  <H298_kJmol>  (3) 
unknown

$$$$

     RDKit          3D

  8  7  0  0  0  0  0  0  0  0999 V2000
   -1.2262   -0.1032    0.0429 C   0  0  0  0  0  0  0  0  0  1  0  0
    0.0344    0.4295    0.2005 C   0  0  0  0  0  0  0  0  0  2  0  0
    1.2024   -0.1933   -0.1813 C   0  0  0  0  0  3  0  0  0  3  0  0
   -2.1090    0.4329    0.3624 H   0  0  0  0  0  0  0  0  0  4  0  0
   -1.3659   -1.0784   -0.4078 H   0  0  0  0  0  0  0  0  0  5  0  0
    0.1132    1.4113    0.6589 H   0  0  0  0  0  0  0  0  0  6  0  0
    2.1658    0.2743   -0.0323 H   0  0  0  0  0  0  0  0  0  7  0  0
    1.1853   -1.1731   -0.6434 H   0  0  0  0  0  0  0  0  0  8  0  0
  1  5  1  0
  1  4  1  0
  1  2  1  0
  2  6  1  0
  2  3  1  0
  3  8  1  0
  3  7  1  0
M  RAD  1   3   2
M  END
>  <rmg_smiles>  (4) 
[CH2][CH][CH2]

>  <rmg_adjacency_list>  (4) 
multiplicity 2
1 C u0 p0 c0 {2,S} {3,S} {4,S}
2 C u1 p0 c0 {1,S} {7,S} {8,S}
3 C u0 p0 c0 {1,S} {5,S} {6,S}
4 H u0 p0 c0 {1,S}
5 H u0 p0 c0 {3,S}
6 H u0 p0 c0 {3,S}
7 H u0 p0 c0 {2,S}
8 H u0 p0 c0 {2,S}


>  <multiplicity>  (4) 
2

>  <reaction>  (4) 
rxn_1014

>  <type>  (4) 
r1

>  <role_mapnums>  (4) 
{}

>  <role_mapidx>  (4) 
{}

>  <ordered_mapped_smiles>  (4) 
[CH:1]([CH:2]([C:3]([H:7])[H:8])[H:6])([H:4])[H:5]

>  <level_of_theory>  (4) 
wb97xd/def2tzvp

>  <lot_method>  (4) 
wb97xd

>  <lot_basis>  (4) 
def2tzvp

>  <spin_multiplicity>  (4) 
2.0

>  <optical_isomers>  (4) 
1.0

>  <modes>  (4) 
IdealGasTranslation(mass=(41.0391, 'amu')),         NonlinearRotor(             inertia = ([9.18678, 48.3525, 57.5393

>  <frequency_value>  (4) 
unknown

>  <frequency_units>  (4) 
unknown

>  <frequency_list>  (4) 
unknown

>  <arkane_path>  (4) 
/home/calvin/Dropbox/PersonalFolders/Calvin/HAb_Converged/rxn_1014/output/Species/rxn_1014_[CH2]C=C/arkane/output.py

>  <path_exists>  (4) 
True

>  <E0_value>  (4) 
-307695.8239419476

>  <E0_units>  (4) 
kJ/mol

>  <thermo_class>  (4) 
NASA

>  <Cp0_value>  (4) 
33.257888

>  <Cp0_units>  (4) 
J/(mol*K)

>  <CpInf_value>  (4) 
182.918384

>  <CpInf_units>  (4) 
J/(mol*K)

>  <Tmin_value>  (4) 
10.0

>  <Tmin_units>  (4) 
K

>  <Tmax_value>  (4) 
3000.0

>  <Tmax_units>  (4) 
K

>  <polynomials>  (4) 
[{"name": "polynomial1", "class": "NASAPolynomial", "Tmin_value": 10.0, "Tmin_units": "K", "Tmax_value": 532.7267436952769, "Tmax_units": "K", "coeffs": [4.120476242700736, -0.01110500746607337, 0.00013118962632593044, -2.295122998736072e-07, 1.327617546042694e-10, -37007258.9235638, 6.732627685136077]}, {"name": "polynomial2", "class": "NASAPolynomial", "Tmin_value": 532.7267436952769, "Tmin_units": "K", "Tmax_value": 3000.0, "Tmax_units": "K", "coeffs": [0.911699466954835, 0.027118425571894478, -1.6222639840263127e-05, 4.752540164453407e-09, -5.404199600895895e-13, -37007117.54936121, 18.310519838179516]}]

>  <H298_value>  (4) 
-73538.08078140329

>  <H298_units>  (4) 
kcal/mol

>  <S298_value>  (4) 
61.52456331648896

>  <S298_units>  (4) 
cal/(mol*K)

>  <Cp_T_value_list>  (4) 
[14.853530963099974, 18.637467651362382, 21.80750730434748, 24.44088072021761, 28.68710434193412, 31.834263999492475, 36.54938793194129, 39.012029638884556, 40.38558701326713]

>  <Cp_T_units>  (4) 
cal/(mol*K)

>  <T_list>  (4) 
[300.0, 400.0, 500.0, 600.0, 800.0, 1000.0, 1500.0, 2000.0, 2400.0]

>  <T_units>  (4) 
K

>  <yaml_path>  (4) 
/home/calvin/Dropbox/PersonalFolders/Calvin/HAb_Converged/rxn_1014/output/Species/rxn_1014_[CH2]C=C/rxn_1014_CH2C=C.yml

>  <frequencies_cm1>  (4) 
[432.19432207015996, 530.70122648556, 552.78545127468, 794.8604177753199, 818.87426543936, 934.1091460942799, 1008.91808417036, 1035.1568350780801, 1186.33351689788, 1269.2386306662397, 1410.5886564931197, 1500.8483115392, 1510.5101598844399, 3121.9787379435197, 3123.6542823616, 3129.68349547256, 3223.1843675896794, 3225.69081723148]

>  <ZPE_kJmol>  (4) 
172.31799451557927

>  <E_elec_kJmol>  (4) 
-307868.1419364632

>  <E0_minus_Eelec_plus_ZPE_kJmol>  (4) 
0.0

>  <rxn>  (4) 
rxn_1014

>  <species_type>  (4) 
p1

>  <species_folder>  (4) 
rxn_1014_[CH2]C=C

>  <frequencies_cm1_list>  (4) 
[432.19432207015996, 530.70122648556, 552.78545127468, 794.8604177753199, 818.87426543936, 934.1091460942799, 1008.91808417036, 1035.1568350780801, 1186.33351689788, 1269.2386306662397, 1410.5886564931197, 1500.8483115392, 1510.5101598844399, 3121.9787379435197, 3123.6542823616, 3129.68349547256, 3223.1843675896794, 3225.69081723148]

>  <E0_kJmol>  (4) 
-307696

>  <H298_kJmol>  (4) 
-307683

$$$$

     RDKit          3D

  9  8  0  0  0  0  0  0  0  0999 V2000
    1.8963   -0.1405   -0.2150 C   0  0  0  0  0  0  0  0  0  1  0  0
    0.6340    0.1486   -0.2254 C   0  0  0  0  0  3  0  0  0  2  0  0
   -0.6770    0.4501   -0.2373 C   0  0  0  0  0  0  0  0  0  3  0  0
   -1.6600   -0.2303    0.4662 C   0  0  0  0  0  0  0  0  0  4  0  0
    2.3274   -0.8354   -0.9313 H   0  0  0  0  0  0  0  0  0  5  0  0
    2.5751    0.2988    0.5117 H   0  0  0  0  0  0  0  0  0  6  0  0
   -0.9723    1.2966   -0.8520 H   0  0  0  0  0  0  0  0  0  7  0  0
   -2.6934    0.0777    0.4015 H   0  0  0  0  0  0  0  0  0  8  0  0
   -1.4140   -1.0782    1.0904 H   0  0  0  0  0  0  0  0  0  9  0  0
  1  5  1  0
  1  6  1  0
  1  2  1  0
  2  3  1  0
  3  4  1  0
  3  7  1  0
  4  8  1  0
  4  9  1  0
M  RAD  1   2   2
M  END
>  <rmg_smiles>  (5) 
[CH2][C][CH][CH2]

>  <rmg_adjacency_list>  (5) 
multiplicity 2
1 C u0 p0 c0 {2,S} {4,S} {5,S}
2 C u0 p0 c0 {1,S} {6,S} {7,S}
3 C u0 p0 c0 {4,S} {8,S} {9,S}
4 C u1 p1 c0 {1,S} {3,S}
5 H u0 p0 c0 {1,S}
6 H u0 p0 c0 {2,S}
7 H u0 p0 c0 {2,S}
8 H u0 p0 c0 {3,S}
9 H u0 p0 c0 {3,S}


>  <multiplicity>  (5) 
2

>  <reaction>  (5) 
rxn_1014

>  <type>  (5) 
r2

>  <role_mapnums>  (5) 
{}

>  <role_mapidx>  (5) 
{}

>  <ordered_mapped_smiles>  (5) 
[CH:1]([CH:2][CH:3]([CH:4]([H:8])[H:9])[H:7])([H:5])[H:6]

>  <level_of_theory>  (5) 
wb97xd/def2tzvp

>  <lot_method>  (5) 
wb97xd

>  <lot_basis>  (5) 
def2tzvp

>  <spin_multiplicity>  (5) 
2.0

>  <optical_isomers>  (5) 
1.0

>  <modes>  (5) 
IdealGasTranslation(mass=(53.0391, 'amu')),         NonlinearRotor(             inertia = ([12.0347, 113.266, 121.844

>  <frequency_value>  (5) 
unknown

>  <frequency_units>  (5) 
unknown

>  <frequency_list>  (5) 
unknown

>  <arkane_path>  (5) 
/home/calvin/Dropbox/PersonalFolders/Calvin/HAb_Converged/rxn_1014/output/Species/rxn_1014_C=[C]C=C/arkane/output.py

>  <path_exists>  (5) 
True

>  <E0_value>  (5) 
-407618.73102202936

>  <E0_units>  (5) 
kJ/mol

>  <thermo_class>  (5) 
NASA

>  <Cp0_value>  (5) 
33.257888

>  <Cp0_units>  (5) 
J/(mol*K)

>  <CpInf_value>  (5) 
207.8618

>  <CpInf_units>  (5) 
J/(mol*K)

>  <Tmin_value>  (5) 
10.0

>  <Tmin_units>  (5) 
K

>  <Tmax_value>  (5) 
3000.0

>  <Tmax_units>  (5) 
K

>  <polynomials>  (5) 
[{"name": "polynomial1", "class": "NASAPolynomial", "Tmin_value": 10.0, "Tmin_units": "K", "Tmax_value": 513.96992949071, "Tmax_units": "K", "coeffs": [3.9420802999541826, 0.0035685760014192327, 9.465791812405604e-05, -1.8686526671215408e-07, 1.1507173469765572e-10, -49025207.15718319, 8.65621190884103]}, {"name": "polynomial2", "class": "NASAPolynomial", "Tmin_value": 513.96992949071, "Tmin_units": "K", "Tmax_value": 3000.0, "Tmax_units": "K", "coeffs": [2.0283894812979866, 0.030453216730392172, -1.8799715383868938e-05, 5.69276117666148e-09, -6.699501956082314e-13, -49025168.8245439, 15.074146021629948]}]

>  <H298_value>  (5) 
-97419.52636783152

>  <H298_units>  (5) 
kcal/mol

>  <S298_value>  (5) 
69.47182773714773

>  <S298_units>  (5) 
cal/(mol*K)

>  <Cp_T_value_list>  (5) 
[18.71667250989835, 22.85533281432161, 26.28015598227693, 29.162718122858536, 33.78137212963757, 37.17010503303923, 42.188992301862434, 44.829088783976054, 46.30020231473576]

>  <Cp_T_units>  (5) 
cal/(mol*K)

>  <T_list>  (5) 
[300.0, 400.0, 500.0, 600.0, 800.0, 1000.0, 1500.0, 2000.0, 2400.0]

>  <T_units>  (5) 
K

>  <yaml_path>  (5) 
/home/calvin/Dropbox/PersonalFolders/Calvin/HAb_Converged/rxn_1014/output/Species/rxn_1014_C=[C]C=C/rxn_1014_C=CC=C.yml

>  <frequencies_cm1>  (5) 
[209.82760343791998, 213.04821955299997, 498.83154761543994, 525.2763080827599, 574.87654304912, 748.94088694048, 893.75874035396, 905.4944182658398, 936.5057239709599, 975.15311735192, 1080.3828003955998, 1184.87084902472, 1365.78157728012, 1440.54244645896, 1485.45939743708, 1902.75236136284, 3071.21111547276, 3118.0645563111198, 3138.67237925644, 3141.51531117892, 3241.1690021427603]

>  <ZPE_kJmol>  (5) 
183.34053407098105

>  <E_elec_kJmol>  (5) 
-407802.07155610033

>  <E0_minus_Eelec_plus_ZPE_kJmol>  (5) 
0.0

>  <rxn>  (5) 
rxn_1014

>  <species_type>  (5) 
r0

>  <species_folder>  (5) 
rxn_1014_C=[C]C=C

>  <frequencies_cm1_list>  (5) 
[209.82760343791998, 213.04821955299997, 498.83154761543994, 525.2763080827599, 574.87654304912, 748.94088694048, 893.75874035396, 905.4944182658398, 936.5057239709599, 975.15311735192, 1080.3828003955998, 1184.87084902472, 1365.78157728012, 1440.54244645896, 1485.45939743708, 1902.75236136284, 3071.21111547276, 3118.0645563111198, 3138.67237925644, 3141.51531117892, 3241.1690021427603]

>  <E0_kJmol>  (5) 
-407619

>  <H298_kJmol>  (5) 
-407603

$$$$
