
     RDKit          3D

  3  2  0  0  0  0  0  0  0  0999 V2000
    0.0000   -0.0769    0.0421 N   0  0  0  0  0  2  0  0  0  1  0  0
    0.0000    0.9049    0.3589 H   0  0  0  0  0  0  0  0  0  2  0  0
    0.0000    0.0441   -0.9825 H   0  0  0  0  0  0  0  0  0  3  0  0
  1  3  1  0
  1  2  1  0
M  RAD  1   1   2
M  END
>  <rmg_smiles>  (1) 
[NH2]

>  <rmg_adjacency_list>  (1) 
multiplicity 2
1 N u1 p1 c0 {2,S} {3,S}
2 H u0 p0 c0 {1,S}
3 H u0 p0 c0 {1,S}


>  <multiplicity>  (1) 
2

>  <reaction>  (1) 
rxn_624

>  <type>  (1) 
r1h

>  <role_mapnums>  (1) 
{"r1h_a": 1, "r1h_h": 2}

>  <role_mapidx>  (1) 
{"r1h_a": 0, "r1h_h": 1}

>  <ordered_mapped_smiles>  (1) 
[N:1]([H:2])[H:3]

>  <mol_properties>  (1) 
{"0": {"label": "donator", "atom_type": "N3s"}, "1": {"label": "d_hydrogen", "atom_type": "H0"}}

>  <level_of_theory>  (1) 
wb97xd/def2tzvp

>  <lot_method>  (1) 
wb97xd

>  <lot_basis>  (1) 
def2tzvp

>  <spin_multiplicity>  (1) 
2.0

>  <optical_isomers>  (1) 
1.0

>  <modes>  (1) 
IdealGasTranslation(mass=(16.0187, 'amu')),         NonlinearRotor(             inertia = ([0.710442, 1.30616, 2.0166

>  <frequency_value>  (1) 
unknown

>  <frequency_units>  (1) 
unknown

>  <frequency_list>  (1) 
unknown

>  <arkane_path>  (1) 
/home/calvin/Dropbox/PersonalFolders/Calvin/HAb_Converged/rxn_624/output/Species/rxn_624_[NH2]/arkane/output.py

>  <path_exists>  (1) 
True

>  <E0_value>  (1) 
-146665.82219964045

>  <E0_units>  (1) 
kJ/mol

>  <thermo_class>  (1) 
NASA

>  <Cp0_value>  (1) 
33.257888

>  <Cp0_units>  (1) 
J/(mol*K)

>  <CpInf_value>  (1) 
58.201304

>  <CpInf_units>  (1) 
J/(mol*K)

>  <Tmin_value>  (1) 
10.0

>  <Tmin_units>  (1) 
K

>  <Tmax_value>  (1) 
3000.0

>  <Tmax_units>  (1) 
K

>  <polynomials>  (1) 
[{"name": "polynomial1", "class": "NASAPolynomial", "Tmin_value": 10.0, "Tmin_units": "K", "Tmax_value": 785.762025652844, "Tmax_units": "K", "coeffs": [4.006150952110655, -0.0003084550413445115, 1.1919167642356156e-06, 1.4835268864917173e-09, -1.3501682773251204e-12, -17639824.212471265, 0.5976393950121619]}, {"name": "polynomial2", "class": "NASAPolynomial", "Tmin_value": 785.762025652844, "Tmin_units": "K", "Tmax_value": 3000.0, "Tmax_units": "K", "coeffs": [3.2706683171239272, 0.0018199930208633956, 2.1290206946552888e-07, -3.0253090271967345e-10, 5.0619779589579903e-14, -17639658.754270043, 4.285961361161453]}]

>  <H298_value>  (1) 
-35051.60272998557

>  <H298_units>  (1) 
kcal/mol

>  <S298_value>  (1) 
46.48569697774424

>  <S298_units>  (1) 
cal/(mol*K)

>  <Cp_T_value_list>  (1) 
[8.048197877278941, 8.214827565402967, 8.447531305278195, 8.735020460220388, 9.397018833396599, 10.038676259975528, 11.356703010007145, 12.225159042044737, 12.643051079877377]

>  <Cp_T_units>  (1) 
cal/(mol*K)

>  <T_list>  (1) 
[300.0, 400.0, 500.0, 600.0, 800.0, 1000.0, 1500.0, 2000.0, 2400.0]

>  <T_units>  (1) 
K

>  <yaml_path>  (1) 
/home/calvin/Dropbox/PersonalFolders/Calvin/HAb_Converged/rxn_624/output/Species/rxn_624_[NH2]/rxn_624_NH2.yml

>  <frequencies_cm1>  (1) 
[1514.64408504708, 3360.6064778135196, 3454.89705324244]

>  <ZPE_kJmol>  (1) 
49.8253618406256

>  <E_elec_kJmol>  (1) 
-146715.64756148108

>  <E0_minus_Eelec_plus_ZPE_kJmol>  (1) 
0.0

>  <rxn>  (1) 
rxn_624

>  <species_type>  (1) 
r1

>  <species_folder>  (1) 
rxn_624_[NH2]

>  <frequencies_cm1_list>  (1) 
[1514.64408504708, 3360.6064778135196, 3454.89705324244]

>  <E0_kJmol>  (1) 
-146666

>  <H298_kJmol>  (1) 
-146656

$$$$

     RDKit          3D

  2  1  0  0  0  0  0  0  0  0999 V2000
    0.0000    0.5230    0.0189 H   0  0  0  0  0  0  0  0  0  1  0  0
    0.0000   -0.2165   -0.0078 H   0  0  0  0  0  0  0  0  0  2  0  0
  1  2  1  0
M  END
>  <rmg_smiles>  (2) 
[H][H]

>  <rmg_adjacency_list>  (2) 
1 H u0 p0 c0 {2,S}
2 H u0 p0 c0 {1,S}


>  <multiplicity>  (2) 
1

>  <reaction>  (2) 
rxn_624

>  <type>  (2) 
r2h

>  <role_mapnums>  (2) 
{"r2h_a": 1, "r2h_h": 2}

>  <role_mapidx>  (2) 
{"r2h_a": 0, "r2h_h": 1}

>  <ordered_mapped_smiles>  (2) 
[H:1][H:2]

>  <mol_properties>  (2) 
{"0": {"label": "acceptor", "atom_type": "H0"}, "1": {"label": "a_hydrogen", "atom_type": "H0"}}

>  <level_of_theory>  (2) 
wb97xd/def2tzvp

>  <lot_method>  (2) 
wb97xd

>  <lot_basis>  (2) 
def2tzvp

>  <spin_multiplicity>  (2) 
1.0

>  <optical_isomers>  (2) 
1.0

>  <modes>  (2) 
IdealGasTranslation(mass=(2.01565, 'amu')),         LinearRotor(inertia=(0.279051, 'amu*angstrom^2'), symmetry=2),         HarmonicOscillator(frequencies=([4384.98

>  <frequency_value>  (2) 
unknown

>  <frequency_units>  (2) 
unknown

>  <frequency_list>  (2) 
unknown

>  <arkane_path>  (2) 
/home/calvin/Dropbox/PersonalFolders/Calvin/HAb_Converged/rxn_624/output/Species/rxn_624_[H][H]/arkane/output.py

>  <path_exists>  (2) 
True

>  <E0_value>  (2) 
-3062.16965545063

>  <E0_units>  (2) 
kJ/mol

>  <thermo_class>  (2) 
NASA

>  <Cp0_value>  (2) 
29.100652

>  <Cp0_units>  (2) 
J/(mol*K)

>  <CpInf_value>  (2) 
37.415124

>  <CpInf_units>  (2) 
J/(mol*K)

>  <Tmin_value>  (2) 
10.0

>  <Tmin_units>  (2) 
K

>  <Tmax_value>  (2) 
3000.0

>  <Tmax_units>  (2) 
K

>  <polynomials>  (2) 
[{"name": "polynomial1", "class": "NASAPolynomial", "Tmin_value": 10.0, "Tmin_units": "K", "Tmax_value": 609.8839760798177, "Tmax_units": "K", "coeffs": [3.498630427760662, 8.118128927195725e-05, -2.559636751505851e-07, 1.12469612407288e-11, 3.0815171130046294e-13, -368293.8823611774, -4.277290681887199]}, {"name": "polynomial2", "class": "NASAPolynomial", "Tmin_value": 609.8839760798177, "Tmin_units": "K", "Tmax_value": 3000.0, "Tmax_units": "K", "coeffs": [3.686867766797846, -0.0007828622299568348, 9.578139376048542e-07, -3.193665739780837e-10, 3.533006631714403e-14, -368323.7341208647, -5.148841965058497]}]

>  <H298_value>  (2) 
-729.8011438890577

>  <H298_units>  (2) 
kcal/mol

>  <S298_value>  (2) 
31.136082854374543

>  <S298_units>  (2) 
cal/(mol*K)

>  <Cp_T_value_list>  (2) 
[6.960683160805141, 6.952753142081975, 6.947066275630451, 6.950370161364484, 7.003977696739648, 7.10979357060473, 7.489089863592967, 7.874797646413975, 8.112273708870758]

>  <Cp_T_units>  (2) 
cal/(mol*K)

>  <T_list>  (2) 
[300.0, 400.0, 500.0, 600.0, 800.0, 1000.0, 1500.0, 2000.0, 2400.0]

>  <T_units>  (2) 
K

>  <yaml_path>  (2) 
/home/calvin/Dropbox/PersonalFolders/Calvin/HAb_Converged/rxn_624/output/Species/rxn_624_[H][H]/rxn_624_HH.yml

>  <frequencies_cm1>  (2) 
[4384.97527895388]

>  <ZPE_kJmol>  (2) 
26.22798418526521

>  <E_elec_kJmol>  (2) 
-3088.3976396358958

>  <E0_minus_Eelec_plus_ZPE_kJmol>  (2) 
0.0

>  <rxn>  (2) 
rxn_624

>  <species_type>  (2) 
p0

>  <species_folder>  (2) 
rxn_624_[H][H]

>  <frequencies_cm1_list>  (2) 
[4384.97527895388]

>  <E0_kJmol>  (2) 
-3062.17

>  <H298_kJmol>  (2) 
-3053.49

$$$$

     RDKit          3D

  4  2  0  0  0  0  0  0  0  0999 V2000
    0.0000    1.9275    0.4157 H   0  0  0  0  0 15  0  0  0  1  0  0
    0.0000   -0.2204    0.0223 N   0  0  0  0  0  2  0  0  0  2  0  0
    0.0000    0.8815    0.3778 H   0  0  0  0  0  0  0  0  0  3  0  0
    0.0000   -0.0994   -1.0023 H   0  0  0  0  0  0  0  0  0  4  0  0
  2  4  1  0
  2  3  1  0
M  RAD  1   2   2
M  END
>  <rmg_smiles>  (3) 
[NH2]

>  <rmg_adjacency_list>  (3) 
multiplicity 3
1 N u1 p1 c0 {2,S} {3,S}
2 H u0 p0 c0 {1,S}
3 H u0 p0 c0 {1,S}
4 H u1 p0 c0


>  <multiplicity>  (3) 
3

>  <reaction>  (3) 
rxn_624

>  <type>  (3) 
ts

>  <role_mapnums>  (3) 
{"*2": 3, "*1": 2, "*3": 1, "*0": null, "*4": 4}

>  <role_mapidx>  (3) 
{"*2": 2, "*1": 1, "*3": 0, "*4": 3}

>  <ordered_mapped_smiles>  (3) 
[H:1].[N:2]([H:3])[H:4]

>  <mol_properties>  (3) 
{"0": {"label": "*3", "atom_type": "H0"}, "1": {"label": "*1", "atom_type": "N3s"}, "2": {"label": "*2", "atom_type": "H0"}, "3": {"label": "*4", "atom_type": "H0"}}

>  <level_of_theory>  (3) 
wb97xd/def2tzvp

>  <lot_method>  (3) 
wb97xd

>  <lot_basis>  (3) 
def2tzvp

>  <spin_multiplicity>  (3) 
3.0

>  <optical_isomers>  (3) 
1.0

>  <modes>  (3) 
IdealGasTranslation(mass=(17.0266, 'amu')),         NonlinearRotor(             inertia = ([1.00726, 5.53993, 6.5472

>  <frequency_value>  (3) 
-1274.47

>  <frequency_units>  (3) 
cm^-1

>  <frequency_list>  (3) 
unknown

>  <arkane_path>  (3) 
/home/calvin/Dropbox/PersonalFolders/Calvin/HAb_Converged/rxn_624/output/rxns/TS0/arkane/output.py

>  <path_exists>  (3) 
True

>  <E0_value>  (3) 
-147965.0

>  <E0_units>  (3) 
kJ/mol

>  <thermo_class>  (3) 
unknown

>  <Cp0_value>  (3) 
unknown

>  <Cp0_units>  (3) 
unknown

>  <CpInf_value>  (3) 
unknown

>  <CpInf_units>  (3) 
unknown

>  <Tmin_value>  (3) 
unknown

>  <Tmin_units>  (3) 
unknown

>  <Tmax_value>  (3) 
unknown

>  <Tmax_units>  (3) 
unknown

>  <polynomials>  (3) 
unknown

>  <H298_value>  (3) 
unknown

>  <H298_units>  (3) 
unknown

>  <S298_value>  (3) 
unknown

>  <S298_units>  (3) 
unknown

>  <Cp_T_value_list>  (3) 
unknown

>  <Cp_T_units>  (3) 
unknown

>  <T_list>  (3) 
unknown

>  <T_units>  (3) 
unknown

>  <yaml_path>  (3) 
unknown

>  <frequencies_cm1>  (3) 
unknown

>  <ZPE_kJmol>  (3) 
unknown

>  <E_elec_kJmol>  (3) 
unknown

>  <E0_minus_Eelec_plus_ZPE_kJmol>  (3) 
unknown

>  <rxn>  (3) 
unknown

>  <species_type>  (3) 
unknown

>  <species_folder>  (3) 
unknown

>  <frequencies_cm1_list>  (3) 
[]

>  <ts_imag_freq_cm1>  (3) 
-1289.9506

>  <ts_freq_out_path>  (3) 
/home/calvin/Dropbox/PersonalFolders/Calvin/HAb_Converged/rxn_624/output/rxns/TS0/geometry/freq.out

>  <E0_kJmol>  (3) 
-147965

>  <H298_kJmol>  (3) 
unknown

$$$$

     RDKit          3D

  2  1  0  0  0  0  0  0  0  0999 V2000
    0.0000    0.0000    0.5193 N   0  0  0  0  0  1  0  0  0  1  0  0
    0.0000    0.0000   -0.5193 H   0  0  0  0  0  0  0  0  0  2  0  0
  1  2  1  0
M  RAD  1   1   3
M  END
>  <rmg_smiles>  (4) 
[NH]

>  <rmg_adjacency_list>  (4) 
multiplicity 3
1 N u2 p2 c0 {2,S}
2 H u0 p0 c0 {1,S}


>  <multiplicity>  (4) 
3

>  <reaction>  (4) 
rxn_624

>  <type>  (4) 
r1

>  <role_mapnums>  (4) 
{}

>  <role_mapidx>  (4) 
{}

>  <ordered_mapped_smiles>  (4) 
[N:1][H:2]

>  <level_of_theory>  (4) 
wb97xd/def2tzvp

>  <lot_method>  (4) 
wb97xd

>  <lot_basis>  (4) 
def2tzvp

>  <spin_multiplicity>  (4) 
3.0

>  <optical_isomers>  (4) 
1.0

>  <modes>  (4) 
IdealGasTranslation(mass=(15.0109, 'amu')),         LinearRotor(inertia=(1.01413, 'amu*angstrom^2'), symmetry=1),         HarmonicOscillator(frequencies=([3269.26

>  <frequency_value>  (4) 
unknown

>  <frequency_units>  (4) 
unknown

>  <frequency_list>  (4) 
unknown

>  <arkane_path>  (4) 
/home/calvin/Dropbox/PersonalFolders/Calvin/HAb_Converged/rxn_624/output/Species/rxn_624_[NH]/arkane/output.py

>  <path_exists>  (4) 
True

>  <E0_value>  (4) 
-144966.34748420777

>  <E0_units>  (4) 
kJ/mol

>  <thermo_class>  (4) 
NASA

>  <Cp0_value>  (4) 
29.100652

>  <Cp0_units>  (4) 
J/(mol*K)

>  <CpInf_value>  (4) 
37.415124

>  <CpInf_units>  (4) 
J/(mol*K)

>  <Tmin_value>  (4) 
10.0

>  <Tmin_units>  (4) 
K

>  <Tmax_value>  (4) 
3000.0

>  <Tmax_units>  (4) 
K

>  <polynomials>  (4) 
[{"name": "polynomial1", "class": "NASAPolynomial", "Tmin_value": 10.0, "Tmin_units": "K", "Tmax_value": 881.8317338369802, "Tmax_units": "K", "coeffs": [3.4965219376116825, 0.0002338115503177948, -1.4163470240755558e-06, 2.4967178919277258e-09, -1.103993394415139e-12, -17435424.22139872, 1.815523087367808]}, {"name": "polynomial2", "class": "NASAPolynomial", "Tmin_value": 881.8317338369802, "Tmin_units": "K", "Tmax_value": 3000.0, "Tmax_units": "K", "coeffs": [3.3237793375425744, 4.015534127664091e-05, 5.753170517549301e-07, -2.6565189887085394e-10, 3.540688719906275e-14, -17435355.75981926, 2.8426188495704228]}]

>  <H298_value>  (4) 
-34645.71320967994

>  <H298_units>  (4) 
kcal/mol

>  <S298_value>  (4) 
43.245925940771016

>  <S298_units>  (4) 
cal/(mol*K)

>  <Cp_T_value_list>  (4) 
[6.950579063358474, 6.945204744743905, 6.960053863176041, 7.001201664025976, 7.160367940258891, 7.370562263892327, 7.871618905150077, 8.240256258516725, 8.418446748625259]

>  <Cp_T_units>  (4) 
cal/(mol*K)

>  <T_list>  (4) 
[300.0, 400.0, 500.0, 600.0, 800.0, 1000.0, 1500.0, 2000.0, 2400.0]

>  <T_units>  (4) 
K

>  <yaml_path>  (4) 
/home/calvin/Dropbox/PersonalFolders/Calvin/HAb_Converged/rxn_624/output/Species/rxn_624_[NH]/rxn_624_NH.yml

>  <frequencies_cm1>  (4) 
[3269.2618390868797]

>  <ZPE_kJmol>  (4) 
19.554533915985527

>  <E_elec_kJmol>  (4) 
-144985.90201812374

>  <E0_minus_Eelec_plus_ZPE_kJmol>  (4) 
0.0

>  <rxn>  (4) 
rxn_624

>  <species_type>  (4) 
p1

>  <species_folder>  (4) 
rxn_624_[NH]

>  <frequencies_cm1_list>  (4) 
[3269.2618390868797]

>  <E0_kJmol>  (4) 
-144966

>  <H298_kJmol>  (4) 
-144958

$$$$

     RDKit          3D

  1  0  0  0  0  0  0  0  0  0999 V2000
    0.0000    0.0000    0.0000 H   0  0  0  0  0 15  0  0  0  1  0  0
M  END
>  <rmg_smiles>  (5) 
[H]

>  <rmg_adjacency_list>  (5) 
multiplicity 2
1 H u1 p0 c0


>  <multiplicity>  (5) 
2

>  <reaction>  (5) 
rxn_624

>  <type>  (5) 
r2

>  <role_mapnums>  (5) 
{}

>  <role_mapidx>  (5) 
{}

>  <ordered_mapped_smiles>  (5) 
[H:1]

>  <level_of_theory>  (5) 
wb97xd/def2tzvp

>  <lot_method>  (5) 
wb97xd

>  <lot_basis>  (5) 
def2tzvp

>  <spin_multiplicity>  (5) 
2.0

>  <optical_isomers>  (5) 
1.0

>  <modes>  (5) 
IdealGasTranslation(mass=(1.00797, 'amu')),

>  <frequency_value>  (5) 
unknown

>  <frequency_units>  (5) 
unknown

>  <frequency_list>  (5) 
unknown

>  <arkane_path>  (5) 
/home/calvin/Dropbox/PersonalFolders/Calvin/HAb_Converged/rxn_624/output/Species/rxn_624_[H]/arkane/output.py

>  <path_exists>  (5) 
True

>  <E0_value>  (5) 
-1319.7535890175566

>  <E0_units>  (5) 
kJ/mol

>  <thermo_class>  (5) 
NASA

>  <Cp0_value>  (5) 
20.78618

>  <Cp0_units>  (5) 
J/(mol*K)

>  <CpInf_value>  (5) 
20.78618

>  <CpInf_units>  (5) 
J/(mol*K)

>  <Tmin_value>  (5) 
10.0

>  <Tmin_units>  (5) 
K

>  <Tmax_value>  (5) 
3000.0

>  <Tmax_units>  (5) 
K

>  <polynomials>  (5) 
[{"name": "polynomial1", "class": "NASAPolynomial", "Tmin_value": 10.0, "Tmin_units": "K", "Tmax_value": 1853.5663026740365, "Tmax_units": "K", "coeffs": [2.500000000000126, -2.814048095438137e-15, 9.047587538332909e-18, -8.591944598242694e-21, 2.4182720553650057e-24, -158729.69562032758, -0.461069367474324]}, {"name": "polynomial2", "class": "NASAPolynomial", "Tmin_value": 1853.5663026740365, "Tmin_units": "K", "Tmax_value": 3000.0, "Tmax_units": "K", "coeffs": [2.500000000696122, -1.3129776766613561e-12, 9.140875080033424e-16, -2.782806647322001e-19, 3.1263265306749967e-23, -158729.69562061856, -0.4610693713504795]}]

>  <H298_value>  (5) 
-313.9482141882736

>  <H298_units>  (5) 
kcal/mol

>  <S298_value>  (5) 
27.387012987908147

>  <S298_units>  (5) 
cal/(mol*K)

>  <Cp_T_value_list>  (5) 
[4.968016252389826, 4.968016252389978, 4.968016252390173, 4.96801625239036, 4.968016252390567, 4.968016252390427, 4.968016252389077, 4.968016252391019, 4.968016252390868]

>  <Cp_T_units>  (5) 
cal/(mol*K)

>  <T_list>  (5) 
[300.0, 400.0, 500.0, 600.0, 800.0, 1000.0, 1500.0, 2000.0, 2400.0]

>  <T_units>  (5) 
K

>  <yaml_path>  (5) 
/home/calvin/Dropbox/PersonalFolders/Calvin/HAb_Converged/rxn_624/output/Species/rxn_624_[H]/rxn_624_H.yml

>  <frequencies_cm1>  (5) 
[]

>  <ZPE_kJmol>  (5) 
unknown

>  <E_elec_kJmol>  (5) 
unknown

>  <E0_minus_Eelec_plus_ZPE_kJmol>  (5) 
unknown

>  <rxn>  (5) 
rxn_624

>  <species_type>  (5) 
r0

>  <species_folder>  (5) 
rxn_624_[H]

>  <frequencies_cm1_list>  (5) 
[]

>  <E0_kJmol>  (5) 
-1319.75

>  <H298_kJmol>  (5) 
-1313.56

$$$$
