
     RDKit          3D

 19 20  0  0  0  0  0  0  0  0999 V2000
   -0.3762   -1.0912   -1.0299 C   0  0  0  0  0  0  0  0  0  1  0  0
   -0.1795   -1.4708    0.4627 C   0  0  0  0  0  0  0  0  0  2  0  0
   -0.1119   -0.1060    1.1674 C   0  0  0  0  0  0  0  0  0  3  0  0
    1.2166    0.5756    0.7704 C   0  0  0  0  0  0  0  0  0  4  0  0
    0.9786    0.9772   -0.7150 C   0  0  0  0  0  0  0  0  0  5  0  0
   -0.4440    0.4459   -0.9953 C   0  0  0  0  0  0  0  0  0  6  0  0
   -1.0958    0.7100    0.3500 C   0  0  0  0  0  0  0  0  0  7  0  0
   -1.2978   -1.5179   -1.4244 H   0  0  0  0  0  0  0  0  0  8  0  0
    0.4436   -1.4381   -1.6607 H   0  0  0  0  0  0  0  0  0  9  0  0
   -1.0281   -2.0534    0.8247 H   0  0  0  0  0  0  0  0  0 10  0  0
    0.7215   -2.0610    0.6353 H   0  0  0  0  0  0  0  0  0 11  0  0
   -0.2831   -0.1468    2.2418 H   0  0  0  0  0  0  0  0  0 12  0  0
    2.0672   -0.0974    0.8937 H   0  0  0  0  0  0  0  0  0 13  0  0
    1.4010    1.4544    1.3899 H   0  0  0  0  0  0  0  0  0 14  0  0
    1.7140    0.5411   -1.3934 H   0  0  0  0  0  0  0  0  0 15  0  0
    1.0185    2.0606   -0.8384 H   0  0  0  0  0  0  0  0  0 16  0  0
   -0.9196    0.8918   -1.8669 H   0  0  0  0  0  0  0  0  0 17  0  0
   -2.0938    0.2775    0.4150 H   0  0  0  0  0  0  0  0  0 18  0  0
   -1.2693    1.7458    0.6399 H   0  0  0  0  0  0  0  0  0 19  0  0
  1  8  1  0
  1  6  1  0
  1  9  1  0
  1  2  1  0
  2 11  1  0
  2  3  1  0
  2 10  1  0
  3  4  1  0
  3 12  1  0
  3  7  1  0
  4 14  1  0
  4  5  1  0
  4 13  1  0
  5 16  1  0
  5 15  1  0
  5  6  1  0
  6  7  1  0
  6 17  1  0
  7 18  1  0
  7 19  1  0
M  END
>  <rmg_smiles>  (1) 
C1CC2CCC1C2

>  <rmg_adjacency_list>  (1) 
1  C u0 p0 c0 {3,S} {5,S} {6,S} {8,S}
2  C u0 p0 c0 {3,S} {4,S} {7,S} {9,S}
3  C u0 p0 c0 {1,S} {2,S} {18,S} {19,S}
4  C u0 p0 c0 {2,S} {5,S} {10,S} {11,S}
5  C u0 p0 c0 {1,S} {4,S} {12,S} {13,S}
6  C u0 p0 c0 {1,S} {7,S} {14,S} {15,S}
7  C u0 p0 c0 {2,S} {6,S} {16,S} {17,S}
8  H u0 p0 c0 {1,S}
9  H u0 p0 c0 {2,S}
10 H u0 p0 c0 {4,S}
11 H u0 p0 c0 {4,S}
12 H u0 p0 c0 {5,S}
13 H u0 p0 c0 {5,S}
14 H u0 p0 c0 {6,S}
15 H u0 p0 c0 {6,S}
16 H u0 p0 c0 {7,S}
17 H u0 p0 c0 {7,S}
18 H u0 p0 c0 {3,S}
19 H u0 p0 c0 {3,S}


>  <multiplicity>  (1) 
1

>  <reaction>  (1) 
rxn_548

>  <type>  (1) 
r1h

>  <role_mapnums>  (1) 
{"r1h_a": 7, "r1h_h": 18}

>  <role_mapidx>  (1) 
{"r1h_a": 6, "r1h_h": 17}

>  <ordered_mapped_smiles>  (1) 
[C:1]1([H:8])([H:9])[C:2]([H:10])([H:11])[C:3]2([H:12])[C:4]([H:13])([H:14])[C:5]([H:15])([H:16])[C:6]1([H:17])[C:7]2([H:18])[H:19]

>  <mol_properties>  (1) 
{"6": {"label": "donator", "atom_type": "Cs"}, "17": {"label": "d_hydrogen", "atom_type": "H0"}}

>  <level_of_theory>  (1) 
wb97xd/def2tzvp

>  <lot_method>  (1) 
wb97xd

>  <lot_basis>  (1) 
def2tzvp

>  <spin_multiplicity>  (1) 
1.0

>  <optical_isomers>  (1) 
1.0

>  <modes>  (1) 
IdealGasTranslation(mass=(96.0939, 'amu')),         NonlinearRotor(             inertia = ([135.336, 156.085, 180.607

>  <frequency_value>  (1) 
unknown

>  <frequency_units>  (1) 
unknown

>  <frequency_list>  (1) 
unknown

>  <arkane_path>  (1) 
/home/calvin/Dropbox/PersonalFolders/Calvin/HAb_Converged/rxn_548/output/Species/rxn_548_C1CC2CCC1C2/arkane/output.py

>  <path_exists>  (1) 
True

>  <E0_value>  (1) 
-718893.5806331062

>  <E0_units>  (1) 
kJ/mol

>  <thermo_class>  (1) 
NASA

>  <Cp0_value>  (1) 
33.257888

>  <Cp0_units>  (1) 
J/(mol*K)

>  <CpInf_value>  (1) 
457.29596

>  <CpInf_units>  (1) 
J/(mol*K)

>  <Tmin_value>  (1) 
10.0

>  <Tmin_units>  (1) 
K

>  <Tmax_value>  (1) 
3000.0

>  <Tmax_units>  (1) 
K

>  <polynomials>  (1) 
[{"name": "polynomial1", "class": "NASAPolynomial", "Tmin_value": 10.0, "Tmin_units": "K", "Tmax_value": 662.4178125457627, "Tmax_units": "K", "coeffs": [4.239403585768697, -0.01836828814634063, 0.0002578950712714286, -3.7381328534857083e-07, 1.74409927807895e-10, -86462928.5201383, 9.87949578073462]}, {"name": "polynomial2", "class": "NASAPolynomial", "Tmin_value": 662.4178125457627, "Tmin_units": "K", "Tmax_value": 3000.0, "Tmax_units": "K", "coeffs": [-6.999983226389214, 0.08370637401899614, -5.070273549604008e-05, 1.4717426455763106e-08, -1.6436943039919863e-12, -86462189.9567335, 53.80936817756756]}]

>  <H298_value>  (1) 
-171815.58472962098

>  <H298_units>  (1) 
kcal/mol

>  <S298_value>  (1) 
73.63684385034063

>  <S298_units>  (1) 
cal/(mol*K)

>  <Cp_T_value_list>  (1) 
[26.348838520541374, 37.15309814493767, 47.10273015631388, 55.48382566754763, 68.31505323621754, 77.6548383777145, 91.07076230422987, 97.45683083224962, 100.88536523646154]

>  <Cp_T_units>  (1) 
cal/(mol*K)

>  <T_list>  (1) 
[300.0, 400.0, 500.0, 600.0, 800.0, 1000.0, 1500.0, 2000.0, 2400.0]

>  <T_units>  (1) 
K

>  <yaml_path>  (1) 
/home/calvin/Dropbox/PersonalFolders/Calvin/HAb_Converged/rxn_548/output/Species/rxn_548_C1CC2CCC1C2/rxn_548_C1CC2CCC1C2.yml

>  <frequencies_cm1>  (1) 
[154.85738595131997, 340.37586135643994, 406.75900844488, 450.69398052224, 546.52276066284, 762.7915963309199, 767.83883054112, 803.5128192785198, 822.9257867781599, 828.1927645185999, 886.4866029000799, 904.4231685559199, 936.7804033837599, 957.0723450043599, 964.2964135609999, 966.8990009972799, 969.81060277296, 1009.5017779225599, 1041.98261848616, 1088.6987196181199, 1128.4585646209198, 1135.50409155924, 1162.87589504476, 1186.2717140299999, 1234.53288685896, 1241.50287695876, 1269.37597037264, 1285.33484425632, 1285.7125284489198, 1300.5726846814, 1328.01315802012, 1340.8956224804401, 1342.91451616452, 1343.99949984508, 1472.87221334552, 1484.7314969931601, 1486.79845957448, 1493.51437121744, 1517.5419528521197, 3027.37228118988, 3027.8598371476, 3028.0795806778397, 3039.1354270430397, 3039.76032270716, 3064.0831847106, 3066.3286889102396, 3077.8514902772, 3080.41974278688, 3084.8970172155196, 3085.2334994962002, 3090.71335378156]

>  <ZPE_kJmol>  (1) 
462.7371032824111

>  <E_elec_kJmol>  (1) 
-719356.3177363885

>  <E0_minus_Eelec_plus_ZPE_kJmol>  (1) 
0.0

>  <rxn>  (1) 
rxn_548

>  <species_type>  (1) 
r1

>  <species_folder>  (1) 
rxn_548_C1CC2CCC1C2

>  <frequencies_cm1_list>  (1) 
[154.85738595131997, 340.37586135643994, 406.75900844488, 450.69398052224, 546.52276066284, 762.7915963309199, 767.83883054112, 803.5128192785198, 822.9257867781599, 828.1927645185999, 886.4866029000799, 904.4231685559199, 936.7804033837599, 957.0723450043599, 964.2964135609999, 966.8990009972799, 969.81060277296, 1009.5017779225599, 1041.98261848616, 1088.6987196181199, 1128.4585646209198, 1135.50409155924, 1162.87589504476, 1186.2717140299999, 1234.53288685896, 1241.50287695876, 1269.37597037264, 1285.33484425632, 1285.7125284489198, 1300.5726846814, 1328.01315802012, 1340.8956224804401, 1342.91451616452, 1343.99949984508, 1472.87221334552, 1484.7314969931601, 1486.79845957448, 1493.51437121744, 1517.5419528521197, 3027.37228118988, 3027.8598371476, 3028.0795806778397, 3039.1354270430397, 3039.76032270716, 3064.0831847106, 3066.3286889102396, 3077.8514902772, 3080.41974278688, 3084.8970172155196, 3085.2334994962002, 3090.71335378156]

>  <E0_kJmol>  (1) 
-718894

>  <H298_kJmol>  (1) 
-718876

$$$$

     RDKit          3D

 18 18  0  0  0  0  0  0  0  0999 V2000
    0.2153    1.0890    2.7657 C   0  0  0  0  0  0  0  0  0  1  0  0
    0.2404    1.5013    1.3125 C   0  0  0  0  0  0  0  0  0  2  0  0
    0.0284    0.4700    0.2738 C   0  0  0  0  0  0  0  0  0  3  0  0
   -0.2533    0.8642   -1.0378 C   0  0  0  0  0  0  0  0  0  4  0  0
   -0.3645   -0.0625   -2.0579 C   0  0  0  0  0  0  0  0  0  5  0  0
   -0.1990   -1.4157   -1.7928 C   0  0  0  0  0  0  0  0  0  6  0  0
    0.0682   -1.8247   -0.4960 C   0  0  0  0  0  0  0  0  0  7  0  0
    0.1791   -0.8937    0.5256 C   0  0  0  0  0  0  0  0  0  8  0  0
    1.0022    0.3670    2.9942 H   0  0  0  0  0  0  0  0  0  9  0  0
   -0.7414    0.6372    3.0424 H   0  0  0  0  0  0  0  0  0 10  0  0
    0.3759    1.9564    3.4072 H   0  0  0  0  0  0  0  0  0 11  0  0
   -0.3685    2.3864    1.1237 H   0  0  0  0  0  0  0  0  0 12  0  0
   -0.3750    1.9197   -1.2546 H   0  0  0  0  0  0  0  0  0 13  0  0
   -0.5801    0.2701   -3.0657 H   0  0  0  0  0  0  0  0  0 14  0  0
   -0.2832   -2.1434   -2.5897 H   0  0  0  0  0  0  0  0  0 15  0  0
    0.1916   -2.8779   -0.2753 H   0  0  0  0  0  0  0  0  0 16  0  0
    0.3879   -1.2370    1.5308 H   0  0  0  0  0  0  0  0  0 17  0  0
    1.2436    1.8966    1.1475 H   0  0  0  0  0  0  0  0  0 18  0  0
  1 10  1  0
  1 11  1  0
  1  9  1  0
  1  2  1  0
  2 12  1  0
  2 18  1  0
  2  3  1  0
  3  4  1  0
  3  8  1  0
  4  5  1  0
  4 13  1  0
  5 14  1  0
  5  6  1  0
  6 15  1  0
  6  7  1  0
  7  8  1  0
  7 16  1  0
  8 17  1  0
M  END
>  <rmg_smiles>  (2) 
CCC1[CH][CH][CH][CH][CH]1

>  <rmg_adjacency_list>  (2) 
1  C u0 p0 c0 {2,S} {3,S} {9,S} {10,S}
2  C u0 p0 c0 {1,S} {11,S} {12,S} {13,S}
3  C u0 p0 c0 {1,S} {4,S} {5,S}
4  C u0 p0 c0 {3,S} {6,S} {14,S}
5  C u0 p0 c0 {3,S} {8,S} {18,S}
6  C u0 p0 c0 {4,S} {7,S} {15,S}
7  C u0 p0 c0 {6,S} {8,S} {16,S}
8  C u0 p0 c0 {5,S} {7,S} {17,S}
9  H u0 p0 c0 {1,S}
10 H u0 p0 c0 {1,S}
11 H u0 p0 c0 {2,S}
12 H u0 p0 c0 {2,S}
13 H u0 p0 c0 {2,S}
14 H u0 p0 c0 {4,S}
15 H u0 p0 c0 {6,S}
16 H u0 p0 c0 {7,S}
17 H u0 p0 c0 {8,S}
18 H u0 p0 c0 {5,S}


>  <multiplicity>  (2) 
1

>  <reaction>  (2) 
rxn_548

>  <type>  (2) 
r2h

>  <role_mapnums>  (2) 
{"r2h_a": 2, "r2h_h": 18}

>  <role_mapidx>  (2) 
{"r2h_a": 1, "r2h_h": 17}

>  <ordered_mapped_smiles>  (2) 
[C:1]([C:2]([CH:3]1[CH:4]([H:13])[CH:5]([H:14])[CH:6]([H:15])[CH:7]([H:16])[CH:8]1[H:17])([H:12])[H:18])([H:9])([H:10])[H:11]

>  <mol_properties>  (2) 
{"1": {"label": "acceptor", "atom_type": "Cs"}, "17": {"label": "a_hydrogen", "atom_type": "H0"}}

>  <level_of_theory>  (2) 
wb97xd/def2tzvp

>  <lot_method>  (2) 
wb97xd

>  <lot_basis>  (2) 
def2tzvp

>  <spin_multiplicity>  (2) 
1.0

>  <optical_isomers>  (2) 
1.0

>  <modes>  (2) 
IdealGasTranslation(mass=(106.078, 'amu')),         NonlinearRotor(             inertia = ([110.416, 341.874, 411.865

>  <frequency_value>  (2) 
unknown

>  <frequency_units>  (2) 
unknown

>  <frequency_list>  (2) 
unknown

>  <arkane_path>  (2) 
/home/calvin/Dropbox/PersonalFolders/Calvin/HAb_Converged/rxn_548/output/Species/rxn_548_CCc1ccccc1/arkane/output.py

>  <path_exists>  (2) 
True

>  <E0_value>  (2) 
-815817.9037561571

>  <E0_units>  (2) 
kJ/mol

>  <thermo_class>  (2) 
NASA

>  <Cp0_value>  (2) 
33.257888

>  <Cp0_units>  (2) 
J/(mol*K)

>  <CpInf_value>  (2) 
432.352544

>  <CpInf_units>  (2) 
J/(mol*K)

>  <Tmin_value>  (2) 
10.0

>  <Tmin_units>  (2) 
K

>  <Tmax_value>  (2) 
3000.0

>  <Tmax_units>  (2) 
K

>  <polynomials>  (2) 
[{"name": "polynomial1", "class": "NASAPolynomial", "Tmin_value": 10.0, "Tmin_units": "K", "Tmax_value": 423.64221286564066, "Tmax_units": "K", "coeffs": [3.9313576428136847, 0.00433548241275686, 0.00021072402908531117, -3.936647014575837e-07, 2.39299197946727e-10, -98120227.55481465, 12.959903756557797]}, {"name": "polynomial2", "class": "NASAPolynomial", "Tmin_value": 423.64221286564066, "Tmin_units": "K", "Tmax_value": 3000.0, "Tmax_units": "K", "coeffs": [-3.831744087351853, 0.07763434183173747, -4.880767835098557e-05, 1.474976136685413e-08, -1.7152455638411797e-12, -98119569.80107659, 43.744896821921714]}]

>  <H298_value>  (2) 
-194980.06834128423

>  <H298_units>  (2) 
kcal/mol

>  <S298_value>  (2) 
85.45971865285561

>  <S298_units>  (2) 
cal/(mol*K)

>  <Cp_T_value_list>  (2) 
[30.814700172190967, 40.3659544276965, 48.72635221695798, 55.92346742650604, 67.34270920138786, 75.5723408499977, 87.237384341353, 92.9225471908414, 96.08425401549664]

>  <Cp_T_units>  (2) 
cal/(mol*K)

>  <T_list>  (2) 
[300.0, 400.0, 500.0, 600.0, 800.0, 1000.0, 1500.0, 2000.0, 2400.0]

>  <T_units>  (2) 
K

>  <yaml_path>  (2) 
/home/calvin/Dropbox/PersonalFolders/Calvin/HAb_Converged/rxn_548/output/Species/rxn_548_CCc1ccccc1/rxn_548_CCc1ccccc1.yml

>  <frequencies_cm1>  (2) 
[34.3349266, 135.74656580575999, 222.50405833863996, 311.72679860139993, 360.38625657892, 413.90067317767995, 501.90109005348, 566.8971061072799, 633.36952400488, 715.5124024027199, 770.2697433443999, 787.05265546648, 789.67584385872, 862.2324107498398, 927.82585452648, 978.1333889808, 979.96687406124, 993.1308849196799, 1016.5747728021599, 1052.53030793768, 1054.54920162176, 1082.5459007714, 1116.4276063402797, 1174.3094256025597, 1199.89581290488, 1226.84186330056, 1261.7192817408397, 1329.56509670244, 1349.48622111576, 1353.9360276031198, 1398.4615604179999, 1477.6173002016399, 1482.14951051284, 1484.5254874335599, 1494.4826161475598, 1529.46990635296, 1639.9047642691999, 1662.1469297206797, 3013.28809429856, 3020.8349111652396, 3058.19131130604, 3090.8506934879597, 3092.1760216547195, 3142.7239005952397, 3143.62347567216, 3158.5385677872, 3168.2416180443593, 3180.7601322827195]

>  <ZPE_kJmol>  (2) 
409.36782000073936

>  <E_elec_kJmol>  (2) 
-816227.2715761579

>  <E0_minus_Eelec_plus_ZPE_kJmol>  (2) 
0.0

>  <rxn>  (2) 
rxn_548

>  <species_type>  (2) 
p0

>  <species_folder>  (2) 
rxn_548_CCc1ccccc1

>  <frequencies_cm1_list>  (2) 
[34.3349266, 135.74656580575999, 222.50405833863996, 311.72679860139993, 360.38625657892, 413.90067317767995, 501.90109005348, 566.8971061072799, 633.36952400488, 715.5124024027199, 770.2697433443999, 787.05265546648, 789.67584385872, 862.2324107498398, 927.82585452648, 978.1333889808, 979.96687406124, 993.1308849196799, 1016.5747728021599, 1052.53030793768, 1054.54920162176, 1082.5459007714, 1116.4276063402797, 1174.3094256025597, 1199.89581290488, 1226.84186330056, 1261.7192817408397, 1329.56509670244, 1349.48622111576, 1353.9360276031198, 1398.4615604179999, 1477.6173002016399, 1482.14951051284, 1484.5254874335599, 1494.4826161475598, 1529.46990635296, 1639.9047642691999, 1662.1469297206797, 3013.28809429856, 3020.8349111652396, 3058.19131130604, 3090.8506934879597, 3092.1760216547195, 3142.7239005952397, 3143.62347567216, 3158.5385677872, 3168.2416180443593, 3180.7601322827195]

>  <E0_kJmol>  (2) 
-815818

>  <H298_kJmol>  (2) 
-815797

$$$$

     RDKit          3D

 36 37  0  0  0  0  0  0  0  0999 V2000
   -1.5839    0.2272    2.4661 C   0  0  0  0  0  0  0  0  0  1  0  0
   -1.5588    0.6394    1.0130 C   0  0  0  0  0  0  0  0  0  2  0  0
   -1.7708   -0.3918   -0.0258 C   0  0  0  0  0  0  0  0  0  3  0  0
   -2.0526    0.0023   -1.3373 C   0  0  0  0  0  0  0  0  0  4  0  0
   -2.1637   -0.9243   -2.3574 C   0  0  0  0  0  0  0  0  0  5  0  0
   -1.9982   -2.2776   -2.0923 C   0  0  0  0  0  0  0  0  0  6  0  0
   -1.7310   -2.6866   -0.7956 C   0  0  0  0  0  0  0  0  0  7  0  0
   -1.6201   -1.7555    0.2261 C   0  0  0  0  0  0  0  0  0  8  0  0
   -0.7970   -0.4948    2.6946 H   0  0  0  0  0  0  0  0  0  9  0  0
   -2.5407   -0.2246    2.7429 H   0  0  0  0  0  0  0  0  0 10  0  0
   -1.4233    1.0945    3.1076 H   0  0  0  0  0  0  0  0  0 11  0  0
   -2.1677    1.5245    0.8242 H   0  0  0  0  0  0  0  0  0 12  0  0
   -2.1742    1.0579   -1.5542 H   0  0  0  0  0  0  0  0  0 13  0  0
   -2.3793   -0.5917   -3.3653 H   0  0  0  0  0  0  0  0  0 14  0  0
   -2.0824   -3.0053   -2.8892 H   0  0  0  0  0  0  0  0  0 15  0  0
   -1.6076   -3.7397   -0.5749 H   0  0  0  0  0  0  0  0  0 16  0  0
   -1.4113   -2.0989    1.2313 H   0  0  0  0  0  0  0  0  0 17  0  0
    1.6540   -0.1272   -0.6454 C   0  0  0  0  0  0  0  0  0 18  0  0
    1.8506   -0.5068    0.8473 C   0  0  0  0  0  0  0  0  0 19  0  0
    1.9183    0.8580    1.5519 C   0  0  0  0  0  0  0  0  0 20  0  0
    3.2468    1.5396    1.1550 C   0  0  0  0  0  0  0  0  0 21  0  0
    3.0088    1.9412   -0.3304 C   0  0  0  0  0  0  0  0  0 22  0  0
    1.5861    1.4099   -0.6107 C   0  0  0  0  0  0  0  0  0 23  0  0
    0.9344    1.6739    0.7346 C   0  0  0  0  0  3  0  0  0 24  0  0
    0.7324   -0.5539   -1.0398 H   0  0  0  0  0  0  0  0  0 25  0  0
    2.4738   -0.4741   -1.2761 H   0  0  0  0  0  0  0  0  0 26  0  0
    1.0021   -1.0894    1.2093 H   0  0  0  0  0  0  0  0  0 27  0  0
    2.7517   -1.0970    1.0199 H   0  0  0  0  0  0  0  0  0 28  0  0
    1.7471    0.8172    2.6264 H   0  0  0  0  0  0  0  0  0 29  0  0
    4.0974    0.8666    1.2783 H   0  0  0  0  0  0  0  0  0 30  0  0
    3.4312    2.4183    1.7745 H   0  0  0  0  0  0  0  0  0 31  0  0
    3.7442    1.5051   -1.0089 H   0  0  0  0  0  0  0  0  0 32  0  0
    3.0487    3.0245   -0.4538 H   0  0  0  0  0  0  0  0  0 33  0  0
    1.1105    1.8558   -1.4824 H   0  0  0  0  0  0  0  0  0 34  0  0
   -0.3916    1.0994    0.8209 H   0  0  0  0  0  0  0  0  0 35  0  0
    0.7609    2.7098    1.0245 H   0  0  0  0  0  0  0  0  0 36  0  0
  1 11  1  0
  1 10  1  0
  1  9  1  0
  1  2  1  0
  2 12  1  0
  2  3  1  0
  2 35  1  0
  3  4  1  0
  3  8  1  0
  4  5  1  0
  4 13  1  0
  5 14  1  0
  5  6  1  0
  6  7  1  0
  6 15  1  0
  7  8  1  0
  7 16  1  0
  8 17  1  0
 18 19  1  0
 18 23  1  0
 18 25  1  0
 18 26  1  0
 19 27  1  0
 19 28  1  0
 19 20  1  0
 20 24  1  0
 20 21  1  0
 20 29  1  0
 21 31  1  0
 21 30  1  0
 21 22  1  0
 22 32  1  0
 22 33  1  0
 22 23  1  0
 23 24  1  0
 23 34  1  0
 24 36  1  0
M  RAD  1  24   2
M  END
>  <rmg_smiles>  (3) 
CCC1[CH][CH][CH][CH][CH]1.[CH]1C2CCC1CC2

>  <rmg_adjacency_list>  (3) 
multiplicity 2
1  C u0 p0 c0 {4,S} {5,S} {10,S} {16,S}
2  C u0 p0 c0 {3,S} {6,S} {10,S} {17,S}
3  C u0 p0 c0 {2,S} {4,S} {18,S} {19,S}
4  C u0 p0 c0 {1,S} {3,S} {20,S} {21,S}
5  C u0 p0 c0 {1,S} {6,S} {22,S} {23,S}
6  C u0 p0 c0 {2,S} {5,S} {24,S} {25,S}
7  C u0 p0 c0 {8,S} {9,S} {26,S} {27,S}
8  C u0 p0 c0 {7,S} {28,S} {29,S} {30,S}
9  C u0 p0 c0 {7,S} {11,S} {12,S}
10 C u1 p0 c0 {1,S} {2,S} {31,S}
11 C u0 p0 c0 {9,S} {13,S} {32,S}
12 C u0 p0 c0 {9,S} {15,S} {36,S}
13 C u0 p0 c0 {11,S} {14,S} {33,S}
14 C u0 p0 c0 {13,S} {15,S} {34,S}
15 C u0 p0 c0 {12,S} {14,S} {35,S}
16 H u0 p0 c0 {1,S}
17 H u0 p0 c0 {2,S}
18 H u0 p0 c0 {3,S}
19 H u0 p0 c0 {3,S}
20 H u0 p0 c0 {4,S}
21 H u0 p0 c0 {4,S}
22 H u0 p0 c0 {5,S}
23 H u0 p0 c0 {5,S}
24 H u0 p0 c0 {6,S}
25 H u0 p0 c0 {6,S}
26 H u0 p0 c0 {7,S}
27 H u0 p0 c0 {7,S}
28 H u0 p0 c0 {8,S}
29 H u0 p0 c0 {8,S}
30 H u0 p0 c0 {8,S}
31 H u0 p0 c0 {10,S}
32 H u0 p0 c0 {11,S}
33 H u0 p0 c0 {13,S}
34 H u0 p0 c0 {14,S}
35 H u0 p0 c0 {15,S}
36 H u0 p0 c0 {12,S}


>  <multiplicity>  (3) 
2

>  <reaction>  (3) 
rxn_548

>  <type>  (3) 
ts

>  <role_mapnums>  (3) 
{"*2": 35, "*1": 24, "*3": 2, "*0": 3, "*4": 20}

>  <role_mapidx>  (3) 
{"*2": 34, "*1": 23, "*3": 1, "*0": 2, "*4": 19}

>  <ordered_mapped_smiles>  (3) 
[C:1]([C:2]([CH:3]1[CH:4]([H:13])[CH:5]([H:14])[CH:6]([H:15])[CH:7]([H:16])[CH:8]1[H:17])([H:12])[H:35])([H:9])([H:10])[H:11].[C:18]1([H:25])([H:26])[C:19]([H:27])([H:28])[C:20]2([H:29])[C:21]([H:30])([H:31])[C:22]([H:32])([H:33])[C:23]1([H:34])[C:24]2[H:36]

>  <mol_properties>  (3) 
{"1": {"label": "*3", "atom_type": "Cs"}, "2": {"label": "*0", "atom_type": "Cs"}, "19": {"label": "*4", "atom_type": "Cs"}, "23": {"label": "*1", "atom_type": "Cs"}, "34": {"label": "*2", "atom_type": "H0"}}

>  <level_of_theory>  (3) 
wb97xd/def2tzvp

>  <lot_method>  (3) 
wb97xd

>  <lot_basis>  (3) 
def2tzvp

>  <spin_multiplicity>  (3) 
2.0

>  <optical_isomers>  (3) 
2.0

>  <modes>  (3) 
IdealGasTranslation(mass=(201.164, 'amu')),         NonlinearRotor(             inertia = ([489.338, 1287.59, 1440.89

>  <frequency_value>  (3) 
-1552.42

>  <frequency_units>  (3) 
cm^-1

>  <frequency_list>  (3) 
unknown

>  <arkane_path>  (3) 
/home/calvin/Dropbox/PersonalFolders/Calvin/HAb_Converged/rxn_548/output/rxns/TS0/arkane/output.py

>  <path_exists>  (3) 
True

>  <E0_value>  (3) 
-1532950.0

>  <E0_units>  (3) 
kJ/mol

>  <thermo_class>  (3) 
unknown

>  <Cp0_value>  (3) 
unknown

>  <Cp0_units>  (3) 
unknown

>  <CpInf_value>  (3) 
unknown

>  <CpInf_units>  (3) 
unknown

>  <Tmin_value>  (3) 
unknown

>  <Tmin_units>  (3) 
unknown

>  <Tmax_value>  (3) 
unknown

>  <Tmax_units>  (3) 
unknown

>  <polynomials>  (3) 
unknown

>  <H298_value>  (3) 
unknown

>  <H298_units>  (3) 
unknown

>  <S298_value>  (3) 
unknown

>  <S298_units>  (3) 
unknown

>  <Cp_T_value_list>  (3) 
unknown

>  <Cp_T_units>  (3) 
unknown

>  <T_list>  (3) 
unknown

>  <T_units>  (3) 
unknown

>  <yaml_path>  (3) 
unknown

>  <frequencies_cm1>  (3) 
unknown

>  <ZPE_kJmol>  (3) 
unknown

>  <E_elec_kJmol>  (3) 
unknown

>  <E0_minus_Eelec_plus_ZPE_kJmol>  (3) 
unknown

>  <rxn>  (3) 
unknown

>  <species_type>  (3) 
unknown

>  <species_folder>  (3) 
unknown

>  <frequencies_cm1_list>  (3) 
[]

>  <ts_imag_freq_cm1>  (3) 
-1571.2713

>  <ts_freq_out_path>  (3) 
/home/calvin/Dropbox/PersonalFolders/Calvin/HAb_Converged/rxn_548/output/rxns/TS0/geometry/freq.out

>  <E0_kJmol>  (3) 
-1.53295e+06

>  <H298_kJmol>  (3) 
unknown

$$$$

     RDKit          3D

 18 19  0  0  0  0  0  0  0  0999 V2000
   -0.2352   -0.0323    1.4420 C   0  0  0  0  0  3  0  0  0  1  0  0
   -0.1734   -1.1359    0.4256 C   0  0  0  0  0  0  0  0  0  2  0  0
   -1.2562   -0.6812   -0.5734 C   0  0  0  0  0  0  0  0  0  3  0  0
   -1.1576    0.8706   -0.5226 C   0  0  0  0  0  0  0  0  0  4  0  0
   -0.0301    1.1185    0.4994 C   0  0  0  0  0  0  0  0  0  5  0  0
    1.3075    0.7028   -0.1632 C   0  0  0  0  0  0  0  0  0  6  0  0
    1.2087   -0.8504   -0.2141 C   0  0  0  0  0  0  0  0  0  7  0  0
    0.1290   -0.0888    2.4599 H   0  0  0  0  0  0  0  0  0  8  0  0
   -0.2924   -2.1557    0.7848 H   0  0  0  0  0  0  0  0  0  9  0  0
   -2.2417   -1.0206   -0.2534 H   0  0  0  0  0  0  0  0  0 10  0  0
   -1.0769   -1.0814   -1.5727 H   0  0  0  0  0  0  0  0  0 11  0  0
   -0.9249    1.3092   -1.4944 H   0  0  0  0  0  0  0  0  0 12  0  0
   -2.0935    1.3103   -0.1770 H   0  0  0  0  0  0  0  0  0 13  0  0
   -0.0206    2.1196    0.9249 H   0  0  0  0  0  0  0  0  0 14  0  0
    1.4248    1.1518   -1.1514 H   0  0  0  0  0  0  0  0  0 15  0  0
    2.1542    1.0215    0.4460 H   0  0  0  0  0  0  0  0  0 16  0  0
    1.2724   -1.2452   -1.2300 H   0  0  0  0  0  0  0  0  0 17  0  0
    2.0058   -1.3127    0.3695 H   0  0  0  0  0  0  0  0  0 18  0  0
  1  5  1  0
  1  8  1  0
  1  2  1  0
  2  3  1  0
  2  9  1  0
  2  7  1  0
  3  4  1  0
  3 11  1  0
  3 10  1  0
  4 12  1  0
  4  5  1  0
  4 13  1  0
  5 14  1  0
  5  6  1  0
  6  7  1  0
  6 16  1  0
  6 15  1  0
  7 17  1  0
  7 18  1  0
M  RAD  1   1   2
M  END
>  <rmg_smiles>  (4) 
[CH]1C2CCC1CC2

>  <rmg_adjacency_list>  (4) 
multiplicity 2
1  C u0 p0 c0 {3,S} {6,S} {7,S} {8,S}
2  C u0 p0 c0 {4,S} {5,S} {7,S} {9,S}
3  C u0 p0 c0 {1,S} {4,S} {10,S} {11,S}
4  C u0 p0 c0 {2,S} {3,S} {12,S} {13,S}
5  C u0 p0 c0 {2,S} {6,S} {14,S} {15,S}
6  C u0 p0 c0 {1,S} {5,S} {16,S} {17,S}
7  C u1 p0 c0 {1,S} {2,S} {18,S}
8  H u0 p0 c0 {1,S}
9  H u0 p0 c0 {2,S}
10 H u0 p0 c0 {3,S}
11 H u0 p0 c0 {3,S}
12 H u0 p0 c0 {4,S}
13 H u0 p0 c0 {4,S}
14 H u0 p0 c0 {5,S}
15 H u0 p0 c0 {5,S}
16 H u0 p0 c0 {6,S}
17 H u0 p0 c0 {6,S}
18 H u0 p0 c0 {7,S}


>  <multiplicity>  (4) 
2

>  <reaction>  (4) 
rxn_548

>  <type>  (4) 
r1

>  <role_mapnums>  (4) 
{}

>  <role_mapidx>  (4) 
{}

>  <ordered_mapped_smiles>  (4) 
[C:1]1([H:8])[C:2]2([H:9])[C:3]([H:10])([H:11])[C:4]([H:12])([H:13])[C:5]1([H:14])[C:6]([H:15])([H:16])[C:7]2([H:17])[H:18]

>  <level_of_theory>  (4) 
wb97xd/def2tzvp

>  <lot_method>  (4) 
wb97xd

>  <lot_basis>  (4) 
def2tzvp

>  <spin_multiplicity>  (4) 
2.0

>  <optical_isomers>  (4) 
1.0

>  <modes>  (4) 
IdealGasTranslation(mass=(95.0861, 'amu')),         NonlinearRotor(             inertia = ([131.698, 150.873, 179.768

>  <frequency_value>  (4) 
unknown

>  <frequency_units>  (4) 
unknown

>  <frequency_list>  (4) 
unknown

>  <arkane_path>  (4) 
/home/calvin/Dropbox/PersonalFolders/Calvin/HAb_Converged/rxn_548/output/Species/rxn_548_[CH]1C2CCC1CC2/arkane/output.py

>  <path_exists>  (4) 
True

>  <E0_value>  (4) 
-717147.6579749513

>  <E0_units>  (4) 
kJ/mol

>  <thermo_class>  (4) 
NASA

>  <Cp0_value>  (4) 
33.257888

>  <Cp0_units>  (4) 
J/(mol*K)

>  <CpInf_value>  (4) 
432.352544

>  <CpInf_units>  (4) 
J/(mol*K)

>  <Tmin_value>  (4) 
10.0

>  <Tmin_units>  (4) 
K

>  <Tmax_value>  (4) 
3000.0

>  <Tmax_units>  (4) 
K

>  <polynomials>  (4) 
[{"name": "polynomial1", "class": "NASAPolynomial", "Tmin_value": 10.0, "Tmin_units": "K", "Tmax_value": 635.4498092577459, "Tmax_units": "K", "coeffs": [4.184728400170363, -0.015020053566978274, 0.0002519980537941916, -3.8445072657376267e-07, 1.8817067904219946e-10, -86252940.34420538, 11.259462352099021]}, {"name": "polynomial2", "class": "NASAPolynomial", "Tmin_value": 635.4498092577459, "Tmin_units": "K", "Tmax_value": 3000.0, "Tmax_units": "K", "coeffs": [-5.266495648947054, 0.07829303837726027, -4.810367347510083e-05, 1.4148661403012806e-08, -1.5981910685037683e-12, -86252422.00760801, 47.19803798188497]}]

>  <H298_value>  (4) 
-171398.16399978104

>  <H298_units>  (4) 
kcal/mol

>  <S298_value>  (4) 
77.09002517122175

>  <S298_units>  (4) 
cal/(mol*K)

>  <Cp_T_value_list>  (4) 
[26.832355247397707, 37.17808695464531, 46.45799001661323, 54.126653698598815, 65.9177850357397, 74.4672640412527, 86.6435677559895, 92.45104915812537, 95.63746949779204]

>  <Cp_T_units>  (4) 
cal/(mol*K)

>  <T_list>  (4) 
[300.0, 400.0, 500.0, 600.0, 800.0, 1000.0, 1500.0, 2000.0, 2400.0]

>  <T_units>  (4) 
K

>  <yaml_path>  (4) 
/home/calvin/Dropbox/PersonalFolders/Calvin/HAb_Converged/rxn_548/output/Species/rxn_548_[CH]1C2CCC1CC2/rxn_548_CH1C2CCC1CC2.yml

>  <frequencies_cm1>  (4) 
[142.57921619916, 339.05740017499994, 342.51836077628, 406.3813242522799, 543.5493560192799, 660.4597810922799, 754.13919482772, 763.8834469968, 814.36952306944, 824.3472527393999, 832.64943799128, 877.8136004409199, 896.9656224984, 945.8036220942399, 950.5899108622799, 962.6414700988798, 996.8802589044, 1004.1867312848799, 1013.1275461715198, 1085.5399063709199, 1119.11946458572, 1163.69306629784, 1188.27687374344, 1199.57993158016, 1230.33715882844, 1235.5972695835599, 1270.0008660367598, 1274.4506725241201, 1280.5966243855198, 1295.7108590748398, 1325.0328863912398, 1339.21321107704, 1348.0235532425997, 1470.44816752756, 1485.7409438352, 1490.2662871610798, 1508.79341355444, 3026.5001740542393, 3030.34568583344, 3037.5697543900797, 3042.08823073064, 3066.5552994257996, 3070.6480226765193, 3086.5176257510398, 3091.4549881961198, 3096.85243865764, 3100.3408672001997, 3171.9703910731196]

>  <ZPE_kJmol>  (4) 
425.88988225412487

>  <E_elec_kJmol>  (4) 
-717573.5478572055

>  <E0_minus_Eelec_plus_ZPE_kJmol>  (4) 
0.0

>  <rxn>  (4) 
rxn_548

>  <species_type>  (4) 
p1

>  <species_folder>  (4) 
rxn_548_[CH]1C2CCC1CC2

>  <frequencies_cm1_list>  (4) 
[142.57921619916, 339.05740017499994, 342.51836077628, 406.3813242522799, 543.5493560192799, 660.4597810922799, 754.13919482772, 763.8834469968, 814.36952306944, 824.3472527393999, 832.64943799128, 877.8136004409199, 896.9656224984, 945.8036220942399, 950.5899108622799, 962.6414700988798, 996.8802589044, 1004.1867312848799, 1013.1275461715198, 1085.5399063709199, 1119.11946458572, 1163.69306629784, 1188.27687374344, 1199.57993158016, 1230.33715882844, 1235.5972695835599, 1270.0008660367598, 1274.4506725241201, 1280.5966243855198, 1295.7108590748398, 1325.0328863912398, 1339.21321107704, 1348.0235532425997, 1470.44816752756, 1485.7409438352, 1490.2662871610798, 1508.79341355444, 3026.5001740542393, 3030.34568583344, 3037.5697543900797, 3042.08823073064, 3066.5552994257996, 3070.6480226765193, 3086.5176257510398, 3091.4549881961198, 3096.85243865764, 3100.3408672001997, 3171.9703910731196]

>  <E0_kJmol>  (4) 
-717148

>  <H298_kJmol>  (4) 
-717130

$$$$

     RDKit          3D

 17 17  0  0  0  0  0  0  0  0999 V2000
    2.7069    0.2860   -0.1817 C   0  0  0  0  0  0  0  0  0  1  0  0
    1.6304   -0.7245    0.0085 C   0  0  0  0  0  0  0  0  0  2  0  0
    1.4786   -1.8800   -0.7837 C   0  0  0  0  0  0  0  0  0  3  0  0
    0.4231   -2.7891   -0.5312 C   0  0  0  0  0  3  0  0  0  4  0  0
    0.2582   -3.9235   -1.2940 C   0  0  0  0  0  0  0  0  0  5  0  0
    1.1348   -4.2030   -2.3401 C   0  0  0  0  0  0  0  0  0  6  0  0
    2.1804   -3.3260   -2.6093 C   0  0  0  0  0  0  0  0  0  7  0  0
    2.3549   -2.1866   -1.8513 C   0  0  0  0  0  0  0  0  0  8  0  0
    2.6698    0.7343   -1.1808 H   0  0  0  0  0  0  0  0  0  9  0  0
    3.7029   -0.1584   -0.0766 H   0  0  0  0  0  0  0  0  0 10  0  0
    2.6250    1.0917    0.5463 H   0  0  0  0  0  0  0  0  0 11  0  0
    0.9136   -0.5677    0.8059 H   0  0  0  0  0  0  0  0  0 12  0  0
   -0.2629   -2.5783    0.2811 H   0  0  0  0  0  0  0  0  0 13  0  0
   -0.5582   -4.6017   -1.0785 H   0  0  0  0  0  0  0  0  0 14  0  0
    1.0033   -5.0952   -2.9384 H   0  0  0  0  0  0  0  0  0 15  0  0
    2.8650   -3.5382   -3.4214 H   0  0  0  0  0  0  0  0  0 16  0  0
    3.1750   -1.5169   -2.0772 H   0  0  0  0  0  0  0  0  0 17  0  0
  1 10  1  0
  1 11  1  0
  1  9  1  0
  1  2  1  0
  2 12  1  0
  2  3  1  0
  3  4  1  0
  3  8  1  0
  4  5  1  0
  4 13  1  0
  5 14  1  0
  5  6  1  0
  6 15  1  0
  6  7  1  0
  7  8  1  0
  7 16  1  0
  8 17  1  0
M  RAD  1   4   2
M  END
>  <rmg_smiles>  (5) 
C[CH]C1[CH][CH][CH][CH][CH]1

>  <rmg_adjacency_list>  (5) 
multiplicity 2
1  C u0 p0 c0 {3,S} {9,S} {10,S} {11,S}
2  C u0 p0 c0 {3,S} {4,S} {5,S}
3  C u0 p0 c0 {1,S} {2,S} {12,S}
4  C u1 p0 c0 {2,S} {6,S} {13,S}
5  C u0 p0 c0 {2,S} {8,S} {17,S}
6  C u0 p0 c0 {4,S} {7,S} {14,S}
7  C u0 p0 c0 {6,S} {8,S} {15,S}
8  C u0 p0 c0 {5,S} {7,S} {16,S}
9  H u0 p0 c0 {1,S}
10 H u0 p0 c0 {1,S}
11 H u0 p0 c0 {1,S}
12 H u0 p0 c0 {3,S}
13 H u0 p0 c0 {4,S}
14 H u0 p0 c0 {6,S}
15 H u0 p0 c0 {7,S}
16 H u0 p0 c0 {8,S}
17 H u0 p0 c0 {5,S}


>  <multiplicity>  (5) 
2

>  <reaction>  (5) 
rxn_548

>  <type>  (5) 
r2

>  <role_mapnums>  (5) 
{}

>  <role_mapidx>  (5) 
{}

>  <ordered_mapped_smiles>  (5) 
[C:1]([CH:2]([CH:3]1[C:4]([H:13])[CH:5]([H:14])[CH:6]([H:15])[CH:7]([H:16])[CH:8]1[H:17])[H:12])([H:9])([H:10])[H:11]

>  <level_of_theory>  (5) 
wb97xd/def2tzvp

>  <lot_method>  (5) 
wb97xd

>  <lot_basis>  (5) 
def2tzvp

>  <spin_multiplicity>  (5) 
2.0

>  <optical_isomers>  (5) 
1.0

>  <modes>  (5) 
IdealGasTranslation(mass=(105.07, 'amu')),         NonlinearRotor(             inertia = ([100.906, 335.03, 432.828

>  <frequency_value>  (5) 
unknown

>  <frequency_units>  (5) 
unknown

>  <frequency_list>  (5) 
unknown

>  <arkane_path>  (5) 
/home/calvin/Dropbox/PersonalFolders/Calvin/HAb_Converged/rxn_548/output/Species/rxn_548_C[CH]c1ccccc1/arkane/output.py

>  <path_exists>  (5) 
True

>  <E0_value>  (5) 
-814145.4390471868

>  <E0_units>  (5) 
kJ/mol

>  <thermo_class>  (5) 
NASA

>  <Cp0_value>  (5) 
33.257888

>  <Cp0_units>  (5) 
J/(mol*K)

>  <CpInf_value>  (5) 
407.409128

>  <CpInf_units>  (5) 
J/(mol*K)

>  <Tmin_value>  (5) 
10.0

>  <Tmin_units>  (5) 
K

>  <Tmax_value>  (5) 
3000.0

>  <Tmax_units>  (5) 
K

>  <polynomials>  (5) 
[{"name": "polynomial1", "class": "NASAPolynomial", "Tmin_value": 10.0, "Tmin_units": "K", "Tmax_value": 500.0181965945725, "Tmax_units": "K", "coeffs": [3.899986948526094, 0.0061904905300886525, 0.00020706851194563026, -3.977105955988957e-07, 2.4150499526027994e-10, -97919075.07363199, 12.718849532292747]}, {"name": "polynomial2", "class": "NASAPolynomial", "Tmin_value": 500.0181965945725, "Tmin_units": "K", "Tmax_value": 3000.0, "Tmax_units": "K", "coeffs": [-1.970517894513406, 0.07180867834424715, -4.574442536416197e-05, 1.397905514411292e-08, -1.6399820111971568e-12, -97918721.21698426, 34.639664550558976]}]

>  <H298_value>  (5) 
-194580.26959244045

>  <H298_units>  (5) 
kcal/mol

>  <S298_value>  (5) 
85.3392210607043

>  <S298_units>  (5) 
cal/(mol*K)

>  <Cp_T_value_list>  (5) 
[31.02288591619177, 40.21349792515304, 47.9763276039249, 54.55603245481067, 64.9529019753296, 72.39951333986244, 82.85547162555633, 87.95746847782826, 90.85152645234143]

>  <Cp_T_units>  (5) 
cal/(mol*K)

>  <T_list>  (5) 
[300.0, 400.0, 500.0, 600.0, 800.0, 1000.0, 1500.0, 2000.0, 2400.0]

>  <T_units>  (5) 
K

>  <yaml_path>  (5) 
/home/calvin/Dropbox/PersonalFolders/Calvin/HAb_Converged/rxn_548/output/Species/rxn_548_C[CH]c1ccccc1/rxn_548_CCHc1ccccc1.yml

>  <frequencies_cm1>  (5) 
[105.45629355923998, 120.83147369072, 216.25510169744, 238.46979920763997, 411.38735655056, 430.68358529975995, 477.9078433454, 558.86273328288, 625.17721051812, 625.35575213644, 690.24189642512, 769.39763620876, 797.72395065376, 833.5833479948, 901.31929119128, 970.7101778498799, 980.6055036959999, 988.6055415938, 1000.11460899012, 1025.94134077864, 1044.8942202618398, 1074.80680831576, 1128.88431771076, 1167.6621838128, 1182.4262022508, 1237.72603503276, 1316.38048488804, 1342.4681621187199, 1389.5344795019998, 1422.2556645518, 1466.88420214648, 1475.4885347524398, 1484.7520979491198, 1503.6912434616797, 1594.2805138031197, 1610.7269436445201, 2982.0364441072397, 3025.80660853692, 3101.1374374973198, 3147.482721422, 3152.804635045, 3154.61751916948, 3165.4673559750795, 3173.5635316673593, 3183.0811733208798]

>  <ZPE_kJmol>  (5) 
372.6218456560276

>  <E_elec_kJmol>  (5) 
-814518.0608928428

>  <E0_minus_Eelec_plus_ZPE_kJmol>  (5) 
0.0

>  <rxn>  (5) 
rxn_548

>  <species_type>  (5) 
r0

>  <species_folder>  (5) 
rxn_548_C[CH]c1ccccc1

>  <frequencies_cm1_list>  (5) 
[105.45629355923998, 120.83147369072, 216.25510169744, 238.46979920763997, 411.38735655056, 430.68358529975995, 477.9078433454, 558.86273328288, 625.17721051812, 625.35575213644, 690.24189642512, 769.39763620876, 797.72395065376, 833.5833479948, 901.31929119128, 970.7101778498799, 980.6055036959999, 988.6055415938, 1000.11460899012, 1025.94134077864, 1044.8942202618398, 1074.80680831576, 1128.88431771076, 1167.6621838128, 1182.4262022508, 1237.72603503276, 1316.38048488804, 1342.4681621187199, 1389.5344795019998, 1422.2556645518, 1466.88420214648, 1475.4885347524398, 1484.7520979491198, 1503.6912434616797, 1594.2805138031197, 1610.7269436445201, 2982.0364441072397, 3025.80660853692, 3101.1374374973198, 3147.482721422, 3152.804635045, 3154.61751916948, 3165.4673559750795, 3173.5635316673593, 3183.0811733208798]

>  <E0_kJmol>  (5) 
-814145

>  <H298_kJmol>  (5) 
-814124

$$$$
