
     RDKit          3D

  7  6  0  0  0  0  0  0  0  0999 V2000
   -0.9615   -0.8198   -1.6577 O   0  0  0  0  0  0  0  0  0  1  0  0
   -0.5854   -0.9581   -0.5525 C   0  0  0  0  0  0  0  0  0  2  0  0
    0.1553    0.1363    0.2667 C   0  0  0  0  0  0  0  0  0  3  0  0
   -0.5794    0.4481    1.3303 F   0  0  0  0  0  0  0  0  0  4  0  0
    1.3198   -0.3600    0.6825 F   0  0  0  0  0  0  0  0  0  5  0  0
    0.3792    1.2277   -0.4422 F   0  0  0  0  0  0  0  0  0  6  0  0
   -0.7075   -1.8761    0.0224 H   0  0  0  0  0  0  0  0  0  7  0  0
  1  2  1  0
  2  7  1  0
  2  3  1  0
  3  5  1  0
  3  6  1  0
  3  4  1  0
M  END
>  <rmg_smiles>  (1) 
O[CH]C(F)(F)F

>  <rmg_adjacency_list>  (1) 
1 F u0 p3 c0 {5,S}
2 F u0 p3 c0 {5,S}
3 F u0 p3 c0 {5,S}
4 O u0 p2 c0 {6,S}
5 C u0 p0 c0 {1,S} {2,S} {3,S} {6,S}
6 C u0 p0 c0 {4,S} {5,S} {7,S}
7 H u0 p0 c0 {6,S}


>  <multiplicity>  (1) 
1

>  <reaction>  (1) 
rxn_3199

>  <type>  (1) 
r1h

>  <role_mapnums>  (1) 
{"r1h_a": 2, "r1h_h": 7}

>  <role_mapidx>  (1) 
{"r1h_a": 1, "r1h_h": 6}

>  <ordered_mapped_smiles>  (1) 
[OH:1][CH:2]([C:3]([F:4])([F:5])[F:6])[H:7]

>  <mol_properties>  (1) 
{"1": {"label": "donator", "atom_type": "Cs"}, "6": {"label": "d_hydrogen", "atom_type": "H0"}}

>  <level_of_theory>  (1) 
wb97xd/def2tzvp

>  <lot_method>  (1) 
wb97xd

>  <lot_basis>  (1) 
def2tzvp

>  <spin_multiplicity>  (1) 
1.0

>  <optical_isomers>  (1) 
1.0

>  <modes>  (1) 
IdealGasTranslation(mass=(97.998, 'amu')),         NonlinearRotor(             inertia = ([91.9471, 169.12, 172.158

>  <frequency_value>  (1) 
unknown

>  <frequency_units>  (1) 
unknown

>  <frequency_list>  (1) 
unknown

>  <arkane_path>  (1) 
/home/calvin/Dropbox/PersonalFolders/Calvin/ATLAS_Converged/NonRMG/rxn_3199/output/Species/rxn_3199_r2_O=CCrbr-F-rbrrbr-F-rbrF/arkane/output.py

>  <path_exists>  (1) 
True

>  <E0_value>  (1) 
-1185626.196104497

>  <E0_units>  (1) 
kJ/mol

>  <thermo_class>  (1) 
NASA

>  <Cp0_value>  (1) 
33.257888

>  <Cp0_units>  (1) 
J/(mol*K)

>  <CpInf_value>  (1) 
157.97496800000002

>  <CpInf_units>  (1) 
J/(mol*K)

>  <Tmin_value>  (1) 
10.0

>  <Tmin_units>  (1) 
K

>  <Tmax_value>  (1) 
3000.0

>  <Tmax_units>  (1) 
K

>  <polynomials>  (1) 
[{"name": "polynomial1", "class": "NASAPolynomial", "Tmin_value": 10.0, "Tmin_units": "K", "Tmax_value": 580.1697869375803, "Tmax_units": "K", "coeffs": [3.820146520011395, 0.015784903175908294, 3.972199304260754e-05, -1.0158616592287278e-07, 6.384705418462712e-11, -142597890.25381836, 10.694606153238256]}, {"name": "polynomial2", "class": "NASAPolynomial", "Tmin_value": 580.1697869375803, "Tmin_units": "K", "Tmax_value": 3000.0, "Tmax_units": "K", "coeffs": [4.926067241363566, 0.02264800775676391, -1.547999362659787e-05, 4.888135678558691e-09, -5.809012229089591e-13, -142598262.4075484, 3.859917128308458]}]

>  <H298_value>  (1) 
-283367.4415531588

>  <H298_units>  (1) 
kcal/mol

>  <S298_value>  (1) 
75.82333525974536

>  <S298_units>  (1) 
cal/(mol*K)

>  <Cp_T_value_list>  (1) 
[19.683144279445447, 23.096499611439434, 25.7050457098044, 27.66713428450314, 30.6070853897849, 32.5928014360037, 35.02399530405501, 35.99382246258668, 36.598783097899656]

>  <Cp_T_units>  (1) 
cal/(mol*K)

>  <T_list>  (1) 
[300.0, 400.0, 500.0, 600.0, 800.0, 1000.0, 1500.0, 2000.0, 2400.0]

>  <T_units>  (1) 
K

>  <yaml_path>  (1) 
/home/calvin/Dropbox/PersonalFolders/Calvin/ATLAS_Converged/NonRMG/rxn_3199/output/Species/rxn_3199_r2_O=CCrbr-F-rbrrbr-F-rbrF/rxn_3199_r2_O=CCrbr-F-rbrrbr-F-rbrF.yml

>  <frequencies_cm1>  (1) 
[74.1977763826, 251.83295264036, 311.417784262, 426.66639888756004, 525.30377602404, 529.7329815554399, 707.5398324461999, 842.4486260429198, 979.4518501622399, 1183.7583974028798, 1201.73616497064, 1309.6508392744402, 1398.09761019604, 1873.3273292666397, 2942.3521359429596]

>  <ZPE_kJmol>  (1) 
87.07329793785837

>  <E_elec_kJmol>  (1) 
-1185713.2694024348

>  <E0_minus_Eelec_plus_ZPE_kJmol>  (1) 
0.0

>  <rxn>  (1) 
rxn_3199

>  <species_type>  (1) 
r1

>  <species_folder>  (1) 
rxn_3199_r2_O=CCrbr-F-rbrrbr-F-rbrF

>  <frequencies_cm1_list>  (1) 
[74.1977763826, 251.83295264036, 311.417784262, 426.66639888756004, 525.30377602404, 529.7329815554399, 707.5398324461999, 842.4486260429198, 979.4518501622399, 1183.7583974028798, 1201.73616497064, 1309.6508392744402, 1398.09761019604, 1873.3273292666397, 2942.3521359429596]

>  <E0_kJmol>  (1) 
-1.18563e+06

>  <H298_kJmol>  (1) 
-1.18561e+06

$$$$

     RDKit          3D

  7  7  0  0  0  0  0  0  0  0999 V2000
   -1.5910    1.0637    0.6229 N   0  0  0  0  0  0  0  0  0  1  0  0
   -0.6003    0.4124    0.2293 C   0  0  0  0  0  0  0  0  0  2  0  0
   -0.2697   -0.8408    0.6488 O   0  0  0  0  0  0  0  0  0  3  0  0
    0.8814   -1.1967   -0.0208 N   0  0  0  0  0  0  0  0  0  4  0  0
    1.2371   -0.2985   -0.7644 N   0  0  0  0  0  0  0  0  0  5  0  0
    0.3583    0.7653   -0.6754 O   0  0  0  0  0  0  0  0  0  6  0  0
   -1.5886    1.9735    0.1191 H   0  0  0  0  0  0  0  0  0  7  0  0
  1  2  1  0
  1  7  1  0
  2  3  1  0
  2  6  1  0
  3  4  1  0
  4  5  1  0
  5  6  1  0
M  END
>  <rmg_smiles>  (2) 
[NH][C]1O[N][N]O1

>  <rmg_adjacency_list>  (2) 
1 O u0 p2 c0 {3,S} {6,S}
2 O u0 p2 c0 {4,S} {6,S}
3 N u0 p1 c0 {1,S} {4,S}
4 N u0 p1 c0 {2,S} {3,S}
5 N u0 p1 c0 {6,S} {7,S}
6 C u0 p0 c0 {1,S} {2,S} {5,S}
7 H u0 p0 c0 {5,S}


>  <multiplicity>  (2) 
1

>  <reaction>  (2) 
rxn_3199

>  <type>  (2) 
r2h

>  <role_mapnums>  (2) 
{"r2h_a": 1, "r2h_h": 7}

>  <role_mapidx>  (2) 
{"r2h_a": 0, "r2h_h": 6}

>  <ordered_mapped_smiles>  (2) 
[NH:1]([CH:2]1[O:3][NH:4][NH:5][O:6]1)[H:7]

>  <mol_properties>  (2) 
{"0": {"label": "acceptor", "atom_type": "N3s"}, "6": {"label": "a_hydrogen", "atom_type": "H0"}}

>  <level_of_theory>  (2) 
wb97xd/def2tzvp

>  <lot_method>  (2) 
wb97xd

>  <lot_basis>  (2) 
def2tzvp

>  <spin_multiplicity>  (2) 
1.0

>  <optical_isomers>  (2) 
1.0

>  <modes>  (2) 
IdealGasTranslation(mass=(87.0069, 'amu')),         NonlinearRotor(             inertia = ([48.8575, 120.721, 169.578

>  <frequency_value>  (2) 
unknown

>  <frequency_units>  (2) 
unknown

>  <frequency_list>  (2) 
unknown

>  <arkane_path>  (2) 
/home/calvin/Dropbox/PersonalFolders/Calvin/ATLAS_Converged/NonRMG/rxn_3199/output/Species/rxn_3199_p1_N=c1onno1/arkane/output.py

>  <path_exists>  (2) 
True

>  <E0_value>  (2) 
-927513.3956974436

>  <E0_units>  (2) 
kJ/mol

>  <thermo_class>  (2) 
NASA

>  <Cp0_value>  (2) 
33.257888

>  <Cp0_units>  (2) 
J/(mol*K)

>  <CpInf_value>  (2) 
157.97496800000002

>  <CpInf_units>  (2) 
J/(mol*K)

>  <Tmin_value>  (2) 
10.0

>  <Tmin_units>  (2) 
K

>  <Tmax_value>  (2) 
3000.0

>  <Tmax_units>  (2) 
K

>  <polynomials>  (2) 
[{"name": "polynomial1", "class": "NASAPolynomial", "Tmin_value": 10.0, "Tmin_units": "K", "Tmax_value": 594.5510705426203, "Tmax_units": "K", "coeffs": [4.064128165333628, -0.006464132682369532, 0.00012609118943386684, -2.2452471871589397e-07, 1.2482881080850414e-10, -111554092.36102824, 9.73736041625877]}, {"name": "polynomial2", "class": "NASAPolynomial", "Tmin_value": 594.5510705426203, "Tmin_units": "K", "Tmax_value": 3000.0, "Tmax_units": "K", "coeffs": [2.6619435988700717, 0.02700063330274151, -1.8966063744434276e-05, 6.109629991067157e-09, -7.351884988814937e-13, -111554350.36753283, 12.201082878024012]}]

>  <H298_value>  (2) 
-221677.73393283132

>  <H298_units>  (2) 
kcal/mol

>  <S298_value>  (2) 
69.21240690289005

>  <S298_units>  (2) 
cal/(mol*K)

>  <Cp_T_value_list>  (2) 
[16.736335365541446, 20.824137553247738, 24.027452944596273, 26.348252322457366, 29.711055843773885, 31.936305555783512, 34.552273976473494, 35.596788664173474, 36.33939231381346]

>  <Cp_T_units>  (2) 
cal/(mol*K)

>  <T_list>  (2) 
[300.0, 400.0, 500.0, 600.0, 800.0, 1000.0, 1500.0, 2000.0, 2400.0]

>  <T_units>  (2) 
K

>  <yaml_path>  (2) 
/home/calvin/Dropbox/PersonalFolders/Calvin/ATLAS_Converged/NonRMG/rxn_3199/output/Species/rxn_3199_p1_N=c1onno1/rxn_3199_p1_N=c1onno1.yml

>  <frequencies_cm1>  (2) 
[208.89369343439998, 445.44073675243993, 644.52150816456, 714.2214091625599, 757.75122910604, 783.81143839544, 819.0802749989599, 941.40875148944, 996.4545058145599, 1049.54316932348, 1062.20589025356, 1273.50302854996, 1598.9500638207198, 1829.7357064552798, 3558.0254387782]

>  <ZPE_kJmol>  (2) 
99.78979924741076

>  <E_elec_kJmol>  (2) 
-927613.1854966908

>  <E0_minus_Eelec_plus_ZPE_kJmol>  (2) 
0.0

>  <rxn>  (2) 
rxn_3199

>  <species_type>  (2) 
p0

>  <species_folder>  (2) 
rxn_3199_p1_N=c1onno1

>  <frequencies_cm1_list>  (2) 
[208.89369343439998, 445.44073675243993, 644.52150816456, 714.2214091625599, 757.75122910604, 783.81143839544, 819.0802749989599, 941.40875148944, 996.4545058145599, 1049.54316932348, 1062.20589025356, 1273.50302854996, 1598.9500638207198, 1829.7357064552798, 3558.0254387782]

>  <E0_kJmol>  (2) 
-927513

>  <H298_kJmol>  (2) 
-927500

$$$$

     RDKit          3D

 13 12  0  0  0  0  0  0  0  0999 V2000
   -1.0609   -1.2270    0.7131 N   0  0  0  0  0  2  0  0  0  1  0  0
   -0.0702   -1.8783    0.3194 C   0  0  0  0  0  0  0  0  0  2  0  0
    0.2604   -3.1315    0.7389 O   0  0  0  0  0  0  0  0  0  3  0  0
    1.4115   -3.4874    0.0693 N   0  0  0  0  0  0  0  0  0  4  0  0
    1.7672   -2.5892   -0.6742 N   0  0  0  0  0  0  0  0  0  5  0  0
    0.8884   -1.5254   -0.5852 O   0  0  0  0  0  0  0  0  0  6  0  0
   -1.2941    1.1818   -1.7256 O   0  0  0  0  0  0  0  0  0  7  0  0
   -0.9181    1.0435   -0.6204 C   0  0  0  0  0  0  0  0  0  8  0  0
   -0.1773    2.1379    0.1988 C   0  0  0  0  0  0  0  0  0  9  0  0
   -0.9121    2.4497    1.2624 F   0  0  0  0  0  0  0  0  0 10  0  0
    0.9871    1.6416    0.6146 F   0  0  0  0  0  0  0  0  0 11  0  0
    0.0466    3.2294   -0.5101 F   0  0  0  0  0  0  0  0  0 12  0  0
   -1.0577   -0.0066    0.0373 H   0  0  0  0  0  0  0  0  0 13  0  0
  1  2  1  0
  2  3  1  0
  2  6  1  0
  3  4  1  0
  4  5  1  0
  5  6  1  0
  7  8  1  0
  8  9  1  0
  8 13  1  0
  9 10  1  0
  9 12  1  0
  9 11  1  0
M  RAD  1   1   2
M  END
>  <rmg_smiles>  (3) 
[N][C]1O[N][N]O1.[O][CH]C(F)(F)F

>  <rmg_adjacency_list>  (3) 
multiplicity 2
1  F u0 p3 c0 {10,S}
2  F u0 p3 c0 {10,S}
3  F u0 p3 c0 {10,S}
4  O u0 p2 c0 {7,S} {12,S}
5  O u0 p2 c0 {8,S} {12,S}
6  O u0 p2 c0 {11,S}
7  N u0 p1 c0 {4,S} {8,S}
8  N u0 p1 c0 {5,S} {7,S}
9  N u1 p2 c0 {12,S}
10 C u0 p0 c0 {1,S} {2,S} {3,S} {11,S}
11 C u0 p0 c0 {6,S} {10,S} {13,S}
12 C u0 p0 c0 {4,S} {5,S} {9,S}
13 H u0 p0 c0 {11,S}


>  <multiplicity>  (3) 
2

>  <reaction>  (3) 
rxn_3199

>  <type>  (3) 
ts

>  <role_mapnums>  (3) 
{"*2": 13, "*1": 8, "*3": 1, "*0": 9, "*4": 2}

>  <role_mapidx>  (3) 
{"*2": 12, "*1": 7, "*3": 0, "*0": 8, "*4": 1}

>  <ordered_mapped_smiles>  (3) 
[NH:1][CH:2]1[O:3][NH:4][NH:5][O:6]1.[OH:7][CH:8]([C:9]([F:10])([F:11])[F:12])[H:13]

>  <mol_properties>  (3) 
{"0": {"label": "*3", "atom_type": "N1s"}, "1": {"label": "*4", "atom_type": "Cs"}, "7": {"label": "*1", "atom_type": "Cs"}, "8": {"label": "*0", "atom_type": "Cs"}, "12": {"label": "*2", "atom_type": "H0"}}

>  <level_of_theory>  (3) 
wb97xd/def2tzvp

>  <lot_method>  (3) 
wb97xd

>  <lot_basis>  (3) 
def2tzvp

>  <spin_multiplicity>  (3) 
2.0

>  <optical_isomers>  (3) 
2.0

>  <modes>  (3) 
IdealGasTranslation(mass=(183.997, 'amu')),         NonlinearRotor(             inertia = ([251.023, 1143.7, 1149.42

>  <frequency_value>  (3) 
-1426.48

>  <frequency_units>  (3) 
cm^-1

>  <frequency_list>  (3) 
unknown

>  <arkane_path>  (3) 
/home/calvin/Dropbox/PersonalFolders/Calvin/ATLAS_Converged/NonRMG/rxn_3199/output/rxns/TS0/arkane/output.py

>  <path_exists>  (3) 
True

>  <E0_value>  (3) 
-2111380.0

>  <E0_units>  (3) 
kJ/mol

>  <thermo_class>  (3) 
unknown

>  <Cp0_value>  (3) 
unknown

>  <Cp0_units>  (3) 
unknown

>  <CpInf_value>  (3) 
unknown

>  <CpInf_units>  (3) 
unknown

>  <Tmin_value>  (3) 
unknown

>  <Tmin_units>  (3) 
unknown

>  <Tmax_value>  (3) 
unknown

>  <Tmax_units>  (3) 
unknown

>  <polynomials>  (3) 
unknown

>  <H298_value>  (3) 
unknown

>  <H298_units>  (3) 
unknown

>  <S298_value>  (3) 
unknown

>  <S298_units>  (3) 
unknown

>  <Cp_T_value_list>  (3) 
unknown

>  <Cp_T_units>  (3) 
unknown

>  <T_list>  (3) 
unknown

>  <T_units>  (3) 
unknown

>  <yaml_path>  (3) 
unknown

>  <frequencies_cm1>  (3) 
unknown

>  <ZPE_kJmol>  (3) 
unknown

>  <E_elec_kJmol>  (3) 
unknown

>  <E0_minus_Eelec_plus_ZPE_kJmol>  (3) 
unknown

>  <rxn>  (3) 
unknown

>  <species_type>  (3) 
unknown

>  <species_folder>  (3) 
unknown

>  <frequencies_cm1_list>  (3) 
[]

>  <ts_imag_freq_cm1>  (3) 
-1443.8017

>  <ts_freq_out_path>  (3) 
/home/calvin/Dropbox/PersonalFolders/Calvin/ATLAS_Converged/NonRMG/rxn_3199/output/rxns/TS0/geometry/freq.out

>  <E0_kJmol>  (3) 
-2.11138e+06

>  <H298_kJmol>  (3) 
unknown

$$$$

     RDKit          3D

  6  5  0  0  0  0  0  0  0  0999 V2000
    1.9756    0.2408   -0.1960 O   0  0  0  0  0  0  0  0  0  1  0  0
    1.0821   -0.2646    0.3526 C   0  0  0  0  0  3  0  0  0  2  0  0
   -0.4345   -0.0348    0.0220 C   0  0  0  0  0  0  0  0  0  3  0  0
   -0.6134    0.8193   -0.9765 F   0  0  0  0  0  0  0  0  0  4  0  0
   -1.0347    0.4390    1.1052 F   0  0  0  0  0  0  0  0  0  5  0  0
   -0.9751   -1.1998   -0.3074 F   0  0  0  0  0  0  0  0  0  6  0  0
  1  2  1  0
  2  3  1  0
  3  5  1  0
  3  6  1  0
  3  4  1  0
M  RAD  1   2   2
M  END
>  <rmg_smiles>  (4) 
O[C]C(F)(F)F

>  <rmg_adjacency_list>  (4) 
multiplicity 2
1 F u0 p3 c0 {5,S}
2 F u0 p3 c0 {5,S}
3 F u0 p3 c0 {5,S}
4 O u0 p2 c0 {6,S}
5 C u0 p0 c0 {1,S} {2,S} {3,S} {6,S}
6 C u1 p1 c0 {4,S} {5,S}


>  <multiplicity>  (4) 
2

>  <reaction>  (4) 
rxn_3199

>  <type>  (4) 
r1

>  <role_mapnums>  (4) 
{}

>  <role_mapidx>  (4) 
{}

>  <ordered_mapped_smiles>  (4) 
[OH:1][CH:2][C:3]([F:4])([F:5])[F:6]

>  <level_of_theory>  (4) 
wb97xd/def2tzvp

>  <lot_method>  (4) 
wb97xd

>  <lot_basis>  (4) 
def2tzvp

>  <spin_multiplicity>  (4) 
2.0

>  <optical_isomers>  (4) 
1.0

>  <modes>  (4) 
IdealGasTranslation(mass=(96.9901, 'amu')),         NonlinearRotor(             inertia = ([89.2224, 169.151, 169.375

>  <frequency_value>  (4) 
unknown

>  <frequency_units>  (4) 
unknown

>  <frequency_list>  (4) 
unknown

>  <arkane_path>  (4) 
/home/calvin/Dropbox/PersonalFolders/Calvin/ATLAS_Converged/NonRMG/rxn_3199/output/Species/rxn_3199_p2_O=sbr-C-sbrCrbr-F-rbrrbr-F-rbrF/arkane/output.py

>  <path_exists>  (4) 
True

>  <E0_value>  (4) 
-1183934.0299365383

>  <E0_units>  (4) 
kJ/mol

>  <thermo_class>  (4) 
NASA

>  <Cp0_value>  (4) 
33.257888

>  <Cp0_units>  (4) 
J/(mol*K)

>  <CpInf_value>  (4) 
133.031552

>  <CpInf_units>  (4) 
J/(mol*K)

>  <Tmin_value>  (4) 
10.0

>  <Tmin_units>  (4) 
K

>  <Tmax_value>  (4) 
3000.0

>  <Tmax_units>  (4) 
K

>  <polynomials>  (4) 
[{"name": "polynomial1", "class": "NASAPolynomial", "Tmin_value": 10.0, "Tmin_units": "K", "Tmax_value": 533.7049788508248, "Tmax_units": "K", "coeffs": [3.8084993226330828, 0.016077407772623002, 4.035135308510034e-05, -1.2170370525138488e-07, 8.611599534386445e-11, -142394369.5142516, 11.693685639050088]}, {"name": "polynomial2", "class": "NASAPolynomial", "Tmin_value": 533.7049788508248, "Tmin_units": "K", "Tmax_value": 3000.0, "Tmax_units": "K", "coeffs": [5.718523805725629, 0.018516398014139797, -1.359190074527326e-05, 4.4978834353267995e-09, -5.522350714945102e-13, -142394812.00630364, 1.4427992349123906]}]

>  <H298_value>  (4) 
-282963.03188992734

>  <H298_units>  (4) 
kcal/mol

>  <S298_value>  (4) 
77.64019603188703

>  <S298_units>  (4) 
cal/(mol*K)

>  <Cp_T_value_list>  (4) 
[19.225990299349466, 22.080271269264937, 24.053799356460715, 25.506295227523378, 27.64114137653915, 28.990698748335536, 30.396331891513643, 30.863350252874927, 31.249690733806855]

>  <Cp_T_units>  (4) 
cal/(mol*K)

>  <T_list>  (4) 
[300.0, 400.0, 500.0, 600.0, 800.0, 1000.0, 1500.0, 2000.0, 2400.0]

>  <T_units>  (4) 
K

>  <yaml_path>  (4) 
/home/calvin/Dropbox/PersonalFolders/Calvin/ATLAS_Converged/NonRMG/rxn_3199/output/Species/rxn_3199_p2_O=sbr-C-sbrCrbr-F-rbrrbr-F-rbrF/rxn_3199_p2_O=sbr-C-sbrCrbr-F-rbrrbr-F-rbrF.yml

>  <frequencies_cm1>  (4) 
[49.89551533511999, 236.35476772907998, 395.38041376964, 410.18563411956, 531.8686139899598, 544.53820190536, 668.8375031826799, 785.4114459749999, 1156.6063374476, 1208.41087470168, 1226.24443557772, 1992.64119920164]

>  <ZPE_kJmol>  (4) 
55.06636663742564

>  <E_elec_kJmol>  (4) 
-1183989.096303176

>  <E0_minus_Eelec_plus_ZPE_kJmol>  (4) 
0.0

>  <rxn>  (4) 
rxn_3199

>  <species_type>  (4) 
p1

>  <species_folder>  (4) 
rxn_3199_p2_O=sbr-C-sbrCrbr-F-rbrrbr-F-rbrF

>  <frequencies_cm1_list>  (4) 
[49.89551533511999, 236.35476772907998, 395.38041376964, 410.18563411956, 531.8686139899598, 544.53820190536, 668.8375031826799, 785.4114459749999, 1156.6063374476, 1208.41087470168, 1226.24443557772, 1992.64119920164]

>  <E0_kJmol>  (4) 
-1.18393e+06

>  <H298_kJmol>  (4) 
-1.18392e+06

$$$$

     RDKit          3D

  6  6  0  0  0  0  0  0  0  0999 V2000
    1.9594    0.0134   -0.3734 N   0  0  0  0  0  2  0  0  0  1  0  0
    0.7437    0.0051   -0.0788 C   0  0  0  0  0  0  0  0  0  2  0  0
   -0.0745    1.0868    0.0233 O   0  0  0  0  0  0  0  0  0  3  0  0
   -1.3223    0.5972    0.3682 N   0  0  0  0  0  0  0  0  0  4  0  0
   -1.2899   -0.6150    0.4676 N   0  0  0  0  0  0  0  0  0  5  0  0
   -0.0165   -1.0874    0.2015 O   0  0  0  0  0  0  0  0  0  6  0  0
  1  2  1  0
  2  3  1  0
  2  6  1  0
  3  4  1  0
  4  5  1  0
  5  6  1  0
M  RAD  1   1   2
M  END
>  <rmg_smiles>  (5) 
[N][C]1O[N][N]O1

>  <rmg_adjacency_list>  (5) 
multiplicity 2
1 O u0 p2 c0 {3,S} {6,S}
2 O u0 p2 c0 {4,S} {6,S}
3 N u0 p1 c0 {1,S} {4,S}
4 N u0 p1 c0 {2,S} {3,S}
5 N u1 p2 c0 {6,S}
6 C u0 p0 c0 {1,S} {2,S} {5,S}


>  <multiplicity>  (5) 
2

>  <reaction>  (5) 
rxn_3199

>  <type>  (5) 
r2

>  <role_mapnums>  (5) 
{}

>  <role_mapidx>  (5) 
{}

>  <ordered_mapped_smiles>  (5) 
[NH:1][CH:2]1[O:3][NH:4][NH:5][O:6]1

>  <level_of_theory>  (5) 
wb97xd/def2tzvp

>  <lot_method>  (5) 
wb97xd

>  <lot_basis>  (5) 
def2tzvp

>  <spin_multiplicity>  (5) 
2.0

>  <optical_isomers>  (5) 
1.0

>  <modes>  (5) 
IdealGasTranslation(mass=(85.999, 'amu')),         NonlinearRotor(             inertia = ([48.4503, 114.569, 163.019

>  <frequency_value>  (5) 
unknown

>  <frequency_units>  (5) 
unknown

>  <frequency_list>  (5) 
unknown

>  <arkane_path>  (5) 
/home/calvin/Dropbox/PersonalFolders/Calvin/ATLAS_Converged/NonRMG/rxn_3199/output/Species/rxn_3199_r1_sbr-N-sbr=c1onno1/arkane/output.py

>  <path_exists>  (5) 
True

>  <E0_value>  (5) 
-925766.1233507326

>  <E0_units>  (5) 
kJ/mol

>  <thermo_class>  (5) 
NASA

>  <Cp0_value>  (5) 
33.257888

>  <Cp0_units>  (5) 
J/(mol*K)

>  <CpInf_value>  (5) 
133.031552

>  <CpInf_units>  (5) 
J/(mol*K)

>  <Tmin_value>  (5) 
10.0

>  <Tmin_units>  (5) 
K

>  <Tmax_value>  (5) 
3000.0

>  <Tmax_units>  (5) 
K

>  <polynomials>  (5) 
[{"name": "polynomial1", "class": "NASAPolynomial", "Tmin_value": 10.0, "Tmin_units": "K", "Tmax_value": 616.0864984642515, "Tmax_units": "K", "coeffs": [3.94812055354869, 0.002870632430470056, 6.601813711413239e-05, -1.1874693803665765e-07, 6.345849341330536e-11, -111343943.32258263, 9.377120967783604]}, {"name": "polynomial2", "class": "NASAPolynomial", "Tmin_value": 616.0864984642515, "Tmin_units": "K", "Tmax_value": 3000.0, "Tmax_units": "K", "coeffs": [2.4544566455499175, 0.02517036301302165, -1.8957852591200607e-05, 6.406820502487897e-09, -7.999640326918053e-13, -111343998.43927236, 13.91872622116066]}]

>  <H298_value>  (5) 
-221260.06538606877

>  <H298_units>  (5) 
kcal/mol

>  <S298_value>  (5) 
69.02430482099071

>  <S298_units>  (5) 
cal/(mol*K)

>  <Cp_T_value_list>  (5) 
[16.01447807468723, 19.24412536395936, 21.88065311931888, 23.870148628394773, 26.6491311769416, 28.365034926557463, 30.06252774055981, 30.64056177383133, 31.185424153668]

>  <Cp_T_units>  (5) 
cal/(mol*K)

>  <T_list>  (5) 
[300.0, 400.0, 500.0, 600.0, 800.0, 1000.0, 1500.0, 2000.0, 2400.0]

>  <T_units>  (5) 
K

>  <yaml_path>  (5) 
/home/calvin/Dropbox/PersonalFolders/Calvin/ATLAS_Converged/NonRMG/rxn_3199/output/Species/rxn_3199_r1_sbr-N-sbr=c1onno1/rxn_3199_r1_sbr-N-sbr=c1onno1.yml

>  <frequencies_cm1>  (5) 
[203.66105062056, 421.06293886643994, 625.6235645639199, 691.3131461350399, 746.0704870767199, 784.21659052932, 934.89884940608, 1008.3206564475199, 1041.0761764239198, 1163.2398452667198, 1617.8480074213599, 1768.29678879724]

>  <ZPE_kJmol>  (5) 
65.82829353267302

>  <E_elec_kJmol>  (5) 
-925831.9516442652

>  <E0_minus_Eelec_plus_ZPE_kJmol>  (5) 
0.0

>  <rxn>  (5) 
rxn_3199

>  <species_type>  (5) 
r0

>  <species_folder>  (5) 
rxn_3199_r1_sbr-N-sbr=c1onno1

>  <frequencies_cm1_list>  (5) 
[203.66105062056, 421.06293886643994, 625.6235645639199, 691.3131461350399, 746.0704870767199, 784.21659052932, 934.89884940608, 1008.3206564475199, 1041.0761764239198, 1163.2398452667198, 1617.8480074213599, 1768.29678879724]

>  <E0_kJmol>  (5) 
-925766

>  <H298_kJmol>  (5) 
-925752

$$$$
