
     RDKit          3D

 15 14  0  0  0  0  0  0  0  0999 V2000
    0.7110    0.2786   -1.4140 C   0  0  0  0  0  0  0  0  0  1  0  0
    0.5268    0.2662    0.1061 C   0  0  0  0  0  0  0  0  0  2  0  0
    0.6427    1.6703    0.6910 C   0  0  0  0  0  0  0  0  0  3  0  0
   -0.7934   -0.3596    0.4841 C   0  0  0  0  0  0  0  0  0  4  0  0
   -1.0023   -1.6649    0.1038 O   0  0  0  0  0  0  0  0  0  5  0  0
    1.6965    0.6681   -1.6751 H   0  0  0  0  0  0  0  0  0  6  0  0
   -0.0402    0.9188   -1.8829 H   0  0  0  0  0  0  0  0  0  7  0  0
    0.6133   -0.7197   -1.8421 H   0  0  0  0  0  0  0  0  0  8  0  0
    1.3223   -0.3524    0.5455 H   0  0  0  0  0  0  0  0  0  9  0  0
   -0.1797    2.3003    0.3417 H   0  0  0  0  0  0  0  0  0 10  0  0
    1.5761    2.1367    0.3737 H   0  0  0  0  0  0  0  0  0 11  0  0
    0.6331    1.6575    1.7809 H   0  0  0  0  0  0  0  0  0 12  0  0
   -0.8008   -0.3561    1.5743 H   0  0  0  0  0  0  0  0  0 13  0  0
   -1.6748    0.2308    0.2328 H   0  0  0  0  0  0  0  0  0 14  0  0
   -0.1812   -2.1554    0.1916 H   0  0  0  0  0  0  0  0  0 15  0  0
  1  8  1  0
  1  7  1  0
  1  6  1  0
  1  2  1  0
  2  9  1  0
  2  3  1  0
  2  4  1  0
  3 11  1  0
  3 12  1  0
  3 10  1  0
  4 14  1  0
  4 13  1  0
  4  5  1  0
  5 15  1  0
M  END
>  <rmg_smiles>  (1) 
CC(C)CO

>  <rmg_adjacency_list>  (1) 
1  O u0 p2 c0 {3,S} {15,S}
2  C u0 p0 c0 {3,S} {4,S} {5,S} {6,S}
3  C u0 p0 c0 {1,S} {2,S} {7,S} {8,S}
4  C u0 p0 c0 {2,S} {9,S} {10,S} {11,S}
5  C u0 p0 c0 {2,S} {12,S} {13,S} {14,S}
6  H u0 p0 c0 {2,S}
7  H u0 p0 c0 {3,S}
8  H u0 p0 c0 {3,S}
9  H u0 p0 c0 {4,S}
10 H u0 p0 c0 {4,S}
11 H u0 p0 c0 {4,S}
12 H u0 p0 c0 {5,S}
13 H u0 p0 c0 {5,S}
14 H u0 p0 c0 {5,S}
15 H u0 p0 c0 {1,S}


>  <multiplicity>  (1) 
1

>  <reaction>  (1) 
rxn_425

>  <type>  (1) 
r1h

>  <role_mapnums>  (1) 
{"r1h_a": 4, "r1h_h": 13}

>  <role_mapidx>  (1) 
{"r1h_a": 3, "r1h_h": 12}

>  <ordered_mapped_smiles>  (1) 
[C:1]([C:2]([C:3]([H:10])([H:11])[H:12])([C:4]([O:5][H:15])([H:13])[H:14])[H:9])([H:6])([H:7])[H:8]

>  <mol_properties>  (1) 
{"3": {"label": "donator", "atom_type": "Cs"}, "12": {"label": "d_hydrogen", "atom_type": "H0"}}

>  <level_of_theory>  (1) 
wb97xd/def2tzvp

>  <lot_method>  (1) 
wb97xd

>  <lot_basis>  (1) 
def2tzvp

>  <spin_multiplicity>  (1) 
1.0

>  <optical_isomers>  (1) 
2.0

>  <modes>  (1) 
IdealGasTranslation(mass=(74.0732, 'amu')),         NonlinearRotor(             inertia = ([66.603, 143.905, 189.515

>  <frequency_value>  (1) 
unknown

>  <frequency_units>  (1) 
unknown

>  <frequency_list>  (1) 
unknown

>  <arkane_path>  (1) 
/home/calvin/Dropbox/PersonalFolders/Calvin/HAb_Converged/rxn_425/output/Species/rxn_425_CC[C]CO/arkane/output.py

>  <path_exists>  (1) 
True

>  <E0_value>  (1) 
-613201.798563127

>  <E0_units>  (1) 
kJ/mol

>  <thermo_class>  (1) 
NASA

>  <Cp0_value>  (1) 
33.257888

>  <Cp0_units>  (1) 
J/(mol*K)

>  <CpInf_value>  (1) 
357.522296

>  <CpInf_units>  (1) 
J/(mol*K)

>  <Tmin_value>  (1) 
10.0

>  <Tmin_units>  (1) 
K

>  <Tmax_value>  (1) 
3000.0

>  <Tmax_units>  (1) 
K

>  <polynomials>  (1) 
[{"name": "polynomial1", "class": "NASAPolynomial", "Tmin_value": 10.0, "Tmin_units": "K", "Tmax_value": 575.0651176416371, "Tmax_units": "K", "coeffs": [3.712805799436365, 0.02341794423636385, 4.945520881208784e-05, -8.422411516035852e-08, 3.9345456013228885e-11, -73751136.90729754, 10.481383297442903]}, {"name": "polynomial2", "class": "NASAPolynomial", "Tmin_value": 575.0651176416371, "Tmin_units": "K", "Tmax_value": 3000.0, "Tmax_units": "K", "coeffs": [-0.6878246335024606, 0.05402765028160735, -3.0387394291557736e-05, 8.336812494957577e-09, -8.939885093345157e-13, -73750630.77899487, 29.27712262817248]}]

>  <H298_value>  (1) 
-146553.90003462895

>  <H298_units>  (1) 
kcal/mol

>  <S298_value>  (1) 
79.77174717591569

>  <S298_units>  (1) 
cal/(mol*K)

>  <Cp_T_value_list>  (1) 
[26.298303224673802, 33.0069380139673, 39.18106842386457, 44.660864775466386, 53.63198804085297, 60.401649014178936, 70.73051971901154, 75.92834368294982, 78.56390633588433]

>  <Cp_T_units>  (1) 
cal/(mol*K)

>  <T_list>  (1) 
[300.0, 400.0, 500.0, 600.0, 800.0, 1000.0, 1500.0, 2000.0, 2400.0]

>  <T_units>  (1) 
K

>  <yaml_path>  (1) 
/home/calvin/Dropbox/PersonalFolders/Calvin/HAb_Converged/rxn_425/output/Species/rxn_425_CC[C]CO/rxn_425_CCCCO.yml

>  <frequencies_cm1>  (1) 
[130.82980431664, 216.90746530284, 234.24660323583998, 266.73431078476, 284.49233482228, 352.62656316731994, 430.94453074191995, 496.53797451855996, 825.04768524204, 903.1871111983199, 929.7966793133199, 953.3298380049599, 972.0423730019598, 1079.3527525975999, 1116.63361589988, 1149.4372047735199, 1195.51467627072, 1246.91406139092, 1321.76420137892, 1364.46311609868, 1379.29580438988, 1394.3345022406797, 1400.81006939744, 1419.04878240736, 1474.01899989396, 1475.3855299726397, 1489.2293723777598, 1494.17360180816, 1499.15903315048, 2968.2269366287196, 2974.66816885888, 3005.13698272372, 3008.8176868552396, 3047.7397596489996, 3073.490954599, 3077.9132931450795, 3086.88844295832, 3102.6138393411197, 3839.6611077073594]

>  <ZPE_kJmol>  (1) 
356.9742425885658

>  <E_elec_kJmol>  (1) 
-613558.7728057157

>  <E0_minus_Eelec_plus_ZPE_kJmol>  (1) 
0.0

>  <rxn>  (1) 
rxn_425

>  <species_type>  (1) 
r0

>  <species_folder>  (1) 
rxn_425_CC[C]CO

>  <frequencies_cm1_list>  (1) 
[130.82980431664, 216.90746530284, 234.24660323583998, 266.73431078476, 284.49233482228, 352.62656316731994, 430.94453074191995, 496.53797451855996, 825.04768524204, 903.1871111983199, 929.7966793133199, 953.3298380049599, 972.0423730019598, 1079.3527525975999, 1116.63361589988, 1149.4372047735199, 1195.51467627072, 1246.91406139092, 1321.76420137892, 1364.46311609868, 1379.29580438988, 1394.3345022406797, 1400.81006939744, 1419.04878240736, 1474.01899989396, 1475.3855299726397, 1489.2293723777598, 1494.17360180816, 1499.15903315048, 2968.2269366287196, 2974.66816885888, 3005.13698272372, 3008.8176868552396, 3047.7397596489996, 3073.490954599, 3077.9132931450795, 3086.88844295832, 3102.6138393411197, 3839.6611077073594]

>  <E0_kJmol>  (1) 
-613202

>  <H298_kJmol>  (1) 
-613182

$$$$

     RDKit          3D

 10  9  0  0  0  0  0  0  0  0999 V2000
   -0.5797   -0.4479   -1.4873 H   0  0  0  0  0  0  0  0  0  1  0  0
   -1.4455    0.7335   -0.0197 C   0  0  0  0  0  0  0  0  0  2  0  0
   -0.6739   -0.5022   -0.4031 C   0  0  0  0  0  0  0  0  0  3  0  0
    0.7119   -0.6160    0.0405 C   0  0  0  0  0  0  0  0  0  4  0  0
    1.4068    0.3112    0.4015 O   0  0  0  0  0  0  0  0  0  5  0  0
   -2.3606    0.8189   -0.6078 H   0  0  0  0  0  0  0  0  0  6  0  0
   -0.8445    1.6290   -0.1746 H   0  0  0  0  0  0  0  0  0  7  0  0
   -1.7263    0.7069    1.0359 H   0  0  0  0  0  0  0  0  0  8  0  0
   -1.2224   -1.4407   -0.3283 H   0  0  0  0  0  0  0  0  0  9  0  0
    1.1439   -1.6371   -0.0211 H   0  0  0  0  0  0  0  0  0 10  0  0
  1  3  1  0
  2  7  1  0
  2  8  1  0
  2  6  1  0
  2  3  1  0
  3  4  1  0
  3  9  1  0
  4 10  1  0
  4  5  1  0
M  END
>  <rmg_smiles>  (2) 
CC[CH]O

>  <rmg_adjacency_list>  (2) 
1  O u0 p2 c0 {4,S}
2  C u0 p0 c0 {3,S} {4,S} {5,S} {6,S}
3  C u0 p0 c0 {2,S} {7,S} {8,S} {9,S}
4  C u0 p0 c0 {1,S} {2,S} {10,S}
5  H u0 p0 c0 {2,S}
6  H u0 p0 c0 {2,S}
7  H u0 p0 c0 {3,S}
8  H u0 p0 c0 {3,S}
9  H u0 p0 c0 {3,S}
10 H u0 p0 c0 {4,S}


>  <multiplicity>  (2) 
1

>  <reaction>  (2) 
rxn_425

>  <type>  (2) 
r2h

>  <role_mapnums>  (2) 
{"r2h_a": 3, "r2h_h": 1}

>  <role_mapidx>  (2) 
{"r2h_a": 2, "r2h_h": 0}

>  <ordered_mapped_smiles>  (2) 
[H:1][C:3]([C:2]([H:6])([H:7])[H:8])([CH:4]([OH:5])[H:10])[H:9]

>  <mol_properties>  (2) 
{"0": {"label": "a_hydrogen", "atom_type": "H0"}, "2": {"label": "acceptor", "atom_type": "Cs"}}

>  <level_of_theory>  (2) 
wb97xd/def2tzvp

>  <lot_method>  (2) 
wb97xd

>  <lot_basis>  (2) 
def2tzvp

>  <spin_multiplicity>  (2) 
1.0

>  <optical_isomers>  (2) 
1.0

>  <modes>  (2) 
IdealGasTranslation(mass=(58.0419, 'amu')),         NonlinearRotor(             inertia = ([29.7984, 86.0094, 109.654

>  <frequency_value>  (2) 
unknown

>  <frequency_units>  (2) 
unknown

>  <frequency_list>  (2) 
unknown

>  <arkane_path>  (2) 
/home/calvin/Dropbox/PersonalFolders/Calvin/HAb_Converged/rxn_425/output/Species/rxn_425_CCC=O/arkane/output.py

>  <path_exists>  (2) 
True

>  <E0_value>  (2) 
-506922.5969828313

>  <E0_units>  (2) 
kJ/mol

>  <thermo_class>  (2) 
NASA

>  <Cp0_value>  (2) 
33.257888

>  <Cp0_units>  (2) 
J/(mol*K)

>  <CpInf_value>  (2) 
232.805216

>  <CpInf_units>  (2) 
J/(mol*K)

>  <Tmin_value>  (2) 
10.0

>  <Tmin_units>  (2) 
K

>  <Tmax_value>  (2) 
3000.0

>  <Tmax_units>  (2) 
K

>  <polynomials>  (2) 
[{"name": "polynomial1", "class": "NASAPolynomial", "Tmin_value": 10.0, "Tmin_units": "K", "Tmax_value": 995.1900345283002, "Tmax_units": "K", "coeffs": [3.919274873618, 0.011902867620044834, 2.8741372072273123e-05, -3.719966986204588e-08, 1.282064508278687e-11, -60968708.45376264, 8.29819490310581]}, {"name": "polynomial2", "class": "NASAPolynomial", "Tmin_value": 995.1900345283002, "Tmin_units": "K", "Tmax_value": 3000.0, "Tmax_units": "K", "coeffs": [2.274357153517518, 0.029876843471332987, -1.547603192060147e-05, 3.8936784756348765e-09, -3.843586769722641e-13, -60968943.725637905, 13.399078271939683]}]

>  <H298_value>  (2) 
-121153.67253279968

>  <H298_units>  (2) 
kcal/mol

>  <S298_value>  (2) 
69.84440643822006

>  <S298_units>  (2) 
cal/(mol*K)

>  <Cp_T_value_list>  (2) 
[18.2352323956332, 22.309316345060275, 26.24579792780338, 29.876291097116475, 35.851495239528035, 40.110746771458125, 46.62761380751709, 49.92579195309712, 51.49040913669691]

>  <Cp_T_units>  (2) 
cal/(mol*K)

>  <T_list>  (2) 
[300.0, 400.0, 500.0, 600.0, 800.0, 1000.0, 1500.0, 2000.0, 2400.0]

>  <T_units>  (2) 
K

>  <yaml_path>  (2) 
/home/calvin/Dropbox/PersonalFolders/Calvin/HAb_Converged/rxn_425/output/Species/rxn_425_CCC=O/rxn_425_CCC=O.yml

>  <frequencies_cm1>  (2) 
[140.17577133716, 231.1427258712, 255.91194192044003, 664.53877037236, 671.2684159859599, 853.7722848356, 903.24204708088, 1002.8064672355599, 1110.1649157284398, 1142.5152835709598, 1274.43007156816, 1362.5060252824799, 1401.2701574138798, 1414.07021805036, 1440.4257077085201, 1481.0027239643998, 1486.2284997929198, 1826.3777506338001, 2861.6925263742396, 3000.3781618969597, 3029.63151936016, 3031.0529853214, 3106.8301683276, 3108.0730926705196]

>  <ZPE_kJmol>  (2) 
220.11000257512663

>  <E_elec_kJmol>  (2) 
-507142.70698540646

>  <E0_minus_Eelec_plus_ZPE_kJmol>  (2) 
0.0

>  <rxn>  (2) 
rxn_425

>  <species_type>  (2) 
p0

>  <species_folder>  (2) 
rxn_425_CCC=O

>  <frequencies_cm1_list>  (2) 
[140.17577133716, 231.1427258712, 255.91194192044003, 664.53877037236, 671.2684159859599, 853.7722848356, 903.24204708088, 1002.8064672355599, 1110.1649157284398, 1142.5152835709598, 1274.43007156816, 1362.5060252824799, 1401.2701574138798, 1414.07021805036, 1440.4257077085201, 1481.0027239643998, 1486.2284997929198, 1826.3777506338001, 2861.6925263742396, 3000.3781618969597, 3029.63151936016, 3031.0529853214, 3106.8301683276, 3108.0730926705196]

>  <E0_kJmol>  (2) 
-506923

>  <H298_kJmol>  (2) 
-506907

$$$$

     RDKit          3D

 24 22  0  0  0  0  0  0  0  0999 V2000
    0.8463    0.3319   -3.1313 C   0  0  0  0  0  0  0  0  0  1  0  0
    0.6622    0.3196   -1.6111 C   0  0  0  0  0  0  0  0  0  2  0  0
    0.7780    1.7237   -1.0262 C   0  0  0  0  0  0  0  0  0  3  0  0
   -0.6580   -0.3063   -1.2331 C   0  0  0  0  0  3  0  0  0  4  0  0
   -0.8669   -1.6115   -1.6134 O   0  0  0  0  0  0  0  0  0  5  0  0
    1.8318    0.7215   -3.3923 H   0  0  0  0  0  0  0  0  0  6  0  0
    0.0951    0.9722   -3.6001 H   0  0  0  0  0  0  0  0  0  7  0  0
    0.7487   -0.6664   -3.5594 H   0  0  0  0  0  0  0  0  0  8  0  0
    1.4576   -0.2990   -1.1718 H   0  0  0  0  0  0  0  0  0  9  0  0
   -0.0444    2.3537   -1.3755 H   0  0  0  0  0  0  0  0  0 10  0  0
    1.7115    2.1901   -1.3435 H   0  0  0  0  0  0  0  0  0 11  0  0
    0.7684    1.7109    0.0636 H   0  0  0  0  0  0  0  0  0 12  0  0
   -0.6675   -0.3018    0.1496 H   0  0  0  0  0  0  0  0  0 13  0  0
   -1.5395    0.2842   -1.4844 H   0  0  0  0  0  0  0  0  0 14  0  0
   -0.0459   -2.1020   -1.5256 H   0  0  0  0  0  0  0  0  0 15  0  0
   -1.5539    0.8677    1.8534 C   0  0  0  0  0  0  0  0  0 16  0  0
   -0.7823   -0.3679    1.4699 C   0  0  0  0  0  0  0  0  0 17  0  0
    0.6036   -0.4818    1.9135 C   0  0  0  0  0  0  0  0  0 18  0  0
    1.2985    0.4454    2.2745 O   0  0  0  0  0  0  0  0  0 19  0  0
   -2.4689    0.9531    1.2652 H   0  0  0  0  0  0  0  0  0 20  0  0
   -0.9529    1.7632    1.6985 H   0  0  0  0  0  0  0  0  0 21  0  0
   -1.8347    0.8411    2.9089 H   0  0  0  0  0  0  0  0  0 22  0  0
   -1.3308   -1.3065    1.5448 H   0  0  0  0  0  0  0  0  0 23  0  0
    1.0356   -1.5029    1.8520 H   0  0  0  0  0  0  0  0  0 24  0  0
  1  7  1  0
  1  8  1  0
  1  6  1  0
  1  2  1  0
  2  3  1  0
  2  4  1  0
  2  9  1  0
  3 12  1  0
  3 11  1  0
  3 10  1  0
  4  5  1  0
  4 14  1  0
  5 15  1  0
 13 17  1  0
 16 21  1  0
 16 20  1  0
 16 22  1  0
 16 17  1  0
 17 18  1  0
 17 23  1  0
 18 24  1  0
 18 19  1  0
M  RAD  1   4   2
M  END
>  <rmg_smiles>  (3) 
CC(C)[CH]O.CC[CH]O

>  <rmg_adjacency_list>  (3) 
multiplicity 2
1  O u0 p2 c0 {8,S} {24,S}
2  O u0 p2 c0 {9,S}
3  C u0 p0 c0 {5,S} {6,S} {8,S} {10,S}
4  C u0 p0 c0 {7,S} {9,S} {11,S} {12,S}
5  C u0 p0 c0 {3,S} {13,S} {14,S} {15,S}
6  C u0 p0 c0 {3,S} {16,S} {17,S} {18,S}
7  C u0 p0 c0 {4,S} {19,S} {20,S} {21,S}
8  C u1 p0 c0 {1,S} {3,S} {22,S}
9  C u0 p0 c0 {2,S} {4,S} {23,S}
10 H u0 p0 c0 {3,S}
11 H u0 p0 c0 {4,S}
12 H u0 p0 c0 {4,S}
13 H u0 p0 c0 {5,S}
14 H u0 p0 c0 {5,S}
15 H u0 p0 c0 {5,S}
16 H u0 p0 c0 {6,S}
17 H u0 p0 c0 {6,S}
18 H u0 p0 c0 {6,S}
19 H u0 p0 c0 {7,S}
20 H u0 p0 c0 {7,S}
21 H u0 p0 c0 {7,S}
22 H u0 p0 c0 {8,S}
23 H u0 p0 c0 {9,S}
24 H u0 p0 c0 {1,S}


>  <multiplicity>  (3) 
2

>  <reaction>  (3) 
rxn_425

>  <type>  (3) 
ts

>  <role_mapnums>  (3) 
{"*2": 13, "*1": 4, "*3": 17, "*0": 18, "*4": 2}

>  <role_mapidx>  (3) 
{"*2": 12, "*1": 3, "*3": 16, "*0": 17, "*4": 1}

>  <ordered_mapped_smiles>  (3) 
[C:1]([C:2]([C:3]([H:10])([H:11])[H:12])([C:4]([O:5][H:15])[H:14])[H:9])([H:6])([H:7])[H:8].[H:13][C:17]([C:16]([H:20])([H:21])[H:22])([CH:18]([OH:19])[H:24])[H:23]

>  <mol_properties>  (3) 
{"1": {"label": "*4", "atom_type": "Cs"}, "3": {"label": "*1", "atom_type": "Cs"}, "12": {"label": "*2", "atom_type": "H0"}, "16": {"label": "*3", "atom_type": "Cs"}, "17": {"label": "*0", "atom_type": "Cs"}}

>  <level_of_theory>  (3) 
wb97xd/def2tzvp

>  <lot_method>  (3) 
wb97xd

>  <lot_basis>  (3) 
def2tzvp

>  <spin_multiplicity>  (3) 
2.0

>  <optical_isomers>  (3) 
2.0

>  <modes>  (3) 
IdealGasTranslation(mass=(131.107, 'amu')),         NonlinearRotor(             inertia = ([253.332, 567.695, 649.671

>  <frequency_value>  (3) 
-1494.98

>  <frequency_units>  (3) 
cm^-1

>  <frequency_list>  (3) 
unknown

>  <arkane_path>  (3) 
/home/calvin/Dropbox/PersonalFolders/Calvin/HAb_Converged/rxn_425/output/rxns/TS0/arkane/output.py

>  <path_exists>  (3) 
True

>  <E0_value>  (3) 
-1118390.0

>  <E0_units>  (3) 
kJ/mol

>  <thermo_class>  (3) 
unknown

>  <Cp0_value>  (3) 
unknown

>  <Cp0_units>  (3) 
unknown

>  <CpInf_value>  (3) 
unknown

>  <CpInf_units>  (3) 
unknown

>  <Tmin_value>  (3) 
unknown

>  <Tmin_units>  (3) 
unknown

>  <Tmax_value>  (3) 
unknown

>  <Tmax_units>  (3) 
unknown

>  <polynomials>  (3) 
unknown

>  <H298_value>  (3) 
unknown

>  <H298_units>  (3) 
unknown

>  <S298_value>  (3) 
unknown

>  <S298_units>  (3) 
unknown

>  <Cp_T_value_list>  (3) 
unknown

>  <Cp_T_units>  (3) 
unknown

>  <T_list>  (3) 
unknown

>  <T_units>  (3) 
unknown

>  <yaml_path>  (3) 
unknown

>  <frequencies_cm1>  (3) 
unknown

>  <ZPE_kJmol>  (3) 
unknown

>  <E_elec_kJmol>  (3) 
unknown

>  <E0_minus_Eelec_plus_ZPE_kJmol>  (3) 
unknown

>  <rxn>  (3) 
unknown

>  <species_type>  (3) 
unknown

>  <species_folder>  (3) 
unknown

>  <frequencies_cm1_list>  (3) 
[]

>  <ts_imag_freq_cm1>  (3) 
-1513.1363

>  <ts_freq_out_path>  (3) 
/home/calvin/Dropbox/PersonalFolders/Calvin/HAb_Converged/rxn_425/output/rxns/TS0/geometry/freq.out

>  <E0_kJmol>  (3) 
-1.11839e+06

>  <H298_kJmol>  (3) 
unknown

$$$$

     RDKit          3D

 14 13  0  0  0  0  0  0  0  0999 V2000
   -1.1038   -1.2820   -0.0831 C   0  0  0  0  0  0  0  0  0  1  0  0
   -0.3738   -0.0303    0.3958 C   0  0  0  0  0  0  0  0  0  2  0  0
    1.0799   -0.0135   -0.1022 C   0  0  0  0  0  0  0  0  0  3  0  0
   -0.4539    0.0783    1.8774 C   0  0  0  0  0  3  0  0  0  4  0  0
   -0.0196    1.2652    2.3945 O   0  0  0  0  0  0  0  0  0  5  0  0
   -0.6387   -2.1819    0.3292 H   0  0  0  0  0  0  0  0  0  6  0  0
   -1.0649   -1.3593   -1.1709 H   0  0  0  0  0  0  0  0  0  7  0  0
   -2.1510   -1.2728    0.2226 H   0  0  0  0  0  0  0  0  0  8  0  0
   -0.8759    0.8495   -0.0235 H   0  0  0  0  0  0  0  0  0  9  0  0
    1.1145   -0.0235   -1.1941 H   0  0  0  0  0  0  0  0  0 10  0  0
    1.6194   -0.8920    0.2618 H   0  0  0  0  0  0  0  0  0 11  0  0
    1.6007    0.8771    0.2500 H   0  0  0  0  0  0  0  0  0 12  0  0
   -0.3212   -0.8061    2.4983 H   0  0  0  0  0  0  0  0  0 13  0  0
   -0.0217    1.2207    3.3511 H   0  0  0  0  0  0  0  0  0 14  0  0
  1  8  1  0
  1  7  1  0
  1  6  1  0
  1  2  1  0
  2  9  1  0
  2  3  1  0
  2  4  1  0
  3 11  1  0
  3 12  1  0
  3 10  1  0
  4 13  1  0
  4  5  1  0
  5 14  1  0
M  RAD  1   4   2
M  END
>  <rmg_smiles>  (4) 
CC(C)[CH]O

>  <rmg_adjacency_list>  (4) 
multiplicity 2
1  O u0 p2 c0 {5,S} {14,S}
2  C u0 p0 c0 {3,S} {4,S} {5,S} {6,S}
3  C u0 p0 c0 {2,S} {7,S} {8,S} {9,S}
4  C u0 p0 c0 {2,S} {10,S} {11,S} {12,S}
5  C u1 p0 c0 {1,S} {2,S} {13,S}
6  H u0 p0 c0 {2,S}
7  H u0 p0 c0 {3,S}
8  H u0 p0 c0 {3,S}
9  H u0 p0 c0 {3,S}
10 H u0 p0 c0 {4,S}
11 H u0 p0 c0 {4,S}
12 H u0 p0 c0 {4,S}
13 H u0 p0 c0 {5,S}
14 H u0 p0 c0 {1,S}


>  <multiplicity>  (4) 
2

>  <reaction>  (4) 
rxn_425

>  <type>  (4) 
r1

>  <role_mapnums>  (4) 
{}

>  <role_mapidx>  (4) 
{}

>  <ordered_mapped_smiles>  (4) 
[C:1]([C:2]([C:3]([H:10])([H:11])[H:12])([C:4]([O:5][H:14])[H:13])[H:9])([H:6])([H:7])[H:8]

>  <level_of_theory>  (4) 
wb97xd/def2tzvp

>  <lot_method>  (4) 
wb97xd

>  <lot_basis>  (4) 
def2tzvp

>  <spin_multiplicity>  (4) 
2.0

>  <optical_isomers>  (4) 
2.0

>  <modes>  (4) 
IdealGasTranslation(mass=(73.0653, 'amu')),         NonlinearRotor(             inertia = ([63.9279, 142.045, 186.855

>  <frequency_value>  (4) 
unknown

>  <frequency_units>  (4) 
unknown

>  <frequency_list>  (4) 
unknown

>  <arkane_path>  (4) 
/home/calvin/Dropbox/PersonalFolders/Calvin/HAb_Converged/rxn_425/output/Species/rxn_425_CC[C][CH]O/arkane/output.py

>  <path_exists>  (4) 
True

>  <E0_value>  (4) 
-611498.9441533478

>  <E0_units>  (4) 
kJ/mol

>  <thermo_class>  (4) 
NASA

>  <Cp0_value>  (4) 
33.257888

>  <Cp0_units>  (4) 
J/(mol*K)

>  <CpInf_value>  (4) 
332.57888

>  <CpInf_units>  (4) 
J/(mol*K)

>  <Tmin_value>  (4) 
10.0

>  <Tmin_units>  (4) 
K

>  <Tmax_value>  (4) 
3000.0

>  <Tmax_units>  (4) 
K

>  <polynomials>  (4) 
[{"name": "polynomial1", "class": "NASAPolynomial", "Tmin_value": 10.0, "Tmin_units": "K", "Tmax_value": 387.8808531937286, "Tmax_units": "K", "coeffs": [3.7222393532962537, 0.022291259950413256, 7.156387334799193e-05, -1.6167576527514427e-07, 1.0813877641480004e-10, -73546329.99847414, 11.232736942825126]}, {"name": "polynomial2", "class": "NASAPolynomial", "Tmin_value": 387.8808531937286, "Tmin_units": "K", "Tmax_value": 3000.0, "Tmax_units": "K", "coeffs": [1.2567420411620753, 0.047716496021830014, -2.6759489158970974e-05, 7.316151739873909e-09, -7.8091706410683e-13, -73546138.73411052, 20.792376379098172]}]

>  <H298_value>  (4) 
-146146.8518769244

>  <H298_units>  (4) 
kcal/mol

>  <S298_value>  (4) 
81.56704282131199

>  <S298_units>  (4) 
cal/(mol*K)

>  <Cp_T_value_list>  (4) 
[26.551154224214557, 32.80890734457895, 38.33486161896707, 43.186578733271226, 51.13056862546382, 57.13016706563306, 66.29570271918729, 70.91608380484615, 73.27069351231306]

>  <Cp_T_units>  (4) 
cal/(mol*K)

>  <T_list>  (4) 
[300.0, 400.0, 500.0, 600.0, 800.0, 1000.0, 1500.0, 2000.0, 2400.0]

>  <T_units>  (4) 
K

>  <yaml_path>  (4) 
/home/calvin/Dropbox/PersonalFolders/Calvin/HAb_Converged/rxn_425/output/Species/rxn_425_CC[C][CH]O/rxn_425_CCCCHO.yml

>  <frequencies_cm1>  (4) 
[104.70092517403998, 219.99074171152, 235.68180316771998, 254.11965875192, 332.02560720732, 349.05573080091995, 413.35131435208, 499.01695621908, 623.43986323216, 830.1635893054399, 927.4893722458, 938.7786961118799, 965.93762305248, 1105.1726174008, 1112.60956250236, 1179.4390636366, 1211.7688305231602, 1254.98963612724, 1322.6912443971198, 1331.4741186213998, 1381.25289520608, 1404.0169515418797, 1448.0274604577596, 1474.00526592332, 1474.7331663672398, 1486.9151983249199, 1499.8182637411999, 2993.20902922288, 3004.1550038229593, 3008.2133921470795, 3072.75618716976, 3078.33904623492, 3090.89189539988, 3093.7210933517194, 3098.6859237380795, 3862.4594989697603]

>  <ZPE_kJmol>  (4) 
321.09631993175043

>  <E_elec_kJmol>  (4) 
-611820.0404732795

>  <E0_minus_Eelec_plus_ZPE_kJmol>  (4) 
0.0

>  <rxn>  (4) 
rxn_425

>  <species_type>  (4) 
p1

>  <species_folder>  (4) 
rxn_425_CC[C][CH]O

>  <frequencies_cm1_list>  (4) 
[104.70092517403998, 219.99074171152, 235.68180316771998, 254.11965875192, 332.02560720732, 349.05573080091995, 413.35131435208, 499.01695621908, 623.43986323216, 830.1635893054399, 927.4893722458, 938.7786961118799, 965.93762305248, 1105.1726174008, 1112.60956250236, 1179.4390636366, 1211.7688305231602, 1254.98963612724, 1322.6912443971198, 1331.4741186213998, 1381.25289520608, 1404.0169515418797, 1448.0274604577596, 1474.00526592332, 1474.7331663672398, 1486.9151983249199, 1499.8182637411999, 2993.20902922288, 3004.1550038229593, 3008.2133921470795, 3072.75618716976, 3078.33904623492, 3090.89189539988, 3093.7210933517194, 3098.6859237380795, 3862.4594989697603]

>  <E0_kJmol>  (4) 
-611499

>  <H298_kJmol>  (4) 
-611478

$$$$

     RDKit          3D

  9  8  0  0  0  0  0  0  0  0999 V2000
   -1.1429   -0.0056    0.0357 C   0  0  0  0  0  0  0  0  0  1  0  0
    0.2348   -0.4846   -0.1988 C   0  0  0  0  0  0  0  0  0  2  0  0
    1.3889    0.3067    0.0768 C   0  0  0  0  0  0  0  0  0  3  0  0
    1.3416    1.4450    0.5289 O   0  0  0  0  0  1  0  0  0  4  0  0
   -1.7198   -0.0230   -0.8945 H   0  0  0  0  0  0  0  0  0  5  0  0
   -1.1399    1.0063    0.4362 H   0  0  0  0  0  0  0  0  0  6  0  0
   -1.6667   -0.6673    0.7330 H   0  0  0  0  0  0  0  0  0  7  0  0
    0.3900   -1.4812   -0.5984 H   0  0  0  0  0  0  0  0  0  8  0  0
    2.3646   -0.1624   -0.1407 H   0  0  0  0  0  0  0  0  0  9  0  0
  1  5  1  0
  1  7  1  0
  1  6  1  0
  1  2  1  0
  2  8  1  0
  2  3  1  0
  3  4  1  0
  3  9  1  0
M  RAD  1   4   2
M  END
>  <rmg_smiles>  (5) 
C[CH][CH][O]

>  <rmg_adjacency_list>  (5) 
multiplicity 2
1 O u1 p2 c0 {4,S}
2 C u0 p0 c0 {3,S} {5,S} {6,S} {7,S}
3 C u0 p0 c0 {2,S} {4,S} {8,S}
4 C u0 p0 c0 {1,S} {3,S} {9,S}
5 H u0 p0 c0 {2,S}
6 H u0 p0 c0 {2,S}
7 H u0 p0 c0 {2,S}
8 H u0 p0 c0 {3,S}
9 H u0 p0 c0 {4,S}


>  <multiplicity>  (5) 
2

>  <reaction>  (5) 
rxn_425

>  <type>  (5) 
r2

>  <role_mapnums>  (5) 
{}

>  <role_mapidx>  (5) 
{}

>  <ordered_mapped_smiles>  (5) 
[C:1]([CH:2]([CH:3]([O:4])[H:9])[H:8])([H:5])([H:6])[H:7]

>  <level_of_theory>  (5) 
wb97xd/def2tzvp

>  <lot_method>  (5) 
wb97xd

>  <lot_basis>  (5) 
def2tzvp

>  <spin_multiplicity>  (5) 
2.0

>  <optical_isomers>  (5) 
1.0

>  <modes>  (5) 
IdealGasTranslation(mass=(57.034, 'amu')),         NonlinearRotor(             inertia = ([25.424, 86.3649, 108.698

>  <frequency_value>  (5) 
unknown

>  <frequency_units>  (5) 
unknown

>  <frequency_list>  (5) 
unknown

>  <arkane_path>  (5) 
/home/calvin/Dropbox/PersonalFolders/Calvin/HAb_Converged/rxn_425/output/Species/rxn_425_C[CH]C=O/arkane/output.py

>  <path_exists>  (5) 
True

>  <E0_value>  (5) 
-505242.8208271292

>  <E0_units>  (5) 
kJ/mol

>  <thermo_class>  (5) 
NASA

>  <Cp0_value>  (5) 
33.257888

>  <Cp0_units>  (5) 
J/(mol*K)

>  <CpInf_value>  (5) 
207.8618

>  <CpInf_units>  (5) 
J/(mol*K)

>  <Tmin_value>  (5) 
10.0

>  <Tmin_units>  (5) 
K

>  <Tmax_value>  (5) 
3000.0

>  <Tmax_units>  (5) 
K

>  <polynomials>  (5) 
[{"name": "polynomial1", "class": "NASAPolynomial", "Tmin_value": 10.0, "Tmin_units": "K", "Tmax_value": 938.2630084142831, "Tmax_units": "K", "coeffs": [3.9259098530255714, 0.011960173973246408, 2.5341600530598885e-05, -3.607709397227657e-08, 1.3343688742505425e-11, -60766678.29780432, 9.01307682718271]}, {"name": "polynomial2", "class": "NASAPolynomial", "Tmin_value": 938.2630084142831, "Tmin_units": "K", "Tmax_value": 3000.0, "Tmax_units": "K", "coeffs": [3.018178350943707, 0.026186156747678206, -1.3957818427452722e-05, 3.610268029367448e-09, -3.6547285163770123e-13, -60766963.80473464, 10.905314591117884]}]

>  <H298_value>  (5) 
-120752.24261767376

>  <H298_units>  (5) 
kcal/mol

>  <S298_value>  (5) 
71.0958225531589

>  <S298_units>  (5) 
cal/(mol*K)

>  <Cp_T_value_list>  (5) 
[17.743187445814065, 21.456464643083425, 24.9707217517854, 28.142182940027215, 33.19981420774931, 36.74605511733711, 42.18197593126414, 44.898539773391356, 46.20404862402338]

>  <Cp_T_units>  (5) 
cal/(mol*K)

>  <T_list>  (5) 
[300.0, 400.0, 500.0, 600.0, 800.0, 1000.0, 1500.0, 2000.0, 2400.0]

>  <T_units>  (5) 
K

>  <yaml_path>  (5) 
/home/calvin/Dropbox/PersonalFolders/Calvin/HAb_Converged/rxn_425/output/Species/rxn_425_C[CH]C=O/rxn_425_CCHC=O.yml

>  <frequencies_cm1>  (5) 
[96.35753801023998, 270.0098627823999, 301.66666510759995, 649.52067347752, 695.1929928408399, 884.1930298031999, 940.261964941, 1007.2562737229199, 1061.03850274916, 1168.4793550658799, 1375.1962141538397, 1396.95769063292, 1416.5285987949198, 1458.63008579184, 1479.0112982216, 1603.31746648424, 2929.05078537812, 2997.5970328423596, 3046.4006975116, 3120.79074948316, 3151.94626188]

>  <ZPE_kJmol>  (5) 
185.7167300702324

>  <E_elec_kJmol>  (5) 
-505428.5375571994

>  <E0_minus_Eelec_plus_ZPE_kJmol>  (5) 
0.0

>  <rxn>  (5) 
rxn_425

>  <species_type>  (5) 
r1

>  <species_folder>  (5) 
rxn_425_C[CH]C=O

>  <frequencies_cm1_list>  (5) 
[96.35753801023998, 270.0098627823999, 301.66666510759995, 649.52067347752, 695.1929928408399, 884.1930298031999, 940.261964941, 1007.2562737229199, 1061.03850274916, 1168.4793550658799, 1375.1962141538397, 1396.95769063292, 1416.5285987949198, 1458.63008579184, 1479.0112982216, 1603.31746648424, 2929.05078537812, 2997.5970328423596, 3046.4006975116, 3120.79074948316, 3151.94626188]

>  <E0_kJmol>  (5) 
-505243

>  <H298_kJmol>  (5) 
-505227

$$$$
