
     RDKit          3D

 15 14  0  0  0  0  0  0  0  0999 V2000
    1.0694   -0.9809   -1.4099 C   0  0  0  0  0  0  0  0  0  1  0  0
   -0.0935   -0.6787   -0.8248 C   0  0  0  0  0  0  0  0  0  2  0  0
   -0.3149    0.3663    0.1671 C   0  0  0  0  0  0  0  0  0  3  0  0
    0.8932    0.9677    0.8421 C   0  0  0  0  0  0  0  0  0  4  0  0
   -1.5152    0.1851    1.0678 C   0  0  0  0  0  0  0  0  0  5  0  0
    1.1222   -1.7414   -2.1776 H   0  0  0  0  0  0  0  0  0  6  0  0
    1.9976   -0.4932   -1.1405 H   0  0  0  0  0  0  0  0  0  7  0  0
   -0.9844   -1.2088   -1.1512 H   0  0  0  0  0  0  0  0  0  8  0  0
   -0.6694    1.1610   -0.4892 H   0  0  0  0  0  0  0  0  0  9  0  0
    1.6346    1.3100    0.1190 H   0  0  0  0  0  0  0  0  0 10  0  0
    1.3739    0.2327    1.4950 H   0  0  0  0  0  0  0  0  0 11  0  0
    0.6030    1.8238    1.4527 H   0  0  0  0  0  0  0  0  0 12  0  0
   -1.2925   -0.5328    1.8639 H   0  0  0  0  0  0  0  0  0 13  0  0
   -2.3782   -0.1861    0.5130 H   0  0  0  0  0  0  0  0  0 14  0  0
   -1.7917    1.1292    1.5412 H   0  0  0  0  0  0  0  0  0 15  0  0
  1  7  1  0
  1  6  1  0
  1  2  1  0
  2  8  1  0
  2  3  1  0
  3  4  1  0
  3  5  1  0
  3  9  1  0
  4 12  1  0
  4 10  1  0
  4 11  1  0
  5 13  1  0
  5 14  1  0
  5 15  1  0
M  END
>  <rmg_smiles>  (1) 
[CH2][CH]C(C)C

>  <rmg_adjacency_list>  (1) 
1  C u0 p0 c0 {2,S} {3,S} {4,S} {6,S}
2  C u0 p0 c0 {1,S} {7,S} {8,S} {9,S}
3  C u0 p0 c0 {1,S} {10,S} {11,S} {12,S}
4  C u0 p0 c0 {1,S} {5,S} {13,S}
5  C u0 p0 c0 {4,S} {14,S} {15,S}
6  H u0 p0 c0 {1,S}
7  H u0 p0 c0 {2,S}
8  H u0 p0 c0 {2,S}
9  H u0 p0 c0 {2,S}
10 H u0 p0 c0 {3,S}
11 H u0 p0 c0 {3,S}
12 H u0 p0 c0 {3,S}
13 H u0 p0 c0 {4,S}
14 H u0 p0 c0 {5,S}
15 H u0 p0 c0 {5,S}


>  <multiplicity>  (1) 
1

>  <reaction>  (1) 
rxn_1124

>  <type>  (1) 
r1h

>  <role_mapnums>  (1) 
{"r1h_a": 3, "r1h_h": 9}

>  <role_mapidx>  (1) 
{"r1h_a": 2, "r1h_h": 8}

>  <ordered_mapped_smiles>  (1) 
[CH:1]([CH:2]([C:3]([C:4]([H:10])([H:11])[H:12])([C:5]([H:13])([H:14])[H:15])[H:9])[H:8])([H:6])[H:7]

>  <mol_properties>  (1) 
{"2": {"label": "donator", "atom_type": "Cs"}, "8": {"label": "d_hydrogen", "atom_type": "H0"}}

>  <level_of_theory>  (1) 
wb97xd/def2tzvp

>  <lot_method>  (1) 
wb97xd

>  <lot_basis>  (1) 
def2tzvp

>  <spin_multiplicity>  (1) 
1.0

>  <optical_isomers>  (1) 
1.0

>  <modes>  (1) 
IdealGasTranslation(mass=(70.0782, 'amu')),         NonlinearRotor(             inertia = ([66.6608, 141.472, 183.078

>  <frequency_value>  (1) 
unknown

>  <frequency_units>  (1) 
unknown

>  <frequency_list>  (1) 
unknown

>  <arkane_path>  (1) 
/home/calvin/Dropbox/PersonalFolders/Calvin/HAb_Converged/rxn_1124/output/Species/rxn_1124_C=CC[C]C/arkane/output.py

>  <path_exists>  (1) 
True

>  <E0_value>  (1) 
-515673.38052477705

>  <E0_units>  (1) 
kJ/mol

>  <thermo_class>  (1) 
NASA

>  <Cp0_value>  (1) 
33.257888

>  <Cp0_units>  (1) 
J/(mol*K)

>  <CpInf_value>  (1) 
357.522296

>  <CpInf_units>  (1) 
J/(mol*K)

>  <Tmin_value>  (1) 
10.0

>  <Tmin_units>  (1) 
K

>  <Tmax_value>  (1) 
3000.0

>  <Tmax_units>  (1) 
K

>  <polynomials>  (1) 
[{"name": "polynomial1", "class": "NASAPolynomial", "Tmin_value": 10.0, "Tmin_units": "K", "Tmax_value": 771.9142943776243, "Tmax_units": "K", "coeffs": [3.779458831960257, 0.020018734993344757, 5.732000924414448e-05, -8.642208919280512e-08, 3.603052216308801e-11, -62021180.35978402, 9.742915927956899]}, {"name": "polynomial2", "class": "NASAPolynomial", "Tmin_value": 771.9142943776243, "Tmin_units": "K", "Tmax_value": 3000.0, "Tmax_units": "K", "coeffs": [-0.3478948834965036, 0.05301654054790977, -2.9363158728726394e-05, 7.927167712612882e-09, -8.370007264752279e-13, -62020889.064341925, 26.345999473910833]}]

>  <H298_value>  (1) 
-123244.18843001623

>  <H298_units>  (1) 
kcal/mol

>  <S298_value>  (1) 
77.68833091262955

>  <S298_units>  (1) 
cal/(mol*K)

>  <Cp_T_value_list>  (1) 
[25.639596007404617, 32.489876341134234, 38.88560738045824, 44.569638849609326, 53.63229961607037, 60.40244107425912, 70.79757735881338, 76.02631058064169, 78.64468950836424]

>  <Cp_T_units>  (1) 
cal/(mol*K)

>  <T_list>  (1) 
[300.0, 400.0, 500.0, 600.0, 800.0, 1000.0, 1500.0, 2000.0, 2400.0]

>  <T_units>  (1) 
K

>  <yaml_path>  (1) 
/home/calvin/Dropbox/PersonalFolders/Calvin/HAb_Converged/rxn_1124/output/Species/rxn_1124_C=CC[C]C/rxn_1124_C=CCCC.yml

>  <frequencies_cm1>  (1) 
[94.05023094271999, 222.95727936976, 245.1857108506, 315.11222236416, 324.16290901592, 348.98019396239994, 507.51141705991995, 698.37927402932, 806.58236171656, 930.133161594, 937.87912103496, 953.39850785816, 966.50071584872, 1002.9300729713199, 1033.8109059553599, 1124.0362260748398, 1181.8493754839199, 1216.6581240709997, 1311.4499894282799, 1330.73248420684, 1336.23980643348, 1388.2022843499199, 1406.6264059634798, 1448.4326125916398, 1473.6344487160397, 1475.715145268, 1487.5263600183998, 1497.1744743929999, 1715.9428927175597, 3004.91037220816, 3007.1696103784398, 3014.14646746356, 3074.26005695484, 3079.52703469528, 3091.4275202548397, 3093.20606945272, 3095.44470666704, 3114.5280588713204, 3199.45893330908]

>  <ZPE_kJmol>  (1) 
356.22333310819664

>  <E_elec_kJmol>  (1) 
-516029.6038578852

>  <E0_minus_Eelec_plus_ZPE_kJmol>  (1) 
0.0

>  <rxn>  (1) 
rxn_1124

>  <species_type>  (1) 
r1

>  <species_folder>  (1) 
rxn_1124_C=CC[C]C

>  <frequencies_cm1_list>  (1) 
[94.05023094271999, 222.95727936976, 245.1857108506, 315.11222236416, 324.16290901592, 348.98019396239994, 507.51141705991995, 698.37927402932, 806.58236171656, 930.133161594, 937.87912103496, 953.39850785816, 966.50071584872, 1002.9300729713199, 1033.8109059553599, 1124.0362260748398, 1181.8493754839199, 1216.6581240709997, 1311.4499894282799, 1330.73248420684, 1336.23980643348, 1388.2022843499199, 1406.6264059634798, 1448.4326125916398, 1473.6344487160397, 1475.715145268, 1487.5263600183998, 1497.1744743929999, 1715.9428927175597, 3004.91037220816, 3007.1696103784398, 3014.14646746356, 3074.26005695484, 3079.52703469528, 3091.4275202548397, 3093.20606945272, 3095.44470666704, 3114.5280588713204, 3199.45893330908]

>  <E0_kJmol>  (1) 
-515673

>  <H298_kJmol>  (1) 
-515654

$$$$

     RDKit          3D

  6  5  0  0  0  0  0  0  0  0999 V2000
    0.3835   -0.6577   -1.2675 S   0  0  0  0  0  0  0  0  0  1  0  0
   -0.1536   -0.4831    0.2243 C   0  0  0  0  0  0  0  0  0  2  0  0
   -0.3082    0.6349    1.0422 C   0  0  0  0  0  2  0  0  0  3  0  0
   -0.4965    1.5363    1.8198 C   0  0  0  0  0  2  0  0  0  4  0  0
   -0.6553    2.3530    2.4829 H   0  0  0  0  0  0  0  0  0  5  0  0
   -0.1108   -1.3827    0.8382 H   0  0  0  0  0  0  0  0  0  6  0  0
  1  2  1  0
  2  6  1  0
  2  3  1  0
  3  4  1  0
  4  5  1  0
M  RAD  2   3   3   4   3
M  END
>  <rmg_smiles>  (2) 
[CH][C][CH][S]

>  <rmg_adjacency_list>  (2) 
1 S u0 p2 c0 {2,S}
2 C u0 p0 c0 {1,S} {3,S} {5,S}
3 C u0 p1 c0 {2,S} {4,S}
4 C u0 p1 c0 {3,S} {6,S}
5 H u0 p0 c0 {2,S}
6 H u0 p0 c0 {4,S}


>  <multiplicity>  (2) 
1

>  <reaction>  (2) 
rxn_1124

>  <type>  (2) 
r2h

>  <role_mapnums>  (2) 
{"r2h_a": 2, "r2h_h": 6}

>  <role_mapidx>  (2) 
{"r2h_a": 1, "r2h_h": 5}

>  <ordered_mapped_smiles>  (2) 
[SH:1][CH:2]([C:3][C:4][H:5])[H:6]

>  <mol_properties>  (2) 
{"1": {"label": "acceptor", "atom_type": "Cs"}, "5": {"label": "a_hydrogen", "atom_type": "H0"}}

>  <level_of_theory>  (2) 
wb97xd/def2tzvp

>  <lot_method>  (2) 
wb97xd

>  <lot_basis>  (2) 
def2tzvp

>  <spin_multiplicity>  (2) 
1.0

>  <optical_isomers>  (2) 
1.0

>  <modes>  (2) 
IdealGasTranslation(mass=(69.9877, 'amu')),         NonlinearRotor(             inertia = ([11.6212, 161.614, 173.235

>  <frequency_value>  (2) 
unknown

>  <frequency_units>  (2) 
unknown

>  <frequency_list>  (2) 
unknown

>  <arkane_path>  (2) 
/home/calvin/Dropbox/PersonalFolders/Calvin/HAb_Converged/rxn_1124/output/Species/rxn_1124_S=CCtC/arkane/output.py

>  <path_exists>  (2) 
True

>  <E0_value>  (2) 
-1348403.2166827258

>  <E0_units>  (2) 
kJ/mol

>  <thermo_class>  (2) 
NASA

>  <Cp0_value>  (2) 
33.257888

>  <Cp0_units>  (2) 
J/(mol*K)

>  <CpInf_value>  (2) 
133.031552

>  <CpInf_units>  (2) 
J/(mol*K)

>  <Tmin_value>  (2) 
10.0

>  <Tmin_units>  (2) 
K

>  <Tmax_value>  (2) 
3000.0

>  <Tmax_units>  (2) 
K

>  <polynomials>  (2) 
[{"name": "polynomial1", "class": "NASAPolynomial", "Tmin_value": 10.0, "Tmin_units": "K", "Tmax_value": 526.1931186551269, "Tmax_units": "K", "coeffs": [3.9344179530593837, 0.004065911246821127, 6.553703840412658e-05, -1.443495918647441e-07, 9.394913877894461e-11, -162175444.89571163, 8.726396833892856]}, {"name": "polynomial2", "class": "NASAPolynomial", "Tmin_value": 526.1931186551269, "Tmin_units": "K", "Tmax_value": 3000.0, "Tmax_units": "K", "coeffs": [4.093919333345027, 0.01690723381309554, -1.1131975130527351e-05, 3.5450645767000207e-09, -4.3283902101660573e-13, -162175656.24187788, 6.210553362827294]}]

>  <H298_value>  (2) 
-322272.7386756088

>  <H298_units>  (2) 
kcal/mol

>  <S298_value>  (2) 
67.91208442892471

>  <S298_units>  (2) 
cal/(mol*K)

>  <Cp_T_value_list>  (2) 
[15.73087337153612, 18.308993297637482, 20.229276045615624, 21.740807345987587, 24.110825163743634, 25.79672956901056, 28.180916020636673, 29.441614337399088, 30.200603661820587]

>  <Cp_T_units>  (2) 
cal/(mol*K)

>  <T_list>  (2) 
[300.0, 400.0, 500.0, 600.0, 800.0, 1000.0, 1500.0, 2000.0, 2400.0]

>  <T_units>  (2) 
K

>  <yaml_path>  (2) 
/home/calvin/Dropbox/PersonalFolders/Calvin/HAb_Converged/rxn_1124/output/Species/rxn_1124_S=CCtC/rxn_1124_S=CCtC.yml

>  <frequencies_cm1>  (2) 
[195.80521941447998, 323.02298945279995, 518.06597349676, 673.6855948186, 732.2953145248, 869.92343430824, 913.78286954708, 1131.63797882408, 1352.94031473172, 2194.1048145197997, 3080.7287571262796, 3429.86689175104]

>  <ZPE_kJmol>  (2) 
92.2073468060466

>  <E_elec_kJmol>  (2) 
-1348495.424029532

>  <E0_minus_Eelec_plus_ZPE_kJmol>  (2) 
0.0

>  <rxn>  (2) 
rxn_1124

>  <species_type>  (2) 
p0

>  <species_folder>  (2) 
rxn_1124_S=CCtC

>  <frequencies_cm1_list>  (2) 
[195.80521941447998, 323.02298945279995, 518.06597349676, 673.6855948186, 732.2953145248, 869.92343430824, 913.78286954708, 1131.63797882408, 1352.94031473172, 2194.1048145197997, 3080.7287571262796, 3429.86689175104]

>  <E0_kJmol>  (2) 
-1.3484e+06

>  <H298_kJmol>  (2) 
-1.34839e+06

$$$$

     RDKit          3D

 20 18  0  0  0  0  0  0  0  0999 V2000
   -0.2796    0.6084   -2.2633 S   0  0  0  0  0  0  0  0  0  1  0  0
   -0.8167    0.7830   -0.7715 C   0  0  0  0  0  3  0  0  0  2  0  0
   -0.9713    1.9010    0.0464 C   0  0  0  0  0  0  0  0  0  3  0  0
   -1.1597    2.8024    0.8240 C   0  0  0  0  0  0  0  0  0  4  0  0
   -1.3184    3.6191    1.4871 H   0  0  0  0  0  0  0  0  0  5  0  0
    1.0546   -2.6455   -0.7884 C   0  0  0  0  0  0  0  0  0  6  0  0
   -0.1083   -2.3433   -0.2033 C   0  0  0  0  0  0  0  0  0  7  0  0
   -0.3297   -1.2984    0.7886 C   0  0  0  0  0  0  0  0  0  8  0  0
    0.8784   -0.6970    1.4637 C   0  0  0  0  0  0  0  0  0  9  0  0
   -1.5300   -1.4795    1.6893 C   0  0  0  0  0  0  0  0  0 10  0  0
    1.1074   -3.4061   -1.5561 H   0  0  0  0  0  0  0  0  0 11  0  0
    1.9828   -2.1579   -0.5190 H   0  0  0  0  0  0  0  0  0 12  0  0
   -0.9992   -2.8734   -0.5297 H   0  0  0  0  0  0  0  0  0 13  0  0
   -0.7641   -0.3246   -0.0156 H   0  0  0  0  0  0  0  0  0 14  0  0
    1.6198   -0.3546    0.7405 H   0  0  0  0  0  0  0  0  0 15  0  0
    1.3591   -1.4319    2.1165 H   0  0  0  0  0  0  0  0  0 16  0  0
    0.5882    0.1592    2.0742 H   0  0  0  0  0  0  0  0  0 17  0  0
   -1.3073   -2.1974    2.4854 H   0  0  0  0  0  0  0  0  0 18  0  0
   -2.3930   -1.8508    1.1345 H   0  0  0  0  0  0  0  0  0 19  0  0
   -1.8065   -0.5354    2.1627 H   0  0  0  0  0  0  0  0  0 20  0  0
  1  2  1  0
  2  3  1  0
  3  4  1  0
  4  5  1  0
  6  7  1  0
  6 11  1  0
  6 12  1  0
  7 13  1  0
  7  8  1  0
  8  9  1  0
  8 14  1  0
  8 10  1  0
  9 17  1  0
  9 16  1  0
  9 15  1  0
 10 19  1  0
 10 20  1  0
 10 18  1  0
M  RAD  1   2   2
M  END
>  <rmg_smiles>  (3) 
[CH2][CH]C(C)C.[CH][C][C][S]

>  <rmg_adjacency_list>  (3) 
multiplicity 2
1  S u0 p2 c0 {8,S}
2  C u0 p0 c0 {3,S} {4,S} {5,S} {10,S}
3  C u0 p0 c0 {2,S} {11,S} {12,S} {13,S}
4  C u0 p0 c0 {2,S} {14,S} {15,S} {16,S}
5  C u0 p0 c0 {2,S} {6,S} {17,S}
6  C u0 p0 c0 {5,S} {18,S} {19,S}
7  C u0 p1 c0 {8,S} {9,S}
8  C u1 p1 c0 {1,S} {7,S}
9  C u0 p1 c0 {7,S} {20,S}
10 H u0 p0 c0 {2,S}
11 H u0 p0 c0 {3,S}
12 H u0 p0 c0 {3,S}
13 H u0 p0 c0 {3,S}
14 H u0 p0 c0 {4,S}
15 H u0 p0 c0 {4,S}
16 H u0 p0 c0 {4,S}
17 H u0 p0 c0 {5,S}
18 H u0 p0 c0 {6,S}
19 H u0 p0 c0 {6,S}
20 H u0 p0 c0 {9,S}


>  <multiplicity>  (3) 
2

>  <reaction>  (3) 
rxn_1124

>  <type>  (3) 
ts

>  <role_mapnums>  (3) 
{"*2": 14, "*1": 8, "*3": 2, "*0": 7, "*4": 1}

>  <role_mapidx>  (3) 
{"*2": 13, "*1": 7, "*3": 1, "*0": 6, "*4": 0}

>  <ordered_mapped_smiles>  (3) 
[SH:1][CH:2][CH2:3][CH2:4][H:5].[CH:6]([CH:7]([C:8]([C:9]([H:15])([H:16])[H:17])([C:10]([H:18])([H:19])[H:20])[H:14])[H:13])([H:11])[H:12]

>  <mol_properties>  (3) 
{"0": {"label": "*4", "atom_type": "S2s"}, "1": {"label": "*3", "atom_type": "C2s"}, "6": {"label": "*0", "atom_type": "Cs"}, "7": {"label": "*1", "atom_type": "Cs"}, "13": {"label": "*2", "atom_type": "H0"}}

>  <level_of_theory>  (3) 
wb97xd/def2tzvp

>  <lot_method>  (3) 
wb97xd

>  <lot_basis>  (3) 
def2tzvp

>  <spin_multiplicity>  (3) 
2.0

>  <optical_isomers>  (3) 
2.0

>  <modes>  (3) 
IdealGasTranslation(mass=(139.058, 'amu')),         NonlinearRotor(             inertia = ([338.787, 502.285, 713.631

>  <frequency_value>  (3) 
-1615.59

>  <frequency_units>  (3) 
cm^-1

>  <frequency_list>  (3) 
unknown

>  <arkane_path>  (3) 
/home/calvin/Dropbox/PersonalFolders/Calvin/HAb_Converged/rxn_1124/output/rxns/TS0/arkane/output.py

>  <path_exists>  (3) 
True

>  <E0_value>  (3) 
-1862360.0

>  <E0_units>  (3) 
kJ/mol

>  <thermo_class>  (3) 
unknown

>  <Cp0_value>  (3) 
unknown

>  <Cp0_units>  (3) 
unknown

>  <CpInf_value>  (3) 
unknown

>  <CpInf_units>  (3) 
unknown

>  <Tmin_value>  (3) 
unknown

>  <Tmin_units>  (3) 
unknown

>  <Tmax_value>  (3) 
unknown

>  <Tmax_units>  (3) 
unknown

>  <polynomials>  (3) 
unknown

>  <H298_value>  (3) 
unknown

>  <H298_units>  (3) 
unknown

>  <S298_value>  (3) 
unknown

>  <S298_units>  (3) 
unknown

>  <Cp_T_value_list>  (3) 
unknown

>  <Cp_T_units>  (3) 
unknown

>  <T_list>  (3) 
unknown

>  <T_units>  (3) 
unknown

>  <yaml_path>  (3) 
unknown

>  <frequencies_cm1>  (3) 
unknown

>  <ZPE_kJmol>  (3) 
unknown

>  <E_elec_kJmol>  (3) 
unknown

>  <E0_minus_Eelec_plus_ZPE_kJmol>  (3) 
unknown

>  <rxn>  (3) 
unknown

>  <species_type>  (3) 
unknown

>  <species_folder>  (3) 
unknown

>  <frequencies_cm1_list>  (3) 
[]

>  <ts_imag_freq_cm1>  (3) 
-1635.2077

>  <ts_freq_out_path>  (3) 
/home/calvin/Dropbox/PersonalFolders/Calvin/HAb_Converged/rxn_1124/output/rxns/TS0/geometry/freq.out

>  <E0_kJmol>  (3) 
-1.86236e+06

>  <H298_kJmol>  (3) 
unknown

$$$$

     RDKit          3D

 14 13  0  0  0  0  0  0  0  0999 V2000
    1.0767   -1.6838    1.2931 C   0  0  0  0  0  0  0  0  0  1  0  0
    1.0020   -0.3665    0.9163 C   0  0  0  0  0  0  0  0  0  2  0  0
    1.3965    0.7260    1.6806 C   0  0  0  0  0  3  0  0  0  3  0  0
    1.2666    2.1197    1.1619 C   0  0  0  0  0  0  0  0  0  4  0  0
    1.9670    0.5479    3.0536 C   0  0  0  0  0  0  0  0  0  5  0  0
    0.7448   -2.4705    0.6300 H   0  0  0  0  0  0  0  0  0  6  0  0
    1.4663   -1.9826    2.2578 H   0  0  0  0  0  0  0  0  0  7  0  0
    0.5980   -0.1511   -0.0695 H   0  0  0  0  0  0  0  0  0  8  0  0
    0.6296    2.7241    1.8172 H   0  0  0  0  0  0  0  0  0  9  0  0
    2.2410    2.6200    1.1341 H   0  0  0  0  0  0  0  0  0 10  0  0
    0.8426    2.1448    0.1579 H   0  0  0  0  0  0  0  0  0 11  0  0
    2.8745   -0.0634    3.0328 H   0  0  0  0  0  0  0  0  0 12  0  0
    1.2599    0.0408    3.7173 H   0  0  0  0  0  0  0  0  0 13  0  0
    2.2205    1.5071    3.5054 H   0  0  0  0  0  0  0  0  0 14  0  0
  1  7  1  0
  1  6  1  0
  1  2  1  0
  2  8  1  0
  2  3  1  0
  3  4  1  0
  3  5  1  0
  4  9  1  0
  4 10  1  0
  4 11  1  0
  5 12  1  0
  5 14  1  0
  5 13  1  0
M  RAD  1   3   2
M  END
>  <rmg_smiles>  (4) 
[CH2][CH][C](C)C

>  <rmg_adjacency_list>  (4) 
multiplicity 2
1  C u0 p0 c0 {3,S} {6,S} {7,S} {8,S}
2  C u0 p0 c0 {3,S} {9,S} {10,S} {11,S}
3  C u1 p0 c0 {1,S} {2,S} {4,S}
4  C u0 p0 c0 {3,S} {5,S} {12,S}
5  C u0 p0 c0 {4,S} {13,S} {14,S}
6  H u0 p0 c0 {1,S}
7  H u0 p0 c0 {1,S}
8  H u0 p0 c0 {1,S}
9  H u0 p0 c0 {2,S}
10 H u0 p0 c0 {2,S}
11 H u0 p0 c0 {2,S}
12 H u0 p0 c0 {4,S}
13 H u0 p0 c0 {5,S}
14 H u0 p0 c0 {5,S}


>  <multiplicity>  (4) 
2

>  <reaction>  (4) 
rxn_1124

>  <type>  (4) 
r1

>  <role_mapnums>  (4) 
{}

>  <role_mapidx>  (4) 
{}

>  <ordered_mapped_smiles>  (4) 
[CH:1]([CH:2]([C:3]([C:4]([H:9])([H:10])[H:11])[C:5]([H:12])([H:13])[H:14])[H:8])([H:6])[H:7]

>  <level_of_theory>  (4) 
wb97xd/def2tzvp

>  <lot_method>  (4) 
wb97xd

>  <lot_basis>  (4) 
def2tzvp

>  <spin_multiplicity>  (4) 
2.0

>  <optical_isomers>  (4) 
1.0

>  <modes>  (4) 
IdealGasTranslation(mass=(69.0704, 'amu')),         NonlinearRotor(             inertia = ([61.3549, 130.413, 185.559

>  <frequency_value>  (4) 
unknown

>  <frequency_units>  (4) 
unknown

>  <frequency_list>  (4) 
unknown

>  <arkane_path>  (4) 
/home/calvin/Dropbox/PersonalFolders/Calvin/HAb_Converged/rxn_1124/output/Species/rxn_1124_C=C[C][C]C/arkane/output.py

>  <path_exists>  (4) 
True

>  <E0_value>  (4) 
-514025.9755079239

>  <E0_units>  (4) 
kJ/mol

>  <thermo_class>  (4) 
NASA

>  <Cp0_value>  (4) 
33.257888

>  <Cp0_units>  (4) 
J/(mol*K)

>  <CpInf_value>  (4) 
332.57888

>  <CpInf_units>  (4) 
J/(mol*K)

>  <Tmin_value>  (4) 
10.0

>  <Tmin_units>  (4) 
K

>  <Tmax_value>  (4) 
3000.0

>  <Tmax_units>  (4) 
K

>  <polynomials>  (4) 
[{"name": "polynomial1", "class": "NASAPolynomial", "Tmin_value": 10.0, "Tmin_units": "K", "Tmax_value": 869.6920679830255, "Tmax_units": "K", "coeffs": [3.7251534266099315, 0.026124983740037182, 2.9283649756322525e-05, -5.054120287970429e-08, 2.023244225001157e-11, -61823043.86817725, 10.74219344334208]}, {"name": "polynomial2", "class": "NASAPolynomial", "Tmin_value": 869.6920679830255, "Tmin_units": "K", "Tmax_value": 3000.0, "Tmax_units": "K", "coeffs": [2.049387595722733, 0.04566272803591952, -2.48184133745368e-05, 6.572064258076298e-09, -6.813784120606917e-13, -61823199.79068455, 16.020641566778316]}]

>  <H298_value>  (4) 
-122850.30931833542

>  <H298_units>  (4) 
kcal/mol

>  <S298_value>  (4) 
80.76860453620434

>  <S298_units>  (4) 
cal/(mol*K)

>  <Cp_T_value_list>  (4) 
[25.828611832321002, 32.0811525837059, 37.867084343079156, 43.01801750917861, 51.22380214574075, 57.20052316456338, 66.43884769284972, 71.0936035426273, 73.39069523043335]

>  <Cp_T_units>  (4) 
cal/(mol*K)

>  <T_list>  (4) 
[300.0, 400.0, 500.0, 600.0, 800.0, 1000.0, 1500.0, 2000.0, 2400.0]

>  <T_units>  (4) 
K

>  <yaml_path>  (4) 
/home/calvin/Dropbox/PersonalFolders/Calvin/HAb_Converged/rxn_1124/output/Species/rxn_1124_C=C[C][C]C/rxn_1124_C=CCCC.yml

>  <frequencies_cm1>  (4) 
[55.11442417832, 159.33466037996, 226.55557967744, 278.64853031495994, 356.053188842, 383.12971195875997, 537.2797984221199, 582.97958572672, 765.24311009016, 793.8921728451999, 933.2782408705599, 980.1316817089199, 985.8381465098398, 986.5797809243999, 1056.26594795176, 1065.45397430992, 1225.2624566769598, 1249.45484595932, 1354.32057878104, 1397.4040446787199, 1400.8306703534, 1443.5021171318801, 1461.08159955108, 1469.6378632598, 1480.13061682876, 1493.1229530541998, 1520.0758704352, 2982.7506105805196, 2995.00817937672, 3028.9585547987995, 3046.0710822162396, 3091.5030570933595, 3094.47646173692, 3117.3709907937996, 3132.2036790849997, 3223.1775006043595]

>  <ZPE_kJmol>  (4) 
319.1166494835046

>  <E_elec_kJmol>  (4) 
-514345.0921574074

>  <E0_minus_Eelec_plus_ZPE_kJmol>  (4) 
0.0

>  <rxn>  (4) 
rxn_1124

>  <species_type>  (4) 
p1

>  <species_folder>  (4) 
rxn_1124_C=C[C][C]C

>  <frequencies_cm1_list>  (4) 
[55.11442417832, 159.33466037996, 226.55557967744, 278.64853031495994, 356.053188842, 383.12971195875997, 537.2797984221199, 582.97958572672, 765.24311009016, 793.8921728451999, 933.2782408705599, 980.1316817089199, 985.8381465098398, 986.5797809243999, 1056.26594795176, 1065.45397430992, 1225.2624566769598, 1249.45484595932, 1354.32057878104, 1397.4040446787199, 1400.8306703534, 1443.5021171318801, 1461.08159955108, 1469.6378632598, 1480.13061682876, 1493.1229530541998, 1520.0758704352, 2982.7506105805196, 2995.00817937672, 3028.9585547987995, 3046.0710822162396, 3091.5030570933595, 3094.47646173692, 3117.3709907937996, 3132.2036790849997, 3223.1775006043595]

>  <E0_kJmol>  (4) 
-514026

>  <H298_kJmol>  (4) 
-514006

$$$$

     RDKit          3D

  5  4  0  0  0  0  0  0  0  0999 V2000
    2.6268   -0.7142   -0.0485 S   0  0  0  0  0  0  0  0  0  1  0  0
    1.1401   -0.3099    0.0748 C   0  0  0  0  0  3  0  0  0  2  0  0
   -0.1297    0.0353    0.1801 C   0  0  0  0  0  0  0  0  0  3  0  0
   -1.3070    0.3553    0.2777 C   0  0  0  0  0  0  0  0  0  4  0  0
   -2.3303    0.6335    0.3626 H   0  0  0  0  0  0  0  0  0  5  0  0
  1  2  1  0
  2  3  1  0
  3  4  1  0
  4  5  1  0
M  RAD  1   2   2
M  END
>  <rmg_smiles>  (5) 
[CH][C][C][S]

>  <rmg_adjacency_list>  (5) 
multiplicity 2
1 S u0 p2 c0 {3,S}
2 C u0 p1 c0 {3,S} {4,S}
3 C u1 p1 c0 {1,S} {2,S}
4 C u0 p1 c0 {2,S} {5,S}
5 H u0 p0 c0 {4,S}


>  <multiplicity>  (5) 
2

>  <reaction>  (5) 
rxn_1124

>  <type>  (5) 
r2

>  <role_mapnums>  (5) 
{}

>  <role_mapidx>  (5) 
{}

>  <ordered_mapped_smiles>  (5) 
[SH:1][CH:2][CH2:3][CH2:4][H:5]

>  <level_of_theory>  (5) 
wb97xd/def2tzvp

>  <lot_method>  (5) 
wb97xd

>  <lot_basis>  (5) 
def2tzvp

>  <spin_multiplicity>  (5) 
2.0

>  <optical_isomers>  (5) 
1.0

>  <modes>  (5) 
IdealGasTranslation(mass=(68.9799, 'amu')),         LinearRotor(inertia=(188.071, 'amu*angstrom^2'), symmetry=1),         HarmonicOscillator(             frequencies = ([93.302, 167.199, 201.944, 376.398, 540.963, 717.211, 781.516, 1596.29, 2040.67, 3466.72

>  <frequency_value>  (5) 
unknown

>  <frequency_units>  (5) 
unknown

>  <frequency_list>  (5) 
unknown

>  <arkane_path>  (5) 
/home/calvin/Dropbox/PersonalFolders/Calvin/HAb_Converged/rxn_1124/output/Species/rxn_1124_S=[C]CtC/arkane/output.py

>  <path_exists>  (5) 
True

>  <E0_value>  (5) 
-1346748.5243660111

>  <E0_units>  (5) 
kJ/mol

>  <thermo_class>  (5) 
NASA

>  <Cp0_value>  (5) 
29.100652

>  <Cp0_units>  (5) 
J/(mol*K)

>  <CpInf_value>  (5) 
112.245372

>  <CpInf_units>  (5) 
J/(mol*K)

>  <Tmin_value>  (5) 
10.0

>  <Tmin_units>  (5) 
K

>  <Tmax_value>  (5) 
3000.0

>  <Tmax_units>  (5) 
K

>  <polynomials>  (5) 
[{"name": "polynomial1", "class": "NASAPolynomial", "Tmin_value": 10.0, "Tmin_units": "K", "Tmax_value": 768.7308254761849, "Tmax_units": "K", "coeffs": [3.1112290357373498, 0.029941287825588997, -5.228069000997051e-05, 4.770501530582004e-08, -1.698855614298161e-11, -161976426.89557835, 9.397952398106032]}, {"name": "polynomial2", "class": "NASAPolynomial", "Tmin_value": 768.7308254761849, "Tmin_units": "K", "Tmax_value": 3000.0, "Tmax_units": "K", "coeffs": [6.435725982884074, 0.009332939760382356, -5.610122686686136e-06, 1.6301786790181868e-09, -1.830823339747662e-13, -161976840.2307336, -5.130361895490532]}]

>  <H298_value>  (5) 
-321876.869622553

>  <H298_units>  (5) 
kcal/mol

>  <S298_value>  (5) 
67.78634302344618

>  <S298_units>  (5) 
cal/(mol*K)

>  <Cp_T_value_list>  (5) 
[16.968321890468697, 18.562590728474362, 19.699262699630516, 20.58253059574152, 22.00088030555848, 23.062802066658016, 24.61623895208172, 25.383039425471146, 25.79758163538407]

>  <Cp_T_units>  (5) 
cal/(mol*K)

>  <T_list>  (5) 
[300.0, 400.0, 500.0, 600.0, 800.0, 1000.0, 1500.0, 2000.0, 2400.0]

>  <T_units>  (5) 
K

>  <yaml_path>  (5) 
/home/calvin/Dropbox/PersonalFolders/Calvin/HAb_Converged/rxn_1124/output/Species/rxn_1124_S=[C]CtC/rxn_1124_S=CCtC.yml

>  <frequencies_cm1>  (5) 
[92.18241093568001, 165.19219885792, 199.5202584726, 371.88159000459996, 534.4712014262401, 708.6042151708001, 772.13756335144, 1577.13365145908, 2016.1812248786, 3425.1149379096]

>  <ZPE_kJmol>  (5) 
58.990384147355805

>  <E_elec_kJmol>  (5) 
-1346807.5147501584

>  <E0_minus_Eelec_plus_ZPE_kJmol>  (5) 
0.0

>  <rxn>  (5) 
rxn_1124

>  <species_type>  (5) 
r0

>  <species_folder>  (5) 
rxn_1124_S=[C]CtC

>  <frequencies_cm1_list>  (5) 
[92.18241093568001, 165.19219885792, 199.5202584726, 371.88159000459996, 534.4712014262401, 708.6042151708001, 772.13756335144, 1577.13365145908, 2016.1812248786, 3425.1149379096]

>  <E0_kJmol>  (5) 
-1.34675e+06

>  <H298_kJmol>  (5) 
-1.34673e+06

$$$$
