
     RDKit          3D

 15 14  0  0  0  0  0  0  0  0999 V2000
    0.6152    0.0522   -1.4757 C   0  0  0  0  0  0  0  0  0  1  0  0
    0.5513    0.2486    0.0382 C   0  0  0  0  0  0  0  0  0  2  0  0
    0.7673    1.7102    0.4167 C   0  0  0  0  0  0  0  0  0  3  0  0
   -0.7635   -0.2461    0.6090 C   0  0  0  0  0  0  0  0  0  4  0  0
   -1.0701   -1.5794    0.3529 O   0  0  0  0  0  0  0  0  0  5  0  0
    1.5884    0.3575   -1.8658 H   0  0  0  0  0  0  0  0  0  6  0  0
   -0.1505    0.6555   -1.9707 H   0  0  0  0  0  0  0  0  0  7  0  0
    0.4459   -0.9897   -1.7476 H   0  0  0  0  0  0  0  0  0  8  0  0
    1.3518   -0.3474    0.4978 H   0  0  0  0  0  0  0  0  0  9  0  0
   -0.0120    2.3387   -0.0225 H   0  0  0  0  0  0  0  0  0 10  0  0
    1.7295    2.0690    0.0479 H   0  0  0  0  0  0  0  0  0 11  0  0
    0.7444    1.8545    1.4978 H   0  0  0  0  0  0  0  0  0 12  0  0
   -0.6885   -0.1374    1.6927 H   0  0  0  0  0  0  0  0  0 13  0  0
   -1.6182    0.3582    0.2989 H   0  0  0  0  0  0  0  0  0 14  0  0
   -0.3557   -2.1258    0.6897 H   0  0  0  0  0  0  0  0  0 15  0  0
  1  8  1  0
  1  7  1  0
  1  6  1  0
  1  2  1  0
  2  9  1  0
  2  3  1  0
  2  4  1  0
  3 11  1  0
  3 12  1  0
  3 10  1  0
  4 14  1  0
  4 13  1  0
  4  5  1  0
  5 15  1  0
M  END
>  <rmg_smiles>  (1) 
CC(C)CO

>  <rmg_adjacency_list>  (1) 
1  O u0 p2 c0 {3,S} {15,S}
2  C u0 p0 c0 {3,S} {4,S} {5,S} {6,S}
3  C u0 p0 c0 {1,S} {2,S} {7,S} {8,S}
4  C u0 p0 c0 {2,S} {9,S} {10,S} {11,S}
5  C u0 p0 c0 {2,S} {12,S} {13,S} {14,S}
6  H u0 p0 c0 {2,S}
7  H u0 p0 c0 {3,S}
8  H u0 p0 c0 {3,S}
9  H u0 p0 c0 {4,S}
10 H u0 p0 c0 {4,S}
11 H u0 p0 c0 {4,S}
12 H u0 p0 c0 {5,S}
13 H u0 p0 c0 {5,S}
14 H u0 p0 c0 {5,S}
15 H u0 p0 c0 {1,S}


>  <multiplicity>  (1) 
1

>  <reaction>  (1) 
rxn_422

>  <type>  (1) 
r1h

>  <role_mapnums>  (1) 
{"r1h_a": 4, "r1h_h": 13}

>  <role_mapidx>  (1) 
{"r1h_a": 3, "r1h_h": 12}

>  <ordered_mapped_smiles>  (1) 
[C:1]([C:2]([C:3]([H:10])([H:11])[H:12])([C:4]([O:5][H:15])([H:13])[H:14])[H:9])([H:6])([H:7])[H:8]

>  <mol_properties>  (1) 
{"3": {"label": "donator", "atom_type": "Cs"}, "12": {"label": "d_hydrogen", "atom_type": "H0"}}

>  <level_of_theory>  (1) 
wb97xd/def2tzvp

>  <lot_method>  (1) 
wb97xd

>  <lot_basis>  (1) 
def2tzvp

>  <spin_multiplicity>  (1) 
1.0

>  <optical_isomers>  (1) 
2.0

>  <modes>  (1) 
IdealGasTranslation(mass=(74.0732, 'amu')),         NonlinearRotor(             inertia = ([66.603, 143.905, 189.515

>  <frequency_value>  (1) 
unknown

>  <frequency_units>  (1) 
unknown

>  <frequency_list>  (1) 
unknown

>  <arkane_path>  (1) 
/home/calvin/Dropbox/PersonalFolders/Calvin/HAb_Converged/rxn_422/output/Species/rxn_422_CC[C]CO/arkane/output.py

>  <path_exists>  (1) 
True

>  <E0_value>  (1) 
-613201.798563127

>  <E0_units>  (1) 
kJ/mol

>  <thermo_class>  (1) 
NASA

>  <Cp0_value>  (1) 
33.257888

>  <Cp0_units>  (1) 
J/(mol*K)

>  <CpInf_value>  (1) 
357.522296

>  <CpInf_units>  (1) 
J/(mol*K)

>  <Tmin_value>  (1) 
10.0

>  <Tmin_units>  (1) 
K

>  <Tmax_value>  (1) 
3000.0

>  <Tmax_units>  (1) 
K

>  <polynomials>  (1) 
[{"name": "polynomial1", "class": "NASAPolynomial", "Tmin_value": 10.0, "Tmin_units": "K", "Tmax_value": 575.0651176416371, "Tmax_units": "K", "coeffs": [3.712805799436365, 0.02341794423636385, 4.945520881208784e-05, -8.422411516035852e-08, 3.9345456013228885e-11, -73751136.90729754, 10.481383297442903]}, {"name": "polynomial2", "class": "NASAPolynomial", "Tmin_value": 575.0651176416371, "Tmin_units": "K", "Tmax_value": 3000.0, "Tmax_units": "K", "coeffs": [-0.6878246335024606, 0.05402765028160735, -3.0387394291557736e-05, 8.336812494957577e-09, -8.939885093345157e-13, -73750630.77899487, 29.27712262817248]}]

>  <H298_value>  (1) 
-146553.90003462895

>  <H298_units>  (1) 
kcal/mol

>  <S298_value>  (1) 
79.77174717591569

>  <S298_units>  (1) 
cal/(mol*K)

>  <Cp_T_value_list>  (1) 
[26.298303224673802, 33.0069380139673, 39.18106842386457, 44.660864775466386, 53.63198804085297, 60.401649014178936, 70.73051971901154, 75.92834368294982, 78.56390633588433]

>  <Cp_T_units>  (1) 
cal/(mol*K)

>  <T_list>  (1) 
[300.0, 400.0, 500.0, 600.0, 800.0, 1000.0, 1500.0, 2000.0, 2400.0]

>  <T_units>  (1) 
K

>  <yaml_path>  (1) 
/home/calvin/Dropbox/PersonalFolders/Calvin/HAb_Converged/rxn_422/output/Species/rxn_422_CC[C]CO/rxn_422_CCCCO.yml

>  <frequencies_cm1>  (1) 
[130.82980431664, 216.90746530284, 234.24660323583998, 266.73431078476, 284.49233482228, 352.62656316731994, 430.94453074191995, 496.53797451855996, 825.04768524204, 903.1871111983199, 929.7966793133199, 953.3298380049599, 972.0423730019598, 1079.3527525975999, 1116.63361589988, 1149.4372047735199, 1195.51467627072, 1246.91406139092, 1321.76420137892, 1364.46311609868, 1379.29580438988, 1394.3345022406797, 1400.81006939744, 1419.04878240736, 1474.01899989396, 1475.3855299726397, 1489.2293723777598, 1494.17360180816, 1499.15903315048, 2968.2269366287196, 2974.66816885888, 3005.13698272372, 3008.8176868552396, 3047.7397596489996, 3073.490954599, 3077.9132931450795, 3086.88844295832, 3102.6138393411197, 3839.6611077073594]

>  <ZPE_kJmol>  (1) 
356.9742425885658

>  <E_elec_kJmol>  (1) 
-613558.7728057157

>  <E0_minus_Eelec_plus_ZPE_kJmol>  (1) 
0.0

>  <rxn>  (1) 
rxn_422

>  <species_type>  (1) 
r0

>  <species_folder>  (1) 
rxn_422_CC[C]CO

>  <frequencies_cm1_list>  (1) 
[130.82980431664, 216.90746530284, 234.24660323583998, 266.73431078476, 284.49233482228, 352.62656316731994, 430.94453074191995, 496.53797451855996, 825.04768524204, 903.1871111983199, 929.7966793133199, 953.3298380049599, 972.0423730019598, 1079.3527525975999, 1116.63361589988, 1149.4372047735199, 1195.51467627072, 1246.91406139092, 1321.76420137892, 1364.46311609868, 1379.29580438988, 1394.3345022406797, 1400.81006939744, 1419.04878240736, 1474.01899989396, 1475.3855299726397, 1489.2293723777598, 1494.17360180816, 1499.15903315048, 2968.2269366287196, 2974.66816885888, 3005.13698272372, 3008.8176868552396, 3047.7397596489996, 3073.490954599, 3077.9132931450795, 3086.88844295832, 3102.6138393411197, 3839.6611077073594]

>  <E0_kJmol>  (1) 
-613202

>  <H298_kJmol>  (1) 
-613182

$$$$

     RDKit          3D

  9  8  0  0  0  0  0  0  0  0999 V2000
   -0.1937    0.1679   -1.4642 H   0  0  0  0  0  0  0  0  0  1  0  0
   -0.7450   -1.0497    0.0231 C   0  0  0  0  0  0  0  0  0  2  0  0
   -0.0875    0.0113   -0.3907 C   0  0  0  0  0  0  0  0  0  3  0  0
    0.7729    0.9652    0.3488 C   0  0  0  0  0  0  0  0  0  4  0  0
   -0.7230   -1.3671    1.0654 H   0  0  0  0  0  0  0  0  0  5  0  0
   -1.3444   -1.6438   -0.6593 H   0  0  0  0  0  0  0  0  0  6  0  0
    0.3853    1.9838    0.2686 H   0  0  0  0  0  0  0  0  0  7  0  0
    0.8327    0.7054    1.4110 H   0  0  0  0  0  0  0  0  0  8  0  0
    1.7874    0.9748   -0.0575 H   0  0  0  0  0  0  0  0  0  9  0  0
  1  3  1  0
  2  5  1  0
  2  6  1  0
  2  3  1  0
  3  4  1  0
  4  8  1  0
  4  9  1  0
  4  7  1  0
M  END
>  <rmg_smiles>  (2) 
[CH2][CH]C

>  <rmg_adjacency_list>  (2) 
1 C u0 p0 c0 {2,S} {4,S} {5,S} {6,S}
2 C u0 p0 c0 {1,S} {3,S} {7,S}
3 C u0 p0 c0 {2,S} {8,S} {9,S}
4 H u0 p0 c0 {1,S}
5 H u0 p0 c0 {1,S}
6 H u0 p0 c0 {1,S}
7 H u0 p0 c0 {2,S}
8 H u0 p0 c0 {3,S}
9 H u0 p0 c0 {3,S}


>  <multiplicity>  (2) 
1

>  <reaction>  (2) 
rxn_422

>  <type>  (2) 
r2h

>  <role_mapnums>  (2) 
{"r2h_a": 3, "r2h_h": 1}

>  <role_mapidx>  (2) 
{"r2h_a": 2, "r2h_h": 0}

>  <ordered_mapped_smiles>  (2) 
[H:1][CH:3]([CH:2]([H:5])[H:6])[C:4]([H:7])([H:8])[H:9]

>  <mol_properties>  (2) 
{"0": {"label": "a_hydrogen", "atom_type": "H0"}, "2": {"label": "acceptor", "atom_type": "Cs"}}

>  <level_of_theory>  (2) 
wb97xd/def2tzvp

>  <lot_method>  (2) 
wb97xd

>  <lot_basis>  (2) 
def2tzvp

>  <spin_multiplicity>  (2) 
1.0

>  <optical_isomers>  (2) 
1.0

>  <modes>  (2) 
IdealGasTranslation(mass=(42.047, 'amu')),         NonlinearRotor(             inertia = ([10.7194, 53.9495, 61.5633

>  <frequency_value>  (2) 
unknown

>  <frequency_units>  (2) 
unknown

>  <frequency_list>  (2) 
unknown

>  <arkane_path>  (2) 
/home/calvin/Dropbox/PersonalFolders/Calvin/HAb_Converged/rxn_422/output/Species/rxn_422_C=CC/arkane/output.py

>  <path_exists>  (2) 
True

>  <E0_value>  (2) 
-309367.8832800635

>  <E0_units>  (2) 
kJ/mol

>  <thermo_class>  (2) 
NASA

>  <Cp0_value>  (2) 
33.257888

>  <Cp0_units>  (2) 
J/(mol*K)

>  <CpInf_value>  (2) 
207.8618

>  <CpInf_units>  (2) 
J/(mol*K)

>  <Tmin_value>  (2) 
10.0

>  <Tmin_units>  (2) 
K

>  <Tmax_value>  (2) 
3000.0

>  <Tmax_units>  (2) 
K

>  <polynomials>  (2) 
[{"name": "polynomial1", "class": "NASAPolynomial", "Tmin_value": 10.0, "Tmin_units": "K", "Tmax_value": 531.9066404514887, "Tmax_units": "K", "coeffs": [4.0204367106395305, -0.0017312814973888466, 7.469369070858841e-05, -1.103989586823944e-07, 5.357411953540602e-11, -37208361.619619094, 6.984063163619424]}, {"name": "polynomial2", "class": "NASAPolynomial", "Tmin_value": 531.9066404514887, "Tmin_units": "K", "Tmax_value": 3000.0, "Tmax_units": "K", "coeffs": [-0.30746978474152303, 0.03081497539241948, -1.7087881859194207e-05, 4.635359552359225e-09, -4.926745989402899e-13, -37207901.209693715, 25.131571818199003]}]

>  <H298_value>  (2) 
-73937.54315081466

>  <H298_units>  (2) 
kcal/mol

>  <S298_value>  (2) 
63.235428095961645

>  <S298_units>  (2) 
cal/(mol*K)

>  <Cp_T_value_list>  (2) 
[15.255114438428619, 19.0471333221202, 22.6079143488244, 25.768633340780376, 30.96022164704354, 34.89993402421754, 40.97109580318192, 44.05842766532305, 45.61775865339882]

>  <Cp_T_units>  (2) 
cal/(mol*K)

>  <T_list>  (2) 
[300.0, 400.0, 500.0, 600.0, 800.0, 1000.0, 1500.0, 2000.0, 2400.0]

>  <T_units>  (2) 
K

>  <yaml_path>  (2) 
/home/calvin/Dropbox/PersonalFolders/Calvin/HAb_Converged/rxn_422/output/Species/rxn_422_C=CC/rxn_422_C=CC.yml

>  <frequencies_cm1>  (2) 
[200.92112347787997, 429.72220735495995, 590.1693193567598, 925.5460154002399, 944.49202789812, 949.7315376972799, 1024.05291981564, 1068.7501272635197, 1186.76613697304, 1322.2792252779197, 1396.37399688072, 1440.26090006084, 1466.0326959668, 1481.02332492036, 1720.5094379553598, 3007.2932161142003, 3065.80679802592, 3091.5648599612396, 3111.3280437122, 3123.2628641983597, 3201.2855514042]

>  <ZPE_kJmol>  (2) 
207.8343042708976

>  <E_elec_kJmol>  (2) 
-309575.71758433443

>  <E0_minus_Eelec_plus_ZPE_kJmol>  (2) 
0.0

>  <rxn>  (2) 
rxn_422

>  <species_type>  (2) 
p0

>  <species_folder>  (2) 
rxn_422_C=CC

>  <frequencies_cm1_list>  (2) 
[200.92112347787997, 429.72220735495995, 590.1693193567598, 925.5460154002399, 944.49202789812, 949.7315376972799, 1024.05291981564, 1068.7501272635197, 1186.76613697304, 1322.2792252779197, 1396.37399688072, 1440.26090006084, 1466.0326959668, 1481.02332492036, 1720.5094379553598, 3007.2932161142003, 3065.80679802592, 3091.5648599612396, 3111.3280437122, 3123.2628641983597, 3201.2855514042]

>  <E0_kJmol>  (2) 
-309368

>  <H298_kJmol>  (2) 
-309355

$$$$

     RDKit          3D

 23 21  0  0  0  0  0  0  0  0999 V2000
    0.7378    0.2072   -2.7849 C   0  0  0  0  0  0  0  0  0  1  0  0
    0.6740    0.4036   -1.2710 C   0  0  0  0  0  0  0  0  0  2  0  0
    0.8900    1.8652   -0.8925 C   0  0  0  0  0  0  0  0  0  3  0  0
   -0.6408   -0.0911   -0.7002 C   0  0  0  0  0  0  0  0  0  4  0  0
   -0.9474   -1.4244   -0.9563 O   0  0  0  0  0  0  0  0  0  5  0  0
    1.7110    0.5125   -3.1750 H   0  0  0  0  0  0  0  0  0  6  0  0
   -0.0279    0.8105   -3.2799 H   0  0  0  0  0  0  0  0  0  7  0  0
    0.5686   -0.8347   -3.0568 H   0  0  0  0  0  0  0  0  0  8  0  0
    1.4744   -0.1924   -0.8114 H   0  0  0  0  0  0  0  0  0  9  0  0
    0.1106    2.4937   -1.3317 H   0  0  0  0  0  0  0  0  0 10  0  0
    1.8522    2.2240   -1.2613 H   0  0  0  0  0  0  0  0  0 11  0  0
    0.8671    2.0095    0.1886 H   0  0  0  0  0  0  0  0  0 12  0  0
   -0.5531    0.0361    0.5678 H   0  0  0  0  0  0  0  0  0 13  0  0
   -1.4955    0.5132   -1.0104 H   0  0  0  0  0  0  0  0  0 14  0  0
   -0.2330   -1.9708   -0.6195 H   0  0  0  0  0  0  0  0  0 15  0  0
   -1.0708   -1.2311    2.3950 C   0  0  0  0  0  0  0  0  0 16  0  0
   -0.4133   -0.1701    1.9812 C   0  0  0  0  0  3  0  0  0 17  0  0
    0.4471    0.7838    2.7207 C   0  0  0  0  0  0  0  0  0 18  0  0
   -1.0487   -1.5485    3.4374 H   0  0  0  0  0  0  0  0  0 19  0  0
   -1.6701   -1.8252    1.7126 H   0  0  0  0  0  0  0  0  0 20  0  0
    0.0595    1.8024    2.6405 H   0  0  0  0  0  0  0  0  0 21  0  0
    0.5070    0.5239    3.7829 H   0  0  0  0  0  0  0  0  0 22  0  0
    1.4616    0.7933    2.3144 H   0  0  0  0  0  0  0  0  0 23  0  0
  1  7  1  0
  1  8  1  0
  1  6  1  0
  1  2  1  0
  2  3  1  0
  2  4  1  0
  2  9  1  0
  3 12  1  0
  3 11  1  0
  3 10  1  0
  4  5  1  0
  4 14  1  0
  4 13  1  0
  5 15  1  0
 16 19  1  0
 16 20  1  0
 16 17  1  0
 17 18  1  0
 18 23  1  0
 18 22  1  0
 18 21  1  0
M  RAD  1  17   2
M  END
>  <rmg_smiles>  (3) 
CC(C)CO.[CH2][C]C

>  <rmg_adjacency_list>  (3) 
multiplicity 2
1  O u0 p2 c0 {3,S} {23,S}
2  C u0 p0 c0 {3,S} {4,S} {5,S} {9,S}
3  C u0 p0 c0 {1,S} {2,S} {10,S} {11,S}
4  C u0 p0 c0 {2,S} {12,S} {13,S} {14,S}
5  C u0 p0 c0 {2,S} {15,S} {16,S} {17,S}
6  C u0 p0 c0 {8,S} {18,S} {19,S} {20,S}
7  C u0 p0 c0 {8,S} {21,S} {22,S}
8  C u1 p1 c0 {6,S} {7,S}
9  H u0 p0 c0 {2,S}
10 H u0 p0 c0 {3,S}
11 H u0 p0 c0 {3,S}
12 H u0 p0 c0 {4,S}
13 H u0 p0 c0 {4,S}
14 H u0 p0 c0 {4,S}
15 H u0 p0 c0 {5,S}
16 H u0 p0 c0 {5,S}
17 H u0 p0 c0 {5,S}
18 H u0 p0 c0 {6,S}
19 H u0 p0 c0 {6,S}
20 H u0 p0 c0 {6,S}
21 H u0 p0 c0 {7,S}
22 H u0 p0 c0 {7,S}
23 H u0 p0 c0 {1,S}


>  <multiplicity>  (3) 
2

>  <reaction>  (3) 
rxn_422

>  <type>  (3) 
ts

>  <role_mapnums>  (3) 
{"*2": 13, "*1": 4, "*3": 17, "*0": 2, "*4": 16}

>  <role_mapidx>  (3) 
{"*2": 12, "*1": 3, "*3": 16, "*0": 1, "*4": 15}

>  <ordered_mapped_smiles>  (3) 
[C:1]([C:2]([C:3]([H:10])([H:11])[H:12])([C:4]([O:5][H:15])([H:13])[H:14])[H:9])([H:6])([H:7])[H:8].[CH:16]([CH:17][C:18]([H:21])([H:22])[H:23])([H:19])[H:20]

>  <mol_properties>  (3) 
{"1": {"label": "*0", "atom_type": "Cs"}, "3": {"label": "*1", "atom_type": "Cs"}, "12": {"label": "*2", "atom_type": "H0"}, "15": {"label": "*4", "atom_type": "Cs"}, "16": {"label": "*3", "atom_type": "C2s"}}

>  <level_of_theory>  (3) 
wb97xd/def2tzvp

>  <lot_method>  (3) 
wb97xd

>  <lot_basis>  (3) 
def2tzvp

>  <spin_multiplicity>  (3) 
2.0

>  <optical_isomers>  (3) 
2.0

>  <modes>  (3) 
IdealGasTranslation(mass=(115.112, 'amu')),         NonlinearRotor(             inertia = ([194.232, 459.845, 618.662

>  <frequency_value>  (3) 
-1544.38

>  <frequency_units>  (3) 
cm^-1

>  <frequency_list>  (3) 
unknown

>  <arkane_path>  (3) 
/home/calvin/Dropbox/PersonalFolders/Calvin/HAb_Converged/rxn_422/output/rxns/TS0/arkane/output.py

>  <path_exists>  (3) 
True

>  <E0_value>  (3) 
-920793.0

>  <E0_units>  (3) 
kJ/mol

>  <thermo_class>  (3) 
unknown

>  <Cp0_value>  (3) 
unknown

>  <Cp0_units>  (3) 
unknown

>  <CpInf_value>  (3) 
unknown

>  <CpInf_units>  (3) 
unknown

>  <Tmin_value>  (3) 
unknown

>  <Tmin_units>  (3) 
unknown

>  <Tmax_value>  (3) 
unknown

>  <Tmax_units>  (3) 
unknown

>  <polynomials>  (3) 
unknown

>  <H298_value>  (3) 
unknown

>  <H298_units>  (3) 
unknown

>  <S298_value>  (3) 
unknown

>  <S298_units>  (3) 
unknown

>  <Cp_T_value_list>  (3) 
unknown

>  <Cp_T_units>  (3) 
unknown

>  <T_list>  (3) 
unknown

>  <T_units>  (3) 
unknown

>  <yaml_path>  (3) 
unknown

>  <frequencies_cm1>  (3) 
unknown

>  <ZPE_kJmol>  (3) 
unknown

>  <E_elec_kJmol>  (3) 
unknown

>  <E0_minus_Eelec_plus_ZPE_kJmol>  (3) 
unknown

>  <rxn>  (3) 
unknown

>  <species_type>  (3) 
unknown

>  <species_folder>  (3) 
unknown

>  <frequencies_cm1_list>  (3) 
[]

>  <ts_imag_freq_cm1>  (3) 
-1563.1427

>  <ts_freq_out_path>  (3) 
/home/calvin/Dropbox/PersonalFolders/Calvin/HAb_Converged/rxn_422/output/rxns/TS0/geometry/freq.out

>  <E0_kJmol>  (3) 
-920793

>  <H298_kJmol>  (3) 
unknown

$$$$

     RDKit          3D

 14 13  0  0  0  0  0  0  0  0999 V2000
   -1.1038   -1.2820   -0.0831 C   0  0  0  0  0  0  0  0  0  1  0  0
   -0.3738   -0.0303    0.3958 C   0  0  0  0  0  0  0  0  0  2  0  0
    1.0799   -0.0135   -0.1022 C   0  0  0  0  0  0  0  0  0  3  0  0
   -0.4539    0.0783    1.8774 C   0  0  0  0  0  3  0  0  0  4  0  0
   -0.0196    1.2652    2.3945 O   0  0  0  0  0  0  0  0  0  5  0  0
   -0.6387   -2.1819    0.3292 H   0  0  0  0  0  0  0  0  0  6  0  0
   -1.0649   -1.3593   -1.1709 H   0  0  0  0  0  0  0  0  0  7  0  0
   -2.1510   -1.2728    0.2226 H   0  0  0  0  0  0  0  0  0  8  0  0
   -0.8759    0.8495   -0.0235 H   0  0  0  0  0  0  0  0  0  9  0  0
    1.1145   -0.0235   -1.1941 H   0  0  0  0  0  0  0  0  0 10  0  0
    1.6194   -0.8920    0.2618 H   0  0  0  0  0  0  0  0  0 11  0  0
    1.6007    0.8771    0.2500 H   0  0  0  0  0  0  0  0  0 12  0  0
   -0.3212   -0.8061    2.4983 H   0  0  0  0  0  0  0  0  0 13  0  0
   -0.0217    1.2207    3.3511 H   0  0  0  0  0  0  0  0  0 14  0  0
  1  8  1  0
  1  7  1  0
  1  6  1  0
  1  2  1  0
  2  9  1  0
  2  3  1  0
  2  4  1  0
  3 11  1  0
  3 12  1  0
  3 10  1  0
  4 13  1  0
  4  5  1  0
  5 14  1  0
M  RAD  1   4   2
M  END
>  <rmg_smiles>  (4) 
CC(C)[CH]O

>  <rmg_adjacency_list>  (4) 
multiplicity 2
1  O u0 p2 c0 {5,S} {14,S}
2  C u0 p0 c0 {3,S} {4,S} {5,S} {6,S}
3  C u0 p0 c0 {2,S} {7,S} {8,S} {9,S}
4  C u0 p0 c0 {2,S} {10,S} {11,S} {12,S}
5  C u1 p0 c0 {1,S} {2,S} {13,S}
6  H u0 p0 c0 {2,S}
7  H u0 p0 c0 {3,S}
8  H u0 p0 c0 {3,S}
9  H u0 p0 c0 {3,S}
10 H u0 p0 c0 {4,S}
11 H u0 p0 c0 {4,S}
12 H u0 p0 c0 {4,S}
13 H u0 p0 c0 {5,S}
14 H u0 p0 c0 {1,S}


>  <multiplicity>  (4) 
2

>  <reaction>  (4) 
rxn_422

>  <type>  (4) 
r1

>  <role_mapnums>  (4) 
{}

>  <role_mapidx>  (4) 
{}

>  <ordered_mapped_smiles>  (4) 
[C:1]([C:2]([C:3]([H:10])([H:11])[H:12])([C:4]([O:5][H:14])[H:13])[H:9])([H:6])([H:7])[H:8]

>  <level_of_theory>  (4) 
wb97xd/def2tzvp

>  <lot_method>  (4) 
wb97xd

>  <lot_basis>  (4) 
def2tzvp

>  <spin_multiplicity>  (4) 
2.0

>  <optical_isomers>  (4) 
2.0

>  <modes>  (4) 
IdealGasTranslation(mass=(73.0653, 'amu')),         NonlinearRotor(             inertia = ([63.9279, 142.045, 186.855

>  <frequency_value>  (4) 
unknown

>  <frequency_units>  (4) 
unknown

>  <frequency_list>  (4) 
unknown

>  <arkane_path>  (4) 
/home/calvin/Dropbox/PersonalFolders/Calvin/HAb_Converged/rxn_422/output/Species/rxn_422_CC[C][CH]O/arkane/output.py

>  <path_exists>  (4) 
True

>  <E0_value>  (4) 
-611498.9441533478

>  <E0_units>  (4) 
kJ/mol

>  <thermo_class>  (4) 
NASA

>  <Cp0_value>  (4) 
33.257888

>  <Cp0_units>  (4) 
J/(mol*K)

>  <CpInf_value>  (4) 
332.57888

>  <CpInf_units>  (4) 
J/(mol*K)

>  <Tmin_value>  (4) 
10.0

>  <Tmin_units>  (4) 
K

>  <Tmax_value>  (4) 
3000.0

>  <Tmax_units>  (4) 
K

>  <polynomials>  (4) 
[{"name": "polynomial1", "class": "NASAPolynomial", "Tmin_value": 10.0, "Tmin_units": "K", "Tmax_value": 387.8808531937286, "Tmax_units": "K", "coeffs": [3.7222393532962537, 0.022291259950413256, 7.156387334799193e-05, -1.6167576527514427e-07, 1.0813877641480004e-10, -73546329.99847414, 11.232736942825126]}, {"name": "polynomial2", "class": "NASAPolynomial", "Tmin_value": 387.8808531937286, "Tmin_units": "K", "Tmax_value": 3000.0, "Tmax_units": "K", "coeffs": [1.2567420411620753, 0.047716496021830014, -2.6759489158970974e-05, 7.316151739873909e-09, -7.8091706410683e-13, -73546138.73411052, 20.792376379098172]}]

>  <H298_value>  (4) 
-146146.8518769244

>  <H298_units>  (4) 
kcal/mol

>  <S298_value>  (4) 
81.56704282131199

>  <S298_units>  (4) 
cal/(mol*K)

>  <Cp_T_value_list>  (4) 
[26.551154224214557, 32.80890734457895, 38.33486161896707, 43.186578733271226, 51.13056862546382, 57.13016706563306, 66.29570271918729, 70.91608380484615, 73.27069351231306]

>  <Cp_T_units>  (4) 
cal/(mol*K)

>  <T_list>  (4) 
[300.0, 400.0, 500.0, 600.0, 800.0, 1000.0, 1500.0, 2000.0, 2400.0]

>  <T_units>  (4) 
K

>  <yaml_path>  (4) 
/home/calvin/Dropbox/PersonalFolders/Calvin/HAb_Converged/rxn_422/output/Species/rxn_422_CC[C][CH]O/rxn_422_CCCCHO.yml

>  <frequencies_cm1>  (4) 
[104.70092517403998, 219.99074171152, 235.68180316771998, 254.11965875192, 332.02560720732, 349.05573080091995, 413.35131435208, 499.01695621908, 623.43986323216, 830.1635893054399, 927.4893722458, 938.7786961118799, 965.93762305248, 1105.1726174008, 1112.60956250236, 1179.4390636366, 1211.7688305231602, 1254.98963612724, 1322.6912443971198, 1331.4741186213998, 1381.25289520608, 1404.0169515418797, 1448.0274604577596, 1474.00526592332, 1474.7331663672398, 1486.9151983249199, 1499.8182637411999, 2993.20902922288, 3004.1550038229593, 3008.2133921470795, 3072.75618716976, 3078.33904623492, 3090.89189539988, 3093.7210933517194, 3098.6859237380795, 3862.4594989697603]

>  <ZPE_kJmol>  (4) 
321.09631993175043

>  <E_elec_kJmol>  (4) 
-611820.0404732795

>  <E0_minus_Eelec_plus_ZPE_kJmol>  (4) 
0.0

>  <rxn>  (4) 
rxn_422

>  <species_type>  (4) 
p1

>  <species_folder>  (4) 
rxn_422_CC[C][CH]O

>  <frequencies_cm1_list>  (4) 
[104.70092517403998, 219.99074171152, 235.68180316771998, 254.11965875192, 332.02560720732, 349.05573080091995, 413.35131435208, 499.01695621908, 623.43986323216, 830.1635893054399, 927.4893722458, 938.7786961118799, 965.93762305248, 1105.1726174008, 1112.60956250236, 1179.4390636366, 1211.7688305231602, 1254.98963612724, 1322.6912443971198, 1331.4741186213998, 1381.25289520608, 1404.0169515418797, 1448.0274604577596, 1474.00526592332, 1474.7331663672398, 1486.9151983249199, 1499.8182637411999, 2993.20902922288, 3004.1550038229593, 3008.2133921470795, 3072.75618716976, 3078.33904623492, 3090.89189539988, 3093.7210933517194, 3098.6859237380795, 3862.4594989697603]

>  <E0_kJmol>  (4) 
-611499

>  <H298_kJmol>  (4) 
-611478

$$$$

     RDKit          3D

  8  7  0  0  0  0  0  0  0  0999 V2000
    1.4038   -0.4003    0.0140 C   0  0  0  0  0  0  0  0  0  1  0  0
    0.2804    0.0563    0.4920 C   0  0  0  0  0  3  0  0  0  2  0  0
   -1.0935    0.3323    0.0625 C   0  0  0  0  0  0  0  0  0  3  0  0
    1.4898   -0.7154   -1.0285 H   0  0  0  0  0  0  0  0  0  4  0  0
    2.2990   -0.4891    0.6210 H   0  0  0  0  0  0  0  0  0  5  0  0
   -1.3399    1.3883    0.1900 H   0  0  0  0  0  0  0  0  0  6  0  0
   -1.2285    0.0762   -0.9967 H   0  0  0  0  0  0  0  0  0  7  0  0
   -1.8111   -0.2482    0.6457 H   0  0  0  0  0  0  0  0  0  8  0  0
  1  5  1  0
  1  4  1  0
  1  2  1  0
  2  3  1  0
  3  6  1  0
  3  7  1  0
  3  8  1  0
M  RAD  1   2   2
M  END
>  <rmg_smiles>  (5) 
[CH2][C]C

>  <rmg_adjacency_list>  (5) 
multiplicity 2
1 C u0 p0 c0 {3,S} {4,S} {5,S} {6,S}
2 C u0 p0 c0 {3,S} {7,S} {8,S}
3 C u1 p1 c0 {1,S} {2,S}
4 H u0 p0 c0 {1,S}
5 H u0 p0 c0 {1,S}
6 H u0 p0 c0 {1,S}
7 H u0 p0 c0 {2,S}
8 H u0 p0 c0 {2,S}


>  <multiplicity>  (5) 
2

>  <reaction>  (5) 
rxn_422

>  <type>  (5) 
r2

>  <role_mapnums>  (5) 
{}

>  <role_mapidx>  (5) 
{}

>  <ordered_mapped_smiles>  (5) 
[CH:1]([CH:2][C:3]([H:6])([H:7])[H:8])([H:4])[H:5]

>  <level_of_theory>  (5) 
wb97xd/def2tzvp

>  <lot_method>  (5) 
wb97xd

>  <lot_basis>  (5) 
def2tzvp

>  <spin_multiplicity>  (5) 
2.0

>  <optical_isomers>  (5) 
1.0

>  <modes>  (5) 
IdealGasTranslation(mass=(41.0391, 'amu')),         NonlinearRotor(             inertia = ([6.71616, 57.9316, 61.5152

>  <frequency_value>  (5) 
unknown

>  <frequency_units>  (5) 
unknown

>  <frequency_list>  (5) 
unknown

>  <arkane_path>  (5) 
/home/calvin/Dropbox/PersonalFolders/Calvin/HAb_Converged/rxn_422/output/Species/rxn_422_C=[C]C/arkane/output.py

>  <path_exists>  (5) 
True

>  <E0_value>  (5) 
-307613.2562792769

>  <E0_units>  (5) 
kJ/mol

>  <thermo_class>  (5) 
NASA

>  <Cp0_value>  (5) 
33.257888

>  <Cp0_units>  (5) 
J/(mol*K)

>  <CpInf_value>  (5) 
182.918384

>  <CpInf_units>  (5) 
J/(mol*K)

>  <Tmin_value>  (5) 
10.0

>  <Tmin_units>  (5) 
K

>  <Tmax_value>  (5) 
3000.0

>  <Tmax_units>  (5) 
K

>  <polynomials>  (5) 
[{"name": "polynomial1", "class": "NASAPolynomial", "Tmin_value": 10.0, "Tmin_units": "K", "Tmax_value": 538.1687435193878, "Tmax_units": "K", "coeffs": [3.93039251722744, 0.005417928594915489, 4.115135925960942e-05, -6.444195040259997e-08, 3.1282900924672696e-11, -36997327.46995285, 7.425360626691283]}, {"name": "polynomial2", "class": "NASAPolynomial", "Tmin_value": 538.1687435193878, "Tmin_units": "K", "Tmax_value": 3000.0, "Tmax_units": "K", "coeffs": [1.2730235235922125, 0.02516927369883844, -1.3900597345713134e-05, 3.755214790819376e-09, -3.97535341384456e-13, -36997041.44953528, 18.599148798917813]}]

>  <H298_value>  (5) 
-73518.02597167484

>  <H298_units>  (5) 
kcal/mol

>  <S298_value>  (5) 
65.08526526117362

>  <S298_units>  (5) 
cal/(mol*K)

>  <Cp_T_value_list>  (5) 
[15.44626255334313, 18.59695184982686, 21.515751343877753, 24.10477215751453, 28.361211822057705, 31.595349958095916, 36.588281748163645, 39.128760531282474, 40.409169372349]

>  <Cp_T_units>  (5) 
cal/(mol*K)

>  <T_list>  (5) 
[300.0, 400.0, 500.0, 600.0, 800.0, 1000.0, 1500.0, 2000.0, 2400.0]

>  <T_units>  (5) 
K

>  <yaml_path>  (5) 
/home/calvin/Dropbox/PersonalFolders/Calvin/HAb_Converged/rxn_422/output/Species/rxn_422_C=[C]C/rxn_422_C=CC.yml

>  <frequencies_cm1>  (5) 
[176.04890264884, 312.72251147279997, 484.02632726551997, 893.4634599852, 895.1939402858399, 932.7632169715598, 1043.3422815795197, 1098.3399670074, 1378.28635754784, 1408.11654177792, 1443.1999697778, 1458.9940360138, 1748.70527967928, 2967.7256467003594, 3032.41264841476, 3055.0530990147995, 3082.9330594139997, 3144.5505186903597]

>  <ZPE_kJmol>  (5) 
170.80212834762708

>  <E_elec_kJmol>  (5) 
-307784.05840762454

>  <E0_minus_Eelec_plus_ZPE_kJmol>  (5) 
0.0

>  <rxn>  (5) 
rxn_422

>  <species_type>  (5) 
r1

>  <species_folder>  (5) 
rxn_422_C=[C]C

>  <frequencies_cm1_list>  (5) 
[176.04890264884, 312.72251147279997, 484.02632726551997, 893.4634599852, 895.1939402858399, 932.7632169715598, 1043.3422815795197, 1098.3399670074, 1378.28635754784, 1408.11654177792, 1443.1999697778, 1458.9940360138, 1748.70527967928, 2967.7256467003594, 3032.41264841476, 3055.0530990147995, 3082.9330594139997, 3144.5505186903597]

>  <E0_kJmol>  (5) 
-307613

>  <H298_kJmol>  (5) 
-307599

$$$$
