
     RDKit          3D

 25 26  0  0  0  0  0  0  0  0999 V2000
   -1.3075   -1.8903   -0.4985 C   0  0  0  0  0  0  0  0  0  1  0  0
   -1.2569   -1.7022    1.0200 C   0  0  0  0  0  0  0  0  0  2  0  0
    0.0166   -0.9847    1.4776 C   0  0  0  0  0  0  0  0  0  3  0  0
    0.1644    0.3223    0.7204 C   0  0  0  0  0  0  0  0  0  4  0  0
    1.4133    1.1712    0.9376 C   0  0  0  0  0  0  0  0  0  5  0  0
    1.4233    2.0934   -0.2757 C   0  0  0  0  0  0  0  0  0  6  0  0
    0.5296    1.4740   -1.3499 C   0  0  0  0  0  0  0  0  0  7  0  0
    0.1727    0.0948   -0.7911 C   0  0  0  0  0  0  0  0  0  8  0  0
   -1.1078   -0.5749   -1.2571 C   0  0  0  0  0  0  0  0  0  9  0  0
   -0.5192   -2.5905   -0.7966 H   0  0  0  0  0  0  0  0  0 10  0  0
   -2.2563   -2.3508   -0.7830 H   0  0  0  0  0  0  0  0  0 11  0  0
   -2.1246   -1.1114    1.3344 H   0  0  0  0  0  0  0  0  0 12  0  0
   -1.3443   -2.6715    1.5161 H   0  0  0  0  0  0  0  0  0 13  0  0
   -0.0132   -0.8137    2.5569 H   0  0  0  0  0  0  0  0  0 14  0  0
    0.8899   -1.6175    1.2795 H   0  0  0  0  0  0  0  0  0 15  0  0
   -0.7105    0.9472    0.9478 H   0  0  0  0  0  0  0  0  0 16  0  0
    1.4016    1.7174    1.8850 H   0  0  0  0  0  0  0  0  0 17  0  0
    2.3021    0.5286    0.9517 H   0  0  0  0  0  0  0  0  0 18  0  0
    0.9317    3.0094    0.0446 H   0  0  0  0  0  0  0  0  0 19  0  0
    2.3988    2.4491   -0.6000 H   0  0  0  0  0  0  0  0  0 20  0  0
    1.0121    1.4234   -2.3275 H   0  0  0  0  0  0  0  0  0 21  0  0
   -0.3861    2.0647   -1.4819 H   0  0  0  0  0  0  0  0  0 22  0  0
    1.0092   -0.5848   -1.0076 H   0  0  0  0  0  0  0  0  0 23  0  0
   -1.0875   -0.7590   -2.3345 H   0  0  0  0  0  0  0  0  0 24  0  0
   -1.9538    0.0959   -1.0649 H   0  0  0  0  0  0  0  0  0 25  0  0
  1 11  1  0
  1 10  1  0
  1  9  1  0
  1  2  1  0
  2 12  1  0
  2 13  1  0
  2  3  1  0
  3 15  1  0
  3  4  1  0
  3 14  1  0
  4  5  1  0
  4  8  1  0
  4 16  1  0
  5 18  1  0
  5 17  1  0
  5  6  1  0
  6  7  1  0
  6 19  1  0
  6 20  1  0
  7 21  1  0
  7  8  1  0
  7 22  1  0
  8 23  1  0
  8  9  1  0
  9 24  1  0
  9 25  1  0
M  END
>  <rmg_smiles>  (1) 
C1CCC2CCCC2C1

>  <rmg_adjacency_list>  (1) 
1  C u0 p0 c0 {2,S} {3,S} {4,S} {10,S}
2  C u0 p0 c0 {1,S} {5,S} {6,S} {11,S}
3  C u0 p0 c0 {1,S} {8,S} {16,S} {17,S}
4  C u0 p0 c0 {1,S} {9,S} {18,S} {19,S}
5  C u0 p0 c0 {2,S} {9,S} {22,S} {23,S}
6  C u0 p0 c0 {2,S} {7,S} {24,S} {25,S}
7  C u0 p0 c0 {6,S} {8,S} {12,S} {13,S}
8  C u0 p0 c0 {3,S} {7,S} {14,S} {15,S}
9  C u0 p0 c0 {4,S} {5,S} {20,S} {21,S}
10 H u0 p0 c0 {1,S}
11 H u0 p0 c0 {2,S}
12 H u0 p0 c0 {7,S}
13 H u0 p0 c0 {7,S}
14 H u0 p0 c0 {8,S}
15 H u0 p0 c0 {8,S}
16 H u0 p0 c0 {3,S}
17 H u0 p0 c0 {3,S}
18 H u0 p0 c0 {4,S}
19 H u0 p0 c0 {4,S}
20 H u0 p0 c0 {9,S}
21 H u0 p0 c0 {9,S}
22 H u0 p0 c0 {5,S}
23 H u0 p0 c0 {5,S}
24 H u0 p0 c0 {6,S}
25 H u0 p0 c0 {6,S}


>  <multiplicity>  (1) 
1

>  <reaction>  (1) 
rxn_602

>  <type>  (1) 
r1h

>  <role_mapnums>  (1) 
{"r1h_a": 6, "r1h_h": 19}

>  <role_mapidx>  (1) 
{"r1h_a": 5, "r1h_h": 18}

>  <ordered_mapped_smiles>  (1) 
[C:1]1([H:10])([H:11])[C:2]([H:12])([H:13])[C:3]([H:14])([H:15])[C:4]2([H:16])[C:5]([H:17])([H:18])[C:6]([H:19])([H:20])[C:7]([H:21])([H:22])[C:8]2([H:23])[C:9]1([H:24])[H:25]

>  <mol_properties>  (1) 
{"5": {"label": "donator", "atom_type": "Cs"}, "18": {"label": "d_hydrogen", "atom_type": "H0"}}

>  <level_of_theory>  (1) 
wb97xd/def2tzvp

>  <lot_method>  (1) 
wb97xd

>  <lot_basis>  (1) 
def2tzvp

>  <spin_multiplicity>  (1) 
1.0

>  <optical_isomers>  (1) 
2.0

>  <modes>  (1) 
IdealGasTranslation(mass=(124.125, 'amu')),         NonlinearRotor(             inertia = ([170.024, 375.242, 505.424

>  <frequency_value>  (1) 
unknown

>  <frequency_units>  (1) 
unknown

>  <frequency_list>  (1) 
unknown

>  <arkane_path>  (1) 
/home/calvin/Dropbox/PersonalFolders/Calvin/HAb_Converged/rxn_602/output/Species/rxn_602_C1CCC2CCCC2C1/arkane/output.py

>  <path_exists>  (1) 
True

>  <E0_value>  (1) 
-925233.0049241188

>  <E0_units>  (1) 
kJ/mol

>  <thermo_class>  (1) 
NASA

>  <Cp0_value>  (1) 
33.257888

>  <Cp0_units>  (1) 
J/(mol*K)

>  <CpInf_value>  (1) 
606.956456

>  <CpInf_units>  (1) 
J/(mol*K)

>  <Tmin_value>  (1) 
10.0

>  <Tmin_units>  (1) 
K

>  <Tmax_value>  (1) 
3000.0

>  <Tmax_units>  (1) 
K

>  <polynomials>  (1) 
[{"name": "polynomial1", "class": "NASAPolynomial", "Tmin_value": 10.0, "Tmin_units": "K", "Tmax_value": 492.86414085374884, "Tmax_units": "K", "coeffs": [4.007994789865864, -0.0014434969438387518, 0.0002774235318770471, -4.47143959124011e-07, 2.345687014006794e-10, -111279824.80461533, 12.742603075803766]}, {"name": "polynomial2", "class": "NASAPolynomial", "Tmin_value": 492.86414085374884, "Tmin_units": "K", "Tmax_value": 3000.0, "Tmax_units": "K", "coeffs": [-9.95853370242537, 0.11191389639895702, -6.759505783925652e-05, 1.9571966588871765e-08, -2.183492026273649e-12, -111278448.17509678, 70.24048730977755]}]

>  <H298_value>  (1) 
-221130.41480672767

>  <H298_units>  (1) 
kcal/mol

>  <S298_value>  (1) 
87.40258332007863

>  <S298_units>  (1) 
cal/(mol*K)

>  <Cp_T_value_list>  (1) 
[36.50534740058796, 50.089738669944325, 62.417515537946755, 73.12949241055418, 90.29515590280347, 102.83551087971135, 120.87161605712708, 129.42454969138163, 133.951878152645]

>  <Cp_T_units>  (1) 
cal/(mol*K)

>  <T_list>  (1) 
[300.0, 400.0, 500.0, 600.0, 800.0, 1000.0, 1500.0, 2000.0, 2400.0]

>  <T_units>  (1) 
K

>  <yaml_path>  (1) 
/home/calvin/Dropbox/PersonalFolders/Calvin/HAb_Converged/rxn_602/output/Species/rxn_602_C1CCC2CCCC2C1/rxn_602_C1CCC2CCCC2C1.yml

>  <frequencies_cm1>  (1) 
[79.74630052116, 161.44969185852, 192.46099756363998, 319.95344701476, 325.08995203411996, 337.32691987436, 425.16252910247994, 470.50523317043996, 497.06673238819997, 579.3538174777599, 623.59780389452, 769.3495673115199, 782.1839628746, 837.42199278868, 848.74565158136, 873.0204446875598, 907.5545138618398, 921.7142375916799, 922.5451428153999, 945.43967187228, 987.1978096031999, 1015.3867843418, 1044.03584709684, 1066.28487953364, 1072.4857672776, 1096.98030391404, 1116.2696656779199, 1122.75209982, 1142.3985448205199, 1202.0657802659998, 1207.82031396416, 1217.5508321625998, 1256.61711164808, 1262.63945777372, 1284.5314069738797, 1286.2687542598399, 1313.97704002604, 1316.9847795961998, 1320.6311488011202, 1339.9411115209598, 1339.9754464475598, 1365.2322184545199, 1368.74811493836, 1376.8580246012798, 1398.55083122716, 1401.5036349147601, 1472.50826312356, 1476.82072990452, 1478.06365424744, 1478.81215564732, 1486.92206531024, 1491.0628574582, 1506.3831017071197, 2950.4551786205598, 2962.34193020948, 2991.31374127456, 2991.7532283350397, 2996.8759993837602, 3001.07172741428, 3015.06664349644, 3015.65720423396, 3043.90798184044, 3044.3474689009204, 3044.821290888, 3053.3088847435192, 3057.07199269888, 3062.7784574998, 3072.117557535, 3090.8781614292393]

>  <ZPE_kJmol>  (1) 
613.2521071062491

>  <E_elec_kJmol>  (1) 
-925846.257031225

>  <E0_minus_Eelec_plus_ZPE_kJmol>  (1) 
0.0

>  <rxn>  (1) 
rxn_602

>  <species_type>  (1) 
r1

>  <species_folder>  (1) 
rxn_602_C1CCC2CCCC2C1

>  <frequencies_cm1_list>  (1) 
[79.74630052116, 161.44969185852, 192.46099756363998, 319.95344701476, 325.08995203411996, 337.32691987436, 425.16252910247994, 470.50523317043996, 497.06673238819997, 579.3538174777599, 623.59780389452, 769.3495673115199, 782.1839628746, 837.42199278868, 848.74565158136, 873.0204446875598, 907.5545138618398, 921.7142375916799, 922.5451428153999, 945.43967187228, 987.1978096031999, 1015.3867843418, 1044.03584709684, 1066.28487953364, 1072.4857672776, 1096.98030391404, 1116.2696656779199, 1122.75209982, 1142.3985448205199, 1202.0657802659998, 1207.82031396416, 1217.5508321625998, 1256.61711164808, 1262.63945777372, 1284.5314069738797, 1286.2687542598399, 1313.97704002604, 1316.9847795961998, 1320.6311488011202, 1339.9411115209598, 1339.9754464475598, 1365.2322184545199, 1368.74811493836, 1376.8580246012798, 1398.55083122716, 1401.5036349147601, 1472.50826312356, 1476.82072990452, 1478.06365424744, 1478.81215564732, 1486.92206531024, 1491.0628574582, 1506.3831017071197, 2950.4551786205598, 2962.34193020948, 2991.31374127456, 2991.7532283350397, 2996.8759993837602, 3001.07172741428, 3015.06664349644, 3015.65720423396, 3043.90798184044, 3044.3474689009204, 3044.821290888, 3053.3088847435192, 3057.07199269888, 3062.7784574998, 3072.117557535, 3090.8781614292393]

>  <E0_kJmol>  (1) 
-925233

>  <H298_kJmol>  (1) 
-925210

$$$$

     RDKit          3D

 14 13  0  0  0  0  0  0  0  0999 V2000
    1.0823    0.3954    0.9025 C   0  0  0  0  0  0  0  0  0  1  0  0
    0.1334   -0.2388   -0.0853 C   0  0  0  0  0  0  0  0  0  2  0  0
   -1.1543   -0.7299    0.5298 C   0  0  0  0  0  0  0  0  0  3  0  0
   -0.0569    0.5625   -1.3502 C   0  0  0  0  0  0  0  0  0  4  0  0
    1.2655   -0.2612    1.7561 H   0  0  0  0  0  0  0  0  0  5  0  0
    2.0447    0.6214    0.4377 H   0  0  0  0  0  0  0  0  0  6  0  0
    0.6751    1.3368    1.2924 H   0  0  0  0  0  0  0  0  0  7  0  0
   -1.7656    0.1090    0.8865 H   0  0  0  0  0  0  0  0  0  8  0  0
   -0.9630   -1.3827    1.3845 H   0  0  0  0  0  0  0  0  0  9  0  0
   -1.7539   -1.2875   -0.1937 H   0  0  0  0  0  0  0  0  0 10  0  0
    0.9008    0.7811   -1.8281 H   0  0  0  0  0  0  0  0  0 11  0  0
   -0.6794    0.0277   -2.0709 H   0  0  0  0  0  0  0  0  0 12  0  0
   -0.5468    1.5215   -1.1392 H   0  0  0  0  0  0  0  0  0 13  0  0
    0.6537   -1.1380   -0.4152 H   0  0  0  0  0  0  0  0  0 14  0  0
  1  5  1  0
  1  7  1  0
  1  6  1  0
  1  2  1  0
  2 14  1  0
  2  3  1  0
  2  4  1  0
  3  9  1  0
  3 10  1  0
  3  8  1  0
  4 13  1  0
  4 12  1  0
  4 11  1  0
M  END
>  <rmg_smiles>  (2) 
CC(C)C

>  <rmg_adjacency_list>  (2) 
1  C u0 p0 c0 {2,S} {3,S} {4,S} {5,S}
2  C u0 p0 c0 {1,S} {6,S} {7,S} {8,S}
3  C u0 p0 c0 {1,S} {9,S} {10,S} {11,S}
4  C u0 p0 c0 {1,S} {12,S} {13,S} {14,S}
5  H u0 p0 c0 {1,S}
6  H u0 p0 c0 {2,S}
7  H u0 p0 c0 {2,S}
8  H u0 p0 c0 {2,S}
9  H u0 p0 c0 {3,S}
10 H u0 p0 c0 {3,S}
11 H u0 p0 c0 {3,S}
12 H u0 p0 c0 {4,S}
13 H u0 p0 c0 {4,S}
14 H u0 p0 c0 {4,S}


>  <multiplicity>  (2) 
1

>  <reaction>  (2) 
rxn_602

>  <type>  (2) 
r2h

>  <role_mapnums>  (2) 
{"r2h_a": 2, "r2h_h": 14}

>  <role_mapidx>  (2) 
{"r2h_a": 1, "r2h_h": 13}

>  <ordered_mapped_smiles>  (2) 
[C:1]([C:2]([C:3]([H:8])([H:9])[H:10])([C:4]([H:11])([H:12])[H:13])[H:14])([H:5])([H:6])[H:7]

>  <mol_properties>  (2) 
{"1": {"label": "acceptor", "atom_type": "Cs"}, "13": {"label": "a_hydrogen", "atom_type": "H0"}}

>  <level_of_theory>  (2) 
wb97xd/def2tzvp

>  <lot_method>  (2) 
wb97xd

>  <lot_basis>  (2) 
def2tzvp

>  <spin_multiplicity>  (2) 
1.0

>  <optical_isomers>  (2) 
1.0

>  <modes>  (2) 
IdealGasTranslation(mass=(58.0782, 'amu')),         NonlinearRotor(             inertia = ([64.4717, 64.4731, 111.216

>  <frequency_value>  (2) 
unknown

>  <frequency_units>  (2) 
unknown

>  <frequency_list>  (2) 
unknown

>  <arkane_path>  (2) 
/home/calvin/Dropbox/PersonalFolders/Calvin/HAb_Converged/rxn_602/output/Species/rxn_602_CC[C]C/arkane/output.py

>  <path_exists>  (2) 
True

>  <E0_value>  (2) 
-415716.8573017122

>  <E0_units>  (2) 
kJ/mol

>  <thermo_class>  (2) 
NASA

>  <Cp0_value>  (2) 
33.257888

>  <Cp0_units>  (2) 
J/(mol*K)

>  <CpInf_value>  (2) 
332.57888

>  <CpInf_units>  (2) 
J/(mol*K)

>  <Tmin_value>  (2) 
10.0

>  <Tmin_units>  (2) 
K

>  <Tmax_value>  (2) 
3000.0

>  <Tmax_units>  (2) 
K

>  <polynomials>  (2) 
[{"name": "polynomial1", "class": "NASAPolynomial", "Tmin_value": 10.0, "Tmin_units": "K", "Tmax_value": 537.5014034364401, "Tmax_units": "K", "coeffs": [3.862838879970036, 0.009552600121764478, 8.516166241271692e-05, -1.3172691901296188e-07, 6.379648301557677e-11, -49999184.581549704, 7.5583622548452105]}, {"name": "polynomial2", "class": "NASAPolynomial", "Tmin_value": 537.5014034364401, "Tmin_units": "K", "Tmax_value": 3000.0, "Tmax_units": "K", "coeffs": [-1.5215639393940177, 0.04962272385221281, -2.6662355234235938e-05, 6.970053616793609e-09, -7.139771051892419e-13, -49998605.760402754, 30.192193264679172]}]

>  <H298_value>  (2) 
-99354.5378900884

>  <H298_units>  (2) 
kcal/mol

>  <S298_value>  (2) 
69.86447225660763

>  <S298_units>  (2) 
cal/(mol*K)

>  <Cp_T_value_list>  (2) 
[22.561338119321405, 28.83915959630467, 34.6786807456019, 39.87652295449769, 48.465840688477584, 55.03544794434472, 65.24325723555953, 70.36948226243274, 72.85850504608155]

>  <Cp_T_units>  (2) 
cal/(mol*K)

>  <T_list>  (2) 
[300.0, 400.0, 500.0, 600.0, 800.0, 1000.0, 1500.0, 2000.0, 2400.0]

>  <T_units>  (2) 
K

>  <yaml_path>  (2) 
/home/calvin/Dropbox/PersonalFolders/Calvin/HAb_Converged/rxn_602/output/Species/rxn_602_CC[C]C/rxn_602_CCCC.yml

>  <frequencies_cm1>  (2) 
[211.11172969275998, 262.31197223867997, 263.65103437607996, 369.01805712616, 369.47127815728, 434.85184538899995, 803.952306339, 924.3511599545599, 924.59837142608, 952.9933557242799, 976.0252244875599, 976.1968991205599, 1191.0442688274, 1191.10607169528, 1204.0572060088, 1353.0158515702399, 1353.09138840876, 1393.16711473628, 1393.26325253076, 1417.2496322535198, 1467.4610289133598, 1473.94346305544, 1474.14947261504, 1492.4637224634798, 1492.54612628732, 1500.9032474217597, 2997.84424431388, 3000.0416796162795, 3000.19275329332, 3005.52153390164, 3068.6428629630796, 3068.7939366401197, 3077.4120032167198, 3079.84291602, 3083.3725464744803, 3083.6472258872795]

>  <ZPE_kJmol>  (2) 
342.9174652012361

>  <E_elec_kJmol>  (2) 
-416059.77476691344

>  <E0_minus_Eelec_plus_ZPE_kJmol>  (2) 
0.0

>  <rxn>  (2) 
rxn_602

>  <species_type>  (2) 
p0

>  <species_folder>  (2) 
rxn_602_CC[C]C

>  <frequencies_cm1_list>  (2) 
[211.11172969275998, 262.31197223867997, 263.65103437607996, 369.01805712616, 369.47127815728, 434.85184538899995, 803.952306339, 924.3511599545599, 924.59837142608, 952.9933557242799, 976.0252244875599, 976.1968991205599, 1191.0442688274, 1191.10607169528, 1204.0572060088, 1353.0158515702399, 1353.09138840876, 1393.16711473628, 1393.26325253076, 1417.2496322535198, 1467.4610289133598, 1473.94346305544, 1474.14947261504, 1492.4637224634798, 1492.54612628732, 1500.9032474217597, 2997.84424431388, 3000.0416796162795, 3000.19275329332, 3005.52153390164, 3068.6428629630796, 3068.7939366401197, 3077.4120032167198, 3079.84291602, 3083.3725464744803, 3083.6472258872795]

>  <E0_kJmol>  (2) 
-415717

>  <H298_kJmol>  (2) 
-415699

$$$$

     RDKit          3D

 38 38  0  0  0  0  0  0  0  0999 V2000
    1.1343    3.5326    1.2975 C   0  0  0  0  0  0  0  0  0  1  0  0
    0.1854    2.8985    0.3097 C   0  0  0  0  0  0  0  0  0  2  0  0
   -1.1024    2.4074    0.9248 C   0  0  0  0  0  0  0  0  0  3  0  0
   -0.0049    3.6998   -0.9552 C   0  0  0  0  0  0  0  0  0  4  0  0
    1.3174    2.8760    2.1511 H   0  0  0  0  0  0  0  0  0  5  0  0
    2.0967    3.7587    0.8327 H   0  0  0  0  0  0  0  0  0  6  0  0
    0.7271    4.4740    1.6874 H   0  0  0  0  0  0  0  0  0  7  0  0
   -1.7136    3.2462    1.2815 H   0  0  0  0  0  0  0  0  0  8  0  0
   -0.9111    1.7545    1.7795 H   0  0  0  0  0  0  0  0  0  9  0  0
   -1.7019    1.8497    0.2013 H   0  0  0  0  0  0  0  0  0 10  0  0
    0.9528    3.9183   -1.4331 H   0  0  0  0  0  0  0  0  0 11  0  0
   -0.6274    3.1650   -1.6760 H   0  0  0  0  0  0  0  0  0 12  0  0
   -0.4948    4.6588   -0.7442 H   0  0  0  0  0  0  0  0  0 13  0  0
   -1.2994   -3.3211   -0.7138 C   0  0  0  0  0  0  0  0  0 14  0  0
   -1.2488   -3.1330    0.8046 C   0  0  0  0  0  0  0  0  0 15  0  0
    0.0247   -2.4156    1.2622 C   0  0  0  0  0  0  0  0  0 16  0  0
    0.1725   -1.1086    0.5050 C   0  0  0  0  0  0  0  0  0 17  0  0
    1.4214   -0.2597    0.7222 C   0  0  0  0  0  0  0  0  0 18  0  0
    1.4314    0.6625   -0.4910 C   0  0  0  0  0  3  0  0  0 19  0  0
    0.5376    0.0431   -1.5652 C   0  0  0  0  0  0  0  0  0 20  0  0
    0.1808   -1.3361   -1.0065 C   0  0  0  0  0  0  0  0  0 21  0  0
   -1.0997   -2.0057   -1.4724 C   0  0  0  0  0  0  0  0  0 22  0  0
   -0.5111   -4.0214   -1.0120 H   0  0  0  0  0  0  0  0  0 23  0  0
   -2.2482   -3.7817   -0.9983 H   0  0  0  0  0  0  0  0  0 24  0  0
   -2.1165   -2.5423    1.1190 H   0  0  0  0  0  0  0  0  0 25  0  0
   -1.3362   -4.1023    1.3008 H   0  0  0  0  0  0  0  0  0 26  0  0
   -0.0051   -2.2446    2.3416 H   0  0  0  0  0  0  0  0  0 27  0  0
    0.8980   -3.0483    1.0642 H   0  0  0  0  0  0  0  0  0 28  0  0
   -0.7024   -0.4837    0.7325 H   0  0  0  0  0  0  0  0  0 29  0  0
    1.4097    0.2866    1.6696 H   0  0  0  0  0  0  0  0  0 30  0  0
    2.3102   -0.9023    0.7364 H   0  0  0  0  0  0  0  0  0 31  0  0
    0.8212    1.7995   -0.0935 H   0  0  0  0  0  0  0  0  0 32  0  0
    2.4069    1.0183   -0.8153 H   0  0  0  0  0  0  0  0  0 33  0  0
    1.0202   -0.0075   -2.5428 H   0  0  0  0  0  0  0  0  0 34  0  0
   -0.3780    0.6338   -1.6973 H   0  0  0  0  0  0  0  0  0 35  0  0
    1.0172   -2.0157   -1.2229 H   0  0  0  0  0  0  0  0  0 36  0  0
   -1.0794   -2.1899   -2.5498 H   0  0  0  0  0  0  0  0  0 37  0  0
   -1.9457   -1.3349   -1.2802 H   0  0  0  0  0  0  0  0  0 38  0  0
  1  7  1  0
  1  5  1  0
  1  6  1  0
  1  2  1  0
  2  3  1  0
  2  4  1  0
  2 32  1  0
  3  8  1  0
  3  9  1  0
  3 10  1  0
  4 11  1  0
  4 12  1  0
  4 13  1  0
 14 15  1  0
 14 24  1  0
 14 23  1  0
 14 22  1  0
 15 25  1  0
 15 16  1  0
 15 26  1  0
 16 28  1  0
 16 17  1  0
 16 27  1  0
 17 18  1  0
 17 21  1  0
 17 29  1  0
 18 19  1  0
 18 31  1  0
 18 30  1  0
 19 33  1  0
 19 20  1  0
 20 35  1  0
 20 21  1  0
 20 34  1  0
 21 36  1  0
 21 22  1  0
 22 37  1  0
 22 38  1  0
M  RAD  1  19   2
M  END
>  <rmg_smiles>  (3) 
CC(C)C.[CH]1CC2CCCCC2C1

>  <rmg_adjacency_list>  (3) 
multiplicity 2
1  C u0 p0 c0 {2,S} {4,S} {8,S} {14,S}
2  C u0 p0 c0 {1,S} {5,S} {9,S} {16,S}
3  C u0 p0 c0 {10,S} {11,S} {12,S} {15,S}
4  C u0 p0 c0 {1,S} {7,S} {21,S} {22,S}
5  C u0 p0 c0 {2,S} {6,S} {23,S} {24,S}
6  C u0 p0 c0 {5,S} {7,S} {17,S} {18,S}
7  C u0 p0 c0 {4,S} {6,S} {19,S} {20,S}
8  C u0 p0 c0 {1,S} {13,S} {25,S} {26,S}
9  C u0 p0 c0 {2,S} {13,S} {27,S} {28,S}
10 C u0 p0 c0 {3,S} {29,S} {30,S} {31,S}
11 C u0 p0 c0 {3,S} {32,S} {33,S} {34,S}
12 C u0 p0 c0 {3,S} {35,S} {36,S} {37,S}
13 C u1 p0 c0 {8,S} {9,S} {38,S}
14 H u0 p0 c0 {1,S}
15 H u0 p0 c0 {3,S}
16 H u0 p0 c0 {2,S}
17 H u0 p0 c0 {6,S}
18 H u0 p0 c0 {6,S}
19 H u0 p0 c0 {7,S}
20 H u0 p0 c0 {7,S}
21 H u0 p0 c0 {4,S}
22 H u0 p0 c0 {4,S}
23 H u0 p0 c0 {5,S}
24 H u0 p0 c0 {5,S}
25 H u0 p0 c0 {8,S}
26 H u0 p0 c0 {8,S}
27 H u0 p0 c0 {9,S}
28 H u0 p0 c0 {9,S}
29 H u0 p0 c0 {10,S}
30 H u0 p0 c0 {10,S}
31 H u0 p0 c0 {10,S}
32 H u0 p0 c0 {11,S}
33 H u0 p0 c0 {11,S}
34 H u0 p0 c0 {11,S}
35 H u0 p0 c0 {12,S}
36 H u0 p0 c0 {12,S}
37 H u0 p0 c0 {12,S}
38 H u0 p0 c0 {13,S}


>  <multiplicity>  (3) 
2

>  <reaction>  (3) 
rxn_602

>  <type>  (3) 
ts

>  <role_mapnums>  (3) 
{"*2": 32, "*1": 19, "*3": 2, "*0": 1, "*4": 18}

>  <role_mapidx>  (3) 
{"*2": 31, "*1": 18, "*3": 1, "*0": 0, "*4": 17}

>  <ordered_mapped_smiles>  (3) 
[C:1]([C:2]([C:3]([H:8])([H:9])[H:10])([C:4]([H:11])([H:12])[H:13])[H:32])([H:5])([H:6])[H:7].[C:14]1([H:23])([H:24])[C:15]([H:25])([H:26])[C:16]([H:27])([H:28])[C:17]2([H:29])[C:18]([H:30])([H:31])[C:19]([H:33])[C:20]([H:34])([H:35])[C:21]2([H:36])[C:22]1([H:37])[H:38]

>  <mol_properties>  (3) 
{"0": {"label": "*0", "atom_type": "Cs"}, "1": {"label": "*3", "atom_type": "Cs"}, "17": {"label": "*4", "atom_type": "Cs"}, "18": {"label": "*1", "atom_type": "Cs"}, "31": {"label": "*2", "atom_type": "H0"}}

>  <level_of_theory>  (3) 
wb97xd/def2tzvp

>  <lot_method>  (3) 
wb97xd

>  <lot_basis>  (3) 
def2tzvp

>  <spin_multiplicity>  (3) 
2.0

>  <optical_isomers>  (3) 
2.0

>  <modes>  (3) 
IdealGasTranslation(mass=(181.196, 'amu')),         NonlinearRotor(             inertia = ([357.573, 1275.37, 1332.79

>  <frequency_value>  (3) 
-1697.27

>  <frequency_units>  (3) 
cm^-1

>  <frequency_list>  (3) 
unknown

>  <arkane_path>  (3) 
/home/calvin/Dropbox/PersonalFolders/Calvin/HAb_Converged/rxn_602/output/rxns/TS0/arkane/output.py

>  <path_exists>  (3) 
True

>  <E0_value>  (3) 
-1339190.0

>  <E0_units>  (3) 
kJ/mol

>  <thermo_class>  (3) 
unknown

>  <Cp0_value>  (3) 
unknown

>  <Cp0_units>  (3) 
unknown

>  <CpInf_value>  (3) 
unknown

>  <CpInf_units>  (3) 
unknown

>  <Tmin_value>  (3) 
unknown

>  <Tmin_units>  (3) 
unknown

>  <Tmax_value>  (3) 
unknown

>  <Tmax_units>  (3) 
unknown

>  <polynomials>  (3) 
unknown

>  <H298_value>  (3) 
unknown

>  <H298_units>  (3) 
unknown

>  <S298_value>  (3) 
unknown

>  <S298_units>  (3) 
unknown

>  <Cp_T_value_list>  (3) 
unknown

>  <Cp_T_units>  (3) 
unknown

>  <T_list>  (3) 
unknown

>  <T_units>  (3) 
unknown

>  <yaml_path>  (3) 
unknown

>  <frequencies_cm1>  (3) 
unknown

>  <ZPE_kJmol>  (3) 
unknown

>  <E_elec_kJmol>  (3) 
unknown

>  <E0_minus_Eelec_plus_ZPE_kJmol>  (3) 
unknown

>  <rxn>  (3) 
unknown

>  <species_type>  (3) 
unknown

>  <species_folder>  (3) 
unknown

>  <frequencies_cm1_list>  (3) 
[]

>  <ts_imag_freq_cm1>  (3) 
-1717.8808

>  <ts_freq_out_path>  (3) 
/home/calvin/Dropbox/PersonalFolders/Calvin/HAb_Converged/rxn_602/output/rxns/TS0/geometry/freq.out

>  <E0_kJmol>  (3) 
-1.33919e+06

>  <H298_kJmol>  (3) 
unknown

$$$$

     RDKit          3D

 24 25  0  0  0  0  0  0  0  0999 V2000
   -2.3462    0.0587    0.4026 C   0  0  0  0  0  3  0  0  0  1  0  0
   -1.9216   -0.8977   -0.6619 C   0  0  0  0  0  0  0  0  0  2  0  0
   -0.4224   -0.6048   -0.8347 C   0  0  0  0  0  0  0  0  0  3  0  0
    0.4246   -1.4411    0.1277 C   0  0  0  0  0  0  0  0  0  4  0  0
    1.8615   -0.9403    0.2199 C   0  0  0  0  0  0  0  0  0  5  0  0
    1.8962    0.5175    0.6671 C   0  0  0  0  0  0  0  0  0  6  0  0
    1.1011    1.4007   -0.2911 C   0  0  0  0  0  0  0  0  0  7  0  0
   -0.3231    0.9028   -0.5260 C   0  0  0  0  0  0  0  0  0  8  0  0
   -1.3110    1.1041    0.6384 C   0  0  0  0  0  0  0  0  0  9  0  0
   -3.2900    0.0057    0.9268 H   0  0  0  0  0  0  0  0  0 10  0  0
   -2.1170   -1.9442   -0.4050 H   0  0  0  0  0  0  0  0  0 11  0  0
   -2.4616   -0.7093   -1.6016 H   0  0  0  0  0  0  0  0  0 12  0  0
   -0.0868   -0.8050   -1.8562 H   0  0  0  0  0  0  0  0  0 13  0  0
   -0.0273   -1.4106    1.1258 H   0  0  0  0  0  0  0  0  0 14  0  0
    0.4005   -2.4873   -0.1884 H   0  0  0  0  0  0  0  0  0 15  0  0
    2.4341   -1.5641    0.9101 H   0  0  0  0  0  0  0  0  0 16  0  0
    2.3441   -1.0297   -0.7603 H   0  0  0  0  0  0  0  0  0 17  0  0
    1.4821    0.5910    1.6781 H   0  0  0  0  0  0  0  0  0 18  0  0
    2.9265    0.8752    0.7283 H   0  0  0  0  0  0  0  0  0 19  0  0
    1.0758    2.4318    0.0723 H   0  0  0  0  0  0  0  0  0 20  0  0
    1.6246    1.4246   -1.2529 H   0  0  0  0  0  0  0  0  0 21  0  0
   -0.7335    1.4393   -1.3877 H   0  0  0  0  0  0  0  0  0 22  0  0
   -0.8124    0.9625    1.6085 H   0  0  0  0  0  0  0  0  0 23  0  0
   -1.7184    2.1202    0.6602 H   0  0  0  0  0  0  0  0  0 24  0  0
  1 10  1  0
  1  9  1  0
  1  2  1  0
  2 12  1  0
  2 11  1  0
  2  3  1  0
  3  4  1  0
  3 13  1  0
  3  8  1  0
  4 14  1  0
  4  5  1  0
  4 15  1  0
  5 16  1  0
  5 17  1  0
  5  6  1  0
  6  7  1  0
  6 19  1  0
  6 18  1  0
  7 20  1  0
  7 21  1  0
  7  8  1  0
  8  9  1  0
  8 22  1  0
  9 24  1  0
  9 23  1  0
M  RAD  1   1   2
M  END
>  <rmg_smiles>  (4) 
[CH]1CC2CCCCC2C1

>  <rmg_adjacency_list>  (4) 
multiplicity 2
1  C u0 p0 c0 {2,S} {3,S} {7,S} {10,S}
2  C u0 p0 c0 {1,S} {4,S} {8,S} {11,S}
3  C u0 p0 c0 {1,S} {5,S} {12,S} {13,S}
4  C u0 p0 c0 {2,S} {6,S} {18,S} {19,S}
5  C u0 p0 c0 {3,S} {6,S} {14,S} {15,S}
6  C u0 p0 c0 {4,S} {5,S} {16,S} {17,S}
7  C u0 p0 c0 {1,S} {9,S} {20,S} {21,S}
8  C u0 p0 c0 {2,S} {9,S} {22,S} {23,S}
9  C u1 p0 c0 {7,S} {8,S} {24,S}
10 H u0 p0 c0 {1,S}
11 H u0 p0 c0 {2,S}
12 H u0 p0 c0 {3,S}
13 H u0 p0 c0 {3,S}
14 H u0 p0 c0 {5,S}
15 H u0 p0 c0 {5,S}
16 H u0 p0 c0 {6,S}
17 H u0 p0 c0 {6,S}
18 H u0 p0 c0 {4,S}
19 H u0 p0 c0 {4,S}
20 H u0 p0 c0 {7,S}
21 H u0 p0 c0 {7,S}
22 H u0 p0 c0 {8,S}
23 H u0 p0 c0 {8,S}
24 H u0 p0 c0 {9,S}


>  <multiplicity>  (4) 
2

>  <reaction>  (4) 
rxn_602

>  <type>  (4) 
r1

>  <role_mapnums>  (4) 
{}

>  <role_mapidx>  (4) 
{}

>  <ordered_mapped_smiles>  (4) 
[C:1]1([H:10])[C:2]([H:11])([H:12])[C:3]2([H:13])[C:4]([H:14])([H:15])[C:5]([H:16])([H:17])[C:6]([H:18])([H:19])[C:7]([H:20])([H:21])[C:8]2([H:22])[C:9]1([H:23])[H:24]

>  <level_of_theory>  (4) 
wb97xd/def2tzvp

>  <lot_method>  (4) 
wb97xd

>  <lot_basis>  (4) 
def2tzvp

>  <spin_multiplicity>  (4) 
2.0

>  <optical_isomers>  (4) 
2.0

>  <modes>  (4) 
IdealGasTranslation(mass=(123.117, 'amu')),         NonlinearRotor(             inertia = ([182.859, 335.738, 424.72

>  <frequency_value>  (4) 
unknown

>  <frequency_units>  (4) 
unknown

>  <frequency_list>  (4) 
unknown

>  <arkane_path>  (4) 
/home/calvin/Dropbox/PersonalFolders/Calvin/HAb_Converged/rxn_602/output/Species/rxn_602_[CH]1CC2CCCCC2C1/arkane/output.py

>  <path_exists>  (4) 
True

>  <E0_value>  (4) 
-923523.381550898

>  <E0_units>  (4) 
kJ/mol

>  <thermo_class>  (4) 
NASA

>  <Cp0_value>  (4) 
33.257888

>  <Cp0_units>  (4) 
J/(mol*K)

>  <CpInf_value>  (4) 
582.01304

>  <CpInf_units>  (4) 
J/(mol*K)

>  <Tmin_value>  (4) 
10.0

>  <Tmin_units>  (4) 
K

>  <Tmax_value>  (4) 
3000.0

>  <Tmax_units>  (4) 
K

>  <polynomials>  (4) 
[{"name": "polynomial1", "class": "NASAPolynomial", "Tmin_value": 10.0, "Tmin_units": "K", "Tmax_value": 526.4834343259283, "Tmax_units": "K", "coeffs": [3.98643894828874, -0.00023182140811730054, 0.00028231001506313013, -4.759214837969805e-07, 2.590692260082836e-10, -111074203.63386503, 13.49617432795343]}, {"name": "polynomial2", "class": "NASAPolynomial", "Tmin_value": 526.4834343259283, "Tmin_units": "K", "Tmax_value": 3000.0, "Tmax_units": "K", "coeffs": [-8.038530107035681, 0.1064091818695619, -6.505516623617582e-05, 1.906120741359288e-08, -2.1496250536372206e-12, -111073149.21835624, 61.78404410488912]}]

>  <H298_value>  (4) 
-220721.71313565032

>  <H298_units>  (4) 
kcal/mol

>  <S298_value>  (4) 
89.39628008765251

>  <S298_units>  (4) 
cal/(mol*K)

>  <Cp_T_value_list>  (4) 
[36.90913064982296, 50.15015676910796, 61.90083300801128, 71.988043048504, 88.09755552735788, 99.81155582762689, 116.55009221226358, 124.50807980477506, 128.7878327045076]

>  <Cp_T_units>  (4) 
cal/(mol*K)

>  <T_list>  (4) 
[300.0, 400.0, 500.0, 600.0, 800.0, 1000.0, 1500.0, 2000.0, 2400.0]

>  <T_units>  (4) 
K

>  <yaml_path>  (4) 
/home/calvin/Dropbox/PersonalFolders/Calvin/HAb_Converged/rxn_602/output/Species/rxn_602_[CH]1CC2CCCCC2C1/rxn_602_CH1CC2CCCCC2C1.yml

>  <frequencies_cm1>  (4) 
[146.42472797835998, 158.91577427544, 205.58380651015997, 300.86322782516, 319.93971304412, 341.24796849208, 360.57166518256, 413.82513633915994, 476.2185649566799, 587.1615797866, 608.54537207308, 718.4995410169199, 772.020824601, 810.8742275415599, 835.6159756495199, 860.57746728772, 899.1355898595199, 910.8163318888398, 920.0592941295598, 932.81815285412, 958.1367277289598, 1008.73267556672, 1015.1807747821998, 1048.8564707914802, 1053.3474791907602, 1058.02389619368, 1092.04294146896, 1112.6850993408798, 1130.1890449215598, 1155.4664178844798, 1170.0381607335198, 1233.24876060412, 1247.16813984776, 1271.69014442548, 1273.9081806838399, 1295.6902581188797, 1312.967593184, 1330.9247597958001, 1338.83552688444, 1355.8175815808, 1365.2802873517599, 1368.27429295128, 1378.8425833587598, 1392.36367745384, 1394.5061768736798, 1457.40089541956, 1463.74598985524, 1472.3503224611998, 1478.6336140289998, 1482.5340616907597, 1495.07317688508, 2942.0225206476, 2948.31267920072, 2993.1403593696796, 2993.82705790168, 2997.4802940919203, 3004.5876238981195, 3006.34557214004, 3011.77049054284, 3016.1790951182797, 3025.6898697864804, 3042.96033786628, 3048.17924670948, 3052.8556637123997, 3057.50461277404, 3183.91894552992]

>  <ZPE_kJmol>  (4) 
574.904176107268

>  <E_elec_kJmol>  (4) 
-924098.2857270052

>  <E0_minus_Eelec_plus_ZPE_kJmol>  (4) 
0.0

>  <rxn>  (4) 
rxn_602

>  <species_type>  (4) 
p1

>  <species_folder>  (4) 
rxn_602_[CH]1CC2CCCCC2C1

>  <frequencies_cm1_list>  (4) 
[146.42472797835998, 158.91577427544, 205.58380651015997, 300.86322782516, 319.93971304412, 341.24796849208, 360.57166518256, 413.82513633915994, 476.2185649566799, 587.1615797866, 608.54537207308, 718.4995410169199, 772.020824601, 810.8742275415599, 835.6159756495199, 860.57746728772, 899.1355898595199, 910.8163318888398, 920.0592941295598, 932.81815285412, 958.1367277289598, 1008.73267556672, 1015.1807747821998, 1048.8564707914802, 1053.3474791907602, 1058.02389619368, 1092.04294146896, 1112.6850993408798, 1130.1890449215598, 1155.4664178844798, 1170.0381607335198, 1233.24876060412, 1247.16813984776, 1271.69014442548, 1273.9081806838399, 1295.6902581188797, 1312.967593184, 1330.9247597958001, 1338.83552688444, 1355.8175815808, 1365.2802873517599, 1368.27429295128, 1378.8425833587598, 1392.36367745384, 1394.5061768736798, 1457.40089541956, 1463.74598985524, 1472.3503224611998, 1478.6336140289998, 1482.5340616907597, 1495.07317688508, 2942.0225206476, 2948.31267920072, 2993.1403593696796, 2993.82705790168, 2997.4802940919203, 3004.5876238981195, 3006.34557214004, 3011.77049054284, 3016.1790951182797, 3025.6898697864804, 3042.96033786628, 3048.17924670948, 3052.8556637123997, 3057.50461277404, 3183.91894552992]

>  <E0_kJmol>  (4) 
-923523

>  <H298_kJmol>  (4) 
-923500

$$$$

     RDKit          3D

 13 12  0  0  0  0  0  0  0  0999 V2000
   -1.3649   -0.5967   -0.3477 C   0  0  0  0  0  0  0  0  0  1  0  0
   -0.1601   -0.2776    0.4669 C   0  0  0  0  0  3  0  0  0  2  0  0
    1.1241   -0.9571    0.1414 C   0  0  0  0  0  0  0  0  0  3  0  0
   -0.1188    1.0130    1.2082 C   0  0  0  0  0  0  0  0  0  4  0  0
   -1.4265   -1.6632   -0.5770 H   0  0  0  0  0  0  0  0  0  5  0  0
   -2.2859   -0.3004    0.1602 H   0  0  0  0  0  0  0  0  0  6  0  0
   -1.3532   -0.0668   -1.3139 H   0  0  0  0  0  0  0  0  0  7  0  0
    1.6174   -0.4963   -0.7297 H   0  0  0  0  0  0  0  0  0  8  0  0
    0.9723   -2.0104   -0.1064 H   0  0  0  0  0  0  0  0  0  9  0  0
    1.8338   -0.8977    0.9701 H   0  0  0  0  0  0  0  0  0 10  0  0
   -1.0851    1.2507    1.6593 H   0  0  0  0  0  0  0  0  0 11  0  0
    0.6358    1.0009    1.9983 H   0  0  0  0  0  0  0  0  0 12  0  0
    0.1343    1.8546    0.5434 H   0  0  0  0  0  0  0  0  0 13  0  0
  1  5  1  0
  1  7  1  0
  1  6  1  0
  1  2  1  0
  2  3  1  0
  2  4  1  0
  3  9  1  0
  3 10  1  0
  3  8  1  0
  4 13  1  0
  4 12  1  0
  4 11  1  0
M  RAD  1   2   2
M  END
>  <rmg_smiles>  (5) 
C[C](C)C

>  <rmg_adjacency_list>  (5) 
multiplicity 2
1  C u0 p0 c0 {4,S} {5,S} {6,S} {7,S}
2  C u0 p0 c0 {4,S} {8,S} {9,S} {10,S}
3  C u0 p0 c0 {4,S} {11,S} {12,S} {13,S}
4  C u1 p0 c0 {1,S} {2,S} {3,S}
5  H u0 p0 c0 {1,S}
6  H u0 p0 c0 {1,S}
7  H u0 p0 c0 {1,S}
8  H u0 p0 c0 {2,S}
9  H u0 p0 c0 {2,S}
10 H u0 p0 c0 {2,S}
11 H u0 p0 c0 {3,S}
12 H u0 p0 c0 {3,S}
13 H u0 p0 c0 {3,S}


>  <multiplicity>  (5) 
2

>  <reaction>  (5) 
rxn_602

>  <type>  (5) 
r2

>  <role_mapnums>  (5) 
{}

>  <role_mapidx>  (5) 
{}

>  <ordered_mapped_smiles>  (5) 
[C:1]([C:2]([C:3]([H:8])([H:9])[H:10])[C:4]([H:11])([H:12])[H:13])([H:5])([H:6])[H:7]

>  <level_of_theory>  (5) 
wb97xd/def2tzvp

>  <lot_method>  (5) 
wb97xd

>  <lot_basis>  (5) 
def2tzvp

>  <spin_multiplicity>  (5) 
2.0

>  <optical_isomers>  (5) 
1.0

>  <modes>  (5) 
IdealGasTranslation(mass=(57.0704, 'amu')),         NonlinearRotor(             inertia = ([62.748, 62.7522, 115.629

>  <frequency_value>  (5) 
unknown

>  <frequency_units>  (5) 
unknown

>  <frequency_list>  (5) 
unknown

>  <arkane_path>  (5) 
/home/calvin/Dropbox/PersonalFolders/Calvin/HAb_Converged/rxn_602/output/Species/rxn_602_C[C][C]C/arkane/output.py

>  <path_exists>  (5) 
True

>  <E0_value>  (5) 
-414011.8853794148

>  <E0_units>  (5) 
kJ/mol

>  <thermo_class>  (5) 
NASA

>  <Cp0_value>  (5) 
33.257888

>  <Cp0_units>  (5) 
J/(mol*K)

>  <CpInf_value>  (5) 
307.635464

>  <CpInf_units>  (5) 
J/(mol*K)

>  <Tmin_value>  (5) 
10.0

>  <Tmin_units>  (5) 
K

>  <Tmax_value>  (5) 
3000.0

>  <Tmax_units>  (5) 
K

>  <polynomials>  (5) 
[{"name": "polynomial1", "class": "NASAPolynomial", "Tmin_value": 10.0, "Tmin_units": "K", "Tmax_value": 459.22574851976805, "Tmax_units": "K", "coeffs": [3.627417412492184, 0.037974372733479124, -9.102333985167473e-05, 2.3470058769384502e-07, -1.968871159715316e-10, -49794127.70894244, 8.376638093113526]}, {"name": "polynomial2", "class": "NASAPolynomial", "Tmin_value": 459.22574851976805, "Tmin_units": "K", "Tmax_value": 3000.0, "Tmax_units": "K", "coeffs": [-0.47447078978626, 0.045772521481221795, -2.5263419037058692e-05, 6.793128607883331e-09, -7.145341956928904e-13, -49793456.45878242, 28.18034387062716]}]

>  <H298_value>  (5) 
-98946.57544747872

>  <H298_units>  (5) 
kcal/mol

>  <S298_value>  (5) 
75.51243371630116

>  <S298_units>  (5) 
cal/(mol*K)

>  <Cp_T_value_list>  (5) 
[22.99150004940245, 28.285816998110388, 33.58462028063453, 38.29132983328468, 46.02443157312696, 51.89237260041679, 60.91006177255015, 65.43747354996061, 67.69213717956913]

>  <Cp_T_units>  (5) 
cal/(mol*K)

>  <T_list>  (5) 
[300.0, 400.0, 500.0, 600.0, 800.0, 1000.0, 1500.0, 2000.0, 2400.0]

>  <T_units>  (5) 
K

>  <yaml_path>  (5) 
/home/calvin/Dropbox/PersonalFolders/Calvin/HAb_Converged/rxn_602/output/Species/rxn_602_C[C][C]C/rxn_602_CCCC.yml

>  <frequencies_cm1>  (5) 
[124.62204958735998, 127.82206474647997, 129.01692019215997, 257.168600234, 382.51855026527994, 382.84816556064, 764.06198861512, 930.2567673297599, 930.3529051242399, 963.93933032436, 1004.2416671674399, 1004.50947959492, 1087.70300674672, 1293.71943333204, 1293.76063524396, 1387.2409064051199, 1387.5155858179198, 1410.66419333164, 1453.51418172844, 1456.4120495334798, 1456.73479784352, 1475.5984065175599, 1478.0155853502, 1478.2147279244798, 2923.1795129295197, 2923.5777980780795, 2931.05594509156, 3026.2117606707993, 3027.0220649385597, 3028.05897972188, 3072.23429628544, 3076.0317391674, 3076.7115707140792]

>  <ZPE_kJmol>  (5) 
303.5198135157986

>  <E_elec_kJmol>  (5) 
-414315.4051929306

>  <E0_minus_Eelec_plus_ZPE_kJmol>  (5) 
0.0

>  <rxn>  (5) 
rxn_602

>  <species_type>  (5) 
r0

>  <species_folder>  (5) 
rxn_602_C[C][C]C

>  <frequencies_cm1_list>  (5) 
[124.62204958735998, 127.82206474647997, 129.01692019215997, 257.168600234, 382.51855026527994, 382.84816556064, 764.06198861512, 930.2567673297599, 930.3529051242399, 963.93933032436, 1004.2416671674399, 1004.50947959492, 1087.70300674672, 1293.71943333204, 1293.76063524396, 1387.2409064051199, 1387.5155858179198, 1410.66419333164, 1453.51418172844, 1456.4120495334798, 1456.73479784352, 1475.5984065175599, 1478.0155853502, 1478.2147279244798, 2923.1795129295197, 2923.5777980780795, 2931.05594509156, 3026.2117606707993, 3027.0220649385597, 3028.05897972188, 3072.23429628544, 3076.0317391674, 3076.7115707140792]

>  <E0_kJmol>  (5) 
-414012

>  <H298_kJmol>  (5) 
-413992

$$$$
