
     RDKit          3D

  5  4  0  0  0  0  0  0  0  0999 V2000
   -0.2494   -0.5586    0.1180 C   0  0  0  0  0  0  0  0  0  1  0  0
    0.2694    0.5410   -0.1884 N   0  0  0  0  0  0  0  0  0  2  0  0
   -0.6963   -0.7770    1.0939 H   0  0  0  0  0  0  0  0  0  3  0  0
   -0.2663   -1.3622   -0.6219 H   0  0  0  0  0  0  0  0  0  4  0  0
    0.1988    1.1832    0.6266 H   0  0  0  0  0  0  0  0  0  5  0  0
  1  3  1  0
  1  4  1  0
  1  2  1  0
  2  5  1  0
M  END
>  <rmg_smiles>  (1) 
[CH2][NH]

>  <rmg_adjacency_list>  (1) 
1 N u0 p1 c0 {2,S} {5,S}
2 C u0 p0 c0 {1,S} {3,S} {4,S}
3 H u0 p0 c0 {2,S}
4 H u0 p0 c0 {2,S}
5 H u0 p0 c0 {1,S}


>  <multiplicity>  (1) 
1

>  <reaction>  (1) 
rxn_670

>  <type>  (1) 
r1h

>  <role_mapnums>  (1) 
{"r1h_a": 2, "r1h_h": 5}

>  <role_mapidx>  (1) 
{"r1h_a": 1, "r1h_h": 4}

>  <ordered_mapped_smiles>  (1) 
[CH:1]([NH:2][H:5])([H:3])[H:4]

>  <mol_properties>  (1) 
{"1": {"label": "donator", "atom_type": "N3s"}, "4": {"label": "d_hydrogen", "atom_type": "H0"}}

>  <level_of_theory>  (1) 
wb97xd/def2tzvp

>  <lot_method>  (1) 
wb97xd

>  <lot_basis>  (1) 
def2tzvp

>  <spin_multiplicity>  (1) 
1.0

>  <optical_isomers>  (1) 
1.0

>  <modes>  (1) 
IdealGasTranslation(mass=(29.0266, 'amu')),         NonlinearRotor(             inertia = ([2.54329, 14.3364, 16.8797

>  <frequency_value>  (1) 
unknown

>  <frequency_units>  (1) 
unknown

>  <frequency_list>  (1) 
unknown

>  <arkane_path>  (1) 
/home/calvin/Dropbox/PersonalFolders/Calvin/HAb_Converged/rxn_670/output/Species/rxn_670_C=N/arkane/output.py

>  <path_exists>  (1) 
True

>  <E0_value>  (1) 
-248356.34423816652

>  <E0_units>  (1) 
kJ/mol

>  <thermo_class>  (1) 
NASA

>  <Cp0_value>  (1) 
33.257888

>  <Cp0_units>  (1) 
J/(mol*K)

>  <CpInf_value>  (1) 
108.088136

>  <CpInf_units>  (1) 
J/(mol*K)

>  <Tmin_value>  (1) 
10.0

>  <Tmin_units>  (1) 
K

>  <Tmax_value>  (1) 
3000.0

>  <Tmax_units>  (1) 
K

>  <polynomials>  (1) 
[{"name": "polynomial1", "class": "NASAPolynomial", "Tmin_value": 10.0, "Tmin_units": "K", "Tmax_value": 929.7245041416248, "Tmax_units": "K", "coeffs": [4.082145433180602, -0.004843975621351913, 3.06182483299597e-05, -3.0748398747364916e-08, 1.005203482703049e-11, -29870371.356622625, 4.365827516701529]}, {"name": "polynomial2", "class": "NASAPolynomial", "Tmin_value": 929.7245041416248, "Tmin_units": "K", "Tmax_value": 3000.0, "Tmax_units": "K", "coeffs": [0.8877926126409245, 0.013678157391694009, -6.975215360748043e-06, 1.7369713544725003e-09, -1.698199001818517e-13, -29869983.92454052, 18.433203146604594]}]

>  <H298_value>  (1) 
-59356.18051805212

>  <H298_units>  (1) 
kcal/mol

>  <S298_value>  (1) 
54.2244639708233

>  <S298_units>  (1) 
cal/(mol*K)

>  <Cp_T_value_list>  (1) 
[9.2123113963801, 10.597592405896666, 12.120811126511391, 13.631082115641764, 16.248944756592767, 18.198610788717026, 21.289657079468707, 22.89639137582938, 23.679165475597802]

>  <Cp_T_units>  (1) 
cal/(mol*K)

>  <T_list>  (1) 
[300.0, 400.0, 500.0, 600.0, 800.0, 1000.0, 1500.0, 2000.0, 2400.0]

>  <T_units>  (1) 
K

>  <yaml_path>  (1) 
/home/calvin/Dropbox/PersonalFolders/Calvin/HAb_Converged/rxn_670/output/Species/rxn_670_C=N/rxn_670_C=N.yml

>  <frequencies_cm1>  (1) 
[1070.7758879329199, 1100.41379657404, 1160.96000614048, 1358.81158718032, 1481.75122536428, 1720.3789652342798, 3005.1987855916, 3102.24988911916, 3440.05749796592]

>  <ZPE_kJmol>  (1) 
104.3179698886586

>  <E_elec_kJmol>  (1) 
-248460.6622080552

>  <E0_minus_Eelec_plus_ZPE_kJmol>  (1) 
0.0

>  <rxn>  (1) 
rxn_670

>  <species_type>  (1) 
r0

>  <species_folder>  (1) 
rxn_670_C=N

>  <frequencies_cm1_list>  (1) 
[1070.7758879329199, 1100.41379657404, 1160.96000614048, 1358.81158718032, 1481.75122536428, 1720.3789652342798, 3005.1987855916, 3102.24988911916, 3440.05749796592]

>  <E0_kJmol>  (1) 
-248356

>  <H298_kJmol>  (1) 
-248346

$$$$

     RDKit          3D

  5  4  0  0  0  0  0  0  0  0999 V2000
    0.1465   -0.5168   -0.8947 H   0  0  0  0  0  0  0  0  0  1  0  0
   -0.0065    0.0194    0.0363 C   0  0  0  0  0  0  0  0  0  2  0  0
    0.4327    0.9858   -0.1880 H   0  0  0  0  0  0  0  0  0  3  0  0
   -1.0841    0.0306    0.1656 H   0  0  0  0  0  0  0  0  0  4  0  0
    0.5350   -0.5640    0.7742 H   0  0  0  0  0  0  0  0  0  5  0  0
  1  2  1  0
  2  5  1  0
  2  3  1  0
  2  4  1  0
M  END
>  <rmg_smiles>  (2) 
C

>  <rmg_adjacency_list>  (2) 
1 H u0 p0 c0 {2,S}
2 C u0 p0 c0 {1,S} {3,S} {4,S} {5,S}
3 H u0 p0 c0 {2,S}
4 H u0 p0 c0 {2,S}
5 H u0 p0 c0 {2,S}


>  <multiplicity>  (2) 
1

>  <reaction>  (2) 
rxn_670

>  <type>  (2) 
r2h

>  <role_mapnums>  (2) 
{"r2h_a": 2, "r2h_h": 1}

>  <role_mapidx>  (2) 
{"r2h_a": 1, "r2h_h": 0}

>  <ordered_mapped_smiles>  (2) 
[H:1][C:2]([H:3])([H:4])[H:5]

>  <mol_properties>  (2) 
{"0": {"label": "a_hydrogen", "atom_type": "H0"}, "1": {"label": "acceptor", "atom_type": "Cs"}}

>  <level_of_theory>  (2) 
wb97xd/def2tzvp

>  <lot_method>  (2) 
wb97xd

>  <lot_basis>  (2) 
def2tzvp

>  <spin_multiplicity>  (2) 
1.0

>  <optical_isomers>  (2) 
1.0

>  <modes>  (2) 
IdealGasTranslation(mass=(16.0313, 'amu')),         NonlinearRotor(             inertia = ([3.18679, 3.18679, 3.18679

>  <frequency_value>  (2) 
unknown

>  <frequency_units>  (2) 
unknown

>  <frequency_list>  (2) 
unknown

>  <arkane_path>  (2) 
/home/calvin/Dropbox/PersonalFolders/Calvin/HAb_Converged/rxn_670/output/Species/rxn_670_C/arkane/output.py

>  <path_exists>  (2) 
True

>  <E0_value>  (2) 
-106268.5262916272

>  <E0_units>  (2) 
kJ/mol

>  <thermo_class>  (2) 
NASA

>  <Cp0_value>  (2) 
33.257888

>  <Cp0_units>  (2) 
J/(mol*K)

>  <CpInf_value>  (2) 
108.088136

>  <CpInf_units>  (2) 
J/(mol*K)

>  <Tmin_value>  (2) 
10.0

>  <Tmin_units>  (2) 
K

>  <Tmax_value>  (2) 
3000.0

>  <Tmax_units>  (2) 
K

>  <polynomials>  (2) 
[{"name": "polynomial1", "class": "NASAPolynomial", "Tmin_value": 10.0, "Tmin_units": "K", "Tmax_value": 616.7595780986624, "Tmax_units": "K", "coeffs": [4.041420799946622, -0.002477807655966685, 1.1290457802459216e-05, 3.700688819348292e-09, -9.366412561864162e-12, -12781153.318458663, -0.42637433538586406]}, {"name": "polynomial2", "class": "NASAPolynomial", "Tmin_value": 616.7595780986624, "Tmin_units": "K", "Tmax_value": 3000.0, "Tmax_units": "K", "coeffs": [0.6800320423470843, 0.011684066325645743, -4.5749540261290126e-06, 7.694671628924811e-10, -3.8768177461555664e-14, -12780593.404419335, 15.343675764562182]}]

>  <H298_value>  (2) 
-25396.41264990868

>  <H298_units>  (2) 
kcal/mol

>  <S298_value>  (2) 
44.46392088520575

>  <S298_units>  (2) 
cal/(mol*K)

>  <Cp_T_value_list>  (2) 
[8.621039065772948, 9.645572285350525, 10.934239595808906, 12.330144838344452, 14.859142397339834, 16.9306880471269, 20.49440393107996, 22.423230884533538, 23.291918246513866]

>  <Cp_T_units>  (2) 
cal/(mol*K)

>  <T_list>  (2) 
[300.0, 400.0, 500.0, 600.0, 800.0, 1000.0, 1500.0, 2000.0, 2400.0]

>  <T_units>  (2) 
K

>  <yaml_path>  (2) 
/home/calvin/Dropbox/PersonalFolders/Calvin/HAb_Converged/rxn_670/output/Species/rxn_670_C/rxn_670_C.yml

>  <frequencies_cm1>  (2) 
[1326.5504901469599, 1326.5504901469599, 1326.5504901469599, 1542.24249904816, 1542.24249904816, 3008.8382878112, 3127.32125252248, 3127.32125252248, 3127.32125252248]

>  <ZPE_kJmol>  (2) 
116.36640738144024

>  <E_elec_kJmol>  (2) 
-106384.89269900863

>  <E0_minus_Eelec_plus_ZPE_kJmol>  (2) 
0.0

>  <rxn>  (2) 
rxn_670

>  <species_type>  (2) 
p0

>  <species_folder>  (2) 
rxn_670_C

>  <frequencies_cm1_list>  (2) 
[1326.5504901469599, 1326.5504901469599, 1326.5504901469599, 1542.24249904816, 1542.24249904816, 3008.8382878112, 3127.32125252248, 3127.32125252248, 3127.32125252248]

>  <E0_kJmol>  (2) 
-106269

>  <H298_kJmol>  (2) 
-106259

$$$$

     RDKit          3D

  9  7  0  0  0  0  0  0  0  0999 V2000
   -0.1394   -0.9799   -0.8411 C   0  0  0  0  0  0  0  0  0  1  0  0
    0.3793    0.1198   -1.1475 N   0  0  0  0  0  0  0  0  0  2  0  0
   -0.5864   -1.1982    0.1348 H   0  0  0  0  0  0  0  0  0  3  0  0
   -0.1564   -1.7834   -1.5810 H   0  0  0  0  0  0  0  0  0  4  0  0
    0.2988    0.8523   -0.2178 H   0  0  0  0  0  0  0  0  0  5  0  0
    0.0982    1.5552    1.0025 C   0  0  0  0  0  3  0  0  0  6  0  0
    0.5374    2.5216    0.7781 H   0  0  0  0  0  0  0  0  0  7  0  0
   -0.9794    1.5663    1.1318 H   0  0  0  0  0  0  0  0  0  8  0  0
    0.6397    0.9718    1.7403 H   0  0  0  0  0  0  0  0  0  9  0  0
  1  2  1  0
  1  4  1  0
  1  3  1  0
  2  5  1  0
  6  8  1  0
  6  9  1  0
  6  7  1  0
M  RAD  1   6   2
M  END
>  <rmg_smiles>  (3) 
[CH2][NH].[CH3]

>  <rmg_adjacency_list>  (3) 
multiplicity 2
1 N u0 p1 c0 {2,S} {9,S}
2 C u0 p0 c0 {1,S} {4,S} {5,S}
3 C u1 p0 c0 {6,S} {7,S} {8,S}
4 H u0 p0 c0 {2,S}
5 H u0 p0 c0 {2,S}
6 H u0 p0 c0 {3,S}
7 H u0 p0 c0 {3,S}
8 H u0 p0 c0 {3,S}
9 H u0 p0 c0 {1,S}


>  <multiplicity>  (3) 
2

>  <reaction>  (3) 
rxn_670

>  <type>  (3) 
ts

>  <role_mapnums>  (3) 
{"*2": 5, "*1": 2, "*3": 6, "*0": 1, "*4": 7}

>  <role_mapidx>  (3) 
{"*2": 4, "*1": 1, "*3": 5, "*0": 0, "*4": 6}

>  <ordered_mapped_smiles>  (3) 
[CH:1]([NH:2][H:5])([H:3])[H:4].[C:6]([H:7])([H:8])[H:9]

>  <mol_properties>  (3) 
{"0": {"label": "*0", "atom_type": "Cs"}, "1": {"label": "*1", "atom_type": "N3s"}, "4": {"label": "*2", "atom_type": "H0"}, "5": {"label": "*3", "atom_type": "Cs"}, "6": {"label": "*4", "atom_type": "H0"}}

>  <level_of_theory>  (3) 
wb97xd/def2tzvp

>  <lot_method>  (3) 
wb97xd

>  <lot_basis>  (3) 
def2tzvp

>  <spin_multiplicity>  (3) 
2.0

>  <optical_isomers>  (3) 
1.0

>  <modes>  (3) 
IdealGasTranslation(mass=(44.05, 'amu')),         NonlinearRotor(             inertia = ([13.8956, 87.9396, 98.4639

>  <frequency_value>  (3) 
-1712.69

>  <frequency_units>  (3) 
cm^-1

>  <frequency_list>  (3) 
unknown

>  <arkane_path>  (3) 
/home/calvin/Dropbox/PersonalFolders/Calvin/HAb_Converged/rxn_670/output/rxns/TS0/arkane/output.py

>  <path_exists>  (3) 
True

>  <E0_value>  (3) 
-352855.0

>  <E0_units>  (3) 
kJ/mol

>  <thermo_class>  (3) 
unknown

>  <Cp0_value>  (3) 
unknown

>  <Cp0_units>  (3) 
unknown

>  <CpInf_value>  (3) 
unknown

>  <CpInf_units>  (3) 
unknown

>  <Tmin_value>  (3) 
unknown

>  <Tmin_units>  (3) 
unknown

>  <Tmax_value>  (3) 
unknown

>  <Tmax_units>  (3) 
unknown

>  <polynomials>  (3) 
unknown

>  <H298_value>  (3) 
unknown

>  <H298_units>  (3) 
unknown

>  <S298_value>  (3) 
unknown

>  <S298_units>  (3) 
unknown

>  <Cp_T_value_list>  (3) 
unknown

>  <Cp_T_units>  (3) 
unknown

>  <T_list>  (3) 
unknown

>  <T_units>  (3) 
unknown

>  <yaml_path>  (3) 
unknown

>  <frequencies_cm1>  (3) 
unknown

>  <ZPE_kJmol>  (3) 
unknown

>  <E_elec_kJmol>  (3) 
unknown

>  <E0_minus_Eelec_plus_ZPE_kJmol>  (3) 
unknown

>  <rxn>  (3) 
unknown

>  <species_type>  (3) 
unknown

>  <species_folder>  (3) 
unknown

>  <frequencies_cm1_list>  (3) 
[]

>  <ts_imag_freq_cm1>  (3) 
-1733.4883

>  <ts_freq_out_path>  (3) 
/home/calvin/Dropbox/PersonalFolders/Calvin/HAb_Converged/rxn_670/output/rxns/TS0/geometry/freq.out

>  <E0_kJmol>  (3) 
-352855

>  <H298_kJmol>  (3) 
unknown

$$$$

     RDKit          3D

  4  3  0  0  0  0  0  0  0  0999 V2000
   -0.0235    0.0026    0.0007 C   0  0  0  0  0  0  0  0  0  1  0  0
    1.2046   -0.1325   -0.0372 N   0  0  0  0  0  2  0  0  0  2  0  0
   -0.6930   -0.8666    0.0185 H   0  0  0  0  0  0  0  0  0  3  0  0
   -0.4880    0.9965    0.0179 H   0  0  0  0  0  0  0  0  0  4  0  0
  1  3  1  0
  1  4  1  0
  1  2  1  0
M  RAD  1   2   2
M  END
>  <rmg_smiles>  (4) 
[CH2][N]

>  <rmg_adjacency_list>  (4) 
multiplicity 2
1 N u1 p2 c0 {2,S}
2 C u0 p0 c0 {1,S} {3,S} {4,S}
3 H u0 p0 c0 {2,S}
4 H u0 p0 c0 {2,S}


>  <multiplicity>  (4) 
2

>  <reaction>  (4) 
rxn_670

>  <type>  (4) 
r1

>  <role_mapnums>  (4) 
{}

>  <role_mapidx>  (4) 
{}

>  <ordered_mapped_smiles>  (4) 
[CH:1]([NH:2])([H:3])[H:4]

>  <level_of_theory>  (4) 
wb97xd/def2tzvp

>  <lot_method>  (4) 
wb97xd

>  <lot_basis>  (4) 
def2tzvp

>  <spin_multiplicity>  (4) 
2.0

>  <optical_isomers>  (4) 
1.0

>  <modes>  (4) 
IdealGasTranslation(mass=(28.0187, 'amu')),         NonlinearRotor(             inertia = ([1.77036, 12.7332, 14.5036

>  <frequency_value>  (4) 
unknown

>  <frequency_units>  (4) 
unknown

>  <frequency_list>  (4) 
unknown

>  <arkane_path>  (4) 
/home/calvin/Dropbox/PersonalFolders/Calvin/HAb_Converged/rxn_670/output/Species/rxn_670_C=[N]/arkane/output.py

>  <path_exists>  (4) 
True

>  <E0_value>  (4) 
-246684.5521079164

>  <E0_units>  (4) 
kJ/mol

>  <thermo_class>  (4) 
NASA

>  <Cp0_value>  (4) 
33.257888

>  <Cp0_units>  (4) 
J/(mol*K)

>  <CpInf_value>  (4) 
83.14472

>  <CpInf_units>  (4) 
J/(mol*K)

>  <Tmin_value>  (4) 
10.0

>  <Tmin_units>  (4) 
K

>  <Tmax_value>  (4) 
3000.0

>  <Tmax_units>  (4) 
K

>  <polynomials>  (4) 
[{"name": "polynomial1", "class": "NASAPolynomial", "Tmin_value": 10.0, "Tmin_units": "K", "Tmax_value": 940.7115147014066, "Tmax_units": "K", "coeffs": [4.066582322176055, -0.002945297737503203, 2.0923665491113676e-05, -2.1725859678267992e-08, 7.260528712319913e-12, -29669301.271777656, 3.887653957496315]}, {"name": "polynomial2", "class": "NASAPolynomial", "Tmin_value": 940.7115147014066, "Tmin_units": "K", "Tmax_value": 3000.0, "Tmax_units": "K", "coeffs": [2.417736019426672, 0.008438496046430401, -4.2007115812525825e-06, 1.0206571750372709e-09, -9.76792644324066e-14, -29669184.533969242, 10.713238634198367]}]

>  <H298_value>  (4) 
-58956.59162286701

>  <H298_units>  (4) 
kcal/mol

>  <S298_value>  (4) 
53.51422667564984

>  <S298_units>  (4) 
cal/(mol*K)

>  <Cp_T_value_list>  (4) 
[9.018608748710106, 9.998955851352573, 11.054631860789643, 12.082418393933246, 13.814587537277745, 15.06004127844482, 17.038498756224165, 18.072194366523956, 18.56613061937485]

>  <Cp_T_units>  (4) 
cal/(mol*K)

>  <T_list>  (4) 
[300.0, 400.0, 500.0, 600.0, 800.0, 1000.0, 1500.0, 2000.0, 2400.0]

>  <T_units>  (4) 
K

>  <yaml_path>  (4) 
/home/calvin/Dropbox/PersonalFolders/Calvin/HAb_Converged/rxn_670/output/Species/rxn_670_C=[N]/rxn_670_C=N.yml

>  <frequencies_cm1>  (4) 
[931.60269645248, 995.74033934128, 1367.3953188303199, 1729.09316960536, 2962.5273388131195, 3028.35426009064]

>  <ZPE_kJmol>  (4) 
65.8826340447903

>  <E_elec_kJmol>  (4) 
-246750.4347419612

>  <E0_minus_Eelec_plus_ZPE_kJmol>  (4) 
0.0

>  <rxn>  (4) 
rxn_670

>  <species_type>  (4) 
p1

>  <species_folder>  (4) 
rxn_670_C=[N]

>  <frequencies_cm1_list>  (4) 
[931.60269645248, 995.74033934128, 1367.3953188303199, 1729.09316960536, 2962.5273388131195, 3028.35426009064]

>  <E0_kJmol>  (4) 
-246685

>  <H298_kJmol>  (4) 
-246674

$$$$

     RDKit          3D

  4  3  0  0  0  0  0  0  0  0999 V2000
    0.0000    0.0000    0.0000 C   0  0  0  0  0  3  0  0  0  1  0  0
    1.0638   -0.1747    0.0540 H   0  0  0  0  0  0  0  0  0  2  0  0
   -0.6833   -0.8351   -0.0280 H   0  0  0  0  0  0  0  0  0  3  0  0
   -0.3805    1.0098   -0.0260 H   0  0  0  0  0  0  0  0  0  4  0  0
  1  3  1  0
  1  4  1  0
  1  2  1  0
M  RAD  1   1   2
M  END
>  <rmg_smiles>  (5) 
[CH3]

>  <rmg_adjacency_list>  (5) 
multiplicity 2
1 C u1 p0 c0 {2,S} {3,S} {4,S}
2 H u0 p0 c0 {1,S}
3 H u0 p0 c0 {1,S}
4 H u0 p0 c0 {1,S}


>  <multiplicity>  (5) 
2

>  <reaction>  (5) 
rxn_670

>  <type>  (5) 
r2

>  <role_mapnums>  (5) 
{}

>  <role_mapidx>  (5) 
{}

>  <ordered_mapped_smiles>  (5) 
[C:1]([H:2])([H:3])[H:4]

>  <level_of_theory>  (5) 
wb97xd/def2tzvp

>  <lot_method>  (5) 
wb97xd

>  <lot_basis>  (5) 
def2tzvp

>  <spin_multiplicity>  (5) 
2.0

>  <optical_isomers>  (5) 
1.0

>  <modes>  (5) 
IdealGasTranslation(mass=(15.0235, 'amu')),         NonlinearRotor(             inertia = ([1.76141, 1.76141, 3.52282

>  <frequency_value>  (5) 
unknown

>  <frequency_units>  (5) 
unknown

>  <frequency_list>  (5) 
unknown

>  <arkane_path>  (5) 
/home/calvin/Dropbox/PersonalFolders/Calvin/HAb_Converged/rxn_670/output/Species/rxn_670_[CH3]/arkane/output.py

>  <path_exists>  (5) 
True

>  <E0_value>  (5) 
-104520.13119505512

>  <E0_units>  (5) 
kJ/mol

>  <thermo_class>  (5) 
NASA

>  <Cp0_value>  (5) 
33.257888

>  <Cp0_units>  (5) 
J/(mol*K)

>  <CpInf_value>  (5) 
83.14472

>  <CpInf_units>  (5) 
J/(mol*K)

>  <Tmin_value>  (5) 
10.0

>  <Tmin_units>  (5) 
K

>  <Tmax_value>  (5) 
3000.0

>  <Tmax_units>  (5) 
K

>  <polynomials>  (5) 
[{"name": "polynomial1", "class": "NASAPolynomial", "Tmin_value": 10.0, "Tmin_units": "K", "Tmax_value": 646.6680568167106, "Tmax_units": "K", "coeffs": [3.9912271000461548, 0.0004274218009639198, 9.38132315134313e-06, -1.0944874554220949e-08, 4.263406085556096e-12, -12570867.748368958, 0.20527673099681187]}, {"name": "polynomial2", "class": "NASAPolynomial", "Tmin_value": 646.6680568167106, "Tmin_units": "K", "Tmax_value": 3000.0, "Tmax_units": "K", "coeffs": [3.2488827598675174, 0.0050187516265713635, -1.2675301815554908e-06, 3.215102013021586e-11, 2.0164394281080815e-14, -12570771.728238096, 3.4631324604304954]}]

>  <H298_value>  (5) 
-24978.383291331436

>  <H298_units>  (5) 
kcal/mol

>  <S298_value>  (5) 
46.49953999396709

>  <S298_units>  (5) 
cal/(mol*K)

>  <Cp_T_value_list>  (5) 
[9.345424201068383, 10.07887042200736, 10.827537754048599, 11.552428339520182, 12.871902382304132, 14.014614114932202, 16.167234911840477, 17.479674567657305, 18.096247059343543]

>  <Cp_T_units>  (5) 
cal/(mol*K)

>  <T_list>  (5) 
[300.0, 400.0, 500.0, 600.0, 800.0, 1000.0, 1500.0, 2000.0, 2400.0]

>  <T_units>  (5) 
K

>  <yaml_path>  (5) 
/home/calvin/Dropbox/PersonalFolders/Calvin/HAb_Converged/rxn_670/output/Species/rxn_670_[CH3]/rxn_670_CH3.yml

>  <frequencies_cm1>  (5) 
[520.22220688724, 1393.4280601784399, 1393.43492716376, 3088.8592677451597, 3268.6163424668, 3268.6232094521197]

>  <ZPE_kJmol>  (5) 
77.35764153782172

>  <E_elec_kJmol>  (5) 
-104597.48883659294

>  <E0_minus_Eelec_plus_ZPE_kJmol>  (5) 
0.0

>  <rxn>  (5) 
rxn_670

>  <species_type>  (5) 
r1

>  <species_folder>  (5) 
rxn_670_[CH3]

>  <frequencies_cm1_list>  (5) 
[520.22220688724, 1393.4280601784399, 1393.43492716376, 3088.8592677451597, 3268.6163424668, 3268.6232094521197]

>  <E0_kJmol>  (5) 
-104520

>  <H298_kJmol>  (5) 
-104510

$$$$
