
     RDKit          3D

 18 18  0  0  0  0  0  0  0  0999 V2000
   -2.7017   -1.2708   -0.0414 C   0  0  0  0  0  0  0  0  0  1  0  0
   -0.4919    0.0454   -0.2291 C   0  0  0  0  0  0  0  0  0  2  0  0
   -1.9117   -0.1002   -0.5678 C   0  0  0  0  0  0  0  0  0  3  0  0
    0.3156    0.9009   -0.9895 C   0  0  0  0  0  0  0  0  0  4  0  0
    0.0837   -0.5892    0.8776 C   0  0  0  0  0  0  0  0  0  5  0  0
    1.6447    1.1047   -0.6654 C   0  0  0  0  0  0  0  0  0  6  0  0
    2.2006    0.4621    0.4322 C   0  0  0  0  0  0  0  0  0  7  0  0
    1.4140   -0.3851    1.2005 C   0  0  0  0  0  0  0  0  0  8  0  0
   -2.7096   -1.2991    1.0493 H   0  0  0  0  0  0  0  0  0  9  0  0
   -2.2844   -2.2179   -0.3969 H   0  0  0  0  0  0  0  0  0 10  0  0
   -3.7369   -1.2121   -0.3761 H   0  0  0  0  0  0  0  0  0 11  0  0
   -2.1223    0.1405   -1.6095 H   0  0  0  0  0  0  0  0  0 12  0  0
   -0.1170    1.4112   -1.8414 H   0  0  0  0  0  0  0  0  0 13  0  0
    2.2501    1.7675   -1.2707 H   0  0  0  0  0  0  0  0  0 14  0  0
   -0.5131   -1.2550    1.4873 H   0  0  0  0  0  0  0  0  0 15  0  0
    3.2411    0.6187    0.6864 H   0  0  0  0  0  0  0  0  0 16  0  0
    1.8416   -0.8919    2.0566 H   0  0  0  0  0  0  0  0  0 17  0  0
   -2.3532    0.7704   -0.0833 H   0  0  0  0  0  0  0  0  0 18  0  0
  1 10  1  0
  1 11  1  0
  1  3  1  0
  1  9  1  0
  2  3  1  0
  2  4  1  0
  2  5  1  0
  3 18  1  0
  3 12  1  0
  4 13  1  0
  4  6  1  0
  5 15  1  0
  5  8  1  0
  6 14  1  0
  6  7  1  0
  7  8  1  0
  7 16  1  0
  8 17  1  0
M  END
>  <rmg_smiles>  (1) 
CCC1[CH][CH][CH][CH][CH]1

>  <rmg_adjacency_list>  (1) 
1  C u0 p0 c0 {2,S} {3,S} {9,S} {10,S}
2  C u0 p0 c0 {1,S} {11,S} {12,S} {13,S}
3  C u0 p0 c0 {1,S} {4,S} {5,S}
4  C u0 p0 c0 {3,S} {6,S} {14,S}
5  C u0 p0 c0 {3,S} {8,S} {16,S}
6  C u0 p0 c0 {4,S} {7,S} {15,S}
7  C u0 p0 c0 {6,S} {8,S} {17,S}
8  C u0 p0 c0 {5,S} {7,S} {18,S}
9  H u0 p0 c0 {1,S}
10 H u0 p0 c0 {1,S}
11 H u0 p0 c0 {2,S}
12 H u0 p0 c0 {2,S}
13 H u0 p0 c0 {2,S}
14 H u0 p0 c0 {4,S}
15 H u0 p0 c0 {6,S}
16 H u0 p0 c0 {5,S}
17 H u0 p0 c0 {7,S}
18 H u0 p0 c0 {8,S}


>  <multiplicity>  (1) 
1

>  <reaction>  (1) 
rxn_445

>  <type>  (1) 
r1h

>  <role_mapnums>  (1) 
{"r1h_a": 3, "r1h_h": 18}

>  <role_mapidx>  (1) 
{"r1h_a": 2, "r1h_h": 17}

>  <ordered_mapped_smiles>  (1) 
[C:1]([C:3]([CH:2]1[CH:4]([H:13])[CH:6]([H:14])[CH:7]([H:16])[CH:8]([H:17])[CH:5]1[H:15])([H:12])[H:18])([H:9])([H:10])[H:11]

>  <mol_properties>  (1) 
{"2": {"label": "donator", "atom_type": "Cs"}, "17": {"label": "d_hydrogen", "atom_type": "H0"}}

>  <level_of_theory>  (1) 
wb97xd/def2tzvp

>  <lot_method>  (1) 
wb97xd

>  <lot_basis>  (1) 
def2tzvp

>  <spin_multiplicity>  (1) 
1.0

>  <optical_isomers>  (1) 
1.0

>  <modes>  (1) 
IdealGasTranslation(mass=(106.078, 'amu')),         NonlinearRotor(             inertia = ([110.416, 341.874, 411.865

>  <frequency_value>  (1) 
unknown

>  <frequency_units>  (1) 
unknown

>  <frequency_list>  (1) 
unknown

>  <arkane_path>  (1) 
/home/calvin/Dropbox/PersonalFolders/Calvin/HAb_Converged/rxn_445/output/Species/rxn_445_CCc1ccccc1/arkane/output.py

>  <path_exists>  (1) 
True

>  <E0_value>  (1) 
-815817.9037561571

>  <E0_units>  (1) 
kJ/mol

>  <thermo_class>  (1) 
NASA

>  <Cp0_value>  (1) 
33.257888

>  <Cp0_units>  (1) 
J/(mol*K)

>  <CpInf_value>  (1) 
432.352544

>  <CpInf_units>  (1) 
J/(mol*K)

>  <Tmin_value>  (1) 
10.0

>  <Tmin_units>  (1) 
K

>  <Tmax_value>  (1) 
3000.0

>  <Tmax_units>  (1) 
K

>  <polynomials>  (1) 
[{"name": "polynomial1", "class": "NASAPolynomial", "Tmin_value": 10.0, "Tmin_units": "K", "Tmax_value": 423.64221286564066, "Tmax_units": "K", "coeffs": [3.9313576428136847, 0.00433548241275686, 0.00021072402908531117, -3.936647014575837e-07, 2.39299197946727e-10, -98120227.55481465, 12.959903756557797]}, {"name": "polynomial2", "class": "NASAPolynomial", "Tmin_value": 423.64221286564066, "Tmin_units": "K", "Tmax_value": 3000.0, "Tmax_units": "K", "coeffs": [-3.831744087351853, 0.07763434183173747, -4.880767835098557e-05, 1.474976136685413e-08, -1.7152455638411797e-12, -98119569.80107659, 43.744896821921714]}]

>  <H298_value>  (1) 
-194980.06834128423

>  <H298_units>  (1) 
kcal/mol

>  <S298_value>  (1) 
85.45971865285561

>  <S298_units>  (1) 
cal/(mol*K)

>  <Cp_T_value_list>  (1) 
[30.814700172190967, 40.3659544276965, 48.72635221695798, 55.92346742650604, 67.34270920138786, 75.5723408499977, 87.237384341353, 92.9225471908414, 96.08425401549664]

>  <Cp_T_units>  (1) 
cal/(mol*K)

>  <T_list>  (1) 
[300.0, 400.0, 500.0, 600.0, 800.0, 1000.0, 1500.0, 2000.0, 2400.0]

>  <T_units>  (1) 
K

>  <yaml_path>  (1) 
/home/calvin/Dropbox/PersonalFolders/Calvin/HAb_Converged/rxn_445/output/Species/rxn_445_CCc1ccccc1/rxn_445_CCc1ccccc1.yml

>  <frequencies_cm1>  (1) 
[34.3349266, 135.74656580575999, 222.50405833863996, 311.72679860139993, 360.38625657892, 413.90067317767995, 501.90109005348, 566.8971061072799, 633.36952400488, 715.5124024027199, 770.2697433443999, 787.05265546648, 789.67584385872, 862.2324107498398, 927.82585452648, 978.1333889808, 979.96687406124, 993.1308849196799, 1016.5747728021599, 1052.53030793768, 1054.54920162176, 1082.5459007714, 1116.4276063402797, 1174.3094256025597, 1199.89581290488, 1226.84186330056, 1261.7192817408397, 1329.56509670244, 1349.48622111576, 1353.9360276031198, 1398.4615604179999, 1477.6173002016399, 1482.14951051284, 1484.5254874335599, 1494.4826161475598, 1529.46990635296, 1639.9047642691999, 1662.1469297206797, 3013.28809429856, 3020.8349111652396, 3058.19131130604, 3090.8506934879597, 3092.1760216547195, 3142.7239005952397, 3143.62347567216, 3158.5385677872, 3168.2416180443593, 3180.7601322827195]

>  <ZPE_kJmol>  (1) 
409.36782000073936

>  <E_elec_kJmol>  (1) 
-816227.2715761579

>  <E0_minus_Eelec_plus_ZPE_kJmol>  (1) 
0.0

>  <rxn>  (1) 
rxn_445

>  <species_type>  (1) 
r1

>  <species_folder>  (1) 
rxn_445_CCc1ccccc1

>  <frequencies_cm1_list>  (1) 
[34.3349266, 135.74656580575999, 222.50405833863996, 311.72679860139993, 360.38625657892, 413.90067317767995, 501.90109005348, 566.8971061072799, 633.36952400488, 715.5124024027199, 770.2697433443999, 787.05265546648, 789.67584385872, 862.2324107498398, 927.82585452648, 978.1333889808, 979.96687406124, 993.1308849196799, 1016.5747728021599, 1052.53030793768, 1054.54920162176, 1082.5459007714, 1116.4276063402797, 1174.3094256025597, 1199.89581290488, 1226.84186330056, 1261.7192817408397, 1329.56509670244, 1349.48622111576, 1353.9360276031198, 1398.4615604179999, 1477.6173002016399, 1482.14951051284, 1484.5254874335599, 1494.4826161475598, 1529.46990635296, 1639.9047642691999, 1662.1469297206797, 3013.28809429856, 3020.8349111652396, 3058.19131130604, 3090.8506934879597, 3092.1760216547195, 3142.7239005952397, 3143.62347567216, 3158.5385677872, 3168.2416180443593, 3180.7601322827195]

>  <E0_kJmol>  (1) 
-815818

>  <H298_kJmol>  (1) 
-815797

$$$$

     RDKit          3D

  4  3  0  0  0  0  0  0  0  0999 V2000
    0.4671    0.4959   -0.1184 O   0  0  0  0  0  0  0  0  0  1  0  0
   -0.5271   -0.4264    0.1132 O   0  0  0  0  0  0  0  0  0  2  0  0
    1.1097    0.3224    0.5819 H   0  0  0  0  0  0  0  0  0  3  0  0
   -0.2384   -1.2070   -0.3652 H   0  0  0  0  0  0  0  0  0  4  0  0
  1  2  1  0
  1  3  1  0
  2  4  1  0
M  END
>  <rmg_smiles>  (2) 
OO

>  <rmg_adjacency_list>  (2) 
1 O u0 p2 c0 {2,S} {3,S}
2 O u0 p2 c0 {1,S} {4,S}
3 H u0 p0 c0 {1,S}
4 H u0 p0 c0 {2,S}


>  <multiplicity>  (2) 
1

>  <reaction>  (2) 
rxn_445

>  <type>  (2) 
r2h

>  <role_mapnums>  (2) 
{"r2h_a": 2, "r2h_h": 4}

>  <role_mapidx>  (2) 
{"r2h_a": 1, "r2h_h": 3}

>  <ordered_mapped_smiles>  (2) 
[O:1]([O:2][H:4])[H:3]

>  <mol_properties>  (2) 
{"1": {"label": "acceptor", "atom_type": "O2s"}, "3": {"label": "a_hydrogen", "atom_type": "H0"}}

>  <level_of_theory>  (2) 
wb97xd/def2tzvp

>  <lot_method>  (2) 
wb97xd

>  <lot_basis>  (2) 
def2tzvp

>  <spin_multiplicity>  (2) 
1.0

>  <optical_isomers>  (2) 
2.0

>  <modes>  (2) 
IdealGasTranslation(mass=(34.0055, 'amu')),         NonlinearRotor(             inertia = ([1.6422, 18.4839, 19.1306

>  <frequency_value>  (2) 
unknown

>  <frequency_units>  (2) 
unknown

>  <frequency_list>  (2) 
unknown

>  <arkane_path>  (2) 
/home/calvin/Dropbox/PersonalFolders/Calvin/HAb_Converged/rxn_445/output/Species/rxn_445_OO/arkane/output.py

>  <path_exists>  (2) 
True

>  <E0_value>  (2) 
-397869.6784032715

>  <E0_units>  (2) 
kJ/mol

>  <thermo_class>  (2) 
NASA

>  <Cp0_value>  (2) 
33.257888

>  <Cp0_units>  (2) 
J/(mol*K)

>  <CpInf_value>  (2) 
83.14472

>  <CpInf_units>  (2) 
J/(mol*K)

>  <Tmin_value>  (2) 
10.0

>  <Tmin_units>  (2) 
K

>  <Tmax_value>  (2) 
3000.0

>  <Tmax_units>  (2) 
K

>  <polynomials>  (2) 
[{"name": "polynomial1", "class": "NASAPolynomial", "Tmin_value": 10.0, "Tmin_units": "K", "Tmax_value": 455.78106288096404, "Tmax_units": "K", "coeffs": [3.993411036033662, 0.00039597769380578143, 1.891318343950514e-05, -3.2458663273975925e-08, 1.830389461818306e-11, -47852668.906908266, 4.504010200645888]}, {"name": "polynomial2", "class": "NASAPolynomial", "Tmin_value": 455.78106288096404, "Tmin_units": "K", "Tmax_value": 3000.0, "Tmax_units": "K", "coeffs": [3.1932894099772424, 0.0074090928900088, -4.13817425256861e-06, 1.2156565940750795e-09, -1.433593106081876e-13, -47852595.87875142, 7.736455149271243]}]

>  <H298_value>  (2) 
-95090.51348489316

>  <H298_units>  (2) 
kcal/mol

>  <S298_value>  (2) 
55.5670496873013

>  <S298_units>  (2) 
cal/(mol*K)

>  <Cp_T_value_list>  (2) 
[10.107465812395086, 11.06702468787646, 11.935737360557455, 12.7042208397447, 13.981643941817545, 14.976592388023054, 16.639120825815006, 17.666826111390996, 18.25874653130484]

>  <Cp_T_units>  (2) 
cal/(mol*K)

>  <T_list>  (2) 
[300.0, 400.0, 500.0, 600.0, 800.0, 1000.0, 1500.0, 2000.0, 2400.0]

>  <T_units>  (2) 
K

>  <yaml_path>  (2) 
/home/calvin/Dropbox/PersonalFolders/Calvin/HAb_Converged/rxn_445/output/Species/rxn_445_OO/rxn_445_OO.yml

>  <frequencies_cm1>  (2) 
[384.68165064108, 1007.86056843108, 1337.5514006295998, 1458.46527814416, 3787.7329647175193, 3788.3509933963196]

>  <ZPE_kJmol>  (2) 
70.36821125363778

>  <E_elec_kJmol>  (2) 
-397940.04661452514

>  <E0_minus_Eelec_plus_ZPE_kJmol>  (2) 
0.0

>  <rxn>  (2) 
rxn_445

>  <species_type>  (2) 
p0

>  <species_folder>  (2) 
rxn_445_OO

>  <frequencies_cm1_list>  (2) 
[384.68165064108, 1007.86056843108, 1337.5514006295998, 1458.46527814416, 3787.7329647175193, 3788.3509933963196]

>  <E0_kJmol>  (2) 
-397870

>  <H298_kJmol>  (2) 
-397859

$$$$

     RDKit          3D

 21 20  0  0  0  0  0  0  0  0999 V2000
   -1.2513    2.5927    0.3007 O   0  0  0  0  0  0  0  0  0  1  0  0
   -2.2456    1.6704    0.5323 O   0  0  0  0  0  0  0  0  0  2  0  0
   -2.1383   -1.5403   -0.1329 C   0  0  0  0  0  0  0  0  0  3  0  0
    0.0715   -0.2242   -0.3206 C   0  0  0  0  0  0  0  0  0  4  0  0
   -1.3483   -0.3697   -0.6593 C   0  0  0  0  0  0  0  0  0  5  0  0
    0.8791    0.6314   -1.0810 C   0  0  0  0  0  3  0  0  0  6  0  0
    0.6472   -0.8587    0.7861 C   0  0  0  0  0  0  0  0  0  7  0  0
    2.2081    0.8352   -0.7569 C   0  0  0  0  0  0  0  0  0  8  0  0
    2.7640    0.1926    0.3407 C   0  0  0  0  0  0  0  0  0  9  0  0
    1.9774   -0.6546    1.1090 C   0  0  0  0  0  0  0  0  0 10  0  0
   -2.1461   -1.5687    0.9578 H   0  0  0  0  0  0  0  0  0 11  0  0
   -1.7210   -2.4874   -0.4884 H   0  0  0  0  0  0  0  0  0 12  0  0
   -3.1735   -1.4817   -0.4676 H   0  0  0  0  0  0  0  0  0 13  0  0
   -1.5589   -0.1290   -1.7010 H   0  0  0  0  0  0  0  0  0 14  0  0
    0.4464    1.1417   -1.9329 H   0  0  0  0  0  0  0  0  0 15  0  0
    2.8135    1.4979   -1.3622 H   0  0  0  0  0  0  0  0  0 16  0  0
    0.0504   -1.5245    1.3958 H   0  0  0  0  0  0  0  0  0 17  0  0
    3.8045    0.3492    0.5949 H   0  0  0  0  0  0  0  0  0 18  0  0
    2.4050   -1.1614    1.9651 H   0  0  0  0  0  0  0  0  0 19  0  0
   -0.6088    2.4191    1.0010 H   0  0  0  0  0  0  0  0  0 20  0  0
   -1.8756    0.6701   -0.0807 H   0  0  0  0  0  0  0  0  0 21  0  0
  1 20  1  0
  1  2  1  0
  2 21  1  0
  3 13  1  0
  3  5  1  0
  3 12  1  0
  3 11  1  0
  4  6  1  0
  4  7  1  0
  4  5  1  0
  5 14  1  0
  6 15  1  0
  6  8  1  0
  7 17  1  0
  7 10  1  0
  8 16  1  0
  8  9  1  0
  9 18  1  0
  9 10  1  0
 10 19  1  0
M  RAD  1   6   2
M  END
>  <rmg_smiles>  (3) 
C[CH]C1[CH][CH][CH][CH][CH]1.OO

>  <rmg_adjacency_list>  (3) 
multiplicity 2
1  O u0 p2 c0 {2,S} {20,S}
2  O u0 p2 c0 {1,S} {21,S}
3  C u0 p0 c0 {5,S} {11,S} {12,S} {13,S}
4  C u0 p0 c0 {5,S} {6,S} {7,S}
5  C u0 p0 c0 {3,S} {4,S} {14,S}
6  C u1 p0 c0 {4,S} {8,S} {15,S}
7  C u0 p0 c0 {4,S} {10,S} {17,S}
8  C u0 p0 c0 {6,S} {9,S} {16,S}
9  C u0 p0 c0 {8,S} {10,S} {18,S}
10 C u0 p0 c0 {7,S} {9,S} {19,S}
11 H u0 p0 c0 {3,S}
12 H u0 p0 c0 {3,S}
13 H u0 p0 c0 {3,S}
14 H u0 p0 c0 {5,S}
15 H u0 p0 c0 {6,S}
16 H u0 p0 c0 {8,S}
17 H u0 p0 c0 {7,S}
18 H u0 p0 c0 {9,S}
19 H u0 p0 c0 {10,S}
20 H u0 p0 c0 {1,S}
21 H u0 p0 c0 {2,S}


>  <multiplicity>  (3) 
2

>  <reaction>  (3) 
rxn_445

>  <type>  (3) 
ts

>  <role_mapnums>  (3) 
{"*2": 21, "*1": 2, "*3": 5, "*0": 1, "*4": 4}

>  <role_mapidx>  (3) 
{"*2": 20, "*1": 1, "*3": 4, "*0": 0, "*4": 3}

>  <ordered_mapped_smiles>  (3) 
[O:1]([O:2][H:21])[H:20].[C:3]([CH:5]([CH:4]1[C:6]([H:15])[CH:8]([H:16])[CH:9]([H:18])[CH:10]([H:19])[CH:7]1[H:17])[H:14])([H:11])([H:12])[H:13]

>  <mol_properties>  (3) 
{"0": {"label": "*0", "atom_type": "O2s"}, "1": {"label": "*1", "atom_type": "O2s"}, "3": {"label": "*4", "atom_type": "Cs"}, "4": {"label": "*3", "atom_type": "Cs"}, "20": {"label": "*2", "atom_type": "H0"}}

>  <level_of_theory>  (3) 
wb97xd/def2tzvp

>  <lot_method>  (3) 
wb97xd

>  <lot_basis>  (3) 
def2tzvp

>  <spin_multiplicity>  (3) 
2.0

>  <optical_isomers>  (3) 
2.0

>  <modes>  (3) 
IdealGasTranslation(mass=(139.076, 'amu')),         NonlinearRotor(             inertia = ([289.014, 527.91, 669.234

>  <frequency_value>  (3) 
-1889.43

>  <frequency_units>  (3) 
cm^-1

>  <frequency_list>  (3) 
unknown

>  <arkane_path>  (3) 
/home/calvin/Dropbox/PersonalFolders/Calvin/HAb_Converged/rxn_445/output/rxns/TS0/arkane/output.py

>  <path_exists>  (3) 
True

>  <E0_value>  (3) 
-1211970.0

>  <E0_units>  (3) 
kJ/mol

>  <thermo_class>  (3) 
unknown

>  <Cp0_value>  (3) 
unknown

>  <Cp0_units>  (3) 
unknown

>  <CpInf_value>  (3) 
unknown

>  <CpInf_units>  (3) 
unknown

>  <Tmin_value>  (3) 
unknown

>  <Tmin_units>  (3) 
unknown

>  <Tmax_value>  (3) 
unknown

>  <Tmax_units>  (3) 
unknown

>  <polynomials>  (3) 
unknown

>  <H298_value>  (3) 
unknown

>  <H298_units>  (3) 
unknown

>  <S298_value>  (3) 
unknown

>  <S298_units>  (3) 
unknown

>  <Cp_T_value_list>  (3) 
unknown

>  <Cp_T_units>  (3) 
unknown

>  <T_list>  (3) 
unknown

>  <T_units>  (3) 
unknown

>  <yaml_path>  (3) 
unknown

>  <frequencies_cm1>  (3) 
unknown

>  <ZPE_kJmol>  (3) 
unknown

>  <E_elec_kJmol>  (3) 
unknown

>  <E0_minus_Eelec_plus_ZPE_kJmol>  (3) 
unknown

>  <rxn>  (3) 
unknown

>  <species_type>  (3) 
unknown

>  <species_folder>  (3) 
unknown

>  <frequencies_cm1_list>  (3) 
[]

>  <ts_imag_freq_cm1>  (3) 
-1912.3788

>  <ts_freq_out_path>  (3) 
/home/calvin/Dropbox/PersonalFolders/Calvin/HAb_Converged/rxn_445/output/rxns/TS0/geometry/freq.out

>  <E0_kJmol>  (3) 
-1.21197e+06

>  <H298_kJmol>  (3) 
unknown

$$$$

     RDKit          3D

 17 17  0  0  0  0  0  0  0  0999 V2000
    2.7069    0.2860   -0.1817 C   0  0  0  0  0  0  0  0  0  1  0  0
    1.6304   -0.7245    0.0085 C   0  0  0  0  0  0  0  0  0  2  0  0
    1.4786   -1.8800   -0.7837 C   0  0  0  0  0  0  0  0  0  3  0  0
    0.4231   -2.7891   -0.5312 C   0  0  0  0  0  3  0  0  0  4  0  0
    0.2582   -3.9235   -1.2940 C   0  0  0  0  0  0  0  0  0  5  0  0
    1.1348   -4.2030   -2.3401 C   0  0  0  0  0  0  0  0  0  6  0  0
    2.1804   -3.3260   -2.6093 C   0  0  0  0  0  0  0  0  0  7  0  0
    2.3549   -2.1866   -1.8513 C   0  0  0  0  0  0  0  0  0  8  0  0
    2.6698    0.7343   -1.1808 H   0  0  0  0  0  0  0  0  0  9  0  0
    3.7029   -0.1584   -0.0766 H   0  0  0  0  0  0  0  0  0 10  0  0
    2.6250    1.0917    0.5463 H   0  0  0  0  0  0  0  0  0 11  0  0
    0.9136   -0.5677    0.8059 H   0  0  0  0  0  0  0  0  0 12  0  0
   -0.2629   -2.5783    0.2811 H   0  0  0  0  0  0  0  0  0 13  0  0
   -0.5582   -4.6017   -1.0785 H   0  0  0  0  0  0  0  0  0 14  0  0
    1.0033   -5.0952   -2.9384 H   0  0  0  0  0  0  0  0  0 15  0  0
    2.8650   -3.5382   -3.4214 H   0  0  0  0  0  0  0  0  0 16  0  0
    3.1750   -1.5169   -2.0772 H   0  0  0  0  0  0  0  0  0 17  0  0
  1 10  1  0
  1 11  1  0
  1  9  1  0
  1  2  1  0
  2 12  1  0
  2  3  1  0
  3  4  1  0
  3  8  1  0
  4  5  1  0
  4 13  1  0
  5 14  1  0
  5  6  1  0
  6 15  1  0
  6  7  1  0
  7  8  1  0
  7 16  1  0
  8 17  1  0
M  RAD  1   4   2
M  END
>  <rmg_smiles>  (4) 
C[CH]C1[CH][CH][CH][CH][CH]1

>  <rmg_adjacency_list>  (4) 
multiplicity 2
1  C u0 p0 c0 {3,S} {9,S} {10,S} {11,S}
2  C u0 p0 c0 {3,S} {4,S} {5,S}
3  C u0 p0 c0 {1,S} {2,S} {12,S}
4  C u1 p0 c0 {2,S} {6,S} {13,S}
5  C u0 p0 c0 {2,S} {8,S} {17,S}
6  C u0 p0 c0 {4,S} {7,S} {14,S}
7  C u0 p0 c0 {6,S} {8,S} {15,S}
8  C u0 p0 c0 {5,S} {7,S} {16,S}
9  H u0 p0 c0 {1,S}
10 H u0 p0 c0 {1,S}
11 H u0 p0 c0 {1,S}
12 H u0 p0 c0 {3,S}
13 H u0 p0 c0 {4,S}
14 H u0 p0 c0 {6,S}
15 H u0 p0 c0 {7,S}
16 H u0 p0 c0 {8,S}
17 H u0 p0 c0 {5,S}


>  <multiplicity>  (4) 
2

>  <reaction>  (4) 
rxn_445

>  <type>  (4) 
r1

>  <role_mapnums>  (4) 
{}

>  <role_mapidx>  (4) 
{}

>  <ordered_mapped_smiles>  (4) 
[C:1]([CH:2]([CH:3]1[C:4]([H:13])[CH:5]([H:14])[CH:6]([H:15])[CH:7]([H:16])[CH:8]1[H:17])[H:12])([H:9])([H:10])[H:11]

>  <level_of_theory>  (4) 
wb97xd/def2tzvp

>  <lot_method>  (4) 
wb97xd

>  <lot_basis>  (4) 
def2tzvp

>  <spin_multiplicity>  (4) 
2.0

>  <optical_isomers>  (4) 
1.0

>  <modes>  (4) 
IdealGasTranslation(mass=(105.07, 'amu')),         NonlinearRotor(             inertia = ([100.906, 335.03, 432.828

>  <frequency_value>  (4) 
unknown

>  <frequency_units>  (4) 
unknown

>  <frequency_list>  (4) 
unknown

>  <arkane_path>  (4) 
/home/calvin/Dropbox/PersonalFolders/Calvin/HAb_Converged/rxn_445/output/Species/rxn_445_C[CH]c1ccccc1/arkane/output.py

>  <path_exists>  (4) 
True

>  <E0_value>  (4) 
-814145.4390471868

>  <E0_units>  (4) 
kJ/mol

>  <thermo_class>  (4) 
NASA

>  <Cp0_value>  (4) 
33.257888

>  <Cp0_units>  (4) 
J/(mol*K)

>  <CpInf_value>  (4) 
407.409128

>  <CpInf_units>  (4) 
J/(mol*K)

>  <Tmin_value>  (4) 
10.0

>  <Tmin_units>  (4) 
K

>  <Tmax_value>  (4) 
3000.0

>  <Tmax_units>  (4) 
K

>  <polynomials>  (4) 
[{"name": "polynomial1", "class": "NASAPolynomial", "Tmin_value": 10.0, "Tmin_units": "K", "Tmax_value": 500.0181965945725, "Tmax_units": "K", "coeffs": [3.899986948526094, 0.0061904905300886525, 0.00020706851194563026, -3.977105955988957e-07, 2.4150499526027994e-10, -97919075.07363199, 12.718849532292747]}, {"name": "polynomial2", "class": "NASAPolynomial", "Tmin_value": 500.0181965945725, "Tmin_units": "K", "Tmax_value": 3000.0, "Tmax_units": "K", "coeffs": [-1.970517894513406, 0.07180867834424715, -4.574442536416197e-05, 1.397905514411292e-08, -1.6399820111971568e-12, -97918721.21698426, 34.639664550558976]}]

>  <H298_value>  (4) 
-194580.26959244045

>  <H298_units>  (4) 
kcal/mol

>  <S298_value>  (4) 
85.3392210607043

>  <S298_units>  (4) 
cal/(mol*K)

>  <Cp_T_value_list>  (4) 
[31.02288591619177, 40.21349792515304, 47.9763276039249, 54.55603245481067, 64.9529019753296, 72.39951333986244, 82.85547162555633, 87.95746847782826, 90.85152645234143]

>  <Cp_T_units>  (4) 
cal/(mol*K)

>  <T_list>  (4) 
[300.0, 400.0, 500.0, 600.0, 800.0, 1000.0, 1500.0, 2000.0, 2400.0]

>  <T_units>  (4) 
K

>  <yaml_path>  (4) 
/home/calvin/Dropbox/PersonalFolders/Calvin/HAb_Converged/rxn_445/output/Species/rxn_445_C[CH]c1ccccc1/rxn_445_CCHc1ccccc1.yml

>  <frequencies_cm1>  (4) 
[105.45629355923998, 120.83147369072, 216.25510169744, 238.46979920763997, 411.38735655056, 430.68358529975995, 477.9078433454, 558.86273328288, 625.17721051812, 625.35575213644, 690.24189642512, 769.39763620876, 797.72395065376, 833.5833479948, 901.31929119128, 970.7101778498799, 980.6055036959999, 988.6055415938, 1000.11460899012, 1025.94134077864, 1044.8942202618398, 1074.80680831576, 1128.88431771076, 1167.6621838128, 1182.4262022508, 1237.72603503276, 1316.38048488804, 1342.4681621187199, 1389.5344795019998, 1422.2556645518, 1466.88420214648, 1475.4885347524398, 1484.7520979491198, 1503.6912434616797, 1594.2805138031197, 1610.7269436445201, 2982.0364441072397, 3025.80660853692, 3101.1374374973198, 3147.482721422, 3152.804635045, 3154.61751916948, 3165.4673559750795, 3173.5635316673593, 3183.0811733208798]

>  <ZPE_kJmol>  (4) 
372.6218456560276

>  <E_elec_kJmol>  (4) 
-814518.0608928428

>  <E0_minus_Eelec_plus_ZPE_kJmol>  (4) 
0.0

>  <rxn>  (4) 
rxn_445

>  <species_type>  (4) 
p1

>  <species_folder>  (4) 
rxn_445_C[CH]c1ccccc1

>  <frequencies_cm1_list>  (4) 
[105.45629355923998, 120.83147369072, 216.25510169744, 238.46979920763997, 411.38735655056, 430.68358529975995, 477.9078433454, 558.86273328288, 625.17721051812, 625.35575213644, 690.24189642512, 769.39763620876, 797.72395065376, 833.5833479948, 901.31929119128, 970.7101778498799, 980.6055036959999, 988.6055415938, 1000.11460899012, 1025.94134077864, 1044.8942202618398, 1074.80680831576, 1128.88431771076, 1167.6621838128, 1182.4262022508, 1237.72603503276, 1316.38048488804, 1342.4681621187199, 1389.5344795019998, 1422.2556645518, 1466.88420214648, 1475.4885347524398, 1484.7520979491198, 1503.6912434616797, 1594.2805138031197, 1610.7269436445201, 2982.0364441072397, 3025.80660853692, 3101.1374374973198, 3147.482721422, 3152.804635045, 3154.61751916948, 3165.4673559750795, 3173.5635316673593, 3183.0811733208798]

>  <E0_kJmol>  (4) 
-814145

>  <H298_kJmol>  (4) 
-814124

$$$$

     RDKit          3D

  3  2  0  0  0  0  0  0  0  0999 V2000
    0.9943   -0.1797    0.0000 O   0  0  0  0  0  1  0  0  0  1  0  0
   -0.1595    0.4394    0.0000 O   0  0  0  0  0  0  0  0  0  2  0  0
   -0.8348   -0.2597    0.0000 H   0  0  0  0  0  0  0  0  0  3  0  0
  1  2  1  0
  2  3  1  0
M  RAD  1   1   2
M  END
>  <rmg_smiles>  (5) 
[O]O

>  <rmg_adjacency_list>  (5) 
multiplicity 2
1 O u1 p2 c0 {2,S}
2 O u0 p2 c0 {1,S} {3,S}
3 H u0 p0 c0 {2,S}


>  <multiplicity>  (5) 
2

>  <reaction>  (5) 
rxn_445

>  <type>  (5) 
r2

>  <role_mapnums>  (5) 
{}

>  <role_mapidx>  (5) 
{}

>  <ordered_mapped_smiles>  (5) 
[O:1][O:2][H:3]

>  <level_of_theory>  (5) 
wb97xd/def2tzvp

>  <lot_method>  (5) 
wb97xd

>  <lot_basis>  (5) 
def2tzvp

>  <spin_multiplicity>  (5) 
2.0

>  <optical_isomers>  (5) 
1.0

>  <modes>  (5) 
IdealGasTranslation(mass=(32.9977, 'amu')),         NonlinearRotor(             inertia = ([0.803517, 14.5889, 15.3924

>  <frequency_value>  (5) 
unknown

>  <frequency_units>  (5) 
unknown

>  <frequency_list>  (5) 
unknown

>  <arkane_path>  (5) 
/home/calvin/Dropbox/PersonalFolders/Calvin/HAb_Converged/rxn_445/output/Species/rxn_445_[O]O/arkane/output.py

>  <path_exists>  (5) 
True

>  <E0_value>  (5) 
-396214.7927695905

>  <E0_units>  (5) 
kJ/mol

>  <thermo_class>  (5) 
NASA

>  <Cp0_value>  (5) 
33.257888

>  <Cp0_units>  (5) 
J/(mol*K)

>  <CpInf_value>  (5) 
58.201304

>  <CpInf_units>  (5) 
J/(mol*K)

>  <Tmin_value>  (5) 
10.0

>  <Tmin_units>  (5) 
K

>  <Tmax_value>  (5) 
3000.0

>  <Tmax_units>  (5) 
K

>  <polynomials>  (5) 
[{"name": "polynomial1", "class": "NASAPolynomial", "Tmin_value": 10.0, "Tmin_units": "K", "Tmax_value": 938.1901641883775, "Tmax_units": "K", "coeffs": [4.028900763568748, -0.0017001850192041605, 1.0116513729421136e-05, -1.0102502975955476e-08, 3.2943616799556636e-12, -47653633.38795187, 4.661311963627797]}, {"name": "polynomial2", "class": "NASAPolynomial", "Tmin_value": 938.1901641883775, "Tmin_units": "K", "Tmax_value": 3000.0, "Tmax_units": "K", "coeffs": [3.0224709900106443, 0.00428209217697721, -2.152234978217665e-06, 5.370565329041951e-10, -5.2799153043016775e-14, -47653518.97920004, 9.055842364041489]}]

>  <H298_value>  (5) 
-94695.23338060976

>  <H298_units>  (5) 
kcal/mol

>  <S298_value>  (5) 
54.59701487407024

>  <S298_units>  (5) 
cal/(mol*K)

>  <Cp_T_value_list>  (5) 
[8.312978103030632, 8.754130351990018, 9.242540000567846, 9.728455522252242, 10.572357002256187, 11.201059485179156, 12.218042363471625, 12.776508208459937, 13.066159106759592]

>  <Cp_T_units>  (5) 
cal/(mol*K)

>  <T_list>  (5) 
[300.0, 400.0, 500.0, 600.0, 800.0, 1000.0, 1500.0, 2000.0, 2400.0]

>  <T_units>  (5) 
K

>  <yaml_path>  (5) 
/home/calvin/Dropbox/PersonalFolders/Calvin/HAb_Converged/rxn_445/output/Species/rxn_445_[O]O/rxn_445_OO.yml

>  <frequencies_cm1>  (5) 
[1229.25217514788, 1446.77766912952, 3624.6283293968795]

>  <ZPE_kJmol>  (5) 
37.68631575394318

>  <E_elec_kJmol>  (5) 
-396252.4790853445

>  <E0_minus_Eelec_plus_ZPE_kJmol>  (5) 
0.0

>  <rxn>  (5) 
rxn_445

>  <species_type>  (5) 
r0

>  <species_folder>  (5) 
rxn_445_[O]O

>  <frequencies_cm1_list>  (5) 
[1229.25217514788, 1446.77766912952, 3624.6283293968795]

>  <E0_kJmol>  (5) 
-396215

>  <H298_kJmol>  (5) 
-396205

$$$$
