
     RDKit          3D

  7  6  0  0  0  0  0  0  0  0999 V2000
    0.6210   -0.9340    0.7518 C   0  0  0  0  0  2  0  0  0  1  0  0
    0.0560   -0.1311    0.0530 C   0  0  0  0  0  2  0  0  0  2  0  0
   -0.5855    0.8686   -0.7126 C   0  0  0  0  0  0  0  0  0  3  0  0
    1.1117   -1.6635    1.3496 H   0  0  0  0  0  0  0  0  0  4  0  0
   -0.4428    1.8088   -0.1872 H   0  0  0  0  0  0  0  0  0  5  0  0
   -1.6704    0.8218   -0.7425 H   0  0  0  0  0  0  0  0  0  6  0  0
   -0.1309    1.0939   -1.6733 H   0  0  0  0  0  0  0  0  0  7  0  0
  1  4  1  0
  1  2  1  0
  2  3  1  0
  3  6  1  0
  3  7  1  0
  3  5  1  0
M  RAD  2   1   3   2   3
M  END
>  <rmg_smiles>  (1) 
[CH][C]C

>  <rmg_adjacency_list>  (1) 
1 C u0 p0 c0 {2,S} {4,S} {5,S} {6,S}
2 C u0 p1 c0 {1,S} {3,S}
3 C u0 p1 c0 {2,S} {7,S}
4 H u0 p0 c0 {1,S}
5 H u0 p0 c0 {1,S}
6 H u0 p0 c0 {1,S}
7 H u0 p0 c0 {3,S}


>  <multiplicity>  (1) 
1

>  <reaction>  (1) 
rxn_1220

>  <type>  (1) 
r1h

>  <role_mapnums>  (1) 
{"r1h_a": 3, "r1h_h": 5}

>  <role_mapidx>  (1) 
{"r1h_a": 2, "r1h_h": 4}

>  <ordered_mapped_smiles>  (1) 
[C:1]([C:2][C:3]([H:5])([H:6])[H:7])[H:4]

>  <mol_properties>  (1) 
{"2": {"label": "donator", "atom_type": "Cs"}, "4": {"label": "d_hydrogen", "atom_type": "H0"}}

>  <level_of_theory>  (1) 
wb97xd/def2tzvp

>  <lot_method>  (1) 
wb97xd

>  <lot_basis>  (1) 
def2tzvp

>  <spin_multiplicity>  (1) 
1.0

>  <optical_isomers>  (1) 
1.0

>  <modes>  (1) 
IdealGasTranslation(mass=(40.0313, 'amu')),         NonlinearRotor(             inertia = ([3.14896, 58.5627, 58.5628

>  <frequency_value>  (1) 
unknown

>  <frequency_units>  (1) 
unknown

>  <frequency_list>  (1) 
unknown

>  <arkane_path>  (1) 
/home/calvin/Dropbox/PersonalFolders/Calvin/HAb_Converged/rxn_1220/output/Species/rxn_1220_CtCC/arkane/output.py

>  <path_exists>  (1) 
True

>  <E0_value>  (1) 
-306134.23771519226

>  <E0_units>  (1) 
kJ/mol

>  <thermo_class>  (1) 
NASA

>  <Cp0_value>  (1) 
33.257888

>  <Cp0_units>  (1) 
J/(mol*K)

>  <CpInf_value>  (1) 
157.97496800000002

>  <CpInf_units>  (1) 
J/(mol*K)

>  <Tmin_value>  (1) 
10.0

>  <Tmin_units>  (1) 
K

>  <Tmax_value>  (1) 
3000.0

>  <Tmax_units>  (1) 
K

>  <polynomials>  (1) 
[{"name": "polynomial1", "class": "NASAPolynomial", "Tmin_value": 10.0, "Tmin_units": "K", "Tmax_value": 432.7570457536586, "Tmax_units": "K", "coeffs": [3.9797872721783007, 0.0012495811779551272, 5.6294196303513694e-05, -1.0182025216581548e-07, 6.043505350989284e-11, -36819443.321551986, 4.877022759632036]}, {"name": "polynomial2", "class": "NASAPolynomial", "Tmin_value": 432.7570457536586, "Tmin_units": "K", "Tmax_value": 3000.0, "Tmax_units": "K", "coeffs": [1.8482488679261548, 0.020955787311649748, -1.2025217015703147e-05, 3.449280939574018e-09, -3.914023780269935e-13, -36819258.87384146, 13.374670545299223]}]

>  <H298_value>  (1) 
-73164.72574977479

>  <H298_units>  (1) 
kcal/mol

>  <S298_value>  (1) 
58.90709306772092

>  <S298_units>  (1) 
cal/(mol*K)

>  <Cp_T_value_list>  (1) 
[14.231411982223385, 16.92569828262598, 19.32863505161705, 21.43592113918368, 24.884700514699873, 27.496375671717598, 31.566855118352027, 33.76415845868588, 34.923080757091356]

>  <Cp_T_units>  (1) 
cal/(mol*K)

>  <T_list>  (1) 
[300.0, 400.0, 500.0, 600.0, 800.0, 1000.0, 1500.0, 2000.0, 2400.0]

>  <T_units>  (1) 
K

>  <yaml_path>  (1) 
/home/calvin/Dropbox/PersonalFolders/Calvin/HAb_Converged/rxn_1220/output/Species/rxn_1220_CtCC/rxn_1220_CtCC.yml

>  <frequencies_cm1>  (1) 
[351.89179573808, 352.26261294536, 684.0272747105199, 684.34315603524, 939.24565111364, 1048.18350623012, 1048.35518086312, 1402.57488462468, 1465.46960317056, 1465.7648835393202, 2230.0054137727598, 3022.8812727906, 3095.33483490192, 3095.7125190945194, 3438.9862482559997]

>  <ZPE_kJmol>  (1) 
145.49608455161717

>  <E_elec_kJmol>  (1) 
-306279.7337997439

>  <E0_minus_Eelec_plus_ZPE_kJmol>  (1) 
0.0

>  <rxn>  (1) 
rxn_1220

>  <species_type>  (1) 
r0

>  <species_folder>  (1) 
rxn_1220_CtCC

>  <frequencies_cm1_list>  (1) 
[351.89179573808, 352.26261294536, 684.0272747105199, 684.34315603524, 939.24565111364, 1048.18350623012, 1048.35518086312, 1402.57488462468, 1465.46960317056, 1465.7648835393202, 2230.0054137727598, 3022.8812727906, 3095.33483490192, 3095.7125190945194, 3438.9862482559997]

>  <E0_kJmol>  (1) 
-306134

>  <H298_kJmol>  (1) 
-306121

$$$$

     RDKit          3D

 15 14  0  0  0  0  0  0  0  0999 V2000
    0.1050   -1.3271   -0.6894 H   0  0  0  0  0  0  0  0  0  1  0  0
   -1.5044    1.2363   -0.5102 C   0  0  0  0  0  0  0  0  0  2  0  0
   -0.3405    0.6518   -0.7900 C   0  0  0  0  0  0  0  0  0  3  0  0
    0.2864   -0.4580   -0.0569 C   0  0  0  0  0  0  0  0  0  4  0  0
   -0.3517   -0.8738    1.2470 C   0  0  0  0  0  0  0  0  0  5  0  0
    1.7993   -0.4162   -0.0159 C   0  0  0  0  0  0  0  0  0  6  0  0
   -1.8906    2.0331   -1.1326 H   0  0  0  0  0  0  0  0  0  7  0  0
   -2.1023    0.9529    0.3473 H   0  0  0  0  0  0  0  0  0  8  0  0
    0.2111    0.9978   -1.6614 H   0  0  0  0  0  0  0  0  0  9  0  0
    0.1186   -1.7839    1.6226 H   0  0  0  0  0  0  0  0  0 10  0  0
   -0.2350   -0.0922    2.0042 H   0  0  0  0  0  0  0  0  0 11  0  0
   -1.4182   -1.0729    1.1307 H   0  0  0  0  0  0  0  0  0 12  0  0
    2.1463    0.3350    0.7005 H   0  0  0  0  0  0  0  0  0 13  0  0
    2.2173   -0.1649   -0.9926 H   0  0  0  0  0  0  0  0  0 14  0  0
    2.2024   -1.3839    0.2896 H   0  0  0  0  0  0  0  0  0 15  0  0
  1  4  1  0
  2  7  1  0
  2  8  1  0
  2  3  1  0
  3  4  1  0
  3  9  1  0
  4  5  1  0
  4  6  1  0
  5 11  1  0
  5 12  1  0
  5 10  1  0
  6 15  1  0
  6 14  1  0
  6 13  1  0
M  END
>  <rmg_smiles>  (2) 
[CH2][CH]C(C)C

>  <rmg_adjacency_list>  (2) 
1  C u0 p0 c0 {2,S} {3,S} {4,S} {6,S}
2  C u0 p0 c0 {1,S} {7,S} {8,S} {9,S}
3  C u0 p0 c0 {1,S} {10,S} {11,S} {12,S}
4  C u0 p0 c0 {1,S} {5,S} {13,S}
5  C u0 p0 c0 {4,S} {14,S} {15,S}
6  H u0 p0 c0 {1,S}
7  H u0 p0 c0 {2,S}
8  H u0 p0 c0 {2,S}
9  H u0 p0 c0 {2,S}
10 H u0 p0 c0 {3,S}
11 H u0 p0 c0 {3,S}
12 H u0 p0 c0 {3,S}
13 H u0 p0 c0 {4,S}
14 H u0 p0 c0 {5,S}
15 H u0 p0 c0 {5,S}


>  <multiplicity>  (2) 
1

>  <reaction>  (2) 
rxn_1220

>  <type>  (2) 
r2h

>  <role_mapnums>  (2) 
{"r2h_a": 4, "r2h_h": 1}

>  <role_mapidx>  (2) 
{"r2h_a": 3, "r2h_h": 0}

>  <ordered_mapped_smiles>  (2) 
[H:1][C:4]([CH:3]([CH:2]([H:7])[H:8])[H:9])([C:5]([H:10])([H:11])[H:12])[C:6]([H:13])([H:14])[H:15]

>  <mol_properties>  (2) 
{"0": {"label": "a_hydrogen", "atom_type": "H0"}, "3": {"label": "acceptor", "atom_type": "Cs"}}

>  <level_of_theory>  (2) 
wb97xd/def2tzvp

>  <lot_method>  (2) 
wb97xd

>  <lot_basis>  (2) 
def2tzvp

>  <spin_multiplicity>  (2) 
1.0

>  <optical_isomers>  (2) 
1.0

>  <modes>  (2) 
IdealGasTranslation(mass=(70.0782, 'amu')),         NonlinearRotor(             inertia = ([66.6608, 141.472, 183.078

>  <frequency_value>  (2) 
unknown

>  <frequency_units>  (2) 
unknown

>  <frequency_list>  (2) 
unknown

>  <arkane_path>  (2) 
/home/calvin/Dropbox/PersonalFolders/Calvin/HAb_Converged/rxn_1220/output/Species/rxn_1220_C=CC[C]C/arkane/output.py

>  <path_exists>  (2) 
True

>  <E0_value>  (2) 
-515673.38052477705

>  <E0_units>  (2) 
kJ/mol

>  <thermo_class>  (2) 
NASA

>  <Cp0_value>  (2) 
33.257888

>  <Cp0_units>  (2) 
J/(mol*K)

>  <CpInf_value>  (2) 
357.522296

>  <CpInf_units>  (2) 
J/(mol*K)

>  <Tmin_value>  (2) 
10.0

>  <Tmin_units>  (2) 
K

>  <Tmax_value>  (2) 
3000.0

>  <Tmax_units>  (2) 
K

>  <polynomials>  (2) 
[{"name": "polynomial1", "class": "NASAPolynomial", "Tmin_value": 10.0, "Tmin_units": "K", "Tmax_value": 771.9142943776243, "Tmax_units": "K", "coeffs": [3.779458831960257, 0.020018734993344757, 5.732000924414448e-05, -8.642208919280512e-08, 3.603052216308801e-11, -62021180.35978402, 9.742915927956899]}, {"name": "polynomial2", "class": "NASAPolynomial", "Tmin_value": 771.9142943776243, "Tmin_units": "K", "Tmax_value": 3000.0, "Tmax_units": "K", "coeffs": [-0.3478948834965036, 0.05301654054790977, -2.9363158728726394e-05, 7.927167712612882e-09, -8.370007264752279e-13, -62020889.064341925, 26.345999473910833]}]

>  <H298_value>  (2) 
-123244.18843001623

>  <H298_units>  (2) 
kcal/mol

>  <S298_value>  (2) 
77.68833091262955

>  <S298_units>  (2) 
cal/(mol*K)

>  <Cp_T_value_list>  (2) 
[25.639596007404617, 32.489876341134234, 38.88560738045824, 44.569638849609326, 53.63229961607037, 60.40244107425912, 70.79757735881338, 76.02631058064169, 78.64468950836424]

>  <Cp_T_units>  (2) 
cal/(mol*K)

>  <T_list>  (2) 
[300.0, 400.0, 500.0, 600.0, 800.0, 1000.0, 1500.0, 2000.0, 2400.0]

>  <T_units>  (2) 
K

>  <yaml_path>  (2) 
/home/calvin/Dropbox/PersonalFolders/Calvin/HAb_Converged/rxn_1220/output/Species/rxn_1220_C=CC[C]C/rxn_1220_C=CCCC.yml

>  <frequencies_cm1>  (2) 
[94.05023094271999, 222.95727936976, 245.1857108506, 315.11222236416, 324.16290901592, 348.98019396239994, 507.51141705991995, 698.37927402932, 806.58236171656, 930.133161594, 937.87912103496, 953.39850785816, 966.50071584872, 1002.9300729713199, 1033.8109059553599, 1124.0362260748398, 1181.8493754839199, 1216.6581240709997, 1311.4499894282799, 1330.73248420684, 1336.23980643348, 1388.2022843499199, 1406.6264059634798, 1448.4326125916398, 1473.6344487160397, 1475.715145268, 1487.5263600183998, 1497.1744743929999, 1715.9428927175597, 3004.91037220816, 3007.1696103784398, 3014.14646746356, 3074.26005695484, 3079.52703469528, 3091.4275202548397, 3093.20606945272, 3095.44470666704, 3114.5280588713204, 3199.45893330908]

>  <ZPE_kJmol>  (2) 
356.22333310819664

>  <E_elec_kJmol>  (2) 
-516029.6038578852

>  <E0_minus_Eelec_plus_ZPE_kJmol>  (2) 
0.0

>  <rxn>  (2) 
rxn_1220

>  <species_type>  (2) 
p0

>  <species_folder>  (2) 
rxn_1220_C=CC[C]C

>  <frequencies_cm1_list>  (2) 
[94.05023094271999, 222.95727936976, 245.1857108506, 315.11222236416, 324.16290901592, 348.98019396239994, 507.51141705991995, 698.37927402932, 806.58236171656, 930.133161594, 937.87912103496, 953.39850785816, 966.50071584872, 1002.9300729713199, 1033.8109059553599, 1124.0362260748398, 1181.8493754839199, 1216.6581240709997, 1311.4499894282799, 1330.73248420684, 1336.23980643348, 1388.2022843499199, 1406.6264059634798, 1448.4326125916398, 1473.6344487160397, 1475.715145268, 1487.5263600183998, 1497.1744743929999, 1715.9428927175597, 3004.91037220816, 3007.1696103784398, 3014.14646746356, 3074.26005695484, 3079.52703469528, 3091.4275202548397, 3093.20606945272, 3095.44470666704, 3114.5280588713204, 3199.45893330908]

>  <E0_kJmol>  (2) 
-515673

>  <H298_kJmol>  (2) 
-515654

$$$$

     RDKit          3D

 21 19  0  0  0  0  0  0  0  0999 V2000
    0.9412   -3.2819    0.4706 C   0  0  0  0  0  0  0  0  0  1  0  0
    0.3763   -2.4790   -0.2283 C   0  0  0  0  0  0  0  0  0  2  0  0
   -0.2652   -1.4792   -0.9939 C   0  0  0  0  0  3  0  0  0  3  0  0
    1.4319   -4.0114    1.0684 H   0  0  0  0  0  0  0  0  0  4  0  0
   -0.0801   -0.2598   -0.3124 H   0  0  0  0  0  0  0  0  0  5  0  0
   -1.3502   -1.5260   -1.0237 H   0  0  0  0  0  0  0  0  0  6  0  0
    0.1894   -1.2540   -1.9545 H   0  0  0  0  0  0  0  0  0  7  0  0
   -1.6557    2.4657   -0.0152 C   0  0  0  0  0  0  0  0  0  8  0  0
   -0.4918    1.8813   -0.2950 C   0  0  0  0  0  0  0  0  0  9  0  0
    0.1351    0.7714    0.4381 C   0  0  0  0  0  0  0  0  0 10  0  0
   -0.5030    0.3556    1.7420 C   0  0  0  0  0  0  0  0  0 11  0  0
    1.6479    0.8132    0.4791 C   0  0  0  0  0  0  0  0  0 12  0  0
   -2.0419    3.2626   -0.6376 H   0  0  0  0  0  0  0  0  0 13  0  0
   -2.2537    2.1823    0.8423 H   0  0  0  0  0  0  0  0  0 14  0  0
    0.0598    2.2273   -1.1664 H   0  0  0  0  0  0  0  0  0 15  0  0
   -0.0327   -0.5544    2.1176 H   0  0  0  0  0  0  0  0  0 16  0  0
   -0.3864    1.1372    2.4992 H   0  0  0  0  0  0  0  0  0 17  0  0
   -1.5695    0.1565    1.6256 H   0  0  0  0  0  0  0  0  0 18  0  0
    1.9950    1.5645    1.1955 H   0  0  0  0  0  0  0  0  0 19  0  0
    2.0659    1.0646   -0.4976 H   0  0  0  0  0  0  0  0  0 20  0  0
    2.0511   -0.1544    0.7846 H   0  0  0  0  0  0  0  0  0 21  0  0
  1  4  1  0
  1  2  1  0
  2  3  1  0
  3  6  1  0
  3  7  1  0
  5 10  1  0
  8  9  1  0
  8 13  1  0
  8 14  1  0
  9 15  1  0
  9 10  1  0
 10 11  1  0
 10 12  1  0
 11 17  1  0
 11 16  1  0
 11 18  1  0
 12 19  1  0
 12 20  1  0
 12 21  1  0
M  RAD  1   3   2
M  END
>  <rmg_smiles>  (3) 
[CH2][CH]C(C)C.[CH]C[CH2]

>  <rmg_adjacency_list>  (3) 
multiplicity 2
1  C u0 p0 c0 {2,S} {3,S} {4,S} {9,S}
2  C u0 p0 c0 {1,S} {10,S} {11,S} {12,S}
3  C u0 p0 c0 {1,S} {13,S} {14,S} {15,S}
4  C u0 p0 c0 {1,S} {5,S} {16,S}
5  C u0 p0 c0 {4,S} {17,S} {18,S}
6  C u1 p0 c0 {7,S} {19,S} {20,S}
7  C u0 p1 c0 {6,S} {8,S}
8  C u0 p1 c0 {7,S} {21,S}
9  H u0 p0 c0 {1,S}
10 H u0 p0 c0 {2,S}
11 H u0 p0 c0 {2,S}
12 H u0 p0 c0 {2,S}
13 H u0 p0 c0 {3,S}
14 H u0 p0 c0 {3,S}
15 H u0 p0 c0 {3,S}
16 H u0 p0 c0 {4,S}
17 H u0 p0 c0 {5,S}
18 H u0 p0 c0 {5,S}
19 H u0 p0 c0 {6,S}
20 H u0 p0 c0 {6,S}
21 H u0 p0 c0 {8,S}


>  <multiplicity>  (3) 
2

>  <reaction>  (3) 
rxn_1220

>  <type>  (3) 
ts

>  <role_mapnums>  (3) 
{"*2": 5, "*1": 3, "*3": 10, "*0": 9, "*4": 2}

>  <role_mapidx>  (3) 
{"*2": 4, "*1": 2, "*3": 9, "*0": 8, "*4": 1}

>  <ordered_mapped_smiles>  (3) 
[CH2:1]([CH2:2][C:3]([H:6])[H:7])[H:4].[H:5][C:10]([CH:9]([CH:8]([H:13])[H:14])[H:15])([C:11]([H:16])([H:17])[H:18])[C:12]([H:19])([H:20])[H:21]

>  <mol_properties>  (3) 
{"1": {"label": "*4", "atom_type": "C2s"}, "2": {"label": "*1", "atom_type": "Cs"}, "4": {"label": "*2", "atom_type": "H0"}, "8": {"label": "*0", "atom_type": "Cs"}, "9": {"label": "*3", "atom_type": "Cs"}}

>  <level_of_theory>  (3) 
wb97xd/def2tzvp

>  <lot_method>  (3) 
wb97xd

>  <lot_basis>  (3) 
def2tzvp

>  <spin_multiplicity>  (3) 
2.0

>  <optical_isomers>  (3) 
2.0

>  <modes>  (3) 
IdealGasTranslation(mass=(109.102, 'amu')),         NonlinearRotor(             inertia = ([159.188, 502.58, 532.068

>  <frequency_value>  (3) 
-1677.95

>  <frequency_units>  (3) 
cm^-1

>  <frequency_list>  (3) 
unknown

>  <arkane_path>  (3) 
/home/calvin/Dropbox/PersonalFolders/Calvin/HAb_Converged/rxn_1220/output/rxns/TS0/arkane/output.py

>  <path_exists>  (3) 
True

>  <E0_value>  (3) 
-820068.0

>  <E0_units>  (3) 
kJ/mol

>  <thermo_class>  (3) 
unknown

>  <Cp0_value>  (3) 
unknown

>  <Cp0_units>  (3) 
unknown

>  <CpInf_value>  (3) 
unknown

>  <CpInf_units>  (3) 
unknown

>  <Tmin_value>  (3) 
unknown

>  <Tmin_units>  (3) 
unknown

>  <Tmax_value>  (3) 
unknown

>  <Tmax_units>  (3) 
unknown

>  <polynomials>  (3) 
unknown

>  <H298_value>  (3) 
unknown

>  <H298_units>  (3) 
unknown

>  <S298_value>  (3) 
unknown

>  <S298_units>  (3) 
unknown

>  <Cp_T_value_list>  (3) 
unknown

>  <Cp_T_units>  (3) 
unknown

>  <T_list>  (3) 
unknown

>  <T_units>  (3) 
unknown

>  <yaml_path>  (3) 
unknown

>  <frequencies_cm1>  (3) 
unknown

>  <ZPE_kJmol>  (3) 
unknown

>  <E_elec_kJmol>  (3) 
unknown

>  <E0_minus_Eelec_plus_ZPE_kJmol>  (3) 
unknown

>  <rxn>  (3) 
unknown

>  <species_type>  (3) 
unknown

>  <species_folder>  (3) 
unknown

>  <frequencies_cm1_list>  (3) 
[]

>  <ts_imag_freq_cm1>  (3) 
-1698.3339

>  <ts_freq_out_path>  (3) 
/home/calvin/Dropbox/PersonalFolders/Calvin/HAb_Converged/rxn_1220/output/rxns/TS0/geometry/freq.out

>  <E0_kJmol>  (3) 
-820068

>  <H298_kJmol>  (3) 
unknown

$$$$

     RDKit          3D

  6  5  0  0  0  0  0  0  0  0999 V2000
    1.4968   -0.0097    0.1113 C   0  0  0  0  0  0  0  0  0  1  0  0
    0.2829   -0.0018    0.0210 C   0  0  0  0  0  0  0  0  0  2  0  0
   -1.0795    0.0070   -0.0803 C   0  0  0  0  0  3  0  0  0  3  0  0
    2.5571   -0.0165    0.1902 H   0  0  0  0  0  0  0  0  0  4  0  0
   -1.6181    0.9389   -0.1832 H   0  0  0  0  0  0  0  0  0  5  0  0
   -1.6393   -0.9179   -0.0591 H   0  0  0  0  0  0  0  0  0  6  0  0
  1  4  1  0
  1  2  1  0
  2  3  1  0
  3  6  1  0
  3  5  1  0
M  RAD  1   3   2
M  END
>  <rmg_smiles>  (4) 
[CH]C[CH2]

>  <rmg_adjacency_list>  (4) 
multiplicity 2
1 C u1 p0 c0 {2,S} {4,S} {5,S}
2 C u0 p1 c0 {1,S} {3,S}
3 C u0 p1 c0 {2,S} {6,S}
4 H u0 p0 c0 {1,S}
5 H u0 p0 c0 {1,S}
6 H u0 p0 c0 {3,S}


>  <multiplicity>  (4) 
2

>  <reaction>  (4) 
rxn_1220

>  <type>  (4) 
r1

>  <role_mapnums>  (4) 
{}

>  <role_mapidx>  (4) 
{}

>  <ordered_mapped_smiles>  (4) 
[CH2:1]([CH2:2][C:3]([H:5])[H:6])[H:4]

>  <level_of_theory>  (4) 
wb97xd/def2tzvp

>  <lot_method>  (4) 
wb97xd

>  <lot_basis>  (4) 
def2tzvp

>  <spin_multiplicity>  (4) 
2.0

>  <optical_isomers>  (4) 
1.0

>  <modes>  (4) 
IdealGasTranslation(mass=(39.0235, 'amu')),         NonlinearRotor(             inertia = ([1.74527, 52.5377, 54.2829

>  <frequency_value>  (4) 
unknown

>  <frequency_units>  (4) 
unknown

>  <frequency_list>  (4) 
unknown

>  <arkane_path>  (4) 
/home/calvin/Dropbox/PersonalFolders/Calvin/HAb_Converged/rxn_1220/output/Species/rxn_1220_CtC[CH2]/arkane/output.py

>  <path_exists>  (4) 
True

>  <E0_value>  (4) 
-304448.46556643327

>  <E0_units>  (4) 
kJ/mol

>  <thermo_class>  (4) 
NASA

>  <Cp0_value>  (4) 
33.257888

>  <Cp0_units>  (4) 
J/(mol*K)

>  <CpInf_value>  (4) 
133.031552

>  <CpInf_units>  (4) 
J/(mol*K)

>  <Tmin_value>  (4) 
10.0

>  <Tmin_units>  (4) 
K

>  <Tmax_value>  (4) 
3000.0

>  <Tmax_units>  (4) 
K

>  <polynomials>  (4) 
[{"name": "polynomial1", "class": "NASAPolynomial", "Tmin_value": 10.0, "Tmin_units": "K", "Tmax_value": 545.4322858033976, "Tmax_units": "K", "coeffs": [3.9499603218219184, 0.003017565134064686, 5.5663880593738125e-05, -1.145891938777454e-07, 7.087527216200762e-11, -36616690.41912999, 5.464661756584002]}, {"name": "polynomial2", "class": "NASAPolynomial", "Tmin_value": 545.4322858033976, "Tmin_units": "K", "Tmax_value": 3000.0, "Tmax_units": "K", "coeffs": [3.789373911177466, 0.015460066047789113, -9.533910331026645e-06, 2.9656464623318287e-09, -3.6191150968379614e-13, -36616840.46347278, 4.606005615672744]}]

>  <H298_value>  (4) 
-72761.72685205255

>  <H298_units>  (4) 
kcal/mol

>  <S298_value>  (4) 
60.54560432912815

>  <S298_units>  (4) 
cal/(mol*K)

>  <Cp_T_value_list>  (4) 
[14.596350865656005, 16.978505208172123, 18.840244425047544, 20.322925848209742, 22.70561515204646, 24.480922661541676, 27.23477345925829, 28.831290583038445, 29.744408163505042]

>  <Cp_T_units>  (4) 
cal/(mol*K)

>  <T_list>  (4) 
[300.0, 400.0, 500.0, 600.0, 800.0, 1000.0, 1500.0, 2000.0, 2400.0]

>  <T_units>  (4) 
K

>  <yaml_path>  (4) 
/home/calvin/Dropbox/PersonalFolders/Calvin/HAb_Converged/rxn_1220/output/Species/rxn_1220_CtC[CH2]/rxn_1220_CtCCH2.yml

>  <frequencies_cm1>  (4) 
[355.94331707688, 407.51437683008004, 504.51054447508, 653.44172209524, 683.5053838262, 1024.2589293752399, 1075.37676809732, 1445.76135530216, 1997.3313501752, 3133.58394313432, 3230.4359040876, 3427.03082681388]

>  <ZPE_kJmol>  (4) 
107.29725110288972

>  <E_elec_kJmol>  (4) 
-304555.76281753613

>  <E0_minus_Eelec_plus_ZPE_kJmol>  (4) 
0.0

>  <rxn>  (4) 
rxn_1220

>  <species_type>  (4) 
p1

>  <species_folder>  (4) 
rxn_1220_CtC[CH2]

>  <frequencies_cm1_list>  (4) 
[355.94331707688, 407.51437683008004, 504.51054447508, 653.44172209524, 683.5053838262, 1024.2589293752399, 1075.37676809732, 1445.76135530216, 1997.3313501752, 3133.58394313432, 3230.4359040876, 3427.03082681388]

>  <E0_kJmol>  (4) 
-304448

>  <H298_kJmol>  (4) 
-304435

$$$$

     RDKit          3D

 14 13  0  0  0  0  0  0  0  0999 V2000
    1.0767   -1.6838    1.2931 C   0  0  0  0  0  0  0  0  0  1  0  0
    1.0020   -0.3665    0.9163 C   0  0  0  0  0  0  0  0  0  2  0  0
    1.3965    0.7260    1.6806 C   0  0  0  0  0  3  0  0  0  3  0  0
    1.2666    2.1197    1.1619 C   0  0  0  0  0  0  0  0  0  4  0  0
    1.9670    0.5479    3.0536 C   0  0  0  0  0  0  0  0  0  5  0  0
    0.7448   -2.4705    0.6300 H   0  0  0  0  0  0  0  0  0  6  0  0
    1.4663   -1.9826    2.2578 H   0  0  0  0  0  0  0  0  0  7  0  0
    0.5980   -0.1511   -0.0695 H   0  0  0  0  0  0  0  0  0  8  0  0
    0.6296    2.7241    1.8172 H   0  0  0  0  0  0  0  0  0  9  0  0
    2.2410    2.6200    1.1341 H   0  0  0  0  0  0  0  0  0 10  0  0
    0.8426    2.1448    0.1579 H   0  0  0  0  0  0  0  0  0 11  0  0
    2.8745   -0.0634    3.0328 H   0  0  0  0  0  0  0  0  0 12  0  0
    1.2599    0.0408    3.7173 H   0  0  0  0  0  0  0  0  0 13  0  0
    2.2205    1.5071    3.5054 H   0  0  0  0  0  0  0  0  0 14  0  0
  1  7  1  0
  1  6  1  0
  1  2  1  0
  2  8  1  0
  2  3  1  0
  3  4  1  0
  3  5  1  0
  4  9  1  0
  4 10  1  0
  4 11  1  0
  5 12  1  0
  5 14  1  0
  5 13  1  0
M  RAD  1   3   2
M  END
>  <rmg_smiles>  (5) 
[CH2][CH][C](C)C

>  <rmg_adjacency_list>  (5) 
multiplicity 2
1  C u0 p0 c0 {3,S} {6,S} {7,S} {8,S}
2  C u0 p0 c0 {3,S} {9,S} {10,S} {11,S}
3  C u1 p0 c0 {1,S} {2,S} {4,S}
4  C u0 p0 c0 {3,S} {5,S} {12,S}
5  C u0 p0 c0 {4,S} {13,S} {14,S}
6  H u0 p0 c0 {1,S}
7  H u0 p0 c0 {1,S}
8  H u0 p0 c0 {1,S}
9  H u0 p0 c0 {2,S}
10 H u0 p0 c0 {2,S}
11 H u0 p0 c0 {2,S}
12 H u0 p0 c0 {4,S}
13 H u0 p0 c0 {5,S}
14 H u0 p0 c0 {5,S}


>  <multiplicity>  (5) 
2

>  <reaction>  (5) 
rxn_1220

>  <type>  (5) 
r2

>  <role_mapnums>  (5) 
{}

>  <role_mapidx>  (5) 
{}

>  <ordered_mapped_smiles>  (5) 
[CH:1]([CH:2]([C:3]([C:4]([H:9])([H:10])[H:11])[C:5]([H:12])([H:13])[H:14])[H:8])([H:6])[H:7]

>  <level_of_theory>  (5) 
wb97xd/def2tzvp

>  <lot_method>  (5) 
wb97xd

>  <lot_basis>  (5) 
def2tzvp

>  <spin_multiplicity>  (5) 
2.0

>  <optical_isomers>  (5) 
1.0

>  <modes>  (5) 
IdealGasTranslation(mass=(69.0704, 'amu')),         NonlinearRotor(             inertia = ([61.3549, 130.413, 185.559

>  <frequency_value>  (5) 
unknown

>  <frequency_units>  (5) 
unknown

>  <frequency_list>  (5) 
unknown

>  <arkane_path>  (5) 
/home/calvin/Dropbox/PersonalFolders/Calvin/HAb_Converged/rxn_1220/output/Species/rxn_1220_C=C[C][C]C/arkane/output.py

>  <path_exists>  (5) 
True

>  <E0_value>  (5) 
-514025.9755079239

>  <E0_units>  (5) 
kJ/mol

>  <thermo_class>  (5) 
NASA

>  <Cp0_value>  (5) 
33.257888

>  <Cp0_units>  (5) 
J/(mol*K)

>  <CpInf_value>  (5) 
332.57888

>  <CpInf_units>  (5) 
J/(mol*K)

>  <Tmin_value>  (5) 
10.0

>  <Tmin_units>  (5) 
K

>  <Tmax_value>  (5) 
3000.0

>  <Tmax_units>  (5) 
K

>  <polynomials>  (5) 
[{"name": "polynomial1", "class": "NASAPolynomial", "Tmin_value": 10.0, "Tmin_units": "K", "Tmax_value": 869.6920679830255, "Tmax_units": "K", "coeffs": [3.7251534266099315, 0.026124983740037182, 2.9283649756322525e-05, -5.054120287970429e-08, 2.023244225001157e-11, -61823043.86817725, 10.74219344334208]}, {"name": "polynomial2", "class": "NASAPolynomial", "Tmin_value": 869.6920679830255, "Tmin_units": "K", "Tmax_value": 3000.0, "Tmax_units": "K", "coeffs": [2.049387595722733, 0.04566272803591952, -2.48184133745368e-05, 6.572064258076298e-09, -6.813784120606917e-13, -61823199.79068455, 16.020641566778316]}]

>  <H298_value>  (5) 
-122850.30931833542

>  <H298_units>  (5) 
kcal/mol

>  <S298_value>  (5) 
80.76860453620434

>  <S298_units>  (5) 
cal/(mol*K)

>  <Cp_T_value_list>  (5) 
[25.828611832321002, 32.0811525837059, 37.867084343079156, 43.01801750917861, 51.22380214574075, 57.20052316456338, 66.43884769284972, 71.0936035426273, 73.39069523043335]

>  <Cp_T_units>  (5) 
cal/(mol*K)

>  <T_list>  (5) 
[300.0, 400.0, 500.0, 600.0, 800.0, 1000.0, 1500.0, 2000.0, 2400.0]

>  <T_units>  (5) 
K

>  <yaml_path>  (5) 
/home/calvin/Dropbox/PersonalFolders/Calvin/HAb_Converged/rxn_1220/output/Species/rxn_1220_C=C[C][C]C/rxn_1220_C=CCCC.yml

>  <frequencies_cm1>  (5) 
[55.11442417832, 159.33466037996, 226.55557967744, 278.64853031495994, 356.053188842, 383.12971195875997, 537.2797984221199, 582.97958572672, 765.24311009016, 793.8921728451999, 933.2782408705599, 980.1316817089199, 985.8381465098398, 986.5797809243999, 1056.26594795176, 1065.45397430992, 1225.2624566769598, 1249.45484595932, 1354.32057878104, 1397.4040446787199, 1400.8306703534, 1443.5021171318801, 1461.08159955108, 1469.6378632598, 1480.13061682876, 1493.1229530541998, 1520.0758704352, 2982.7506105805196, 2995.00817937672, 3028.9585547987995, 3046.0710822162396, 3091.5030570933595, 3094.47646173692, 3117.3709907937996, 3132.2036790849997, 3223.1775006043595]

>  <ZPE_kJmol>  (5) 
319.1166494835046

>  <E_elec_kJmol>  (5) 
-514345.0921574074

>  <E0_minus_Eelec_plus_ZPE_kJmol>  (5) 
0.0

>  <rxn>  (5) 
rxn_1220

>  <species_type>  (5) 
r1

>  <species_folder>  (5) 
rxn_1220_C=C[C][C]C

>  <frequencies_cm1_list>  (5) 
[55.11442417832, 159.33466037996, 226.55557967744, 278.64853031495994, 356.053188842, 383.12971195875997, 537.2797984221199, 582.97958572672, 765.24311009016, 793.8921728451999, 933.2782408705599, 980.1316817089199, 985.8381465098398, 986.5797809243999, 1056.26594795176, 1065.45397430992, 1225.2624566769598, 1249.45484595932, 1354.32057878104, 1397.4040446787199, 1400.8306703534, 1443.5021171318801, 1461.08159955108, 1469.6378632598, 1480.13061682876, 1493.1229530541998, 1520.0758704352, 2982.7506105805196, 2995.00817937672, 3028.9585547987995, 3046.0710822162396, 3091.5030570933595, 3094.47646173692, 3117.3709907937996, 3132.2036790849997, 3223.1775006043595]

>  <E0_kJmol>  (5) 
-514026

>  <H298_kJmol>  (5) 
-514006

$$$$
