
     RDKit          3D

 16 15  0  0  0  0  0  0  0  0999 V2000
    1.3068   -1.0785   -1.7613 C   0  0  0  0  0  0  0  0  0  1  0  0
    0.1646   -0.5826   -1.2856 C   0  0  0  0  0  0  0  0  0  2  0  0
    0.0037    0.3223   -0.1352 C   0  0  0  0  0  0  0  0  0  3  0  0
    1.2201    0.5767    0.7205 C   0  0  0  0  0  0  0  0  0  4  0  0
   -1.2946    0.1994    0.5491 C   0  0  0  0  0  0  0  0  0  5  0  0
   -1.5548    0.4749    1.8256 C   0  0  0  0  0  0  0  0  0  6  0  0
    1.3103   -1.7235   -2.6303 H   0  0  0  0  0  0  0  0  0  7  0  0
    2.2645   -0.8734   -1.2997 H   0  0  0  0  0  0  0  0  0  8  0  0
   -0.7586   -0.8446   -1.7976 H   0  0  0  0  0  0  0  0  0  9  0  0
   -0.0958    1.2963   -0.6142 H   0  0  0  0  0  0  0  0  0 10  0  0
    2.0713    0.8695    0.1045 H   0  0  0  0  0  0  0  0  0 11  0  0
    1.0335    1.3890    1.4235 H   0  0  0  0  0  0  0  0  0 12  0  0
    1.4951   -0.3142    1.2911 H   0  0  0  0  0  0  0  0  0 13  0  0
   -2.1185   -0.1253   -0.0822 H   0  0  0  0  0  0  0  0  0 14  0  0
   -0.7879    0.7968    2.5183 H   0  0  0  0  0  0  0  0  0 15  0  0
   -2.5579    0.3758    2.2191 H   0  0  0  0  0  0  0  0  0 16  0  0
  1  8  1  0
  1  7  1  0
  1  2  1  0
  2  9  1  0
  2  3  1  0
  3  4  1  0
  3  5  1  0
  3 10  1  0
  4 13  1  0
  4 12  1  0
  4 11  1  0
  5 14  1  0
  5  6  1  0
  6 15  1  0
  6 16  1  0
M  END
>  <rmg_smiles>  (1) 
[CH2][CH]C(C)[CH][CH2]

>  <rmg_adjacency_list>  (1) 
1  C u0 p0 c0 {2,S} {3,S} {4,S} {7,S}
2  C u0 p0 c0 {1,S} {8,S} {9,S} {10,S}
3  C u0 p0 c0 {1,S} {5,S} {11,S}
4  C u0 p0 c0 {1,S} {6,S} {12,S}
5  C u0 p0 c0 {3,S} {13,S} {14,S}
6  C u0 p0 c0 {4,S} {15,S} {16,S}
7  H u0 p0 c0 {1,S}
8  H u0 p0 c0 {2,S}
9  H u0 p0 c0 {2,S}
10 H u0 p0 c0 {2,S}
11 H u0 p0 c0 {3,S}
12 H u0 p0 c0 {4,S}
13 H u0 p0 c0 {5,S}
14 H u0 p0 c0 {5,S}
15 H u0 p0 c0 {6,S}
16 H u0 p0 c0 {6,S}


>  <multiplicity>  (1) 
1

>  <reaction>  (1) 
rxn_1200

>  <type>  (1) 
r1h

>  <role_mapnums>  (1) 
{"r1h_a": 3, "r1h_h": 10}

>  <role_mapidx>  (1) 
{"r1h_a": 2, "r1h_h": 9}

>  <ordered_mapped_smiles>  (1) 
[CH:1]([CH:2]([C:3]([C:4]([H:11])([H:12])[H:13])([CH:5]([CH:6]([H:15])[H:16])[H:14])[H:10])[H:9])([H:7])[H:8]

>  <mol_properties>  (1) 
{"2": {"label": "donator", "atom_type": "Cs"}, "9": {"label": "d_hydrogen", "atom_type": "H0"}}

>  <level_of_theory>  (1) 
wb97xd/def2tzvp

>  <lot_method>  (1) 
wb97xd

>  <lot_basis>  (1) 
def2tzvp

>  <spin_multiplicity>  (1) 
1.0

>  <optical_isomers>  (1) 
2.0

>  <modes>  (1) 
IdealGasTranslation(mass=(82.0782, 'amu')),         NonlinearRotor(             inertia = ([81.8176, 215.752, 270.221

>  <frequency_value>  (1) 
unknown

>  <frequency_units>  (1) 
unknown

>  <frequency_list>  (1) 
unknown

>  <arkane_path>  (1) 
/home/calvin/Dropbox/PersonalFolders/Calvin/HAb_Converged/rxn_1200/output/Species/rxn_1200_C=CC[C]C=C/arkane/output.py

>  <path_exists>  (1) 
True

>  <E0_value>  (1) 
-615627.5937373543

>  <E0_units>  (1) 
kJ/mol

>  <thermo_class>  (1) 
NASA

>  <Cp0_value>  (1) 
33.257888

>  <Cp0_units>  (1) 
J/(mol*K)

>  <CpInf_value>  (1) 
382.465712

>  <CpInf_units>  (1) 
J/(mol*K)

>  <Tmin_value>  (1) 
10.0

>  <Tmin_units>  (1) 
K

>  <Tmax_value>  (1) 
3000.0

>  <Tmax_units>  (1) 
K

>  <polynomials>  (1) 
[{"name": "polynomial1", "class": "NASAPolynomial", "Tmin_value": 10.0, "Tmin_units": "K", "Tmax_value": 757.01421466449, "Tmax_units": "K", "coeffs": [3.7333043859306807, 0.024971619873153182, 5.9953729741974984e-05, -9.768956274227311e-08, 4.2619255015878605e-11, -74042895.04148921, 11.39126299815016]}, {"name": "polynomial2", "class": "NASAPolynomial", "Tmin_value": 757.01421466449, "Tmin_units": "K", "Tmax_value": 3000.0, "Tmax_units": "K", "coeffs": [0.44469393851227684, 0.05690289093011388, -3.2156427053129826e-05, 8.824948176810319e-09, -9.439814340659815e-13, -74042814.17505449, 23.586950166217814]}]

>  <H298_value>  (1) 
-147133.40013016394

>  <H298_units>  (1) 
kcal/mol

>  <S298_value>  (1) 
83.43513409825523

>  <S298_units>  (1) 
cal/(mol*K)

>  <Cp_T_value_list>  (1) 
[28.473139475044146, 36.07469361244095, 43.043001816355165, 49.12797529668614, 58.65957774455763, 65.72114092256321, 76.41278682550626, 81.71522311412052, 84.39200509242544]

>  <Cp_T_units>  (1) 
cal/(mol*K)

>  <T_list>  (1) 
[300.0, 400.0, 500.0, 600.0, 800.0, 1000.0, 1500.0, 2000.0, 2400.0]

>  <T_units>  (1) 
K

>  <yaml_path>  (1) 
/home/calvin/Dropbox/PersonalFolders/Calvin/HAb_Converged/rxn_1200/output/Species/rxn_1200_C=CC[C]C=C/rxn_1200_C=CCCC=C.yml

>  <frequencies_cm1>  (1) 
[88.1720915088, 106.67861694619998, 273.49142433963993, 286.5592974036, 313.75942625612, 326.27794049448, 407.06115579895993, 569.8224418536, 651.92411833952, 700.3775667574399, 828.2270994451999, 911.8395127015199, 955.1839240413599, 957.3264234611999, 986.9918000435998, 1013.1206791861999, 1033.24781315912, 1040.35514296532, 1086.5012843157199, 1158.117074218, 1191.5112238291601, 1286.63957146712, 1315.0757576772398, 1326.50928823504, 1345.4965026448397, 1396.33966195412, 1439.56733454352, 1445.27379934444, 1485.5280672902798, 1492.32638275708, 1705.6973506201198, 1716.9454725742798, 3001.05112645832, 3015.16964827624, 3087.0944525179198, 3099.55803087372, 3107.7297434045195, 3116.0456626270397, 3118.744387857799, 3130.445730843079, 3201.84864420044, 3208.5027529755193]

>  <ZPE_kJmol>  (1) 
370.4126142688373

>  <E_elec_kJmol>  (1) 
-615998.0063516231

>  <E0_minus_Eelec_plus_ZPE_kJmol>  (1) 
0.0

>  <rxn>  (1) 
rxn_1200

>  <species_type>  (1) 
r1

>  <species_folder>  (1) 
rxn_1200_C=CC[C]C=C

>  <frequencies_cm1_list>  (1) 
[88.1720915088, 106.67861694619998, 273.49142433963993, 286.5592974036, 313.75942625612, 326.27794049448, 407.06115579895993, 569.8224418536, 651.92411833952, 700.3775667574399, 828.2270994451999, 911.8395127015199, 955.1839240413599, 957.3264234611999, 986.9918000435998, 1013.1206791861999, 1033.24781315912, 1040.35514296532, 1086.5012843157199, 1158.117074218, 1191.5112238291601, 1286.63957146712, 1315.0757576772398, 1326.50928823504, 1345.4965026448397, 1396.33966195412, 1439.56733454352, 1445.27379934444, 1485.5280672902798, 1492.32638275708, 1705.6973506201198, 1716.9454725742798, 3001.05112645832, 3015.16964827624, 3087.0944525179198, 3099.55803087372, 3107.7297434045195, 3116.0456626270397, 3118.744387857799, 3130.445730843079, 3201.84864420044, 3208.5027529755193]

>  <E0_kJmol>  (1) 
-615628

>  <H298_kJmol>  (1) 
-615606

$$$$

     RDKit          3D

 10  9  0  0  0  0  0  0  0  0999 V2000
    0.9298   -0.3456   -1.1877 S   0  0  0  0  0  0  0  0  0  1  0  0
   -0.4266   -0.4125   -0.0444 C   0  0  0  0  0  0  0  0  0  2  0  0
   -0.3308    0.4741    1.0959 C   0  0  0  0  0  0  0  0  0  3  0  0
   -1.3828    0.9256    1.7889 C   0  0  0  0  0  0  0  0  0  4  0  0
    0.7538   -1.5660   -1.7157 H   0  0  0  0  0  0  0  0  0  5  0  0
   -1.4101   -0.4744   -0.5066 H   0  0  0  0  0  0  0  0  0  6  0  0
    0.6719    0.7304    1.4265 H   0  0  0  0  0  0  0  0  0  7  0  0
   -2.3983    0.6878    1.4949 H   0  0  0  0  0  0  0  0  0  8  0  0
   -1.2518    1.5395    2.6698 H   0  0  0  0  0  0  0  0  0  9  0  0
   -0.3903   -1.4185    0.3696 H   0  0  0  0  0  0  0  0  0 10  0  0
  1  2  1  0
  1  5  1  0
  2 10  1  0
  2  6  1  0
  2  3  1  0
  3  4  1  0
  3  7  1  0
  4  8  1  0
  4  9  1  0
M  END
>  <rmg_smiles>  (2) 
[CH2][CH]CS

>  <rmg_adjacency_list>  (2) 
1  S u0 p2 c0 {2,S} {10,S}
2  C u0 p0 c0 {1,S} {3,S} {5,S} {6,S}
3  C u0 p0 c0 {2,S} {4,S} {7,S}
4  C u0 p0 c0 {3,S} {8,S} {9,S}
5  H u0 p0 c0 {2,S}
6  H u0 p0 c0 {2,S}
7  H u0 p0 c0 {3,S}
8  H u0 p0 c0 {4,S}
9  H u0 p0 c0 {4,S}
10 H u0 p0 c0 {1,S}


>  <multiplicity>  (2) 
1

>  <reaction>  (2) 
rxn_1200

>  <type>  (2) 
r2h

>  <role_mapnums>  (2) 
{"r2h_a": 2, "r2h_h": 10}

>  <role_mapidx>  (2) 
{"r2h_a": 1, "r2h_h": 9}

>  <ordered_mapped_smiles>  (2) 
[S:1]([C:2]([CH:3]([CH:4]([H:8])[H:9])[H:7])([H:6])[H:10])[H:5]

>  <mol_properties>  (2) 
{"1": {"label": "acceptor", "atom_type": "Cs"}, "9": {"label": "a_hydrogen", "atom_type": "H0"}}

>  <level_of_theory>  (2) 
wb97xd/def2tzvp

>  <lot_method>  (2) 
wb97xd

>  <lot_basis>  (2) 
def2tzvp

>  <spin_multiplicity>  (2) 
1.0

>  <optical_isomers>  (2) 
2.0

>  <modes>  (2) 
IdealGasTranslation(mass=(74.019, 'amu')),         NonlinearRotor(             inertia = ([24.9739, 180.25, 186.44

>  <frequency_value>  (2) 
unknown

>  <frequency_units>  (2) 
unknown

>  <frequency_list>  (2) 
unknown

>  <arkane_path>  (2) 
/home/calvin/Dropbox/PersonalFolders/Calvin/HAb_Converged/rxn_1200/output/Species/rxn_1200_SCC=C/arkane/output.py

>  <path_exists>  (2) 
True

>  <E0_value>  (2) 
-1354838.6258243525

>  <E0_units>  (2) 
kJ/mol

>  <thermo_class>  (2) 
NASA

>  <Cp0_value>  (2) 
33.257888

>  <Cp0_units>  (2) 
J/(mol*K)

>  <CpInf_value>  (2) 
232.805216

>  <CpInf_units>  (2) 
J/(mol*K)

>  <Tmin_value>  (2) 
10.0

>  <Tmin_units>  (2) 
K

>  <Tmax_value>  (2) 
3000.0

>  <Tmax_units>  (2) 
K

>  <polynomials>  (2) 
[{"name": "polynomial1", "class": "NASAPolynomial", "Tmin_value": 10.0, "Tmin_units": "K", "Tmax_value": 400.65806020409946, "Tmax_units": "K", "coeffs": [3.883268576252178, 0.009872966694517036, 7.267081741219709e-05, -1.4952606927169204e-07, 9.638969446192109e-11, -162949446.9996889, 10.213451719731799]}, {"name": "polynomial2", "class": "NASAPolynomial", "Tmin_value": 400.65806020409946, "Tmin_units": "K", "Tmax_value": 3000.0, "Tmax_units": "K", "coeffs": [1.381946217098182, 0.03484518856752169, -2.0821510203899097e-05, 6.039055448516005e-09, -6.791318499482445e-13, -162949246.56534788, 19.9930512432755]}]

>  <H298_value>  (2) 
-323810.2515366824

>  <H298_units>  (2) 
kcal/mol

>  <S298_value>  (2) 
74.2752341119096

>  <S298_units>  (2) 
cal/(mol*K)

>  <Cp_T_value_list>  (2) 
[20.12858317623335, 24.557289426072625, 28.44010285073442, 31.814651802239496, 37.252480139055294, 41.26543233779768, 47.186294391719805, 50.14241959560657, 51.7278549409484]

>  <Cp_T_units>  (2) 
cal/(mol*K)

>  <T_list>  (2) 
[300.0, 400.0, 500.0, 600.0, 800.0, 1000.0, 1500.0, 2000.0, 2400.0]

>  <T_units>  (2) 
K

>  <yaml_path>  (2) 
/home/calvin/Dropbox/PersonalFolders/Calvin/HAb_Converged/rxn_1200/output/Species/rxn_1200_SCC=C/rxn_1200_SCC=C.yml

>  <frequencies_cm1>  (2) 
[109.00652496968, 245.3917204102, 290.63828668367995, 415.01999178484, 607.7556687612799, 738.8738864613599, 795.00462446704, 935.2971345546399, 957.23715265204, 997.0931354493199, 1031.7164754327598, 1111.56578073372, 1232.59639699872, 1263.93045101388, 1318.41311254276, 1435.2480007772401, 1465.33226346416, 1711.0192642431198, 2696.8986126648797, 3040.5500260189597, 3094.0163737204803, 3115.6885793903994, 3138.1779563133996, 3206.45639135016]

>  <ZPE_kJmol>  (2) 
209.0649957029236

>  <E_elec_kJmol>  (2) 
-1355047.6908200553

>  <E0_minus_Eelec_plus_ZPE_kJmol>  (2) 
0.0

>  <rxn>  (2) 
rxn_1200

>  <species_type>  (2) 
p0

>  <species_folder>  (2) 
rxn_1200_SCC=C

>  <frequencies_cm1_list>  (2) 
[109.00652496968, 245.3917204102, 290.63828668367995, 415.01999178484, 607.7556687612799, 738.8738864613599, 795.00462446704, 935.2971345546399, 957.23715265204, 997.0931354493199, 1031.7164754327598, 1111.56578073372, 1232.59639699872, 1263.93045101388, 1318.41311254276, 1435.2480007772401, 1465.33226346416, 1711.0192642431198, 2696.8986126648797, 3040.5500260189597, 3094.0163737204803, 3115.6885793903994, 3138.1779563133996, 3206.45639135016]

>  <E0_kJmol>  (2) 
-1.35484e+06

>  <H298_kJmol>  (2) 
-1.35482e+06

$$$$

     RDKit          3D

 25 23  0  0  0  0  0  0  0  0999 V2000
    0.9441    1.4205   -1.9035 S   0  0  0  0  0  0  0  0  0  1  0  0
   -0.4123    1.3536   -0.7602 C   0  0  0  0  0  3  0  0  0  2  0  0
   -0.3166    2.2402    0.3801 C   0  0  0  0  0  0  0  0  0  3  0  0
   -1.3685    2.6917    1.0731 C   0  0  0  0  0  0  0  0  0  4  0  0
    0.7681    0.2001   -2.4315 H   0  0  0  0  0  0  0  0  0  5  0  0
   -1.3958    1.2917   -1.2225 H   0  0  0  0  0  0  0  0  0  6  0  0
    0.6862    2.4965    0.7106 H   0  0  0  0  0  0  0  0  0  7  0  0
   -2.3840    2.4539    0.7791 H   0  0  0  0  0  0  0  0  0  8  0  0
   -1.2375    3.3056    1.9540 H   0  0  0  0  0  0  0  0  0  9  0  0
    1.0573   -2.5156   -1.2763 C   0  0  0  0  0  0  0  0  0 10  0  0
   -0.0849   -2.0197   -0.8006 C   0  0  0  0  0  0  0  0  0 11  0  0
   -0.2458   -1.1148    0.3497 C   0  0  0  0  0  0  0  0  0 12  0  0
    0.9706   -0.8604    1.2055 C   0  0  0  0  0  0  0  0  0 13  0  0
   -1.5441   -1.2377    1.0340 C   0  0  0  0  0  0  0  0  0 14  0  0
   -1.8043   -0.9622    2.3105 C   0  0  0  0  0  0  0  0  0 15  0  0
    1.0608   -3.1606   -2.1453 H   0  0  0  0  0  0  0  0  0 16  0  0
    2.0150   -2.3105   -0.8148 H   0  0  0  0  0  0  0  0  0 17  0  0
   -1.0081   -2.2817   -1.3127 H   0  0  0  0  0  0  0  0  0 18  0  0
   -0.3656    0.0587   -0.2273 H   0  0  0  0  0  0  0  0  0 19  0  0
    1.8218   -0.5676    0.5895 H   0  0  0  0  0  0  0  0  0 20  0  0
    0.7840   -0.0481    1.9085 H   0  0  0  0  0  0  0  0  0 21  0  0
    1.2456   -1.7513    1.7761 H   0  0  0  0  0  0  0  0  0 22  0  0
   -2.3680   -1.5624    0.4028 H   0  0  0  0  0  0  0  0  0 23  0  0
   -1.0374   -0.6403    3.0033 H   0  0  0  0  0  0  0  0  0 24  0  0
   -2.8074   -1.0613    2.7041 H   0  0  0  0  0  0  0  0  0 25  0  0
  1  5  1  0
  1  2  1  0
  2  6  1  0
  2  3  1  0
  3  4  1  0
  3  7  1  0
  4  9  1  0
  4  8  1  0
 10 16  1  0
 10 11  1  0
 10 17  1  0
 11 12  1  0
 11 18  1  0
 12 19  1  0
 12 13  1  0
 12 14  1  0
 13 21  1  0
 13 20  1  0
 13 22  1  0
 14 15  1  0
 14 23  1  0
 15 25  1  0
 15 24  1  0
M  RAD  1   2   2
M  END
>  <rmg_smiles>  (3) 
[CH2][CH]C([CH][CH2])C.[CH2][CH][CH]S

>  <rmg_adjacency_list>  (3) 
multiplicity 2
1  S u0 p2 c0 {7,S} {25,S}
2  C u0 p0 c0 {3,S} {4,S} {5,S} {11,S}
3  C u0 p0 c0 {2,S} {12,S} {13,S} {14,S}
4  C u0 p0 c0 {2,S} {8,S} {15,S}
5  C u0 p0 c0 {2,S} {9,S} {16,S}
6  C u0 p0 c0 {7,S} {10,S} {17,S}
7  C u1 p0 c0 {1,S} {6,S} {18,S}
8  C u0 p0 c0 {4,S} {21,S} {22,S}
9  C u0 p0 c0 {5,S} {23,S} {24,S}
10 C u0 p0 c0 {6,S} {19,S} {20,S}
11 H u0 p0 c0 {2,S}
12 H u0 p0 c0 {3,S}
13 H u0 p0 c0 {3,S}
14 H u0 p0 c0 {3,S}
15 H u0 p0 c0 {4,S}
16 H u0 p0 c0 {5,S}
17 H u0 p0 c0 {6,S}
18 H u0 p0 c0 {7,S}
19 H u0 p0 c0 {10,S}
20 H u0 p0 c0 {10,S}
21 H u0 p0 c0 {8,S}
22 H u0 p0 c0 {8,S}
23 H u0 p0 c0 {9,S}
24 H u0 p0 c0 {9,S}
25 H u0 p0 c0 {1,S}


>  <multiplicity>  (3) 
2

>  <reaction>  (3) 
rxn_1200

>  <type>  (3) 
ts

>  <role_mapnums>  (3) 
{"*2": 19, "*1": 12, "*3": 2, "*0": 11, "*4": 1}

>  <role_mapidx>  (3) 
{"*2": 18, "*1": 11, "*3": 1, "*0": 10, "*4": 0}

>  <ordered_mapped_smiles>  (3) 
[S:1]([C:2]([CH:3]([CH:4]([H:8])[H:9])[H:7])[H:6])[H:5].[CH:10]([CH:11]([C:12]([C:13]([H:20])([H:21])[H:22])([CH:14]([CH:15]([H:24])[H:25])[H:23])[H:19])[H:18])([H:16])[H:17]

>  <mol_properties>  (3) 
{"0": {"label": "*4", "atom_type": "S2s"}, "1": {"label": "*3", "atom_type": "Cs"}, "10": {"label": "*0", "atom_type": "Cs"}, "11": {"label": "*1", "atom_type": "Cs"}, "18": {"label": "*2", "atom_type": "H0"}}

>  <level_of_theory>  (3) 
wb97xd/def2tzvp

>  <lot_method>  (3) 
wb97xd

>  <lot_basis>  (3) 
def2tzvp

>  <spin_multiplicity>  (3) 
2.0

>  <optical_isomers>  (3) 
2.0

>  <modes>  (3) 
IdealGasTranslation(mass=(155.089, 'amu')),         NonlinearRotor(             inertia = ([472.123, 545.577, 881.542

>  <frequency_value>  (3) 
-1764.95

>  <frequency_units>  (3) 
cm^-1

>  <frequency_list>  (3) 
unknown

>  <arkane_path>  (3) 
/home/calvin/Dropbox/PersonalFolders/Calvin/HAb_Converged/rxn_1200/output/rxns/TS0/arkane/output.py

>  <path_exists>  (3) 
True

>  <E0_value>  (3) 
-1968760.0

>  <E0_units>  (3) 
kJ/mol

>  <thermo_class>  (3) 
unknown

>  <Cp0_value>  (3) 
unknown

>  <Cp0_units>  (3) 
unknown

>  <CpInf_value>  (3) 
unknown

>  <CpInf_units>  (3) 
unknown

>  <Tmin_value>  (3) 
unknown

>  <Tmin_units>  (3) 
unknown

>  <Tmax_value>  (3) 
unknown

>  <Tmax_units>  (3) 
unknown

>  <polynomials>  (3) 
unknown

>  <H298_value>  (3) 
unknown

>  <H298_units>  (3) 
unknown

>  <S298_value>  (3) 
unknown

>  <S298_units>  (3) 
unknown

>  <Cp_T_value_list>  (3) 
unknown

>  <Cp_T_units>  (3) 
unknown

>  <T_list>  (3) 
unknown

>  <T_units>  (3) 
unknown

>  <yaml_path>  (3) 
unknown

>  <frequencies_cm1>  (3) 
unknown

>  <ZPE_kJmol>  (3) 
unknown

>  <E_elec_kJmol>  (3) 
unknown

>  <E0_minus_Eelec_plus_ZPE_kJmol>  (3) 
unknown

>  <rxn>  (3) 
unknown

>  <species_type>  (3) 
unknown

>  <species_folder>  (3) 
unknown

>  <frequencies_cm1_list>  (3) 
[]

>  <ts_imag_freq_cm1>  (3) 
-1786.3837

>  <ts_freq_out_path>  (3) 
/home/calvin/Dropbox/PersonalFolders/Calvin/HAb_Converged/rxn_1200/output/rxns/TS0/geometry/freq.out

>  <E0_kJmol>  (3) 
-1.96876e+06

>  <H298_kJmol>  (3) 
unknown

$$$$

     RDKit          3D

 15 14  0  0  0  0  0  0  0  0999 V2000
    2.4381    0.5770   -0.2356 C   0  0  0  0  0  0  0  0  0  1  0  0
    1.4430   -0.3367   -0.1409 C   0  0  0  0  0  0  0  0  0  2  0  0
    0.0521   -0.0957   -0.0045 C   0  0  0  0  0  3  0  0  0  3  0  0
   -0.5167    1.2867    0.0548 C   0  0  0  0  0  0  0  0  0  4  0  0
   -0.8226   -1.2147    0.0778 C   0  0  0  0  0  0  0  0  0  5  0  0
   -2.1666   -1.1669    0.2092 C   0  0  0  0  0  0  0  0  0  6  0  0
    3.4666    0.2585   -0.3369 H   0  0  0  0  0  0  0  0  0  7  0  0
    2.2594    1.6438   -0.2152 H   0  0  0  0  0  0  0  0  0  8  0  0
    1.7306   -1.3845   -0.1719 H   0  0  0  0  0  0  0  0  0  9  0  0
   -1.2300    1.4469   -0.7583 H   0  0  0  0  0  0  0  0  0 10  0  0
    0.2481    2.0557   -0.0178 H   0  0  0  0  0  0  0  0  0 11  0  0
   -1.0592    1.4421    0.9914 H   0  0  0  0  0  0  0  0  0 12  0  0
   -0.3519   -2.1929    0.0292 H   0  0  0  0  0  0  0  0  0 13  0  0
   -2.7080   -0.2310    0.2646 H   0  0  0  0  0  0  0  0  0 14  0  0
   -2.7513   -2.0751    0.2638 H   0  0  0  0  0  0  0  0  0 15  0  0
  1  8  1  0
  1  7  1  0
  1  2  1  0
  2  9  1  0
  2  3  1  0
  3  4  1  0
  3  5  1  0
  4 12  1  0
  4 10  1  0
  4 11  1  0
  5  6  1  0
  5 13  1  0
  6 15  1  0
  6 14  1  0
M  RAD  1   3   2
M  END
>  <rmg_smiles>  (4) 
[CH2][CH][C](C)[CH][CH2]

>  <rmg_adjacency_list>  (4) 
multiplicity 2
1  C u0 p0 c0 {2,S} {7,S} {8,S} {9,S}
2  C u1 p0 c0 {1,S} {3,S} {4,S}
3  C u0 p0 c0 {2,S} {5,S} {10,S}
4  C u0 p0 c0 {2,S} {6,S} {11,S}
5  C u0 p0 c0 {3,S} {12,S} {13,S}
6  C u0 p0 c0 {4,S} {14,S} {15,S}
7  H u0 p0 c0 {1,S}
8  H u0 p0 c0 {1,S}
9  H u0 p0 c0 {1,S}
10 H u0 p0 c0 {3,S}
11 H u0 p0 c0 {4,S}
12 H u0 p0 c0 {5,S}
13 H u0 p0 c0 {5,S}
14 H u0 p0 c0 {6,S}
15 H u0 p0 c0 {6,S}


>  <multiplicity>  (4) 
2

>  <reaction>  (4) 
rxn_1200

>  <type>  (4) 
r1

>  <role_mapnums>  (4) 
{}

>  <role_mapidx>  (4) 
{}

>  <ordered_mapped_smiles>  (4) 
[CH:1]([CH:2]([C:3]([C:4]([H:10])([H:11])[H:12])[CH:5]([CH:6]([H:14])[H:15])[H:13])[H:9])([H:7])[H:8]

>  <level_of_theory>  (4) 
wb97xd/def2tzvp

>  <lot_method>  (4) 
wb97xd

>  <lot_basis>  (4) 
def2tzvp

>  <spin_multiplicity>  (4) 
2.0

>  <optical_isomers>  (4) 
1.0

>  <modes>  (4) 
IdealGasTranslation(mass=(81.0704, 'amu')),         NonlinearRotor(             inertia = ([62.5293, 224.796, 284.21

>  <frequency_value>  (4) 
unknown

>  <frequency_units>  (4) 
unknown

>  <frequency_list>  (4) 
unknown

>  <arkane_path>  (4) 
/home/calvin/Dropbox/PersonalFolders/Calvin/HAb_Converged/rxn_1200/output/Species/rxn_1200_C=C[C][C]C=C/arkane/output.py

>  <path_exists>  (4) 
True

>  <E0_value>  (4) 
-614016.405434086

>  <E0_units>  (4) 
kJ/mol

>  <thermo_class>  (4) 
NASA

>  <Cp0_value>  (4) 
33.257888

>  <Cp0_units>  (4) 
J/(mol*K)

>  <CpInf_value>  (4) 
357.522296

>  <CpInf_units>  (4) 
J/(mol*K)

>  <Tmin_value>  (4) 
10.0

>  <Tmin_units>  (4) 
K

>  <Tmax_value>  (4) 
3000.0

>  <Tmax_units>  (4) 
K

>  <polynomials>  (4) 
[{"name": "polynomial1", "class": "NASAPolynomial", "Tmin_value": 10.0, "Tmin_units": "K", "Tmax_value": 419.0689826855313, "Tmax_units": "K", "coeffs": [3.7461378399183536, 0.022464955908256024, 8.810794690126274e-05, -1.8449270689510127e-07, 1.148776845632381e-10, -73849113.49735299, 11.570077105248336]}, {"name": "polynomial2", "class": "NASAPolynomial", "Tmin_value": 419.0689826855313, "Tmin_units": "K", "Tmax_value": 3000.0, "Tmax_units": "K", "coeffs": [0.16809288681172943, 0.05661667084847684, -3.41312558204021e-05, 9.965368111618754e-09, -1.1262510033039744e-12, -73848813.6024703, 25.720243230921767]}]

>  <H298_value>  (4) 
-146748.3088248158

>  <H298_units>  (4) 
kcal/mol

>  <S298_value>  (4) 
83.69704340475995

>  <S298_units>  (4) 
cal/(mol*K)

>  <Cp_T_value_list>  (4) 
[28.545319179186908, 35.69564824876572, 41.96760480546441, 47.409581732443996, 56.15524022360577, 62.58234917827583, 71.99499165792618, 76.66511553325982, 79.18424304962427]

>  <Cp_T_units>  (4) 
cal/(mol*K)

>  <T_list>  (4) 
[300.0, 400.0, 500.0, 600.0, 800.0, 1000.0, 1500.0, 2000.0, 2400.0]

>  <T_units>  (4) 
K

>  <yaml_path>  (4) 
/home/calvin/Dropbox/PersonalFolders/Calvin/HAb_Converged/rxn_1200/output/Species/rxn_1200_C=C[C][C]C=C/rxn_1200_C=CCCC=C.yml

>  <frequencies_cm1>  (4) 
[55.7255858718, 142.91569847984, 243.59943724168, 250.04753645715996, 341.08316084439997, 359.56908532584, 490.81090876168, 546.8592429435199, 586.89376735912, 682.6813455877999, 764.7280861911601, 864.3131073018001, 877.42218227768, 957.0998129456399, 982.96774664608, 1004.23480018212, 1020.31727980156, 1028.45465740576, 1074.8823451542798, 1211.9885740533998, 1279.2781632040799, 1315.0139548093598, 1360.63133829012, 1400.4461191754801, 1420.0719632200398, 1441.723567934, 1468.0927915628, 1488.2405264916797, 1525.7960692067597, 1597.66593756588, 3009.75159685876, 3060.48488440292, 3115.2559593152396, 3122.0886097086404, 3125.7967817814397, 3133.8517555617996, 3139.09126536096, 3221.11053802304, 3224.1388785491595]

>  <ZPE_kJmol>  (4) 
334.5664415862221

>  <E_elec_kJmol>  (4) 
-614350.9718756722

>  <E0_minus_Eelec_plus_ZPE_kJmol>  (4) 
0.0

>  <rxn>  (4) 
rxn_1200

>  <species_type>  (4) 
p1

>  <species_folder>  (4) 
rxn_1200_C=C[C][C]C=C

>  <frequencies_cm1_list>  (4) 
[55.7255858718, 142.91569847984, 243.59943724168, 250.04753645715996, 341.08316084439997, 359.56908532584, 490.81090876168, 546.8592429435199, 586.89376735912, 682.6813455877999, 764.7280861911601, 864.3131073018001, 877.42218227768, 957.0998129456399, 982.96774664608, 1004.23480018212, 1020.31727980156, 1028.45465740576, 1074.8823451542798, 1211.9885740533998, 1279.2781632040799, 1315.0139548093598, 1360.63133829012, 1400.4461191754801, 1420.0719632200398, 1441.723567934, 1468.0927915628, 1488.2405264916797, 1525.7960692067597, 1597.66593756588, 3009.75159685876, 3060.48488440292, 3115.2559593152396, 3122.0886097086404, 3125.7967817814397, 3133.8517555617996, 3139.09126536096, 3221.11053802304, 3224.1388785491595]

>  <E0_kJmol>  (4) 
-614016

>  <H298_kJmol>  (4) 
-613995

$$$$

     RDKit          3D

  9  8  0  0  0  0  0  0  0  0999 V2000
    2.3991   -0.1292   -0.2384 S   0  0  0  0  0  0  0  0  0  1  0  0
    0.7460    0.2807    0.0931 C   0  0  0  0  0  3  0  0  0  2  0  0
   -0.3131   -0.5719   -0.2043 C   0  0  0  0  0  0  0  0  0  3  0  0
   -0.2286   -1.8095   -0.7775 C   0  0  0  0  0  0  0  0  0  4  0  0
    2.9373    1.0009    0.2312 H   0  0  0  0  0  0  0  0  0  5  0  0
    0.5618    1.2421    0.5487 H   0  0  0  0  0  0  0  0  0  6  0  0
   -1.2978   -0.1954    0.0537 H   0  0  0  0  0  0  0  0  0  7  0  0
    0.7207   -2.2479   -1.0607 H   0  0  0  0  0  0  0  0  0  8  0  0
   -1.1177   -2.3938   -0.9670 H   0  0  0  0  0  0  0  0  0  9  0  0
  1  2  1  0
  1  5  1  0
  2  6  1  0
  2  3  1  0
  3  4  1  0
  3  7  1  0
  4  8  1  0
  4  9  1  0
M  RAD  1   2   2
M  END
>  <rmg_smiles>  (5) 
[CH2][CH][CH]S

>  <rmg_adjacency_list>  (5) 
multiplicity 2
1 S u0 p2 c0 {3,S} {9,S}
2 C u0 p0 c0 {3,S} {4,S} {5,S}
3 C u1 p0 c0 {1,S} {2,S} {6,S}
4 C u0 p0 c0 {2,S} {7,S} {8,S}
5 H u0 p0 c0 {2,S}
6 H u0 p0 c0 {3,S}
7 H u0 p0 c0 {4,S}
8 H u0 p0 c0 {4,S}
9 H u0 p0 c0 {1,S}


>  <multiplicity>  (5) 
2

>  <reaction>  (5) 
rxn_1200

>  <type>  (5) 
r2

>  <role_mapnums>  (5) 
{}

>  <role_mapidx>  (5) 
{}

>  <ordered_mapped_smiles>  (5) 
[S:1]([C:2]([CH:3]([CH:4]([H:8])[H:9])[H:7])[H:6])[H:5]

>  <level_of_theory>  (5) 
wb97xd/def2tzvp

>  <lot_method>  (5) 
wb97xd

>  <lot_basis>  (5) 
def2tzvp

>  <spin_multiplicity>  (5) 
2.0

>  <optical_isomers>  (5) 
1.0

>  <modes>  (5) 
IdealGasTranslation(mass=(73.0112, 'amu')),         NonlinearRotor(             inertia = ([31.363, 134.913, 166.276

>  <frequency_value>  (5) 
unknown

>  <frequency_units>  (5) 
unknown

>  <frequency_list>  (5) 
unknown

>  <arkane_path>  (5) 
/home/calvin/Dropbox/PersonalFolders/Calvin/HAb_Converged/rxn_1200/output/Species/rxn_1200_S[CH]C=C/arkane/output.py

>  <path_exists>  (5) 
True

>  <E0_value>  (5) 
-1353189.912902829

>  <E0_units>  (5) 
kJ/mol

>  <thermo_class>  (5) 
NASA

>  <Cp0_value>  (5) 
33.257888

>  <Cp0_units>  (5) 
J/(mol*K)

>  <CpInf_value>  (5) 
207.8618

>  <CpInf_units>  (5) 
J/(mol*K)

>  <Tmin_value>  (5) 
10.0

>  <Tmin_units>  (5) 
K

>  <Tmax_value>  (5) 
3000.0

>  <Tmax_units>  (5) 
K

>  <polynomials>  (5) 
[{"name": "polynomial1", "class": "NASAPolynomial", "Tmin_value": 10.0, "Tmin_units": "K", "Tmax_value": 494.182421916781, "Tmax_units": "K", "coeffs": [3.9171373588949456, 0.005296732981537435, 0.00010660061491766757, -2.3200753792228283e-07, 1.5435566423865143e-10, -162751151.45822766, 10.011870120637145]}, {"name": "polynomial2", "class": "NASAPolynomial", "Tmin_value": 494.182421916781, "Tmin_units": "K", "Tmax_value": 3000.0, "Tmax_units": "K", "coeffs": [2.9684844905613335, 0.02976556892789463, -1.8633830366542493e-05, 5.689075317713255e-09, -6.722422089020262e-13, -162751262.7195864, 11.845549052817699]}]

>  <H298_value>  (5) 
-323416.2553145126

>  <H298_units>  (5) 
kcal/mol

>  <S298_value>  (5) 
73.32316749567646

>  <S298_units>  (5) 
cal/(mol*K)

>  <Cp_T_value_list>  (5) 
[20.043540963892376, 24.233886931081226, 27.5465186826771, 30.32748293405113, 34.761695296239196, 37.98953828173351, 42.701336869209946, 45.151374707895805, 46.535171933883085]

>  <Cp_T_units>  (5) 
cal/(mol*K)

>  <T_list>  (5) 
[300.0, 400.0, 500.0, 600.0, 800.0, 1000.0, 1500.0, 2000.0, 2400.0]

>  <T_units>  (5) 
K

>  <yaml_path>  (5) 
/home/calvin/Dropbox/PersonalFolders/Calvin/HAb_Converged/rxn_1200/output/Species/rxn_1200_S[CH]C=C/rxn_1200_SCHC=C.yml

>  <frequencies_cm1>  (5) 
[163.62652620496, 213.33663293644, 322.76891099595997, 534.6497430445601, 548.4317825817999, 640.07856866252, 767.52981620172, 810.9222964388, 939.69200515944, 969.4329185803599, 1056.3483517756, 1131.90579125156, 1228.8126880874, 1369.48974935292, 1427.04882030516, 1524.36086927488, 2717.97339061196, 3127.7744735536003, 3135.08094593408, 3196.4305927829596, 3224.57836560964]

>  <ZPE_kJmol>  (5) 
173.75927083469932

>  <E_elec_kJmol>  (5) 
-1353363.6721736635

>  <E0_minus_Eelec_plus_ZPE_kJmol>  (5) 
0.0

>  <rxn>  (5) 
rxn_1200

>  <species_type>  (5) 
r0

>  <species_folder>  (5) 
rxn_1200_S[CH]C=C

>  <frequencies_cm1_list>  (5) 
[163.62652620496, 213.33663293644, 322.76891099595997, 534.6497430445601, 548.4317825817999, 640.07856866252, 767.52981620172, 810.9222964388, 939.69200515944, 969.4329185803599, 1056.3483517756, 1131.90579125156, 1228.8126880874, 1369.48974935292, 1427.04882030516, 1524.36086927488, 2717.97339061196, 3127.7744735536003, 3135.08094593408, 3196.4305927829596, 3224.57836560964]

>  <E0_kJmol>  (5) 
-1.35319e+06

>  <H298_kJmol>  (5) 
-1.35317e+06

$$$$
