
     RDKit          3D

  6  5  0  0  0  0  0  0  0  0999 V2000
    0.2516    0.1262   -0.5980 C   0  0  0  0  0  0  0  0  0  1  0  0
   -0.2527   -0.1481    0.5813 C   0  0  0  0  0  0  0  0  0  2  0  0
    0.6059    1.1222   -0.8438 H   0  0  0  0  0  0  0  0  0  3  0  0
    0.3331   -0.6295   -1.3750 H   0  0  0  0  0  0  0  0  0  4  0  0
   -0.2793    0.6650    1.2967 H   0  0  0  0  0  0  0  0  0  5  0  0
   -0.6406   -1.0889    0.9526 H   0  0  0  0  0  0  0  0  0  6  0  0
  1  4  1  0
  1  3  1  0
  1  2  1  0
  2  5  1  0
  2  6  1  0
M  END
>  <rmg_smiles>  (1) 
[CH2][CH2]

>  <rmg_adjacency_list>  (1) 
1 C u0 p0 c0 {2,S} {3,S} {4,S}
2 C u0 p0 c0 {1,S} {5,S} {6,S}
3 H u0 p0 c0 {1,S}
4 H u0 p0 c0 {1,S}
5 H u0 p0 c0 {2,S}
6 H u0 p0 c0 {2,S}


>  <multiplicity>  (1) 
1

>  <reaction>  (1) 
rxn_1592

>  <type>  (1) 
r1h

>  <role_mapnums>  (1) 
{"r1h_a": 2, "r1h_h": 5}

>  <role_mapidx>  (1) 
{"r1h_a": 1, "r1h_h": 4}

>  <ordered_mapped_smiles>  (1) 
[CH:1]([CH:2]([H:5])[H:6])([H:3])[H:4]

>  <mol_properties>  (1) 
{"1": {"label": "donator", "atom_type": "Cs"}, "4": {"label": "d_hydrogen", "atom_type": "H0"}}

>  <level_of_theory>  (1) 
wb97xd/def2tzvp

>  <lot_method>  (1) 
wb97xd

>  <lot_basis>  (1) 
def2tzvp

>  <spin_multiplicity>  (1) 
1.0

>  <optical_isomers>  (1) 
1.0

>  <modes>  (1) 
IdealGasTranslation(mass=(28.0313, 'amu')),         NonlinearRotor(             inertia = ([3.4313, 16.5733, 20.0046

>  <frequency_value>  (1) 
unknown

>  <frequency_units>  (1) 
unknown

>  <frequency_list>  (1) 
unknown

>  <arkane_path>  (1) 
/home/calvin/Dropbox/PersonalFolders/Calvin/HAb_Converged/rxn_1592/output/Species/rxn_1592_C=C/arkane/output.py

>  <path_exists>  (1) 
True

>  <E0_value>  (1) 
-206204.08464717612

>  <E0_units>  (1) 
kJ/mol

>  <thermo_class>  (1) 
NASA

>  <Cp0_value>  (1) 
33.257888

>  <Cp0_units>  (1) 
J/(mol*K)

>  <CpInf_value>  (1) 
133.031552

>  <CpInf_units>  (1) 
J/(mol*K)

>  <Tmin_value>  (1) 
10.0

>  <Tmin_units>  (1) 
K

>  <Tmax_value>  (1) 
3000.0

>  <Tmax_units>  (1) 
K

>  <polynomials>  (1) 
[{"name": "polynomial1", "class": "NASAPolynomial", "Tmin_value": 10.0, "Tmin_units": "K", "Tmax_value": 769.5217501758626, "Tmax_units": "K", "coeffs": [4.102594925382579, -0.006879522193259702, 5.062107249177076e-05, -5.972223289849955e-08, 2.3228029141840905e-11, -24800625.606387716, 3.2220821404236424]}, {"name": "polynomial2", "class": "NASAPolynomial", "Tmin_value": 769.5217501758626, "Tmin_units": "K", "Tmax_value": 3000.0, "Tmax_units": "K", "coeffs": [0.4501873055486705, 0.01806199469136872, -9.606651718966085e-06, 2.51372192351987e-09, -2.587294024527882e-13, -24800239.83662215, 18.740105419928828]}]

>  <H298_value>  (1) 
-49281.46687172266

>  <H298_units>  (1) 
kcal/mol

>  <S298_value>  (1) 
52.28638692235232

>  <S298_units>  (1) 
cal/(mol*K)

>  <Cp_T_value_list>  (1) 
[10.27441708697483, 12.365536101969841, 14.515698252557122, 16.511337099494305, 19.738079638388314, 22.178263460277243, 26.036790662755205, 28.054735064109895, 29.07349068569704]

>  <Cp_T_units>  (1) 
cal/(mol*K)

>  <T_list>  (1) 
[300.0, 400.0, 500.0, 600.0, 800.0, 1000.0, 1500.0, 2000.0, 2400.0]

>  <T_units>  (1) 
K

>  <yaml_path>  (1) 
/home/calvin/Dropbox/PersonalFolders/Calvin/HAb_Converged/rxn_1592/output/Species/rxn_1592_C=C/rxn_1592_C=C.yml

>  <frequencies_cm1>  (1) 
[832.94471836004, 977.0690062561998, 990.3016869678398, 1058.52518612204, 1234.34061127, 1375.2030811391598, 1460.7588512410398, 1695.25953293372, 3111.1769700351597, 3128.9967969405598, 3189.2477261382396, 3215.2736005010397]

>  <ZPE_kJmol>  (1) 
133.19882255210345

>  <E_elec_kJmol>  (1) 
-206337.28346972825

>  <E0_minus_Eelec_plus_ZPE_kJmol>  (1) 
0.0

>  <rxn>  (1) 
rxn_1592

>  <species_type>  (1) 
r1

>  <species_folder>  (1) 
rxn_1592_C=C

>  <frequencies_cm1_list>  (1) 
[832.94471836004, 977.0690062561998, 990.3016869678398, 1058.52518612204, 1234.34061127, 1375.2030811391598, 1460.7588512410398, 1695.25953293372, 3111.1769700351597, 3128.9967969405598, 3189.2477261382396, 3215.2736005010397]

>  <E0_kJmol>  (1) 
-206204

>  <H298_kJmol>  (1) 
-206194

$$$$

     RDKit          3D

  7  6  0  0  0  0  0  0  0  0999 V2000
   -1.0110    0.1833    0.1410 S   0  0  0  0  0  0  0  0  0  1  0  0
    0.5431   -0.4245   -0.3267 C   0  0  0  0  0  0  0  0  0  2  0  0
    1.7768   -0.0524   -0.0490 C   0  0  0  0  0  0  0  0  0  3  0  0
   -0.5875    1.1336    0.9923 H   0  0  0  0  0  0  0  0  0  4  0  0
    2.6159   -0.6052   -0.4543 H   0  0  0  0  0  0  0  0  0  5  0  0
    1.9986    0.8011    0.5851 H   0  0  0  0  0  0  0  0  0  6  0  0
    0.4427   -1.2872   -0.9853 H   0  0  0  0  0  0  0  0  0  7  0  0
  1  2  1  0
  1  4  1  0
  2  7  1  0
  2  3  1  0
  3  6  1  0
  3  5  1  0
M  END
>  <rmg_smiles>  (2) 
[CH2][CH]S

>  <rmg_adjacency_list>  (2) 
1 S u0 p2 c0 {2,S} {7,S}
2 C u0 p0 c0 {1,S} {3,S} {4,S}
3 C u0 p0 c0 {2,S} {5,S} {6,S}
4 H u0 p0 c0 {2,S}
5 H u0 p0 c0 {3,S}
6 H u0 p0 c0 {3,S}
7 H u0 p0 c0 {1,S}


>  <multiplicity>  (2) 
1

>  <reaction>  (2) 
rxn_1592

>  <type>  (2) 
r2h

>  <role_mapnums>  (2) 
{"r2h_a": 2, "r2h_h": 7}

>  <role_mapidx>  (2) 
{"r2h_a": 1, "r2h_h": 6}

>  <ordered_mapped_smiles>  (2) 
[S:1]([CH:2]([CH:3]([H:5])[H:6])[H:7])[H:4]

>  <mol_properties>  (2) 
{"1": {"label": "acceptor", "atom_type": "Cs"}, "6": {"label": "a_hydrogen", "atom_type": "H0"}}

>  <level_of_theory>  (2) 
wb97xd/def2tzvp

>  <lot_method>  (2) 
wb97xd

>  <lot_basis>  (2) 
def2tzvp

>  <spin_multiplicity>  (2) 
1.0

>  <optical_isomers>  (2) 
1.0

>  <modes>  (2) 
IdealGasTranslation(mass=(60.0034, 'amu')),         NonlinearRotor(             inertia = ([9.90949, 86.3381, 96.2476

>  <frequency_value>  (2) 
unknown

>  <frequency_units>  (2) 
unknown

>  <frequency_list>  (2) 
unknown

>  <arkane_path>  (2) 
/home/calvin/Dropbox/PersonalFolders/Calvin/HAb_Converged/rxn_1592/output/Species/rxn_1592_SC=C/arkane/output.py

>  <path_exists>  (2) 
True

>  <E0_value>  (2) 
-1251689.3550357467

>  <E0_units>  (2) 
kJ/mol

>  <thermo_class>  (2) 
NASA

>  <Cp0_value>  (2) 
33.257888

>  <Cp0_units>  (2) 
J/(mol*K)

>  <CpInf_value>  (2) 
157.97496800000002

>  <CpInf_units>  (2) 
J/(mol*K)

>  <Tmin_value>  (2) 
10.0

>  <Tmin_units>  (2) 
K

>  <Tmax_value>  (2) 
3000.0

>  <Tmax_units>  (2) 
K

>  <polynomials>  (2) 
[{"name": "polynomial1", "class": "NASAPolynomial", "Tmin_value": 10.0, "Tmin_units": "K", "Tmax_value": 517.9881751345008, "Tmax_units": "K", "coeffs": [3.9711107046891407, 0.0017443583853736177, 6.259647595680493e-05, -1.1481378662256379e-07, 6.677590005040347e-11, -150543455.38640067, 7.6019425358555885]}, {"name": "polynomial2", "class": "NASAPolynomial", "Tmin_value": 517.9881751345008, "Tmin_units": "K", "Tmax_value": 3000.0, "Tmax_units": "K", "coeffs": [1.9412334388664418, 0.022853279601579263, -1.4266543187645568e-05, 4.363223689372777e-09, -5.176041748500143e-13, -150543317.99401155, 15.356002254055236]}]

>  <H298_value>  (2) 
-299157.7178290947

>  <H298_units>  (2) 
kcal/mol

>  <S298_value>  (2) 
64.87000162170112

>  <S298_units>  (2) 
cal/(mol*K)

>  <Cp_T_value_list>  (2) 
[15.041193047667472, 17.975616036616046, 20.49640418064756, 22.639489457144006, 26.062669003944233, 28.563290232816435, 32.24627963618119, 34.19136356603245, 35.289122516024534]

>  <Cp_T_units>  (2) 
cal/(mol*K)

>  <T_list>  (2) 
[300.0, 400.0, 500.0, 600.0, 800.0, 1000.0, 1500.0, 2000.0, 2400.0]

>  <T_units>  (2) 
K

>  <yaml_path>  (2) 
/home/calvin/Dropbox/PersonalFolders/Calvin/HAb_Converged/rxn_1592/output/Species/rxn_1592_SC=C/rxn_1592_SC=C.yml

>  <frequencies_cm1>  (2) 
[269.98926182644, 384.88079321536, 606.53334537432, 704.2505464779199, 903.88754370096, 907.73305548016, 996.6055794915999, 1086.2884077708, 1302.50917454164, 1424.26082426524, 1666.2053180448, 2696.6376672227198, 3125.46029950076, 3152.8458369569203, 3215.7611564587596]

>  <ZPE_kJmol>  (2) 
134.24406620468156

>  <E_elec_kJmol>  (2) 
-1251823.599101951

>  <E0_minus_Eelec_plus_ZPE_kJmol>  (2) 
0.0

>  <rxn>  (2) 
rxn_1592

>  <species_type>  (2) 
p0

>  <species_folder>  (2) 
rxn_1592_SC=C

>  <frequencies_cm1_list>  (2) 
[269.98926182644, 384.88079321536, 606.53334537432, 704.2505464779199, 903.88754370096, 907.73305548016, 996.6055794915999, 1086.2884077708, 1302.50917454164, 1424.26082426524, 1666.2053180448, 2696.6376672227198, 3125.46029950076, 3152.8458369569203, 3215.7611564587596]

>  <E0_kJmol>  (2) 
-1.25169e+06

>  <H298_kJmol>  (2) 
-1.25168e+06

$$$$

     RDKit          3D

 12 10  0  0  0  0  0  0  0  0999 V2000
   -1.2898    0.7772    1.1308 S   0  0  0  0  0  0  0  0  0  1  0  0
    0.2642    0.1694    0.6631 C   0  0  0  0  0  0  0  0  0  2  0  0
    1.4979    0.5415    0.9408 C   0  0  0  0  0  0  0  0  0  3  0  0
   -0.8663    1.7275    1.9822 H   0  0  0  0  0  0  0  0  0  4  0  0
    2.3371   -0.0113    0.5355 H   0  0  0  0  0  0  0  0  0  5  0  0
    1.7197    1.3950    1.5749 H   0  0  0  0  0  0  0  0  0  6  0  0
    0.6803   -1.6011   -2.1942 C   0  0  0  0  0  0  0  0  0  7  0  0
    0.1760   -1.8754   -1.0149 C   0  0  0  0  0  3  0  0  0  8  0  0
    1.0347   -0.6052   -2.4400 H   0  0  0  0  0  0  0  0  0  9  0  0
    0.7618   -2.3569   -2.9712 H   0  0  0  0  0  0  0  0  0 10  0  0
    0.1431   -0.8715   -0.1316 H   0  0  0  0  0  0  0  0  0 11  0  0
   -0.2118   -2.8163   -0.6436 H   0  0  0  0  0  0  0  0  0 12  0  0
  1  2  1  0
  1  4  1  0
  2 11  1  0
  2  3  1  0
  3  6  1  0
  3  5  1  0
  7  8  1  0
  7 10  1  0
  7  9  1  0
  8 12  1  0
M  RAD  1   8   2
M  END
>  <rmg_smiles>  (3) 
[CH2][CH]S.[CH][CH2]

>  <rmg_adjacency_list>  (3) 
multiplicity 2
1  S u0 p2 c0 {2,S} {11,S}
2  C u0 p0 c0 {1,S} {3,S} {6,S}
3  C u0 p0 c0 {2,S} {7,S} {8,S}
4  C u0 p0 c0 {5,S} {9,S} {10,S}
5  C u1 p1 c0 {4,S} {12,S}
6  H u0 p0 c0 {2,S}
7  H u0 p0 c0 {3,S}
8  H u0 p0 c0 {3,S}
9  H u0 p0 c0 {4,S}
10 H u0 p0 c0 {4,S}
11 H u0 p0 c0 {1,S}
12 H u0 p0 c0 {5,S}


>  <multiplicity>  (3) 
2

>  <reaction>  (3) 
rxn_1592

>  <type>  (3) 
ts

>  <role_mapnums>  (3) 
{"*2": 11, "*1": 2, "*3": 8, "*0": 1, "*4": 7}

>  <role_mapidx>  (3) 
{"*2": 10, "*1": 1, "*3": 7, "*0": 0, "*4": 6}

>  <ordered_mapped_smiles>  (3) 
[S:1]([CH:2]([CH:3]([H:5])[H:6])[H:11])[H:4].[CH:7]([CH:8][H:12])([H:9])[H:10]

>  <mol_properties>  (3) 
{"0": {"label": "*0", "atom_type": "S2s"}, "1": {"label": "*1", "atom_type": "Cs"}, "6": {"label": "*4", "atom_type": "Cs"}, "7": {"label": "*3", "atom_type": "C2s"}, "10": {"label": "*2", "atom_type": "H0"}}

>  <level_of_theory>  (3) 
wb97xd/def2tzvp

>  <lot_method>  (3) 
wb97xd

>  <lot_basis>  (3) 
def2tzvp

>  <spin_multiplicity>  (3) 
2.0

>  <optical_isomers>  (3) 
2.0

>  <modes>  (3) 
IdealGasTranslation(mass=(87.0269, 'amu')),         NonlinearRotor(             inertia = ([84.9405, 283.817, 347.798

>  <frequency_value>  (3) 
-1617.6

>  <frequency_units>  (3) 
cm^-1

>  <frequency_list>  (3) 
unknown

>  <arkane_path>  (3) 
/home/calvin/Dropbox/PersonalFolders/Calvin/HAb_Converged/rxn_1592/output/rxns/TS0/arkane/output.py

>  <path_exists>  (3) 
True

>  <E0_value>  (3) 
-1456090.0

>  <E0_units>  (3) 
kJ/mol

>  <thermo_class>  (3) 
unknown

>  <Cp0_value>  (3) 
unknown

>  <Cp0_units>  (3) 
unknown

>  <CpInf_value>  (3) 
unknown

>  <CpInf_units>  (3) 
unknown

>  <Tmin_value>  (3) 
unknown

>  <Tmin_units>  (3) 
unknown

>  <Tmax_value>  (3) 
unknown

>  <Tmax_units>  (3) 
unknown

>  <polynomials>  (3) 
unknown

>  <H298_value>  (3) 
unknown

>  <H298_units>  (3) 
unknown

>  <S298_value>  (3) 
unknown

>  <S298_units>  (3) 
unknown

>  <Cp_T_value_list>  (3) 
unknown

>  <Cp_T_units>  (3) 
unknown

>  <T_list>  (3) 
unknown

>  <T_units>  (3) 
unknown

>  <yaml_path>  (3) 
unknown

>  <frequencies_cm1>  (3) 
unknown

>  <ZPE_kJmol>  (3) 
unknown

>  <E_elec_kJmol>  (3) 
unknown

>  <E0_minus_Eelec_plus_ZPE_kJmol>  (3) 
unknown

>  <rxn>  (3) 
unknown

>  <species_type>  (3) 
unknown

>  <species_folder>  (3) 
unknown

>  <frequencies_cm1_list>  (3) 
[]

>  <ts_imag_freq_cm1>  (3) 
-1637.2455

>  <ts_freq_out_path>  (3) 
/home/calvin/Dropbox/PersonalFolders/Calvin/HAb_Converged/rxn_1592/output/rxns/TS0/geometry/freq.out

>  <E0_kJmol>  (3) 
-1.45609e+06

>  <H298_kJmol>  (3) 
unknown

$$$$

     RDKit          3D

  5  4  0  0  0  0  0  0  0  0999 V2000
    0.0397    0.7134    0.0000 C   0  0  0  0  0  3  0  0  0  1  0  0
    0.0458   -0.5870    0.0000 C   0  0  0  0  0  0  0  0  0  2  0  0
   -0.6871    1.5118    0.0000 H   0  0  0  0  0  0  0  0  0  3  0  0
   -0.8806   -1.1637    0.0000 H   0  0  0  0  0  0  0  0  0  4  0  0
    0.9690   -1.1600    0.0000 H   0  0  0  0  0  0  0  0  0  5  0  0
  1  3  1  0
  1  2  1  0
  2  5  1  0
  2  4  1  0
M  RAD  1   1   2
M  END
>  <rmg_smiles>  (4) 
[CH][CH2]

>  <rmg_adjacency_list>  (4) 
multiplicity 2
1 C u0 p0 c0 {2,S} {3,S} {4,S}
2 C u1 p1 c0 {1,S} {5,S}
3 H u0 p0 c0 {1,S}
4 H u0 p0 c0 {1,S}
5 H u0 p0 c0 {2,S}


>  <multiplicity>  (4) 
2

>  <reaction>  (4) 
rxn_1592

>  <type>  (4) 
r1

>  <role_mapnums>  (4) 
{}

>  <role_mapidx>  (4) 
{}

>  <ordered_mapped_smiles>  (4) 
[CH:1]([CH:2]([H:4])[H:5])[H:3]

>  <level_of_theory>  (4) 
wb97xd/def2tzvp

>  <lot_method>  (4) 
wb97xd

>  <lot_basis>  (4) 
def2tzvp

>  <spin_multiplicity>  (4) 
2.0

>  <optical_isomers>  (4) 
1.0

>  <modes>  (4) 
IdealGasTranslation(mass=(27.0235, 'amu')),         NonlinearRotor(             inertia = ([2.14183, 15.3481, 17.4899

>  <frequency_value>  (4) 
unknown

>  <frequency_units>  (4) 
unknown

>  <frequency_list>  (4) 
unknown

>  <arkane_path>  (4) 
/home/calvin/Dropbox/PersonalFolders/Calvin/HAb_Converged/rxn_1592/output/Species/rxn_1592_[CH]=C/arkane/output.py

>  <path_exists>  (4) 
True

>  <E0_value>  (4) 
-204434.59610714423

>  <E0_units>  (4) 
kJ/mol

>  <thermo_class>  (4) 
NASA

>  <Cp0_value>  (4) 
33.257888

>  <Cp0_units>  (4) 
J/(mol*K)

>  <CpInf_value>  (4) 
108.088136

>  <CpInf_units>  (4) 
J/(mol*K)

>  <Tmin_value>  (4) 
10.0

>  <Tmin_units>  (4) 
K

>  <Tmax_value>  (4) 
3000.0

>  <Tmax_units>  (4) 
K

>  <polynomials>  (4) 
[{"name": "polynomial1", "class": "NASAPolynomial", "Tmin_value": 10.0, "Tmin_units": "K", "Tmax_value": 605.1562073532106, "Tmax_units": "K", "coeffs": [4.0732302477000095, -0.005855893423713469, 5.173301484019039e-05, -7.605753070838568e-08, 3.74067872861101e-11, -24587803.17884632, 4.922911546686311]}, {"name": "polynomial2", "class": "NASAPolynomial", "Tmin_value": 605.1562073532106, "Tmin_units": "K", "Tmax_value": 3000.0, "Tmax_units": "K", "coeffs": [1.907334803595395, 0.013219860447203871, -7.347353045060493e-06, 2.024442812279225e-09, -2.192078156816895e-13, -24587628.1872574, 13.564186384006128]}]

>  <H298_value>  (4) 
-48858.50309296871

>  <H298_units>  (4) 
kcal/mol

>  <S298_value>  (4) 
55.807333309528325

>  <S298_units>  (4) 
cal/(mol*K)

>  <Cp_T_value_list>  (4) 
[10.376944352757018, 12.118158212925861, 13.730146484867369, 15.108875169207579, 17.343631711777416, 19.047527728648078, 21.716860438361014, 23.14273061905272, 23.900837148526193]

>  <Cp_T_units>  (4) 
cal/(mol*K)

>  <T_list>  (4) 
[300.0, 400.0, 500.0, 600.0, 800.0, 1000.0, 1500.0, 2000.0, 2400.0]

>  <T_units>  (4) 
K

>  <yaml_path>  (4) 
/home/calvin/Dropbox/PersonalFolders/Calvin/HAb_Converged/rxn_1592/output/Species/rxn_1592_[CH]=C/rxn_1592_CH=C.yml

>  <frequencies_cm1>  (4) 
[709.40765245324, 831.6056562226399, 928.3889473227199, 1044.4341322454, 1381.5275746188797, 1653.3915234376798, 3045.07536934484, 3137.58739557588, 3217.88305492264]

>  <ZPE_kJmol>  (4) 
95.3980343814778

>  <E_elec_kJmol>  (4) 
-204529.9941415257

>  <E0_minus_Eelec_plus_ZPE_kJmol>  (4) 
0.0

>  <rxn>  (4) 
rxn_1592

>  <species_type>  (4) 
p1

>  <species_folder>  (4) 
rxn_1592_[CH]=C

>  <frequencies_cm1_list>  (4) 
[709.40765245324, 831.6056562226399, 928.3889473227199, 1044.4341322454, 1381.5275746188797, 1653.3915234376798, 3045.07536934484, 3137.58739557588, 3217.88305492264]

>  <E0_kJmol>  (4) 
-204435

>  <H298_kJmol>  (4) 
-204424

$$$$

     RDKit          3D

  6  5  0  0  0  0  0  0  0  0999 V2000
    1.7035    0.4954    0.0162 S   0  0  0  0  0  0  0  0  0  1  0  0
    0.1927   -0.1841   -0.3584 C   0  0  0  0  0  3  0  0  0  2  0  0
   -1.0558    0.0577   -0.0460 C   0  0  0  0  0  0  0  0  0  3  0  0
    2.3611   -0.6557    0.2254 H   0  0  0  0  0  0  0  0  0  4  0  0
   -1.8677   -0.4245   -0.5802 H   0  0  0  0  0  0  0  0  0  5  0  0
   -1.3294    0.7333    0.7635 H   0  0  0  0  0  0  0  0  0  6  0  0
  1  2  1  0
  1  4  1  0
  2  3  1  0
  3  6  1  0
  3  5  1  0
M  RAD  1   2   2
M  END
>  <rmg_smiles>  (5) 
[CH2][C]S

>  <rmg_adjacency_list>  (5) 
multiplicity 2
1 S u0 p2 c0 {3,S} {6,S}
2 C u0 p0 c0 {3,S} {4,S} {5,S}
3 C u1 p1 c0 {1,S} {2,S}
4 H u0 p0 c0 {2,S}
5 H u0 p0 c0 {2,S}
6 H u0 p0 c0 {1,S}


>  <multiplicity>  (5) 
2

>  <reaction>  (5) 
rxn_1592

>  <type>  (5) 
r2

>  <role_mapnums>  (5) 
{}

>  <role_mapidx>  (5) 
{}

>  <ordered_mapped_smiles>  (5) 
[S:1]([CH:2][CH:3]([H:5])[H:6])[H:4]

>  <level_of_theory>  (5) 
wb97xd/def2tzvp

>  <lot_method>  (5) 
wb97xd

>  <lot_basis>  (5) 
def2tzvp

>  <spin_multiplicity>  (5) 
2.0

>  <optical_isomers>  (5) 
2.0

>  <modes>  (5) 
IdealGasTranslation(mass=(58.9956, 'amu')),         NonlinearRotor(             inertia = ([5.86277, 89.2142, 93.3691

>  <frequency_value>  (5) 
unknown

>  <frequency_units>  (5) 
unknown

>  <frequency_list>  (5) 
unknown

>  <arkane_path>  (5) 
/home/calvin/Dropbox/PersonalFolders/Calvin/HAb_Converged/rxn_1592/output/Species/rxn_1592_S[C]=C/arkane/output.py

>  <path_exists>  (5) 
True

>  <E0_value>  (5) 
-1249945.739965663

>  <E0_units>  (5) 
kJ/mol

>  <thermo_class>  (5) 
NASA

>  <Cp0_value>  (5) 
33.257888

>  <Cp0_units>  (5) 
J/(mol*K)

>  <CpInf_value>  (5) 
133.031552

>  <CpInf_units>  (5) 
J/(mol*K)

>  <Tmin_value>  (5) 
10.0

>  <Tmin_units>  (5) 
K

>  <Tmax_value>  (5) 
3000.0

>  <Tmax_units>  (5) 
K

>  <polynomials>  (5) 
[{"name": "polynomial1", "class": "NASAPolynomial", "Tmin_value": 10.0, "Tmin_units": "K", "Tmax_value": 500.4373941125709, "Tmax_units": "K", "coeffs": [3.9544503618703177, 0.00288540158517841, 5.9501912357679076e-05, -1.2751128088786263e-07, 8.36716425668071e-11, -150333746.69380102, 8.836104694085698]}, {"name": "polynomial2", "class": "NASAPolynomial", "Tmin_value": 500.4373941125709, "Tmin_units": "K", "Tmax_value": 3000.0, "Tmax_units": "K", "coeffs": [3.3931557018330865, 0.016783085142031518, -1.0363773498456626e-05, 3.1407752366534178e-09, -3.704801016467525e-13, -150333808.36178187, 9.978022482383688]}]

>  <H298_value>  (5) 
-298740.9807491706

>  <H298_units>  (5) 
kcal/mol

>  <S298_value>  (5) 
67.38019353338852

>  <S298_units>  (5) 
cal/(mol*K)

>  <Cp_T_value_list>  (5) 
[14.725555227131716, 17.110223646785578, 19.004046837611085, 20.592311228942858, 23.137317633263997, 25.00454740106551, 27.768933417761488, 29.21740487092914, 30.014093213569257]

>  <Cp_T_units>  (5) 
cal/(mol*K)

>  <T_list>  (5) 
[300.0, 400.0, 500.0, 600.0, 800.0, 1000.0, 1500.0, 2000.0, 2400.0]

>  <T_units>  (5) 
K

>  <yaml_path>  (5) 
/home/calvin/Dropbox/PersonalFolders/Calvin/HAb_Converged/rxn_1592/output/Species/rxn_1592_S[C]=C/rxn_1592_SC=C.yml

>  <frequencies_cm1>  (5) 
[267.83302843596, 308.40317770651995, 554.8455468706799, 716.0205593164001, 907.1287607719999, 954.35988580296, 1012.9078026412799, 1396.37399688072, 1687.9187256266398, 2665.5714256350398, 3064.4952038297997, 3160.31024999976]

>  <ZPE_kJmol>  (5) 
99.86529271775969

>  <E_elec_kJmol>  (5) 
-1250045.6052583808

>  <E0_minus_Eelec_plus_ZPE_kJmol>  (5) 
0.0

>  <rxn>  (5) 
rxn_1592

>  <species_type>  (5) 
r0

>  <species_folder>  (5) 
rxn_1592_S[C]=C

>  <frequencies_cm1_list>  (5) 
[267.83302843596, 308.40317770651995, 554.8455468706799, 716.0205593164001, 907.1287607719999, 954.35988580296, 1012.9078026412799, 1396.37399688072, 1687.9187256266398, 2665.5714256350398, 3064.4952038297997, 3160.31024999976]

>  <E0_kJmol>  (5) 
-1.24995e+06

>  <H298_kJmol>  (5) 
-1.24993e+06

$$$$
