
     RDKit          3D

  7  6  0  0  0  0  0  0  0  0999 V2000
    0.4570    0.9904    0.6373 C   0  0  0  0  0  0  0  0  0  1  0  0
    0.2971   -0.1946   -0.2552 C   0  0  0  0  0  0  0  0  0  2  0  0
   -0.7211   -0.8124   -0.4064 O   0  0  0  0  0  0  0  0  0  3  0  0
   -0.5052    1.1823    1.1139 H   0  0  0  0  0  0  0  0  0  4  0  0
    1.1733    0.8099    1.4398 H   0  0  0  0  0  0  0  0  0  5  0  0
    0.7174    1.8932    0.0832 H   0  0  0  0  0  0  0  0  0  6  0  0
    1.2147   -0.4943   -0.8029 H   0  0  0  0  0  0  0  0  0  7  0  0
  1  5  1  0
  1  4  1  0
  1  6  1  0
  1  2  1  0
  2  7  1  0
  2  3  1  0
M  END
>  <rmg_smiles>  (1) 
C[CH]O

>  <rmg_adjacency_list>  (1) 
1 O u0 p2 c0 {3,S}
2 C u0 p0 c0 {3,S} {4,S} {5,S} {6,S}
3 C u0 p0 c0 {1,S} {2,S} {7,S}
4 H u0 p0 c0 {2,S}
5 H u0 p0 c0 {2,S}
6 H u0 p0 c0 {2,S}
7 H u0 p0 c0 {3,S}


>  <multiplicity>  (1) 
1

>  <reaction>  (1) 
rxn_238

>  <type>  (1) 
r1h

>  <role_mapnums>  (1) 
{"r1h_a": 1, "r1h_h": 4}

>  <role_mapidx>  (1) 
{"r1h_a": 0, "r1h_h": 3}

>  <ordered_mapped_smiles>  (1) 
[C:1]([CH:2]([OH:3])[H:7])([H:4])([H:5])[H:6]

>  <mol_properties>  (1) 
{"0": {"label": "donator", "atom_type": "Cs"}, "3": {"label": "d_hydrogen", "atom_type": "H0"}}

>  <level_of_theory>  (1) 
wb97xd/def2tzvp

>  <lot_method>  (1) 
wb97xd

>  <lot_basis>  (1) 
def2tzvp

>  <spin_multiplicity>  (1) 
1.0

>  <optical_isomers>  (1) 
1.0

>  <modes>  (1) 
IdealGasTranslation(mass=(44.0262, 'amu')),         NonlinearRotor(             inertia = ([8.78933, 49.4181, 55.1019

>  <frequency_value>  (1) 
unknown

>  <frequency_units>  (1) 
unknown

>  <frequency_list>  (1) 
unknown

>  <arkane_path>  (1) 
/home/calvin/Dropbox/PersonalFolders/Calvin/HAb_Converged/rxn_238/output/Species/rxn_238_CC=O/arkane/output.py

>  <path_exists>  (1) 
True

>  <E0_value>  (1) 
-403770.1896465916

>  <E0_units>  (1) 
kJ/mol

>  <thermo_class>  (1) 
NASA

>  <Cp0_value>  (1) 
33.257888

>  <Cp0_units>  (1) 
J/(mol*K)

>  <CpInf_value>  (1) 
157.97496800000002

>  <CpInf_units>  (1) 
J/(mol*K)

>  <Tmin_value>  (1) 
10.0

>  <Tmin_units>  (1) 
K

>  <Tmax_value>  (1) 
3000.0

>  <Tmax_units>  (1) 
K

>  <polynomials>  (1) 
[{"name": "polynomial1", "class": "NASAPolynomial", "Tmin_value": 10.0, "Tmin_units": "K", "Tmax_value": 551.7368857165849, "Tmax_units": "K", "coeffs": [3.97507673873536, 0.0013024114860969774, 4.26202346281644e-05, -6.20396934088937e-08, 2.909703548783593e-11, -48562335.21276312, 7.1115196041382465]}, {"name": "polynomial2", "class": "NASAPolynomial", "Tmin_value": 551.7368857165849, "Tmin_units": "K", "Tmax_value": 3000.0, "Tmax_units": "K", "coeffs": [1.253916366948188, 0.02103096863478627, -1.101717280527888e-05, 2.7726483449040734e-09, -2.712718236361615e-13, -48562034.9489899, 18.621232079227195]}]

>  <H298_value>  (1) 
-96500.38809812289

>  <H298_units>  (1) 
kcal/mol

>  <S298_value>  (1) 
62.69347809778407

>  <S298_units>  (1) 
cal/(mol*K)

>  <Cp_T_value_list>  (1) 
[13.437958478765879, 16.075750628949308, 18.57033382696412, 20.8061525224228, 24.51454443177339, 27.362022612100347, 31.78756397344111, 33.95738468130023, 34.97139336232206]

>  <Cp_T_units>  (1) 
cal/(mol*K)

>  <T_list>  (1) 
[300.0, 400.0, 500.0, 600.0, 800.0, 1000.0, 1500.0, 2000.0, 2400.0]

>  <T_units>  (1) 
K

>  <yaml_path>  (1) 
/home/calvin/Dropbox/PersonalFolders/Calvin/HAb_Converged/rxn_238/output/Species/rxn_238_CC=O/rxn_238_CC=O.yml

>  <frequencies_cm1>  (1) 
[154.22562330188, 509.85992603936, 771.9521547477999, 887.042828711, 1124.5718509298, 1132.0911998551999, 1368.1506872155198, 1416.2127174702, 1447.6566432504799, 1456.3502466656, 1831.5073886678397, 2863.5603463812795, 3014.3936789350796, 3081.3536527904, 3132.28608290884]

>  <ZPE_kJmol>  (1) 
144.69564018265137

>  <E_elec_kJmol>  (1) 
-403914.8852867742

>  <E0_minus_Eelec_plus_ZPE_kJmol>  (1) 
0.0

>  <rxn>  (1) 
rxn_238

>  <species_type>  (1) 
r0

>  <species_folder>  (1) 
rxn_238_CC=O

>  <frequencies_cm1_list>  (1) 
[154.22562330188, 509.85992603936, 771.9521547477999, 887.042828711, 1124.5718509298, 1132.0911998551999, 1368.1506872155198, 1416.2127174702, 1447.6566432504799, 1456.3502466656, 1831.5073886678397, 2863.5603463812795, 3014.3936789350796, 3081.3536527904, 3132.28608290884]

>  <E0_kJmol>  (1) 
-403770

>  <H298_kJmol>  (1) 
-403758

$$$$

     RDKit          3D

  3  2  0  0  0  0  0  0  0  0999 V2000
    0.8785    0.0991   -0.2161 H   0  0  0  0  0  0  0  0  0  1  0  0
   -0.0535    0.0389    0.0491 O   0  0  0  0  0  0  0  0  0  2  0  0
   -0.2972   -0.7337   -0.4861 H   0  0  0  0  0  0  0  0  0  3  0  0
  1  2  1  0
  2  3  1  0
M  END
>  <rmg_smiles>  (2) 
O

>  <rmg_adjacency_list>  (2) 
1 H u0 p0 c0 {2,S}
2 O u0 p2 c0 {1,S} {3,S}
3 H u0 p0 c0 {2,S}


>  <multiplicity>  (2) 
1

>  <reaction>  (2) 
rxn_238

>  <type>  (2) 
r2h

>  <role_mapnums>  (2) 
{"r2h_a": 2, "r2h_h": 1}

>  <role_mapidx>  (2) 
{"r2h_a": 1, "r2h_h": 0}

>  <ordered_mapped_smiles>  (2) 
[H:1][O:2][H:3]

>  <mol_properties>  (2) 
{"0": {"label": "a_hydrogen", "atom_type": "H0"}, "1": {"label": "acceptor", "atom_type": "O2s"}}

>  <level_of_theory>  (2) 
wb97xd/def2tzvp

>  <lot_method>  (2) 
wb97xd

>  <lot_basis>  (2) 
def2tzvp

>  <spin_multiplicity>  (2) 
1.0

>  <optical_isomers>  (2) 
1.0

>  <modes>  (2) 
IdealGasTranslation(mass=(18.0106, 'amu')),         NonlinearRotor(             inertia = ([0.602336, 1.17002, 1.77235

>  <frequency_value>  (2) 
unknown

>  <frequency_units>  (2) 
unknown

>  <frequency_list>  (2) 
unknown

>  <arkane_path>  (2) 
/home/calvin/Dropbox/PersonalFolders/Calvin/HAb_Converged/rxn_238/output/Species/rxn_238_O/arkane/output.py

>  <path_exists>  (2) 
True

>  <E0_value>  (2) 
-200631.8610370755

>  <E0_units>  (2) 
kJ/mol

>  <thermo_class>  (2) 
NASA

>  <Cp0_value>  (2) 
33.257888

>  <Cp0_units>  (2) 
J/(mol*K)

>  <CpInf_value>  (2) 
58.201304

>  <CpInf_units>  (2) 
J/(mol*K)

>  <Tmin_value>  (2) 
10.0

>  <Tmin_units>  (2) 
K

>  <Tmax_value>  (2) 
3000.0

>  <Tmax_units>  (2) 
K

>  <polynomials>  (2) 
[{"name": "polynomial1", "class": "NASAPolynomial", "Tmin_value": 10.0, "Tmin_units": "K", "Tmax_value": 775.5892611220346, "Tmax_units": "K", "coeffs": [4.0046377604896435, -0.0002349968237338005, 9.297667881726044e-07, 1.2709781190462173e-09, -1.099134861879461e-12, -24130439.408818465, -0.1238602766167563]}, {"name": "polynomial2", "class": "NASAPolynomial", "Tmin_value": 775.5892611220346, "Tmin_units": "K", "Tmax_value": 3000.0, "Tmax_units": "K", "coeffs": [3.5165154437069566, 0.001116128343838406, 5.723157882575294e-07, -3.60634757198529e-10, 5.17568046911035e-14, -24130328.613551635, 2.333142915795675]}]

>  <H298_value>  (2) 
-47949.795051442925

>  <H298_units>  (2) 
kcal/mol

>  <S298_value>  (2) 
45.0524244619197

>  <S298_units>  (2) 
cal/(mol*K)

>  <Cp_T_value_list>  (2) 
[8.034735208537397, 8.172598301648419, 8.365657236320523, 8.605476742654242, 9.165502751993213, 9.72952523102407, 10.975927733177299, 11.88561344031021, 12.367407656630238]

>  <Cp_T_units>  (2) 
cal/(mol*K)

>  <T_list>  (2) 
[300.0, 400.0, 500.0, 600.0, 800.0, 1000.0, 1500.0, 2000.0, 2400.0]

>  <T_units>  (2) 
K

>  <yaml_path>  (2) 
/home/calvin/Dropbox/PersonalFolders/Calvin/HAb_Converged/rxn_238/output/Species/rxn_238_O/rxn_238_O.yml

>  <frequencies_cm1>  (2) 
[1605.0960156821197, 3829.7657818612397, 3938.29848484384]

>  <ZPE_kJmol>  (2) 
56.06396479185102

>  <E_elec_kJmol>  (2) 
-200687.92500186732

>  <E0_minus_Eelec_plus_ZPE_kJmol>  (2) 
0.0

>  <rxn>  (2) 
rxn_238

>  <species_type>  (2) 
p1

>  <species_folder>  (2) 
rxn_238_O

>  <frequencies_cm1_list>  (2) 
[1605.0960156821197, 3829.7657818612397, 3938.29848484384]

>  <E0_kJmol>  (2) 
-200632

>  <H298_kJmol>  (2) 
-200622

$$$$

     RDKit          3D

  9  7  0  0  0  0  0  0  0  0999 V2000
    0.6664    0.5382    0.4797 C   0  0  0  0  0  0  0  0  0  1  0  0
    0.5064   -0.6468   -0.4128 C   0  0  0  0  0  0  0  0  0  2  0  0
   -0.5117   -1.2647   -0.5641 O   0  0  0  0  0  0  0  0  0  3  0  0
   -0.4310    0.7571    1.0232 H   0  0  0  0  0  0  0  0  0  4  0  0
    1.3827    0.3577    1.2822 H   0  0  0  0  0  0  0  0  0  5  0  0
    0.9268    1.4409   -0.0744 H   0  0  0  0  0  0  0  0  0  6  0  0
    1.4241   -0.9465   -0.9605 H   0  0  0  0  0  0  0  0  0  7  0  0
   -1.6312    0.6796    1.3647 O   0  0  0  0  0  1  0  0  0  8  0  0
   -1.8748   -0.0930    0.8296 H   0  0  0  0  0  0  0  0  0  9  0  0
  1  5  1  0
  1  4  1  0
  1  6  1  0
  1  2  1  0
  2  7  1  0
  2  3  1  0
  8  9  1  0
M  RAD  1   8   2
M  END
>  <rmg_smiles>  (3) 
C[CH]O.[OH]

>  <rmg_adjacency_list>  (3) 
multiplicity 2
1 O u0 p2 c0 {4,S}
2 O u1 p2 c0 {9,S}
3 C u0 p0 c0 {4,S} {5,S} {6,S} {7,S}
4 C u0 p0 c0 {1,S} {3,S} {8,S}
5 H u0 p0 c0 {3,S}
6 H u0 p0 c0 {3,S}
7 H u0 p0 c0 {3,S}
8 H u0 p0 c0 {4,S}
9 H u0 p0 c0 {2,S}


>  <multiplicity>  (3) 
2

>  <reaction>  (3) 
rxn_238

>  <type>  (3) 
ts

>  <role_mapnums>  (3) 
{"*2": 4, "*1": 1, "*3": 8, "*0": 2, "*4": 9}

>  <role_mapidx>  (3) 
{"*2": 3, "*1": 0, "*3": 7, "*0": 1, "*4": 8}

>  <ordered_mapped_smiles>  (3) 
[C:1]([CH:2]([OH:3])[H:7])([H:4])([H:5])[H:6].[O:8][H:9]

>  <mol_properties>  (3) 
{"0": {"label": "*1", "atom_type": "Cs"}, "1": {"label": "*0", "atom_type": "Cs"}, "3": {"label": "*2", "atom_type": "H0"}, "7": {"label": "*3", "atom_type": "O2s"}, "8": {"label": "*4", "atom_type": "H0"}}

>  <level_of_theory>  (3) 
wb97xd/def2tzvp

>  <lot_method>  (3) 
wb97xd

>  <lot_basis>  (3) 
def2tzvp

>  <spin_multiplicity>  (3) 
2.0

>  <optical_isomers>  (3) 
1.0

>  <modes>  (3) 
IdealGasTranslation(mass=(61.029, 'amu')),         NonlinearRotor(             inertia = ([45.5912, 97.7647, 140.109

>  <frequency_value>  (3) 
-1510.56

>  <frequency_units>  (3) 
cm^-1

>  <frequency_list>  (3) 
unknown

>  <arkane_path>  (3) 
/home/calvin/Dropbox/PersonalFolders/Calvin/HAb_Converged/rxn_238/output/rxns/TS0/arkane/output.py

>  <path_exists>  (3) 
True

>  <E0_value>  (3) 
-602602.0

>  <E0_units>  (3) 
kJ/mol

>  <thermo_class>  (3) 
unknown

>  <Cp0_value>  (3) 
unknown

>  <Cp0_units>  (3) 
unknown

>  <CpInf_value>  (3) 
unknown

>  <CpInf_units>  (3) 
unknown

>  <Tmin_value>  (3) 
unknown

>  <Tmin_units>  (3) 
unknown

>  <Tmax_value>  (3) 
unknown

>  <Tmax_units>  (3) 
unknown

>  <polynomials>  (3) 
unknown

>  <H298_value>  (3) 
unknown

>  <H298_units>  (3) 
unknown

>  <S298_value>  (3) 
unknown

>  <S298_units>  (3) 
unknown

>  <Cp_T_value_list>  (3) 
unknown

>  <Cp_T_units>  (3) 
unknown

>  <T_list>  (3) 
unknown

>  <T_units>  (3) 
unknown

>  <yaml_path>  (3) 
unknown

>  <frequencies_cm1>  (3) 
unknown

>  <ZPE_kJmol>  (3) 
unknown

>  <E_elec_kJmol>  (3) 
unknown

>  <E0_minus_Eelec_plus_ZPE_kJmol>  (3) 
unknown

>  <rxn>  (3) 
unknown

>  <species_type>  (3) 
unknown

>  <species_folder>  (3) 
unknown

>  <frequencies_cm1_list>  (3) 
[]

>  <ts_imag_freq_cm1>  (3) 
-1528.9091

>  <ts_freq_out_path>  (3) 
/home/calvin/Dropbox/PersonalFolders/Calvin/HAb_Converged/rxn_238/output/rxns/TS0/geometry/freq.out

>  <E0_kJmol>  (3) 
-602602

>  <H298_kJmol>  (3) 
unknown

$$$$

     RDKit          3D

  6  5  0  0  0  0  0  0  0  0999 V2000
   -0.7133   -0.0465   -0.1138 C   0  0  0  0  0  0  0  0  0  1  0  0
    0.6837    0.0990    0.1040 C   0  0  0  0  0  0  0  0  0  2  0  0
    1.4284   -0.8504    0.3164 O   0  0  0  0  0  1  0  0  0  3  0  0
   -1.3425    0.8143   -0.2988 H   0  0  0  0  0  0  0  0  0  4  0  0
   -1.1519   -1.0358   -0.0939 H   0  0  0  0  0  0  0  0  0  5  0  0
    1.0889    1.1261    0.0750 H   0  0  0  0  0  0  0  0  0  6  0  0
  1  5  1  0
  1  4  1  0
  1  2  1  0
  2  3  1  0
  2  6  1  0
M  RAD  1   3   2
M  END
>  <rmg_smiles>  (4) 
[CH2][CH][O]

>  <rmg_adjacency_list>  (4) 
multiplicity 2
1 O u1 p2 c0 {3,S}
2 C u0 p0 c0 {3,S} {4,S} {5,S}
3 C u0 p0 c0 {1,S} {2,S} {6,S}
4 H u0 p0 c0 {2,S}
5 H u0 p0 c0 {2,S}
6 H u0 p0 c0 {3,S}


>  <multiplicity>  (4) 
2

>  <reaction>  (4) 
rxn_238

>  <type>  (4) 
r1

>  <role_mapnums>  (4) 
{}

>  <role_mapidx>  (4) 
{}

>  <ordered_mapped_smiles>  (4) 
[CH:1]([CH:2]([O:3])[H:6])([H:4])[H:5]

>  <level_of_theory>  (4) 
wb97xd/def2tzvp

>  <lot_method>  (4) 
wb97xd

>  <lot_basis>  (4) 
def2tzvp

>  <spin_multiplicity>  (4) 
2.0

>  <optical_isomers>  (4) 
1.0

>  <modes>  (4) 
IdealGasTranslation(mass=(43.0184, 'amu')),         NonlinearRotor(             inertia = ([7.46923, 43.7555, 51.2248

>  <frequency_value>  (4) 
unknown

>  <frequency_units>  (4) 
unknown

>  <frequency_list>  (4) 
unknown

>  <arkane_path>  (4) 
/home/calvin/Dropbox/PersonalFolders/Calvin/HAb_Converged/rxn_238/output/Species/rxn_238_[CH2]C=O/arkane/output.py

>  <path_exists>  (4) 
True

>  <E0_value>  (4) 
-402064.8713042213

>  <E0_units>  (4) 
kJ/mol

>  <thermo_class>  (4) 
NASA

>  <Cp0_value>  (4) 
33.257888

>  <Cp0_units>  (4) 
J/(mol*K)

>  <CpInf_value>  (4) 
133.031552

>  <CpInf_units>  (4) 
J/(mol*K)

>  <Tmin_value>  (4) 
10.0

>  <Tmin_units>  (4) 
K

>  <Tmax_value>  (4) 
3000.0

>  <Tmax_units>  (4) 
K

>  <polynomials>  (4) 
[{"name": "polynomial1", "class": "NASAPolynomial", "Tmin_value": 10.0, "Tmin_units": "K", "Tmax_value": 528.0713723584518, "Tmax_units": "K", "coeffs": [4.069068181720393, -0.006445847334327831, 8.24519976252606e-05, -1.4303373223005544e-07, 8.214673664772e-11, -48357233.95188342, 7.286659191587968]}, {"name": "polynomial2", "class": "NASAPolynomial", "Tmin_value": 528.0713723584518, "Tmin_units": "K", "Tmax_value": 3000.0, "Tmax_units": "K", "coeffs": [1.7695732635792571, 0.01876974415384689, -1.1322603147409724e-05, 3.314768491708994e-09, -3.755982674490112e-13, -48357099.81311182, 15.882697555195485]}]

>  <H298_value>  (4) 
-96093.00709441646

>  <H298_units>  (4) 
kcal/mol

>  <S298_value>  (4) 
61.819845521600215

>  <S298_units>  (4) 
cal/(mol*K)

>  <Cp_T_value_list>  (4) 
[12.637583235282603, 15.166054906543657, 17.31671305522784, 19.122083502158667, 22.022657621394718, 24.156252691896597, 27.29271108597069, 28.86859523774997, 29.72995192031171]

>  <Cp_T_units>  (4) 
cal/(mol*K)

>  <T_list>  (4) 
[300.0, 400.0, 500.0, 600.0, 800.0, 1000.0, 1500.0, 2000.0, 2400.0]

>  <T_units>  (4) 
K

>  <yaml_path>  (4) 
/home/calvin/Dropbox/PersonalFolders/Calvin/HAb_Converged/rxn_238/output/Species/rxn_238_[CH2]C=O/rxn_238_CH2C=O.yml

>  <frequencies_cm1>  (4) 
[449.66393272424, 506.48823624724, 754.00185512132, 972.8389432990799, 977.2269469185599, 1153.37198736188, 1391.8692545108001, 1463.54684728096, 1583.9044989846002, 2931.70144171164, 3126.8886324473197, 3242.4599953829197]

>  <ZPE_kJmol>  (4) 
110.97737295072427

>  <E_elec_kJmol>  (4) 
-402175.848677172

>  <E0_minus_Eelec_plus_ZPE_kJmol>  (4) 
0.0

>  <rxn>  (4) 
rxn_238

>  <species_type>  (4) 
p0

>  <species_folder>  (4) 
rxn_238_[CH2]C=O

>  <frequencies_cm1_list>  (4) 
[449.66393272424, 506.48823624724, 754.00185512132, 972.8389432990799, 977.2269469185599, 1153.37198736188, 1391.8692545108001, 1463.54684728096, 1583.9044989846002, 2931.70144171164, 3126.8886324473197, 3242.4599953829197]

>  <E0_kJmol>  (4) 
-402065

>  <H298_kJmol>  (4) 
-402053

$$$$

     RDKit          3D

  2  1  0  0  0  0  0  0  0  0999 V2000
    0.0000    0.0000    0.4855 O   0  0  0  0  0  1  0  0  0  1  0  0
    0.0000    0.0000   -0.4855 H   0  0  0  0  0  0  0  0  0  2  0  0
  1  2  1  0
M  RAD  1   1   2
M  END
>  <rmg_smiles>  (5) 
[OH]

>  <rmg_adjacency_list>  (5) 
multiplicity 2
1 O u1 p2 c0 {2,S}
2 H u0 p0 c0 {1,S}


>  <multiplicity>  (5) 
2

>  <reaction>  (5) 
rxn_238

>  <type>  (5) 
r2

>  <role_mapnums>  (5) 
{}

>  <role_mapidx>  (5) 
{}

>  <ordered_mapped_smiles>  (5) 
[O:1][H:2]

>  <level_of_theory>  (5) 
wb97xd/def2tzvp

>  <lot_method>  (5) 
wb97xd

>  <lot_basis>  (5) 
def2tzvp

>  <spin_multiplicity>  (5) 
2.0

>  <optical_isomers>  (5) 
1.0

>  <modes>  (5) 
IdealGasTranslation(mass=(17.0027, 'amu')),         LinearRotor(inertia=(0.893825, 'amu*angstrom^2'), symmetry=1),         HarmonicOscillator(frequencies=([3770.81

>  <frequency_value>  (5) 
unknown

>  <frequency_units>  (5) 
unknown

>  <frequency_list>  (5) 
unknown

>  <arkane_path>  (5) 
/home/calvin/Dropbox/PersonalFolders/Calvin/HAb_Converged/rxn_238/output/Species/rxn_238_[OH]/arkane/output.py

>  <path_exists>  (5) 
True

>  <E0_value>  (5) 
-198836.1106552763

>  <E0_units>  (5) 
kJ/mol

>  <thermo_class>  (5) 
NASA

>  <Cp0_value>  (5) 
29.100652

>  <Cp0_units>  (5) 
J/(mol*K)

>  <CpInf_value>  (5) 
37.415124

>  <CpInf_units>  (5) 
J/(mol*K)

>  <Tmin_value>  (5) 
10.0

>  <Tmin_units>  (5) 
K

>  <Tmax_value>  (5) 
3000.0

>  <Tmax_units>  (5) 
K

>  <polynomials>  (5) 
[{"name": "polynomial1", "class": "NASAPolynomial", "Tmin_value": 10.0, "Tmin_units": "K", "Tmax_value": 985.6459359324402, "Tmax_units": "K", "coeffs": [3.49686777077684, 0.00018334165413566602, -9.927422114975035e-07, 1.559335065614597e-09, -6.051175734082516e-13, -23914460.190001234, 1.4722271748407303]}, {"name": "polynomial2", "class": "NASAPolynomial", "Tmin_value": 985.6459359324402, "Tmin_units": "K", "Tmax_value": 3000.0, "Tmax_units": "K", "coeffs": [3.4538997471416084, -0.0002990851320361188, 7.409868333423891e-07, -2.8938793165350344e-10, 3.527321549332907e-14, -23914419.81566734, 1.8407453398243376]}]

>  <H298_value>  (5) 
-47520.89563584726

>  <H298_units>  (5) 
kcal/mol

>  <S298_value>  (5) 
42.56065351108258

>  <S298_units>  (5) 
cal/(mol*K)

>  <Cp_T_value_list>  (5) 
[6.95467440837288, 6.946622347988586, 6.950155535415497, 6.9708793647131895, 7.071890602250594, 7.236783548847422, 7.699190754845551, 8.085833580657471, 8.29452334304518]

>  <Cp_T_units>  (5) 
cal/(mol*K)

>  <T_list>  (5) 
[300.0, 400.0, 500.0, 600.0, 800.0, 1000.0, 1500.0, 2000.0, 2400.0]

>  <T_units>  (5) 
K

>  <yaml_path>  (5) 
/home/calvin/Dropbox/PersonalFolders/Calvin/HAb_Converged/rxn_238/output/Species/rxn_238_[OH]/rxn_238_OH.yml

>  <frequencies_cm1>  (5) 
[3725.55927963024]

>  <ZPE_kJmol>  (5) 
22.28379948603074

>  <E_elec_kJmol>  (5) 
-198858.39445476237

>  <E0_minus_Eelec_plus_ZPE_kJmol>  (5) 
0.0

>  <rxn>  (5) 
rxn_238

>  <species_type>  (5) 
r1

>  <species_folder>  (5) 
rxn_238_[OH]

>  <frequencies_cm1_list>  (5) 
[3725.55927963024]

>  <E0_kJmol>  (5) 
-198836

>  <H298_kJmol>  (5) 
-198827

$$$$
