
     RDKit          3D

 10  9  0  0  0  0  0  0  0  0999 V2000
   -0.9817   -1.5330   -0.6065 C   0  0  0  0  0  2  0  0  0  1  0  0
   -0.4385   -0.6304   -0.0203 C   0  0  0  0  0  2  0  0  0  2  0  0
    0.2509    0.3885    0.6698 C   0  0  0  0  0  0  0  0  0  3  0  0
    0.9188    1.4877   -0.1105 C   0  0  0  0  0  0  0  0  0  4  0  0
   -1.4801   -2.3165   -1.1249 H   0  0  0  0  0  0  0  0  0  5  0  0
    1.1197   -0.1069    1.0980 H   0  0  0  0  0  0  0  0  0  6  0  0
   -0.2002    0.6856    1.6143 H   0  0  0  0  0  0  0  0  0  7  0  0
    0.1813    2.2044   -0.4813 H   0  0  0  0  0  0  0  0  0  8  0  0
    1.6208    2.0297    0.5258 H   0  0  0  0  0  0  0  0  0  9  0  0
    1.4572    1.0853   -0.9690 H   0  0  0  0  0  0  0  0  0 10  0  0
  1  5  1  0
  1  2  1  0
  2  3  1  0
  3  4  1  0
  3  6  1  0
  3  7  1  0
  4  8  1  0
  4  9  1  0
  4 10  1  0
M  RAD  2   1   3   2   3
M  END
>  <rmg_smiles>  (1) 
[CH][C]CC

>  <rmg_adjacency_list>  (1) 
1  C u0 p0 c0 {2,S} {3,S} {5,S} {6,S}
2  C u0 p0 c0 {1,S} {7,S} {8,S} {9,S}
3  C u0 p1 c0 {1,S} {4,S}
4  C u0 p1 c0 {3,S} {10,S}
5  H u0 p0 c0 {1,S}
6  H u0 p0 c0 {1,S}
7  H u0 p0 c0 {2,S}
8  H u0 p0 c0 {2,S}
9  H u0 p0 c0 {2,S}
10 H u0 p0 c0 {4,S}


>  <multiplicity>  (1) 
1

>  <reaction>  (1) 
rxn_1284

>  <type>  (1) 
r1h

>  <role_mapnums>  (1) 
{"r1h_a": 3, "r1h_h": 6}

>  <role_mapidx>  (1) 
{"r1h_a": 2, "r1h_h": 5}

>  <ordered_mapped_smiles>  (1) 
[C:1]([C:2][C:3]([C:4]([H:8])([H:9])[H:10])([H:6])[H:7])[H:5]

>  <mol_properties>  (1) 
{"2": {"label": "donator", "atom_type": "Cs"}, "5": {"label": "d_hydrogen", "atom_type": "H0"}}

>  <level_of_theory>  (1) 
wb97xd/def2tzvp

>  <lot_method>  (1) 
wb97xd

>  <lot_basis>  (1) 
def2tzvp

>  <spin_multiplicity>  (1) 
1.0

>  <optical_isomers>  (1) 
1.0

>  <modes>  (1) 
IdealGasTranslation(mass=(54.047, 'amu')),         NonlinearRotor(             inertia = ([18.311, 110.882, 122.965

>  <frequency_value>  (1) 
unknown

>  <frequency_units>  (1) 
unknown

>  <frequency_list>  (1) 
unknown

>  <arkane_path>  (1) 
/home/calvin/Dropbox/PersonalFolders/Calvin/HAb_Converged/rxn_1284/output/Species/rxn_1284_CtCCC/arkane/output.py

>  <path_exists>  (1) 
True

>  <E0_value>  (1) 
-409281.9068125439

>  <E0_units>  (1) 
kJ/mol

>  <thermo_class>  (1) 
NASA

>  <Cp0_value>  (1) 
33.257888

>  <Cp0_units>  (1) 
J/(mol*K)

>  <CpInf_value>  (1) 
232.805216

>  <CpInf_units>  (1) 
J/(mol*K)

>  <Tmin_value>  (1) 
10.0

>  <Tmin_units>  (1) 
K

>  <Tmax_value>  (1) 
3000.0

>  <Tmax_units>  (1) 
K

>  <polynomials>  (1) 
[{"name": "polynomial1", "class": "NASAPolynomial", "Tmin_value": 10.0, "Tmin_units": "K", "Tmax_value": 360.48121370424, "Tmax_units": "K", "coeffs": [3.964907651517416, 0.0024252181225602747, 0.00010970866124517926, -2.330425775882924e-07, 1.6483387684637681e-10, -49225243.05086936, 8.23900007534587]}, {"name": "polynomial2", "class": "NASAPolynomial", "Tmin_value": 360.48121370424, "Tmin_units": "K", "Tmax_value": 3000.0, "Tmax_units": "K", "coeffs": [1.173366775306642, 0.03340704549885685, -1.9235392341731885e-05, 5.470981511725664e-09, -6.120493514194064e-13, -49225041.83097189, 18.857768088551204]}]

>  <H298_value>  (1) 
-97816.99696801163

>  <H298_units>  (1) 
kcal/mol

>  <S298_value>  (1) 
68.93760489416931

>  <S298_units>  (1) 
cal/(mol*K)

>  <Cp_T_value_list>  (1) 
[19.095578790385176, 23.435119416919605, 27.251876378154844, 30.59356719880144, 36.04553968052718, 40.149424943692715, 46.44174128793762, 49.72179624324852, 51.42678973904542]

>  <Cp_T_units>  (1) 
cal/(mol*K)

>  <T_list>  (1) 
[300.0, 400.0, 500.0, 600.0, 800.0, 1000.0, 1500.0, 2000.0, 2400.0]

>  <T_units>  (1) 
K

>  <yaml_path>  (1) 
/home/calvin/Dropbox/PersonalFolders/Calvin/HAb_Converged/rxn_1284/output/Species/rxn_1284_CtCCC/rxn_1284_CtCCC.yml

>  <frequencies_cm1>  (1) 
[204.17607451956, 218.97442788415998, 366.0789874092, 525.48918462768, 681.08133800824, 687.0144133247201, 787.3273348792799, 847.3241856201199, 1026.4769656336, 1086.98884027344, 1103.26359548184, 1280.9125057102399, 1344.0544357276399, 1402.80149514024, 1466.62325670432, 1482.32805213116, 1490.70577422156, 2222.88434999592, 3023.4855674987602, 3025.88901236076, 3057.6625534364, 3103.54088235932, 3108.5949835548395, 3438.35448560656]

>  <ZPE_kJmol>  (1) 
221.20174166210896

>  <E_elec_kJmol>  (1) 
-409503.108554206

>  <E0_minus_Eelec_plus_ZPE_kJmol>  (1) 
0.0

>  <rxn>  (1) 
rxn_1284

>  <species_type>  (1) 
r0

>  <species_folder>  (1) 
rxn_1284_CtCCC

>  <frequencies_cm1_list>  (1) 
[204.17607451956, 218.97442788415998, 366.0789874092, 525.48918462768, 681.08133800824, 687.0144133247201, 787.3273348792799, 847.3241856201199, 1026.4769656336, 1086.98884027344, 1103.26359548184, 1280.9125057102399, 1344.0544357276399, 1402.80149514024, 1466.62325670432, 1482.32805213116, 1490.70577422156, 2222.88434999592, 3023.4855674987602, 3025.88901236076, 3057.6625534364, 3103.54088235932, 3108.5949835548395, 3438.35448560656]

>  <E0_kJmol>  (1) 
-409282

>  <H298_kJmol>  (1) 
-409266

$$$$

     RDKit          3D

 13 12  0  0  0  0  0  0  0  0999 V2000
   -1.2140    0.0213   -1.1496 H   0  0  0  0  0  0  0  0  0  1  0  0
    0.4465    1.2874    1.1773 S   0  0  0  0  0  0  0  0  0  2  0  0
    0.4673    0.5360   -0.2667 C   0  0  0  0  0  0  0  0  0  3  0  0
   -0.3931   -0.5473   -0.7127 C   0  0  0  0  0  0  0  0  0  4  0  0
    0.1197   -1.3416   -1.8974 C   0  0  0  0  0  0  0  0  0  5  0  0
   -1.1075   -1.3719    0.3327 C   0  0  0  0  0  0  0  0  0  6  0  0
    1.1547    0.9032   -1.0313 H   0  0  0  0  0  0  0  0  0  7  0  0
    0.8511   -2.0864   -1.5724 H   0  0  0  0  0  0  0  0  0  8  0  0
   -0.7013   -1.8695   -2.3858 H   0  0  0  0  0  0  0  0  0  9  0  0
    0.5984   -0.6965   -2.6363 H   0  0  0  0  0  0  0  0  0 10  0  0
   -1.8997   -1.9616   -0.1321 H   0  0  0  0  0  0  0  0  0 11  0  0
   -1.5384   -0.7402    1.1080 H   0  0  0  0  0  0  0  0  0 12  0  0
   -0.4071   -2.0590    0.8145 H   0  0  0  0  0  0  0  0  0 13  0  0
  1  4  1  0
  2  3  1  0
  3  4  1  0
  3  7  1  0
  4  5  1  0
  4  6  1  0
  5  8  1  0
  5  9  1  0
  5 10  1  0
  6 13  1  0
  6 11  1  0
  6 12  1  0
M  END
>  <rmg_smiles>  (2) 
[S][CH]C(C)C

>  <rmg_adjacency_list>  (2) 
1  S u0 p2 c0 {5,S}
2  C u0 p0 c0 {3,S} {4,S} {5,S} {6,S}
3  C u0 p0 c0 {2,S} {7,S} {8,S} {9,S}
4  C u0 p0 c0 {2,S} {10,S} {11,S} {12,S}
5  C u0 p0 c0 {1,S} {2,S} {13,S}
6  H u0 p0 c0 {2,S}
7  H u0 p0 c0 {3,S}
8  H u0 p0 c0 {3,S}
9  H u0 p0 c0 {3,S}
10 H u0 p0 c0 {4,S}
11 H u0 p0 c0 {4,S}
12 H u0 p0 c0 {4,S}
13 H u0 p0 c0 {5,S}


>  <multiplicity>  (2) 
1

>  <reaction>  (2) 
rxn_1284

>  <type>  (2) 
r2h

>  <role_mapnums>  (2) 
{"r2h_a": 4, "r2h_h": 1}

>  <role_mapidx>  (2) 
{"r2h_a": 3, "r2h_h": 0}

>  <ordered_mapped_smiles>  (2) 
[H:1][C:4]([CH:3]([SH:2])[H:7])([C:5]([H:8])([H:9])[H:10])[C:6]([H:11])([H:12])[H:13]

>  <mol_properties>  (2) 
{"0": {"label": "a_hydrogen", "atom_type": "H0"}, "3": {"label": "acceptor", "atom_type": "Cs"}}

>  <level_of_theory>  (2) 
wb97xd/def2tzvp

>  <lot_method>  (2) 
wb97xd

>  <lot_basis>  (2) 
def2tzvp

>  <spin_multiplicity>  (2) 
1.0

>  <optical_isomers>  (2) 
2.0

>  <modes>  (2) 
IdealGasTranslation(mass=(88.0347, 'amu')),         NonlinearRotor(             inertia = ([69.6476, 205.177, 249.287

>  <frequency_value>  (2) 
unknown

>  <frequency_units>  (2) 
unknown

>  <frequency_list>  (2) 
unknown

>  <arkane_path>  (2) 
/home/calvin/Dropbox/PersonalFolders/Calvin/HAb_Converged/rxn_1284/output/Species/rxn_1284_S=CC[C]C/arkane/output.py

>  <path_exists>  (2) 
True

>  <E0_value>  (2) 
-1457998.5982336933

>  <E0_units>  (2) 
kJ/mol

>  <thermo_class>  (2) 
NASA

>  <Cp0_value>  (2) 
33.257888

>  <Cp0_units>  (2) 
J/(mol*K)

>  <CpInf_value>  (2) 
307.635464

>  <CpInf_units>  (2) 
J/(mol*K)

>  <Tmin_value>  (2) 
10.0

>  <Tmin_units>  (2) 
K

>  <Tmax_value>  (2) 
3000.0

>  <Tmax_units>  (2) 
K

>  <polynomials>  (2) 
[{"name": "polynomial1", "class": "NASAPolynomial", "Tmin_value": 10.0, "Tmin_units": "K", "Tmax_value": 850.5751909331584, "Tmax_units": "K", "coeffs": [3.763703885514242, 0.02277852482010402, 3.2299053490720314e-05, -5.360226294448367e-08, 2.1690872236821852e-11, -175356726.547155, 11.190919245660643]}, {"name": "polynomial2", "class": "NASAPolynomial", "Tmin_value": 850.5751909331584, "Tmin_units": "K", "Tmax_value": 3000.0, "Tmax_units": "K", "coeffs": [2.0035214740016922, 0.042738418303872316, -2.3502321935412024e-05, 6.281315111825424e-09, -6.560549792225942e-13, -175356849.7075047, 16.913744501828855]}]

>  <H298_value>  (2) 
-348465.4118362776

>  <H298_units>  (2) 
kcal/mol

>  <S298_value>  (2) 
80.33314738703915

>  <S298_units>  (2) 
cal/(mol*K)

>  <Cp_T_value_list>  (2) 
[24.30872432409684, 30.14135974077647, 35.53746487056036, 40.323452938173666, 47.88798169363404, 53.386060159439076, 61.820175444511975, 66.0243628186096, 68.0994235508572]

>  <Cp_T_units>  (2) 
cal/(mol*K)

>  <T_list>  (2) 
[300.0, 400.0, 500.0, 600.0, 800.0, 1000.0, 1500.0, 2000.0, 2400.0]

>  <T_units>  (2) 
K

>  <yaml_path>  (2) 
/home/calvin/Dropbox/PersonalFolders/Calvin/HAb_Converged/rxn_1284/output/Species/rxn_1284_S=CC[C]C/rxn_1284_S=CCCC.yml

>  <frequencies_cm1>  (2) 
[81.46304685115999, 222.10577319008, 235.83974383007998, 264.91455967495995, 354.02742817259997, 403.35985071147996, 541.5304623352, 773.7375709309999, 866.2358631914, 917.52537654648, 938.1331994918, 970.7857146884, 1070.15785925412, 1116.20099582472, 1141.9384568040798, 1213.79459119256, 1287.09965948356, 1347.93428243344, 1376.37046864356, 1392.88556833816, 1420.9509373409999, 1469.66533120108, 1474.71256541128, 1487.9727140641999, 1494.5100840888397, 2973.6037861342797, 3014.7782301129996, 3022.28384506776, 3048.6668026672, 3090.6240829723997, 3094.4352598250002, 3098.5897859436, 3105.48423920488]

>  <ZPE_kJmol>  (2) 
288.97191783414803

>  <E_elec_kJmol>  (2) 
-1458287.5701515274

>  <E0_minus_Eelec_plus_ZPE_kJmol>  (2) 
0.0

>  <rxn>  (2) 
rxn_1284

>  <species_type>  (2) 
p0

>  <species_folder>  (2) 
rxn_1284_S=CC[C]C

>  <frequencies_cm1_list>  (2) 
[81.46304685115999, 222.10577319008, 235.83974383007998, 264.91455967495995, 354.02742817259997, 403.35985071147996, 541.5304623352, 773.7375709309999, 866.2358631914, 917.52537654648, 938.1331994918, 970.7857146884, 1070.15785925412, 1116.20099582472, 1141.9384568040798, 1213.79459119256, 1287.09965948356, 1347.93428243344, 1376.37046864356, 1392.88556833816, 1420.9509373409999, 1469.66533120108, 1474.71256541128, 1487.9727140641999, 1494.5100840888397, 2973.6037861342797, 3014.7782301129996, 3022.28384506776, 3048.6668026672, 3090.6240829723997, 3094.4352598250002, 3098.5897859436, 3105.48423920488]

>  <E0_kJmol>  (2) 
-1.458e+06

>  <H298_kJmol>  (2) 
-1.45798e+06

$$$$

     RDKit          3D

 22 20  0  0  0  0  0  0  0  0999 V2000
   -3.0125   -1.2845   -1.5099 C   0  0  0  0  0  0  0  0  0  1  0  0
   -2.4694   -0.3819   -0.9237 C   0  0  0  0  0  0  0  0  0  2  0  0
   -1.7800    0.6370   -0.2336 C   0  0  0  0  0  3  0  0  0  3  0  0
   -1.1120    1.7362   -1.0140 C   0  0  0  0  0  0  0  0  0  4  0  0
   -3.5109   -2.0680   -2.0284 H   0  0  0  0  0  0  0  0  0  5  0  0
   -0.6269   -0.0205    0.3347 H   0  0  0  0  0  0  0  0  0  6  0  0
   -2.2310    0.9340    0.7109 H   0  0  0  0  0  0  0  0  0  7  0  0
   -1.8496    2.4529   -1.3847 H   0  0  0  0  0  0  0  0  0  8  0  0
   -0.4101    2.2782   -0.3776 H   0  0  0  0  0  0  0  0  0  9  0  0
   -0.5737    1.3338   -1.8725 H   0  0  0  0  0  0  0  0  0 10  0  0
    1.1650    1.1546    2.7315 S   0  0  0  0  0  0  0  0  0 11  0  0
    1.1858    0.4031    1.2875 C   0  0  0  0  0  0  0  0  0 12  0  0
    0.3254   -0.6802    0.8415 C   0  0  0  0  0  0  0  0  0 13  0  0
    0.8382   -1.4745   -0.3432 C   0  0  0  0  0  0  0  0  0 14  0  0
   -0.3890   -1.5047    1.8869 C   0  0  0  0  0  0  0  0  0 15  0  0
    1.8732    0.7703    0.5229 H   0  0  0  0  0  0  0  0  0 16  0  0
    1.5696   -2.2192   -0.0181 H   0  0  0  0  0  0  0  0  0 17  0  0
    0.0172   -2.0023   -0.8316 H   0  0  0  0  0  0  0  0  0 18  0  0
    1.3169   -0.8293   -1.0821 H   0  0  0  0  0  0  0  0  0 19  0  0
   -1.1811   -2.0944    1.4221 H   0  0  0  0  0  0  0  0  0 20  0  0
   -0.8199   -0.8731    2.6623 H   0  0  0  0  0  0  0  0  0 21  0  0
    0.3115   -2.1918    2.3687 H   0  0  0  0  0  0  0  0  0 22  0  0
  1  5  1  0
  1  2  1  0
  2  3  1  0
  3  4  1  0
  3  7  1  0
  4 10  1  0
  4  9  1  0
  4  8  1  0
  6 13  1  0
 11 12  1  0
 12 16  1  0
 12 13  1  0
 13 15  1  0
 13 14  1  0
 14 17  1  0
 14 19  1  0
 14 18  1  0
 15 20  1  0
 15 22  1  0
 15 21  1  0
M  RAD  1   3   2
M  END
>  <rmg_smiles>  (3) 
[S][CH]C(C)C.[CH][C][CH]C

>  <rmg_adjacency_list>  (3) 
multiplicity 2
1  S u0 p2 c0 {7,S}
2  C u0 p0 c0 {3,S} {4,S} {7,S} {10,S}
3  C u0 p0 c0 {2,S} {11,S} {12,S} {13,S}
4  C u0 p0 c0 {2,S} {14,S} {15,S} {16,S}
5  C u0 p0 c0 {6,S} {17,S} {18,S} {19,S}
6  C u1 p0 c0 {5,S} {8,S} {20,S}
7  C u0 p0 c0 {1,S} {2,S} {21,S}
8  C u0 p1 c0 {6,S} {9,S}
9  C u0 p1 c0 {8,S} {22,S}
10 H u0 p0 c0 {2,S}
11 H u0 p0 c0 {3,S}
12 H u0 p0 c0 {3,S}
13 H u0 p0 c0 {3,S}
14 H u0 p0 c0 {4,S}
15 H u0 p0 c0 {4,S}
16 H u0 p0 c0 {4,S}
17 H u0 p0 c0 {5,S}
18 H u0 p0 c0 {5,S}
19 H u0 p0 c0 {5,S}
20 H u0 p0 c0 {6,S}
21 H u0 p0 c0 {7,S}
22 H u0 p0 c0 {9,S}


>  <multiplicity>  (3) 
2

>  <reaction>  (3) 
rxn_1284

>  <type>  (3) 
ts

>  <role_mapnums>  (3) 
{"*2": 6, "*1": 3, "*3": 13, "*0": 12, "*4": 2}

>  <role_mapidx>  (3) 
{"*2": 5, "*1": 2, "*3": 12, "*0": 11, "*4": 1}

>  <ordered_mapped_smiles>  (3) 
[CH2:1]([CH2:2][C:3]([C:4]([H:8])([H:9])[H:10])[H:7])[H:5].[H:6][C:13]([CH:12]([SH:11])[H:16])([C:14]([H:17])([H:18])[H:19])[C:15]([H:20])([H:21])[H:22]

>  <mol_properties>  (3) 
{"1": {"label": "*4", "atom_type": "C2s"}, "2": {"label": "*1", "atom_type": "Cs"}, "5": {"label": "*2", "atom_type": "H0"}, "11": {"label": "*0", "atom_type": "Cs"}, "12": {"label": "*3", "atom_type": "Cs"}}

>  <level_of_theory>  (3) 
wb97xd/def2tzvp

>  <lot_method>  (3) 
wb97xd

>  <lot_basis>  (3) 
def2tzvp

>  <spin_multiplicity>  (3) 
2.0

>  <optical_isomers>  (3) 
2.0

>  <modes>  (3) 
IdealGasTranslation(mass=(141.074, 'amu')),         NonlinearRotor(             inertia = ([268.079, 677.742, 779.509

>  <frequency_value>  (3) 
-1529.68

>  <frequency_units>  (3) 
cm^-1

>  <frequency_list>  (3) 
unknown

>  <arkane_path>  (3) 
/home/calvin/Dropbox/PersonalFolders/Calvin/HAb_Converged/rxn_1284/output/rxns/TS0/arkane/output.py

>  <path_exists>  (3) 
True

>  <E0_value>  (3) 
-1865570.0

>  <E0_units>  (3) 
kJ/mol

>  <thermo_class>  (3) 
unknown

>  <Cp0_value>  (3) 
unknown

>  <Cp0_units>  (3) 
unknown

>  <CpInf_value>  (3) 
unknown

>  <CpInf_units>  (3) 
unknown

>  <Tmin_value>  (3) 
unknown

>  <Tmin_units>  (3) 
unknown

>  <Tmax_value>  (3) 
unknown

>  <Tmax_units>  (3) 
unknown

>  <polynomials>  (3) 
unknown

>  <H298_value>  (3) 
unknown

>  <H298_units>  (3) 
unknown

>  <S298_value>  (3) 
unknown

>  <S298_units>  (3) 
unknown

>  <Cp_T_value_list>  (3) 
unknown

>  <Cp_T_units>  (3) 
unknown

>  <T_list>  (3) 
unknown

>  <T_units>  (3) 
unknown

>  <yaml_path>  (3) 
unknown

>  <frequencies_cm1>  (3) 
unknown

>  <ZPE_kJmol>  (3) 
unknown

>  <E_elec_kJmol>  (3) 
unknown

>  <E0_minus_Eelec_plus_ZPE_kJmol>  (3) 
unknown

>  <rxn>  (3) 
unknown

>  <species_type>  (3) 
unknown

>  <species_folder>  (3) 
unknown

>  <frequencies_cm1_list>  (3) 
[]

>  <ts_imag_freq_cm1>  (3) 
-1548.2589

>  <ts_freq_out_path>  (3) 
/home/calvin/Dropbox/PersonalFolders/Calvin/HAb_Converged/rxn_1284/output/rxns/TS0/geometry/freq.out

>  <E0_kJmol>  (3) 
-1.86557e+06

>  <H298_kJmol>  (3) 
unknown

$$$$

     RDKit          3D

  9  8  0  0  0  0  0  0  0  0999 V2000
    2.3038   -0.0269    0.1590 C   0  0  0  0  0  0  0  0  0  1  0  0
    1.1426    0.1377   -0.1648 C   0  0  0  0  0  0  0  0  0  2  0  0
   -0.1694    0.3175   -0.5203 C   0  0  0  0  0  3  0  0  0  3  0  0
   -1.3163   -0.1910    0.2856 C   0  0  0  0  0  0  0  0  0  4  0  0
    3.3199   -0.1683    0.4378 H   0  0  0  0  0  0  0  0  0  5  0  0
   -0.3786    0.8584   -1.4360 H   0  0  0  0  0  0  0  0  0  6  0  0
   -1.9694    0.6309    0.5951 H   0  0  0  0  0  0  0  0  0  7  0  0
   -1.9325   -0.8770   -0.3039 H   0  0  0  0  0  0  0  0  0  8  0  0
   -0.9753   -0.7144    1.1774 H   0  0  0  0  0  0  0  0  0  9  0  0
  1  5  1  0
  1  2  1  0
  2  3  1  0
  3  4  1  0
  3  6  1  0
  4  8  1  0
  4  9  1  0
  4  7  1  0
M  RAD  1   3   2
M  END
>  <rmg_smiles>  (4) 
[CH]C[CH]C

>  <rmg_adjacency_list>  (4) 
multiplicity 2
1 C u0 p0 c0 {2,S} {5,S} {6,S} {7,S}
2 C u1 p0 c0 {1,S} {3,S} {8,S}
3 C u0 p1 c0 {2,S} {4,S}
4 C u0 p1 c0 {3,S} {9,S}
5 H u0 p0 c0 {1,S}
6 H u0 p0 c0 {1,S}
7 H u0 p0 c0 {1,S}
8 H u0 p0 c0 {2,S}
9 H u0 p0 c0 {4,S}


>  <multiplicity>  (4) 
2

>  <reaction>  (4) 
rxn_1284

>  <type>  (4) 
r1

>  <role_mapnums>  (4) 
{}

>  <role_mapidx>  (4) 
{}

>  <ordered_mapped_smiles>  (4) 
[CH2:1]([CH2:2][C:3]([C:4]([H:7])([H:8])[H:9])[H:6])[H:5]

>  <level_of_theory>  (4) 
wb97xd/def2tzvp

>  <lot_method>  (4) 
wb97xd

>  <lot_basis>  (4) 
def2tzvp

>  <spin_multiplicity>  (4) 
2.0

>  <optical_isomers>  (4) 
1.0

>  <modes>  (4) 
IdealGasTranslation(mass=(53.0391, 'amu')),         NonlinearRotor(             inertia = ([13.0163, 113.224, 123.133

>  <frequency_value>  (4) 
unknown

>  <frequency_units>  (4) 
unknown

>  <frequency_list>  (4) 
unknown

>  <arkane_path>  (4) 
/home/calvin/Dropbox/PersonalFolders/Calvin/HAb_Converged/rxn_1284/output/Species/rxn_1284_CtC[CH]C/arkane/output.py

>  <path_exists>  (4) 
True

>  <E0_value>  (4) 
-407611.0180987149

>  <E0_units>  (4) 
kJ/mol

>  <thermo_class>  (4) 
NASA

>  <Cp0_value>  (4) 
33.257888

>  <Cp0_units>  (4) 
J/(mol*K)

>  <CpInf_value>  (4) 
207.8618

>  <CpInf_units>  (4) 
J/(mol*K)

>  <Tmin_value>  (4) 
10.0

>  <Tmin_units>  (4) 
K

>  <Tmax_value>  (4) 
3000.0

>  <Tmax_units>  (4) 
K

>  <polynomials>  (4) 
[{"name": "polynomial1", "class": "NASAPolynomial", "Tmin_value": 10.0, "Tmin_units": "K", "Tmax_value": 225.12244092476377, "Tmax_units": "K", "coeffs": [3.9266130103725434, 0.006751552972290672, 0.0001283541194316844, -4.2549688859148007e-07, 4.774737524189803e-10, -49024283.39050682, 9.03931398875942]}, {"name": "polynomial2", "class": "NASAPolynomial", "Tmin_value": 225.12244092476377, "Tmin_units": "K", "Tmax_value": 3000.0, "Tmax_units": "K", "coeffs": [2.698793800089887, 0.02856763785346583, -1.700774111948388e-05, 4.9718456847290095e-09, -5.66009400316375e-13, -49024228.10872656, 13.132014034873661]}]

>  <H298_value>  (4) 
-97417.42510508596

>  <H298_units>  (4) 
kcal/mol

>  <S298_value>  (4) 
72.15152284270778

>  <S298_units>  (4) 
cal/(mol*K)

>  <Cp_T_value_list>  (4) 
[19.609840418917145, 23.266846927668503, 26.46319689496793, 29.246023227567047, 33.746139284951916, 37.090269030960386, 42.123590532288944, 44.75530859912038, 46.19956450688901]

>  <Cp_T_units>  (4) 
cal/(mol*K)

>  <T_list>  (4) 
[300.0, 400.0, 500.0, 600.0, 800.0, 1000.0, 1500.0, 2000.0, 2400.0]

>  <T_units>  (4) 
K

>  <yaml_path>  (4) 
/home/calvin/Dropbox/PersonalFolders/Calvin/HAb_Converged/rxn_1284/output/Species/rxn_1284_CtC[CH]C/rxn_1284_CtCCHC.yml

>  <frequencies_cm1>  (4) 
[83.4682065646, 211.55121675324, 392.1460636839199, 478.7318815838, 554.46786267808, 595.8689171723599, 660.0408949877599, 865.1234115695598, 998.98842339764, 1092.3794237496397, 1143.49726247172, 1380.42198998236, 1394.47184194708, 1461.2464071987597, 1480.32289241772, 2005.2970531463998, 2994.3558157713196, 3043.5921005157197, 3109.55636149964, 3150.5453968747197, 3427.4497129183997]

>  <ZPE_kJmol>  (4) 
182.57126464434097

>  <E_elec_kJmol>  (4) 
-407793.5893633592

>  <E0_minus_Eelec_plus_ZPE_kJmol>  (4) 
0.0

>  <rxn>  (4) 
rxn_1284

>  <species_type>  (4) 
p1

>  <species_folder>  (4) 
rxn_1284_CtC[CH]C

>  <frequencies_cm1_list>  (4) 
[83.4682065646, 211.55121675324, 392.1460636839199, 478.7318815838, 554.46786267808, 595.8689171723599, 660.0408949877599, 865.1234115695598, 998.98842339764, 1092.3794237496397, 1143.49726247172, 1380.42198998236, 1394.47184194708, 1461.2464071987597, 1480.32289241772, 2005.2970531463998, 2994.3558157713196, 3043.5921005157197, 3109.55636149964, 3150.5453968747197, 3427.4497129183997]

>  <E0_kJmol>  (4) 
-407611

>  <H298_kJmol>  (4) 
-407595

$$$$

     RDKit          3D

 12 11  0  0  0  0  0  0  0  0999 V2000
    2.7049    0.9350   -0.4404 S   0  0  0  0  0  1  0  0  0  1  0  0
    1.0313    1.0813   -0.4080 C   0  0  0  0  0  0  0  0  0  2  0  0
    0.1364    0.1019   -0.0473 C   0  0  0  0  0  0  0  0  0  3  0  0
    0.5360   -1.2679    0.3784 C   0  0  0  0  0  0  0  0  0  4  0  0
   -1.3304    0.3842   -0.0689 C   0  0  0  0  0  0  0  0  0  5  0  0
    0.6069    2.0398   -0.6990 H   0  0  0  0  0  0  0  0  0  6  0  0
    0.1578   -1.4699    1.3849 H   0  0  0  0  0  0  0  0  0  7  0  0
    0.0783   -2.0109   -0.2814 H   0  0  0  0  0  0  0  0  0  8  0  0
    1.6154   -1.3973    0.3689 H   0  0  0  0  0  0  0  0  0  9  0  0
   -1.8406   -0.3126   -0.7406 H   0  0  0  0  0  0  0  0  0 10  0  0
   -1.5514    1.4016   -0.3887 H   0  0  0  0  0  0  0  0  0 11  0  0
   -1.7610    0.2281    0.9247 H   0  0  0  0  0  0  0  0  0 12  0  0
  1  2  1  0
  2  6  1  0
  2  3  1  0
  3  4  1  0
  3  5  1  0
  4  8  1  0
  4  9  1  0
  4  7  1  0
  5 11  1  0
  5 12  1  0
  5 10  1  0
M  RAD  1   1   2
M  END
>  <rmg_smiles>  (5) 
[S][CH][C](C)C

>  <rmg_adjacency_list>  (5) 
multiplicity 2
1  S u1 p2 c0 {5,S}
2  C u0 p0 c0 {4,S} {6,S} {7,S} {8,S}
3  C u0 p0 c0 {4,S} {9,S} {10,S} {11,S}
4  C u0 p0 c0 {2,S} {3,S} {5,S}
5  C u0 p0 c0 {1,S} {4,S} {12,S}
6  H u0 p0 c0 {2,S}
7  H u0 p0 c0 {2,S}
8  H u0 p0 c0 {2,S}
9  H u0 p0 c0 {3,S}
10 H u0 p0 c0 {3,S}
11 H u0 p0 c0 {3,S}
12 H u0 p0 c0 {5,S}


>  <multiplicity>  (5) 
2

>  <reaction>  (5) 
rxn_1284

>  <type>  (5) 
r2

>  <role_mapnums>  (5) 
{}

>  <role_mapidx>  (5) 
{}

>  <ordered_mapped_smiles>  (5) 
[S:1][CH:2]([CH:3]([C:4]([H:7])([H:8])[H:9])[C:5]([H:10])([H:11])[H:12])[H:6]

>  <level_of_theory>  (5) 
wb97xd/def2tzvp

>  <lot_method>  (5) 
wb97xd

>  <lot_basis>  (5) 
def2tzvp

>  <spin_multiplicity>  (5) 
2.0

>  <optical_isomers>  (5) 
1.0

>  <modes>  (5) 
IdealGasTranslation(mass=(87.0269, 'amu')),         NonlinearRotor(             inertia = ([59.4375, 215.284, 268.526

>  <frequency_value>  (5) 
unknown

>  <frequency_units>  (5) 
unknown

>  <frequency_list>  (5) 
unknown

>  <arkane_path>  (5) 
/home/calvin/Dropbox/PersonalFolders/Calvin/HAb_Converged/rxn_1284/output/Species/rxn_1284_S=C[C][C]C/arkane/output.py

>  <path_exists>  (5) 
True

>  <E0_value>  (5) 
-1456389.4058014078

>  <E0_units>  (5) 
kJ/mol

>  <thermo_class>  (5) 
NASA

>  <Cp0_value>  (5) 
33.257888

>  <Cp0_units>  (5) 
J/(mol*K)

>  <CpInf_value>  (5) 
282.692048

>  <CpInf_units>  (5) 
J/(mol*K)

>  <Tmin_value>  (5) 
10.0

>  <Tmin_units>  (5) 
K

>  <Tmax_value>  (5) 
3000.0

>  <Tmax_units>  (5) 
K

>  <polynomials>  (5) 
[{"name": "polynomial1", "class": "NASAPolynomial", "Tmin_value": 10.0, "Tmin_units": "K", "Tmax_value": 1069.7138576217342, "Tmax_units": "K", "coeffs": [3.7450953721106606, 0.02804067236145847, 4.837339460243766e-06, -1.862188975324303e-08, 7.102529060370391e-12, -175163186.63125047, 11.115318698362758]}, {"name": "polynomial2", "class": "NASAPolynomial", "Tmin_value": 1069.7138576217342, "Tmin_units": "K", "Tmax_value": 3000.0, "Tmax_units": "K", "coeffs": [5.373134457780288, 0.03266246334031504, -1.6660938713927265e-05, 4.135396675163868e-09, -4.033155674080627e-13, -175164147.67857578, 0.2872181639058632]}]

>  <H298_value>  (5) 
-348080.71273541875

>  <H298_units>  (5) 
kcal/mol

>  <S298_value>  (5) 
81.22134376115285

>  <S298_units>  (5) 
cal/(mol*K)

>  <Cp_T_value_list>  (5) 
[24.139386474933982, 29.26233594997063, 33.96322362768302, 38.17244953856237, 45.00688648485055, 49.886328245020486, 57.22140468570403, 60.97629997735028, 62.76138759591628]

>  <Cp_T_units>  (5) 
cal/(mol*K)

>  <T_list>  (5) 
[300.0, 400.0, 500.0, 600.0, 800.0, 1000.0, 1500.0, 2000.0, 2400.0]

>  <T_units>  (5) 
K

>  <yaml_path>  (5) 
/home/calvin/Dropbox/PersonalFolders/Calvin/HAb_Converged/rxn_1284/output/Species/rxn_1284_S=C[C][C]C/rxn_1284_S=CCCC.yml

>  <frequencies_cm1>  (5) 
[87.46479202084001, 132.99290469244, 210.48683402863998, 250.26041300207999, 372.11506750548, 441.34801350172, 490.53622934888, 795.65012108712, 848.51217408048, 924.6601742939599, 952.54013469316, 965.5393379039199, 1058.3672454596801, 1073.62568684072, 1212.6752725854, 1351.19610046044, 1396.66927724948, 1403.6667352905597, 1418.3002810074797, 1452.5665377542798, 1454.3588209227999, 1474.34861518932, 1518.6063355767199, 3001.0991953555595, 3006.29063625748, 3055.78786644404, 3059.9835944745596, 3097.51166924836, 3108.51944671632, 3128.82512230756]

>  <ZPE_kJmol>  (5) 
255.66898791025585

>  <E_elec_kJmol>  (5) 
-1456645.074789318

>  <E0_minus_Eelec_plus_ZPE_kJmol>  (5) 
0.0

>  <rxn>  (5) 
rxn_1284

>  <species_type>  (5) 
r1

>  <species_folder>  (5) 
rxn_1284_S=C[C][C]C

>  <frequencies_cm1_list>  (5) 
[87.46479202084001, 132.99290469244, 210.48683402863998, 250.26041300207999, 372.11506750548, 441.34801350172, 490.53622934888, 795.65012108712, 848.51217408048, 924.6601742939599, 952.54013469316, 965.5393379039199, 1058.3672454596801, 1073.62568684072, 1212.6752725854, 1351.19610046044, 1396.66927724948, 1403.6667352905597, 1418.3002810074797, 1452.5665377542798, 1454.3588209227999, 1474.34861518932, 1518.6063355767199, 3001.0991953555595, 3006.29063625748, 3055.78786644404, 3059.9835944745596, 3097.51166924836, 3108.51944671632, 3128.82512230756]

>  <E0_kJmol>  (5) 
-1.45639e+06

>  <H298_kJmol>  (5) 
-1.45637e+06

$$$$
