
     RDKit          3D

 16 15  0  0  0  0  0  0  0  0999 V2000
    0.1473   -1.0938   -2.0903 C   0  0  0  0  0  0  0  0  0  1  0  0
    0.7864   -0.7816   -0.9665 C   0  0  0  0  0  0  0  0  0  2  0  0
    0.3391    0.2293    0.0193 C   0  0  0  0  0  0  0  0  0  3  0  0
    1.3355    0.5346    1.1167 C   0  0  0  0  0  0  0  0  0  4  0  0
   -1.0837    0.2079    0.3813 C   0  0  0  0  0  0  0  0  0  5  0  0
   -1.6242    0.7977    1.4478 C   0  0  0  0  0  0  0  0  0  6  0  0
    0.5477   -1.8335   -2.7709 H   0  0  0  0  0  0  0  0  0  7  0  0
   -0.7810   -0.6107   -2.3766 H   0  0  0  0  0  0  0  0  0  8  0  0
    1.7405   -1.2573   -0.7560 H   0  0  0  0  0  0  0  0  0  9  0  0
    0.3572    1.1504   -0.5631 H   0  0  0  0  0  0  0  0  0 10  0  0
    2.3408    0.6285    0.7043 H   0  0  0  0  0  0  0  0  0 11  0  0
    1.0983    1.4668    1.6296 H   0  0  0  0  0  0  0  0  0 12  0  0
    1.3442   -0.2651    1.8616 H   0  0  0  0  0  0  0  0  0 13  0  0
   -1.7415   -0.2963   -0.3176 H   0  0  0  0  0  0  0  0  0 14  0  0
   -1.0335    1.3258    2.1859 H   0  0  0  0  0  0  0  0  0 15  0  0
   -2.6918    0.7565    1.6171 H   0  0  0  0  0  0  0  0  0 16  0  0
  1  8  1  0
  1  7  1  0
  1  2  1  0
  2  9  1  0
  2  3  1  0
  3  4  1  0
  3  5  1  0
  3 10  1  0
  4 13  1  0
  4 12  1  0
  4 11  1  0
  5 14  1  0
  5  6  1  0
  6 15  1  0
  6 16  1  0
M  END
>  <rmg_smiles>  (1) 
[CH2][CH]C(C)[CH][CH2]

>  <rmg_adjacency_list>  (1) 
1  C u0 p0 c0 {2,S} {3,S} {4,S} {7,S}
2  C u0 p0 c0 {1,S} {8,S} {9,S} {10,S}
3  C u0 p0 c0 {1,S} {5,S} {11,S}
4  C u0 p0 c0 {1,S} {6,S} {12,S}
5  C u0 p0 c0 {3,S} {13,S} {14,S}
6  C u0 p0 c0 {4,S} {15,S} {16,S}
7  H u0 p0 c0 {1,S}
8  H u0 p0 c0 {2,S}
9  H u0 p0 c0 {2,S}
10 H u0 p0 c0 {2,S}
11 H u0 p0 c0 {3,S}
12 H u0 p0 c0 {4,S}
13 H u0 p0 c0 {5,S}
14 H u0 p0 c0 {5,S}
15 H u0 p0 c0 {6,S}
16 H u0 p0 c0 {6,S}


>  <multiplicity>  (1) 
1

>  <reaction>  (1) 
rxn_1194

>  <type>  (1) 
r1h

>  <role_mapnums>  (1) 
{"r1h_a": 3, "r1h_h": 10}

>  <role_mapidx>  (1) 
{"r1h_a": 2, "r1h_h": 9}

>  <ordered_mapped_smiles>  (1) 
[CH:1]([CH:2]([C:3]([C:4]([H:11])([H:12])[H:13])([CH:5]([CH:6]([H:15])[H:16])[H:14])[H:10])[H:9])([H:7])[H:8]

>  <mol_properties>  (1) 
{"2": {"label": "donator", "atom_type": "Cs"}, "9": {"label": "d_hydrogen", "atom_type": "H0"}}

>  <level_of_theory>  (1) 
wb97xd/def2tzvp

>  <lot_method>  (1) 
wb97xd

>  <lot_basis>  (1) 
def2tzvp

>  <spin_multiplicity>  (1) 
1.0

>  <optical_isomers>  (1) 
2.0

>  <modes>  (1) 
IdealGasTranslation(mass=(82.0782, 'amu')),         NonlinearRotor(             inertia = ([81.8176, 215.752, 270.221

>  <frequency_value>  (1) 
unknown

>  <frequency_units>  (1) 
unknown

>  <frequency_list>  (1) 
unknown

>  <arkane_path>  (1) 
/home/calvin/Dropbox/PersonalFolders/Calvin/HAb_Converged/rxn_1194/output/Species/rxn_1194_C=CC[C]C=C/arkane/output.py

>  <path_exists>  (1) 
True

>  <E0_value>  (1) 
-615627.5937373543

>  <E0_units>  (1) 
kJ/mol

>  <thermo_class>  (1) 
NASA

>  <Cp0_value>  (1) 
33.257888

>  <Cp0_units>  (1) 
J/(mol*K)

>  <CpInf_value>  (1) 
382.465712

>  <CpInf_units>  (1) 
J/(mol*K)

>  <Tmin_value>  (1) 
10.0

>  <Tmin_units>  (1) 
K

>  <Tmax_value>  (1) 
3000.0

>  <Tmax_units>  (1) 
K

>  <polynomials>  (1) 
[{"name": "polynomial1", "class": "NASAPolynomial", "Tmin_value": 10.0, "Tmin_units": "K", "Tmax_value": 757.01421466449, "Tmax_units": "K", "coeffs": [3.7333043859306807, 0.024971619873153182, 5.9953729741974984e-05, -9.768956274227311e-08, 4.2619255015878605e-11, -74042895.04148921, 11.39126299815016]}, {"name": "polynomial2", "class": "NASAPolynomial", "Tmin_value": 757.01421466449, "Tmin_units": "K", "Tmax_value": 3000.0, "Tmax_units": "K", "coeffs": [0.44469393851227684, 0.05690289093011388, -3.2156427053129826e-05, 8.824948176810319e-09, -9.439814340659815e-13, -74042814.17505449, 23.586950166217814]}]

>  <H298_value>  (1) 
-147133.40013016394

>  <H298_units>  (1) 
kcal/mol

>  <S298_value>  (1) 
83.43513409825523

>  <S298_units>  (1) 
cal/(mol*K)

>  <Cp_T_value_list>  (1) 
[28.473139475044146, 36.07469361244095, 43.043001816355165, 49.12797529668614, 58.65957774455763, 65.72114092256321, 76.41278682550626, 81.71522311412052, 84.39200509242544]

>  <Cp_T_units>  (1) 
cal/(mol*K)

>  <T_list>  (1) 
[300.0, 400.0, 500.0, 600.0, 800.0, 1000.0, 1500.0, 2000.0, 2400.0]

>  <T_units>  (1) 
K

>  <yaml_path>  (1) 
/home/calvin/Dropbox/PersonalFolders/Calvin/HAb_Converged/rxn_1194/output/Species/rxn_1194_C=CC[C]C=C/rxn_1194_C=CCCC=C.yml

>  <frequencies_cm1>  (1) 
[88.1720915088, 106.67861694619998, 273.49142433963993, 286.5592974036, 313.75942625612, 326.27794049448, 407.06115579895993, 569.8224418536, 651.92411833952, 700.3775667574399, 828.2270994451999, 911.8395127015199, 955.1839240413599, 957.3264234611999, 986.9918000435998, 1013.1206791861999, 1033.24781315912, 1040.35514296532, 1086.5012843157199, 1158.117074218, 1191.5112238291601, 1286.63957146712, 1315.0757576772398, 1326.50928823504, 1345.4965026448397, 1396.33966195412, 1439.56733454352, 1445.27379934444, 1485.5280672902798, 1492.32638275708, 1705.6973506201198, 1716.9454725742798, 3001.05112645832, 3015.16964827624, 3087.0944525179198, 3099.55803087372, 3107.7297434045195, 3116.0456626270397, 3118.744387857799, 3130.445730843079, 3201.84864420044, 3208.5027529755193]

>  <ZPE_kJmol>  (1) 
370.4126142688373

>  <E_elec_kJmol>  (1) 
-615998.0063516231

>  <E0_minus_Eelec_plus_ZPE_kJmol>  (1) 
0.0

>  <rxn>  (1) 
rxn_1194

>  <species_type>  (1) 
r0

>  <species_folder>  (1) 
rxn_1194_C=CC[C]C=C

>  <frequencies_cm1_list>  (1) 
[88.1720915088, 106.67861694619998, 273.49142433963993, 286.5592974036, 313.75942625612, 326.27794049448, 407.06115579895993, 569.8224418536, 651.92411833952, 700.3775667574399, 828.2270994451999, 911.8395127015199, 955.1839240413599, 957.3264234611999, 986.9918000435998, 1013.1206791861999, 1033.24781315912, 1040.35514296532, 1086.5012843157199, 1158.117074218, 1191.5112238291601, 1286.63957146712, 1315.0757576772398, 1326.50928823504, 1345.4965026448397, 1396.33966195412, 1439.56733454352, 1445.27379934444, 1485.5280672902798, 1492.32638275708, 1705.6973506201198, 1716.9454725742798, 3001.05112645832, 3015.16964827624, 3087.0944525179198, 3099.55803087372, 3107.7297434045195, 3116.0456626270397, 3118.744387857799, 3130.445730843079, 3201.84864420044, 3208.5027529755193]

>  <E0_kJmol>  (1) 
-615628

>  <H298_kJmol>  (1) 
-615606

$$$$

     RDKit          3D

  7  6  0  0  0  0  0  0  0  0999 V2000
    1.6203   -0.9957    1.0183 H   0  0  0  0  0  0  0  0  0  1  0  0
    1.6499   -0.1078    0.3922 C   0  0  0  0  0  0  0  0  0  2  0  0
    0.3377    0.4150    0.4810 C   0  0  0  0  0  0  0  0  0  3  0  0
   -0.9397   -0.1077   -0.4151 S   0  0  0  0  0  0  0  0  0  4  0  0
    2.4525    0.4515    0.8662 H   0  0  0  0  0  0  0  0  0  5  0  0
    1.9149   -0.6351   -0.5203 H   0  0  0  0  0  0  0  0  0  6  0  0
    0.1653    1.1720    1.2445 H   0  0  0  0  0  0  0  0  0  7  0  0
  1  2  1  0
  2  5  1  0
  2  6  1  0
  2  3  1  0
  3  7  1  0
  3  4  1  0
M  END
>  <rmg_smiles>  (2) 
C[CH][S]

>  <rmg_adjacency_list>  (2) 
1 S u0 p2 c0 {3,S}
2 C u0 p0 c0 {3,S} {4,S} {5,S} {6,S}
3 C u0 p0 c0 {1,S} {2,S} {7,S}
4 H u0 p0 c0 {2,S}
5 H u0 p0 c0 {2,S}
6 H u0 p0 c0 {2,S}
7 H u0 p0 c0 {3,S}


>  <multiplicity>  (2) 
1

>  <reaction>  (2) 
rxn_1194

>  <type>  (2) 
r2h

>  <role_mapnums>  (2) 
{"r2h_a": 2, "r2h_h": 1}

>  <role_mapidx>  (2) 
{"r2h_a": 1, "r2h_h": 0}

>  <ordered_mapped_smiles>  (2) 
[H:1][C:2]([CH:3]([SH:4])[H:7])([H:5])[H:6]

>  <mol_properties>  (2) 
{"0": {"label": "a_hydrogen", "atom_type": "H0"}, "1": {"label": "acceptor", "atom_type": "Cs"}}

>  <level_of_theory>  (2) 
wb97xd/def2tzvp

>  <lot_method>  (2) 
wb97xd

>  <lot_basis>  (2) 
def2tzvp

>  <spin_multiplicity>  (2) 
1.0

>  <optical_isomers>  (2) 
1.0

>  <modes>  (2) 
IdealGasTranslation(mass=(60.0034, 'amu')),         NonlinearRotor(             inertia = ([10.1821, 87.4169, 94.5043

>  <frequency_value>  (2) 
unknown

>  <frequency_units>  (2) 
unknown

>  <frequency_list>  (2) 
unknown

>  <arkane_path>  (2) 
/home/calvin/Dropbox/PersonalFolders/Calvin/HAb_Converged/rxn_1194/output/Species/rxn_1194_CC=S/arkane/output.py

>  <path_exists>  (2) 
True

>  <E0_value>  (2) 
-1251692.87971102

>  <E0_units>  (2) 
kJ/mol

>  <thermo_class>  (2) 
NASA

>  <Cp0_value>  (2) 
33.257888

>  <Cp0_units>  (2) 
J/(mol*K)

>  <CpInf_value>  (2) 
157.97496800000002

>  <CpInf_units>  (2) 
J/(mol*K)

>  <Tmin_value>  (2) 
10.0

>  <Tmin_units>  (2) 
K

>  <Tmax_value>  (2) 
3000.0

>  <Tmax_units>  (2) 
K

>  <polynomials>  (2) 
[{"name": "polynomial1", "class": "NASAPolynomial", "Tmin_value": 10.0, "Tmin_units": "K", "Tmax_value": 485.39622899743466, "Tmax_units": "K", "coeffs": [3.975940530572461, 0.0013748720414305338, 5.132788135128821e-05, -8.432386137464513e-08, 4.4867749425835864e-11, -150543879.09878448, 8.090912724756667]}, {"name": "polynomial2", "class": "NASAPolynomial", "Tmin_value": 485.39622899743466, "Tmin_units": "K", "Tmax_value": 3000.0, "Tmax_units": "K", "coeffs": [1.4651349812966712, 0.022068299956711855, -1.2628378415974456e-05, 3.5280372570941277e-09, -3.855767973354191e-13, -150543635.38297567, 18.3889911716905]}]

>  <H298_value>  (2) 
-299158.68811573734

>  <H298_units>  (2) 
kcal/mol

>  <S298_value>  (2) 
65.13190747939298

>  <S298_units>  (2) 
cal/(mol*K)

>  <Cp_T_value_list>  (2) 
[14.098427248842778, 16.871855394466547, 19.393339934655586, 21.604877323173096, 25.209772375709086, 27.915317068508738, 32.01166447471848, 34.0672583894089, 35.111294878115146]

>  <Cp_T_units>  (2) 
cal/(mol*K)

>  <T_list>  (2) 
[300.0, 400.0, 500.0, 600.0, 800.0, 1000.0, 1500.0, 2000.0, 2400.0]

>  <T_units>  (2) 
K

>  <yaml_path>  (2) 
/home/calvin/Dropbox/PersonalFolders/Calvin/HAb_Converged/rxn_1194/output/Species/rxn_1194_CC=S/rxn_1194_CC=S.yml

>  <frequencies_cm1>  (2) 
[170.46604358368, 396.01217641908, 770.63369356636, 837.4425937446399, 1045.2719044544401, 1080.9115582652398, 1167.33943550276, 1373.61680753024, 1381.75418513444, 1457.57943703788, 1469.4661886268, 3002.45885844892, 3059.70204807644, 3060.7801647716797, 3125.5770382512]

>  <ZPE_kJmol>  (2) 
139.95721324395197

>  <E_elec_kJmol>  (2) 
-1251832.836924264

>  <E0_minus_Eelec_plus_ZPE_kJmol>  (2) 
0.0

>  <rxn>  (2) 
rxn_1194

>  <species_type>  (2) 
p0

>  <species_folder>  (2) 
rxn_1194_CC=S

>  <frequencies_cm1_list>  (2) 
[170.46604358368, 396.01217641908, 770.63369356636, 837.4425937446399, 1045.2719044544401, 1080.9115582652398, 1167.33943550276, 1373.61680753024, 1381.75418513444, 1457.57943703788, 1469.4661886268, 3002.45885844892, 3059.70204807644, 3060.7801647716797, 3125.5770382512]

>  <E0_kJmol>  (2) 
-1.25169e+06

>  <H298_kJmol>  (2) 
-1.25168e+06

$$$$

     RDKit          3D

 22 20  0  0  0  0  0  0  0  0999 V2000
    0.4403   -2.3391   -0.9714 C   0  0  0  0  0  0  0  0  0  1  0  0
    1.0794   -2.0268    0.1524 C   0  0  0  0  0  0  0  0  0  2  0  0
    0.6320   -1.0160    1.1382 C   0  0  0  0  0  0  0  0  0  3  0  0
    1.6284   -0.7106    2.2356 C   0  0  0  0  0  0  0  0  0  4  0  0
   -0.7907   -1.0373    1.5002 C   0  0  0  0  0  0  0  0  0  5  0  0
   -1.3312   -0.4475    2.5666 C   0  0  0  0  0  0  0  0  0  6  0  0
    0.8407   -3.0788   -1.6520 H   0  0  0  0  0  0  0  0  0  7  0  0
   -0.4881   -1.8560   -1.2578 H   0  0  0  0  0  0  0  0  0  8  0  0
    2.0334   -2.5026    0.3629 H   0  0  0  0  0  0  0  0  0  9  0  0
    0.6540    0.1003    0.4323 H   0  0  0  0  0  0  0  0  0 10  0  0
    2.6337   -0.6167    1.8232 H   0  0  0  0  0  0  0  0  0 11  0  0
    1.3913    0.2216    2.7484 H   0  0  0  0  0  0  0  0  0 12  0  0
    1.6372   -1.5104    2.9805 H   0  0  0  0  0  0  0  0  0 13  0  0
   -1.4485   -1.5415    0.8013 H   0  0  0  0  0  0  0  0  0 14  0  0
   -0.7406    0.0806    3.3048 H   0  0  0  0  0  0  0  0  0 15  0  0
   -2.3989   -0.4888    2.7360 H   0  0  0  0  0  0  0  0  0 16  0  0
    0.6914    1.2208   -0.3578 C   0  0  0  0  0  0  0  0  0 17  0  0
   -0.6209    1.7436   -0.2690 C   0  0  0  0  0  0  0  0  0 18  0  0
   -1.8982    1.2209   -1.1651 S   0  0  0  0  0  1  0  0  0 19  0  0
    1.4940    1.7801    0.1162 H   0  0  0  0  0  0  0  0  0 20  0  0
    0.9564    0.6935   -1.2703 H   0  0  0  0  0  0  0  0  0 21  0  0
   -0.7933    2.5006    0.4945 H   0  0  0  0  0  0  0  0  0 22  0  0
  1  7  1  0
  1  8  1  0
  1  2  1  0
  2  3  1  0
  2  9  1  0
  3  4  1  0
  3  5  1  0
  3 10  1  0
  4 11  1  0
  4 12  1  0
  4 13  1  0
  5 14  1  0
  5  6  1  0
  6 16  1  0
  6 15  1  0
 17 21  1  0
 17 18  1  0
 17 20  1  0
 18 19  1  0
 18 22  1  0
M  RAD  1  19   2
M  END
>  <rmg_smiles>  (3) 
[CH2][CH]C([CH][CH2])C.[CH2][CH][S]

>  <rmg_adjacency_list>  (3) 
multiplicity 2
1  S u1 p2 c0 {9,S}
2  C u0 p0 c0 {3,S} {4,S} {5,S} {10,S}
3  C u0 p0 c0 {2,S} {11,S} {12,S} {13,S}
4  C u0 p0 c0 {2,S} {6,S} {14,S}
5  C u0 p0 c0 {2,S} {7,S} {15,S}
6  C u0 p0 c0 {4,S} {16,S} {17,S}
7  C u0 p0 c0 {5,S} {18,S} {19,S}
8  C u0 p0 c0 {9,S} {20,S} {21,S}
9  C u0 p0 c0 {1,S} {8,S} {22,S}
10 H u0 p0 c0 {2,S}
11 H u0 p0 c0 {3,S}
12 H u0 p0 c0 {3,S}
13 H u0 p0 c0 {3,S}
14 H u0 p0 c0 {4,S}
15 H u0 p0 c0 {5,S}
16 H u0 p0 c0 {6,S}
17 H u0 p0 c0 {6,S}
18 H u0 p0 c0 {7,S}
19 H u0 p0 c0 {7,S}
20 H u0 p0 c0 {8,S}
21 H u0 p0 c0 {8,S}
22 H u0 p0 c0 {9,S}


>  <multiplicity>  (3) 
2

>  <reaction>  (3) 
rxn_1194

>  <type>  (3) 
ts

>  <role_mapnums>  (3) 
{"*2": 10, "*1": 3, "*3": 17, "*0": 2, "*4": 18}

>  <role_mapidx>  (3) 
{"*2": 9, "*1": 2, "*3": 16, "*0": 1, "*4": 17}

>  <ordered_mapped_smiles>  (3) 
[CH:1]([CH:2]([C:3]([C:4]([H:11])([H:12])[H:13])([CH:5]([CH:6]([H:15])[H:16])[H:14])[H:10])[H:9])([H:7])[H:8].[CH:17]([CH:18]([S:19])[H:22])([H:20])[H:21]

>  <mol_properties>  (3) 
{"1": {"label": "*0", "atom_type": "Cs"}, "2": {"label": "*1", "atom_type": "Cs"}, "9": {"label": "*2", "atom_type": "H0"}, "16": {"label": "*3", "atom_type": "Cs"}, "17": {"label": "*4", "atom_type": "Cs"}}

>  <level_of_theory>  (3) 
wb97xd/def2tzvp

>  <lot_method>  (3) 
wb97xd

>  <lot_basis>  (3) 
def2tzvp

>  <spin_multiplicity>  (3) 
2.0

>  <optical_isomers>  (3) 
2.0

>  <modes>  (3) 
IdealGasTranslation(mass=(141.074, 'amu')),         NonlinearRotor(             inertia = ([316.896, 583.713, 658.749

>  <frequency_value>  (3) 
-1561.23

>  <frequency_units>  (3) 
cm^-1

>  <frequency_list>  (3) 
unknown

>  <arkane_path>  (3) 
/home/calvin/Dropbox/PersonalFolders/Calvin/HAb_Converged/rxn_1194/output/rxns/TS0/arkane/output.py

>  <path_exists>  (3) 
True

>  <E0_value>  (3) 
-1865610.0

>  <E0_units>  (3) 
kJ/mol

>  <thermo_class>  (3) 
unknown

>  <Cp0_value>  (3) 
unknown

>  <Cp0_units>  (3) 
unknown

>  <CpInf_value>  (3) 
unknown

>  <CpInf_units>  (3) 
unknown

>  <Tmin_value>  (3) 
unknown

>  <Tmin_units>  (3) 
unknown

>  <Tmax_value>  (3) 
unknown

>  <Tmax_units>  (3) 
unknown

>  <polynomials>  (3) 
unknown

>  <H298_value>  (3) 
unknown

>  <H298_units>  (3) 
unknown

>  <S298_value>  (3) 
unknown

>  <S298_units>  (3) 
unknown

>  <Cp_T_value_list>  (3) 
unknown

>  <Cp_T_units>  (3) 
unknown

>  <T_list>  (3) 
unknown

>  <T_units>  (3) 
unknown

>  <yaml_path>  (3) 
unknown

>  <frequencies_cm1>  (3) 
unknown

>  <ZPE_kJmol>  (3) 
unknown

>  <E_elec_kJmol>  (3) 
unknown

>  <E0_minus_Eelec_plus_ZPE_kJmol>  (3) 
unknown

>  <rxn>  (3) 
unknown

>  <species_type>  (3) 
unknown

>  <species_folder>  (3) 
unknown

>  <frequencies_cm1_list>  (3) 
[]

>  <ts_imag_freq_cm1>  (3) 
-1580.1966

>  <ts_freq_out_path>  (3) 
/home/calvin/Dropbox/PersonalFolders/Calvin/HAb_Converged/rxn_1194/output/rxns/TS0/geometry/freq.out

>  <E0_kJmol>  (3) 
-1.86561e+06

>  <H298_kJmol>  (3) 
unknown

$$$$

     RDKit          3D

 15 14  0  0  0  0  0  0  0  0999 V2000
    2.4381    0.5770   -0.2356 C   0  0  0  0  0  0  0  0  0  1  0  0
    1.4430   -0.3367   -0.1409 C   0  0  0  0  0  0  0  0  0  2  0  0
    0.0521   -0.0957   -0.0045 C   0  0  0  0  0  3  0  0  0  3  0  0
   -0.5167    1.2867    0.0548 C   0  0  0  0  0  0  0  0  0  4  0  0
   -0.8226   -1.2147    0.0778 C   0  0  0  0  0  0  0  0  0  5  0  0
   -2.1666   -1.1669    0.2092 C   0  0  0  0  0  0  0  0  0  6  0  0
    3.4666    0.2585   -0.3369 H   0  0  0  0  0  0  0  0  0  7  0  0
    2.2594    1.6438   -0.2152 H   0  0  0  0  0  0  0  0  0  8  0  0
    1.7306   -1.3845   -0.1719 H   0  0  0  0  0  0  0  0  0  9  0  0
   -1.2300    1.4469   -0.7583 H   0  0  0  0  0  0  0  0  0 10  0  0
    0.2481    2.0557   -0.0178 H   0  0  0  0  0  0  0  0  0 11  0  0
   -1.0592    1.4421    0.9914 H   0  0  0  0  0  0  0  0  0 12  0  0
   -0.3519   -2.1929    0.0292 H   0  0  0  0  0  0  0  0  0 13  0  0
   -2.7080   -0.2310    0.2646 H   0  0  0  0  0  0  0  0  0 14  0  0
   -2.7513   -2.0751    0.2638 H   0  0  0  0  0  0  0  0  0 15  0  0
  1  8  1  0
  1  7  1  0
  1  2  1  0
  2  9  1  0
  2  3  1  0
  3  4  1  0
  3  5  1  0
  4 12  1  0
  4 10  1  0
  4 11  1  0
  5  6  1  0
  5 13  1  0
  6 15  1  0
  6 14  1  0
M  RAD  1   3   2
M  END
>  <rmg_smiles>  (4) 
[CH2][CH][C](C)[CH][CH2]

>  <rmg_adjacency_list>  (4) 
multiplicity 2
1  C u0 p0 c0 {2,S} {7,S} {8,S} {9,S}
2  C u1 p0 c0 {1,S} {3,S} {4,S}
3  C u0 p0 c0 {2,S} {5,S} {10,S}
4  C u0 p0 c0 {2,S} {6,S} {11,S}
5  C u0 p0 c0 {3,S} {12,S} {13,S}
6  C u0 p0 c0 {4,S} {14,S} {15,S}
7  H u0 p0 c0 {1,S}
8  H u0 p0 c0 {1,S}
9  H u0 p0 c0 {1,S}
10 H u0 p0 c0 {3,S}
11 H u0 p0 c0 {4,S}
12 H u0 p0 c0 {5,S}
13 H u0 p0 c0 {5,S}
14 H u0 p0 c0 {6,S}
15 H u0 p0 c0 {6,S}


>  <multiplicity>  (4) 
2

>  <reaction>  (4) 
rxn_1194

>  <type>  (4) 
r1

>  <role_mapnums>  (4) 
{}

>  <role_mapidx>  (4) 
{}

>  <ordered_mapped_smiles>  (4) 
[CH:1]([CH:2]([C:3]([C:4]([H:10])([H:11])[H:12])[CH:5]([CH:6]([H:14])[H:15])[H:13])[H:9])([H:7])[H:8]

>  <level_of_theory>  (4) 
wb97xd/def2tzvp

>  <lot_method>  (4) 
wb97xd

>  <lot_basis>  (4) 
def2tzvp

>  <spin_multiplicity>  (4) 
2.0

>  <optical_isomers>  (4) 
1.0

>  <modes>  (4) 
IdealGasTranslation(mass=(81.0704, 'amu')),         NonlinearRotor(             inertia = ([62.5293, 224.796, 284.21

>  <frequency_value>  (4) 
unknown

>  <frequency_units>  (4) 
unknown

>  <frequency_list>  (4) 
unknown

>  <arkane_path>  (4) 
/home/calvin/Dropbox/PersonalFolders/Calvin/HAb_Converged/rxn_1194/output/Species/rxn_1194_C=C[C][C]C=C/arkane/output.py

>  <path_exists>  (4) 
True

>  <E0_value>  (4) 
-614016.405434086

>  <E0_units>  (4) 
kJ/mol

>  <thermo_class>  (4) 
NASA

>  <Cp0_value>  (4) 
33.257888

>  <Cp0_units>  (4) 
J/(mol*K)

>  <CpInf_value>  (4) 
357.522296

>  <CpInf_units>  (4) 
J/(mol*K)

>  <Tmin_value>  (4) 
10.0

>  <Tmin_units>  (4) 
K

>  <Tmax_value>  (4) 
3000.0

>  <Tmax_units>  (4) 
K

>  <polynomials>  (4) 
[{"name": "polynomial1", "class": "NASAPolynomial", "Tmin_value": 10.0, "Tmin_units": "K", "Tmax_value": 419.0689826855313, "Tmax_units": "K", "coeffs": [3.7461378399183536, 0.022464955908256024, 8.810794690126274e-05, -1.8449270689510127e-07, 1.148776845632381e-10, -73849113.49735299, 11.570077105248336]}, {"name": "polynomial2", "class": "NASAPolynomial", "Tmin_value": 419.0689826855313, "Tmin_units": "K", "Tmax_value": 3000.0, "Tmax_units": "K", "coeffs": [0.16809288681172943, 0.05661667084847684, -3.41312558204021e-05, 9.965368111618754e-09, -1.1262510033039744e-12, -73848813.6024703, 25.720243230921767]}]

>  <H298_value>  (4) 
-146748.3088248158

>  <H298_units>  (4) 
kcal/mol

>  <S298_value>  (4) 
83.69704340475995

>  <S298_units>  (4) 
cal/(mol*K)

>  <Cp_T_value_list>  (4) 
[28.545319179186908, 35.69564824876572, 41.96760480546441, 47.409581732443996, 56.15524022360577, 62.58234917827583, 71.99499165792618, 76.66511553325982, 79.18424304962427]

>  <Cp_T_units>  (4) 
cal/(mol*K)

>  <T_list>  (4) 
[300.0, 400.0, 500.0, 600.0, 800.0, 1000.0, 1500.0, 2000.0, 2400.0]

>  <T_units>  (4) 
K

>  <yaml_path>  (4) 
/home/calvin/Dropbox/PersonalFolders/Calvin/HAb_Converged/rxn_1194/output/Species/rxn_1194_C=C[C][C]C=C/rxn_1194_C=CCCC=C.yml

>  <frequencies_cm1>  (4) 
[55.7255858718, 142.91569847984, 243.59943724168, 250.04753645715996, 341.08316084439997, 359.56908532584, 490.81090876168, 546.8592429435199, 586.89376735912, 682.6813455877999, 764.7280861911601, 864.3131073018001, 877.42218227768, 957.0998129456399, 982.96774664608, 1004.23480018212, 1020.31727980156, 1028.45465740576, 1074.8823451542798, 1211.9885740533998, 1279.2781632040799, 1315.0139548093598, 1360.63133829012, 1400.4461191754801, 1420.0719632200398, 1441.723567934, 1468.0927915628, 1488.2405264916797, 1525.7960692067597, 1597.66593756588, 3009.75159685876, 3060.48488440292, 3115.2559593152396, 3122.0886097086404, 3125.7967817814397, 3133.8517555617996, 3139.09126536096, 3221.11053802304, 3224.1388785491595]

>  <ZPE_kJmol>  (4) 
334.5664415862221

>  <E_elec_kJmol>  (4) 
-614350.9718756722

>  <E0_minus_Eelec_plus_ZPE_kJmol>  (4) 
0.0

>  <rxn>  (4) 
rxn_1194

>  <species_type>  (4) 
p1

>  <species_folder>  (4) 
rxn_1194_C=C[C][C]C=C

>  <frequencies_cm1_list>  (4) 
[55.7255858718, 142.91569847984, 243.59943724168, 250.04753645715996, 341.08316084439997, 359.56908532584, 490.81090876168, 546.8592429435199, 586.89376735912, 682.6813455877999, 764.7280861911601, 864.3131073018001, 877.42218227768, 957.0998129456399, 982.96774664608, 1004.23480018212, 1020.31727980156, 1028.45465740576, 1074.8823451542798, 1211.9885740533998, 1279.2781632040799, 1315.0139548093598, 1360.63133829012, 1400.4461191754801, 1420.0719632200398, 1441.723567934, 1468.0927915628, 1488.2405264916797, 1525.7960692067597, 1597.66593756588, 3009.75159685876, 3060.48488440292, 3115.2559593152396, 3122.0886097086404, 3125.7967817814397, 3133.8517555617996, 3139.09126536096, 3221.11053802304, 3224.1388785491595]

>  <E0_kJmol>  (4) 
-614016

>  <H298_kJmol>  (4) 
-613995

$$$$

     RDKit          3D

  6  5  0  0  0  0  0  0  0  0999 V2000
   -0.7309   -0.0987    0.0327 C   0  0  0  0  0  0  0  0  0  1  0  0
    0.6208    0.0065   -0.0096 C   0  0  0  0  0  0  0  0  0  2  0  0
    1.6572   -1.2972    0.2837 S   0  0  0  0  0  1  0  0  0  3  0  0
   -1.3651    0.7588   -0.1608 H   0  0  0  0  0  0  0  0  0  4  0  0
   -1.2044   -1.0453    0.2616 H   0  0  0  0  0  0  0  0  0  5  0  0
    1.0609    0.9725   -0.2426 H   0  0  0  0  0  0  0  0  0  6  0  0
  1  5  1  0
  1  4  1  0
  1  2  1  0
  2  3  1  0
  2  6  1  0
M  RAD  1   3   2
M  END
>  <rmg_smiles>  (5) 
[CH2][CH][S]

>  <rmg_adjacency_list>  (5) 
multiplicity 2
1 S u1 p2 c0 {3,S}
2 C u0 p0 c0 {3,S} {4,S} {5,S}
3 C u0 p0 c0 {1,S} {2,S} {6,S}
4 H u0 p0 c0 {2,S}
5 H u0 p0 c0 {2,S}
6 H u0 p0 c0 {3,S}


>  <multiplicity>  (5) 
2

>  <reaction>  (5) 
rxn_1194

>  <type>  (5) 
r2

>  <role_mapnums>  (5) 
{}

>  <role_mapidx>  (5) 
{}

>  <ordered_mapped_smiles>  (5) 
[CH:1]([CH:2]([S:3])[H:6])([H:4])[H:5]

>  <level_of_theory>  (5) 
wb97xd/def2tzvp

>  <lot_method>  (5) 
wb97xd

>  <lot_basis>  (5) 
def2tzvp

>  <spin_multiplicity>  (5) 
2.0

>  <optical_isomers>  (5) 
1.0

>  <modes>  (5) 
IdealGasTranslation(mass=(58.9956, 'amu')),         NonlinearRotor(             inertia = ([8.83476, 79.9763, 88.811

>  <frequency_value>  (5) 
unknown

>  <frequency_units>  (5) 
unknown

>  <frequency_list>  (5) 
unknown

>  <arkane_path>  (5) 
/home/calvin/Dropbox/PersonalFolders/Calvin/HAb_Converged/rxn_1194/output/Species/rxn_1194_[CH2]C=S/arkane/output.py

>  <path_exists>  (5) 
True

>  <E0_value>  (5) 
-1250043.110807286

>  <E0_units>  (5) 
kJ/mol

>  <thermo_class>  (5) 
NASA

>  <Cp0_value>  (5) 
33.257888

>  <Cp0_units>  (5) 
J/(mol*K)

>  <CpInf_value>  (5) 
133.031552

>  <CpInf_units>  (5) 
J/(mol*K)

>  <Tmin_value>  (5) 
10.0

>  <Tmin_units>  (5) 
K

>  <Tmax_value>  (5) 
3000.0

>  <Tmax_units>  (5) 
K

>  <polynomials>  (5) 
[{"name": "polynomial1", "class": "NASAPolynomial", "Tmin_value": 10.0, "Tmin_units": "K", "Tmax_value": 532.7243167618623, "Tmax_units": "K", "coeffs": [4.067075979396691, -0.006403539850264782, 8.807291251076341e-05, -1.576667854691463e-07, 9.235973025607611e-11, -150345458.46382707, 8.421967934724249]}, {"name": "polynomial2", "class": "NASAPolynomial", "Tmin_value": 532.7243167618623, "Tmin_units": "K", "Tmax_value": 3000.0, "Tmax_units": "K", "coeffs": [2.1262272561499946, 0.018548778063449952, -1.1410896338021972e-05, 3.4033850580240633e-09, -3.915343193556974e-13, -150345398.95630276, 15.180861356183497]}]

>  <H298_value>  (5) 
-298764.61657121626

>  <H298_units>  (5) 
kcal/mol

>  <S298_value>  (5) 
64.35790710333508

>  <S298_units>  (5) 
cal/(mol*K)

>  <Cp_T_value_list>  (5) 
[13.043400995126946, 15.641423321427808, 17.780866282053577, 19.53813430705424, 22.345017795429637, 24.394866961547805, 27.38203567367369, 28.89940637643697, 29.75793587094202]

>  <Cp_T_units>  (5) 
cal/(mol*K)

>  <T_list>  (5) 
[300.0, 400.0, 500.0, 600.0, 800.0, 1000.0, 1500.0, 2000.0, 2400.0]

>  <T_units>  (5) 
K

>  <yaml_path>  (5) 
/home/calvin/Dropbox/PersonalFolders/Calvin/HAb_Converged/rxn_1194/output/Species/rxn_1194_[CH2]C=S/rxn_1194_CH2C=S.yml

>  <frequencies_cm1>  (5) 
[401.01820871736, 475.21598509996, 781.12644713532, 939.1495133191601, 974.6449604382399, 1045.93800203048, 1282.84212858516, 1350.7016775174, 1511.6912813594797, 3110.64821216552, 3122.0680087526794, 3219.55859934072]

>  <ZPE_kJmol>  (5) 
108.94755150830215

>  <E_elec_kJmol>  (5) 
-1250152.0583587943

>  <E0_minus_Eelec_plus_ZPE_kJmol>  (5) 
0.0

>  <rxn>  (5) 
rxn_1194

>  <species_type>  (5) 
r1

>  <species_folder>  (5) 
rxn_1194_[CH2]C=S

>  <frequencies_cm1_list>  (5) 
[401.01820871736, 475.21598509996, 781.12644713532, 939.1495133191601, 974.6449604382399, 1045.93800203048, 1282.84212858516, 1350.7016775174, 1511.6912813594797, 3110.64821216552, 3122.0680087526794, 3219.55859934072]

>  <E0_kJmol>  (5) 
-1.25004e+06

>  <H298_kJmol>  (5) 
-1.25003e+06

$$$$
