
     RDKit          3D

 22 23  0  0  0  0  0  0  0  0999 V2000
    0.6808   -1.9269   -0.7577 C   0  0  0  0  0  0  0  0  0  1  0  0
    0.5054   -1.5403    0.7155 C   0  0  0  0  0  0  0  0  0  2  0  0
   -0.4790   -0.3908    0.6841 C   0  0  0  0  0  0  0  0  0  3  0  0
   -0.3235    0.8062    1.5937 C   0  0  0  0  0  0  0  0  0  4  0  0
    0.2076    1.8985    0.6532 C   0  0  0  0  0  0  0  0  0  5  0  0
   -0.5439    1.6372   -0.6561 C   0  0  0  0  0  0  0  0  0  6  0  0
   -0.6152    0.1067   -0.7554 C   0  0  0  0  0  0  0  0  0  7  0  0
    0.5371   -0.5932   -1.4917 C   0  0  0  0  0  0  0  0  0  8  0  0
    1.6269   -2.4310   -0.9576 H   0  0  0  0  0  0  0  0  0  9  0  0
   -0.1262   -2.6017   -1.0552 H   0  0  0  0  0  0  0  0  0 10  0  0
    0.1679   -2.3754    1.3350 H   0  0  0  0  0  0  0  0  0 11  0  0
    1.4593   -1.1982    1.1365 H   0  0  0  0  0  0  0  0  0 12  0  0
   -1.4510   -0.8316    0.9058 H   0  0  0  0  0  0  0  0  0 13  0  0
   -1.2955    1.1159    1.9950 H   0  0  0  0  0  0  0  0  0 14  0  0
    0.3313    0.6091    2.4441 H   0  0  0  0  0  0  0  0  0 15  0  0
    1.2821    1.7591    0.5022 H   0  0  0  0  0  0  0  0  0 16  0  0
    0.0600    2.9080    1.0391 H   0  0  0  0  0  0  0  0  0 17  0  0
   -1.5541    2.0483   -0.5856 H   0  0  0  0  0  0  0  0  0 18  0  0
   -0.0628    2.0922   -1.5236 H   0  0  0  0  0  0  0  0  0 19  0  0
   -1.5655   -0.2099   -1.1981 H   0  0  0  0  0  0  0  0  0 20  0  0
    0.3511   -0.7039   -2.5609 H   0  0  0  0  0  0  0  0  0 21  0  0
    1.4558   -0.0081   -1.3757 H   0  0  0  0  0  0  0  0  0 22  0  0
  1  8  1  0
  1 10  1  0
  1  9  1  0
  1  2  1  0
  2 12  1  0
  2 11  1  0
  2  3  1  0
  3  4  1  0
  3 13  1  0
  3  7  1  0
  4 14  1  0
  4  5  1  0
  4 15  1  0
  5 16  1  0
  5 17  1  0
  5  6  1  0
  6  7  1  0
  6 19  1  0
  6 18  1  0
  7 20  1  0
  7  8  1  0
  8 22  1  0
  8 21  1  0
M  END
>  <rmg_smiles>  (1) 
C1CC2CCCC2C1

>  <rmg_adjacency_list>  (1) 
1  C u0 p0 c0 {2,S} {3,S} {4,S} {9,S}
2  C u0 p0 c0 {1,S} {5,S} {6,S} {10,S}
3  C u0 p0 c0 {1,S} {7,S} {13,S} {14,S}
4  C u0 p0 c0 {1,S} {8,S} {15,S} {16,S}
5  C u0 p0 c0 {2,S} {8,S} {19,S} {20,S}
6  C u0 p0 c0 {2,S} {7,S} {21,S} {22,S}
7  C u0 p0 c0 {3,S} {6,S} {11,S} {12,S}
8  C u0 p0 c0 {4,S} {5,S} {17,S} {18,S}
9  H u0 p0 c0 {1,S}
10 H u0 p0 c0 {2,S}
11 H u0 p0 c0 {7,S}
12 H u0 p0 c0 {7,S}
13 H u0 p0 c0 {3,S}
14 H u0 p0 c0 {3,S}
15 H u0 p0 c0 {4,S}
16 H u0 p0 c0 {4,S}
17 H u0 p0 c0 {8,S}
18 H u0 p0 c0 {8,S}
19 H u0 p0 c0 {5,S}
20 H u0 p0 c0 {5,S}
21 H u0 p0 c0 {6,S}
22 H u0 p0 c0 {6,S}


>  <multiplicity>  (1) 
1

>  <reaction>  (1) 
rxn_562

>  <type>  (1) 
r1h

>  <role_mapnums>  (1) 
{"r1h_a": 3, "r1h_h": 13}

>  <role_mapidx>  (1) 
{"r1h_a": 2, "r1h_h": 12}

>  <ordered_mapped_smiles>  (1) 
[C:1]1([H:9])([H:10])[C:2]([H:11])([H:12])[C:3]2([H:13])[C:4]([H:14])([H:15])[C:5]([H:16])([H:17])[C:6]([H:18])([H:19])[C:7]2([H:20])[C:8]1([H:21])[H:22]

>  <mol_properties>  (1) 
{"2": {"label": "donator", "atom_type": "Cs"}, "12": {"label": "d_hydrogen", "atom_type": "H0"}}

>  <level_of_theory>  (1) 
wb97xd/def2tzvp

>  <lot_method>  (1) 
wb97xd

>  <lot_basis>  (1) 
def2tzvp

>  <spin_multiplicity>  (1) 
1.0

>  <optical_isomers>  (1) 
1.0

>  <modes>  (1) 
IdealGasTranslation(mass=(110.11, 'amu')),         NonlinearRotor(             inertia = ([146.16, 254.143, 330.352

>  <frequency_value>  (1) 
unknown

>  <frequency_units>  (1) 
unknown

>  <frequency_list>  (1) 
unknown

>  <arkane_path>  (1) 
/home/calvin/Dropbox/PersonalFolders/Calvin/HAb_Converged/rxn_562/output/Species/rxn_562_C1CC2CCCC2C1/arkane/output.py

>  <path_exists>  (1) 
True

>  <E0_value>  (1) 
-822068.5647386889

>  <E0_units>  (1) 
kJ/mol

>  <thermo_class>  (1) 
NASA

>  <Cp0_value>  (1) 
33.257888

>  <Cp0_units>  (1) 
J/(mol*K)

>  <CpInf_value>  (1) 
532.126208

>  <CpInf_units>  (1) 
J/(mol*K)

>  <Tmin_value>  (1) 
10.0

>  <Tmin_units>  (1) 
K

>  <Tmax_value>  (1) 
3000.0

>  <Tmax_units>  (1) 
K

>  <polynomials>  (1) 
[{"name": "polynomial1", "class": "NASAPolynomial", "Tmin_value": 10.0, "Tmin_units": "K", "Tmax_value": 631.1554087767174, "Tmax_units": "K", "coeffs": [4.104892732192084, -0.00872402245613231, 0.0002586838352826795, -3.8715965058313203e-07, 1.8543893870085067e-10, -98872009.83151405, 11.711801191684385]}, {"name": "polynomial2", "class": "NASAPolynomial", "Tmin_value": 631.1554087767174, "Tmin_units": "K", "Tmax_value": 3000.0, "Tmax_units": "K", "coeffs": [-8.339564241366276, 0.09752899339998983, -5.8919991130410155e-05, 1.705923018149873e-08, -1.9017313185535466e-12, -98870984.4094117, 61.70104968838544]}]

>  <H298_value>  (1) 
-196474.24862839645

>  <H298_units>  (1) 
kcal/mol

>  <S298_value>  (1) 
81.34524085312425

>  <S298_units>  (1) 
cal/(mol*K)

>  <Cp_T_value_list>  (1) 
[31.433584756109013, 43.66631245461224, 54.86442195893942, 64.39157523859107, 79.34957857997146, 90.27270430862933, 105.98037139896968, 113.43888502925647, 117.40970049175486]

>  <Cp_T_units>  (1) 
cal/(mol*K)

>  <T_list>  (1) 
[300.0, 400.0, 500.0, 600.0, 800.0, 1000.0, 1500.0, 2000.0, 2400.0]

>  <T_units>  (1) 
K

>  <yaml_path>  (1) 
/home/calvin/Dropbox/PersonalFolders/Calvin/HAb_Converged/rxn_562/output/Species/rxn_562_C1CC2CCCC2C1/rxn_562_C1CC2CCCC2C1.yml

>  <frequencies_cm1>  (1) 
[104.48804862911999, 193.17516403692, 284.30005923332, 354.38451140924, 393.75980523412, 536.4076912864799, 546.84550897288, 589.015665823, 687.2204228843199, 771.9521547477999, 809.8922486408001, 842.5310298667599, 889.59048026472, 905.6866938548001, 914.3802972699199, 927.22155981832, 933.9649394025599, 960.1075525158, 996.54377662372, 1021.0245792895199, 1030.08899991192, 1051.48652616904, 1068.6333885130798, 1089.19314256116, 1150.77626691092, 1188.5515531562398, 1194.01080648564, 1212.42806111388, 1220.75771430704, 1259.1235612898797, 1274.34766774432, 1301.0327726978398, 1303.03793241128, 1323.01399270716, 1323.82429697492, 1335.4501031216798, 1337.88101592496, 1343.2166635186, 1357.4862590135597, 1367.1755753000798, 1477.40442365672, 1478.31086571896, 1479.4507852820798, 1483.57097647408, 1496.2336974041598, 1502.40025022152, 3003.36530051116, 3004.25800860276, 3014.3250090818797, 3016.1859621035996, 3016.74905489984, 3018.8846873343596, 3037.5079515222, 3052.3475067987197, 3066.73384104412, 3068.2514447998396, 3072.3785029771598, 3072.460906801, 3078.0849677780793, 3083.11846801764]

>  <ZPE_kJmol>  (1) 
537.8174543033537

>  <E_elec_kJmol>  (1) 
-822606.3821929923

>  <E0_minus_Eelec_plus_ZPE_kJmol>  (1) 
0.0

>  <rxn>  (1) 
rxn_562

>  <species_type>  (1) 
r1

>  <species_folder>  (1) 
rxn_562_C1CC2CCCC2C1

>  <frequencies_cm1_list>  (1) 
[104.48804862911999, 193.17516403692, 284.30005923332, 354.38451140924, 393.75980523412, 536.4076912864799, 546.84550897288, 589.015665823, 687.2204228843199, 771.9521547477999, 809.8922486408001, 842.5310298667599, 889.59048026472, 905.6866938548001, 914.3802972699199, 927.22155981832, 933.9649394025599, 960.1075525158, 996.54377662372, 1021.0245792895199, 1030.08899991192, 1051.48652616904, 1068.6333885130798, 1089.19314256116, 1150.77626691092, 1188.5515531562398, 1194.01080648564, 1212.42806111388, 1220.75771430704, 1259.1235612898797, 1274.34766774432, 1301.0327726978398, 1303.03793241128, 1323.01399270716, 1323.82429697492, 1335.4501031216798, 1337.88101592496, 1343.2166635186, 1357.4862590135597, 1367.1755753000798, 1477.40442365672, 1478.31086571896, 1479.4507852820798, 1483.57097647408, 1496.2336974041598, 1502.40025022152, 3003.36530051116, 3004.25800860276, 3014.3250090818797, 3016.1859621035996, 3016.74905489984, 3018.8846873343596, 3037.5079515222, 3052.3475067987197, 3066.73384104412, 3068.2514447998396, 3072.3785029771598, 3072.460906801, 3078.0849677780793, 3083.11846801764]

>  <E0_kJmol>  (1) 
-822069

>  <H298_kJmol>  (1) 
-822048

$$$$

     RDKit          3D

 13 12  0  0  0  0  0  0  0  0999 V2000
    0.6554   -2.2022   -0.0849 C   0  0  0  0  0  0  0  0  0  1  0  0
    0.4301   -0.9233   -0.3701 C   0  0  0  0  0  0  0  0  0  2  0  0
    0.4856    0.1778    0.6042 C   0  0  0  0  0  0  0  0  0  3  0  0
   -0.4206    1.3311    0.4497 C   0  0  0  0  0  0  0  0  0  4  0  0
   -1.1887    1.6253   -0.5969 C   0  0  0  0  0  0  0  0  0  5  0  0
    0.6464   -2.9631   -0.8545 H   0  0  0  0  0  0  0  0  0  6  0  0
    0.8505   -2.5297    0.9307 H   0  0  0  0  0  0  0  0  0  7  0  0
    0.2441   -0.6499   -1.4049 H   0  0  0  0  0  0  0  0  0  8  0  0
    0.5380   -0.1759    1.6350 H   0  0  0  0  0  0  0  0  0  9  0  0
   -0.4106    2.0277    1.2839 H   0  0  0  0  0  0  0  0  0 10  0  0
   -1.7827    2.5298   -0.6110 H   0  0  0  0  0  0  0  0  0 11  0  0
   -1.2679    0.9783   -1.4618 H   0  0  0  0  0  0  0  0  0 12  0  0
    1.4792    0.6104    0.4779 H   0  0  0  0  0  0  0  0  0 13  0  0
  1  7  1  0
  1  6  1  0
  1  2  1  0
  2  8  1  0
  2  3  1  0
  3  4  1  0
  3 13  1  0
  3  9  1  0
  4  5  1  0
  4 10  1  0
  5 11  1  0
  5 12  1  0
M  END
>  <rmg_smiles>  (2) 
[CH2][CH]C[CH][CH2]

>  <rmg_adjacency_list>  (2) 
1  C u0 p0 c0 {2,S} {3,S} {6,S} {7,S}
2  C u0 p0 c0 {1,S} {4,S} {8,S}
3  C u0 p0 c0 {1,S} {5,S} {9,S}
4  C u0 p0 c0 {2,S} {10,S} {11,S}
5  C u0 p0 c0 {3,S} {12,S} {13,S}
6  H u0 p0 c0 {1,S}
7  H u0 p0 c0 {1,S}
8  H u0 p0 c0 {2,S}
9  H u0 p0 c0 {3,S}
10 H u0 p0 c0 {4,S}
11 H u0 p0 c0 {4,S}
12 H u0 p0 c0 {5,S}
13 H u0 p0 c0 {5,S}


>  <multiplicity>  (2) 
1

>  <reaction>  (2) 
rxn_562

>  <type>  (2) 
r2h

>  <role_mapnums>  (2) 
{"r2h_a": 3, "r2h_h": 13}

>  <role_mapidx>  (2) 
{"r2h_a": 2, "r2h_h": 12}

>  <ordered_mapped_smiles>  (2) 
[CH:1]([CH:2]([C:3]([CH:4]([CH:5]([H:11])[H:12])[H:10])([H:9])[H:13])[H:8])([H:6])[H:7]

>  <mol_properties>  (2) 
{"2": {"label": "acceptor", "atom_type": "Cs"}, "12": {"label": "a_hydrogen", "atom_type": "H0"}}

>  <level_of_theory>  (2) 
wb97xd/def2tzvp

>  <lot_method>  (2) 
wb97xd

>  <lot_basis>  (2) 
def2tzvp

>  <spin_multiplicity>  (2) 
1.0

>  <optical_isomers>  (2) 
2.0

>  <modes>  (2) 
IdealGasTranslation(mass=(68.0626, 'amu')),         NonlinearRotor(             inertia = ([45.0412, 159.938, 187.579

>  <frequency_value>  (2) 
unknown

>  <frequency_units>  (2) 
unknown

>  <frequency_list>  (2) 
unknown

>  <arkane_path>  (2) 
/home/calvin/Dropbox/PersonalFolders/Calvin/HAb_Converged/rxn_562/output/Species/rxn_562_C=CCC=C/arkane/output.py

>  <path_exists>  (2) 
True

>  <E0_value>  (2) 
-512473.3799039456

>  <E0_units>  (2) 
kJ/mol

>  <thermo_class>  (2) 
NASA

>  <Cp0_value>  (2) 
33.257888

>  <Cp0_units>  (2) 
J/(mol*K)

>  <CpInf_value>  (2) 
307.635464

>  <CpInf_units>  (2) 
J/(mol*K)

>  <Tmin_value>  (2) 
10.0

>  <Tmin_units>  (2) 
K

>  <Tmax_value>  (2) 
3000.0

>  <Tmax_units>  (2) 
K

>  <polynomials>  (2) 
[{"name": "polynomial1", "class": "NASAPolynomial", "Tmin_value": 10.0, "Tmin_units": "K", "Tmax_value": 819.4804820196184, "Tmax_units": "K", "coeffs": [3.8786961323103277, 0.01518848526354921, 5.629175519915376e-05, -8.158967068239976e-08, 3.30459758185792e-11, -61636312.679365546, 10.298540277465028]}, {"name": "polynomial2", "class": "NASAPolynomial", "Tmin_value": 819.4804820196184, "Tmin_units": "K", "Tmax_value": 3000.0, "Tmax_units": "K", "coeffs": [0.9713570478533602, 0.04440309225960069, -2.468286623666531e-05, 6.656489578832237e-09, -7.002700885295111e-13, -61636340.62723716, 20.6681030649648]}]

>  <H298_value>  (2) 
-122479.74618776135

>  <H298_units>  (2) 
kcal/mol

>  <S298_value>  (2) 
77.03784100856907

>  <S298_units>  (2) 
cal/(mol*K)

>  <Cp_T_value_list>  (2) 
[22.98452912921813, 28.98342495343222, 34.60231709225981, 39.57761952390819, 47.33114131422195, 52.95468648559353, 61.52407504834919, 65.76395981018108, 67.86608281001313]

>  <Cp_T_units>  (2) 
cal/(mol*K)

>  <T_list>  (2) 
[300.0, 400.0, 500.0, 600.0, 800.0, 1000.0, 1500.0, 2000.0, 2400.0]

>  <T_units>  (2) 
K

>  <yaml_path>  (2) 
/home/calvin/Dropbox/PersonalFolders/Calvin/HAb_Converged/rxn_562/output/Species/rxn_562_C=CCC=C/rxn_562_C=CCC=C.yml

>  <frequencies_cm1>  (2) 
[87.95234797856001, 151.90458226372, 257.19606817528, 416.50326061396, 498.01437636235994, 571.25077480016, 682.49593698416, 887.8393990081199, 919.5923391278, 958.3564712591999, 961.16506825508, 963.55477914644, 1034.0581174268798, 1039.2220903875198, 1080.8909573092799, 1137.2757737718, 1245.9046145488799, 1315.20623039832, 1324.3393208739199, 1346.8492987528798, 1434.93211945252, 1443.44718124932, 1463.70478794332, 1713.3403052812798, 1720.18668964532, 2995.26912481888, 3030.3800207600398, 3111.8568015818396, 3116.1074654949202, 3123.6062134643594, 3128.7427184837197, 3202.1645255251597, 3207.6031778986]

>  <ZPE_kJmol>  (2) 
296.4999886896896

>  <E_elec_kJmol>  (2) 
-512769.8798926352

>  <E0_minus_Eelec_plus_ZPE_kJmol>  (2) 
0.0

>  <rxn>  (2) 
rxn_562

>  <species_type>  (2) 
p0

>  <species_folder>  (2) 
rxn_562_C=CCC=C

>  <frequencies_cm1_list>  (2) 
[87.95234797856001, 151.90458226372, 257.19606817528, 416.50326061396, 498.01437636235994, 571.25077480016, 682.49593698416, 887.8393990081199, 919.5923391278, 958.3564712591999, 961.16506825508, 963.55477914644, 1034.0581174268798, 1039.2220903875198, 1080.8909573092799, 1137.2757737718, 1245.9046145488799, 1315.20623039832, 1324.3393208739199, 1346.8492987528798, 1434.93211945252, 1443.44718124932, 1463.70478794332, 1713.3403052812798, 1720.18668964532, 2995.26912481888, 3030.3800207600398, 3111.8568015818396, 3116.1074654949202, 3123.6062134643594, 3128.7427184837197, 3202.1645255251597, 3207.6031778986]

>  <E0_kJmol>  (2) 
-512473

>  <H298_kJmol>  (2) 
-512455

$$$$

     RDKit          3D

 34 34  0  0  0  0  0  0  0  0999 V2000
   -1.4472   -3.2259    0.2509 C   0  0  0  0  0  0  0  0  0  1  0  0
   -1.6725   -1.9471   -0.0343 C   0  0  0  0  0  0  0  0  0  2  0  0
   -1.6169   -0.8460    0.9400 C   0  0  0  0  0  0  0  0  0  3  0  0
   -2.5231    0.3074    0.7855 C   0  0  0  0  0  0  0  0  0  4  0  0
   -3.2913    0.6016   -0.2611 C   0  0  0  0  0  0  0  0  0  5  0  0
   -1.4561   -3.9869   -0.5187 H   0  0  0  0  0  0  0  0  0  6  0  0
   -1.2521   -3.5535    1.2665 H   0  0  0  0  0  0  0  0  0  7  0  0
   -1.8584   -1.6736   -1.0691 H   0  0  0  0  0  0  0  0  0  8  0  0
   -1.5645   -1.1996    1.9708 H   0  0  0  0  0  0  0  0  0  9  0  0
   -2.5131    1.0040    1.6197 H   0  0  0  0  0  0  0  0  0 10  0  0
   -3.8852    1.5061   -0.2752 H   0  0  0  0  0  0  0  0  0 11  0  0
   -3.3704   -0.0455   -1.1260 H   0  0  0  0  0  0  0  0  0 12  0  0
    1.9807   -1.2973   -0.9415 C   0  0  0  0  0  0  0  0  0 13  0  0
    1.8053   -0.9108    0.5318 C   0  0  0  0  0  0  0  0  0 14  0  0
    0.8208    0.2387    0.5004 C   0  0  0  0  0  3  0  0  0 15  0  0
    0.9764    1.4357    1.4100 C   0  0  0  0  0  0  0  0  0 16  0  0
    1.5074    2.5281    0.4694 C   0  0  0  0  0  0  0  0  0 17  0  0
    0.7560    2.2667   -0.8399 C   0  0  0  0  0  0  0  0  0 18  0  0
    0.6847    0.7362   -0.9391 C   0  0  0  0  0  0  0  0  0 19  0  0
    1.8370    0.0363   -1.6754 C   0  0  0  0  0  0  0  0  0 20  0  0
    2.9268   -1.8015   -1.1414 H   0  0  0  0  0  0  0  0  0 21  0  0
    1.1737   -1.9721   -1.2389 H   0  0  0  0  0  0  0  0  0 22  0  0
    1.4677   -1.7458    1.1513 H   0  0  0  0  0  0  0  0  0 23  0  0
    2.7592   -0.5686    0.9528 H   0  0  0  0  0  0  0  0  0 24  0  0
   -0.4645   -0.3442    0.7935 H   0  0  0  0  0  0  0  0  0 25  0  0
    0.0044    1.7455    1.8112 H   0  0  0  0  0  0  0  0  0 26  0  0
    1.6312    1.2386    2.2604 H   0  0  0  0  0  0  0  0  0 27  0  0
    2.5819    2.3886    0.3185 H   0  0  0  0  0  0  0  0  0 28  0  0
    1.3598    3.5375    0.8554 H   0  0  0  0  0  0  0  0  0 29  0  0
   -0.2542    2.6779   -0.7694 H   0  0  0  0  0  0  0  0  0 30  0  0
    1.2370    2.7217   -1.7073 H   0  0  0  0  0  0  0  0  0 31  0  0
   -0.2656    0.4196   -1.3818 H   0  0  0  0  0  0  0  0  0 32  0  0
    1.6509   -0.0744   -2.7446 H   0  0  0  0  0  0  0  0  0 33  0  0
    2.7557    0.6214   -1.5595 H   0  0  0  0  0  0  0  0  0 34  0  0
  1  7  1  0
  1  6  1  0
  1  2  1  0
  2  8  1  0
  2  3  1  0
  3  4  1  0
  3 25  1  0
  3  9  1  0
  4 10  1  0
  4  5  1  0
  5 12  1  0
  5 11  1  0
 13 20  1  0
 13 21  1  0
 13 14  1  0
 13 22  1  0
 14 15  1  0
 14 24  1  0
 14 23  1  0
 15 19  1  0
 15 16  1  0
 16 26  1  0
 16 17  1  0
 16 27  1  0
 17 18  1  0
 17 29  1  0
 17 28  1  0
 18 19  1  0
 18 31  1  0
 18 30  1  0
 19 20  1  0
 19 32  1  0
 20 33  1  0
 20 34  1  0
M  RAD  1  15   2
M  END
>  <rmg_smiles>  (3) 
C1C[C]2CCCC2C1.[CH2][CH]C[CH][CH2]

>  <rmg_adjacency_list>  (3) 
multiplicity 2
1  C u0 p0 c0 {2,S} {3,S} {9,S} {14,S}
2  C u0 p0 c0 {1,S} {5,S} {19,S} {20,S}
3  C u0 p0 c0 {1,S} {4,S} {21,S} {22,S}
4  C u0 p0 c0 {3,S} {6,S} {15,S} {16,S}
5  C u0 p0 c0 {2,S} {7,S} {17,S} {18,S}
6  C u0 p0 c0 {4,S} {9,S} {23,S} {24,S}
7  C u0 p0 c0 {5,S} {9,S} {25,S} {26,S}
8  C u0 p0 c0 {10,S} {11,S} {27,S} {28,S}
9  C u1 p0 c0 {1,S} {6,S} {7,S}
10 C u0 p0 c0 {8,S} {12,S} {29,S}
11 C u0 p0 c0 {8,S} {13,S} {30,S}
12 C u0 p0 c0 {10,S} {31,S} {32,S}
13 C u0 p0 c0 {11,S} {33,S} {34,S}
14 H u0 p0 c0 {1,S}
15 H u0 p0 c0 {4,S}
16 H u0 p0 c0 {4,S}
17 H u0 p0 c0 {5,S}
18 H u0 p0 c0 {5,S}
19 H u0 p0 c0 {2,S}
20 H u0 p0 c0 {2,S}
21 H u0 p0 c0 {3,S}
22 H u0 p0 c0 {3,S}
23 H u0 p0 c0 {6,S}
24 H u0 p0 c0 {6,S}
25 H u0 p0 c0 {7,S}
26 H u0 p0 c0 {7,S}
27 H u0 p0 c0 {8,S}
28 H u0 p0 c0 {8,S}
29 H u0 p0 c0 {10,S}
30 H u0 p0 c0 {11,S}
31 H u0 p0 c0 {12,S}
32 H u0 p0 c0 {12,S}
33 H u0 p0 c0 {13,S}
34 H u0 p0 c0 {13,S}


>  <multiplicity>  (3) 
2

>  <reaction>  (3) 
rxn_562

>  <type>  (3) 
ts

>  <role_mapnums>  (3) 
{"*2": 25, "*1": 15, "*3": 3, "*0": 2, "*4": 19}

>  <role_mapidx>  (3) 
{"*2": 24, "*1": 14, "*3": 2, "*0": 1, "*4": 18}

>  <ordered_mapped_smiles>  (3) 
[CH:1]([CH:2]([C:3]([CH:4]([CH:5]([H:11])[H:12])[H:10])([H:9])[H:25])[H:8])([H:6])[H:7].[C:13]1([H:21])([H:22])[C:14]([H:23])([H:24])[C:15]2[C:16]([H:26])([H:27])[C:17]([H:28])([H:29])[C:18]([H:30])([H:31])[C:19]2([H:32])[C:20]1([H:33])[H:34]

>  <mol_properties>  (3) 
{"1": {"label": "*0", "atom_type": "Cs"}, "2": {"label": "*3", "atom_type": "Cs"}, "14": {"label": "*1", "atom_type": "Cs"}, "18": {"label": "*4", "atom_type": "Cs"}, "24": {"label": "*2", "atom_type": "H0"}}

>  <level_of_theory>  (3) 
wb97xd/def2tzvp

>  <lot_method>  (3) 
wb97xd

>  <lot_basis>  (3) 
def2tzvp

>  <spin_multiplicity>  (3) 
2.0

>  <optical_isomers>  (3) 
2.0

>  <modes>  (3) 
IdealGasTranslation(mass=(177.164, 'amu')),         NonlinearRotor(             inertia = ([527.53, 810.422, 1054.08

>  <frequency_value>  (3) 
-1475.3

>  <frequency_units>  (3) 
cm^-1

>  <frequency_list>  (3) 
unknown

>  <arkane_path>  (3) 
/home/calvin/Dropbox/PersonalFolders/Calvin/HAb_Converged/rxn_562/output/rxns/TS0/arkane/output.py

>  <path_exists>  (3) 
True

>  <E0_value>  (3) 
-1332810.0

>  <E0_units>  (3) 
kJ/mol

>  <thermo_class>  (3) 
unknown

>  <Cp0_value>  (3) 
unknown

>  <Cp0_units>  (3) 
unknown

>  <CpInf_value>  (3) 
unknown

>  <CpInf_units>  (3) 
unknown

>  <Tmin_value>  (3) 
unknown

>  <Tmin_units>  (3) 
unknown

>  <Tmax_value>  (3) 
unknown

>  <Tmax_units>  (3) 
unknown

>  <polynomials>  (3) 
unknown

>  <H298_value>  (3) 
unknown

>  <H298_units>  (3) 
unknown

>  <S298_value>  (3) 
unknown

>  <S298_units>  (3) 
unknown

>  <Cp_T_value_list>  (3) 
unknown

>  <Cp_T_units>  (3) 
unknown

>  <T_list>  (3) 
unknown

>  <T_units>  (3) 
unknown

>  <yaml_path>  (3) 
unknown

>  <frequencies_cm1>  (3) 
unknown

>  <ZPE_kJmol>  (3) 
unknown

>  <E_elec_kJmol>  (3) 
unknown

>  <E0_minus_Eelec_plus_ZPE_kJmol>  (3) 
unknown

>  <rxn>  (3) 
unknown

>  <species_type>  (3) 
unknown

>  <species_folder>  (3) 
unknown

>  <frequencies_cm1_list>  (3) 
[]

>  <ts_imag_freq_cm1>  (3) 
-1493.2148

>  <ts_freq_out_path>  (3) 
/home/calvin/Dropbox/PersonalFolders/Calvin/HAb_Converged/rxn_562/output/rxns/TS0/geometry/freq.out

>  <E0_kJmol>  (3) 
-1.33281e+06

>  <H298_kJmol>  (3) 
unknown

$$$$

     RDKit          3D

 21 22  0  0  0  0  0  0  0  0999 V2000
   -2.2298    0.3537    0.0543 C   0  0  0  0  0  0  0  0  0  1  0  0
   -1.1556    1.4284   -0.1994 C   0  0  0  0  0  0  0  0  0  2  0  0
    0.0609    0.6285   -0.5240 C   0  0  0  0  0  3  0  0  0  3  0  0
    1.4977    1.0080   -0.3953 C   0  0  0  0  0  0  0  0  0  4  0  0
    2.2141   -0.3503   -0.2737 C   0  0  0  0  0  0  0  0  0  5  0  0
    1.1785   -1.2652    0.3956 C   0  0  0  0  0  0  0  0  0  6  0  0
   -0.1494   -0.8311   -0.2398 C   0  0  0  0  0  0  0  0  0  7  0  0
   -1.4409   -0.8502    0.5889 C   0  0  0  0  0  0  0  0  0  8  0  0
   -2.7102    0.0864   -0.8907 H   0  0  0  0  0  0  0  0  0  9  0  0
   -3.0138    0.6865    0.7353 H   0  0  0  0  0  0  0  0  0 10  0  0
   -1.4459    2.1368   -0.9815 H   0  0  0  0  0  0  0  0  0 11  0  0
   -0.9857    2.0292    0.7068 H   0  0  0  0  0  0  0  0  0 12  0  0
    1.6525    1.6113    0.5121 H   0  0  0  0  0  0  0  0  0 13  0  0
    1.8766    1.6104   -1.2268 H   0  0  0  0  0  0  0  0  0 14  0  0
    3.1516   -0.2903    0.2803 H   0  0  0  0  0  0  0  0  0 15  0  0
    2.4485   -0.7309   -1.2715 H   0  0  0  0  0  0  0  0  0 16  0  0
    1.1473   -1.0612    1.4707 H   0  0  0  0  0  0  0  0  0 17  0  0
    1.4017   -2.3251    0.2670 H   0  0  0  0  0  0  0  0  0 18  0  0
   -0.3078   -1.3981   -1.1697 H   0  0  0  0  0  0  0  0  0 19  0  0
   -1.1949   -0.6901    1.6436 H   0  0  0  0  0  0  0  0  0 20  0  0
   -1.9953   -1.7869    0.5178 H   0  0  0  0  0  0  0  0  0 21  0  0
  1  8  1  0
  1 10  1  0
  1  9  1  0
  1  2  1  0
  2 12  1  0
  2 11  1  0
  2  3  1  0
  3  4  1  0
  3  7  1  0
  4 14  1  0
  4  5  1  0
  4 13  1  0
  5 16  1  0
  5 15  1  0
  5  6  1  0
  6  7  1  0
  6 17  1  0
  6 18  1  0
  7 19  1  0
  7  8  1  0
  8 20  1  0
  8 21  1  0
M  RAD  1   3   2
M  END
>  <rmg_smiles>  (4) 
C1C[C]2CCCC2C1

>  <rmg_adjacency_list>  (4) 
multiplicity 2
1  C u0 p0 c0 {2,S} {3,S} {8,S} {9,S}
2  C u0 p0 c0 {1,S} {5,S} {14,S} {15,S}
3  C u0 p0 c0 {1,S} {4,S} {16,S} {17,S}
4  C u0 p0 c0 {3,S} {6,S} {10,S} {11,S}
5  C u0 p0 c0 {2,S} {7,S} {12,S} {13,S}
6  C u0 p0 c0 {4,S} {8,S} {18,S} {19,S}
7  C u0 p0 c0 {5,S} {8,S} {20,S} {21,S}
8  C u1 p0 c0 {1,S} {6,S} {7,S}
9  H u0 p0 c0 {1,S}
10 H u0 p0 c0 {4,S}
11 H u0 p0 c0 {4,S}
12 H u0 p0 c0 {5,S}
13 H u0 p0 c0 {5,S}
14 H u0 p0 c0 {2,S}
15 H u0 p0 c0 {2,S}
16 H u0 p0 c0 {3,S}
17 H u0 p0 c0 {3,S}
18 H u0 p0 c0 {6,S}
19 H u0 p0 c0 {6,S}
20 H u0 p0 c0 {7,S}
21 H u0 p0 c0 {7,S}


>  <multiplicity>  (4) 
2

>  <reaction>  (4) 
rxn_562

>  <type>  (4) 
r1

>  <role_mapnums>  (4) 
{}

>  <role_mapidx>  (4) 
{}

>  <ordered_mapped_smiles>  (4) 
[C:1]1([H:9])([H:10])[C:2]([H:11])([H:12])[C:3]2[C:4]([H:13])([H:14])[C:5]([H:15])([H:16])[C:6]([H:17])([H:18])[C:7]2([H:19])[C:8]1([H:20])[H:21]

>  <level_of_theory>  (4) 
wb97xd/def2tzvp

>  <lot_method>  (4) 
wb97xd

>  <lot_basis>  (4) 
def2tzvp

>  <spin_multiplicity>  (4) 
2.0

>  <optical_isomers>  (4) 
1.0

>  <modes>  (4) 
IdealGasTranslation(mass=(109.102, 'amu')),         NonlinearRotor(             inertia = ([128.096, 276.317, 371.4

>  <frequency_value>  (4) 
unknown

>  <frequency_units>  (4) 
unknown

>  <frequency_list>  (4) 
unknown

>  <arkane_path>  (4) 
/home/calvin/Dropbox/PersonalFolders/Calvin/HAb_Converged/rxn_562/output/Species/rxn_562_C1C[C]2CCCC2C1/arkane/output.py

>  <path_exists>  (4) 
True

>  <E0_value>  (4) 
-820358.0894855347

>  <E0_units>  (4) 
kJ/mol

>  <thermo_class>  (4) 
NASA

>  <Cp0_value>  (4) 
33.257888

>  <Cp0_units>  (4) 
J/(mol*K)

>  <CpInf_value>  (4) 
507.182792

>  <CpInf_units>  (4) 
J/(mol*K)

>  <Tmin_value>  (4) 
10.0

>  <Tmin_units>  (4) 
K

>  <Tmax_value>  (4) 
3000.0

>  <Tmax_units>  (4) 
K

>  <polynomials>  (4) 
[{"name": "polynomial1", "class": "NASAPolynomial", "Tmin_value": 10.0, "Tmin_units": "K", "Tmax_value": 579.35086050788, "Tmax_units": "K", "coeffs": [4.0168197431565185, -0.0023297630194267305, 0.00023712396292664435, -3.756310989706859e-07, 1.906783516451148e-10, -98666285.54334764, 12.540459604510119]}, {"name": "polynomial2", "class": "NASAPolynomial", "Tmin_value": 579.35086050788, "Tmin_units": "K", "Tmax_value": 3000.0, "Tmax_units": "K", "coeffs": [-7.178507488411498, 0.09308274536709106, -5.6815413242134675e-05, 1.6584634856092287e-08, -1.8610860274994795e-12, -98665292.38247325, 57.816503635904304]}]

>  <H298_value>  (4) 
-196065.24781156375

>  <H298_units>  (4) 
kcal/mol

>  <S298_value>  (4) 
84.10171794049678

>  <S298_units>  (4) 
cal/(mol*K)

>  <Cp_T_value_list>  (4) 
[31.91752213710447, 43.45170902327354, 53.84621888221555, 62.7136048060052, 76.81518220931488, 87.06423337223478, 101.67010562403804, 108.55122006851184, 112.24323691068717]

>  <Cp_T_units>  (4) 
cal/(mol*K)

>  <T_list>  (4) 
[300.0, 400.0, 500.0, 600.0, 800.0, 1000.0, 1500.0, 2000.0, 2400.0]

>  <T_units>  (4) 
K

>  <yaml_path>  (4) 
/home/calvin/Dropbox/PersonalFolders/Calvin/HAb_Converged/rxn_562/output/Species/rxn_562_C1C[C]2CCCC2C1/rxn_562_C1CC2CCCC2C1.yml

>  <frequencies_cm1>  (4) 
[110.77134019692, 171.11154020376, 233.23028940848, 257.58748633851997, 365.8043079964, 501.11825372699997, 529.7535825114, 570.2001260461999, 607.59772809892, 733.54510585304, 827.3824602508398, 846.9465014275199, 869.77922761652, 898.1261430174801, 911.25581894932, 918.2326760344399, 937.4465009598, 970.46983336368, 989.62872240648, 1011.43140079748, 1048.2865110099199, 1056.8633756745999, 1096.30733935268, 1147.9745369003601, 1154.28529640944, 1200.28723106812, 1211.91303721488, 1214.6529643575598, 1226.3474403575199, 1232.83674148492, 1281.2009190936799, 1291.3846583232398, 1310.70835501372, 1325.28009786276, 1330.9453607517598, 1338.90419673764, 1347.22011596016, 1364.11976683268, 1457.1193490214398, 1464.1923439010397, 1476.69712416876, 1480.9752560231198, 1491.6808861369998, 1495.08691085572, 2931.77697855016, 2941.8851809412, 2944.8723195554, 3007.1146744958796, 3011.12499392276, 3011.5370130419597, 3012.60139576656, 3027.36541420456, 3028.16198450168, 3070.6411556912, 3073.4016837898394, 3079.81544807872, 3080.9416336711997]

>  <ZPE_kJmol>  (4) 
499.60810598606855

>  <E_elec_kJmol>  (4) 
-820857.6975915207

>  <E0_minus_Eelec_plus_ZPE_kJmol>  (4) 
0.0

>  <rxn>  (4) 
rxn_562

>  <species_type>  (4) 
p1

>  <species_folder>  (4) 
rxn_562_C1C[C]2CCCC2C1

>  <frequencies_cm1_list>  (4) 
[110.77134019692, 171.11154020376, 233.23028940848, 257.58748633851997, 365.8043079964, 501.11825372699997, 529.7535825114, 570.2001260461999, 607.59772809892, 733.54510585304, 827.3824602508398, 846.9465014275199, 869.77922761652, 898.1261430174801, 911.25581894932, 918.2326760344399, 937.4465009598, 970.46983336368, 989.62872240648, 1011.43140079748, 1048.2865110099199, 1056.8633756745999, 1096.30733935268, 1147.9745369003601, 1154.28529640944, 1200.28723106812, 1211.91303721488, 1214.6529643575598, 1226.3474403575199, 1232.83674148492, 1281.2009190936799, 1291.3846583232398, 1310.70835501372, 1325.28009786276, 1330.9453607517598, 1338.90419673764, 1347.22011596016, 1364.11976683268, 1457.1193490214398, 1464.1923439010397, 1476.69712416876, 1480.9752560231198, 1491.6808861369998, 1495.08691085572, 2931.77697855016, 2941.8851809412, 2944.8723195554, 3007.1146744958796, 3011.12499392276, 3011.5370130419597, 3012.60139576656, 3027.36541420456, 3028.16198450168, 3070.6411556912, 3073.4016837898394, 3079.81544807872, 3080.9416336711997]

>  <E0_kJmol>  (4) 
-820358

>  <H298_kJmol>  (4) 
-820337

$$$$

     RDKit          3D

 12 11  0  0  0  0  0  0  0  0999 V2000
   -2.3791    0.4612   -0.5870 C   0  0  0  0  0  0  0  0  0  1  0  0
   -1.3422   -0.3138   -0.1893 C   0  0  0  0  0  0  0  0  0  2  0  0
   -1.4723   -1.6058    0.3589 C   0  0  0  0  0  3  0  0  0  3  0  0
   -0.3798   -2.3973    0.7671 C   0  0  0  0  0  0  0  0  0  4  0  0
   -0.4849   -3.6397    1.2956 C   0  0  0  0  0  0  0  0  0  5  0  0
   -2.2205    1.4472   -1.0017 H   0  0  0  0  0  0  0  0  0  6  0  0
   -3.4026    0.1153   -0.5011 H   0  0  0  0  0  0  0  0  0  7  0  0
   -0.3330    0.0765   -0.2952 H   0  0  0  0  0  0  0  0  0  8  0  0
   -2.4723   -2.0151    0.4735 H   0  0  0  0  0  0  0  0  0  9  0  0
    0.6117   -1.9687    0.6436 H   0  0  0  0  0  0  0  0  0 10  0  0
    0.3893   -4.2030    1.5920 H   0  0  0  0  0  0  0  0  0 11  0  0
   -1.4516   -4.1084    1.4378 H   0  0  0  0  0  0  0  0  0 12  0  0
  1  7  1  0
  1  6  1  0
  1  2  1  0
  2  8  1  0
  2  3  1  0
  3  4  1  0
  3  9  1  0
  4  5  1  0
  4 10  1  0
  5 11  1  0
  5 12  1  0
M  RAD  1   3   2
M  END
>  <rmg_smiles>  (5) 
[CH2][CH][CH][CH][CH2]

>  <rmg_adjacency_list>  (5) 
multiplicity 2
1  C u1 p0 c0 {2,S} {3,S} {7,S}
2  C u0 p0 c0 {1,S} {4,S} {6,S}
3  C u0 p0 c0 {1,S} {5,S} {8,S}
4  C u0 p0 c0 {2,S} {9,S} {10,S}
5  C u0 p0 c0 {3,S} {11,S} {12,S}
6  H u0 p0 c0 {2,S}
7  H u0 p0 c0 {1,S}
8  H u0 p0 c0 {3,S}
9  H u0 p0 c0 {4,S}
10 H u0 p0 c0 {4,S}
11 H u0 p0 c0 {5,S}
12 H u0 p0 c0 {5,S}


>  <multiplicity>  (5) 
2

>  <reaction>  (5) 
rxn_562

>  <type>  (5) 
r2

>  <role_mapnums>  (5) 
{}

>  <role_mapidx>  (5) 
{}

>  <ordered_mapped_smiles>  (5) 
[CH:1]([CH:2]([C:3]([CH:4]([CH:5]([H:11])[H:12])[H:10])[H:9])[H:8])([H:6])[H:7]

>  <level_of_theory>  (5) 
wb97xd/def2tzvp

>  <lot_method>  (5) 
wb97xd

>  <lot_basis>  (5) 
def2tzvp

>  <spin_multiplicity>  (5) 
2.0

>  <optical_isomers>  (5) 
1.0

>  <modes>  (5) 
IdealGasTranslation(mass=(67.0548, 'amu')),         NonlinearRotor(             inertia = ([15.7789, 219.5, 235.279

>  <frequency_value>  (5) 
unknown

>  <frequency_units>  (5) 
unknown

>  <frequency_list>  (5) 
unknown

>  <arkane_path>  (5) 
/home/calvin/Dropbox/PersonalFolders/Calvin/HAb_Converged/rxn_562/output/Species/rxn_562_C=C[CH]C=C/arkane/output.py

>  <path_exists>  (5) 
True

>  <E0_value>  (5) 
-510855.5740845963

>  <E0_units>  (5) 
kJ/mol

>  <thermo_class>  (5) 
NASA

>  <Cp0_value>  (5) 
33.257888

>  <Cp0_units>  (5) 
J/(mol*K)

>  <CpInf_value>  (5) 
282.692048

>  <CpInf_units>  (5) 
J/(mol*K)

>  <Tmin_value>  (5) 
10.0

>  <Tmin_units>  (5) 
K

>  <Tmax_value>  (5) 
3000.0

>  <Tmax_units>  (5) 
K

>  <polynomials>  (5) 
[{"name": "polynomial1", "class": "NASAPolynomial", "Tmin_value": 10.0, "Tmin_units": "K", "Tmax_value": 495.4878151432132, "Tmax_units": "K", "coeffs": [3.9321249944863483, 0.00423695957790186, 0.0001349399275202858, -2.634227208589526e-07, 1.6274994210018014e-10, -61441731.262755215, 9.350068005934219]}, {"name": "polynomial2", "class": "NASAPolynomial", "Tmin_value": 495.4878151432132, "Tmin_units": "K", "Tmax_value": 3000.0, "Tmax_units": "K", "coeffs": [0.4670964234865551, 0.045134514665170086, -2.799782078865831e-05, 8.451471558998603e-09, -9.87511530345911e-13, -61441546.54518628, 22.032609970692913]}]

>  <H298_value>  (5) 
-122093.21999312405

>  <H298_units>  (5) 
kcal/mol

>  <S298_value>  (5) 
73.53286475276235

>  <S298_units>  (5) 
cal/(mol*K)

>  <Cp_T_value_list>  (5) 
[22.959522992008456, 28.863462234795744, 33.84135772821174, 38.08705038621403, 44.86868164007071, 49.81479641743779, 57.029271536556216, 60.72193750581066, 62.780551438557175]

>  <Cp_T_units>  (5) 
cal/(mol*K)

>  <T_list>  (5) 
[300.0, 400.0, 500.0, 600.0, 800.0, 1000.0, 1500.0, 2000.0, 2400.0]

>  <T_units>  (5) 
K

>  <yaml_path>  (5) 
/home/calvin/Dropbox/PersonalFolders/Calvin/HAb_Converged/rxn_562/output/Species/rxn_562_C=C[CH]C=C/rxn_562_C=CCHC=C.yml

>  <frequencies_cm1>  (5) 
[152.447074104, 206.60012033752, 248.40632696568, 457.56783282756, 491.88902545691997, 588.7066514835999, 627.8209998663199, 832.6631719619199, 870.4315912219199, 882.064264354, 920.7322586909199, 984.0870652532399, 1007.05026416332, 1023.1327437827599, 1134.86546192448, 1248.1157838219199, 1283.31595057224, 1294.9760916455998, 1300.263670342, 1433.84713577196, 1468.49107671136, 1516.66297873116, 1589.96804702216, 3115.7572492435997, 3116.0319286563995, 3124.4645866293595, 3126.14013104744, 3128.61224576264, 3219.8676136801196, 3219.9431505186403]

>  <ZPE_kJmol>  (5) 
260.8752443523687

>  <E_elec_kJmol>  (5) 
-511116.4493289487

>  <E0_minus_Eelec_plus_ZPE_kJmol>  (5) 
0.0

>  <rxn>  (5) 
rxn_562

>  <species_type>  (5) 
r0

>  <species_folder>  (5) 
rxn_562_C=C[CH]C=C

>  <frequencies_cm1_list>  (5) 
[152.447074104, 206.60012033752, 248.40632696568, 457.56783282756, 491.88902545691997, 588.7066514835999, 627.8209998663199, 832.6631719619199, 870.4315912219199, 882.064264354, 920.7322586909199, 984.0870652532399, 1007.05026416332, 1023.1327437827599, 1134.86546192448, 1248.1157838219199, 1283.31595057224, 1294.9760916455998, 1300.263670342, 1433.84713577196, 1468.49107671136, 1516.66297873116, 1589.96804702216, 3115.7572492435997, 3116.0319286563995, 3124.4645866293595, 3126.14013104744, 3128.61224576264, 3219.8676136801196, 3219.9431505186403]

>  <E0_kJmol>  (5) 
-510856

>  <H298_kJmol>  (5) 
-510838

$$$$
