
     RDKit          3D

  6  5  0  0  0  0  0  0  0  0999 V2000
   -1.1287    0.3083    0.2418 C   0  0  0  0  0  0  0  0  0  1  0  0
    0.5377   -0.1409   -0.1608 S   0  0  0  0  0  0  0  0  0  2  0  0
   -1.1282    1.0653    1.0221 H   0  0  0  0  0  0  0  0  0  3  0  0
   -1.5859    0.8049   -0.6104 H   0  0  0  0  0  0  0  0  0  4  0  0
   -1.7393   -0.5085    0.6184 H   0  0  0  0  0  0  0  0  0  5  0  0
    0.8326   -0.7575    0.9910 H   0  0  0  0  0  0  0  0  0  6  0  0
  1  5  1  0
  1  4  1  0
  1  3  1  0
  1  2  1  0
  2  6  1  0
M  END
>  <rmg_smiles>  (1) 
CS

>  <rmg_adjacency_list>  (1) 
1 S u0 p2 c0 {2,S} {6,S}
2 C u0 p0 c0 {1,S} {3,S} {4,S} {5,S}
3 H u0 p0 c0 {2,S}
4 H u0 p0 c0 {2,S}
5 H u0 p0 c0 {2,S}
6 H u0 p0 c0 {1,S}


>  <multiplicity>  (1) 
1

>  <reaction>  (1) 
rxn_1805

>  <type>  (1) 
r1h

>  <role_mapnums>  (1) 
{"r1h_a": 1, "r1h_h": 3}

>  <role_mapidx>  (1) 
{"r1h_a": 0, "r1h_h": 2}

>  <ordered_mapped_smiles>  (1) 
[C:1]([S:2][H:6])([H:3])([H:4])[H:5]

>  <mol_properties>  (1) 
{"0": {"label": "donator", "atom_type": "Cs"}, "2": {"label": "d_hydrogen", "atom_type": "H0"}}

>  <level_of_theory>  (1) 
wb97xd/def2tzvp

>  <lot_method>  (1) 
wb97xd

>  <lot_basis>  (1) 
def2tzvp

>  <spin_multiplicity>  (1) 
1.0

>  <optical_isomers>  (1) 
1.0

>  <modes>  (1) 
IdealGasTranslation(mass=(48.0034, 'amu')),         NonlinearRotor(             inertia = ([4.88218, 38.8439, 40.5133

>  <frequency_value>  (1) 
unknown

>  <frequency_units>  (1) 
unknown

>  <frequency_list>  (1) 
unknown

>  <arkane_path>  (1) 
/home/calvin/Dropbox/PersonalFolders/Calvin/HAb_Converged/rxn_1805/output/Species/rxn_1805_CS/arkane/output.py

>  <path_exists>  (1) 
True

>  <E0_value>  (1) 
-1151727.0074722518

>  <E0_units>  (1) 
kJ/mol

>  <thermo_class>  (1) 
NASA

>  <Cp0_value>  (1) 
33.257888

>  <Cp0_units>  (1) 
J/(mol*K)

>  <CpInf_value>  (1) 
133.031552

>  <CpInf_units>  (1) 
J/(mol*K)

>  <Tmin_value>  (1) 
10.0

>  <Tmin_units>  (1) 
K

>  <Tmax_value>  (1) 
3000.0

>  <Tmax_units>  (1) 
K

>  <polynomials>  (1) 
[{"name": "polynomial1", "class": "NASAPolynomial", "Tmin_value": 10.0, "Tmin_units": "K", "Tmax_value": 512.0046987811082, "Tmax_units": "K", "coeffs": [3.9928587497669135, 0.0002559754074249204, 3.857280640825913e-05, -5.9282603001709694e-08, 2.982147399711347e-11, -138520762.43019888, 6.388595841908656]}, {"name": "polynomial2", "class": "NASAPolynomial", "Tmin_value": 512.0046987811082, "Tmin_units": "K", "Tmax_value": 3000.0, "Tmax_units": "K", "coeffs": [1.9274442242810899, 0.01639190572497184, -8.700073442106705e-06, 2.2701656845537463e-09, -2.333640907578926e-13, -138520550.93016994, 14.970390653960273]}]

>  <H298_value>  (1) 
-275266.5007544268

>  <H298_units>  (1) 
kcal/mol

>  <S298_value>  (1) 
60.53254852214023

>  <S298_units>  (1) 
cal/(mol*K)

>  <Cp_T_value_list>  (1) 
[12.285164170505567, 14.379905317207566, 16.329998202821564, 18.065044527000737, 20.944482261362513, 23.163034177843237, 26.669386406809583, 28.493484761208425, 29.402518411604955]

>  <Cp_T_units>  (1) 
cal/(mol*K)

>  <T_list>  (1) 
[300.0, 400.0, 500.0, 600.0, 800.0, 1000.0, 1500.0, 2000.0, 2400.0]

>  <T_units>  (1) 
K

>  <yaml_path>  (1) 
/home/calvin/Dropbox/PersonalFolders/Calvin/HAb_Converged/rxn_1805/output/Species/rxn_1805_CS/rxn_1805_CS.yml

>  <frequencies_cm1>  (1) 
[239.23203457815995, 718.5407429288399, 797.72395065376, 969.0552343877599, 1092.82577779544, 1352.90597980512, 1462.0155095546, 1475.7082782826799, 2706.3887863771197, 3036.2032243114, 3126.3324066364, 3127.7195376710397]

>  <ZPE_kJmol>  (1) 
120.25255493508004

>  <E_elec_kJmol>  (1) 
-1151847.260027187

>  <E0_minus_Eelec_plus_ZPE_kJmol>  (1) 
0.0

>  <rxn>  (1) 
rxn_1805

>  <species_type>  (1) 
r0

>  <species_folder>  (1) 
rxn_1805_CS

>  <frequencies_cm1_list>  (1) 
[239.23203457815995, 718.5407429288399, 797.72395065376, 969.0552343877599, 1092.82577779544, 1352.90597980512, 1462.0155095546, 1475.7082782826799, 2706.3887863771197, 3036.2032243114, 3126.3324066364, 3127.7195376710397]

>  <E0_kJmol>  (1) 
-1.15173e+06

>  <H298_kJmol>  (1) 
-1.15172e+06

$$$$

     RDKit          3D

 14 13  0  0  0  0  0  0  0  0999 V2000
   -0.0709   -0.9672   -0.9669 H   0  0  0  0  0  0  0  0  0  1  0  0
   -1.4458    0.0023    0.2546 C   0  0  0  0  0  0  0  0  0  2  0  0
   -0.0196   -0.1973   -0.1970 C   0  0  0  0  0  0  0  0  0  3  0  0
    0.5788    0.9862   -0.9167 C   0  0  0  0  0  0  0  0  0  4  0  0
    0.8839   -0.7986    0.8518 C   0  0  0  0  0  0  0  0  0  5  0  0
   -2.0829    0.3263   -0.5713 H   0  0  0  0  0  0  0  0  0  6  0  0
   -1.8653   -0.9179    0.6677 H   0  0  0  0  0  0  0  0  0  7  0  0
   -1.5047    0.7699    1.0358 H   0  0  0  0  0  0  0  0  0  8  0  0
    0.7312    1.8271   -0.2293 H   0  0  0  0  0  0  0  0  0  9  0  0
   -0.0735    1.3332   -1.7211 H   0  0  0  0  0  0  0  0  0 10  0  0
    1.5484    0.7320   -1.3505 H   0  0  0  0  0  0  0  0  0 11  0  0
    0.4649   -1.7234    1.2558 H   0  0  0  0  0  0  0  0  0 12  0  0
    1.8713   -1.0195    0.4403 H   0  0  0  0  0  0  0  0  0 13  0  0
    1.0239   -0.1070    1.6915 H   0  0  0  0  0  0  0  0  0 14  0  0
  1  3  1  0
  2  7  1  0
  2  8  1  0
  2  6  1  0
  2  3  1  0
  3  4  1  0
  3  5  1  0
  4  9  1  0
  4 10  1  0
  4 11  1  0
  5 12  1  0
  5 14  1  0
  5 13  1  0
M  END
>  <rmg_smiles>  (2) 
CC(C)C

>  <rmg_adjacency_list>  (2) 
1  C u0 p0 c0 {2,S} {3,S} {4,S} {5,S}
2  C u0 p0 c0 {1,S} {6,S} {7,S} {8,S}
3  C u0 p0 c0 {1,S} {9,S} {10,S} {11,S}
4  C u0 p0 c0 {1,S} {12,S} {13,S} {14,S}
5  H u0 p0 c0 {1,S}
6  H u0 p0 c0 {2,S}
7  H u0 p0 c0 {2,S}
8  H u0 p0 c0 {2,S}
9  H u0 p0 c0 {3,S}
10 H u0 p0 c0 {3,S}
11 H u0 p0 c0 {3,S}
12 H u0 p0 c0 {4,S}
13 H u0 p0 c0 {4,S}
14 H u0 p0 c0 {4,S}


>  <multiplicity>  (2) 
1

>  <reaction>  (2) 
rxn_1805

>  <type>  (2) 
r2h

>  <role_mapnums>  (2) 
{"r2h_a": 3, "r2h_h": 1}

>  <role_mapidx>  (2) 
{"r2h_a": 2, "r2h_h": 0}

>  <ordered_mapped_smiles>  (2) 
[H:1][C:3]([C:2]([H:6])([H:7])[H:8])([C:4]([H:9])([H:10])[H:11])[C:5]([H:12])([H:13])[H:14]

>  <mol_properties>  (2) 
{"0": {"label": "a_hydrogen", "atom_type": "H0"}, "2": {"label": "acceptor", "atom_type": "Cs"}}

>  <level_of_theory>  (2) 
wb97xd/def2tzvp

>  <lot_method>  (2) 
wb97xd

>  <lot_basis>  (2) 
def2tzvp

>  <spin_multiplicity>  (2) 
1.0

>  <optical_isomers>  (2) 
1.0

>  <modes>  (2) 
IdealGasTranslation(mass=(58.0782, 'amu')),         NonlinearRotor(             inertia = ([64.472, 64.4728, 111.216

>  <frequency_value>  (2) 
unknown

>  <frequency_units>  (2) 
unknown

>  <frequency_list>  (2) 
unknown

>  <arkane_path>  (2) 
/home/calvin/Dropbox/PersonalFolders/Calvin/HAb_Converged/rxn_1805/output/Species/rxn_1805_CC[C]C/arkane/output.py

>  <path_exists>  (2) 
True

>  <E0_value>  (2) 
-415716.8347323245

>  <E0_units>  (2) 
kJ/mol

>  <thermo_class>  (2) 
NASA

>  <Cp0_value>  (2) 
33.257888

>  <Cp0_units>  (2) 
J/(mol*K)

>  <CpInf_value>  (2) 
332.57888

>  <CpInf_units>  (2) 
J/(mol*K)

>  <Tmin_value>  (2) 
10.0

>  <Tmin_units>  (2) 
K

>  <Tmax_value>  (2) 
3000.0

>  <Tmax_units>  (2) 
K

>  <polynomials>  (2) 
[{"name": "polynomial1", "class": "NASAPolynomial", "Tmin_value": 10.0, "Tmin_units": "K", "Tmax_value": 538.8142740732342, "Tmax_units": "K", "coeffs": [3.862214000518677, 0.009613935135799223, 8.474681370319454e-05, -1.3088478082795027e-07, 6.324902382643978e-11, -49999181.88618534, 7.558486550183236]}, {"name": "polynomial2", "class": "NASAPolynomial", "Tmin_value": 538.8142740732342, "Tmin_units": "K", "Tmax_value": 3000.0, "Tmax_units": "K", "coeffs": [-1.5293170137350456, 0.04963857735159353, -2.667598855874911e-05, 6.9751882596674815e-09, -7.146712877470698e-13, -49998600.87198882, 30.235537614032182]}]

>  <H298_value>  (2) 
-99354.53197600576

>  <H298_units>  (2) 
kcal/mol

>  <S298_value>  (2) 
69.8699795037324

>  <S298_units>  (2) 
cal/(mol*K)

>  <Cp_T_value_list>  (2) 
[22.55883931140595, 28.834023107144876, 34.673477293053836, 39.87229049332007, 48.46295724677902, 55.033277042149166, 65.2416025186648, 70.36827175247964, 72.85794339561802]

>  <Cp_T_units>  (2) 
cal/(mol*K)

>  <T_list>  (2) 
[300.0, 400.0, 500.0, 600.0, 800.0, 1000.0, 1500.0, 2000.0, 2400.0]

>  <T_units>  (2) 
K

>  <yaml_path>  (2) 
/home/calvin/Dropbox/PersonalFolders/Calvin/HAb_Converged/rxn_1805/output/Species/rxn_1805_CC[C]C/rxn_1805_CCCC.yml

>  <frequencies_cm1>  (2) 
[210.88511917719998, 262.27763731208, 262.84759709363993, 369.0386580821199, 369.32707146556, 435.14025877243995, 804.0278431775198, 925.3468728259598, 925.5666163561999, 953.59765043244, 976.1831651499199, 976.4029086801601, 1191.10607169528, 1191.2159434604, 1204.1602107886, 1353.139457306, 1353.20126017388, 1393.1739817216, 1393.42119319312, 1417.2977011507598, 1467.5434327372, 1474.0739357765199, 1474.2318764388801, 1492.5049243753997, 1492.5735942285999, 1500.8895134511197, 2997.89918019644, 3000.10348248416, 3000.2545561612, 3005.60393772548, 3068.7527347282, 3068.9038084052395, 3077.5218749818396, 3079.9527877851197, 3083.45495029832, 3083.81203353496]

>  <ZPE_kJmol>  (2) 
342.9421504981238

>  <E_elec_kJmol>  (2) 
-416059.7768828226

>  <E0_minus_Eelec_plus_ZPE_kJmol>  (2) 
0.0

>  <rxn>  (2) 
rxn_1805

>  <species_type>  (2) 
p0

>  <species_folder>  (2) 
rxn_1805_CC[C]C

>  <frequencies_cm1_list>  (2) 
[210.88511917719998, 262.27763731208, 262.84759709363993, 369.0386580821199, 369.32707146556, 435.14025877243995, 804.0278431775198, 925.3468728259598, 925.5666163561999, 953.59765043244, 976.1831651499199, 976.4029086801601, 1191.10607169528, 1191.2159434604, 1204.1602107886, 1353.139457306, 1353.20126017388, 1393.1739817216, 1393.42119319312, 1417.2977011507598, 1467.5434327372, 1474.0739357765199, 1474.2318764388801, 1492.5049243753997, 1492.5735942285999, 1500.8895134511197, 2997.89918019644, 3000.10348248416, 3000.2545561612, 3005.60393772548, 3068.7527347282, 3068.9038084052395, 3077.5218749818396, 3079.9527877851197, 3083.45495029832, 3083.81203353496]

>  <E0_kJmol>  (2) 
-415717

>  <H298_kJmol>  (2) 
-415699

$$$$

     RDKit          3D

 19 17  0  0  0  0  0  0  0  0999 V2000
   -0.1591   -0.9892   -0.8771 C   0  0  0  0  0  3  0  0  0  1  0  0
    1.5073   -1.4384   -1.2797 S   0  0  0  0  0  0  0  0  0  2  0  0
   -0.1586   -0.0364    0.1049 H   0  0  0  0  0  0  0  0  0  3  0  0
   -0.6163   -0.4926   -1.7293 H   0  0  0  0  0  0  0  0  0  4  0  0
   -0.7697   -1.8059   -0.5005 H   0  0  0  0  0  0  0  0  0  5  0  0
    1.8022   -2.0550   -0.1279 H   0  0  0  0  0  0  0  0  0  6  0  0
   -1.5225    1.0976    1.4910 C   0  0  0  0  0  0  0  0  0  7  0  0
   -0.0963    0.8980    1.0394 C   0  0  0  0  0  0  0  0  0  8  0  0
    0.5021    2.0815    0.3196 C   0  0  0  0  0  0  0  0  0  9  0  0
    0.8072    0.2967    2.0881 C   0  0  0  0  0  0  0  0  0 10  0  0
   -2.1596    1.4216    0.6650 H   0  0  0  0  0  0  0  0  0 11  0  0
   -1.9420    0.1774    1.9040 H   0  0  0  0  0  0  0  0  0 12  0  0
   -1.5814    1.8652    2.2722 H   0  0  0  0  0  0  0  0  0 13  0  0
    0.6545    2.9224    1.0071 H   0  0  0  0  0  0  0  0  0 14  0  0
   -0.1503    2.4285   -0.4848 H   0  0  0  0  0  0  0  0  0 15  0  0
    1.4717    1.8273   -0.1142 H   0  0  0  0  0  0  0  0  0 16  0  0
    0.3881   -0.6280    2.4922 H   0  0  0  0  0  0  0  0  0 17  0  0
    1.7946    0.0759    1.6767 H   0  0  0  0  0  0  0  0  0 18  0  0
    0.9472    0.9883    2.9279 H   0  0  0  0  0  0  0  0  0 19  0  0
  1  5  1  0
  1  4  1  0
  1  2  1  0
  2  6  1  0
  3  8  1  0
  7 13  1  0
  7 12  1  0
  7  8  1  0
  7 11  1  0
  8  9  1  0
  8 10  1  0
  9 16  1  0
  9 14  1  0
  9 15  1  0
 10 19  1  0
 10 17  1  0
 10 18  1  0
M  RAD  1   1   2
M  END
>  <rmg_smiles>  (3) 
CC(C)C.[CH2]S

>  <rmg_adjacency_list>  (3) 
multiplicity 2
1  S u0 p2 c0 {6,S} {19,S}
2  C u0 p0 c0 {3,S} {4,S} {5,S} {7,S}
3  C u0 p0 c0 {2,S} {8,S} {9,S} {10,S}
4  C u0 p0 c0 {2,S} {11,S} {12,S} {13,S}
5  C u0 p0 c0 {2,S} {14,S} {15,S} {16,S}
6  C u1 p0 c0 {1,S} {17,S} {18,S}
7  H u0 p0 c0 {2,S}
8  H u0 p0 c0 {3,S}
9  H u0 p0 c0 {3,S}
10 H u0 p0 c0 {3,S}
11 H u0 p0 c0 {4,S}
12 H u0 p0 c0 {4,S}
13 H u0 p0 c0 {4,S}
14 H u0 p0 c0 {5,S}
15 H u0 p0 c0 {5,S}
16 H u0 p0 c0 {5,S}
17 H u0 p0 c0 {6,S}
18 H u0 p0 c0 {6,S}
19 H u0 p0 c0 {1,S}


>  <multiplicity>  (3) 
2

>  <reaction>  (3) 
rxn_1805

>  <type>  (3) 
ts

>  <role_mapnums>  (3) 
{"*2": 3, "*1": 1, "*3": 8, "*0": 7, "*4": 2}

>  <role_mapidx>  (3) 
{"*2": 2, "*1": 0, "*3": 7, "*0": 6, "*4": 1}

>  <ordered_mapped_smiles>  (3) 
[C:1]([S:2][H:6])([H:4])[H:5].[H:3][C:8]([C:7]([H:11])([H:12])[H:13])([C:9]([H:14])([H:15])[H:16])[C:10]([H:17])([H:18])[H:19]

>  <mol_properties>  (3) 
{"0": {"label": "*1", "atom_type": "Cs"}, "1": {"label": "*4", "atom_type": "S2s"}, "2": {"label": "*2", "atom_type": "H0"}, "6": {"label": "*0", "atom_type": "Cs"}, "7": {"label": "*3", "atom_type": "Cs"}}

>  <level_of_theory>  (3) 
wb97xd/def2tzvp

>  <lot_method>  (3) 
wb97xd

>  <lot_basis>  (3) 
def2tzvp

>  <spin_multiplicity>  (3) 
2.0

>  <optical_isomers>  (3) 
2.0

>  <modes>  (3) 
IdealGasTranslation(mass=(105.074, 'amu')),         NonlinearRotor(             inertia = ([129.502, 417.914, 428.563

>  <frequency_value>  (3) 
-1705.41

>  <frequency_units>  (3) 
cm^-1

>  <frequency_list>  (3) 
unknown

>  <arkane_path>  (3) 
/home/calvin/Dropbox/PersonalFolders/Calvin/HAb_Converged/rxn_1805/output/rxns/TS0/arkane/output.py

>  <path_exists>  (3) 
True

>  <E0_value>  (3) 
-1565690.0

>  <E0_units>  (3) 
kJ/mol

>  <thermo_class>  (3) 
unknown

>  <Cp0_value>  (3) 
unknown

>  <Cp0_units>  (3) 
unknown

>  <CpInf_value>  (3) 
unknown

>  <CpInf_units>  (3) 
unknown

>  <Tmin_value>  (3) 
unknown

>  <Tmin_units>  (3) 
unknown

>  <Tmax_value>  (3) 
unknown

>  <Tmax_units>  (3) 
unknown

>  <polynomials>  (3) 
unknown

>  <H298_value>  (3) 
unknown

>  <H298_units>  (3) 
unknown

>  <S298_value>  (3) 
unknown

>  <S298_units>  (3) 
unknown

>  <Cp_T_value_list>  (3) 
unknown

>  <Cp_T_units>  (3) 
unknown

>  <T_list>  (3) 
unknown

>  <T_units>  (3) 
unknown

>  <yaml_path>  (3) 
unknown

>  <frequencies_cm1>  (3) 
unknown

>  <ZPE_kJmol>  (3) 
unknown

>  <E_elec_kJmol>  (3) 
unknown

>  <E0_minus_Eelec_plus_ZPE_kJmol>  (3) 
unknown

>  <rxn>  (3) 
unknown

>  <species_type>  (3) 
unknown

>  <species_folder>  (3) 
unknown

>  <frequencies_cm1_list>  (3) 
[]

>  <ts_imag_freq_cm1>  (3) 
-1726.1278

>  <ts_freq_out_path>  (3) 
/home/calvin/Dropbox/PersonalFolders/Calvin/HAb_Converged/rxn_1805/output/rxns/TS0/geometry/freq.out

>  <E0_kJmol>  (3) 
-1.56569e+06

>  <H298_kJmol>  (3) 
unknown

$$$$

     RDKit          3D

  5  4  0  0  0  0  0  0  0  0999 V2000
   -0.5642    0.0794    0.0348 C   0  0  0  0  0  3  0  0  0  1  0  0
    1.0624    0.5420    0.2853 S   0  0  0  0  0  0  0  0  0  2  0  0
   -1.3257    0.7631    0.3741 H   0  0  0  0  0  0  0  0  0  3  0  0
   -0.8236   -0.8519   -0.4401 H   0  0  0  0  0  0  0  0  0  4  0  0
    1.6511   -0.5325   -0.2540 H   0  0  0  0  0  0  0  0  0  5  0  0
  1  3  1  0
  1  2  1  0
  1  4  1  0
  2  5  1  0
M  RAD  1   1   2
M  END
>  <rmg_smiles>  (4) 
[CH2]S

>  <rmg_adjacency_list>  (4) 
multiplicity 2
1 S u0 p2 c0 {2,S} {5,S}
2 C u1 p0 c0 {1,S} {3,S} {4,S}
3 H u0 p0 c0 {2,S}
4 H u0 p0 c0 {2,S}
5 H u0 p0 c0 {1,S}


>  <multiplicity>  (4) 
2

>  <reaction>  (4) 
rxn_1805

>  <type>  (4) 
r1

>  <role_mapnums>  (4) 
{}

>  <role_mapidx>  (4) 
{}

>  <ordered_mapped_smiles>  (4) 
[C:1]([S:2][H:5])([H:3])[H:4]

>  <level_of_theory>  (4) 
wb97xd/def2tzvp

>  <lot_method>  (4) 
wb97xd

>  <lot_basis>  (4) 
def2tzvp

>  <spin_multiplicity>  (4) 
2.0

>  <optical_isomers>  (4) 
1.0

>  <modes>  (4) 
IdealGasTranslation(mass=(46.9956, 'amu')),         NonlinearRotor(             inertia = ([3.47508, 32.1188, 35.5939

>  <frequency_value>  (4) 
unknown

>  <frequency_units>  (4) 
unknown

>  <frequency_list>  (4) 
unknown

>  <arkane_path>  (4) 
/home/calvin/Dropbox/PersonalFolders/Calvin/HAb_Converged/rxn_1805/output/Species/rxn_1805_[CH2]S/arkane/output.py

>  <path_exists>  (4) 
True

>  <E0_value>  (4) 
-1150024.3332710424

>  <E0_units>  (4) 
kJ/mol

>  <thermo_class>  (4) 
NASA

>  <Cp0_value>  (4) 
33.257888

>  <Cp0_units>  (4) 
J/(mol*K)

>  <CpInf_value>  (4) 
108.088136

>  <CpInf_units>  (4) 
J/(mol*K)

>  <Tmin_value>  (4) 
10.0

>  <Tmin_units>  (4) 
K

>  <Tmax_value>  (4) 
3000.0

>  <Tmax_units>  (4) 
K

>  <polynomials>  (4) 
[{"name": "polynomial1", "class": "NASAPolynomial", "Tmin_value": 10.0, "Tmin_units": "K", "Tmax_value": 228.7632631011955, "Tmax_units": "K", "coeffs": [3.952412159768893, 0.004869189743453995, 7.700507410130638e-05, -3.7784535832034173e-07, 5.662383077803353e-10, -138315979.8249789, 6.828268654504248]}, {"name": "polynomial2", "class": "NASAPolynomial", "Tmin_value": 228.7632631011955, "Tmin_units": "K", "Tmax_value": 3000.0, "Tmax_units": "K", "coeffs": [4.0647189913044315, 0.010177206447780005, -5.480339108667681e-06, 1.4876276440090965e-09, -1.6083284592339647e-13, -138316003.99077362, 6.036236642771031]}]

>  <H298_value>  (4) 
-274859.2476351292

>  <H298_units>  (4) 
kcal/mol

>  <S298_value>  (4) 
63.58185598753384

>  <S298_units>  (4) 
cal/(mol*K)

>  <Cp_T_value_list>  (4) 
[13.241777557438835, 14.605646175289959, 15.816452446168032, 16.888481942792666, 18.669517607236212, 20.047696562682138, 22.269217674285446, 23.499652986162165, 24.148886967222168]

>  <Cp_T_units>  (4) 
cal/(mol*K)

>  <T_list>  (4) 
[300.0, 400.0, 500.0, 600.0, 800.0, 1000.0, 1500.0, 2000.0, 2400.0]

>  <T_units>  (4) 
K

>  <yaml_path>  (4) 
/home/calvin/Dropbox/PersonalFolders/Calvin/HAb_Converged/rxn_1805/output/Species/rxn_1805_[CH2]S/rxn_1805_CH2S.yml

>  <frequencies_cm1>  (4) 
[112.26147601135997, 339.84023650148, 784.39513214764, 853.62121115856, 1068.3930440268798, 1401.38689616432, 2708.6686255033596, 3159.5548816145597, 3285.6189981191196]

>  <ZPE_kJmol>  (4) 
82.02640747232539

>  <E_elec_kJmol>  (4) 
-1150106.3596785148

>  <E0_minus_Eelec_plus_ZPE_kJmol>  (4) 
0.0

>  <rxn>  (4) 
rxn_1805

>  <species_type>  (4) 
p1

>  <species_folder>  (4) 
rxn_1805_[CH2]S

>  <frequencies_cm1_list>  (4) 
[112.26147601135997, 339.84023650148, 784.39513214764, 853.62121115856, 1068.3930440268798, 1401.38689616432, 2708.6686255033596, 3159.5548816145597, 3285.6189981191196]

>  <E0_kJmol>  (4) 
-1.15002e+06

>  <H298_kJmol>  (4) 
-1.15001e+06

$$$$

     RDKit          3D

 13 12  0  0  0  0  0  0  0  0999 V2000
   -1.3649   -0.5966   -0.3478 C   0  0  0  0  0  0  0  0  0  1  0  0
   -0.1601   -0.2776    0.4668 C   0  0  0  0  0  3  0  0  0  2  0  0
    1.1241   -0.9571    0.1414 C   0  0  0  0  0  0  0  0  0  3  0  0
   -0.1188    1.0130    1.2082 C   0  0  0  0  0  0  0  0  0  4  0  0
   -1.4264   -1.6632   -0.5772 H   0  0  0  0  0  0  0  0  0  5  0  0
   -2.2859   -0.3006    0.1602 H   0  0  0  0  0  0  0  0  0  6  0  0
   -1.3533   -0.0665   -1.3138 H   0  0  0  0  0  0  0  0  0  7  0  0
    1.6172   -0.4966   -0.7298 H   0  0  0  0  0  0  0  0  0  8  0  0
    0.9723   -2.0105   -0.1060 H   0  0  0  0  0  0  0  0  0  9  0  0
    1.8339   -0.8974    0.9700 H   0  0  0  0  0  0  0  0  0 10  0  0
   -1.0852    1.2507    1.6593 H   0  0  0  0  0  0  0  0  0 11  0  0
    0.6359    1.0009    1.9983 H   0  0  0  0  0  0  0  0  0 12  0  0
    0.1343    1.8546    0.5434 H   0  0  0  0  0  0  0  0  0 13  0  0
  1  5  1  0
  1  7  1  0
  1  6  1  0
  1  2  1  0
  2  3  1  0
  2  4  1  0
  3  9  1  0
  3 10  1  0
  3  8  1  0
  4 13  1  0
  4 12  1  0
  4 11  1  0
M  RAD  1   2   2
M  END
>  <rmg_smiles>  (5) 
C[C](C)C

>  <rmg_adjacency_list>  (5) 
multiplicity 2
1  C u0 p0 c0 {4,S} {5,S} {6,S} {7,S}
2  C u0 p0 c0 {4,S} {8,S} {9,S} {10,S}
3  C u0 p0 c0 {4,S} {11,S} {12,S} {13,S}
4  C u1 p0 c0 {1,S} {2,S} {3,S}
5  H u0 p0 c0 {1,S}
6  H u0 p0 c0 {1,S}
7  H u0 p0 c0 {1,S}
8  H u0 p0 c0 {2,S}
9  H u0 p0 c0 {2,S}
10 H u0 p0 c0 {2,S}
11 H u0 p0 c0 {3,S}
12 H u0 p0 c0 {3,S}
13 H u0 p0 c0 {3,S}


>  <multiplicity>  (5) 
2

>  <reaction>  (5) 
rxn_1805

>  <type>  (5) 
r2

>  <role_mapnums>  (5) 
{}

>  <role_mapidx>  (5) 
{}

>  <ordered_mapped_smiles>  (5) 
[C:1]([C:2]([C:3]([H:8])([H:9])[H:10])[C:4]([H:11])([H:12])[H:13])([H:5])([H:6])[H:7]

>  <level_of_theory>  (5) 
wb97xd/def2tzvp

>  <lot_method>  (5) 
wb97xd

>  <lot_basis>  (5) 
def2tzvp

>  <spin_multiplicity>  (5) 
2.0

>  <optical_isomers>  (5) 
1.0

>  <modes>  (5) 
IdealGasTranslation(mass=(57.0704, 'amu')),         NonlinearRotor(             inertia = ([62.748, 62.752, 115.629

>  <frequency_value>  (5) 
unknown

>  <frequency_units>  (5) 
unknown

>  <frequency_list>  (5) 
unknown

>  <arkane_path>  (5) 
/home/calvin/Dropbox/PersonalFolders/Calvin/HAb_Converged/rxn_1805/output/Species/rxn_1805_C[C][C]C/arkane/output.py

>  <path_exists>  (5) 
True

>  <E0_value>  (5) 
-414011.8440136251

>  <E0_units>  (5) 
kJ/mol

>  <thermo_class>  (5) 
NASA

>  <Cp0_value>  (5) 
33.257888

>  <Cp0_units>  (5) 
J/(mol*K)

>  <CpInf_value>  (5) 
307.635464

>  <CpInf_units>  (5) 
J/(mol*K)

>  <Tmin_value>  (5) 
10.0

>  <Tmin_units>  (5) 
K

>  <Tmax_value>  (5) 
3000.0

>  <Tmax_units>  (5) 
K

>  <polynomials>  (5) 
[{"name": "polynomial1", "class": "NASAPolynomial", "Tmin_value": 10.0, "Tmin_units": "K", "Tmax_value": 461.5165794234389, "Tmax_units": "K", "coeffs": [3.6301092458968784, 0.03752518873254642, -8.741737991717954e-05, 2.2513013939636526e-07, -1.8863118015232762e-10, -49794122.74920399, 8.371973651566066]}, {"name": "polynomial2", "class": "NASAPolynomial", "Tmin_value": 461.5165794234389, "Tmin_units": "K", "Tmax_value": 3000.0, "Tmax_units": "K", "coeffs": [-0.4837265647386336, 0.045793929969522626, -2.5282716129781695e-05, 6.800661473685812e-09, -7.155959500634754e-13, -49793451.36891386, 28.19767763751603]}]

>  <H298_value>  (5) 
-98946.57020516368

>  <H298_units>  (5) 
kcal/mol

>  <S298_value>  (5) 
75.45039364733833

>  <S298_units>  (5) 
cal/(mol*K)

>  <Cp_T_value_list>  (5) 
[22.993375978962813, 28.283462334242262, 33.579651160676605, 38.287617453917726, 46.02233071639089, 51.89103467798426, 60.90904191721758, 65.43677343176903, 67.69190113507359]

>  <Cp_T_units>  (5) 
cal/(mol*K)

>  <T_list>  (5) 
[300.0, 400.0, 500.0, 600.0, 800.0, 1000.0, 1500.0, 2000.0, 2400.0]

>  <T_units>  (5) 
K

>  <yaml_path>  (5) 
/home/calvin/Dropbox/PersonalFolders/Calvin/HAb_Converged/rxn_1805/output/Species/rxn_1805_C[C][C]C/rxn_1805_CCCC.yml

>  <frequencies_cm1>  (5) 
[125.81690503303999, 129.5800129884, 130.14997276996, 257.12739832207996, 382.57348614783996, 382.9443033551199, 764.07572258576, 930.39410703616, 930.4627768893599, 964.0011331922399, 1004.2004652555198, 1004.6056173894, 1087.7648096146, 1293.5958275962798, 1293.8018371558799, 1387.1653695665998, 1387.59112265644, 1410.6710603169602, 1453.5347826844, 1456.7004629169198, 1456.7553987994797, 1475.76321416524, 1478.00871836488, 1478.2765307923598, 2923.39238947444, 2923.73573874044, 2931.23448670988, 3026.77485346704, 3026.9877300119597, 3028.1139156044396, 3072.48837474228, 3076.4025563746795, 3076.6772357874797]

>  <ZPE_kJmol>  (5) 
303.5606818525761

>  <E_elec_kJmol>  (5) 
-414315.4046954777

>  <E0_minus_Eelec_plus_ZPE_kJmol>  (5) 
0.0

>  <rxn>  (5) 
rxn_1805

>  <species_type>  (5) 
r1

>  <species_folder>  (5) 
rxn_1805_C[C][C]C

>  <frequencies_cm1_list>  (5) 
[125.81690503303999, 129.5800129884, 130.14997276996, 257.12739832207996, 382.57348614783996, 382.9443033551199, 764.07572258576, 930.39410703616, 930.4627768893599, 964.0011331922399, 1004.2004652555198, 1004.6056173894, 1087.7648096146, 1293.5958275962798, 1293.8018371558799, 1387.1653695665998, 1387.59112265644, 1410.6710603169602, 1453.5347826844, 1456.7004629169198, 1456.7553987994797, 1475.76321416524, 1478.00871836488, 1478.2765307923598, 2923.39238947444, 2923.73573874044, 2931.23448670988, 3026.77485346704, 3026.9877300119597, 3028.1139156044396, 3072.48837474228, 3076.4025563746795, 3076.6772357874797]

>  <E0_kJmol>  (5) 
-414012

>  <H298_kJmol>  (5) 
-413992

$$$$
