
     RDKit          3D

 12 11  0  0  0  0  0  0  0  0999 V2000
    0.1671   -2.0717   -1.2786 C   0  0  0  0  0  2  0  0  0  1  0  0
    0.2391   -1.0164   -0.7105 C   0  0  0  0  0  2  0  0  0  2  0  0
    0.4030    0.2369   -0.0328 C   0  0  0  0  0  0  0  0  0  3  0  0
    0.6886    1.4398   -0.9172 C   0  0  0  0  0  0  0  0  0  4  0  0
   -0.4892    0.4660    1.0670 C   0  0  0  0  0  2  0  0  0  5  0  0
   -1.1877    0.6800    2.0206 C   0  0  0  0  0  2  0  0  0  6  0  0
    0.0815   -3.0028   -1.7849 H   0  0  0  0  0  0  0  0  0  7  0  0
    1.3689    0.1178    0.4580 H   0  0  0  0  0  0  0  0  0  8  0  0
   -0.1972    1.7232   -1.4884 H   0  0  0  0  0  0  0  0  0  9  0  0
    1.4907    1.1998   -1.6154 H   0  0  0  0  0  0  0  0  0 10  0  0
    0.9936    2.2862   -0.3010 H   0  0  0  0  0  0  0  0  0 11  0  0
   -1.8303    0.8637    2.8479 H   0  0  0  0  0  0  0  0  0 12  0  0
  1  7  1  0
  1  2  1  0
  2  3  1  0
  3  4  1  0
  3  5  1  0
  3  8  1  0
  4  9  1  0
  4 10  1  0
  4 11  1  0
  5  6  1  0
  6 12  1  0
M  RAD  4   1   3   2   3   5   3   6   3
M  END
>  <rmg_smiles>  (1) 
[CH][C]C(C)[C][CH]

>  <rmg_adjacency_list>  (1) 
1  C u0 p0 c0 {2,S} {3,S} {4,S} {7,S}
2  C u0 p0 c0 {1,S} {8,S} {9,S} {10,S}
3  C u0 p1 c0 {1,S} {5,S}
4  C u0 p1 c0 {1,S} {6,S}
5  C u0 p1 c0 {3,S} {11,S}
6  C u0 p1 c0 {4,S} {12,S}
7  H u0 p0 c0 {1,S}
8  H u0 p0 c0 {2,S}
9  H u0 p0 c0 {2,S}
10 H u0 p0 c0 {2,S}
11 H u0 p0 c0 {5,S}
12 H u0 p0 c0 {6,S}


>  <multiplicity>  (1) 
1

>  <reaction>  (1) 
rxn_1419

>  <type>  (1) 
r1h

>  <role_mapnums>  (1) 
{"r1h_a": 3, "r1h_h": 8}

>  <role_mapidx>  (1) 
{"r1h_a": 2, "r1h_h": 7}

>  <ordered_mapped_smiles>  (1) 
[C:1]([C:2][C:3]([C:4]([H:9])([H:10])[H:11])([C:5][C:6][H:12])[H:8])[H:7]

>  <mol_properties>  (1) 
{"2": {"label": "donator", "atom_type": "Cs"}, "7": {"label": "d_hydrogen", "atom_type": "H0"}}

>  <level_of_theory>  (1) 
wb97xd/def2tzvp

>  <lot_method>  (1) 
wb97xd

>  <lot_basis>  (1) 
def2tzvp

>  <spin_multiplicity>  (1) 
1.0

>  <optical_isomers>  (1) 
1.0

>  <modes>  (1) 
IdealGasTranslation(mass=(78.0469, 'amu')),         NonlinearRotor(             inertia = ([91.5038, 182.303, 256.884

>  <frequency_value>  (1) 
unknown

>  <frequency_units>  (1) 
unknown

>  <frequency_list>  (1) 
unknown

>  <arkane_path>  (1) 
/home/calvin/Dropbox/PersonalFolders/Calvin/HAb_Converged/rxn_1419/output/Species/rxn_1419_CtCC[C]CtC/arkane/output.py

>  <path_exists>  (1) 
True

>  <E0_value>  (1) 
-609140.5146388354

>  <E0_units>  (1) 
kJ/mol

>  <thermo_class>  (1) 
NASA

>  <Cp0_value>  (1) 
33.257888

>  <Cp0_units>  (1) 
J/(mol*K)

>  <CpInf_value>  (1) 
282.692048

>  <CpInf_units>  (1) 
J/(mol*K)

>  <Tmin_value>  (1) 
10.0

>  <Tmin_units>  (1) 
K

>  <Tmax_value>  (1) 
3000.0

>  <Tmax_units>  (1) 
K

>  <polynomials>  (1) 
[{"name": "polynomial1", "class": "NASAPolynomial", "Tmin_value": 10.0, "Tmin_units": "K", "Tmax_value": 428.30381772817856, "Tmax_units": "K", "coeffs": [3.843414737485958, 0.011059899510253308, 0.00017313206294384585, -4.5066861494576427e-07, 3.5431673194866504e-10, -73262680.70719364, 10.351537126465276]}, {"name": "polynomial2", "class": "NASAPolynomial", "Tmin_value": 428.30381772817856, "Tmin_units": "K", "Tmax_value": 3000.0, "Tmax_units": "K", "coeffs": [3.71225639608142, 0.03988512935119699, -2.4480757543004908e-05, 7.3774227474566334e-09, -8.647202101499329e-13, -73262922.62795044, 7.917757545343436]}]

>  <H298_value>  (1) 
-145583.22326588043

>  <H298_units>  (1) 
kcal/mol

>  <S298_value>  (1) 
79.39725011907349

>  <S298_units>  (1) 
cal/(mol*K)

>  <Cp_T_value_list>  (1) 
[26.71835542334415, 32.185236842440695, 36.57009328220792, 40.36357580076537, 46.452394866783735, 50.93077266482023, 57.588055372365, 61.09337215118473, 63.041253155202796]

>  <Cp_T_units>  (1) 
cal/(mol*K)

>  <T_list>  (1) 
[300.0, 400.0, 500.0, 600.0, 800.0, 1000.0, 1500.0, 2000.0, 2400.0]

>  <T_units>  (1) 
K

>  <yaml_path>  (1) 
/home/calvin/Dropbox/PersonalFolders/Calvin/HAb_Converged/rxn_1419/output/Species/rxn_1419_CtCC[C]CtC/rxn_1419_CtCCCCtC.yml

>  <frequencies_cm1>  (1) 
[133.58346542996, 199.16317523595998, 209.69026373152, 240.0698067872, 354.65919082204, 475.7310089989599, 567.46019890352, 568.12629647956, 689.5414639224799, 690.09082274808, 696.1063018883999, 699.3337849888, 789.86125246236, 930.3735060801998, 1032.6572524215999, 1082.42916202096, 1134.52211265848, 1298.31344651112, 1322.5745056466799, 1399.4092043921598, 1478.5306092491999, 1484.3400788299198, 2226.8946694228, 2231.41314576336, 3015.0597765111197, 3031.95942738364, 3117.4327936616796, 3119.7813026411195, 3437.7021220011598, 3438.6085640633996]

>  <ZPE_kJmol>  (1) 
245.805260802598

>  <E_elec_kJmol>  (1) 
-609386.3198996381

>  <E0_minus_Eelec_plus_ZPE_kJmol>  (1) 
0.0

>  <rxn>  (1) 
rxn_1419

>  <species_type>  (1) 
r0

>  <species_folder>  (1) 
rxn_1419_CtCC[C]CtC

>  <frequencies_cm1_list>  (1) 
[133.58346542996, 199.16317523595998, 209.69026373152, 240.0698067872, 354.65919082204, 475.7310089989599, 567.46019890352, 568.12629647956, 689.5414639224799, 690.09082274808, 696.1063018883999, 699.3337849888, 789.86125246236, 930.3735060801998, 1032.6572524215999, 1082.42916202096, 1134.52211265848, 1298.31344651112, 1322.5745056466799, 1399.4092043921598, 1478.5306092491999, 1484.3400788299198, 2226.8946694228, 2231.41314576336, 3015.0597765111197, 3031.95942738364, 3117.4327936616796, 3119.7813026411195, 3437.7021220011598, 3438.6085640633996]

>  <E0_kJmol>  (1) 
-609141

>  <H298_kJmol>  (1) 
-609120

$$$$

     RDKit          3D

 10  9  0  0  0  0  0  0  0  0999 V2000
   -1.4205   -0.2872   -0.4628 H   0  0  0  0  0  0  0  0  0  1  0  0
   -0.3524    0.9318    1.1829 S   0  0  0  0  0  0  0  0  0  2  0  0
   -0.4466   -0.3980    0.0109 C   0  0  0  0  0  0  0  0  0  3  0  0
    0.5195   -0.3406   -1.0742 C   0  0  0  0  0  0  0  0  0  4  0  0
    0.9268   -1.4080   -1.7655 C   0  0  0  0  0  0  0  0  0  5  0  0
   -1.5444    0.7119    1.7557 H   0  0  0  0  0  0  0  0  0  6  0  0
   -0.5906   -1.3826    0.4526 H   0  0  0  0  0  0  0  0  0  7  0  0
    0.8715    0.6463   -1.3614 H   0  0  0  0  0  0  0  0  0  8  0  0
    0.5893   -2.4067   -1.5141 H   0  0  0  0  0  0  0  0  0  9  0  0
    1.6044   -1.3081   -2.6028 H   0  0  0  0  0  0  0  0  0 10  0  0
  1  3  1  0
  2  3  1  0
  2  6  1  0
  3  4  1  0
  3  7  1  0
  4  5  1  0
  4  8  1  0
  5  9  1  0
  5 10  1  0
M  END
>  <rmg_smiles>  (2) 
[CH2][CH]CS

>  <rmg_adjacency_list>  (2) 
1  S u0 p2 c0 {2,S} {10,S}
2  C u0 p0 c0 {1,S} {3,S} {5,S} {6,S}
3  C u0 p0 c0 {2,S} {4,S} {7,S}
4  C u0 p0 c0 {3,S} {8,S} {9,S}
5  H u0 p0 c0 {2,S}
6  H u0 p0 c0 {2,S}
7  H u0 p0 c0 {3,S}
8  H u0 p0 c0 {4,S}
9  H u0 p0 c0 {4,S}
10 H u0 p0 c0 {1,S}


>  <multiplicity>  (2) 
1

>  <reaction>  (2) 
rxn_1419

>  <type>  (2) 
r2h

>  <role_mapnums>  (2) 
{"r2h_a": 3, "r2h_h": 1}

>  <role_mapidx>  (2) 
{"r2h_a": 2, "r2h_h": 0}

>  <ordered_mapped_smiles>  (2) 
[H:1][C:3]([S:2][H:6])([CH:4]([CH:5]([H:9])[H:10])[H:8])[H:7]

>  <mol_properties>  (2) 
{"0": {"label": "a_hydrogen", "atom_type": "H0"}, "2": {"label": "acceptor", "atom_type": "Cs"}}

>  <level_of_theory>  (2) 
wb97xd/def2tzvp

>  <lot_method>  (2) 
wb97xd

>  <lot_basis>  (2) 
def2tzvp

>  <spin_multiplicity>  (2) 
1.0

>  <optical_isomers>  (2) 
2.0

>  <modes>  (2) 
IdealGasTranslation(mass=(74.019, 'amu')),         NonlinearRotor(             inertia = ([24.9739, 180.25, 186.44

>  <frequency_value>  (2) 
unknown

>  <frequency_units>  (2) 
unknown

>  <frequency_list>  (2) 
unknown

>  <arkane_path>  (2) 
/home/calvin/Dropbox/PersonalFolders/Calvin/HAb_Converged/rxn_1419/output/Species/rxn_1419_SCC=C/arkane/output.py

>  <path_exists>  (2) 
True

>  <E0_value>  (2) 
-1354838.6258243525

>  <E0_units>  (2) 
kJ/mol

>  <thermo_class>  (2) 
NASA

>  <Cp0_value>  (2) 
33.257888

>  <Cp0_units>  (2) 
J/(mol*K)

>  <CpInf_value>  (2) 
232.805216

>  <CpInf_units>  (2) 
J/(mol*K)

>  <Tmin_value>  (2) 
10.0

>  <Tmin_units>  (2) 
K

>  <Tmax_value>  (2) 
3000.0

>  <Tmax_units>  (2) 
K

>  <polynomials>  (2) 
[{"name": "polynomial1", "class": "NASAPolynomial", "Tmin_value": 10.0, "Tmin_units": "K", "Tmax_value": 400.65806020409946, "Tmax_units": "K", "coeffs": [3.883268576252178, 0.009872966694517036, 7.267081741219709e-05, -1.4952606927169204e-07, 9.638969446192109e-11, -162949446.9996889, 10.213451719731799]}, {"name": "polynomial2", "class": "NASAPolynomial", "Tmin_value": 400.65806020409946, "Tmin_units": "K", "Tmax_value": 3000.0, "Tmax_units": "K", "coeffs": [1.381946217098182, 0.03484518856752169, -2.0821510203899097e-05, 6.039055448516005e-09, -6.791318499482445e-13, -162949246.56534788, 19.9930512432755]}]

>  <H298_value>  (2) 
-323810.2515366824

>  <H298_units>  (2) 
kcal/mol

>  <S298_value>  (2) 
74.2752341119096

>  <S298_units>  (2) 
cal/(mol*K)

>  <Cp_T_value_list>  (2) 
[20.12858317623335, 24.557289426072625, 28.44010285073442, 31.814651802239496, 37.252480139055294, 41.26543233779768, 47.186294391719805, 50.14241959560657, 51.7278549409484]

>  <Cp_T_units>  (2) 
cal/(mol*K)

>  <T_list>  (2) 
[300.0, 400.0, 500.0, 600.0, 800.0, 1000.0, 1500.0, 2000.0, 2400.0]

>  <T_units>  (2) 
K

>  <yaml_path>  (2) 
/home/calvin/Dropbox/PersonalFolders/Calvin/HAb_Converged/rxn_1419/output/Species/rxn_1419_SCC=C/rxn_1419_SCC=C.yml

>  <frequencies_cm1>  (2) 
[109.00652496968, 245.3917204102, 290.63828668367995, 415.01999178484, 607.7556687612799, 738.8738864613599, 795.00462446704, 935.2971345546399, 957.23715265204, 997.0931354493199, 1031.7164754327598, 1111.56578073372, 1232.59639699872, 1263.93045101388, 1318.41311254276, 1435.2480007772401, 1465.33226346416, 1711.0192642431198, 2696.8986126648797, 3040.5500260189597, 3094.0163737204803, 3115.6885793903994, 3138.1779563133996, 3206.45639135016]

>  <ZPE_kJmol>  (2) 
209.0649957029236

>  <E_elec_kJmol>  (2) 
-1355047.6908200553

>  <E0_minus_Eelec_plus_ZPE_kJmol>  (2) 
0.0

>  <rxn>  (2) 
rxn_1419

>  <species_type>  (2) 
p0

>  <species_folder>  (2) 
rxn_1419_SCC=C

>  <frequencies_cm1_list>  (2) 
[109.00652496968, 245.3917204102, 290.63828668367995, 415.01999178484, 607.7556687612799, 738.8738864613599, 795.00462446704, 935.2971345546399, 957.23715265204, 997.0931354493199, 1031.7164754327598, 1111.56578073372, 1232.59639699872, 1263.93045101388, 1318.41311254276, 1435.2480007772401, 1465.33226346416, 1711.0192642431198, 2696.8986126648797, 3040.5500260189597, 3094.0163737204803, 3115.6885793903994, 3138.1779563133996, 3206.45639135016]

>  <E0_kJmol>  (2) 
-1.35484e+06

>  <H298_kJmol>  (2) 
-1.35482e+06

$$$$

     RDKit          3D

 21 19  0  0  0  0  0  0  0  0999 V2000
   -1.5550   -2.1565   -1.1001 C   0  0  0  0  0  0  0  0  0  1  0  0
   -1.4830   -1.1012   -0.5321 C   0  0  0  0  0  0  0  0  0  2  0  0
   -1.3191    0.1521    0.1456 C   0  0  0  0  0  0  0  0  0  3  0  0
   -1.0335    1.3550   -0.7387 C   0  0  0  0  0  0  0  0  0  4  0  0
   -2.2113    0.3812    1.2455 C   0  0  0  0  0  0  0  0  0  5  0  0
   -2.9098    0.5952    2.1991 C   0  0  0  0  0  0  0  0  0  6  0  0
   -1.6405   -3.0876   -1.6064 H   0  0  0  0  0  0  0  0  0  7  0  0
   -0.1259    0.0050    0.7520 H   0  0  0  0  0  0  0  0  0  8  0  0
   -1.9193    1.6384   -1.3099 H   0  0  0  0  0  0  0  0  0  9  0  0
   -0.2313    1.1149   -1.4369 H   0  0  0  0  0  0  0  0  0 10  0  0
   -0.7285    2.2014   -0.1225 H   0  0  0  0  0  0  0  0  0 11  0  0
   -3.5524    0.7789    3.0263 H   0  0  0  0  0  0  0  0  0 12  0  0
    1.1748    1.1975    2.5108 S   0  0  0  0  0  0  0  0  0 13  0  0
    1.0805   -0.1324    1.3388 C   0  0  0  0  0  3  0  0  0 14  0  0
    2.0466   -0.0749    0.2537 C   0  0  0  0  0  0  0  0  0 15  0  0
    2.4539   -1.1423   -0.4376 C   0  0  0  0  0  0  0  0  0 16  0  0
   -0.0173    0.9776    3.0836 H   0  0  0  0  0  0  0  0  0 17  0  0
    0.9366   -1.1169    1.7805 H   0  0  0  0  0  0  0  0  0 18  0  0
    2.3987    0.9120   -0.0335 H   0  0  0  0  0  0  0  0  0 19  0  0
    2.1164   -2.1410   -0.1863 H   0  0  0  0  0  0  0  0  0 20  0  0
    3.1315   -1.0425   -1.2749 H   0  0  0  0  0  0  0  0  0 21  0  0
  1  7  1  0
  1  2  1  0
  2  3  1  0
  3  4  1  0
  3  8  1  0
  3  5  1  0
  4 10  1  0
  4 11  1  0
  4  9  1  0
  5  6  1  0
  6 12  1  0
 13 14  1  0
 13 17  1  0
 14 15  1  0
 14 18  1  0
 15 16  1  0
 15 19  1  0
 16 21  1  0
 16 20  1  0
M  RAD  1  14   2
M  END
>  <rmg_smiles>  (3) 
[CH][C]C([C][CH])C.[CH2][CH][CH]S

>  <rmg_adjacency_list>  (3) 
multiplicity 2
1  S u0 p2 c0 {5,S} {19,S}
2  C u0 p0 c0 {3,S} {7,S} {8,S} {11,S}
3  C u0 p0 c0 {2,S} {12,S} {13,S} {14,S}
4  C u0 p0 c0 {5,S} {6,S} {15,S}
5  C u1 p0 c0 {1,S} {4,S} {16,S}
6  C u0 p0 c0 {4,S} {17,S} {18,S}
7  C u0 p1 c0 {2,S} {9,S}
8  C u0 p1 c0 {2,S} {10,S}
9  C u0 p1 c0 {7,S} {20,S}
10 C u0 p1 c0 {8,S} {21,S}
11 H u0 p0 c0 {2,S}
12 H u0 p0 c0 {3,S}
13 H u0 p0 c0 {3,S}
14 H u0 p0 c0 {3,S}
15 H u0 p0 c0 {4,S}
16 H u0 p0 c0 {5,S}
17 H u0 p0 c0 {6,S}
18 H u0 p0 c0 {6,S}
19 H u0 p0 c0 {1,S}
20 H u0 p0 c0 {9,S}
21 H u0 p0 c0 {10,S}


>  <multiplicity>  (3) 
2

>  <reaction>  (3) 
rxn_1419

>  <type>  (3) 
ts

>  <role_mapnums>  (3) 
{"*2": 8, "*1": 3, "*3": 14, "*0": 2, "*4": 13}

>  <role_mapidx>  (3) 
{"*2": 7, "*1": 2, "*3": 13, "*0": 1, "*4": 12}

>  <ordered_mapped_smiles>  (3) 
[CH2:1]([CH2:2][C:3]([C:4]([H:9])([H:10])[H:11])([CH2:5][CH2:6][H:12])[H:8])[H:7].[S:13]([C:14]([CH:15]([CH:16]([H:20])[H:21])[H:19])[H:18])[H:17]

>  <mol_properties>  (3) 
{"1": {"label": "*0", "atom_type": "C2s"}, "2": {"label": "*1", "atom_type": "Cs"}, "7": {"label": "*2", "atom_type": "H0"}, "12": {"label": "*4", "atom_type": "S2s"}, "13": {"label": "*3", "atom_type": "Cs"}}

>  <level_of_theory>  (3) 
wb97xd/def2tzvp

>  <lot_method>  (3) 
wb97xd

>  <lot_basis>  (3) 
def2tzvp

>  <spin_multiplicity>  (3) 
2.0

>  <optical_isomers>  (3) 
2.0

>  <modes>  (3) 
IdealGasTranslation(mass=(151.058, 'amu')),         NonlinearRotor(             inertia = ([448.652, 565.067, 848.25

>  <frequency_value>  (3) 
-1766.23

>  <frequency_units>  (3) 
cm^-1

>  <frequency_list>  (3) 
unknown

>  <arkane_path>  (3) 
/home/calvin/Dropbox/PersonalFolders/Calvin/HAb_Converged/rxn_1419/output/rxns/TS0/arkane/output.py

>  <path_exists>  (3) 
True

>  <E0_value>  (3) 
-1962270.0

>  <E0_units>  (3) 
kJ/mol

>  <thermo_class>  (3) 
unknown

>  <Cp0_value>  (3) 
unknown

>  <Cp0_units>  (3) 
unknown

>  <CpInf_value>  (3) 
unknown

>  <CpInf_units>  (3) 
unknown

>  <Tmin_value>  (3) 
unknown

>  <Tmin_units>  (3) 
unknown

>  <Tmax_value>  (3) 
unknown

>  <Tmax_units>  (3) 
unknown

>  <polynomials>  (3) 
unknown

>  <H298_value>  (3) 
unknown

>  <H298_units>  (3) 
unknown

>  <S298_value>  (3) 
unknown

>  <S298_units>  (3) 
unknown

>  <Cp_T_value_list>  (3) 
unknown

>  <Cp_T_units>  (3) 
unknown

>  <T_list>  (3) 
unknown

>  <T_units>  (3) 
unknown

>  <yaml_path>  (3) 
unknown

>  <frequencies_cm1>  (3) 
unknown

>  <ZPE_kJmol>  (3) 
unknown

>  <E_elec_kJmol>  (3) 
unknown

>  <E0_minus_Eelec_plus_ZPE_kJmol>  (3) 
unknown

>  <rxn>  (3) 
unknown

>  <species_type>  (3) 
unknown

>  <species_folder>  (3) 
unknown

>  <frequencies_cm1_list>  (3) 
[]

>  <ts_imag_freq_cm1>  (3) 
-1787.6816

>  <ts_freq_out_path>  (3) 
/home/calvin/Dropbox/PersonalFolders/Calvin/HAb_Converged/rxn_1419/output/rxns/TS0/geometry/freq.out

>  <E0_kJmol>  (3) 
-1.96227e+06

>  <H298_kJmol>  (3) 
unknown

$$$$

     RDKit          3D

 11 10  0  0  0  0  0  0  0  0999 V2000
   -0.9580    1.1013   -2.2955 C   0  0  0  0  0  0  0  0  0  1  0  0
   -0.5129    0.5941   -1.2929 C   0  0  0  0  0  0  0  0  0  2  0  0
   -0.0301   -0.0160   -0.1357 C   0  0  0  0  0  3  0  0  0  3  0  0
   -0.6593   -1.2845    0.3661 C   0  0  0  0  0  0  0  0  0  4  0  0
    1.0691    0.5292    0.5269 C   0  0  0  0  0  0  0  0  0  5  0  0
    2.0168    0.9794    1.1266 C   0  0  0  0  0  0  0  0  0  6  0  0
   -1.3415    1.5561   -3.1769 H   0  0  0  0  0  0  0  0  0  7  0  0
   -1.7166   -1.3186    0.1054 H   0  0  0  0  0  0  0  0  0  8  0  0
   -0.1742   -2.1550   -0.0865 H   0  0  0  0  0  0  0  0  0  9  0  0
   -0.5505   -1.3663    1.4470 H   0  0  0  0  0  0  0  0  0 10  0  0
    2.8514    1.3842    1.6465 H   0  0  0  0  0  0  0  0  0 11  0  0
  1  7  1  0
  1  2  1  0
  2  3  1  0
  3  4  1  0
  3  5  1  0
  4  8  1  0
  4  9  1  0
  4 10  1  0
  5  6  1  0
  6 11  1  0
M  RAD  1   3   2
M  END
>  <rmg_smiles>  (4) 
[CH]C[C](C)C[CH]

>  <rmg_adjacency_list>  (4) 
multiplicity 2
1  C u0 p0 c0 {2,S} {7,S} {8,S} {9,S}
2  C u1 p0 c0 {1,S} {3,S} {4,S}
3  C u0 p1 c0 {2,S} {5,S}
4  C u0 p1 c0 {2,S} {6,S}
5  C u0 p1 c0 {3,S} {10,S}
6  C u0 p1 c0 {4,S} {11,S}
7  H u0 p0 c0 {1,S}
8  H u0 p0 c0 {1,S}
9  H u0 p0 c0 {1,S}
10 H u0 p0 c0 {5,S}
11 H u0 p0 c0 {6,S}


>  <multiplicity>  (4) 
2

>  <reaction>  (4) 
rxn_1419

>  <type>  (4) 
r1

>  <role_mapnums>  (4) 
{}

>  <role_mapidx>  (4) 
{}

>  <ordered_mapped_smiles>  (4) 
[CH2:1]([CH2:2][C:3]([C:4]([H:8])([H:9])[H:10])[CH2:5][CH2:6][H:11])[H:7]

>  <level_of_theory>  (4) 
wb97xd/def2tzvp

>  <lot_method>  (4) 
wb97xd

>  <lot_basis>  (4) 
def2tzvp

>  <spin_multiplicity>  (4) 
2.0

>  <optical_isomers>  (4) 
1.0

>  <modes>  (4) 
IdealGasTranslation(mass=(77.0391, 'amu')),         NonlinearRotor(             inertia = ([87.0558, 182.116, 266.037

>  <frequency_value>  (4) 
unknown

>  <frequency_units>  (4) 
unknown

>  <frequency_list>  (4) 
unknown

>  <arkane_path>  (4) 
/home/calvin/Dropbox/PersonalFolders/Calvin/HAb_Converged/rxn_1419/output/Species/rxn_1419_CtC[C][C]CtC/arkane/output.py

>  <path_exists>  (4) 
True

>  <E0_value>  (4) 
-607514.9395077111

>  <E0_units>  (4) 
kJ/mol

>  <thermo_class>  (4) 
NASA

>  <Cp0_value>  (4) 
33.257888

>  <Cp0_units>  (4) 
J/(mol*K)

>  <CpInf_value>  (4) 
257.748632

>  <CpInf_units>  (4) 
J/(mol*K)

>  <Tmin_value>  (4) 
10.0

>  <Tmin_units>  (4) 
K

>  <Tmax_value>  (4) 
3000.0

>  <Tmax_units>  (4) 
K

>  <polynomials>  (4) 
[{"name": "polynomial1", "class": "NASAPolynomial", "Tmin_value": 10.0, "Tmin_units": "K", "Tmax_value": 349.46173600351864, "Tmax_units": "K", "coeffs": [3.766270434672447, 0.01962559465306403, 0.00015807938455067891, -5.467775010691105e-07, 5.441205279863145e-10, -73067173.52596356, 12.15378396539221]}, {"name": "polynomial2", "class": "NASAPolynomial", "Tmin_value": 349.46173600351864, "Tmin_units": "K", "Tmax_value": 3000.0, "Tmax_units": "K", "coeffs": [4.503025724813377, 0.03655999643186892, -2.3493426390627616e-05, 7.3276612126098215e-09, -8.780851036309253e-13, -73067379.9175016, 7.157724853906072]}]

>  <H298_value>  (4) 
-145194.46313324326

>  <H298_units>  (4) 
kcal/mol

>  <S298_value>  (4) 
84.90850212036293

>  <S298_units>  (4) 
cal/(mol*K)

>  <Cp_T_value_list>  (4) 
[26.877916196478143, 31.4268111749371, 35.31413934636125, 38.6518919246016, 43.93182763476164, 47.731054497646795, 53.19426248781607, 56.08143371701518, 57.80726761952239]

>  <Cp_T_units>  (4) 
cal/(mol*K)

>  <T_list>  (4) 
[300.0, 400.0, 500.0, 600.0, 800.0, 1000.0, 1500.0, 2000.0, 2400.0]

>  <T_units>  (4) 
K

>  <yaml_path>  (4) 
/home/calvin/Dropbox/PersonalFolders/Calvin/HAb_Converged/rxn_1419/output/Species/rxn_1419_CtC[C][C]CtC/rxn_1419_CtCCCCtC.yml

>  <frequencies_cm1>  (4) 
[29.02674694764, 135.43068448103998, 196.03869691536002, 226.34270313252, 381.02154746552, 485.94221616979996, 534.67721098584, 574.6774004748399, 575.94779275904, 598.55390843248, 680.22296484324, 681.74056859896, 705.74754927768, 980.1110807529599, 1012.7155270523198, 1219.2332435659998, 1286.1314145534398, 1393.02290804456, 1464.30221566616, 1471.2447378246798, 2036.0405464240396, 2119.5911568124798, 3006.0502917712797, 3079.4034289595193, 3119.3280816099996, 3427.5321167422394, 3431.14415102056]

>  <ZPE_kJmol>  (4) 
208.4566530536649

>  <E_elec_kJmol>  (4) 
-607723.3961607647

>  <E0_minus_Eelec_plus_ZPE_kJmol>  (4) 
0.0

>  <rxn>  (4) 
rxn_1419

>  <species_type>  (4) 
p1

>  <species_folder>  (4) 
rxn_1419_CtC[C][C]CtC

>  <frequencies_cm1_list>  (4) 
[29.02674694764, 135.43068448103998, 196.03869691536002, 226.34270313252, 381.02154746552, 485.94221616979996, 534.67721098584, 574.6774004748399, 575.94779275904, 598.55390843248, 680.22296484324, 681.74056859896, 705.74754927768, 980.1110807529599, 1012.7155270523198, 1219.2332435659998, 1286.1314145534398, 1393.02290804456, 1464.30221566616, 1471.2447378246798, 2036.0405464240396, 2119.5911568124798, 3006.0502917712797, 3079.4034289595193, 3119.3280816099996, 3427.5321167422394, 3431.14415102056]

>  <E0_kJmol>  (4) 
-607515

>  <H298_kJmol>  (4) 
-607494

$$$$

     RDKit          3D

  9  8  0  0  0  0  0  0  0  0999 V2000
    2.3991   -0.1292   -0.2384 S   0  0  0  0  0  0  0  0  0  1  0  0
    0.7460    0.2807    0.0931 C   0  0  0  0  0  3  0  0  0  2  0  0
   -0.3131   -0.5719   -0.2043 C   0  0  0  0  0  0  0  0  0  3  0  0
   -0.2286   -1.8095   -0.7775 C   0  0  0  0  0  0  0  0  0  4  0  0
    2.9373    1.0009    0.2312 H   0  0  0  0  0  0  0  0  0  5  0  0
    0.5618    1.2421    0.5487 H   0  0  0  0  0  0  0  0  0  6  0  0
   -1.2978   -0.1954    0.0537 H   0  0  0  0  0  0  0  0  0  7  0  0
    0.7207   -2.2479   -1.0607 H   0  0  0  0  0  0  0  0  0  8  0  0
   -1.1177   -2.3938   -0.9670 H   0  0  0  0  0  0  0  0  0  9  0  0
  1  2  1  0
  1  5  1  0
  2  6  1  0
  2  3  1  0
  3  4  1  0
  3  7  1  0
  4  8  1  0
  4  9  1  0
M  RAD  1   2   2
M  END
>  <rmg_smiles>  (5) 
[CH2][CH][CH]S

>  <rmg_adjacency_list>  (5) 
multiplicity 2
1 S u0 p2 c0 {3,S} {9,S}
2 C u0 p0 c0 {3,S} {4,S} {5,S}
3 C u1 p0 c0 {1,S} {2,S} {6,S}
4 C u0 p0 c0 {2,S} {7,S} {8,S}
5 H u0 p0 c0 {2,S}
6 H u0 p0 c0 {3,S}
7 H u0 p0 c0 {4,S}
8 H u0 p0 c0 {4,S}
9 H u0 p0 c0 {1,S}


>  <multiplicity>  (5) 
2

>  <reaction>  (5) 
rxn_1419

>  <type>  (5) 
r2

>  <role_mapnums>  (5) 
{}

>  <role_mapidx>  (5) 
{}

>  <ordered_mapped_smiles>  (5) 
[S:1]([C:2]([CH:3]([CH:4]([H:8])[H:9])[H:7])[H:6])[H:5]

>  <level_of_theory>  (5) 
wb97xd/def2tzvp

>  <lot_method>  (5) 
wb97xd

>  <lot_basis>  (5) 
def2tzvp

>  <spin_multiplicity>  (5) 
2.0

>  <optical_isomers>  (5) 
1.0

>  <modes>  (5) 
IdealGasTranslation(mass=(73.0112, 'amu')),         NonlinearRotor(             inertia = ([31.363, 134.913, 166.276

>  <frequency_value>  (5) 
unknown

>  <frequency_units>  (5) 
unknown

>  <frequency_list>  (5) 
unknown

>  <arkane_path>  (5) 
/home/calvin/Dropbox/PersonalFolders/Calvin/HAb_Converged/rxn_1419/output/Species/rxn_1419_S[CH]C=C/arkane/output.py

>  <path_exists>  (5) 
True

>  <E0_value>  (5) 
-1353189.912902829

>  <E0_units>  (5) 
kJ/mol

>  <thermo_class>  (5) 
NASA

>  <Cp0_value>  (5) 
33.257888

>  <Cp0_units>  (5) 
J/(mol*K)

>  <CpInf_value>  (5) 
207.8618

>  <CpInf_units>  (5) 
J/(mol*K)

>  <Tmin_value>  (5) 
10.0

>  <Tmin_units>  (5) 
K

>  <Tmax_value>  (5) 
3000.0

>  <Tmax_units>  (5) 
K

>  <polynomials>  (5) 
[{"name": "polynomial1", "class": "NASAPolynomial", "Tmin_value": 10.0, "Tmin_units": "K", "Tmax_value": 494.182421916781, "Tmax_units": "K", "coeffs": [3.9171373588949456, 0.005296732981537435, 0.00010660061491766757, -2.3200753792228283e-07, 1.5435566423865143e-10, -162751151.45822766, 10.011870120637145]}, {"name": "polynomial2", "class": "NASAPolynomial", "Tmin_value": 494.182421916781, "Tmin_units": "K", "Tmax_value": 3000.0, "Tmax_units": "K", "coeffs": [2.9684844905613335, 0.02976556892789463, -1.8633830366542493e-05, 5.689075317713255e-09, -6.722422089020262e-13, -162751262.7195864, 11.845549052817699]}]

>  <H298_value>  (5) 
-323416.2553145126

>  <H298_units>  (5) 
kcal/mol

>  <S298_value>  (5) 
73.32316749567646

>  <S298_units>  (5) 
cal/(mol*K)

>  <Cp_T_value_list>  (5) 
[20.043540963892376, 24.233886931081226, 27.5465186826771, 30.32748293405113, 34.761695296239196, 37.98953828173351, 42.701336869209946, 45.151374707895805, 46.535171933883085]

>  <Cp_T_units>  (5) 
cal/(mol*K)

>  <T_list>  (5) 
[300.0, 400.0, 500.0, 600.0, 800.0, 1000.0, 1500.0, 2000.0, 2400.0]

>  <T_units>  (5) 
K

>  <yaml_path>  (5) 
/home/calvin/Dropbox/PersonalFolders/Calvin/HAb_Converged/rxn_1419/output/Species/rxn_1419_S[CH]C=C/rxn_1419_SCHC=C.yml

>  <frequencies_cm1>  (5) 
[163.62652620496, 213.33663293644, 322.76891099595997, 534.6497430445601, 548.4317825817999, 640.07856866252, 767.52981620172, 810.9222964388, 939.69200515944, 969.4329185803599, 1056.3483517756, 1131.90579125156, 1228.8126880874, 1369.48974935292, 1427.04882030516, 1524.36086927488, 2717.97339061196, 3127.7744735536003, 3135.08094593408, 3196.4305927829596, 3224.57836560964]

>  <ZPE_kJmol>  (5) 
173.75927083469932

>  <E_elec_kJmol>  (5) 
-1353363.6721736635

>  <E0_minus_Eelec_plus_ZPE_kJmol>  (5) 
0.0

>  <rxn>  (5) 
rxn_1419

>  <species_type>  (5) 
r1

>  <species_folder>  (5) 
rxn_1419_S[CH]C=C

>  <frequencies_cm1_list>  (5) 
[163.62652620496, 213.33663293644, 322.76891099595997, 534.6497430445601, 548.4317825817999, 640.07856866252, 767.52981620172, 810.9222964388, 939.69200515944, 969.4329185803599, 1056.3483517756, 1131.90579125156, 1228.8126880874, 1369.48974935292, 1427.04882030516, 1524.36086927488, 2717.97339061196, 3127.7744735536003, 3135.08094593408, 3196.4305927829596, 3224.57836560964]

>  <E0_kJmol>  (5) 
-1.35319e+06

>  <H298_kJmol>  (5) 
-1.35317e+06

$$$$
