
     RDKit          3D

 12 11  0  0  0  0  0  0  0  0999 V2000
   -0.8966    0.7614   -1.2719 C   0  0  0  0  0  0  0  0  0  1  0  0
   -0.4930    0.2463    0.0858 C   0  0  0  0  0  0  0  0  0  2  0  0
    0.7176   -1.0797    0.0499 S   0  0  0  0  0  0  0  0  0  3  0  0
   -0.2357    1.3121    1.1213 C   0  0  0  0  0  0  0  0  0  4  0  0
   -1.1678   -0.0549   -1.9412 H   0  0  0  0  0  0  0  0  0  5  0  0
   -0.0782    1.3218   -1.7397 H   0  0  0  0  0  0  0  0  0  6  0  0
   -1.7496    1.4400   -1.1840 H   0  0  0  0  0  0  0  0  0  7  0  0
   -1.3749   -0.2822    0.4478 H   0  0  0  0  0  0  0  0  0  8  0  0
    1.6798   -0.4387   -0.6379 H   0  0  0  0  0  0  0  0  0  9  0  0
   -1.0889    1.9928    1.1874 H   0  0  0  0  0  0  0  0  0 10  0  0
    0.6464    1.9087    0.8617 H   0  0  0  0  0  0  0  0  0 11  0  0
   -0.0622    0.8751    2.1050 H   0  0  0  0  0  0  0  0  0 12  0  0
  1  5  1  0
  1  7  1  0
  1  6  1  0
  1  2  1  0
  2  8  1  0
  2  3  1  0
  2  4  1  0
  3  9  1  0
  4 11  1  0
  4 12  1  0
  4 10  1  0
M  END
>  <rmg_smiles>  (1) 
CC(S)C

>  <rmg_adjacency_list>  (1) 
1  S u0 p2 c0 {2,S} {12,S}
2  C u0 p0 c0 {1,S} {3,S} {4,S} {5,S}
3  C u0 p0 c0 {2,S} {6,S} {7,S} {8,S}
4  C u0 p0 c0 {2,S} {9,S} {10,S} {11,S}
5  H u0 p0 c0 {2,S}
6  H u0 p0 c0 {3,S}
7  H u0 p0 c0 {3,S}
8  H u0 p0 c0 {3,S}
9  H u0 p0 c0 {4,S}
10 H u0 p0 c0 {4,S}
11 H u0 p0 c0 {4,S}
12 H u0 p0 c0 {1,S}


>  <multiplicity>  (1) 
1

>  <reaction>  (1) 
rxn_1911

>  <type>  (1) 
r1h

>  <role_mapnums>  (1) 
{"r1h_a": 2, "r1h_h": 8}

>  <role_mapidx>  (1) 
{"r1h_a": 1, "r1h_h": 7}

>  <ordered_mapped_smiles>  (1) 
[C:1]([C:2]([S:3][H:9])([C:4]([H:10])([H:11])[H:12])[H:8])([H:5])([H:6])[H:7]

>  <mol_properties>  (1) 
{"1": {"label": "donator", "atom_type": "Cs"}, "7": {"label": "d_hydrogen", "atom_type": "H0"}}

>  <level_of_theory>  (1) 
wb97xd/def2tzvp

>  <lot_method>  (1) 
wb97xd

>  <lot_basis>  (1) 
def2tzvp

>  <spin_multiplicity>  (1) 
1.0

>  <optical_isomers>  (1) 
1.0

>  <modes>  (1) 
IdealGasTranslation(mass=(76.0347, 'amu')),         NonlinearRotor(             inertia = ([63.6139, 114.441, 159.621

>  <frequency_value>  (1) 
unknown

>  <frequency_units>  (1) 
unknown

>  <frequency_list>  (1) 
unknown

>  <arkane_path>  (1) 
/home/calvin/Dropbox/PersonalFolders/Calvin/HAb_Converged/rxn_1911/output/Species/rxn_1911_CC[S]C/arkane/output.py

>  <path_exists>  (1) 
True

>  <E0_value>  (1) 
-1358037.5866518293

>  <E0_units>  (1) 
kJ/mol

>  <thermo_class>  (1) 
NASA

>  <Cp0_value>  (1) 
33.257888

>  <Cp0_units>  (1) 
J/(mol*K)

>  <CpInf_value>  (1) 
282.692048

>  <CpInf_units>  (1) 
J/(mol*K)

>  <Tmin_value>  (1) 
10.0

>  <Tmin_units>  (1) 
K

>  <Tmax_value>  (1) 
3000.0

>  <Tmax_units>  (1) 
K

>  <polynomials>  (1) 
[{"name": "polynomial1", "class": "NASAPolynomial", "Tmin_value": 10.0, "Tmin_units": "K", "Tmax_value": 321.0427973613408, "Tmax_units": "K", "coeffs": [3.8756047097418973, 0.009389250032259752, 0.00011815725900514658, -2.839097589188045e-07, 2.248653567403297e-10, -163334191.98612887, 9.447969360133794]}, {"name": "polynomial2", "class": "NASAPolynomial", "Tmin_value": 321.0427973613408, "Tmin_units": "K", "Tmax_value": 3000.0, "Tmax_units": "K", "coeffs": [1.4806840671397867, 0.03922843927194572, -2.12592416875342e-05, 5.597074365621278e-09, -5.765908627450798e-13, -163334038.21131045, 18.281020566317956]}]

>  <H298_value>  (1) 
-324574.47563528904

>  <H298_units>  (1) 
kcal/mol

>  <S298_value>  (1) 
74.54205005976131

>  <S298_units>  (1) 
cal/(mol*K)

>  <Cp_T_value_list>  (1) 
[22.81785805349738, 28.04749840897883, 32.6770089554356, 36.76066239877869, 43.494090555582204, 48.62766871564607, 56.55824970959882, 60.5138896959208, 62.43755375914227]

>  <Cp_T_units>  (1) 
cal/(mol*K)

>  <T_list>  (1) 
[300.0, 400.0, 500.0, 600.0, 800.0, 1000.0, 1500.0, 2000.0, 2400.0]

>  <T_units>  (1) 
K

>  <yaml_path>  (1) 
/home/calvin/Dropbox/PersonalFolders/Calvin/HAb_Converged/rxn_1911/output/Species/rxn_1911_CC[S]C/rxn_1911_CCSC.yml

>  <frequencies_cm1>  (1) 
[200.16575509268, 239.05349295983999, 267.56521600848, 330.00671352323997, 342.12007562772, 410.47404750299995, 623.63900580644, 869.4770802624399, 901.3261581766, 934.4387613896399, 956.6740598558, 1108.1048201324402, 1133.3272572128, 1186.15497527956, 1298.3065795258, 1327.5874049302797, 1394.18342856364, 1410.9869416416798, 1469.0885044341999, 1472.7280066537999, 1483.70144919516, 1489.7375292914398, 2685.0049940906397, 3006.5378477289996, 3009.8752025945196, 3034.84356121804, 3072.74932018444, 3080.10386146216, 3104.8387425847995, 3107.4138620797994]

>  <ZPE_kJmol>  (1) 
268.8620674224514

>  <E_elec_kJmol>  (1) 
-1358306.4487192517

>  <E0_minus_Eelec_plus_ZPE_kJmol>  (1) 
0.0

>  <rxn>  (1) 
rxn_1911

>  <species_type>  (1) 
r0

>  <species_folder>  (1) 
rxn_1911_CC[S]C

>  <frequencies_cm1_list>  (1) 
[200.16575509268, 239.05349295983999, 267.56521600848, 330.00671352323997, 342.12007562772, 410.47404750299995, 623.63900580644, 869.4770802624399, 901.3261581766, 934.4387613896399, 956.6740598558, 1108.1048201324402, 1133.3272572128, 1186.15497527956, 1298.3065795258, 1327.5874049302797, 1394.18342856364, 1410.9869416416798, 1469.0885044341999, 1472.7280066537999, 1483.70144919516, 1489.7375292914398, 2685.0049940906397, 3006.5378477289996, 3009.8752025945196, 3034.84356121804, 3072.74932018444, 3080.10386146216, 3104.8387425847995, 3107.4138620797994]

>  <E0_kJmol>  (1) 
-1.35804e+06

>  <H298_kJmol>  (1) 
-1.35802e+06

$$$$

     RDKit          3D

 14 13  0  0  0  0  0  0  0  0999 V2000
    1.1411    0.6169   -0.4376 H   0  0  0  0  0  0  0  0  0  1  0  0
   -0.1946   -0.7223   -1.2611 C   0  0  0  0  0  0  0  0  0  2  0  0
    0.2316    0.1275   -0.0891 C   0  0  0  0  0  0  0  0  0  3  0  0
   -0.7104    1.2621    0.2310 C   0  0  0  0  0  0  0  0  0  4  0  0
    0.6817   -0.6621    1.1158 C   0  0  0  0  0  0  0  0  0  5  0  0
   -0.4437   -0.1075   -2.1286 H   0  0  0  0  0  0  0  0  0  6  0  0
    0.5952   -1.4179   -1.5524 H   0  0  0  0  0  0  0  0  0  7  0  0
   -1.0835   -1.3139   -1.0097 H   0  0  0  0  0  0  0  0  0  8  0  0
   -1.6787    0.8789    0.5758 H   0  0  0  0  0  0  0  0  0  9  0  0
   -0.8997    1.8830   -0.6477 H   0  0  0  0  0  0  0  0  0 10  0  0
   -0.3108    1.9008    1.0216 H   0  0  0  0  0  0  0  0  0 11  0  0
    1.4427   -1.3977    0.8478 H   0  0  0  0  0  0  0  0  0 12  0  0
    1.0972   -0.0095    1.8867 H   0  0  0  0  0  0  0  0  0 13  0  0
   -0.1612   -1.2046    1.5614 H   0  0  0  0  0  0  0  0  0 14  0  0
  1  3  1  0
  2  7  1  0
  2  8  1  0
  2  6  1  0
  2  3  1  0
  3  4  1  0
  3  5  1  0
  4  9  1  0
  4 10  1  0
  4 11  1  0
  5 12  1  0
  5 14  1  0
  5 13  1  0
M  END
>  <rmg_smiles>  (2) 
CC(C)C

>  <rmg_adjacency_list>  (2) 
1  C u0 p0 c0 {2,S} {3,S} {4,S} {5,S}
2  C u0 p0 c0 {1,S} {6,S} {7,S} {8,S}
3  C u0 p0 c0 {1,S} {9,S} {10,S} {11,S}
4  C u0 p0 c0 {1,S} {12,S} {13,S} {14,S}
5  H u0 p0 c0 {1,S}
6  H u0 p0 c0 {2,S}
7  H u0 p0 c0 {2,S}
8  H u0 p0 c0 {2,S}
9  H u0 p0 c0 {3,S}
10 H u0 p0 c0 {3,S}
11 H u0 p0 c0 {3,S}
12 H u0 p0 c0 {4,S}
13 H u0 p0 c0 {4,S}
14 H u0 p0 c0 {4,S}


>  <multiplicity>  (2) 
1

>  <reaction>  (2) 
rxn_1911

>  <type>  (2) 
r2h

>  <role_mapnums>  (2) 
{"r2h_a": 3, "r2h_h": 1}

>  <role_mapidx>  (2) 
{"r2h_a": 2, "r2h_h": 0}

>  <ordered_mapped_smiles>  (2) 
[H:1][C:3]([C:2]([H:6])([H:7])[H:8])([C:4]([H:9])([H:10])[H:11])[C:5]([H:12])([H:13])[H:14]

>  <mol_properties>  (2) 
{"0": {"label": "a_hydrogen", "atom_type": "H0"}, "2": {"label": "acceptor", "atom_type": "Cs"}}

>  <level_of_theory>  (2) 
wb97xd/def2tzvp

>  <lot_method>  (2) 
wb97xd

>  <lot_basis>  (2) 
def2tzvp

>  <spin_multiplicity>  (2) 
1.0

>  <optical_isomers>  (2) 
1.0

>  <modes>  (2) 
IdealGasTranslation(mass=(58.0782, 'amu')),         NonlinearRotor(             inertia = ([64.472, 64.4729, 111.216

>  <frequency_value>  (2) 
unknown

>  <frequency_units>  (2) 
unknown

>  <frequency_list>  (2) 
unknown

>  <arkane_path>  (2) 
/home/calvin/Dropbox/PersonalFolders/Calvin/HAb_Converged/rxn_1911/output/Species/rxn_1911_CC[C]C/arkane/output.py

>  <path_exists>  (2) 
True

>  <E0_value>  (2) 
-415716.8525621775

>  <E0_units>  (2) 
kJ/mol

>  <thermo_class>  (2) 
NASA

>  <Cp0_value>  (2) 
33.257888

>  <Cp0_units>  (2) 
J/(mol*K)

>  <CpInf_value>  (2) 
332.57888

>  <CpInf_units>  (2) 
J/(mol*K)

>  <Tmin_value>  (2) 
10.0

>  <Tmin_units>  (2) 
K

>  <Tmax_value>  (2) 
3000.0

>  <Tmax_units>  (2) 
K

>  <polynomials>  (2) 
[{"name": "polynomial1", "class": "NASAPolynomial", "Tmin_value": 10.0, "Tmin_units": "K", "Tmax_value": 538.2214375619986, "Tmax_units": "K", "coeffs": [3.8621872510050332, 0.009610568777321948, 8.485412327428683e-05, -1.3116301255532807e-07, 6.34485151398343e-11, -49999184.01742363, 7.558617299203575]}, {"name": "polynomial2", "class": "NASAPolynomial", "Tmin_value": 538.2214375619986, "Tmin_units": "K", "Tmax_value": 3000.0, "Tmax_units": "K", "coeffs": [-1.5220809196460627, 0.04962584657983929, -2.6666774751870228e-05, 6.9721240396646026e-09, -7.142885358926052e-13, -49998604.43191879, 30.19912241196336]}]

>  <H298_value>  (2) 
-99354.53554674616

>  <H298_units>  (2) 
kcal/mol

>  <S298_value>  (2) 
69.8733158385265

>  <S298_units>  (2) 
cal/(mol*K)

>  <Cp_T_value_list>  (2) 
[22.564254106011518, 28.840176264621284, 34.67905479584517, 39.876865707669246, 48.46601000852086, 55.035339088963745, 65.24253042623675, 70.36874877691793, 72.85812776885189]

>  <Cp_T_units>  (2) 
cal/(mol*K)

>  <T_list>  (2) 
[300.0, 400.0, 500.0, 600.0, 800.0, 1000.0, 1500.0, 2000.0, 2400.0]

>  <T_units>  (2) 
K

>  <yaml_path>  (2) 
/home/calvin/Dropbox/PersonalFolders/Calvin/HAb_Converged/rxn_1911/output/Species/rxn_1911_CC[C]C/rxn_1911_CCCC.yml

>  <frequencies_cm1>  (2) 
[211.01559189828, 262.02355885524, 262.9368679027999, 368.94938727295994, 369.36140639215995, 434.61150090279995, 803.94543935368, 924.2412881894401, 924.6464403233199, 953.4671777113599, 975.9359536784, 976.26556897376, 1191.0099339008, 1191.09233772464, 1204.0572060088, 1353.00898458492, 1353.09138840876, 1393.0915778977599, 1393.29072047204, 1417.174095415, 1467.51596479592, 1473.88852717288, 1474.1082707031198, 1492.39505261028, 1492.5735942285999, 1500.7315727887599, 2997.83737732856, 3000.1996202786404, 3000.3438269703593, 3005.7000755199592, 3068.80080362544, 3068.9244093612, 3077.56994387908, 3080.1725313153597, 3083.74336368176, 3083.9974421386]

>  <ZPE_kJmol>  (2) 
342.9199296235544

>  <E_elec_kJmol>  (2) 
-416059.772491801

>  <E0_minus_Eelec_plus_ZPE_kJmol>  (2) 
0.0

>  <rxn>  (2) 
rxn_1911

>  <species_type>  (2) 
p0

>  <species_folder>  (2) 
rxn_1911_CC[C]C

>  <frequencies_cm1_list>  (2) 
[211.01559189828, 262.02355885524, 262.9368679027999, 368.94938727295994, 369.36140639215995, 434.61150090279995, 803.94543935368, 924.2412881894401, 924.6464403233199, 953.4671777113599, 975.9359536784, 976.26556897376, 1191.0099339008, 1191.09233772464, 1204.0572060088, 1353.00898458492, 1353.09138840876, 1393.0915778977599, 1393.29072047204, 1417.174095415, 1467.51596479592, 1473.88852717288, 1474.1082707031198, 1492.39505261028, 1492.5735942285999, 1500.7315727887599, 2997.83737732856, 3000.1996202786404, 3000.3438269703593, 3005.7000755199592, 3068.80080362544, 3068.9244093612, 3077.56994387908, 3080.1725313153597, 3083.74336368176, 3083.9974421386]

>  <E0_kJmol>  (2) 
-415717

>  <H298_kJmol>  (2) 
-415699

$$$$

     RDKit          3D

 25 23  0  0  0  0  0  0  0  0999 V2000
    0.3529    1.1814   -1.8831 C   0  0  0  0  0  0  0  0  0  1  0  0
    0.7565    0.6663   -0.5254 C   0  0  0  0  0  3  0  0  0  2  0  0
    1.9672   -0.6597   -0.5614 S   0  0  0  0  0  0  0  0  0  3  0  0
    1.0138    1.7321    0.5101 C   0  0  0  0  0  0  0  0  0  4  0  0
    0.0817    0.3651   -2.5525 H   0  0  0  0  0  0  0  0  0  5  0  0
    1.1713    1.7418   -2.3509 H   0  0  0  0  0  0  0  0  0  6  0  0
   -0.5000    1.8600   -1.7953 H   0  0  0  0  0  0  0  0  0  7  0  0
   -0.3448    0.0063   -0.0733 H   0  0  0  0  0  0  0  0  0  8  0  0
    2.9293   -0.0187   -1.2491 H   0  0  0  0  0  0  0  0  0  9  0  0
    0.1607    2.4128    0.5761 H   0  0  0  0  0  0  0  0  0 10  0  0
    1.8959    2.3287    0.2505 H   0  0  0  0  0  0  0  0  0 11  0  0
    1.1873    1.2951    1.4937 H   0  0  0  0  0  0  0  0  0 12  0  0
   -1.8825   -1.4416   -0.8194 C   0  0  0  0  0  0  0  0  0 13  0  0
   -1.4563   -0.5919    0.3526 C   0  0  0  0  0  0  0  0  0 14  0  0
   -2.3983    0.5428    0.6727 C   0  0  0  0  0  0  0  0  0 15  0  0
   -1.0063   -1.3814    1.5575 C   0  0  0  0  0  0  0  0  0 16  0  0
   -2.1317   -0.8269   -1.6869 H   0  0  0  0  0  0  0  0  0 17  0  0
   -1.0928   -2.1373   -1.1107 H   0  0  0  0  0  0  0  0  0 18  0  0
   -2.7715   -2.0332   -0.5681 H   0  0  0  0  0  0  0  0  0 19  0  0
   -3.3666    0.1595    1.0175 H   0  0  0  0  0  0  0  0  0 20  0  0
   -2.5876    1.1637   -0.2060 H   0  0  0  0  0  0  0  0  0 21  0  0
   -1.9987    1.1815    1.4632 H   0  0  0  0  0  0  0  0  0 22  0  0
   -0.2452   -2.1171    1.2895 H   0  0  0  0  0  0  0  0  0 23  0  0
   -0.5907   -0.7289    2.3284 H   0  0  0  0  0  0  0  0  0 24  0  0
   -1.8491   -1.9239    2.0030 H   0  0  0  0  0  0  0  0  0 25  0  0
  1  7  1  0
  1  5  1  0
  1  6  1  0
  1  2  1  0
  2  3  1  0
  2  4  1  0
  3  9  1  0
  4 10  1  0
  4 11  1  0
  4 12  1  0
  8 14  1  0
 13 19  1  0
 13 17  1  0
 13 18  1  0
 13 14  1  0
 14 15  1  0
 14 16  1  0
 15 20  1  0
 15 22  1  0
 15 21  1  0
 16 23  1  0
 16 24  1  0
 16 25  1  0
M  RAD  1   2   2
M  END
>  <rmg_smiles>  (3) 
C[C](S)C.CC(C)C

>  <rmg_adjacency_list>  (3) 
multiplicity 2
1  S u0 p2 c0 {8,S} {25,S}
2  C u0 p0 c0 {3,S} {4,S} {5,S} {9,S}
3  C u0 p0 c0 {2,S} {10,S} {11,S} {12,S}
4  C u0 p0 c0 {2,S} {13,S} {14,S} {15,S}
5  C u0 p0 c0 {2,S} {16,S} {17,S} {18,S}
6  C u0 p0 c0 {8,S} {19,S} {20,S} {21,S}
7  C u0 p0 c0 {8,S} {22,S} {23,S} {24,S}
8  C u1 p0 c0 {1,S} {6,S} {7,S}
9  H u0 p0 c0 {2,S}
10 H u0 p0 c0 {3,S}
11 H u0 p0 c0 {3,S}
12 H u0 p0 c0 {3,S}
13 H u0 p0 c0 {4,S}
14 H u0 p0 c0 {4,S}
15 H u0 p0 c0 {4,S}
16 H u0 p0 c0 {5,S}
17 H u0 p0 c0 {5,S}
18 H u0 p0 c0 {5,S}
19 H u0 p0 c0 {6,S}
20 H u0 p0 c0 {6,S}
21 H u0 p0 c0 {6,S}
22 H u0 p0 c0 {7,S}
23 H u0 p0 c0 {7,S}
24 H u0 p0 c0 {7,S}
25 H u0 p0 c0 {1,S}


>  <multiplicity>  (3) 
2

>  <reaction>  (3) 
rxn_1911

>  <type>  (3) 
ts

>  <role_mapnums>  (3) 
{"*2": 8, "*1": 2, "*3": 14, "*0": 13, "*4": 3}

>  <role_mapidx>  (3) 
{"*2": 7, "*1": 1, "*3": 13, "*0": 12, "*4": 2}

>  <ordered_mapped_smiles>  (3) 
[C:1]([C:2]([S:3][H:9])[C:4]([H:10])([H:11])[H:12])([H:5])([H:6])[H:7].[H:8][C:14]([C:13]([H:17])([H:18])[H:19])([C:15]([H:20])([H:21])[H:22])[C:16]([H:23])([H:24])[H:25]

>  <mol_properties>  (3) 
{"1": {"label": "*1", "atom_type": "Cs"}, "2": {"label": "*4", "atom_type": "S2s"}, "7": {"label": "*2", "atom_type": "H0"}, "12": {"label": "*0", "atom_type": "Cs"}, "13": {"label": "*3", "atom_type": "Cs"}}

>  <level_of_theory>  (3) 
wb97xd/def2tzvp

>  <lot_method>  (3) 
wb97xd

>  <lot_basis>  (3) 
def2tzvp

>  <spin_multiplicity>  (3) 
2.0

>  <optical_isomers>  (3) 
2.0

>  <modes>  (3) 
IdealGasTranslation(mass=(133.105, 'amu')),         NonlinearRotor(             inertia = ([266.982, 499.258, 542.858

>  <frequency_value>  (3) 
-1678.92

>  <frequency_units>  (3) 
cm^-1

>  <frequency_list>  (3) 
unknown

>  <arkane_path>  (3) 
/home/calvin/Dropbox/PersonalFolders/Calvin/HAb_Converged/rxn_1911/output/rxns/TS0/arkane/output.py

>  <path_exists>  (3) 
True

>  <E0_value>  (3) 
-1772010.0

>  <E0_units>  (3) 
kJ/mol

>  <thermo_class>  (3) 
unknown

>  <Cp0_value>  (3) 
unknown

>  <Cp0_units>  (3) 
unknown

>  <CpInf_value>  (3) 
unknown

>  <CpInf_units>  (3) 
unknown

>  <Tmin_value>  (3) 
unknown

>  <Tmin_units>  (3) 
unknown

>  <Tmax_value>  (3) 
unknown

>  <Tmax_units>  (3) 
unknown

>  <polynomials>  (3) 
unknown

>  <H298_value>  (3) 
unknown

>  <H298_units>  (3) 
unknown

>  <S298_value>  (3) 
unknown

>  <S298_units>  (3) 
unknown

>  <Cp_T_value_list>  (3) 
unknown

>  <Cp_T_units>  (3) 
unknown

>  <T_list>  (3) 
unknown

>  <T_units>  (3) 
unknown

>  <yaml_path>  (3) 
unknown

>  <frequencies_cm1>  (3) 
unknown

>  <ZPE_kJmol>  (3) 
unknown

>  <E_elec_kJmol>  (3) 
unknown

>  <E0_minus_Eelec_plus_ZPE_kJmol>  (3) 
unknown

>  <rxn>  (3) 
unknown

>  <species_type>  (3) 
unknown

>  <species_folder>  (3) 
unknown

>  <frequencies_cm1_list>  (3) 
[]

>  <ts_imag_freq_cm1>  (3) 
-1699.3134

>  <ts_freq_out_path>  (3) 
/home/calvin/Dropbox/PersonalFolders/Calvin/HAb_Converged/rxn_1911/output/rxns/TS0/geometry/freq.out

>  <E0_kJmol>  (3) 
-1.77201e+06

>  <H298_kJmol>  (3) 
unknown

$$$$

     RDKit          3D

 11 10  0  0  0  0  0  0  0  0999 V2000
    1.0781   -1.0166   -0.1159 C   0  0  0  0  0  0  0  0  0  1  0  0
    0.2180    0.1942   -0.2297 C   0  0  0  0  0  3  0  0  0  2  0  0
    0.9343    1.7769   -0.3011 S   0  0  0  0  0  0  0  0  0  3  0  0
   -1.1949    0.1490    0.2439 C   0  0  0  0  0  0  0  0  0  4  0  0
    1.4718   -1.1461    0.9024 H   0  0  0  0  0  0  0  0  0  5  0  0
    1.9367   -0.9751   -0.7902 H   0  0  0  0  0  0  0  0  0  6  0  0
    0.5033   -1.9136   -0.3576 H   0  0  0  0  0  0  0  0  0  7  0  0
    2.1166    1.4195   -0.8209 H   0  0  0  0  0  0  0  0  0  8  0  0
   -1.2620    0.0939    1.3399 H   0  0  0  0  0  0  0  0  0  9  0  0
   -1.7600    1.0270   -0.0739 H   0  0  0  0  0  0  0  0  0 10  0  0
   -1.6972   -0.7380   -0.1506 H   0  0  0  0  0  0  0  0  0 11  0  0
  1  5  1  0
  1  7  1  0
  1  6  1  0
  1  2  1  0
  2  3  1  0
  2  4  1  0
  3  8  1  0
  4  9  1  0
  4 10  1  0
  4 11  1  0
M  RAD  1   2   2
M  END
>  <rmg_smiles>  (4) 
C[C](S)C

>  <rmg_adjacency_list>  (4) 
multiplicity 2
1  S u0 p2 c0 {4,S} {11,S}
2  C u0 p0 c0 {4,S} {5,S} {6,S} {7,S}
3  C u0 p0 c0 {4,S} {8,S} {9,S} {10,S}
4  C u1 p0 c0 {1,S} {2,S} {3,S}
5  H u0 p0 c0 {2,S}
6  H u0 p0 c0 {2,S}
7  H u0 p0 c0 {2,S}
8  H u0 p0 c0 {3,S}
9  H u0 p0 c0 {3,S}
10 H u0 p0 c0 {3,S}
11 H u0 p0 c0 {1,S}


>  <multiplicity>  (4) 
2

>  <reaction>  (4) 
rxn_1911

>  <type>  (4) 
r1

>  <role_mapnums>  (4) 
{}

>  <role_mapidx>  (4) 
{}

>  <ordered_mapped_smiles>  (4) 
[C:1]([C:2]([S:3][H:8])[C:4]([H:9])([H:10])[H:11])([H:5])([H:6])[H:7]

>  <level_of_theory>  (4) 
wb97xd/def2tzvp

>  <lot_method>  (4) 
wb97xd

>  <lot_basis>  (4) 
def2tzvp

>  <spin_multiplicity>  (4) 
2.0

>  <optical_isomers>  (4) 
2.0

>  <modes>  (4) 
IdealGasTranslation(mass=(75.0268, 'amu')),         NonlinearRotor(             inertia = ([61.999, 107.328, 162.226

>  <frequency_value>  (4) 
unknown

>  <frequency_units>  (4) 
unknown

>  <frequency_list>  (4) 
unknown

>  <arkane_path>  (4) 
/home/calvin/Dropbox/PersonalFolders/Calvin/HAb_Converged/rxn_1911/output/Species/rxn_1911_C[C][S]C/arkane/output.py

>  <path_exists>  (4) 
True

>  <E0_value>  (4) 
-1356347.4134395572

>  <E0_units>  (4) 
kJ/mol

>  <thermo_class>  (4) 
NASA

>  <Cp0_value>  (4) 
33.257888

>  <Cp0_units>  (4) 
J/(mol*K)

>  <CpInf_value>  (4) 
257.748632

>  <CpInf_units>  (4) 
J/(mol*K)

>  <Tmin_value>  (4) 
10.0

>  <Tmin_units>  (4) 
K

>  <Tmax_value>  (4) 
3000.0

>  <Tmax_units>  (4) 
K

>  <polynomials>  (4) 
[{"name": "polynomial1", "class": "NASAPolynomial", "Tmin_value": 10.0, "Tmin_units": "K", "Tmax_value": 631.511036458598, "Tmax_units": "K", "coeffs": [3.630144501923197, 0.030233799754007962, -1.5729865197854517e-05, 1.0342555122076897e-08, -6.278675853253594e-12, -163130908.91812575, 11.085422231430835]}, {"name": "polynomial2", "class": "NASAPolynomial", "Tmin_value": 631.511036458598, "Tmin_units": "K", "Tmax_value": 3000.0, "Tmax_units": "K", "coeffs": [2.121241242594707, 0.035971217312262126, -2.0284227742328106e-05, 5.57187370145946e-09, -5.981486451043817e-13, -163130642.16838282, 18.274548777693933]}]

>  <H298_value>  (4) 
-324170.22635589016

>  <H298_units>  (4) 
kcal/mol

>  <S298_value>  (4) 
79.79982372204114

>  <S298_units>  (4) 
cal/(mol*K)

>  <Cp_T_value_list>  (4) 
[22.878685143927463, 27.24077654618155, 31.22891087325513, 34.831653006690544, 40.78563883173169, 45.27245080713911, 52.09561404746616, 55.50541234106847, 57.22251846881106]

>  <Cp_T_units>  (4) 
cal/(mol*K)

>  <T_list>  (4) 
[300.0, 400.0, 500.0, 600.0, 800.0, 1000.0, 1500.0, 2000.0, 2400.0]

>  <T_units>  (4) 
K

>  <yaml_path>  (4) 
/home/calvin/Dropbox/PersonalFolders/Calvin/HAb_Converged/rxn_1911/output/Species/rxn_1911_C[C][S]C/rxn_1911_CCSC.yml

>  <frequencies_cm1>  (4) 
[136.00751124791998, 145.49081797484, 227.77790306439996, 252.01836124399998, 317.69420884448, 349.40594705224, 628.3497577359599, 911.91504954004, 945.1100565769199, 959.9015429561998, 985.2063838604, 1047.7989550522, 1210.77998463708, 1266.96565852532, 1390.69500002108, 1406.7156767726399, 1455.1279232786399, 1462.5374004389198, 1466.95287199968, 1477.52802939248, 2689.0427814587997, 2949.1641853804, 2953.29124355772, 3034.22553253924, 3035.0633047482797, 3077.07552093604, 3083.7982995643197]

>  <ZPE_kJmol>  (4) 
232.4682179533116

>  <E_elec_kJmol>  (4) 
-1356579.8816575103

>  <E0_minus_Eelec_plus_ZPE_kJmol>  (4) 
0.0

>  <rxn>  (4) 
rxn_1911

>  <species_type>  (4) 
p1

>  <species_folder>  (4) 
rxn_1911_C[C][S]C

>  <frequencies_cm1_list>  (4) 
[136.00751124791998, 145.49081797484, 227.77790306439996, 252.01836124399998, 317.69420884448, 349.40594705224, 628.3497577359599, 911.91504954004, 945.1100565769199, 959.9015429561998, 985.2063838604, 1047.7989550522, 1210.77998463708, 1266.96565852532, 1390.69500002108, 1406.7156767726399, 1455.1279232786399, 1462.5374004389198, 1466.95287199968, 1477.52802939248, 2689.0427814587997, 2949.1641853804, 2953.29124355772, 3034.22553253924, 3035.0633047482797, 3077.07552093604, 3083.7982995643197]

>  <E0_kJmol>  (4) 
-1.35635e+06

>  <H298_kJmol>  (4) 
-1.35633e+06

$$$$

     RDKit          3D

 13 12  0  0  0  0  0  0  0  0999 V2000
   -1.3649   -0.5967   -0.3477 C   0  0  0  0  0  0  0  0  0  1  0  0
   -0.1601   -0.2776    0.4669 C   0  0  0  0  0  3  0  0  0  2  0  0
    1.1241   -0.9571    0.1414 C   0  0  0  0  0  0  0  0  0  3  0  0
   -0.1188    1.0130    1.2081 C   0  0  0  0  0  0  0  0  0  4  0  0
   -1.4266   -1.6632   -0.5770 H   0  0  0  0  0  0  0  0  0  5  0  0
   -2.2858   -0.3004    0.1602 H   0  0  0  0  0  0  0  0  0  6  0  0
   -1.3532   -0.0668   -1.3138 H   0  0  0  0  0  0  0  0  0  7  0  0
    1.6174   -0.4963   -0.7297 H   0  0  0  0  0  0  0  0  0  8  0  0
    0.9723   -2.0104   -0.1064 H   0  0  0  0  0  0  0  0  0  9  0  0
    1.8338   -0.8977    0.9701 H   0  0  0  0  0  0  0  0  0 10  0  0
   -1.0852    1.2507    1.6593 H   0  0  0  0  0  0  0  0  0 11  0  0
    0.6358    1.0009    1.9983 H   0  0  0  0  0  0  0  0  0 12  0  0
    0.1343    1.8546    0.5434 H   0  0  0  0  0  0  0  0  0 13  0  0
  1  5  1  0
  1  7  1  0
  1  6  1  0
  1  2  1  0
  2  3  1  0
  2  4  1  0
  3  9  1  0
  3 10  1  0
  3  8  1  0
  4 13  1  0
  4 12  1  0
  4 11  1  0
M  RAD  1   2   2
M  END
>  <rmg_smiles>  (5) 
C[C](C)C

>  <rmg_adjacency_list>  (5) 
multiplicity 2
1  C u0 p0 c0 {4,S} {5,S} {6,S} {7,S}
2  C u0 p0 c0 {4,S} {8,S} {9,S} {10,S}
3  C u0 p0 c0 {4,S} {11,S} {12,S} {13,S}
4  C u1 p0 c0 {1,S} {2,S} {3,S}
5  H u0 p0 c0 {1,S}
6  H u0 p0 c0 {1,S}
7  H u0 p0 c0 {1,S}
8  H u0 p0 c0 {2,S}
9  H u0 p0 c0 {2,S}
10 H u0 p0 c0 {2,S}
11 H u0 p0 c0 {3,S}
12 H u0 p0 c0 {3,S}
13 H u0 p0 c0 {3,S}


>  <multiplicity>  (5) 
2

>  <reaction>  (5) 
rxn_1911

>  <type>  (5) 
r2

>  <role_mapnums>  (5) 
{}

>  <role_mapidx>  (5) 
{}

>  <ordered_mapped_smiles>  (5) 
[C:1]([C:2]([C:3]([H:8])([H:9])[H:10])[C:4]([H:11])([H:12])[H:13])([H:5])([H:6])[H:7]

>  <level_of_theory>  (5) 
wb97xd/def2tzvp

>  <lot_method>  (5) 
wb97xd

>  <lot_basis>  (5) 
def2tzvp

>  <spin_multiplicity>  (5) 
2.0

>  <optical_isomers>  (5) 
1.0

>  <modes>  (5) 
IdealGasTranslation(mass=(57.0704, 'amu')),         NonlinearRotor(             inertia = ([62.7477, 62.7516, 115.628

>  <frequency_value>  (5) 
unknown

>  <frequency_units>  (5) 
unknown

>  <frequency_list>  (5) 
unknown

>  <arkane_path>  (5) 
/home/calvin/Dropbox/PersonalFolders/Calvin/HAb_Converged/rxn_1911/output/Species/rxn_1911_C[C][C]C/arkane/output.py

>  <path_exists>  (5) 
True

>  <E0_value>  (5) 
-414011.75964796566

>  <E0_units>  (5) 
kJ/mol

>  <thermo_class>  (5) 
NASA

>  <Cp0_value>  (5) 
33.257888

>  <Cp0_units>  (5) 
J/(mol*K)

>  <CpInf_value>  (5) 
307.635464

>  <CpInf_units>  (5) 
J/(mol*K)

>  <Tmin_value>  (5) 
10.0

>  <Tmin_units>  (5) 
K

>  <Tmax_value>  (5) 
3000.0

>  <Tmax_units>  (5) 
K

>  <polynomials>  (5) 
[{"name": "polynomial1", "class": "NASAPolynomial", "Tmin_value": 10.0, "Tmin_units": "K", "Tmax_value": 466.09811165390425, "Tmax_units": "K", "coeffs": [3.6355349320070043, 0.03664246422925873, -8.04740303788075e-05, 2.0691926855075678e-07, -1.7306454637619437e-10, -49794112.62283956, 8.363337495574008]}, {"name": "polynomial2", "class": "NASAPolynomial", "Tmin_value": 466.09811165390425, "Tmin_units": "K", "Tmax_value": 3000.0, "Tmax_units": "K", "coeffs": [-0.5046960841462012, 0.045839087145225346, -2.5321252337047488e-05, 6.815206375694476e-09, -7.17606804309421e-13, -49793440.6184399, 28.245674608415708]}]

>  <H298_value>  (5) 
-98946.55985128156

>  <H298_units>  (5) 
kcal/mol

>  <S298_value>  (5) 
75.32633176471305

>  <S298_units>  (5) 
cal/(mol*K)

>  <Cp_T_value_list>  (5) 
[22.993189210033464, 28.276073704701346, 33.56706707811245, 38.27794540892343, 46.01660039268914, 51.88742888541347, 60.90699285386205, 65.4355523948586, 67.6914889009396]

>  <Cp_T_units>  (5) 
cal/(mol*K)

>  <T_list>  (5) 
[300.0, 400.0, 500.0, 600.0, 800.0, 1000.0, 1500.0, 2000.0, 2400.0]

>  <T_units>  (5) 
K

>  <yaml_path>  (5) 
/home/calvin/Dropbox/PersonalFolders/Calvin/HAb_Converged/rxn_1911/output/Species/rxn_1911_C[C][C]C/rxn_1911_CCCC.yml

>  <frequencies_cm1>  (5) 
[127.67785805475998, 132.20320138064, 133.71393815104, 257.4776145734, 382.77949570743993, 383.17778085599997, 764.0894565563999, 931.0190027002799, 931.3280170396799, 964.27581260504, 1004.44767672704, 1004.7154891545199, 1088.22489763104, 1293.76063524396, 1293.83617208248, 1387.45378295004, 1387.58425567112, 1410.79466605272, 1453.7201912880398, 1456.5699901958399, 1456.9957432856797, 1475.83188401844, 1478.2627968217198, 1478.3589346161998, 2924.14775785964, 2924.35376741924, 2931.9280522272, 3026.77485346704, 3027.0083309679203, 3028.12078258976, 3072.4815077569597, 3076.3544874774398, 3076.67036880216]

>  <ZPE_kJmol>  (5) 
303.6490313926852

>  <E_elec_kJmol>  (5) 
-414315.4086793584

>  <E0_minus_Eelec_plus_ZPE_kJmol>  (5) 
0.0

>  <rxn>  (5) 
rxn_1911

>  <species_type>  (5) 
r1

>  <species_folder>  (5) 
rxn_1911_C[C][C]C

>  <frequencies_cm1_list>  (5) 
[127.67785805475998, 132.20320138064, 133.71393815104, 257.4776145734, 382.77949570743993, 383.17778085599997, 764.0894565563999, 931.0190027002799, 931.3280170396799, 964.27581260504, 1004.44767672704, 1004.7154891545199, 1088.22489763104, 1293.76063524396, 1293.83617208248, 1387.45378295004, 1387.58425567112, 1410.79466605272, 1453.7201912880398, 1456.5699901958399, 1456.9957432856797, 1475.83188401844, 1478.2627968217198, 1478.3589346161998, 2924.14775785964, 2924.35376741924, 2931.9280522272, 3026.77485346704, 3027.0083309679203, 3028.12078258976, 3072.4815077569597, 3076.3544874774398, 3076.67036880216]

>  <E0_kJmol>  (5) 
-414012

>  <H298_kJmol>  (5) 
-413992

$$$$
