
     RDKit          3D

 12 11  0  0  0  0  0  0  0  0999 V2000
    0.5157   -0.6776   -2.2915 C   0  0  0  0  0  2  0  0  0  1  0  0
    0.3544   -0.2298   -1.1893 C   0  0  0  0  0  2  0  0  0  2  0  0
    0.2591    0.3438    0.1171 C   0  0  0  0  0  0  0  0  0  3  0  0
   -0.0440    1.8298    0.1793 C   0  0  0  0  0  0  0  0  0  4  0  0
   -0.3379   -0.4739    1.1255 C   0  0  0  0  0  2  0  0  0  5  0  0
   -0.8018   -1.1392    2.0117 C   0  0  0  0  0  2  0  0  0  6  0  0
    0.6290   -1.0781   -3.2704 H   0  0  0  0  0  0  0  0  0  7  0  0
    1.3142    0.3495    0.3908 H   0  0  0  0  0  0  0  0  0  8  0  0
   -1.0629    2.0228   -0.1622 H   0  0  0  0  0  0  0  0  0  9  0  0
    0.6476    2.3787   -0.4594 H   0  0  0  0  0  0  0  0  0 10  0  0
    0.0544    2.1893    1.2026 H   0  0  0  0  0  0  0  0  0 11  0  0
   -1.2298   -1.7330    2.7834 H   0  0  0  0  0  0  0  0  0 12  0  0
  1  7  1  0
  1  2  1  0
  2  3  1  0
  3  4  1  0
  3  5  1  0
  3  8  1  0
  4  9  1  0
  4 10  1  0
  4 11  1  0
  5  6  1  0
  6 12  1  0
M  RAD  4   1   3   2   3   5   3   6   3
M  END
>  <rmg_smiles>  (1) 
[CH][C]C(C)[C][CH]

>  <rmg_adjacency_list>  (1) 
1  C u0 p0 c0 {2,S} {3,S} {4,S} {7,S}
2  C u0 p0 c0 {1,S} {8,S} {9,S} {10,S}
3  C u0 p1 c0 {1,S} {5,S}
4  C u0 p1 c0 {1,S} {6,S}
5  C u0 p1 c0 {3,S} {11,S}
6  C u0 p1 c0 {4,S} {12,S}
7  H u0 p0 c0 {1,S}
8  H u0 p0 c0 {2,S}
9  H u0 p0 c0 {2,S}
10 H u0 p0 c0 {2,S}
11 H u0 p0 c0 {5,S}
12 H u0 p0 c0 {6,S}


>  <multiplicity>  (1) 
1

>  <reaction>  (1) 
rxn_1416

>  <type>  (1) 
r1h

>  <role_mapnums>  (1) 
{"r1h_a": 3, "r1h_h": 8}

>  <role_mapidx>  (1) 
{"r1h_a": 2, "r1h_h": 7}

>  <ordered_mapped_smiles>  (1) 
[C:1]([C:2][C:3]([C:4]([H:9])([H:10])[H:11])([C:5][C:6][H:12])[H:8])[H:7]

>  <mol_properties>  (1) 
{"2": {"label": "donator", "atom_type": "Cs"}, "7": {"label": "d_hydrogen", "atom_type": "H0"}}

>  <level_of_theory>  (1) 
wb97xd/def2tzvp

>  <lot_method>  (1) 
wb97xd

>  <lot_basis>  (1) 
def2tzvp

>  <spin_multiplicity>  (1) 
1.0

>  <optical_isomers>  (1) 
1.0

>  <modes>  (1) 
IdealGasTranslation(mass=(78.0469, 'amu')),         NonlinearRotor(             inertia = ([91.5038, 182.303, 256.884

>  <frequency_value>  (1) 
unknown

>  <frequency_units>  (1) 
unknown

>  <frequency_list>  (1) 
unknown

>  <arkane_path>  (1) 
/home/calvin/Dropbox/PersonalFolders/Calvin/HAb_Converged/rxn_1416/output/Species/rxn_1416_CtCC[C]CtC/arkane/output.py

>  <path_exists>  (1) 
True

>  <E0_value>  (1) 
-609140.5146388354

>  <E0_units>  (1) 
kJ/mol

>  <thermo_class>  (1) 
NASA

>  <Cp0_value>  (1) 
33.257888

>  <Cp0_units>  (1) 
J/(mol*K)

>  <CpInf_value>  (1) 
282.692048

>  <CpInf_units>  (1) 
J/(mol*K)

>  <Tmin_value>  (1) 
10.0

>  <Tmin_units>  (1) 
K

>  <Tmax_value>  (1) 
3000.0

>  <Tmax_units>  (1) 
K

>  <polynomials>  (1) 
[{"name": "polynomial1", "class": "NASAPolynomial", "Tmin_value": 10.0, "Tmin_units": "K", "Tmax_value": 428.30381772817856, "Tmax_units": "K", "coeffs": [3.843414737485958, 0.011059899510253308, 0.00017313206294384585, -4.5066861494576427e-07, 3.5431673194866504e-10, -73262680.70719364, 10.351537126465276]}, {"name": "polynomial2", "class": "NASAPolynomial", "Tmin_value": 428.30381772817856, "Tmin_units": "K", "Tmax_value": 3000.0, "Tmax_units": "K", "coeffs": [3.71225639608142, 0.03988512935119699, -2.4480757543004908e-05, 7.3774227474566334e-09, -8.647202101499329e-13, -73262922.62795044, 7.917757545343436]}]

>  <H298_value>  (1) 
-145583.22326588043

>  <H298_units>  (1) 
kcal/mol

>  <S298_value>  (1) 
79.39725011907349

>  <S298_units>  (1) 
cal/(mol*K)

>  <Cp_T_value_list>  (1) 
[26.71835542334415, 32.185236842440695, 36.57009328220792, 40.36357580076537, 46.452394866783735, 50.93077266482023, 57.588055372365, 61.09337215118473, 63.041253155202796]

>  <Cp_T_units>  (1) 
cal/(mol*K)

>  <T_list>  (1) 
[300.0, 400.0, 500.0, 600.0, 800.0, 1000.0, 1500.0, 2000.0, 2400.0]

>  <T_units>  (1) 
K

>  <yaml_path>  (1) 
/home/calvin/Dropbox/PersonalFolders/Calvin/HAb_Converged/rxn_1416/output/Species/rxn_1416_CtCC[C]CtC/rxn_1416_CtCCCCtC.yml

>  <frequencies_cm1>  (1) 
[133.58346542996, 199.16317523595998, 209.69026373152, 240.0698067872, 354.65919082204, 475.7310089989599, 567.46019890352, 568.12629647956, 689.5414639224799, 690.09082274808, 696.1063018883999, 699.3337849888, 789.86125246236, 930.3735060801998, 1032.6572524215999, 1082.42916202096, 1134.52211265848, 1298.31344651112, 1322.5745056466799, 1399.4092043921598, 1478.5306092491999, 1484.3400788299198, 2226.8946694228, 2231.41314576336, 3015.0597765111197, 3031.95942738364, 3117.4327936616796, 3119.7813026411195, 3437.7021220011598, 3438.6085640633996]

>  <ZPE_kJmol>  (1) 
245.805260802598

>  <E_elec_kJmol>  (1) 
-609386.3198996381

>  <E0_minus_Eelec_plus_ZPE_kJmol>  (1) 
0.0

>  <rxn>  (1) 
rxn_1416

>  <species_type>  (1) 
r0

>  <species_folder>  (1) 
rxn_1416_CtCC[C]CtC

>  <frequencies_cm1_list>  (1) 
[133.58346542996, 199.16317523595998, 209.69026373152, 240.0698067872, 354.65919082204, 475.7310089989599, 567.46019890352, 568.12629647956, 689.5414639224799, 690.09082274808, 696.1063018883999, 699.3337849888, 789.86125246236, 930.3735060801998, 1032.6572524215999, 1082.42916202096, 1134.52211265848, 1298.31344651112, 1322.5745056466799, 1399.4092043921598, 1478.5306092491999, 1484.3400788299198, 2226.8946694228, 2231.41314576336, 3015.0597765111197, 3031.95942738364, 3117.4327936616796, 3119.7813026411195, 3437.7021220011598, 3438.6085640633996]

>  <E0_kJmol>  (1) 
-609141

>  <H298_kJmol>  (1) 
-609120

$$$$

     RDKit          3D

 13 12  0  0  0  0  0  0  0  0999 V2000
   -1.5062   -0.7414   -0.0261 H   0  0  0  0  0  0  0  0  0  1  0  0
    0.5563    1.5103   -0.8045 S   0  0  0  0  0  0  0  0  0  2  0  0
    0.1814   -0.0769   -0.7360 C   0  0  0  0  0  0  0  0  0  3  0  0
   -0.4806   -0.7788    0.3410 C   0  0  0  0  0  0  0  0  0  4  0  0
   -0.2641   -2.2766    0.3804 C   0  0  0  0  0  0  0  0  0  5  0  0
   -0.6003   -0.1137    1.6885 C   0  0  0  0  0  0  0  0  0  6  0  0
    0.4010   -0.6988   -1.6046 H   0  0  0  0  0  0  0  0  0  7  0  0
    0.7049   -2.5073    0.8312 H   0  0  0  0  0  0  0  0  0  8  0  0
   -1.0366   -2.7597    0.9808 H   0  0  0  0  0  0  0  0  0  9  0  0
   -0.2886   -2.7085   -0.6212 H   0  0  0  0  0  0  0  0  0 10  0  0
   -1.3825   -0.5947    2.2786 H   0  0  0  0  0  0  0  0  0 11  0  0
   -0.8201    0.9481    1.5900 H   0  0  0  0  0  0  0  0  0 12  0  0
    0.3420   -0.2072    2.2355 H   0  0  0  0  0  0  0  0  0 13  0  0
  1  4  1  0
  2  3  1  0
  3  4  1  0
  3  7  1  0
  4  5  1  0
  4  6  1  0
  5  8  1  0
  5  9  1  0
  5 10  1  0
  6 13  1  0
  6 11  1  0
  6 12  1  0
M  END
>  <rmg_smiles>  (2) 
[S][CH]C(C)C

>  <rmg_adjacency_list>  (2) 
1  S u0 p2 c0 {5,S}
2  C u0 p0 c0 {3,S} {4,S} {5,S} {6,S}
3  C u0 p0 c0 {2,S} {7,S} {8,S} {9,S}
4  C u0 p0 c0 {2,S} {10,S} {11,S} {12,S}
5  C u0 p0 c0 {1,S} {2,S} {13,S}
6  H u0 p0 c0 {2,S}
7  H u0 p0 c0 {3,S}
8  H u0 p0 c0 {3,S}
9  H u0 p0 c0 {3,S}
10 H u0 p0 c0 {4,S}
11 H u0 p0 c0 {4,S}
12 H u0 p0 c0 {4,S}
13 H u0 p0 c0 {5,S}


>  <multiplicity>  (2) 
1

>  <reaction>  (2) 
rxn_1416

>  <type>  (2) 
r2h

>  <role_mapnums>  (2) 
{"r2h_a": 4, "r2h_h": 1}

>  <role_mapidx>  (2) 
{"r2h_a": 3, "r2h_h": 0}

>  <ordered_mapped_smiles>  (2) 
[H:1][C:4]([CH:3]([SH:2])[H:7])([C:5]([H:8])([H:9])[H:10])[C:6]([H:11])([H:12])[H:13]

>  <mol_properties>  (2) 
{"0": {"label": "a_hydrogen", "atom_type": "H0"}, "3": {"label": "acceptor", "atom_type": "Cs"}}

>  <level_of_theory>  (2) 
wb97xd/def2tzvp

>  <lot_method>  (2) 
wb97xd

>  <lot_basis>  (2) 
def2tzvp

>  <spin_multiplicity>  (2) 
1.0

>  <optical_isomers>  (2) 
2.0

>  <modes>  (2) 
IdealGasTranslation(mass=(88.0347, 'amu')),         NonlinearRotor(             inertia = ([69.6476, 205.177, 249.287

>  <frequency_value>  (2) 
unknown

>  <frequency_units>  (2) 
unknown

>  <frequency_list>  (2) 
unknown

>  <arkane_path>  (2) 
/home/calvin/Dropbox/PersonalFolders/Calvin/HAb_Converged/rxn_1416/output/Species/rxn_1416_S=CC[C]C/arkane/output.py

>  <path_exists>  (2) 
True

>  <E0_value>  (2) 
-1457998.5982336933

>  <E0_units>  (2) 
kJ/mol

>  <thermo_class>  (2) 
NASA

>  <Cp0_value>  (2) 
33.257888

>  <Cp0_units>  (2) 
J/(mol*K)

>  <CpInf_value>  (2) 
307.635464

>  <CpInf_units>  (2) 
J/(mol*K)

>  <Tmin_value>  (2) 
10.0

>  <Tmin_units>  (2) 
K

>  <Tmax_value>  (2) 
3000.0

>  <Tmax_units>  (2) 
K

>  <polynomials>  (2) 
[{"name": "polynomial1", "class": "NASAPolynomial", "Tmin_value": 10.0, "Tmin_units": "K", "Tmax_value": 850.5751909331584, "Tmax_units": "K", "coeffs": [3.763703885514242, 0.02277852482010402, 3.2299053490720314e-05, -5.360226294448367e-08, 2.1690872236821852e-11, -175356726.547155, 11.190919245660643]}, {"name": "polynomial2", "class": "NASAPolynomial", "Tmin_value": 850.5751909331584, "Tmin_units": "K", "Tmax_value": 3000.0, "Tmax_units": "K", "coeffs": [2.0035214740016922, 0.042738418303872316, -2.3502321935412024e-05, 6.281315111825424e-09, -6.560549792225942e-13, -175356849.7075047, 16.913744501828855]}]

>  <H298_value>  (2) 
-348465.4118362776

>  <H298_units>  (2) 
kcal/mol

>  <S298_value>  (2) 
80.33314738703915

>  <S298_units>  (2) 
cal/(mol*K)

>  <Cp_T_value_list>  (2) 
[24.30872432409684, 30.14135974077647, 35.53746487056036, 40.323452938173666, 47.88798169363404, 53.386060159439076, 61.820175444511975, 66.0243628186096, 68.0994235508572]

>  <Cp_T_units>  (2) 
cal/(mol*K)

>  <T_list>  (2) 
[300.0, 400.0, 500.0, 600.0, 800.0, 1000.0, 1500.0, 2000.0, 2400.0]

>  <T_units>  (2) 
K

>  <yaml_path>  (2) 
/home/calvin/Dropbox/PersonalFolders/Calvin/HAb_Converged/rxn_1416/output/Species/rxn_1416_S=CC[C]C/rxn_1416_S=CCCC.yml

>  <frequencies_cm1>  (2) 
[81.46304685115999, 222.10577319008, 235.83974383007998, 264.91455967495995, 354.02742817259997, 403.35985071147996, 541.5304623352, 773.7375709309999, 866.2358631914, 917.52537654648, 938.1331994918, 970.7857146884, 1070.15785925412, 1116.20099582472, 1141.9384568040798, 1213.79459119256, 1287.09965948356, 1347.93428243344, 1376.37046864356, 1392.88556833816, 1420.9509373409999, 1469.66533120108, 1474.71256541128, 1487.9727140641999, 1494.5100840888397, 2973.6037861342797, 3014.7782301129996, 3022.28384506776, 3048.6668026672, 3090.6240829723997, 3094.4352598250002, 3098.5897859436, 3105.48423920488]

>  <ZPE_kJmol>  (2) 
288.97191783414803

>  <E_elec_kJmol>  (2) 
-1458287.5701515274

>  <E0_minus_Eelec_plus_ZPE_kJmol>  (2) 
0.0

>  <rxn>  (2) 
rxn_1416

>  <species_type>  (2) 
p0

>  <species_folder>  (2) 
rxn_1416_S=CC[C]C

>  <frequencies_cm1_list>  (2) 
[81.46304685115999, 222.10577319008, 235.83974383007998, 264.91455967495995, 354.02742817259997, 403.35985071147996, 541.5304623352, 773.7375709309999, 866.2358631914, 917.52537654648, 938.1331994918, 970.7857146884, 1070.15785925412, 1116.20099582472, 1141.9384568040798, 1213.79459119256, 1287.09965948356, 1347.93428243344, 1376.37046864356, 1392.88556833816, 1420.9509373409999, 1469.66533120108, 1474.71256541128, 1487.9727140641999, 1494.5100840888397, 2973.6037861342797, 3014.7782301129996, 3022.28384506776, 3048.6668026672, 3090.6240829723997, 3094.4352598250002, 3098.5897859436, 3105.48423920488]

>  <E0_kJmol>  (2) 
-1.458e+06

>  <H298_kJmol>  (2) 
-1.45798e+06

$$$$

     RDKit          3D

 24 22  0  0  0  0  0  0  0  0999 V2000
   -1.4036   -1.0040   -2.4174 C   0  0  0  0  0  0  0  0  0  1  0  0
   -1.5650   -0.5562   -1.3152 C   0  0  0  0  0  0  0  0  0  2  0  0
   -1.6602    0.0175   -0.0088 C   0  0  0  0  0  3  0  0  0  3  0  0
   -1.9633    1.5034    0.0534 C   0  0  0  0  0  0  0  0  0  4  0  0
   -2.2572   -0.8003    0.9996 C   0  0  0  0  0  0  0  0  0  5  0  0
   -2.7211   -1.4656    1.8858 C   0  0  0  0  0  0  0  0  0  6  0  0
   -1.2903   -1.4045   -3.3963 H   0  0  0  0  0  0  0  0  0  7  0  0
   -0.3086    0.0247    0.3419 H   0  0  0  0  0  0  0  0  0  8  0  0
   -2.9822    1.6964   -0.2881 H   0  0  0  0  0  0  0  0  0  9  0  0
   -1.2717    2.0523   -0.5853 H   0  0  0  0  0  0  0  0  0 10  0  0
   -1.8649    1.8630    1.0767 H   0  0  0  0  0  0  0  0  0 11  0  0
   -3.1492   -2.0594    2.6575 H   0  0  0  0  0  0  0  0  0 12  0  0
    1.9602    2.2688   -0.3627 S   0  0  0  0  0  0  0  0  0 13  0  0
    1.5853    0.6817   -0.2942 C   0  0  0  0  0  0  0  0  0 14  0  0
    0.9234   -0.0202    0.7829 C   0  0  0  0  0  0  0  0  0 15  0  0
    1.1398   -1.5180    0.8222 C   0  0  0  0  0  0  0  0  0 16  0  0
    0.8037    0.6449    2.1304 C   0  0  0  0  0  0  0  0  0 17  0  0
    1.8050    0.0598   -1.1627 H   0  0  0  0  0  0  0  0  0 18  0  0
    2.1089   -1.7487    1.2730 H   0  0  0  0  0  0  0  0  0 19  0  0
    0.3673   -2.0011    1.4227 H   0  0  0  0  0  0  0  0  0 20  0  0
    1.1154   -1.9499   -0.1793 H   0  0  0  0  0  0  0  0  0 21  0  0
    0.0214    0.1639    2.7204 H   0  0  0  0  0  0  0  0  0 22  0  0
    0.5839    1.7067    2.0318 H   0  0  0  0  0  0  0  0  0 23  0  0
    1.7459    0.5514    2.6774 H   0  0  0  0  0  0  0  0  0 24  0  0
  1  7  1  0
  1  2  1  0
  2  3  1  0
  3  4  1  0
  3  5  1  0
  4 10  1  0
  4 11  1  0
  4  9  1  0
  5  6  1  0
  6 12  1  0
  8 15  1  0
 13 14  1  0
 14 15  1  0
 14 18  1  0
 15 16  1  0
 15 17  1  0
 16 21  1  0
 16 19  1  0
 16 20  1  0
 17 23  1  0
 17 24  1  0
 17 22  1  0
M  RAD  1   3   2
M  END
>  <rmg_smiles>  (3) 
[CH][C][C]([C][CH])C.[S][CH]C(C)C

>  <rmg_adjacency_list>  (3) 
multiplicity 2
1  S u0 p2 c0 {7,S}
2  C u0 p0 c0 {3,S} {4,S} {7,S} {12,S}
3  C u0 p0 c0 {2,S} {13,S} {14,S} {15,S}
4  C u0 p0 c0 {2,S} {16,S} {17,S} {18,S}
5  C u0 p0 c0 {6,S} {19,S} {20,S} {21,S}
6  C u1 p0 c0 {5,S} {8,S} {9,S}
7  C u0 p0 c0 {1,S} {2,S} {22,S}
8  C u0 p1 c0 {6,S} {10,S}
9  C u0 p1 c0 {6,S} {11,S}
10 C u0 p1 c0 {8,S} {23,S}
11 C u0 p1 c0 {9,S} {24,S}
12 H u0 p0 c0 {2,S}
13 H u0 p0 c0 {3,S}
14 H u0 p0 c0 {3,S}
15 H u0 p0 c0 {3,S}
16 H u0 p0 c0 {4,S}
17 H u0 p0 c0 {4,S}
18 H u0 p0 c0 {4,S}
19 H u0 p0 c0 {5,S}
20 H u0 p0 c0 {5,S}
21 H u0 p0 c0 {5,S}
22 H u0 p0 c0 {7,S}
23 H u0 p0 c0 {10,S}
24 H u0 p0 c0 {11,S}


>  <multiplicity>  (3) 
2

>  <reaction>  (3) 
rxn_1416

>  <type>  (3) 
ts

>  <role_mapnums>  (3) 
{"*2": 8, "*1": 3, "*3": 15, "*0": 14, "*4": 2}

>  <role_mapidx>  (3) 
{"*2": 7, "*1": 2, "*3": 14, "*0": 13, "*4": 1}

>  <ordered_mapped_smiles>  (3) 
[CH2:1]([CH2:2][C:3]([C:4]([H:9])([H:10])[H:11])[CH2:5][CH2:6][H:12])[H:7].[H:8][C:15]([CH:14]([SH:13])[H:18])([C:16]([H:19])([H:20])[H:21])[C:17]([H:22])([H:23])[H:24]

>  <mol_properties>  (3) 
{"1": {"label": "*4", "atom_type": "C2s"}, "2": {"label": "*1", "atom_type": "Cs"}, "7": {"label": "*2", "atom_type": "H0"}, "13": {"label": "*0", "atom_type": "Cs"}, "14": {"label": "*3", "atom_type": "Cs"}}

>  <level_of_theory>  (3) 
wb97xd/def2tzvp

>  <lot_method>  (3) 
wb97xd

>  <lot_basis>  (3) 
def2tzvp

>  <spin_multiplicity>  (3) 
2.0

>  <optical_isomers>  (3) 
2.0

>  <modes>  (3) 
IdealGasTranslation(mass=(165.074, 'amu')),         NonlinearRotor(             inertia = ([435.296, 795.271, 896.332

>  <frequency_value>  (3) 
-1716.74

>  <frequency_units>  (3) 
cm^-1

>  <frequency_list>  (3) 
unknown

>  <arkane_path>  (3) 
/home/calvin/Dropbox/PersonalFolders/Calvin/HAb_Converged/rxn_1416/output/rxns/TS0/arkane/output.py

>  <path_exists>  (3) 
True

>  <E0_value>  (3) 
-2065460.0

>  <E0_units>  (3) 
kJ/mol

>  <thermo_class>  (3) 
unknown

>  <Cp0_value>  (3) 
unknown

>  <Cp0_units>  (3) 
unknown

>  <CpInf_value>  (3) 
unknown

>  <CpInf_units>  (3) 
unknown

>  <Tmin_value>  (3) 
unknown

>  <Tmin_units>  (3) 
unknown

>  <Tmax_value>  (3) 
unknown

>  <Tmax_units>  (3) 
unknown

>  <polynomials>  (3) 
unknown

>  <H298_value>  (3) 
unknown

>  <H298_units>  (3) 
unknown

>  <S298_value>  (3) 
unknown

>  <S298_units>  (3) 
unknown

>  <Cp_T_value_list>  (3) 
unknown

>  <Cp_T_units>  (3) 
unknown

>  <T_list>  (3) 
unknown

>  <T_units>  (3) 
unknown

>  <yaml_path>  (3) 
unknown

>  <frequencies_cm1>  (3) 
unknown

>  <ZPE_kJmol>  (3) 
unknown

>  <E_elec_kJmol>  (3) 
unknown

>  <E0_minus_Eelec_plus_ZPE_kJmol>  (3) 
unknown

>  <rxn>  (3) 
unknown

>  <species_type>  (3) 
unknown

>  <species_folder>  (3) 
unknown

>  <frequencies_cm1_list>  (3) 
[]

>  <ts_imag_freq_cm1>  (3) 
-1737.5871

>  <ts_freq_out_path>  (3) 
/home/calvin/Dropbox/PersonalFolders/Calvin/HAb_Converged/rxn_1416/output/rxns/TS0/geometry/freq.out

>  <E0_kJmol>  (3) 
-2.06546e+06

>  <H298_kJmol>  (3) 
unknown

$$$$

     RDKit          3D

 11 10  0  0  0  0  0  0  0  0999 V2000
   -0.9580    1.1013   -2.2955 C   0  0  0  0  0  0  0  0  0  1  0  0
   -0.5129    0.5941   -1.2929 C   0  0  0  0  0  0  0  0  0  2  0  0
   -0.0301   -0.0160   -0.1357 C   0  0  0  0  0  3  0  0  0  3  0  0
   -0.6593   -1.2845    0.3661 C   0  0  0  0  0  0  0  0  0  4  0  0
    1.0691    0.5292    0.5269 C   0  0  0  0  0  0  0  0  0  5  0  0
    2.0168    0.9794    1.1266 C   0  0  0  0  0  0  0  0  0  6  0  0
   -1.3415    1.5561   -3.1769 H   0  0  0  0  0  0  0  0  0  7  0  0
   -1.7166   -1.3186    0.1054 H   0  0  0  0  0  0  0  0  0  8  0  0
   -0.1742   -2.1550   -0.0865 H   0  0  0  0  0  0  0  0  0  9  0  0
   -0.5505   -1.3663    1.4470 H   0  0  0  0  0  0  0  0  0 10  0  0
    2.8514    1.3842    1.6465 H   0  0  0  0  0  0  0  0  0 11  0  0
  1  7  1  0
  1  2  1  0
  2  3  1  0
  3  4  1  0
  3  5  1  0
  4  8  1  0
  4  9  1  0
  4 10  1  0
  5  6  1  0
  6 11  1  0
M  RAD  1   3   2
M  END
>  <rmg_smiles>  (4) 
[CH]C[C](C)C[CH]

>  <rmg_adjacency_list>  (4) 
multiplicity 2
1  C u0 p0 c0 {2,S} {7,S} {8,S} {9,S}
2  C u1 p0 c0 {1,S} {3,S} {4,S}
3  C u0 p1 c0 {2,S} {5,S}
4  C u0 p1 c0 {2,S} {6,S}
5  C u0 p1 c0 {3,S} {10,S}
6  C u0 p1 c0 {4,S} {11,S}
7  H u0 p0 c0 {1,S}
8  H u0 p0 c0 {1,S}
9  H u0 p0 c0 {1,S}
10 H u0 p0 c0 {5,S}
11 H u0 p0 c0 {6,S}


>  <multiplicity>  (4) 
2

>  <reaction>  (4) 
rxn_1416

>  <type>  (4) 
r1

>  <role_mapnums>  (4) 
{}

>  <role_mapidx>  (4) 
{}

>  <ordered_mapped_smiles>  (4) 
[CH2:1]([CH2:2][C:3]([C:4]([H:8])([H:9])[H:10])[CH2:5][CH2:6][H:11])[H:7]

>  <level_of_theory>  (4) 
wb97xd/def2tzvp

>  <lot_method>  (4) 
wb97xd

>  <lot_basis>  (4) 
def2tzvp

>  <spin_multiplicity>  (4) 
2.0

>  <optical_isomers>  (4) 
1.0

>  <modes>  (4) 
IdealGasTranslation(mass=(77.0391, 'amu')),         NonlinearRotor(             inertia = ([87.0558, 182.116, 266.037

>  <frequency_value>  (4) 
unknown

>  <frequency_units>  (4) 
unknown

>  <frequency_list>  (4) 
unknown

>  <arkane_path>  (4) 
/home/calvin/Dropbox/PersonalFolders/Calvin/HAb_Converged/rxn_1416/output/Species/rxn_1416_CtC[C][C]CtC/arkane/output.py

>  <path_exists>  (4) 
True

>  <E0_value>  (4) 
-607514.9395077111

>  <E0_units>  (4) 
kJ/mol

>  <thermo_class>  (4) 
NASA

>  <Cp0_value>  (4) 
33.257888

>  <Cp0_units>  (4) 
J/(mol*K)

>  <CpInf_value>  (4) 
257.748632

>  <CpInf_units>  (4) 
J/(mol*K)

>  <Tmin_value>  (4) 
10.0

>  <Tmin_units>  (4) 
K

>  <Tmax_value>  (4) 
3000.0

>  <Tmax_units>  (4) 
K

>  <polynomials>  (4) 
[{"name": "polynomial1", "class": "NASAPolynomial", "Tmin_value": 10.0, "Tmin_units": "K", "Tmax_value": 349.46173600351864, "Tmax_units": "K", "coeffs": [3.766270434672447, 0.01962559465306403, 0.00015807938455067891, -5.467775010691105e-07, 5.441205279863145e-10, -73067173.52596356, 12.15378396539221]}, {"name": "polynomial2", "class": "NASAPolynomial", "Tmin_value": 349.46173600351864, "Tmin_units": "K", "Tmax_value": 3000.0, "Tmax_units": "K", "coeffs": [4.503025724813377, 0.03655999643186892, -2.3493426390627616e-05, 7.3276612126098215e-09, -8.780851036309253e-13, -73067379.9175016, 7.157724853906072]}]

>  <H298_value>  (4) 
-145194.46313324326

>  <H298_units>  (4) 
kcal/mol

>  <S298_value>  (4) 
84.90850212036293

>  <S298_units>  (4) 
cal/(mol*K)

>  <Cp_T_value_list>  (4) 
[26.877916196478143, 31.4268111749371, 35.31413934636125, 38.6518919246016, 43.93182763476164, 47.731054497646795, 53.19426248781607, 56.08143371701518, 57.80726761952239]

>  <Cp_T_units>  (4) 
cal/(mol*K)

>  <T_list>  (4) 
[300.0, 400.0, 500.0, 600.0, 800.0, 1000.0, 1500.0, 2000.0, 2400.0]

>  <T_units>  (4) 
K

>  <yaml_path>  (4) 
/home/calvin/Dropbox/PersonalFolders/Calvin/HAb_Converged/rxn_1416/output/Species/rxn_1416_CtC[C][C]CtC/rxn_1416_CtCCCCtC.yml

>  <frequencies_cm1>  (4) 
[29.02674694764, 135.43068448103998, 196.03869691536002, 226.34270313252, 381.02154746552, 485.94221616979996, 534.67721098584, 574.6774004748399, 575.94779275904, 598.55390843248, 680.22296484324, 681.74056859896, 705.74754927768, 980.1110807529599, 1012.7155270523198, 1219.2332435659998, 1286.1314145534398, 1393.02290804456, 1464.30221566616, 1471.2447378246798, 2036.0405464240396, 2119.5911568124798, 3006.0502917712797, 3079.4034289595193, 3119.3280816099996, 3427.5321167422394, 3431.14415102056]

>  <ZPE_kJmol>  (4) 
208.4566530536649

>  <E_elec_kJmol>  (4) 
-607723.3961607647

>  <E0_minus_Eelec_plus_ZPE_kJmol>  (4) 
0.0

>  <rxn>  (4) 
rxn_1416

>  <species_type>  (4) 
p1

>  <species_folder>  (4) 
rxn_1416_CtC[C][C]CtC

>  <frequencies_cm1_list>  (4) 
[29.02674694764, 135.43068448103998, 196.03869691536002, 226.34270313252, 381.02154746552, 485.94221616979996, 534.67721098584, 574.6774004748399, 575.94779275904, 598.55390843248, 680.22296484324, 681.74056859896, 705.74754927768, 980.1110807529599, 1012.7155270523198, 1219.2332435659998, 1286.1314145534398, 1393.02290804456, 1464.30221566616, 1471.2447378246798, 2036.0405464240396, 2119.5911568124798, 3006.0502917712797, 3079.4034289595193, 3119.3280816099996, 3427.5321167422394, 3431.14415102056]

>  <E0_kJmol>  (4) 
-607515

>  <H298_kJmol>  (4) 
-607494

$$$$

     RDKit          3D

 12 11  0  0  0  0  0  0  0  0999 V2000
    2.7049    0.9350   -0.4404 S   0  0  0  0  0  1  0  0  0  1  0  0
    1.0313    1.0813   -0.4080 C   0  0  0  0  0  0  0  0  0  2  0  0
    0.1364    0.1019   -0.0473 C   0  0  0  0  0  0  0  0  0  3  0  0
    0.5360   -1.2679    0.3784 C   0  0  0  0  0  0  0  0  0  4  0  0
   -1.3304    0.3842   -0.0689 C   0  0  0  0  0  0  0  0  0  5  0  0
    0.6069    2.0398   -0.6990 H   0  0  0  0  0  0  0  0  0  6  0  0
    0.1578   -1.4699    1.3849 H   0  0  0  0  0  0  0  0  0  7  0  0
    0.0783   -2.0109   -0.2814 H   0  0  0  0  0  0  0  0  0  8  0  0
    1.6154   -1.3973    0.3689 H   0  0  0  0  0  0  0  0  0  9  0  0
   -1.8406   -0.3126   -0.7406 H   0  0  0  0  0  0  0  0  0 10  0  0
   -1.5514    1.4016   -0.3887 H   0  0  0  0  0  0  0  0  0 11  0  0
   -1.7610    0.2281    0.9247 H   0  0  0  0  0  0  0  0  0 12  0  0
  1  2  1  0
  2  6  1  0
  2  3  1  0
  3  4  1  0
  3  5  1  0
  4  8  1  0
  4  9  1  0
  4  7  1  0
  5 11  1  0
  5 12  1  0
  5 10  1  0
M  RAD  1   1   2
M  END
>  <rmg_smiles>  (5) 
[S][CH][C](C)C

>  <rmg_adjacency_list>  (5) 
multiplicity 2
1  S u1 p2 c0 {5,S}
2  C u0 p0 c0 {4,S} {6,S} {7,S} {8,S}
3  C u0 p0 c0 {4,S} {9,S} {10,S} {11,S}
4  C u0 p0 c0 {2,S} {3,S} {5,S}
5  C u0 p0 c0 {1,S} {4,S} {12,S}
6  H u0 p0 c0 {2,S}
7  H u0 p0 c0 {2,S}
8  H u0 p0 c0 {2,S}
9  H u0 p0 c0 {3,S}
10 H u0 p0 c0 {3,S}
11 H u0 p0 c0 {3,S}
12 H u0 p0 c0 {5,S}


>  <multiplicity>  (5) 
2

>  <reaction>  (5) 
rxn_1416

>  <type>  (5) 
r2

>  <role_mapnums>  (5) 
{}

>  <role_mapidx>  (5) 
{}

>  <ordered_mapped_smiles>  (5) 
[S:1][CH:2]([CH:3]([C:4]([H:7])([H:8])[H:9])[C:5]([H:10])([H:11])[H:12])[H:6]

>  <level_of_theory>  (5) 
wb97xd/def2tzvp

>  <lot_method>  (5) 
wb97xd

>  <lot_basis>  (5) 
def2tzvp

>  <spin_multiplicity>  (5) 
2.0

>  <optical_isomers>  (5) 
1.0

>  <modes>  (5) 
IdealGasTranslation(mass=(87.0269, 'amu')),         NonlinearRotor(             inertia = ([59.4375, 215.284, 268.526

>  <frequency_value>  (5) 
unknown

>  <frequency_units>  (5) 
unknown

>  <frequency_list>  (5) 
unknown

>  <arkane_path>  (5) 
/home/calvin/Dropbox/PersonalFolders/Calvin/HAb_Converged/rxn_1416/output/Species/rxn_1416_S=C[C][C]C/arkane/output.py

>  <path_exists>  (5) 
True

>  <E0_value>  (5) 
-1456389.4058014078

>  <E0_units>  (5) 
kJ/mol

>  <thermo_class>  (5) 
NASA

>  <Cp0_value>  (5) 
33.257888

>  <Cp0_units>  (5) 
J/(mol*K)

>  <CpInf_value>  (5) 
282.692048

>  <CpInf_units>  (5) 
J/(mol*K)

>  <Tmin_value>  (5) 
10.0

>  <Tmin_units>  (5) 
K

>  <Tmax_value>  (5) 
3000.0

>  <Tmax_units>  (5) 
K

>  <polynomials>  (5) 
[{"name": "polynomial1", "class": "NASAPolynomial", "Tmin_value": 10.0, "Tmin_units": "K", "Tmax_value": 1069.7138576217342, "Tmax_units": "K", "coeffs": [3.7450953721106606, 0.02804067236145847, 4.837339460243766e-06, -1.862188975324303e-08, 7.102529060370391e-12, -175163186.63125047, 11.115318698362758]}, {"name": "polynomial2", "class": "NASAPolynomial", "Tmin_value": 1069.7138576217342, "Tmin_units": "K", "Tmax_value": 3000.0, "Tmax_units": "K", "coeffs": [5.373134457780288, 0.03266246334031504, -1.6660938713927265e-05, 4.135396675163868e-09, -4.033155674080627e-13, -175164147.67857578, 0.2872181639058632]}]

>  <H298_value>  (5) 
-348080.71273541875

>  <H298_units>  (5) 
kcal/mol

>  <S298_value>  (5) 
81.22134376115285

>  <S298_units>  (5) 
cal/(mol*K)

>  <Cp_T_value_list>  (5) 
[24.139386474933982, 29.26233594997063, 33.96322362768302, 38.17244953856237, 45.00688648485055, 49.886328245020486, 57.22140468570403, 60.97629997735028, 62.76138759591628]

>  <Cp_T_units>  (5) 
cal/(mol*K)

>  <T_list>  (5) 
[300.0, 400.0, 500.0, 600.0, 800.0, 1000.0, 1500.0, 2000.0, 2400.0]

>  <T_units>  (5) 
K

>  <yaml_path>  (5) 
/home/calvin/Dropbox/PersonalFolders/Calvin/HAb_Converged/rxn_1416/output/Species/rxn_1416_S=C[C][C]C/rxn_1416_S=CCCC.yml

>  <frequencies_cm1>  (5) 
[87.46479202084001, 132.99290469244, 210.48683402863998, 250.26041300207999, 372.11506750548, 441.34801350172, 490.53622934888, 795.65012108712, 848.51217408048, 924.6601742939599, 952.54013469316, 965.5393379039199, 1058.3672454596801, 1073.62568684072, 1212.6752725854, 1351.19610046044, 1396.66927724948, 1403.6667352905597, 1418.3002810074797, 1452.5665377542798, 1454.3588209227999, 1474.34861518932, 1518.6063355767199, 3001.0991953555595, 3006.29063625748, 3055.78786644404, 3059.9835944745596, 3097.51166924836, 3108.51944671632, 3128.82512230756]

>  <ZPE_kJmol>  (5) 
255.66898791025585

>  <E_elec_kJmol>  (5) 
-1456645.074789318

>  <E0_minus_Eelec_plus_ZPE_kJmol>  (5) 
0.0

>  <rxn>  (5) 
rxn_1416

>  <species_type>  (5) 
r1

>  <species_folder>  (5) 
rxn_1416_S=C[C][C]C

>  <frequencies_cm1_list>  (5) 
[87.46479202084001, 132.99290469244, 210.48683402863998, 250.26041300207999, 372.11506750548, 441.34801350172, 490.53622934888, 795.65012108712, 848.51217408048, 924.6601742939599, 952.54013469316, 965.5393379039199, 1058.3672454596801, 1073.62568684072, 1212.6752725854, 1351.19610046044, 1396.66927724948, 1403.6667352905597, 1418.3002810074797, 1452.5665377542798, 1454.3588209227999, 1474.34861518932, 1518.6063355767199, 3001.0991953555595, 3006.29063625748, 3055.78786644404, 3059.9835944745596, 3097.51166924836, 3108.51944671632, 3128.82512230756]

>  <E0_kJmol>  (5) 
-1.45639e+06

>  <H298_kJmol>  (5) 
-1.45637e+06

$$$$
