
     RDKit          3D

  4  3  0  0  0  0  0  0  0  0999 V2000
    0.3003   -0.2041    0.4651 C   0  0  0  0  0  0  0  0  0  1  0  0
   -0.2991    0.2002   -0.4728 O   0  0  0  0  0  0  0  0  0  2  0  0
    0.1687    0.2615    1.4639 H   0  0  0  0  0  0  0  0  0  3  0  0
    1.0143   -1.0520    0.4106 H   0  0  0  0  0  0  0  0  0  4  0  0
  1  3  1  0
  1  2  1  0
  1  4  1  0
M  END
>  <rmg_smiles>  (1) 
[CH2]O

>  <rmg_adjacency_list>  (1) 
1 O u0 p2 c0 {2,S}
2 C u0 p0 c0 {1,S} {3,S} {4,S}
3 H u0 p0 c0 {2,S}
4 H u0 p0 c0 {2,S}


>  <multiplicity>  (1) 
1

>  <reaction>  (1) 
rxn_368

>  <type>  (1) 
r1h

>  <role_mapnums>  (1) 
{"r1h_a": 1, "r1h_h": 3}

>  <role_mapidx>  (1) 
{"r1h_a": 0, "r1h_h": 2}

>  <ordered_mapped_smiles>  (1) 
[CH:1]([OH:2])([H:3])[H:4]

>  <mol_properties>  (1) 
{"0": {"label": "donator", "atom_type": "Cs"}, "2": {"label": "d_hydrogen", "atom_type": "H0"}}

>  <level_of_theory>  (1) 
wb97xd/def2tzvp

>  <lot_method>  (1) 
wb97xd

>  <lot_basis>  (1) 
def2tzvp

>  <spin_multiplicity>  (1) 
1.0

>  <optical_isomers>  (1) 
1.0

>  <modes>  (1) 
IdealGasTranslation(mass=(30.0106, 'amu')),         NonlinearRotor(             inertia = ([1.77806, 12.8193, 14.5973

>  <frequency_value>  (1) 
unknown

>  <frequency_units>  (1) 
unknown

>  <frequency_list>  (1) 
unknown

>  <arkane_path>  (1) 
/home/calvin/Dropbox/PersonalFolders/Calvin/HAb_Converged/rxn_368/output/Species/rxn_368_C=O/arkane/output.py

>  <path_exists>  (1) 
True

>  <E0_value>  (1) 
-300581.8492768013

>  <E0_units>  (1) 
kJ/mol

>  <thermo_class>  (1) 
NASA

>  <Cp0_value>  (1) 
33.257888

>  <Cp0_units>  (1) 
J/(mol*K)

>  <CpInf_value>  (1) 
83.14472

>  <CpInf_units>  (1) 
J/(mol*K)

>  <Tmin_value>  (1) 
10.0

>  <Tmin_units>  (1) 
K

>  <Tmax_value>  (1) 
3000.0

>  <Tmax_units>  (1) 
K

>  <polynomials>  (1) 
[{"name": "polynomial1", "class": "NASAPolynomial", "Tmin_value": 10.0, "Tmin_units": "K", "Tmax_value": 596.0202313099187, "Tmax_units": "K", "coeffs": [4.032085905965299, -0.0019550574143172394, 9.151617581216646e-06, 2.7701203546044124e-09, -7.982780212694088e-12, -36151647.441043995, 3.46612627393656]}, {"name": "polynomial2", "class": "NASAPolynomial", "Tmin_value": 596.0202313099187, "Tmin_units": "K", "Tmax_value": 3000.0, "Tmax_units": "K", "coeffs": [1.4201667765750836, 0.00951800511592072, -4.481463687097219e-06, 9.715072479143586e-10, -7.774645154236121e-14, -36151228.52298982, 15.617883371520154]}]

>  <H298_value>  (1) 
-71838.40974989386

>  <H298_units>  (1) 
kcal/mol

>  <S298_value>  (1) 
52.203392278201385

>  <S298_units>  (1) 
cal/(mol*K)

>  <Cp_T_value_list>  (1) 
[8.503946165987818, 9.314534232957735, 10.313210012164452, 11.361679376485984, 13.179155251059148, 14.606899785394228, 16.88951984115191, 18.000984931991262, 18.48265740351604]

>  <Cp_T_units>  (1) 
cal/(mol*K)

>  <T_list>  (1) 
[300.0, 400.0, 500.0, 600.0, 800.0, 1000.0, 1500.0, 2000.0, 2400.0]

>  <T_units>  (1) 
K

>  <yaml_path>  (1) 
/home/calvin/Dropbox/PersonalFolders/Calvin/HAb_Converged/rxn_368/output/Species/rxn_368_C=O/rxn_368_C=O.yml

>  <frequencies_cm1>  (1) 
[1198.0829287804, 1259.87892967508, 1521.5866072056, 1834.858477504, 2871.3269067782003, 2932.0447909776403]

>  <ZPE_kJmol>  (1) 
69.48976791829953

>  <E_elec_kJmol>  (1) 
-300651.3390447196

>  <E0_minus_Eelec_plus_ZPE_kJmol>  (1) 
0.0

>  <rxn>  (1) 
rxn_368

>  <species_type>  (1) 
r0

>  <species_folder>  (1) 
rxn_368_C=O

>  <frequencies_cm1_list>  (1) 
[1198.0829287804, 1259.87892967508, 1521.5866072056, 1834.858477504, 2871.3269067782003, 2932.0447909776403]

>  <E0_kJmol>  (1) 
-300582

>  <H298_kJmol>  (1) 
-300572

$$$$

     RDKit          3D

  6  5  0  0  0  0  0  0  0  0999 V2000
    0.7192   -0.9785   -0.4525 H   0  0  0  0  0  0  0  0  0  1  0  0
   -0.4739    0.4836   -0.2172 C   0  0  0  0  0  0  0  0  0  2  0  0
    0.4415   -0.4257    0.2816 O   0  0  0  0  0  0  0  0  0  3  0  0
   -0.1168    1.5135   -0.0980 H   0  0  0  0  0  0  0  0  0  4  0  0
   -1.4534    0.3650    0.2612 H   0  0  0  0  0  0  0  0  0  5  0  0
   -0.6246    0.3208   -1.2987 H   0  0  0  0  0  0  0  0  0  6  0  0
  1  3  1  0
  2  5  1  0
  2  3  1  0
  2  6  1  0
  2  4  1  0
M  END
>  <rmg_smiles>  (2) 
CO

>  <rmg_adjacency_list>  (2) 
1 H u0 p0 c0 {3,S}
2 C u0 p0 c0 {3,S} {4,S} {5,S} {6,S}
3 O u0 p2 c0 {1,S} {2,S}
4 H u0 p0 c0 {2,S}
5 H u0 p0 c0 {2,S}
6 H u0 p0 c0 {2,S}


>  <multiplicity>  (2) 
1

>  <reaction>  (2) 
rxn_368

>  <type>  (2) 
r2h

>  <role_mapnums>  (2) 
{"r2h_a": 3, "r2h_h": 1}

>  <role_mapidx>  (2) 
{"r2h_a": 2, "r2h_h": 0}

>  <ordered_mapped_smiles>  (2) 
[H:1][O:3][C:2]([H:4])([H:5])[H:6]

>  <mol_properties>  (2) 
{"0": {"label": "a_hydrogen", "atom_type": "H0"}, "2": {"label": "acceptor", "atom_type": "O2s"}}

>  <level_of_theory>  (2) 
wb97xd/def2tzvp

>  <lot_method>  (2) 
wb97xd

>  <lot_basis>  (2) 
def2tzvp

>  <spin_multiplicity>  (2) 
1.0

>  <optical_isomers>  (2) 
1.0

>  <modes>  (2) 
IdealGasTranslation(mass=(32.0262, 'amu')),         NonlinearRotor(             inertia = ([3.92427, 20.1792, 20.9046

>  <frequency_value>  (2) 
unknown

>  <frequency_units>  (2) 
unknown

>  <frequency_list>  (2) 
unknown

>  <arkane_path>  (2) 
/home/calvin/Dropbox/PersonalFolders/Calvin/HAb_Converged/rxn_368/output/Species/rxn_368_CO/arkane/output.py

>  <path_exists>  (2) 
True

>  <E0_value>  (2) 
-303729.7991258424

>  <E0_units>  (2) 
kJ/mol

>  <thermo_class>  (2) 
NASA

>  <Cp0_value>  (2) 
33.257888

>  <Cp0_units>  (2) 
J/(mol*K)

>  <CpInf_value>  (2) 
133.031552

>  <CpInf_units>  (2) 
J/(mol*K)

>  <Tmin_value>  (2) 
10.0

>  <Tmin_units>  (2) 
K

>  <Tmax_value>  (2) 
3000.0

>  <Tmax_units>  (2) 
K

>  <polynomials>  (2) 
[{"name": "polynomial1", "class": "NASAPolynomial", "Tmin_value": 10.0, "Tmin_units": "K", "Tmax_value": 698.3341813253346, "Tmax_units": "K", "coeffs": [4.0215567421085705, -0.0013918275597151857, 3.088654492877698e-05, -3.5619840730823004e-08, 1.3319640500111606e-11, -36530257.7067979, 5.049565126331713]}, {"name": "polynomial2", "class": "NASAPolynomial", "Tmin_value": 698.3341813253346, "Tmin_units": "K", "Tmax_value": 3000.0, "Tmax_units": "K", "coeffs": [0.8030292187352491, 0.017044670475023747, -8.716711867271086e-06, 2.1896521783613246e-09, -2.167249261470434e-13, -36529808.21061414, 19.421281761974193]}]

>  <H298_value>  (2) 
-72590.49257555492

>  <H298_units>  (2) 
kcal/mol

>  <S298_value>  (2) 
56.892649290373726

>  <S298_units>  (2) 
cal/(mol*K)

>  <Cp_T_value_list>  (2) 
[10.989154390574786, 12.853223622326096, 14.759532412177741, 16.569240748625823, 19.65824435082755, 22.065772230460606, 25.93371928197072, 27.970212309601845, 28.976087551849815]

>  <Cp_T_units>  (2) 
cal/(mol*K)

>  <T_list>  (2) 
[300.0, 400.0, 500.0, 600.0, 800.0, 1000.0, 1500.0, 2000.0, 2400.0]

>  <T_units>  (2) 
K

>  <yaml_path>  (2) 
/home/calvin/Dropbox/PersonalFolders/Calvin/HAb_Converged/rxn_368/output/Species/rxn_368_CO/rxn_368_CO.yml

>  <frequencies_cm1>  (2) 
[308.3894437358799, 1061.07283767576, 1096.6987575159199, 1170.2098353665199, 1363.8038855079599, 1472.6044009180396, 1484.93063956744, 1497.8268379983997, 2973.4595794425595, 3026.27356353868, 3097.9030874116, 3862.39082911656]

>  <ZPE_kJmol>  (2) 
134.07488361253408

>  <E_elec_kJmol>  (2) 
-303863.8740094549

>  <E0_minus_Eelec_plus_ZPE_kJmol>  (2) 
0.0

>  <rxn>  (2) 
rxn_368

>  <species_type>  (2) 
p0

>  <species_folder>  (2) 
rxn_368_CO

>  <frequencies_cm1_list>  (2) 
[308.3894437358799, 1061.07283767576, 1096.6987575159199, 1170.2098353665199, 1363.8038855079599, 1472.6044009180396, 1484.93063956744, 1497.8268379983997, 2973.4595794425595, 3026.27356353868, 3097.9030874116, 3862.39082911656]

>  <E0_kJmol>  (2) 
-303730

>  <H298_kJmol>  (2) 
-303719

$$$$

     RDKit          3D

  9  7  0  0  0  0  0  0  0  0999 V2000
    0.4260   -0.9830   -0.4765 C   0  0  0  0  0  0  0  0  0  1  0  0
   -0.1735   -0.5787   -1.4144 O   0  0  0  0  0  0  0  0  0  2  0  0
    0.2822   -0.4745    0.6143 H   0  0  0  0  0  0  0  0  0  3  0  0
    1.1399   -1.8309   -0.5310 H   0  0  0  0  0  0  0  0  0  4  0  0
   -1.0225    1.2096    1.1446 C   0  0  0  0  0  0  0  0  0  5  0  0
   -0.1071    0.3003    1.6435 O   0  0  0  0  0  1  0  0  0  6  0  0
   -0.6654    2.2395    1.2638 H   0  0  0  0  0  0  0  0  0  7  0  0
   -2.0020    1.0911    1.6230 H   0  0  0  0  0  0  0  0  0  8  0  0
   -1.1732    1.0468    0.0631 H   0  0  0  0  0  0  0  0  0  9  0  0
  1  4  1  0
  1  3  1  0
  1  2  1  0
  5  8  1  0
  5  7  1  0
  5  6  1  0
  5  9  1  0
M  RAD  1   6   2
M  END
>  <rmg_smiles>  (3) 
C[O].[CH2]O

>  <rmg_adjacency_list>  (3) 
multiplicity 2
1 O u1 p2 c0 {3,S}
2 O u0 p2 c0 {4,S}
3 C u0 p0 c0 {1,S} {5,S} {6,S} {7,S}
4 C u0 p0 c0 {2,S} {8,S} {9,S}
5 H u0 p0 c0 {3,S}
6 H u0 p0 c0 {3,S}
7 H u0 p0 c0 {3,S}
8 H u0 p0 c0 {4,S}
9 H u0 p0 c0 {4,S}


>  <multiplicity>  (3) 
2

>  <reaction>  (3) 
rxn_368

>  <type>  (3) 
ts

>  <role_mapnums>  (3) 
{"*2": 3, "*1": 1, "*3": 6, "*0": 2, "*4": 5}

>  <role_mapidx>  (3) 
{"*2": 2, "*1": 0, "*3": 5, "*0": 1, "*4": 4}

>  <ordered_mapped_smiles>  (3) 
[CH:1]([OH:2])([H:3])[H:4].[C:5]([O:6])([H:7])([H:8])[H:9]

>  <mol_properties>  (3) 
{"0": {"label": "*1", "atom_type": "Cs"}, "1": {"label": "*0", "atom_type": "O2s"}, "2": {"label": "*2", "atom_type": "H0"}, "4": {"label": "*4", "atom_type": "Cs"}, "5": {"label": "*3", "atom_type": "O2s"}}

>  <level_of_theory>  (3) 
wb97xd/def2tzvp

>  <lot_method>  (3) 
wb97xd

>  <lot_basis>  (3) 
def2tzvp

>  <spin_multiplicity>  (3) 
2.0

>  <optical_isomers>  (3) 
1.0

>  <modes>  (3) 
IdealGasTranslation(mass=(61.029, 'amu')),         NonlinearRotor(             inertia = ([29.2805, 133.685, 159.706

>  <frequency_value>  (3) 
-1083.32

>  <frequency_units>  (3) 
cm^-1

>  <frequency_list>  (3) 
unknown

>  <arkane_path>  (3) 
/home/calvin/Dropbox/PersonalFolders/Calvin/HAb_Converged/rxn_368/output/rxns/TS0/arkane/output.py

>  <path_exists>  (3) 
True

>  <E0_value>  (3) 
-602575.0

>  <E0_units>  (3) 
kJ/mol

>  <thermo_class>  (3) 
unknown

>  <Cp0_value>  (3) 
unknown

>  <Cp0_units>  (3) 
unknown

>  <CpInf_value>  (3) 
unknown

>  <CpInf_units>  (3) 
unknown

>  <Tmin_value>  (3) 
unknown

>  <Tmin_units>  (3) 
unknown

>  <Tmax_value>  (3) 
unknown

>  <Tmax_units>  (3) 
unknown

>  <polynomials>  (3) 
unknown

>  <H298_value>  (3) 
unknown

>  <H298_units>  (3) 
unknown

>  <S298_value>  (3) 
unknown

>  <S298_units>  (3) 
unknown

>  <Cp_T_value_list>  (3) 
unknown

>  <Cp_T_units>  (3) 
unknown

>  <T_list>  (3) 
unknown

>  <T_units>  (3) 
unknown

>  <yaml_path>  (3) 
unknown

>  <frequencies_cm1>  (3) 
unknown

>  <ZPE_kJmol>  (3) 
unknown

>  <E_elec_kJmol>  (3) 
unknown

>  <E0_minus_Eelec_plus_ZPE_kJmol>  (3) 
unknown

>  <rxn>  (3) 
unknown

>  <species_type>  (3) 
unknown

>  <species_folder>  (3) 
unknown

>  <frequencies_cm1_list>  (3) 
[]

>  <ts_imag_freq_cm1>  (3) 
-1096.4769

>  <ts_freq_out_path>  (3) 
/home/calvin/Dropbox/PersonalFolders/Calvin/HAb_Converged/rxn_368/output/rxns/TS0/geometry/freq.out

>  <E0_kJmol>  (3) 
-602575

>  <H298_kJmol>  (3) 
unknown

$$$$

     RDKit          3D

  3  2  0  0  0  0  0  0  0  0999 V2000
   -0.0494   -0.2484    0.2507 C   0  0  0  0  0  3  0  0  0  1  0  0
    1.0305   -0.0025   -0.1225 O   0  0  0  0  0  0  0  0  0  2  0  0
   -0.9811    0.2509   -0.1282 H   0  0  0  0  0  0  0  0  0  3  0  0
  1  3  1  0
  1  2  1  0
M  RAD  1   1   2
M  END
>  <rmg_smiles>  (4) 
[CH]O

>  <rmg_adjacency_list>  (4) 
multiplicity 2
1 O u0 p2 c0 {2,S}
2 C u1 p1 c0 {1,S} {3,S}
3 H u0 p0 c0 {2,S}


>  <multiplicity>  (4) 
2

>  <reaction>  (4) 
rxn_368

>  <type>  (4) 
r1

>  <role_mapnums>  (4) 
{}

>  <role_mapidx>  (4) 
{}

>  <ordered_mapped_smiles>  (4) 
[CH:1]([OH:2])[H:3]

>  <level_of_theory>  (4) 
wb97xd/def2tzvp

>  <lot_method>  (4) 
wb97xd

>  <lot_basis>  (4) 
def2tzvp

>  <spin_multiplicity>  (4) 
2.0

>  <optical_isomers>  (4) 
1.0

>  <modes>  (4) 
IdealGasTranslation(mass=(29.0027, 'amu')),         NonlinearRotor(             inertia = ([0.700875, 11.1487, 11.8495

>  <frequency_value>  (4) 
unknown

>  <frequency_units>  (4) 
unknown

>  <frequency_list>  (4) 
unknown

>  <arkane_path>  (4) 
/home/calvin/Dropbox/PersonalFolders/Calvin/HAb_Converged/rxn_368/output/Species/rxn_368_[CH]=O/arkane/output.py

>  <path_exists>  (4) 
True

>  <E0_value>  (4) 
-298906.1077306665

>  <E0_units>  (4) 
kJ/mol

>  <thermo_class>  (4) 
NASA

>  <Cp0_value>  (4) 
33.257888

>  <Cp0_units>  (4) 
J/(mol*K)

>  <CpInf_value>  (4) 
58.201304

>  <CpInf_units>  (4) 
J/(mol*K)

>  <Tmin_value>  (4) 
10.0

>  <Tmin_units>  (4) 
K

>  <Tmax_value>  (4) 
3000.0

>  <Tmax_units>  (4) 
K

>  <polynomials>  (4) 
[{"name": "polynomial1", "class": "NASAPolynomial", "Tmin_value": 10.0, "Tmin_units": "K", "Tmax_value": 629.0298210308599, "Tmax_units": "K", "coeffs": [4.014102882683708, -0.0008324795883831571, 4.565579246907136e-06, 1.8759145517584504e-10, -2.6566115652939827e-12, -35950101.58716698, 4.133195860540231]}, {"name": "polynomial2", "class": "NASAPolynomial", "Tmin_value": 629.0298210308599, "Tmin_units": "K", "Tmax_value": 3000.0, "Tmax_units": "K", "coeffs": [2.7179959763808474, 0.004696002612705784, -2.147191260089301e-06, 4.442684519101416e-10, -3.310207329463011e-14, -35949884.84629044, 10.21202947719163]}]

>  <H298_value>  (4) 
-71437.89365082364

>  <H298_units>  (4) 
kcal/mol

>  <S298_value>  (4) 
53.5611258517338

>  <S298_units>  (4) 
cal/(mol*K)

>  <Cp_T_value_list>  (4) 
[8.26440940753634, 8.65547727921093, 9.134529743111672, 9.64678775064494, 10.561013913859158, 11.283306264025612, 12.445171518806877, 13.00775815391011, 13.242546039666259]

>  <Cp_T_units>  (4) 
cal/(mol*K)

>  <T_list>  (4) 
[300.0, 400.0, 500.0, 600.0, 800.0, 1000.0, 1500.0, 2000.0, 2400.0]

>  <T_units>  (4) 
K

>  <yaml_path>  (4) 
/home/calvin/Dropbox/PersonalFolders/Calvin/HAb_Converged/rxn_368/output/Species/rxn_368_[CH]=O/rxn_368_CH=O.yml

>  <frequencies_cm1>  (4) 
[1103.9502940138398, 1953.2384374354797, 2665.077002692]

>  <ZPE_kJmol>  (4) 
34.2267597035915

>  <E_elec_kJmol>  (4) 
-298940.3344903701

>  <E0_minus_Eelec_plus_ZPE_kJmol>  (4) 
0.0

>  <rxn>  (4) 
rxn_368

>  <species_type>  (4) 
p1

>  <species_folder>  (4) 
rxn_368_[CH]=O

>  <frequencies_cm1_list>  (4) 
[1103.9502940138398, 1953.2384374354797, 2665.077002692]

>  <E0_kJmol>  (4) 
-298906

>  <H298_kJmol>  (4) 
-298896

$$$$

     RDKit          3D

  5  4  0  0  0  0  0  0  0  0999 V2000
   -0.0419    0.0056   -0.0340 C   0  0  0  0  0  0  0  0  0  1  0  0
    1.3118    0.0049   -0.1263 O   0  0  0  0  0  1  0  0  0  2  0  0
   -0.2615   -0.1535    1.0387 H   0  0  0  0  0  0  0  0  0  3  0  0
   -0.4946    0.9694   -0.3042 H   0  0  0  0  0  0  0  0  0  4  0  0
   -0.5138   -0.8264   -0.5743 H   0  0  0  0  0  0  0  0  0  5  0  0
  1  3  1  0
  1  5  1  0
  1  2  1  0
  1  4  1  0
M  RAD  1   2   2
M  END
>  <rmg_smiles>  (5) 
C[O]

>  <rmg_adjacency_list>  (5) 
multiplicity 2
1 O u1 p2 c0 {2,S}
2 C u0 p0 c0 {1,S} {3,S} {4,S} {5,S}
3 H u0 p0 c0 {2,S}
4 H u0 p0 c0 {2,S}
5 H u0 p0 c0 {2,S}


>  <multiplicity>  (5) 
2

>  <reaction>  (5) 
rxn_368

>  <type>  (5) 
r2

>  <role_mapnums>  (5) 
{}

>  <role_mapidx>  (5) 
{}

>  <ordered_mapped_smiles>  (5) 
[C:1]([O:2])([H:3])([H:4])[H:5]

>  <level_of_theory>  (5) 
wb97xd/def2tzvp

>  <lot_method>  (5) 
wb97xd

>  <lot_basis>  (5) 
def2tzvp

>  <spin_multiplicity>  (5) 
2.0

>  <optical_isomers>  (5) 
1.0

>  <modes>  (5) 
IdealGasTranslation(mass=(31.0184, 'amu')),         NonlinearRotor(             inertia = ([3.20006, 17.856, 17.9799

>  <frequency_value>  (5) 
unknown

>  <frequency_units>  (5) 
unknown

>  <frequency_list>  (5) 
unknown

>  <arkane_path>  (5) 
/home/calvin/Dropbox/PersonalFolders/Calvin/HAb_Converged/rxn_368/output/Species/rxn_368_C[O]/arkane/output.py

>  <path_exists>  (5) 
True

>  <E0_value>  (5) 
-301997.4592844708

>  <E0_units>  (5) 
kJ/mol

>  <thermo_class>  (5) 
NASA

>  <Cp0_value>  (5) 
33.257888

>  <Cp0_units>  (5) 
J/(mol*K)

>  <CpInf_value>  (5) 
108.088136

>  <CpInf_units>  (5) 
J/(mol*K)

>  <Tmin_value>  (5) 
10.0

>  <Tmin_units>  (5) 
K

>  <Tmax_value>  (5) 
3000.0

>  <Tmax_units>  (5) 
K

>  <polynomials>  (5) 
[{"name": "polynomial1", "class": "NASAPolynomial", "Tmin_value": 10.0, "Tmin_units": "K", "Tmax_value": 768.0613257813918, "Tmax_units": "K", "coeffs": [4.071531284852787, -0.00478847591865734, 3.764596783531025e-05, -4.4570360336843924e-08, 1.7325268907363202e-11, -36321906.564503476, 5.398160587999018]}, {"name": "polynomial2", "class": "NASAPolynomial", "Tmin_value": 768.0613257813918, "Tmin_units": "K", "Tmax_value": 3000.0, "Tmax_units": "K", "coeffs": [1.2714082173505477, 0.014092453513364796, -7.621997557733762e-06, 2.0075695875970043e-09, -2.0714898259988795e-13, -36321603.20820464, 17.342918480552115]}]

>  <H298_value>  (5) 
-72176.63877918998

>  <H298_units>  (5) 
kcal/mol

>  <S298_value>  (5) 
56.594923500391765

>  <S298_units>  (5) 
cal/(mol*K)

>  <Cp_T_value_list>  (5) 
[9.856664596899671, 11.467214050117134, 13.116197916073263, 14.64402511553813, 17.110483872693333, 18.96249034477297, 21.83433130628855, 23.279126565780388, 23.98662895077459]

>  <Cp_T_units>  (5) 
cal/(mol*K)

>  <T_list>  (5) 
[300.0, 400.0, 500.0, 600.0, 800.0, 1000.0, 1500.0, 2000.0, 2400.0]

>  <T_units>  (5) 
K

>  <yaml_path>  (5) 
/home/calvin/Dropbox/PersonalFolders/Calvin/HAb_Converged/rxn_368/output/Species/rxn_368_C[O]/rxn_368_CO.yml

>  <frequencies_cm1>  (5) 
[717.9295812353599, 959.00196787928, 1127.7649991035998, 1355.17895194604, 1359.9103048315199, 1501.9538961757198, 2892.6488961967993, 2963.9144698477603, 3005.76874537316]

>  <ZPE_kJmol>  (5) 
95.0078752547944

>  <E_elec_kJmol>  (5) 
-302092.4671597256

>  <E0_minus_Eelec_plus_ZPE_kJmol>  (5) 
0.0

>  <rxn>  (5) 
rxn_368

>  <species_type>  (5) 
r1

>  <species_folder>  (5) 
rxn_368_C[O]

>  <frequencies_cm1_list>  (5) 
[717.9295812353599, 959.00196787928, 1127.7649991035998, 1355.17895194604, 1359.9103048315199, 1501.9538961757198, 2892.6488961967993, 2963.9144698477603, 3005.76874537316]

>  <E0_kJmol>  (5) 
-301997

>  <H298_kJmol>  (5) 
-301987

$$$$
